1a_Grossjean_2025
     RDKit          3D

 26 27  0  0  0  0  0  0  0  0999 V2000
  131.6290  126.3650   73.8340 C   0  0  0  0  0  0  0  0  0  0  0  0
  130.1770  126.0880   73.4360 C   0  0  0  0  0  0  0  0  0  0  0  0
  129.3590  127.1820   73.8310 O   0  0  0  0  0  0  0  0  0  0  0  0
  129.1190  128.2180   72.9850 C   0  0  0  0  0  0  0  0  0  0  0  0
  128.7340  129.3290   73.3630 O   0  0  0  0  0  0  0  0  0  0  0  0
  129.3510  127.8720   71.5420 C   0  0  0  0  0  0  0  0  0  0  0  0
  130.6270  128.0530   70.9930 C   0  0  0  0  0  0  0  0  0  0  0  0
  130.8720  127.7460   69.6580 C   0  0  0  0  0  0  0  0  0  0  0  0
  129.8510  127.2540   68.8450 C   0  0  0  0  0  0  0  0  0  0  0  0
  130.2110  126.9800   67.5110 N   0  0  0  0  0  0  0  0  0  0  0  0
  130.3830  125.7970   66.8840 C   0  0  0  0  0  0  0  0  0  0  0  0
  130.2460  124.6880   67.3990 O   0  0  0  0  0  0  0  0  0  0  0  0
  130.7830  125.8890   65.4090 C   0  0  0  0  0  0  0  0  0  0  0  0
  132.4660  125.2670   65.1150 S   0  0  0  0  0  0  0  0  0  0  0  0
  132.4180  124.2730   63.6410 C   0  0  0  0  0  0  0  0  0  0  0  0
  133.3590  124.6080   62.7230 N   0  0  0  0  0  0  0  0  0  0  0  0
  133.4080  123.9180   61.5600 C   0  0  0  0  0  0  0  0  0  0  0  0
  134.4770  124.3580   60.5770 C   0  0  0  0  0  0  0  0  0  0  0  0
  132.5390  122.8680   61.2710 C   0  0  0  0  0  0  0  0  0  0  0  0
  131.5790  122.5000   62.2200 C   0  0  0  0  0  0  0  0  0  0  0  0
  130.6470  121.3360   61.8870 C   0  0  0  0  0  0  0  0  0  0  0  0
  131.5110  123.2050   63.4430 C   0  0  0  0  0  0  0  0  0  0  0  0
  130.5460  122.8050   64.4720 C   0  0  0  0  0  0  0  0  0  0  0  0
  129.7830  122.4880   65.2820 N   0  0  0  0  0  0  0  0  0  0  0  0
  128.5720  127.0620   69.3890 C   0  0  0  0  0  0  0  0  0  0  0  0
  128.3270  127.3700   70.7240 C   0  0  0  0  0  0  0  0  0  0  0  0
  1  2  1  0
  2  3  1  0
  3  4  1  0
  4  5  2  0
  4  6  1  0
  6  7  2  0
  7  8  1  0
  8  9  2  0
  9 10  1  0
 10 11  1  0
 11 12  2  0
 11 13  1  0
 13 14  1  0
 14 15  1  0
 15 16  2  0
 16 17  1  0
 17 18  1  0
 17 19  2  0
 19 20  1  0
 20 21  1  0
 20 22  2  0
 22 23  1  0
 23 24  3  0
  9 25  1  0
 25 26  2  0
 26  6  1  0
 22 15  1  0
M  END
>  <Binding energies>  (1) 
[-7.43]

>  <Ligand effiencies>  (1) 
[-0.2751851851851852]

>  <Interactions>  (1) 
["V-A:ILE:369:CD1:3236, V-A:LEU:475:CD2:4256, V-A:GLU:543:CG:4905, V-A:ASP:366:CG:3210, V-A:ILE:369:CG2:3234, V-B:HIS:456:CE1:9040, V-B:GLU:543:CD:9880, V-B:GLU:543:CB:9878, V-B:GLU:543:CG:9879, V-A:HIS:456:CE1:4066, H-A:GLU:543:OE2:4908, V-A:ASP:366:CA:3207, V-A:TYR:484:CE2:4343, V-A:TYR:484:CZ:4344, V-A:GLU:543:CD:4906, V-B:GLU:543:C:9874, V-A:ILE:369:CB:3233, V-B:GLY:544:C:9884, H-A:GLY:454:N:4047, H-A:GLU:543:OE1:4907, V-B:ALA:541:CB:9864, V-A:HIS:456:CD2:4065, H-A:HIS:456:NE2:4067, H-B:HIS:456:NE2:9041, V-A:GLY:544:C:4910, H-A:TYR:484:OH:4345, H-A:ARG:545:NE:4922, V-A:GLY:544:CA:4912, V-A:GLU:543:C:4900, V-B:HIS:456:CD2:9039, V-A:LYS:547:CE:4948, V-A:HIS:456:CG:4063, H-B:LYS:547:NZ:9923, V-A:HIS:456:CB:4062, H-A:LYS:547:NZ:4949"]

$$$$
1aa_Ghoteimi_2023
     RDKit          3D

 40 43  0  0  0  0  0  0  0  0999 V2000
  126.0240  129.4200   75.4590 C   0  0  0  0  0  0  0  0  0  0  0  0
  126.4760  128.1520   74.7280 C   0  0  0  0  0  0  0  0  0  0  0  0
  127.8850  128.1910   74.5390 O   0  0  0  0  0  0  0  0  0  0  0  0
  128.4440  128.9850   73.5900 C   0  0  0  0  0  0  0  0  0  0  0  0
  128.7320  130.1710   73.7780 O   0  0  0  0  0  0  0  0  0  0  0  0
  128.6760  128.2780   72.2860 C   0  0  0  0  0  0  0  0  0  0  0  0
  127.6240  127.7040   71.5550 C   0  0  0  0  0  0  0  0  0  0  0  0
  127.8700  127.0540   70.3470 C   0  0  0  0  0  0  0  0  0  0  0  0
  129.1770  126.9700   69.8470 C   0  0  0  0  0  0  0  0  0  0  0  0
  129.5440  126.3400   68.6430 N   0  0  0  0  0  0  0  0  0  0  0  0
  130.4430  126.7070   67.7000 C   0  0  0  0  0  0  0  0  0  0  0  0
  131.1390  127.7200   67.7490 O   0  0  0  0  0  0  0  0  0  0  0  0
  130.6020  125.7830   66.4820 C   0  0  0  0  0  0  0  0  0  0  0  0
  129.8370  126.2770   65.3750 O   0  0  0  0  0  0  0  0  0  0  0  0
  130.2800  126.0820   64.0740 C   0  0  0  0  0  0  0  0  0  0  0  0
  130.3310  127.1630   63.2470 N   0  0  0  0  0  0  0  0  0  0  0  0
  130.7460  127.0100   61.9610 C   0  0  0  0  0  0  0  0  0  0  0  0
  130.7760  128.2500   61.1140 C   0  0  0  0  0  0  0  0  0  0  0  0
  130.8000  129.5250   61.7010 C   0  0  0  0  0  0  0  0  0  0  0  0
  130.8250  130.6750   60.9180 C   0  0  0  0  0  0  0  0  0  0  0  0
  130.8300  130.5890   59.5270 C   0  0  0  0  0  0  0  0  0  0  0  0
  130.8550  131.7840   58.8330 O   0  0  0  0  0  0  0  0  0  0  0  0
  129.6280  132.3650   58.4070 C   0  0  0  0  0  0  0  0  0  0  0  0
  130.8120  129.3230   58.9270 C   0  0  0  0  0  0  0  0  0  0  0  0
  130.7870  128.1740   59.7120 C   0  0  0  0  0  0  0  0  0  0  0  0
  131.1410  125.7550   61.4830 C   0  0  0  0  0  0  0  0  0  0  0  0
  131.1090  124.6290   62.3170 C   0  0  0  0  0  0  0  0  0  0  0  0
  131.5540  123.3210   61.7500 C   0  0  0  0  0  0  0  0  0  0  0  0
  130.6380  122.2750   61.5950 C   0  0  0  0  0  0  0  0  0  0  0  0
  131.0430  121.0560   61.0590 C   0  0  0  0  0  0  0  0  0  0  0  0
  132.3650  120.8590   60.6620 C   0  0  0  0  0  0  0  0  0  0  0  0
  132.6750  119.6170   60.1400 O   0  0  0  0  0  0  0  0  0  0  0  0
  131.9580  118.4750   60.5940 C   0  0  0  0  0  0  0  0  0  0  0  0
  133.2840  121.9080   60.8080 C   0  0  0  0  0  0  0  0  0  0  0  0
  132.8780  123.1270   61.3460 C   0  0  0  0  0  0  0  0  0  0  0  0
  130.6570  124.7980   63.6470 C   0  0  0  0  0  0  0  0  0  0  0  0
  130.5470  123.6730   64.5770 C   0  0  0  0  0  0  0  0  0  0  0  0
  130.4600  122.7850   65.3140 N   0  0  0  0  0  0  0  0  0  0  0  0
  130.2250  127.5380   70.5720 C   0  0  0  0  0  0  0  0  0  0  0  0
  129.9790  128.1860   71.7790 C   0  0  0  0  0  0  0  0  0  0  0  0
  1  2  1  0
  2  3  1  0
  3  4  1  0
  4  5  2  0
  4  6  1  0
  6  7  2  0
  7  8  1  0
  8  9  2  0
  9 10  1  0
 10 11  1  0
 11 12  2  0
 11 13  1  0
 13 14  1  0
 14 15  1  0
 15 16  2  0
 16 17  1  0
 17 18  1  0
 18 19  2  0
 19 20  1  0
 20 21  2  0
 21 22  1  0
 22 23  1  0
 21 24  1  0
 24 25  2  0
 17 26  2  0
 26 27  1  0
 27 28  1  0
 28 29  2  0
 29 30  1  0
 30 31  2  0
 31 32  1  0
 32 33  1  0
 31 34  1  0
 34 35  2  0
 27 36  2  0
 36 37  1  0
 37 38  3  0
  9 39  1  0
 39 40  2  0
 40  6  1  0
 36 15  1  0
 25 18  1  0
 35 28  1  0
M  END
>  <Binding energies>  (2) 
[-6.9]

>  <Ligand effiencies>  (2) 
[-0.16829268292682928]

>  <Interactions>  (2) 
["V-A:TYR:539:CD1:4871, V-A:PRO:540:CA:4881, V-A:PRO:540:N:4882, V-A:TYR:539:C:4865, V-B:TYR:539:CE1:9847, V-A:ILE:369:CD1:3236, V-A:LEU:475:CD2:4256, V-B:TYR:539:CD1:9845, V-A:ASP:366:CG:3210, V-A:ILE:369:CG2:3234, V-B:HIS:456:CE1:9040, V-B:GLU:543:CD:9880, H-A:ARG:545:NH2:4926, V-B:GLU:543:CB:9878, V-B:GLU:543:CG:9879, V-A:HIS:456:CE1:4066, V-A:TYR:484:CE2:4343, V-A:GLU:543:CD:4906, V-B:GLU:543:C:9874, V-B:GLY:544:C:9884, V-A:HIS:456:CD2:4065, V-A:GLY:544:C:4910, H-A:TYR:484:OH:4345, V-A:LEU:373:CD1:3277, V-A:GLY:544:CA:4912, V-A:GLU:543:C:4900, V-B:HIS:456:CD2:9039, V-B:HIS:456:CG:9037, V-A:LYS:547:CE:4948, V-B:GLY:544:CA:9886, H-B:LYS:547:NZ:9923, H-A:LYS:547:NZ:4949, V-B:LYS:547:CE:9922, V-B:HIS:456:CB:9036, V-B:LYS:547:CD:9921, H-B:GLU:543:O:9875"]

$$$$
1b_Grossjean_2025
     RDKit          3D

 25 26  0  0  0  0  0  0  0  0999 V2000
  130.4750  126.3080   73.6020 C   0  0  0  0  0  0  0  0  0  0  0  0
  129.3460  127.1560   73.7600 O   0  0  0  0  0  0  0  0  0  0  0  0
  129.1320  128.1980   72.9160 C   0  0  0  0  0  0  0  0  0  0  0  0
  128.7400  129.3080   73.2910 O   0  0  0  0  0  0  0  0  0  0  0  0
  129.4270  127.8700   71.4800 C   0  0  0  0  0  0  0  0  0  0  0  0
  130.6990  128.0650   70.9200 C   0  0  0  0  0  0  0  0  0  0  0  0
  130.9380  127.7520   69.5860 C   0  0  0  0  0  0  0  0  0  0  0  0
  129.9190  127.2380   68.7850 C   0  0  0  0  0  0  0  0  0  0  0  0
  130.2750  126.9590   67.4510 N   0  0  0  0  0  0  0  0  0  0  0  0
  130.4950  125.7750   66.8390 C   0  0  0  0  0  0  0  0  0  0  0  0
  130.4130  124.6680   67.3700 O   0  0  0  0  0  0  0  0  0  0  0  0
  130.8650  125.8630   65.3570 C   0  0  0  0  0  0  0  0  0  0  0  0
  132.5430  125.2440   65.0310 S   0  0  0  0  0  0  0  0  0  0  0  0
  132.4570  124.2140   63.5820 C   0  0  0  0  0  0  0  0  0  0  0  0
  133.3110  124.5850   62.5960 N   0  0  0  0  0  0  0  0  0  0  0  0
  133.3300  123.8690   61.4480 C   0  0  0  0  0  0  0  0  0  0  0  0
  134.3210  124.3330   60.3970 C   0  0  0  0  0  0  0  0  0  0  0  0
  132.4980  122.7720   61.2330 C   0  0  0  0  0  0  0  0  0  0  0  0
  131.5980  122.3960   62.2340 C   0  0  0  0  0  0  0  0  0  0  0  0
  130.6850  121.2000   61.9690 C   0  0  0  0  0  0  0  0  0  0  0  0
  131.5600  123.1290   63.4420 C   0  0  0  0  0  0  0  0  0  0  0  0
  130.5950  122.7800   64.4880 C   0  0  0  0  0  0  0  0  0  0  0  0
  129.8320  122.5020   65.3110 N   0  0  0  0  0  0  0  0  0  0  0  0
  128.6450  127.0390   69.3370 C   0  0  0  0  0  0  0  0  0  0  0  0
  128.4060  127.3530   70.6720 C   0  0  0  0  0  0  0  0  0  0  0  0
  1  2  1  0
  2  3  1  0
  3  4  2  0
  3  5  1  0
  5  6  2  0
  6  7  1  0
  7  8  2  0
  8  9  1  0
  9 10  1  0
 10 11  2  0
 10 12  1  0
 12 13  1  0
 13 14  1  0
 14 15  2  0
 15 16  1  0
 16 17  1  0
 16 18  2  0
 18 19  1  0
 19 20  1  0
 19 21  2  0
 21 22  1  0
 22 23  3  0
  8 24  1  0
 24 25  2  0
 25  5  1  0
 21 14  1  0
M  END
>  <Binding energies>  (3) 
[-7.13]

>  <Ligand effiencies>  (3) 
[-0.2742307692307692]

>  <Interactions>  (3) 
["V-B:TYR:539:CE1:9847, V-A:ILE:369:CD1:3236, V-A:LEU:475:CD2:4256, V-A:GLU:543:CG:4905, V-A:ASP:366:CG:3210, V-A:ILE:369:CG2:3234, V-B:HIS:456:CE1:9040, V-B:GLU:543:CD:9880, V-B:GLU:543:CB:9878, V-B:GLU:543:CG:9879, V-A:HIS:456:CE1:4066, H-A:GLU:543:OE2:4908, V-A:ASP:366:CA:3207, V-A:TYR:484:CE2:4343, V-A:TYR:484:CZ:4344, V-A:GLU:543:CD:4906, V-B:GLU:543:C:9874, V-A:ILE:369:CB:3233, H-A:GLY:454:N:4047, H-A:GLU:543:OE1:4907, V-B:ALA:541:CB:9864, V-A:HIS:456:CD2:4065, H-A:HIS:456:NE2:4067, H-B:HIS:456:NE2:9041, V-A:GLY:544:C:4910, H-A:TYR:484:OH:4345, H-A:ARG:545:NE:4922, V-A:GLY:544:CA:4912, V-A:GLU:543:C:4900, V-B:HIS:456:CD2:9039, V-A:LYS:547:CE:4948, H-B:LYS:547:NZ:9923, H-A:LYS:547:NZ:4949"]

$$$$
1c_Grossjean_2025
     RDKit          3D

 23 24  0  0  0  0  0  0  0  0999 V2000
  127.2530  128.9050   75.2310 C   0  0  0  0  0  0  0  0  0  0  0  0
  128.4590  128.2820   74.8020 O   0  0  0  0  0  0  0  0  0  0  0  0
  128.6060  127.9430   73.4710 C   0  0  0  0  0  0  0  0  0  0  0  0
  129.9130  127.8440   72.9950 C   0  0  0  0  0  0  0  0  0  0  0  0
  130.1640  127.5070   71.6680 C   0  0  0  0  0  0  0  0  0  0  0  0
  129.0960  127.2560   70.7950 C   0  0  0  0  0  0  0  0  0  0  0  0
  129.2350  126.9180   69.4340 N   0  0  0  0  0  0  0  0  0  0  0  0
  129.1810  127.7130   68.3440 C   0  0  0  0  0  0  0  0  0  0  0  0
  129.0090  128.9320   68.3560 O   0  0  0  0  0  0  0  0  0  0  0  0
  129.3600  126.9990   67.0030 C   0  0  0  0  0  0  0  0  0  0  0  0
  130.8940  126.0260   66.9530 S   0  0  0  0  0  0  0  0  0  0  0  0
  131.3560  125.7900   65.2490 C   0  0  0  0  0  0  0  0  0  0  0  0
  130.3120  125.8950   64.3880 N   0  0  0  0  0  0  0  0  0  0  0  0
  130.5410  125.7340   63.0640 C   0  0  0  0  0  0  0  0  0  0  0  0
  129.3290  125.8770   62.1630 C   0  0  0  0  0  0  0  0  0  0  0  0
  131.8040  125.4530   62.5480 C   0  0  0  0  0  0  0  0  0  0  0  0
  132.8820  125.3180   63.4280 C   0  0  0  0  0  0  0  0  0  0  0  0
  134.2540  124.9930   62.8410 C   0  0  0  0  0  0  0  0  0  0  0  0
  132.6670  125.4800   64.8170 C   0  0  0  0  0  0  0  0  0  0  0  0
  133.7730  125.2880   65.7580 C   0  0  0  0  0  0  0  0  0  0  0  0
  134.6470  125.1370   66.5010 N   0  0  0  0  0  0  0  0  0  0  0  0
  127.7860  127.3650   71.2650 C   0  0  0  0  0  0  0  0  0  0  0  0
  127.5390  127.7030   72.5920 C   0  0  0  0  0  0  0  0  0  0  0  0
  1  2  1  0
  2  3  1  0
  3  4  2  0
  4  5  1  0
  5  6  2  0
  6  7  1  0
  7  8  1  0
  8  9  2  0
  8 10  1  0
 10 11  1  0
 11 12  1  0
 12 13  2  0
 13 14  1  0
 14 15  1  0
 14 16  2  0
 16 17  1  0
 17 18  1  0
 17 19  2  0
 19 20  1  0
 20 21  3  0
  6 22  1  0
 22 23  2  0
 23  3  1  0
 19 12  1  0
M  END
>  <Binding energies>  (4) 
[-7.2]

>  <Ligand effiencies>  (4) 
[-0.3]

>  <Interactions>  (4) 
["V-A:GLY:453:C:4039, V-A:GLY:454:CA:4046, V-A:GLU:543:CG:4905, V-B:HIS:456:CE1:9040, V-B:GLU:543:CD:9880, V-B:GLU:543:CB:9878, V-B:GLU:543:CG:9879, V-A:HIS:456:CE1:4066, V-A:GLU:543:CD:4906, V-B:GLU:543:C:9874, V-B:GLY:544:C:9884, V-A:ARG:545:CZ:4924, V-A:ARG:545:CG:4920, H-A:GLY:454:N:4047, V-A:ARG:545:CD:4921, V-A:HIS:456:CD2:4065, H-A:HIS:456:NE2:4067, H-B:HIS:456:NE2:9041, V-A:GLY:453:CA:4041, V-A:GLY:544:C:4910, H-A:TYR:484:OH:4345, H-A:ARG:545:NE:4922, V-A:GLY:544:CA:4912, V-B:HIS:456:CD2:9039, V-B:HIS:456:CG:9037, V-A:LYS:547:CE:4948, V-B:GLY:544:CA:9886, H-B:LYS:547:NZ:9923, H-A:LYS:547:NZ:4949, H-B:GLU:543:O:9875, H-A:ILE:455:N:4052"]

$$$$
1d_Grossjean_2025
     RDKit          3D

 21 22  0  0  0  0  0  0  0  0999 V2000
  129.3120  131.8900   74.5840 C   0  0  0  0  0  0  0  0  0  0  0  0
  128.1480  130.9260   74.7080 C   0  0  0  0  0  0  0  0  0  0  0  0
  127.0250  131.2310   75.4740 C   0  0  0  0  0  0  0  0  0  0  0  0
  125.9770  130.3070   75.5440 C   0  0  0  0  0  0  0  0  0  0  0  0
  124.7500  130.6710   76.3780 C   0  0  0  0  0  0  0  0  0  0  0  0
  126.0860  129.0840   74.8430 C   0  0  0  0  0  0  0  0  0  0  0  0
  124.9820  128.1230   74.8620 C   0  0  0  0  0  0  0  0  0  0  0  0
  124.1070  127.3650   74.8790 N   0  0  0  0  0  0  0  0  0  0  0  0
  127.2730  128.8480   74.1090 C   0  0  0  0  0  0  0  0  0  0  0  0
  127.5790  127.3670   73.1720 S   0  0  0  0  0  0  0  0  0  0  0  0
  129.2910  127.4520   72.5650 C   0  0  0  0  0  0  0  0  0  0  0  0
  130.1970  126.4300   73.2520 C   0  0  0  0  0  0  0  0  0  0  0  0
  129.7910  125.2800   73.4150 O   0  0  0  0  0  0  0  0  0  0  0  0
  131.4160  126.8880   73.6120 N   0  0  0  0  0  0  0  0  0  0  0  0
  132.4710  126.2270   74.2680 C   0  0  0  0  0  0  0  0  0  0  0  0
  132.1110  125.0930   75.0020 C   0  0  0  0  0  0  0  0  0  0  0  0
  133.0780  124.3610   75.6850 C   0  0  0  0  0  0  0  0  0  0  0  0
  134.4120  124.7600   75.6300 C   0  0  0  0  0  0  0  0  0  0  0  0
  134.7850  125.8820   74.8950 C   0  0  0  0  0  0  0  0  0  0  0  0
  133.8200  126.6170   74.2120 C   0  0  0  0  0  0  0  0  0  0  0  0
  128.2750  129.7600   74.0310 N   0  0  0  0  0  0  0  0  0  0  0  0
  1  2  1  0
  2  3  2  0
  3  4  1  0
  4  5  1  0
  4  6  2  0
  6  7  1  0
  7  8  3  0
  6  9  1  0
  9 10  1  0
 10 11  1  0
 11 12  1  0
 12 13  2  0
 12 14  1  0
 14 15  1  0
 15 16  2  0
 16 17  1  0
 17 18  2  0
 18 19  1  0
 19 20  2  0
  9 21  2  0
 21  2  1  0
 20 15  1  0
M  END
>  <Binding energies>  (5) 
[-7.78]

>  <Ligand effiencies>  (5) 
[-0.35363636363636364]

>  <Interactions>  (5) 
["V-A:HIS:456:CD2:4065, H-A:HIS:456:NE2:4067, V-A:GLY:544:C:4910, V-A:LYS:547:CD:4947, V-A:VAL:458:CG2:4084, V-B:HIS:456:CD2:9039, V-B:HIS:456:CG:9037, V-A:HIS:456:CA:4060, V-A:HIS:456:C:4058, V-A:LYS:547:CE:4948, V-A:VAL:457:C:4070, V-A:HIS:456:CG:4063, H-B:LYS:547:NZ:9923, H-A:GLY:544:O:4911, V-A:LYS:471:CD:4216, V-A:HIS:456:CB:4062, H-A:LYS:547:NZ:4949, V-B:LYS:471:CD:9190, V-B:HIS:456:C:9032, V-B:LYS:547:CE:9922, V-B:ASP:473:CG:9211, V-B:HIS:456:CB:9036, V-B:VAL:458:CG2:9058, V-B:HIS:456:CA:9034, V-B:LYS:547:CD:9921, V-B:LYS:471:CG:9189"]

$$$$
1e_Grossjean_2025
     RDKit          3D

 22 23  0  0  0  0  0  0  0  0999 V2000
  134.9760  127.2990   74.7740 C   0  0  0  0  0  0  0  0  0  0  0  0
  133.7350  126.4280   74.7320 C   0  0  0  0  0  0  0  0  0  0  0  0
  133.7360  125.1290   75.2470 C   0  0  0  0  0  0  0  0  0  0  0  0
  132.5580  124.3850   75.1710 C   0  0  0  0  0  0  0  0  0  0  0  0
  131.4210  124.9490   74.5880 C   0  0  0  0  0  0  0  0  0  0  0  0
  131.4870  126.2580   74.0960 C   0  0  0  0  0  0  0  0  0  0  0  0
  130.3150  126.7680   73.5100 N   0  0  0  0  0  0  0  0  0  0  0  0
  130.1530  127.2960   72.2780 C   0  0  0  0  0  0  0  0  0  0  0  0
  131.0480  127.4300   71.4420 O   0  0  0  0  0  0  0  0  0  0  0  0
  128.7400  127.7800   71.9420 C   0  0  0  0  0  0  0  0  0  0  0  0
  127.5380  127.3140   73.2240 S   0  0  0  0  0  0  0  0  0  0  0  0
  127.1140  128.7670   74.1640 C   0  0  0  0  0  0  0  0  0  0  0  0
  128.0970  129.7030   74.1820 N   0  0  0  0  0  0  0  0  0  0  0  0
  127.8910  130.8520   74.8680 C   0  0  0  0  0  0  0  0  0  0  0  0
  129.0300  131.8530   74.8370 C   0  0  0  0  0  0  0  0  0  0  0  0
  126.7140  131.1080   75.5680 C   0  0  0  0  0  0  0  0  0  0  0  0
  125.7050  130.1400   75.5770 C   0  0  0  0  0  0  0  0  0  0  0  0
  124.4310  130.4380   76.3670 C   0  0  0  0  0  0  0  0  0  0  0  0
  125.8990  128.9320   74.8700 C   0  0  0  0  0  0  0  0  0  0  0  0
  124.8760  127.8840   74.9180 C   0  0  0  0  0  0  0  0  0  0  0  0
  124.0660  127.0580   74.9570 N   0  0  0  0  0  0  0  0  0  0  0  0
  132.6390  126.9900   74.1630 N   0  0  0  0  0  0  0  0  0  0  0  0
  1  2  1  0
  2  3  2  0
  3  4  1  0
  4  5  2  0
  5  6  1  0
  6  7  1  0
  7  8  1  0
  8  9  2  0
  8 10  1  0
 10 11  1  0
 11 12  1  0
 12 13  2  0
 13 14  1  0
 14 15  1  0
 14 16  2  0
 16 17  1  0
 17 18  1  0
 17 19  2  0
 19 20  1  0
 20 21  3  0
  6 22  2  0
 22  2  1  0
 19 12  1  0
M  END
>  <Binding energies>  (6) 
[-7.02]

>  <Ligand effiencies>  (6) 
[-0.30521739130434783]

>  <Interactions>  (6) 
["V-B:HIS:456:CE1:9040, V-A:HIS:456:CD2:4065, H-A:HIS:456:NE2:4067, V-A:LYS:547:CD:4947, V-A:VAL:458:CG2:4084, V-B:HIS:456:CD2:9039, V-B:HIS:456:CG:9037, V-A:HIS:456:CA:4060, V-A:HIS:456:C:4058, V-A:LYS:547:CE:4948, V-A:VAL:457:C:4070, V-A:HIS:456:CG:4063, H-B:LYS:547:NZ:9923, V-A:HIS:456:CB:4062, H-A:LYS:547:NZ:4949, V-B:LYS:471:CD:9190, V-B:HIS:456:C:9032, V-B:LYS:547:CE:9922, V-B:ASP:473:CG:9211, V-B:HIS:456:CB:9036, V-B:VAL:458:CG2:9058, V-B:LYS:547:CD:9921, V-A:LYS:547:CG:4946, V-B:LYS:547:CG:9920, V-B:LYS:471:CG:9189, V-A:LYS:547:CB:4945"]

$$$$
1f_Grossjean_2025
     RDKit          3D

 21 22  0  0  0  0  0  0  0  0999 V2000
  128.9970  131.9240   74.8430 C   0  0  0  0  0  0  0  0  0  0  0  0
  127.8730  130.9050   74.8640 C   0  0  0  0  0  0  0  0  0  0  0  0
  126.7090  131.1180   75.5970 C   0  0  0  0  0  0  0  0  0  0  0  0
  125.7120  130.1370   75.5880 C   0  0  0  0  0  0  0  0  0  0  0  0
  124.4510  130.3860   76.4150 C   0  0  0  0  0  0  0  0  0  0  0  0
  125.9060  128.9600   74.8300 C   0  0  0  0  0  0  0  0  0  0  0  0
  124.8980  127.8970   74.8530 C   0  0  0  0  0  0  0  0  0  0  0  0
  124.1000  127.0590   74.8720 N   0  0  0  0  0  0  0  0  0  0  0  0
  127.1080  128.8400   74.0930 C   0  0  0  0  0  0  0  0  0  0  0  0
  127.5270  127.4330   73.0840 S   0  0  0  0  0  0  0  0  0  0  0  0
  129.2990  127.5370   72.6580 C   0  0  0  0  0  0  0  0  0  0  0  0
  130.1940  126.5050   73.3610 C   0  0  0  0  0  0  0  0  0  0  0  0
  129.7530  125.3930   73.6550 O   0  0  0  0  0  0  0  0  0  0  0  0
  131.4440  126.9370   73.6300 N   0  0  0  0  0  0  0  0  0  0  0  0
  132.5150  126.2640   74.2480 C   0  0  0  0  0  0  0  0  0  0  0  0
  133.8650  126.6610   74.2110 C   0  0  0  0  0  0  0  0  0  0  0  0
  134.8280  125.8970   74.8760 C   0  0  0  0  0  0  0  0  0  0  0  0
  134.4180  124.7560   75.5650 C   0  0  0  0  0  0  0  0  0  0  0  0
  133.1240  124.3540   75.6200 N   0  0  0  0  0  0  0  0  0  0  0  0
  132.1990  125.1070   74.9690 C   0  0  0  0  0  0  0  0  0  0  0  0
  128.0790  129.7870   74.1280 N   0  0  0  0  0  0  0  0  0  0  0  0
  1  2  1  0
  2  3  2  0
  3  4  1  0
  4  5  1  0
  4  6  2  0
  6  7  1  0
  7  8  3  0
  6  9  1  0
  9 10  1  0
 10 11  1  0
 11 12  1  0
 12 13  2  0
 12 14  1  0
 14 15  1  0
 15 16  2  0
 16 17  1  0
 17 18  2  0
 18 19  1  0
 19 20  2  0
  9 21  2  0
 21  2  1  0
 20 15  1  0
M  END
>  <Binding energies>  (7) 
[-7.31]

>  <Ligand effiencies>  (7) 
[-0.3322727272727273]

>  <Interactions>  (7) 
["V-A:HIS:456:CD2:4065, V-A:GLY:544:C:4910, V-A:LYS:547:CD:4947, V-A:VAL:458:CG2:4084, V-B:HIS:456:CD2:9039, V-B:HIS:456:CG:9037, V-A:HIS:456:CA:4060, V-A:HIS:456:C:4058, V-A:LYS:547:CE:4948, V-A:VAL:457:C:4070, V-A:HIS:456:CG:4063, H-B:LYS:547:NZ:9923, H-A:GLY:544:O:4911, V-A:LYS:471:CD:4216, V-A:HIS:456:CB:4062, H-A:LYS:547:NZ:4949, V-B:LYS:471:CD:9190, V-B:HIS:456:C:9032, V-B:LYS:547:CE:9922, V-B:ASP:473:CG:9211, V-B:HIS:456:CB:9036, V-B:VAL:458:CG2:9058, V-B:LYS:547:CD:9921, V-B:LYS:547:CG:9920, V-B:LYS:471:CG:9189, V-A:VAL:457:CA:4072"]

$$$$
1g_Grossjean_2025
     RDKit          3D

 22 23  0  0  0  0  0  0  0  0999 V2000
  130.5040  123.8210   64.9820 C   0  0  0  0  0  0  0  0  0  0  0  0
  131.1870  123.7180   63.6310 C   0  0  0  0  0  0  0  0  0  0  0  0
  132.4080  123.0640   63.4790 C   0  0  0  0  0  0  0  0  0  0  0  0
  132.9990  123.0150   62.2120 C   0  0  0  0  0  0  0  0  0  0  0  0
  134.3460  122.3060   62.0730 C   0  0  0  0  0  0  0  0  0  0  0  0
  132.3410  123.6200   61.1180 C   0  0  0  0  0  0  0  0  0  0  0  0
  132.9660  123.6260   59.7930 C   0  0  0  0  0  0  0  0  0  0  0  0
  133.4620  123.6310   58.7470 N   0  0  0  0  0  0  0  0  0  0  0  0
  131.0920  124.2400   61.3600 C   0  0  0  0  0  0  0  0  0  0  0  0
  130.1260  125.0390   60.0990 S   0  0  0  0  0  0  0  0  0  0  0  0
  128.9390  123.8140   59.4700 C   0  0  0  0  0  0  0  0  0  0  0  0
  128.7450  122.6520   60.4460 C   0  0  0  0  0  0  0  0  0  0  0  0
  127.6720  122.5140   61.0360 O   0  0  0  0  0  0  0  0  0  0  0  0
  129.7950  121.8290   60.6070 N   0  0  0  0  0  0  0  0  0  0  0  0
  129.8120  120.6270   61.4410 C   0  0  0  0  0  0  0  0  0  0  0  0
  130.8860  119.6130   61.0600 C   0  0  0  0  0  0  0  0  0  0  0  0
  132.2080  120.0320   60.8790 C   0  0  0  0  0  0  0  0  0  0  0  0
  133.1890  119.1060   60.5330 C   0  0  0  0  0  0  0  0  0  0  0  0
  132.8460  117.7650   60.3730 C   0  0  0  0  0  0  0  0  0  0  0  0
  131.5320  117.3410   60.5570 C   0  0  0  0  0  0  0  0  0  0  0  0
  130.5500  118.2660   60.9020 C   0  0  0  0  0  0  0  0  0  0  0  0
  130.5380  124.3030   62.5970 N   0  0  0  0  0  0  0  0  0  0  0  0
  1  2  1  0
  2  3  2  0
  3  4  1  0
  4  5  1  0
  4  6  2  0
  6  7  1  0
  7  8  3  0
  6  9  1  0
  9 10  1  0
 10 11  1  0
 11 12  1  0
 12 13  2  0
 12 14  1  0
 14 15  1  0
 15 16  1  0
 16 17  2  0
 17 18  1  0
 18 19  2  0
 19 20  1  0
 20 21  2  0
  9 22  2  0
 22  2  1  0
 21 16  1  0
M  END
>  <Binding energies>  (8) 
[-6.54]

>  <Ligand effiencies>  (8) 
[-0.2843478260869565]

>  <Interactions>  (8) 
["V-B:TYR:539:CE1:9847, V-B:TYR:539:C:9839, H-B:ALA:541:N:9863, V-A:ILE:369:CD1:3236, V-B:PRO:540:CA:9855, V-A:GLY:453:C:4039, V-A:LEU:475:CD2:4256, V-B:TYR:539:CD1:9845, V-A:GLY:454:CA:4046, V-A:ILE:369:CG2:3234, V-B:GLU:543:CD:9880, V-B:GLU:543:CB:9878, V-A:TYR:484:CE2:4343, V-A:TYR:484:CZ:4344, V-A:SER:385:CA:3404, V-B:ALA:541:CB:9864, V-B:ALA:541:CA:9862, H-B:TYR:539:OH:9850, V-A:SER:385:CB:3406, V-A:LEU:373:CD1:3277, V-A:PRO:482:CB:4323, H-B:TYR:539:O:9840, V-A:PRO:482:CG:4324, V-B:TYR:539:CB:9843"]

$$$$
1h_Grossjean_2025
     RDKit          3D

 28 29  0  0  0  0  0  0  0  0999 V2000
  124.0910  133.6350   62.1400 C   0  0  0  0  0  0  0  0  0  0  0  0
  123.8070  132.2410   62.1160 O   0  0  0  0  0  0  0  0  0  0  0  0
  124.7720  131.3600   61.6640 C   0  0  0  0  0  0  0  0  0  0  0  0
  125.6190  130.6240   62.5080 C   0  0  0  0  0  0  0  0  0  0  0  0
  126.5810  129.7620   61.9800 C   0  0  0  0  0  0  0  0  0  0  0  0
  127.4790  128.9510   62.9090 C   0  0  0  0  0  0  0  0  0  0  0  0
  128.8740  128.8800   62.4740 N   0  0  0  0  0  0  0  0  0  0  0  0
  129.3570  128.0340   61.5460 C   0  0  0  0  0  0  0  0  0  0  0  0
  128.6610  127.2280   60.9290 O   0  0  0  0  0  0  0  0  0  0  0  0
  130.8600  128.1040   61.2760 C   0  0  0  0  0  0  0  0  0  0  0  0
  131.4610  126.6370   60.3850 S   0  0  0  0  0  0  0  0  0  0  0  0
  131.9970  125.4360   61.5930 C   0  0  0  0  0  0  0  0  0  0  0  0
  131.6210  125.6810   62.8750 N   0  0  0  0  0  0  0  0  0  0  0  0
  131.9900  124.8080   63.8410 C   0  0  0  0  0  0  0  0  0  0  0  0
  131.5300  125.1480   65.2460 C   0  0  0  0  0  0  0  0  0  0  0  0
  132.7430  123.6670   63.5750 C   0  0  0  0  0  0  0  0  0  0  0  0
  133.1380  123.4040   62.2590 C   0  0  0  0  0  0  0  0  0  0  0  0
  133.9610  122.1460   61.9890 C   0  0  0  0  0  0  0  0  0  0  0  0
  132.7630  124.3030   61.2350 C   0  0  0  0  0  0  0  0  0  0  0  0
  133.1640  124.0540   59.8470 C   0  0  0  0  0  0  0  0  0  0  0  0
  133.4820  123.8580   58.7510 N   0  0  0  0  0  0  0  0  0  0  0  0
  126.6780  129.6010   60.5970 C   0  0  0  0  0  0  0  0  0  0  0  0
  125.8400  130.3200   59.7290 C   0  0  0  0  0  0  0  0  0  0  0  0
  125.8820  130.2130   58.3510 O   0  0  0  0  0  0  0  0  0  0  0  0
  125.8770  128.9220   57.7500 C   0  0  0  0  0  0  0  0  0  0  0  0
  124.8980  131.2040   60.2750 C   0  0  0  0  0  0  0  0  0  0  0  0
  124.0680  131.9100   59.4390 O   0  0  0  0  0  0  0  0  0  0  0  0
  123.0690  131.1170   58.8120 C   0  0  0  0  0  0  0  0  0  0  0  0
  1  2  1  0
  2  3  1  0
  3  4  2  0
  4  5  1  0
  5  6  1  0
  6  7  1  0
  7  8  1  0
  8  9  2  0
  8 10  1  0
 10 11  1  0
 11 12  1  0
 12 13  2  0
 13 14  1  0
 14 15  1  0
 14 16  2  0
 16 17  1  0
 17 18  1  0
 17 19  2  0
 19 20  1  0
 20 21  3  0
  5 22  2  0
 22 23  1  0
 23 24  1  0
 24 25  1  0
 23 26  2  0
 26 27  1  0
 27 28  1  0
 26  3  1  0
 19 12  1  0
M  END
>  <Binding energies>  (9) 
[-5.79]

>  <Ligand effiencies>  (9) 
[-0.1996551724137931]

>  <Interactions>  (9) 
["V-B:LEU:475:CD2:9230, V-B:ASP:366:CB:8183, H-A:TYR:539:OH:4876, V-B:ILE:369:CG2:8208, V-A:TYR:539:CE1:4873, V-B:ILE:369:CD1:8210, V-B:ASP:366:CG:8184, V-B:TYR:539:CE1:9847, V-A:ILE:369:CD1:3236, V-A:LEU:475:CD2:4256, V-A:GLY:454:CA:4046, V-A:ASP:366:CG:3210, H-A:ARG:545:NH2:4926, H-A:GLU:543:OE2:4908, H-B:GLY:454:N:9021, V-A:GLU:543:CD:4906, V-B:ILE:369:CB:8207, V-B:ASP:366:CA:8181, H-A:GLU:543:OE1:4907, H-B:TYR:539:OH:9850, V-B:ASP:366:C:8179"]

$$$$
1i_Grossjean_2025
     RDKit          3D

 20 21  0  0  0  0  0  0  0  0999 V2000
  129.2530  122.6640   74.0470 C   0  0  0  0  0  0  0  0  0  0  0  0
  130.3940  123.6490   74.2190 C   0  0  0  0  0  0  0  0  0  0  0  0
  131.5880  123.2820   74.8370 C   0  0  0  0  0  0  0  0  0  0  0  0
  132.6100  124.2300   74.9590 C   0  0  0  0  0  0  0  0  0  0  0  0
  133.9150  123.7990   75.6250 C   0  0  0  0  0  0  0  0  0  0  0  0
  132.4040  125.5360   74.4590 C   0  0  0  0  0  0  0  0  0  0  0  0
  133.4790  126.5290   74.5310 C   0  0  0  0  0  0  0  0  0  0  0  0
  134.3300  127.3120   74.5870 N   0  0  0  0  0  0  0  0  0  0  0  0
  131.1520  125.8270   73.8680 C   0  0  0  0  0  0  0  0  0  0  0  0
  130.7230  127.4150   73.1900 S   0  0  0  0  0  0  0  0  0  0  0  0
  128.9600  127.3660   72.7480 C   0  0  0  0  0  0  0  0  0  0  0  0
  128.1170  128.2780   73.6430 C   0  0  0  0  0  0  0  0  0  0  0  0
  128.6160  129.3110   74.0920 O   0  0  0  0  0  0  0  0  0  0  0  0
  126.8520  127.8630   73.8700 N   0  0  0  0  0  0  0  0  0  0  0  0
  125.8860  128.4930   74.6420 C   0  0  0  0  0  0  0  0  0  0  0  0
  126.1530  129.6080   75.4330 C   0  0  0  0  0  0  0  0  0  0  0  0
  124.9520  129.9220   76.0270 C   0  0  0  0  0  0  0  0  0  0  0  0
  124.0110  129.0390   75.6160 O   0  0  0  0  0  0  0  0  0  0  0  0
  124.6150  128.1370   74.7390 N   0  0  0  0  0  0  0  0  0  0  0  0
  130.1740  124.8950   73.7370 N   0  0  0  0  0  0  0  0  0  0  0  0
  1  2  1  0
  2  3  2  0
  3  4  1  0
  4  5  1  0
  4  6  2  0
  6  7  1  0
  7  8  3  0
  6  9  1  0
  9 10  1  0
 10 11  1  0
 11 12  1  0
 12 13  2  0
 12 14  1  0
 14 15  1  0
 15 16  1  0
 16 17  2  0
 17 18  1  0
 18 19  1  0
  9 20  2  0
 20  2  1  0
 19 15  2  0
M  END
>  <Binding energies>  (10) 
[-7.45]

>  <Ligand effiencies>  (10) 
[-0.3547619047619048]

>  <Interactions>  (10) 
["V-B:GLY:544:C:9884, V-A:HIS:456:CD2:4065, V-A:LYS:547:CD:4947, V-A:VAL:458:CG2:4084, V-B:HIS:456:CD2:9039, V-B:HIS:456:CG:9037, V-A:HIS:456:C:4058, V-A:LYS:547:CE:4948, V-A:HIS:456:CG:4063, H-B:LYS:547:NZ:9923, V-A:LYS:471:CD:4216, V-A:HIS:456:CB:4062, H-A:LYS:547:NZ:4949, V-B:LYS:471:CD:9190, V-B:HIS:456:C:9032, V-B:LYS:547:CE:9922, H-B:GLY:544:O:9885, V-B:HIS:456:CB:9036, V-B:VAL:458:CG2:9058, V-A:ASP:473:CG:4237, V-A:LYS:471:CG:4215, H-B:VAL:457:N:9047"]

$$$$
1k_Grossjean_2025
     RDKit          3D

 25 25  0  0  0  0  0  0  0  0999 V2000
  127.1960  128.6950   74.2600 C   0  0  0  0  0  0  0  0  0  0  0  0
  128.5910  128.8990   74.1010 O   0  0  0  0  0  0  0  0  0  0  0  0
  129.0550  128.6380   72.7830 C   0  0  0  0  0  0  0  0  0  0  0  0
  128.2500  127.4810   72.1770 C   0  0  0  0  0  0  0  0  0  0  0  0
  129.1000  126.6950   71.3510 O   0  0  0  0  0  0  0  0  0  0  0  0
  129.7370  127.4350   70.3180 C   0  0  0  0  0  0  0  0  0  0  0  0
  129.0310  127.1590   68.9840 C   0  0  0  0  0  0  0  0  0  0  0  0
  129.9650  127.2780   67.9190 O   0  0  0  0  0  0  0  0  0  0  0  0
  130.1230  126.0850   67.1620 C   0  0  0  0  0  0  0  0  0  0  0  0
  131.4470  126.1430   66.3770 C   0  0  0  0  0  0  0  0  0  0  0  0
  131.6380  125.0280   65.4490 N   0  0  0  0  0  0  0  0  0  0  0  0
  132.7560  124.7910   64.7420 C   0  0  0  0  0  0  0  0  0  0  0  0
  133.7600  125.5030   64.8110 O   0  0  0  0  0  0  0  0  0  0  0  0
  132.7100  123.5610   63.8210 C   0  0  0  0  0  0  0  0  0  0  0  0
  133.3320  123.8210   62.1230 S   0  0  0  0  0  0  0  0  0  0  0  0
  132.2970  125.0210   61.2960 C   0  0  0  0  0  0  0  0  0  0  0  0
  131.4970  125.7680   62.1010 N   0  0  0  0  0  0  0  0  0  0  0  0
  130.6810  126.6890   61.5380 C   0  0  0  0  0  0  0  0  0  0  0  0
  129.8130  127.4760   62.5000 C   0  0  0  0  0  0  0  0  0  0  0  0
  130.6320  126.9100   60.1630 C   0  0  0  0  0  0  0  0  0  0  0  0
  131.4560  126.1530   59.3250 C   0  0  0  0  0  0  0  0  0  0  0  0
  131.3880  126.4100   57.8210 C   0  0  0  0  0  0  0  0  0  0  0  0
  132.3130  125.1830   59.8920 C   0  0  0  0  0  0  0  0  0  0  0  0
  133.1850  124.3720   59.0370 C   0  0  0  0  0  0  0  0  0  0  0  0
  133.8730  123.7320   58.3600 N   0  0  0  0  0  0  0  0  0  0  0  0
  1  2  1  0
  2  3  1  0
  3  4  1  0
  4  5  1  0
  5  6  1  0
  6  7  1  0
  7  8  1  0
  8  9  1  0
  9 10  1  0
 10 11  1  0
 11 12  1  0
 12 13  2  0
 12 14  1  0
 14 15  1  0
 15 16  1  0
 16 17  2  0
 17 18  1  0
 18 19  1  0
 18 20  2  0
 20 21  1  0
 21 22  1  0
 21 23  2  0
 23 24  1  0
 24 25  3  0
 23 16  1  0
M  END
>  <Binding energies>  (11) 
[-5.87]

>  <Ligand effiencies>  (11) 
[-0.22576923076923078]

>  <Interactions>  (11) 
["V-B:TYR:539:CE1:9847, V-A:GLY:454:CA:4046, H-B:GLU:543:OE1:9881, V-A:ASP:366:CG:3210, V-B:HIS:456:CE1:9040, V-B:GLU:543:CD:9880, H-A:ARG:545:NH2:4926, V-B:GLU:543:CB:9878, V-B:GLU:543:CG:9879, V-A:HIS:456:CE1:4066, V-A:ASP:366:CA:3207, V-A:ASP:366:CB:3209, V-A:TYR:484:CZ:4344, V-A:GLU:543:CD:4906, V-B:GLY:544:C:9884, V-A:ARG:545:CZ:4924, V-A:ARG:545:CG:4920, H-A:GLY:454:N:4047, H-A:HIS:456:NE2:4067, H-A:ARG:545:NH1:4925, H-A:TYR:484:OH:4345, H-A:ARG:545:NE:4922, H-B:TYR:539:OH:9850, V-B:HIS:456:CD2:9039, V-B:HIS:456:CG:9037, V-A:LYS:547:CE:4948, H-A:LYS:547:NZ:4949, V-B:HIS:456:CB:9036"]

$$$$
1l_Grossjean_2025
     RDKit          3D

 17 17  0  0  0  0  0  0  0  0999 V2000
  134.1260  126.6300   74.5070 C   0  0  0  0  0  0  0  0  0  0  0  0
  132.8190  126.1440   74.7770 O   0  0  0  0  0  0  0  0  0  0  0  0
  131.8740  126.9280   74.1160 N   0  0  0  0  0  0  0  0  0  0  0  0
  130.7110  126.3670   73.7340 C   0  0  0  0  0  0  0  0  0  0  0  0
  130.3240  125.2630   74.1260 O   0  0  0  0  0  0  0  0  0  0  0  0
  129.8660  127.2110   72.7700 C   0  0  0  0  0  0  0  0  0  0  0  0
  128.0950  127.3290   73.1960 S   0  0  0  0  0  0  0  0  0  0  0  0
  127.8040  128.9330   73.9220 C   0  0  0  0  0  0  0  0  0  0  0  0
  128.7790  129.8580   73.7200 N   0  0  0  0  0  0  0  0  0  0  0  0
  128.6230  131.0960   74.2450 C   0  0  0  0  0  0  0  0  0  0  0  0
  129.7530  132.0730   73.9760 C   0  0  0  0  0  0  0  0  0  0  0  0
  127.5020  131.4640   74.9840 C   0  0  0  0  0  0  0  0  0  0  0  0
  126.4910  130.5210   75.1980 C   0  0  0  0  0  0  0  0  0  0  0  0
  125.2690  130.9460   76.0110 C   0  0  0  0  0  0  0  0  0  0  0  0
  126.6330  129.2230   74.6600 C   0  0  0  0  0  0  0  0  0  0  0  0
  125.5890  128.2140   74.8680 C   0  0  0  0  0  0  0  0  0  0  0  0
  124.7650  127.4200   75.0330 N   0  0  0  0  0  0  0  0  0  0  0  0
  1  2  1  0
  2  3  1  0
  3  4  1  0
  4  5  2  0
  4  6  1  0
  6  7  1  0
  7  8  1  0
  8  9  2  0
  9 10  1  0
 10 11  1  0
 10 12  2  0
 12 13  1  0
 13 14  1  0
 13 15  2  0
 15 16  1  0
 16 17  3  0
 15  8  1  0
M  END
>  <Binding energies>  (12) 
[-6.52]

>  <Ligand effiencies>  (12) 
[-0.3622222222222222]

>  <Interactions>  (12) 
["V-A:HIS:456:CD2:4065, V-A:GLY:544:C:4910, V-A:GLY:544:CA:4912, V-A:LYS:547:CD:4947, V-A:VAL:458:CG2:4084, V-B:HIS:456:CD2:9039, V-B:HIS:456:CG:9037, V-A:HIS:456:CA:4060, V-A:HIS:456:C:4058, V-A:LYS:547:CE:4948, H-B:LYS:547:NZ:9923, H-A:GLY:544:O:4911, V-A:HIS:456:CB:4062, H-A:LYS:547:NZ:4949, V-B:LYS:471:CD:9190, V-B:HIS:456:C:9032, V-B:LYS:547:CE:9922, V-B:ASP:473:CG:9211, V-B:HIS:456:CB:9036, V-B:LYS:547:CD:9921, V-A:LYS:547:CG:4946"]

$$$$
1m_Grossjean_2025
     RDKit          3D

 20 20  0  0  0  0  0  0  0  0999 V2000
  124.8840  130.4690   76.0030 C   0  0  0  0  0  0  0  0  0  0  0  0
  125.8410  129.7080   76.7260 O   0  0  0  0  0  0  0  0  0  0  0  0
  126.4020  128.6110   76.1770 C   0  0  0  0  0  0  0  0  0  0  0  0
  127.1910  127.8490   76.7430 O   0  0  0  0  0  0  0  0  0  0  0  0
  125.9290  128.4010   74.7230 C   0  0  0  0  0  0  0  0  0  0  0  0
  126.9480  127.7570   73.8800 N   0  0  0  0  0  0  0  0  0  0  0  0
  128.1570  128.2680   73.5790 C   0  0  0  0  0  0  0  0  0  0  0  0
  128.5380  129.3700   73.9790 O   0  0  0  0  0  0  0  0  0  0  0  0
  129.0430  127.3890   72.6880 C   0  0  0  0  0  0  0  0  0  0  0  0
  130.8130  127.3890   73.1360 S   0  0  0  0  0  0  0  0  0  0  0  0
  131.2040  125.7980   73.8330 C   0  0  0  0  0  0  0  0  0  0  0  0
  130.1850  124.9050   73.7520 N   0  0  0  0  0  0  0  0  0  0  0  0
  130.3710  123.6580   74.2450 C   0  0  0  0  0  0  0  0  0  0  0  0
  129.1950  122.7100   74.1010 C   0  0  0  0  0  0  0  0  0  0  0  0
  131.5630  123.2570   74.8440 C   0  0  0  0  0  0  0  0  0  0  0  0
  132.6100  124.1770   74.9570 C   0  0  0  0  0  0  0  0  0  0  0  0
  133.9020  123.7190   75.6320 C   0  0  0  0  0  0  0  0  0  0  0  0
  132.4390  125.4850   74.4500 C   0  0  0  0  0  0  0  0  0  0  0  0
  133.5050  126.4790   74.6020 C   0  0  0  0  0  0  0  0  0  0  0  0
  134.3470  127.2630   74.7220 N   0  0  0  0  0  0  0  0  0  0  0  0
  1  2  1  0
  2  3  1  0
  3  4  2  0
  3  5  1  0
  5  6  1  0
  6  7  1  0
  7  8  2  0
  7  9  1  0
  9 10  1  0
 10 11  1  0
 11 12  2  0
 12 13  1  0
 13 14  1  0
 13 15  2  0
 15 16  1  0
 16 17  1  0
 16 18  2  0
 18 19  1  0
 19 20  3  0
 18 11  1  0
M  END
>  <Binding energies>  (13) 
[-6.98]

>  <Ligand effiencies>  (13) 
[-0.3323809523809524]

>  <Interactions>  (13) 
["V-B:GLY:544:C:9884, V-A:HIS:456:CD2:4065, V-A:LYS:547:CD:4947, V-A:VAL:458:CG2:4084, V-B:HIS:456:CD2:9039, V-B:HIS:456:CG:9037, V-A:HIS:456:C:4058, V-A:LYS:547:CE:4948, V-A:HIS:456:CG:4063, H-B:LYS:547:NZ:9923, V-A:LYS:471:CD:4216, V-A:HIS:456:CB:4062, H-A:LYS:547:NZ:4949, V-B:LYS:471:CD:9190, V-B:HIS:456:C:9032, V-B:LYS:547:CE:9922, H-B:GLY:544:O:9885, V-B:HIS:456:CB:9036, V-B:VAL:458:CG2:9058, V-B:LYS:547:CD:9921, V-A:ASP:473:CG:4237, V-A:LYS:471:CG:4215"]

$$$$
1n_Grossjean_2025
     RDKit          3D

 27 28  0  0  0  0  0  0  0  0999 V2000
  128.1700  132.1900   74.3940 C   0  0  0  0  0  0  0  0  0  0  0  0
  127.6660  130.7700   74.6690 C   0  0  0  0  0  0  0  0  0  0  0  0
  128.5910  129.8290   74.1380 O   0  0  0  0  0  0  0  0  0  0  0  0
  128.2440  128.5280   73.9600 C   0  0  0  0  0  0  0  0  0  0  0  0
  127.7380  127.8320   74.8450 O   0  0  0  0  0  0  0  0  0  0  0  0
  128.5250  128.0240   72.5730 C   0  0  0  0  0  0  0  0  0  0  0  0
  127.5170  127.4770   71.7640 C   0  0  0  0  0  0  0  0  0  0  0  0
  127.8120  127.0160   70.4840 C   0  0  0  0  0  0  0  0  0  0  0  0
  129.1150  127.0840   69.9900 C   0  0  0  0  0  0  0  0  0  0  0  0
  129.3020  126.5850   68.6860 N   0  0  0  0  0  0  0  0  0  0  0  0
  130.1930  126.9520   67.7400 C   0  0  0  0  0  0  0  0  0  0  0  0
  131.0470  127.8300   67.8670 O   0  0  0  0  0  0  0  0  0  0  0  0
  130.1050  126.1860   66.4140 C   0  0  0  0  0  0  0  0  0  0  0  0
  131.2280  125.1400   66.2430 C   0  0  0  0  0  0  0  0  0  0  0  0
  132.6350  125.7010   65.2380 S   0  0  0  0  0  0  0  0  0  0  0  0
  132.4910  124.9400   63.6350 C   0  0  0  0  0  0  0  0  0  0  0  0
  133.3120  123.8730   63.4650 N   0  0  0  0  0  0  0  0  0  0  0  0
  133.2750  123.2050   62.2890 C   0  0  0  0  0  0  0  0  0  0  0  0
  134.2120  122.0180   62.1750 C   0  0  0  0  0  0  0  0  0  0  0  0
  132.4330  123.5720   61.2420 C   0  0  0  0  0  0  0  0  0  0  0  0
  131.5970  124.6830   61.3990 C   0  0  0  0  0  0  0  0  0  0  0  0
  130.6920  125.0740   60.2330 C   0  0  0  0  0  0  0  0  0  0  0  0
  131.6220  125.3990   62.6180 C   0  0  0  0  0  0  0  0  0  0  0  0
  130.7940  126.5950   62.7850 C   0  0  0  0  0  0  0  0  0  0  0  0
  130.1400  127.5410   62.9160 N   0  0  0  0  0  0  0  0  0  0  0  0
  130.1250  127.6400   70.7890 C   0  0  0  0  0  0  0  0  0  0  0  0
  129.8280  128.1030   72.0670 C   0  0  0  0  0  0  0  0  0  0  0  0
  1  2  1  0
  2  3  1  0
  3  4  1  0
  4  5  2  0
  4  6  1  0
  6  7  2  0
  7  8  1  0
  8  9  2  0
  9 10  1  0
 10 11  1  0
 11 12  2  0
 11 13  1  0
 13 14  1  0
 14 15  1  0
 15 16  1  0
 16 17  2  0
 17 18  1  0
 18 19  1  0
 18 20  2  0
 20 21  1  0
 21 22  1  0
 21 23  2  0
 23 24  1  0
 24 25  3  0
  9 26  1  0
 26 27  2  0
 27  6  1  0
 23 16  1  0
M  END
>  <Binding energies>  (14) 
[-7.4]

>  <Ligand effiencies>  (14) 
[-0.2642857142857143]

>  <Interactions>  (14) 
["V-A:ILE:369:CD1:3236, V-A:LEU:475:CD2:4256, V-A:GLY:454:CA:4046, V-A:GLU:543:CG:4905, V-B:HIS:456:CE1:9040, H-B:GLU:543:OE2:9882, V-B:GLU:543:CD:9880, H-A:ARG:545:NH2:4926, V-B:GLU:543:CB:9878, V-B:GLU:543:CG:9879, V-A:HIS:456:CE1:4066, V-A:TYR:484:CE2:4343, V-A:TYR:484:CZ:4344, V-A:GLU:543:CD:4906, V-B:GLU:543:C:9874, V-B:GLY:544:C:9884, V-A:ARG:545:CZ:4924, H-A:GLY:454:N:4047, V-A:GLY:544:C:4910, H-A:TYR:484:OH:4345, H-A:ARG:545:NE:4922, V-A:GLY:544:CA:4912, V-A:GLU:543:C:4900, V-B:HIS:456:CD2:9039, V-B:HIS:456:CG:9037, V-B:GLY:544:CA:9886, H-B:LYS:547:NZ:9923, H-A:LYS:547:NZ:4949, V-B:HIS:456:CB:9036, H-B:GLU:543:O:9875"]

$$$$
1q_Grossjean_2025
     RDKit          3D

 21 21  0  0  0  0  0  0  0  0999 V2000
  127.0770  131.1170   75.8580 C   0  0  0  0  0  0  0  0  0  0  0  0
  126.4940  129.9580   76.4350 O   0  0  0  0  0  0  0  0  0  0  0  0
  125.3010  129.4920   75.9880 C   0  0  0  0  0  0  0  0  0  0  0  0
  124.2160  130.0610   76.1190 O   0  0  0  0  0  0  0  0  0  0  0  0
  125.3840  128.1160   75.2940 C   0  0  0  0  0  0  0  0  0  0  0  0
  126.2460  128.1230   74.1030 N   0  0  0  0  0  0  0  0  0  0  0  0
  127.5900  128.2090   74.1020 C   0  0  0  0  0  0  0  0  0  0  0  0
  128.2610  128.2910   75.1330 O   0  0  0  0  0  0  0  0  0  0  0  0
  128.2650  128.1840   72.7230 C   0  0  0  0  0  0  0  0  0  0  0  0
  129.2340  127.0040   72.5130 C   0  0  0  0  0  0  0  0  0  0  0  0
  130.8770  127.2720   73.2450 S   0  0  0  0  0  0  0  0  0  0  0  0
  131.3870  125.7730   74.0600 C   0  0  0  0  0  0  0  0  0  0  0  0
  130.4350  124.8050   74.0540 N   0  0  0  0  0  0  0  0  0  0  0  0
  130.7050  123.6200   74.6460 C   0  0  0  0  0  0  0  0  0  0  0  0
  129.5870  122.5950   74.6130 C   0  0  0  0  0  0  0  0  0  0  0  0
  131.9280  123.3450   75.2550 C   0  0  0  0  0  0  0  0  0  0  0  0
  132.9260  124.3250   75.2450 C   0  0  0  0  0  0  0  0  0  0  0  0
  134.2650  123.9930   75.9030 C   0  0  0  0  0  0  0  0  0  0  0  0
  132.6680  125.5710   74.6300 C   0  0  0  0  0  0  0  0  0  0  0  0
  133.7190  126.5870   74.5610 C   0  0  0  0  0  0  0  0  0  0  0  0
  134.5540  127.3870   74.5080 N   0  0  0  0  0  0  0  0  0  0  0  0
  1  2  1  0
  2  3  1  0
  3  4  2  0
  3  5  1  0
  5  6  1  0
  6  7  1  0
  7  8  2  0
  7  9  1  0
  9 10  1  0
 10 11  1  0
 11 12  1  0
 12 13  2  0
 13 14  1  0
 14 15  1  0
 14 16  2  0
 16 17  1  0
 17 18  1  0
 17 19  2  0
 19 20  1  0
 20 21  3  0
 19 12  1  0
M  END
>  <Binding energies>  (15) 
[-6.47]

>  <Ligand effiencies>  (15) 
[-0.29409090909090907]

>  <Interactions>  (15) 
["V-B:HIS:456:CE1:9040, V-B:GLY:544:C:9884, V-A:HIS:456:CD2:4065, V-A:LYS:547:CD:4947, V-A:VAL:458:CG2:4084, V-B:HIS:456:CD2:9039, V-B:HIS:456:CG:9037, V-A:HIS:456:C:4058, V-A:LYS:547:CE:4948, V-A:HIS:456:CG:4063, H-B:LYS:547:NZ:9923, V-A:LYS:471:CD:4216, V-A:HIS:456:CB:4062, H-A:LYS:547:NZ:4949, V-B:LYS:471:CD:9190, V-B:LYS:547:CE:9922, V-B:ASP:473:CG:9211, H-B:GLY:544:O:9885, V-B:HIS:456:CB:9036, V-B:VAL:458:CG2:9058, V-B:LYS:547:CD:9921, V-A:ASP:473:CG:4237, H-B:HIS:456:ND1:9038, V-A:LYS:471:CG:4215"]

$$$$
2a_Grossjean_2025
     RDKit          3D

 29 30  0  0  0  0  0  0  0  0999 V2000
  131.5660  126.2780   73.8490 C   0  0  0  0  0  0  0  0  0  0  0  0
  130.1560  125.9050   73.3810 C   0  0  0  0  0  0  0  0  0  0  0  0
  129.2480  126.9340   73.7550 O   0  0  0  0  0  0  0  0  0  0  0  0
  129.0470  128.0150   72.9590 C   0  0  0  0  0  0  0  0  0  0  0  0
  128.6590  129.1090   73.3800 O   0  0  0  0  0  0  0  0  0  0  0  0
  129.3670  127.7530   71.5140 C   0  0  0  0  0  0  0  0  0  0  0  0
  128.4000  127.2800   70.6150 C   0  0  0  0  0  0  0  0  0  0  0  0
  128.7290  127.0450   69.2840 C   0  0  0  0  0  0  0  0  0  0  0  0
  130.0270  127.2700   68.8250 C   0  0  0  0  0  0  0  0  0  0  0  0
  130.2500  126.9850   67.4650 N   0  0  0  0  0  0  0  0  0  0  0  0
  130.2850  125.7990   66.8200 C   0  0  0  0  0  0  0  0  0  0  0  0
  130.1440  124.6950   67.3470 O   0  0  0  0  0  0  0  0  0  0  0  0
  130.5250  125.8760   65.3090 C   0  0  0  0  0  0  0  0  0  0  0  0
  132.2820  125.7080   64.8480 S   0  0  0  0  0  0  0  0  0  0  0  0
  132.4140  124.9090   63.2520 C   0  0  0  0  0  0  0  0  0  0  0  0
  133.1550  123.7720   63.2230 N   0  0  0  0  0  0  0  0  0  0  0  0
  133.3080  123.1220   62.0480 C   0  0  0  0  0  0  0  0  0  0  0  0
  134.1720  121.8750   62.0900 C   0  0  0  0  0  0  0  0  0  0  0  0
  132.7290  123.5660   60.8630 C   0  0  0  0  0  0  0  0  0  0  0  0
  131.9510  124.7340   60.8710 C   0  0  0  0  0  0  0  0  0  0  0  0
  131.3160  125.2120   59.5510 C   0  0  0  0  0  0  0  0  0  0  0  0
  131.6240  126.4900   59.3320 F   0  0  0  0  0  0  0  0  0  0  0  0
  131.7690  124.4760   58.5350 F   0  0  0  0  0  0  0  0  0  0  0  0
  129.9840  125.1140   59.5550 F   0  0  0  0  0  0  0  0  0  0  0  0
  131.7850  125.4280   62.0970 C   0  0  0  0  0  0  0  0  0  0  0  0
  130.9860  126.6560   62.1620 C   0  0  0  0  0  0  0  0  0  0  0  0
  130.3550  127.6250   62.2130 N   0  0  0  0  0  0  0  0  0  0  0  0
  130.9970  127.7510   69.7160 C   0  0  0  0  0  0  0  0  0  0  0  0
  130.6660  127.9890   71.0470 C   0  0  0  0  0  0  0  0  0  0  0  0
  1  2  1  0
  2  3  1  0
  3  4  1  0
  4  5  2  0
  4  6  1  0
  6  7  2  0
  7  8  1  0
  8  9  2  0
  9 10  1  0
 10 11  1  0
 11 12  2  0
 11 13  1  0
 13 14  1  0
 14 15  1  0
 15 16  2  0
 16 17  1  0
 17 18  1  0
 17 19  2  0
 19 20  1  0
 20 21  1  0
 21 22  1  0
 21 23  1  0
 21 24  1  0
 20 25  2  0
 25 26  1  0
 26 27  3  0
  9 28  1  0
 28 29  2  0
 29  6  1  0
 25 15  1  0
M  END
>  <Binding energies>  (16) 
[-6.68]

>  <Ligand effiencies>  (16) 
[-0.22266666666666665]

>  <Interactions>  (16) 
["V-B:TYR:539:CE1:9847, V-A:ILE:369:CD1:3236, V-A:LEU:475:CD2:4256, V-A:GLY:454:CA:4046, V-A:GLU:543:CG:4905, V-A:ASP:366:CG:3210, V-A:ILE:369:CG2:3234, V-B:HIS:456:CE1:9040, V-B:GLU:543:CD:9880, H-A:ARG:545:NH2:4926, V-B:GLU:543:CB:9878, V-B:GLU:543:CG:9879, V-A:HIS:456:CE1:4066, H-A:GLU:543:OE2:4908, V-A:ASP:366:CB:3209, V-A:GLU:543:CD:4906, V-B:GLU:543:C:9874, V-A:ARG:545:CZ:4924, H-A:GLY:454:N:4047, H-A:GLU:543:OE1:4907, V-B:TYR:539:CZ:9849, V-A:HIS:456:CD2:4065, H-A:HIS:456:NE2:4067, H-B:HIS:456:NE2:9041, V-A:GLY:544:C:4910, H-A:TYR:484:OH:4345, H-A:ARG:545:NE:4922, V-A:GLY:544:CA:4912, V-A:GLU:543:C:4900, V-B:HIS:456:CD2:9039, V-A:LYS:547:CE:4948, V-A:HIS:456:CG:4063, H-B:LYS:547:NZ:9923, V-A:HIS:456:CB:4062, H-A:LYS:547:NZ:4949, V-B:LYS:547:CE:9922"]

$$$$
2b_Grossjean_2025
     RDKit          3D

 28 29  0  0  0  0  0  0  0  0999 V2000
  127.5860  130.2870   74.5860 C   0  0  0  0  0  0  0  0  0  0  0  0
  128.6110  129.6770   73.8130 O   0  0  0  0  0  0  0  0  0  0  0  0
  128.6820  128.3280   73.6880 C   0  0  0  0  0  0  0  0  0  0  0  0
  128.6390  127.5520   74.6480 O   0  0  0  0  0  0  0  0  0  0  0  0
  128.8230  127.8710   72.2640 C   0  0  0  0  0  0  0  0  0  0  0  0
  130.0610  127.8730   71.6040 C   0  0  0  0  0  0  0  0  0  0  0  0
  130.1570  127.4450   70.2820 C   0  0  0  0  0  0  0  0  0  0  0  0
  129.0250  127.0020   69.5980 C   0  0  0  0  0  0  0  0  0  0  0  0
  129.2340  126.5980   68.2660 N   0  0  0  0  0  0  0  0  0  0  0  0
  130.3010  126.7950   67.4620 C   0  0  0  0  0  0  0  0  0  0  0  0
  131.3180  127.4200   67.7680 O   0  0  0  0  0  0  0  0  0  0  0  0
  130.1830  126.1900   66.0600 C   0  0  0  0  0  0  0  0  0  0  0  0
  130.4970  124.3950   66.0250 S   0  0  0  0  0  0  0  0  0  0  0  0
  130.9620  123.8890   64.3740 C   0  0  0  0  0  0  0  0  0  0  0  0
  130.0170  123.2080   63.6780 N   0  0  0  0  0  0  0  0  0  0  0  0
  130.3020  122.7900   62.4250 C   0  0  0  0  0  0  0  0  0  0  0  0
  129.1980  122.0260   61.7200 C   0  0  0  0  0  0  0  0  0  0  0  0
  131.5270  123.0360   61.8120 C   0  0  0  0  0  0  0  0  0  0  0  0
  132.5180  123.7440   62.5100 C   0  0  0  0  0  0  0  0  0  0  0  0
  133.8660  124.0120   61.8160 C   0  0  0  0  0  0  0  0  0  0  0  0
  134.7330  123.0420   62.1130 F   0  0  0  0  0  0  0  0  0  0  0  0
  133.7010  124.0530   60.4920 F   0  0  0  0  0  0  0  0  0  0  0  0
  134.4170  125.1700   62.1860 F   0  0  0  0  0  0  0  0  0  0  0  0
  132.2340  124.1830   63.8290 C   0  0  0  0  0  0  0  0  0  0  0  0
  133.2330  124.9220   64.6060 C   0  0  0  0  0  0  0  0  0  0  0  0
  134.0220  125.5050   65.2200 N   0  0  0  0  0  0  0  0  0  0  0  0
  127.7830  127.0040   70.2490 C   0  0  0  0  0  0  0  0  0  0  0  0
  127.6880  127.4330   71.5690 C   0  0  0  0  0  0  0  0  0  0  0  0
  1  2  1  0
  2  3  1  0
  3  4  2  0
  3  5  1  0
  5  6  2  0
  6  7  1  0
  7  8  2  0
  8  9  1  0
  9 10  1  0
 10 11  2  0
 10 12  1  0
 12 13  1  0
 13 14  1  0
 14 15  2  0
 15 16  1  0
 16 17  1  0
 16 18  2  0
 18 19  1  0
 19 20  1  0
 20 21  1  0
 20 22  1  0
 20 23  1  0
 19 24  2  0
 24 25  1  0
 25 26  3  0
  8 27  1  0
 27 28  2  0
 28  5  1  0
 24 14  1  0
M  END
>  <Binding energies>  (17) 
[-6.59]

>  <Ligand effiencies>  (17) 
[-0.22724137931034483]

>  <Interactions>  (17) 
["V-A:ILE:369:CD1:3236, V-A:GLY:453:C:4039, V-A:GLY:454:CA:4046, V-A:GLU:543:CG:4905, V-A:ASP:366:CG:3210, V-B:HIS:456:CE1:9040, H-B:GLU:543:OE2:9882, V-B:GLU:543:CD:9880, V-B:GLU:543:CB:9878, V-B:GLU:543:CG:9879, V-A:HIS:456:CE1:4066, V-A:GLU:543:CD:4906, V-B:GLU:543:C:9874, V-B:GLY:544:C:9884, V-A:ARG:545:CZ:4924, H-A:GLY:454:N:4047, V-B:ALA:541:CB:9864, V-B:ALA:541:CA:9862, V-A:HIS:456:CD2:4065, H-A:ARG:545:NH1:4925, V-A:GLY:453:CA:4041, V-A:GLY:544:C:4910, H-A:TYR:484:OH:4345, H-A:ARG:545:NE:4922, V-A:GLY:544:CA:4912, V-A:GLU:543:C:4900, V-B:HIS:456:CD2:9039, V-B:HIS:456:CG:9037, V-A:LYS:547:CE:4948, V-B:GLY:544:CA:9886, H-B:LYS:547:NZ:9923, H-A:LYS:547:NZ:4949, V-B:HIS:456:CB:9036, H-B:GLU:543:O:9875"]

$$$$
2c_Grossjean_2025
     RDKit          3D

 26 27  0  0  0  0  0  0  0  0999 V2000
  131.4380  126.0010   75.0650 C   0  0  0  0  0  0  0  0  0  0  0  0
  130.2210  126.6830   74.7810 O   0  0  0  0  0  0  0  0  0  0  0  0
  129.8320  126.8470   73.4650 C   0  0  0  0  0  0  0  0  0  0  0  0
  130.8320  127.1980   72.5600 C   0  0  0  0  0  0  0  0  0  0  0  0
  130.5370  127.3870   71.2120 C   0  0  0  0  0  0  0  0  0  0  0  0
  129.2200  127.2340   70.7560 C   0  0  0  0  0  0  0  0  0  0  0  0
  128.8290  127.3850   69.4130 N   0  0  0  0  0  0  0  0  0  0  0  0
  129.5750  127.7750   68.3570 C   0  0  0  0  0  0  0  0  0  0  0  0
  130.7550  128.1240   68.4240 O   0  0  0  0  0  0  0  0  0  0  0  0
  128.8320  127.7980   67.0130 C   0  0  0  0  0  0  0  0  0  0  0  0
  127.3170  128.8200   66.9710 S   0  0  0  0  0  0  0  0  0  0  0  0
  126.9080  129.2070   65.2730 C   0  0  0  0  0  0  0  0  0  0  0  0
  127.9120  129.0390   64.3740 N   0  0  0  0  0  0  0  0  0  0  0  0
  127.6780  129.3210   63.0740 C   0  0  0  0  0  0  0  0  0  0  0  0
  128.8530  129.1240   62.1360 C   0  0  0  0  0  0  0  0  0  0  0  0
  126.4430  129.7710   62.6140 C   0  0  0  0  0  0  0  0  0  0  0  0
  125.3900  129.9450   63.5230 C   0  0  0  0  0  0  0  0  0  0  0  0
  124.0280  130.4420   62.9980 C   0  0  0  0  0  0  0  0  0  0  0  0
  124.0260  130.4400   61.6640 F   0  0  0  0  0  0  0  0  0  0  0  0
  123.0510  129.6460   63.4340 F   0  0  0  0  0  0  0  0  0  0  0  0
  123.7440  131.6830   63.3980 F   0  0  0  0  0  0  0  0  0  0  0  0
  125.6230  129.6570   64.8920 C   0  0  0  0  0  0  0  0  0  0  0  0
  124.5580  129.8230   65.8870 C   0  0  0  0  0  0  0  0  0  0  0  0
  123.7180  129.9540   66.6720 N   0  0  0  0  0  0  0  0  0  0  0  0
  128.2180  126.8660   71.6560 C   0  0  0  0  0  0  0  0  0  0  0  0
  128.5170  126.6780   73.0020 C   0  0  0  0  0  0  0  0  0  0  0  0
  1  2  1  0
  2  3  1  0
  3  4  2  0
  4  5  1  0
  5  6  2  0
  6  7  1  0
  7  8  1  0
  8  9  2  0
  8 10  1  0
 10 11  1  0
 11 12  1  0
 12 13  2  0
 13 14  1  0
 14 15  1  0
 14 16  2  0
 16 17  1  0
 17 18  1  0
 18 19  1  0
 18 20  1  0
 18 21  1  0
 17 22  2  0
 22 23  1  0
 23 24  3  0
  6 25  1  0
 25 26  2  0
 26  3  1  0
 22 12  1  0
M  END
>  <Binding energies>  (18) 
[-6.3]

>  <Ligand effiencies>  (18) 
[-0.23333333333333334]

>  <Interactions>  (18) 
["V-B:GLY:454:CA:9020, V-B:GLY:453:C:9013, V-B:ILE:369:CD1:8210, V-B:ASP:366:CG:8184, V-A:GLU:543:CG:4905, V-B:GLY:453:CA:9015, V-B:HIS:456:CE1:9040, V-B:GLU:543:CD:9880, V-B:GLU:543:CG:9879, V-A:HIS:456:CE1:4066, H-B:GLY:454:N:9021, V-A:GLU:543:CD:4906, V-A:GLU:543:CB:4904, V-B:GLU:543:C:9874, V-B:ARG:545:CZ:9898, V-B:ARG:545:CG:9894, V-B:GLY:544:C:9884, V-A:HIS:456:CD2:4065, H-B:ARG:545:NE:9896, V-B:ARG:545:CD:9895, V-A:GLY:544:C:4910, H-B:TYR:484:OH:9319, V-A:GLY:544:CA:4912, V-A:LYS:547:CE:4948, V-B:GLY:544:CA:9886, V-A:HIS:456:CG:4063, H-B:LYS:547:NZ:9923, H-A:LYS:547:NZ:4949, V-B:LYS:547:CE:9922, H-B:ILE:455:N:9026, H-B:GLU:543:O:9875"]

$$$$
2d_Ghoteimi_2023
     RDKit          3D

 38 42  0  0  0  0  0  0  0  0999 V2000
  130.6750  120.9470   61.2610 C   0  0  0  0  0  0  0  0  0  0  0  0
  131.2430  122.2080   61.5820 O   0  0  0  0  0  0  0  0  0  0  0  0
  132.4680  122.5440   61.1270 C   0  0  0  0  0  0  0  0  0  0  0  0
  133.0930  121.9490   60.2440 O   0  0  0  0  0  0  0  0  0  0  0  0
  133.0080  123.7890   61.8470 C   0  0  0  0  0  0  0  0  0  0  0  0
  132.5750  123.7670   63.6200 S   0  0  0  0  0  0  0  0  0  0  0  0
  131.2910  124.9700   63.8980 C   0  0  0  0  0  0  0  0  0  0  0  0
  131.1830  125.3470   65.1960 N   0  0  0  0  0  0  0  0  0  0  0  0
  130.2400  126.2550   65.5550 C   0  0  0  0  0  0  0  0  0  0  0  0
  130.1690  126.6070   67.0050 C   0  0  0  0  0  0  0  0  0  0  0  0
  131.2070  127.3180   67.6180 C   0  0  0  0  0  0  0  0  0  0  0  0
  131.1470  127.6500   68.9690 C   0  0  0  0  0  0  0  0  0  0  0  0
  130.0400  127.2920   69.7540 C   0  0  0  0  0  0  0  0  0  0  0  0
  129.9720  127.6020   71.1170 N   0  0  0  0  0  0  0  0  0  0  0  0
  128.8170  128.3220   71.6890 C   0  0  0  0  0  0  0  0  0  0  0  0
  129.0810  128.8960   73.0960 C   0  0  0  0  0  0  0  0  0  0  0  0
  129.5130  127.8630   73.9670 O   0  0  0  0  0  0  0  0  0  0  0  0
  130.7150  127.2650   73.5100 C   0  0  0  0  0  0  0  0  0  0  0  0
  130.5020  126.6470   72.1110 C   0  0  0  0  0  0  0  0  0  0  0  0
  129.0090  126.5690   69.1390 C   0  0  0  0  0  0  0  0  0  0  0  0
  129.0700  126.2350   67.7890 C   0  0  0  0  0  0  0  0  0  0  0  0
  129.3800  126.8130   64.6060 C   0  0  0  0  0  0  0  0  0  0  0  0
  129.4930  126.4670   63.2540 C   0  0  0  0  0  0  0  0  0  0  0  0
  128.5580  127.1240   62.2920 C   0  0  0  0  0  0  0  0  0  0  0  0
  127.4860  126.4100   61.7550 C   0  0  0  0  0  0  0  0  0  0  0  0
  126.6020  127.0170   60.8680 C   0  0  0  0  0  0  0  0  0  0  0  0
  126.7680  128.3590   60.4900 C   0  0  0  0  0  0  0  0  0  0  0  0
  125.8850  128.9930   59.6100 N   0  0  0  0  0  0  0  0  0  0  0  0
  126.1800  129.0990   58.1680 C   0  0  0  0  0  0  0  0  0  0  0  0
  124.9540  129.4970   57.3180 C   0  0  0  0  0  0  0  0  0  0  0  0
  124.3910  130.7030   57.8110 O   0  0  0  0  0  0  0  0  0  0  0  0
  123.9680  130.5710   59.1590 C   0  0  0  0  0  0  0  0  0  0  0  0
  125.1690  130.2040   60.0570 C   0  0  0  0  0  0  0  0  0  0  0  0
  127.8360  129.0740   61.0480 C   0  0  0  0  0  0  0  0  0  0  0  0
  128.7190  128.4670   61.9360 C   0  0  0  0  0  0  0  0  0  0  0  0
  130.4800  125.5210   62.8800 C   0  0  0  0  0  0  0  0  0  0  0  0
  130.6500  125.1410   61.4740 C   0  0  0  0  0  0  0  0  0  0  0  0
  130.7810  124.8430   60.3630 N   0  0  0  0  0  0  0  0  0  0  0  0
  1  2  1  0
  2  3  1  0
  3  4  2  0
  3  5  1  0
  5  6  1  0
  6  7  1  0
  7  8  2  0
  8  9  1  0
  9 10  1  0
 10 11  2  0
 11 12  1  0
 12 13  2  0
 13 14  1  0
 14 15  1  0
 15 16  1  0
 16 17  1  0
 17 18  1  0
 18 19  1  0
 13 20  1  0
 20 21  2  0
  9 22  2  0
 22 23  1  0
 23 24  1  0
 24 25  2  0
 25 26  1  0
 26 27  2  0
 27 28  1  0
 28 29  1  0
 29 30  1  0
 30 31  1  0
 31 32  1  0
 32 33  1  0
 27 34  1  0
 34 35  2  0
 23 36  2  0
 36 37  1  0
 37 38  3  0
 36  7  1  0
 21 10  1  0
 35 24  1  0
 19 14  1  0
 33 28  1  0
M  END
>  <Binding energies>  (19) 
[-2.69]

>  <Ligand effiencies>  (19) 
[-0.07078947368421053]

>  <Interactions>  (19) 
["V-B:ASP:366:CB:8183, H-A:TYR:539:OH:4876, V-B:ASP:366:CG:8184, V-B:TYR:539:CE1:9847, V-A:LEU:475:CD2:4256, V-B:TYR:539:CD1:9845, V-A:GLU:543:CG:4905, V-B:HIS:456:CE1:9040, V-B:GLU:543:CD:9880, V-B:GLU:543:CB:9878, V-B:GLU:543:CG:9879, V-A:HIS:456:CE1:4066, V-A:GLU:543:CD:4906, V-B:GLU:543:C:9874, V-B:ASP:366:CA:8181, V-A:ARG:545:CG:4920, H-A:GLY:454:N:4047, V-B:ALA:541:CB:9864, V-B:TYR:531:CZ:9766, V-A:HIS:456:CD2:4065, V-A:GLY:544:C:4910, H-A:TYR:484:OH:4345, V-A:GLU:543:C:4900, V-B:HIS:456:CD2:9039, V-A:LYS:547:CE:4948, V-A:HIS:456:CG:4063, H-B:LYS:547:NZ:9923, H-A:LYS:547:NZ:4949, V-B:TYR:531:CE1:9764"]

$$$$
2d_Grossjean_2025
     RDKit          3D

 24 25  0  0  0  0  0  0  0  0999 V2000
  129.4320  125.7950   61.5170 C   0  0  0  0  0  0  0  0  0  0  0  0
  130.4660  125.6820   62.6210 C   0  0  0  0  0  0  0  0  0  0  0  0
  130.1290  125.8700   63.9590 C   0  0  0  0  0  0  0  0  0  0  0  0
  131.1200  125.7500   64.9430 C   0  0  0  0  0  0  0  0  0  0  0  0
  130.7260  125.9510   66.4200 C   0  0  0  0  0  0  0  0  0  0  0  0
  131.6780  126.6320   67.0580 F   0  0  0  0  0  0  0  0  0  0  0  0
  129.5810  126.6330   66.4980 F   0  0  0  0  0  0  0  0  0  0  0  0
  130.5510  124.7990   67.0700 F   0  0  0  0  0  0  0  0  0  0  0  0
  132.4450  125.4460   64.5390 C   0  0  0  0  0  0  0  0  0  0  0  0
  133.5070  125.2640   65.5320 C   0  0  0  0  0  0  0  0  0  0  0  0
  134.3440  125.1200   66.3170 N   0  0  0  0  0  0  0  0  0  0  0  0
  132.7000  125.2970   63.1550 C   0  0  0  0  0  0  0  0  0  0  0  0
  134.3090  124.9460   62.4710 S   0  0  0  0  0  0  0  0  0  0  0  0
  134.1260  123.7020   61.1510 C   0  0  0  0  0  0  0  0  0  0  0  0
  133.5020  122.3930   61.6450 C   0  0  0  0  0  0  0  0  0  0  0  0
  133.4960  122.1510   62.8530 O   0  0  0  0  0  0  0  0  0  0  0  0
  133.0240  121.5750   60.6840 N   0  0  0  0  0  0  0  0  0  0  0  0
  132.3970  120.3210   60.8150 C   0  0  0  0  0  0  0  0  0  0  0  0
  133.1890  119.2080   60.5240 C   0  0  0  0  0  0  0  0  0  0  0  0
  132.6560  117.9240   60.6190 C   0  0  0  0  0  0  0  0  0  0  0  0
  131.3260  117.7560   60.9960 C   0  0  0  0  0  0  0  0  0  0  0  0
  130.5240  118.8590   61.2750 C   0  0  0  0  0  0  0  0  0  0  0  0
  131.0530  120.1420   61.1830 C   0  0  0  0  0  0  0  0  0  0  0  0
  131.7250  125.3950   62.2180 N   0  0  0  0  0  0  0  0  0  0  0  0
  1  2  1  0
  2  3  2  0
  3  4  1  0
  4  5  1  0
  5  6  1  0
  5  7  1  0
  5  8  1  0
  4  9  2  0
  9 10  1  0
 10 11  3  0
  9 12  1  0
 12 13  1  0
 13 14  1  0
 14 15  1  0
 15 16  2  0
 15 17  1  0
 17 18  1  0
 18 19  2  0
 19 20  1  0
 20 21  2  0
 21 22  1  0
 22 23  2  0
 12 24  2  0
 24  2  1  0
 23 18  1  0
M  END
>  <Binding energies>  (20) 
[-6.22]

>  <Ligand effiencies>  (20) 
[-0.2488]

>  <Interactions>  (20) 
["V-B:TYR:539:CE1:9847, V-A:ILE:369:CD1:3236, V-A:LEU:475:CD2:4256, V-B:TYR:539:CD1:9845, V-A:GLY:454:CA:4046, V-A:GLU:543:CG:4905, V-A:ILE:369:CG2:3234, V-B:GLU:543:CD:9880, H-A:ARG:545:NH2:4926, V-B:GLU:543:CB:9878, V-B:GLU:543:CG:9879, V-A:HIS:456:CE1:4066, V-A:TYR:484:CE2:4343, V-A:TYR:484:CZ:4344, V-A:GLU:543:CD:4906, V-A:ARG:545:CZ:4924, V-A:ARG:545:CG:4920, V-A:SER:385:CA:3404, H-A:GLY:454:N:4047, V-A:ARG:545:CD:4921, V-B:ALA:541:CB:9864, H-A:ARG:545:NH1:4925, H-A:TYR:484:OH:4345, H-A:ARG:545:NE:4922, V-A:SER:385:CB:3406, V-A:LEU:373:CD1:3277, V-A:PRO:482:CB:4323, V-A:PRO:482:CG:4324, H-A:ILE:455:N:4052"]

$$$$
2e_Grossjean_2025
     RDKit          3D

 25 26  0  0  0  0  0  0  0  0999 V2000
  124.4580  123.1510   62.1140 C   0  0  0  0  0  0  0  0  0  0  0  0
  125.7410  123.4160   61.3490 C   0  0  0  0  0  0  0  0  0  0  0  0
  125.7260  123.7950   60.0040 C   0  0  0  0  0  0  0  0  0  0  0  0
  126.9450  124.0340   59.3680 C   0  0  0  0  0  0  0  0  0  0  0  0
  128.1370  123.8890   60.0830 C   0  0  0  0  0  0  0  0  0  0  0  0
  128.0800  123.4970   61.4250 C   0  0  0  0  0  0  0  0  0  0  0  0
  129.3050  123.4090   62.1080 N   0  0  0  0  0  0  0  0  0  0  0  0
  130.2340  122.4310   62.0300 C   0  0  0  0  0  0  0  0  0  0  0  0
  130.1820  121.4660   61.2660 O   0  0  0  0  0  0  0  0  0  0  0  0
  131.4040  122.5440   63.0130 C   0  0  0  0  0  0  0  0  0  0  0  0
  132.6890  123.6900   62.4180 S   0  0  0  0  0  0  0  0  0  0  0  0
  131.8190  124.9510   61.5140 C   0  0  0  0  0  0  0  0  0  0  0  0
  130.9960  125.7220   62.2680 N   0  0  0  0  0  0  0  0  0  0  0  0
  130.2630  126.6760   61.6530 C   0  0  0  0  0  0  0  0  0  0  0  0
  129.3650  127.5010   62.5550 C   0  0  0  0  0  0  0  0  0  0  0  0
  130.3130  126.8940   60.2770 C   0  0  0  0  0  0  0  0  0  0  0  0
  131.1510  126.0990   59.4810 C   0  0  0  0  0  0  0  0  0  0  0  0
  131.1800  126.3380   57.9600 C   0  0  0  0  0  0  0  0  0  0  0  0
  130.6870  127.5450   57.6770 F   0  0  0  0  0  0  0  0  0  0  0  0
  132.4330  126.2660   57.5110 F   0  0  0  0  0  0  0  0  0  0  0  0
  130.4580  125.4410   57.2840 F   0  0  0  0  0  0  0  0  0  0  0  0
  131.9310  125.0980   60.1120 C   0  0  0  0  0  0  0  0  0  0  0  0
  132.8050  124.2150   59.3330 C   0  0  0  0  0  0  0  0  0  0  0  0
  133.4930  123.5180   58.7170 N   0  0  0  0  0  0  0  0  0  0  0  0
  126.8910  123.2700   62.0560 N   0  0  0  0  0  0  0  0  0  0  0  0
  1  2  1  0
  2  3  2  0
  3  4  1  0
  4  5  2  0
  5  6  1  0
  6  7  1  0
  7  8  1  0
  8  9  2  0
  8 10  1  0
 10 11  1  0
 11 12  1  0
 12 13  2  0
 13 14  1  0
 14 15  1  0
 14 16  2  0
 16 17  1  0
 17 18  1  0
 18 19  1  0
 18 20  1  0
 18 21  1  0
 17 22  2  0
 22 23  1  0
 23 24  3  0
  6 25  2  0
 25  2  1  0
 22 12  1  0
M  END
>  <Binding energies>  (21) 
[-5.86]

>  <Ligand effiencies>  (21) 
[-0.2253846153846154]

>  <Interactions>  (21) 
["V-B:PRO:540:C:9853, V-B:TYR:539:CE1:9847, H-B:ALA:541:N:9863, V-B:PRO:540:CA:9855, V-A:LEU:475:CD2:4256, H-B:GLU:543:OE1:9881, V-A:ASP:366:CG:3210, H-A:ARG:545:NH2:4926, V-A:ASP:366:CA:3207, V-A:ASP:366:CB:3209, V-A:GLU:543:CD:4906, V-B:PRO:540:CB:9857, V-B:ALA:541:CB:9864, V-B:ASN:362:CB:8147, H-B:TYR:539:OH:9850, V-A:TYR:531:CZ:4792, V-B:ASN:362:CG:8148"]

$$$$
2f_Grossjean_2025
     RDKit          3D

 24 25  0  0  0  0  0  0  0  0999 V2000
  129.4150  125.9810   61.5110 C   0  0  0  0  0  0  0  0  0  0  0  0
  130.4460  125.7790   62.6060 C   0  0  0  0  0  0  0  0  0  0  0  0
  130.1230  125.9430   63.9510 C   0  0  0  0  0  0  0  0  0  0  0  0
  131.1140  125.7530   64.9270 C   0  0  0  0  0  0  0  0  0  0  0  0
  130.7410  125.9500   66.4080 C   0  0  0  0  0  0  0  0  0  0  0  0
  130.5930  124.7660   67.0050 F   0  0  0  0  0  0  0  0  0  0  0  0
  131.7010  126.6320   67.0330 F   0  0  0  0  0  0  0  0  0  0  0  0
  129.6000  126.6240   66.5690 F   0  0  0  0  0  0  0  0  0  0  0  0
  132.4200  125.3910   64.5060 C   0  0  0  0  0  0  0  0  0  0  0  0
  133.5020  125.2370   65.4810 C   0  0  0  0  0  0  0  0  0  0  0  0
  134.3560  125.1150   66.2530 N   0  0  0  0  0  0  0  0  0  0  0  0
  132.6490  125.2220   63.1190 C   0  0  0  0  0  0  0  0  0  0  0  0
  134.2190  124.7590   62.4150 S   0  0  0  0  0  0  0  0  0  0  0  0
  133.9080  123.5480   61.0860 C   0  0  0  0  0  0  0  0  0  0  0  0
  133.2920  122.2190   61.5470 C   0  0  0  0  0  0  0  0  0  0  0  0
  133.0190  122.0310   62.7330 O   0  0  0  0  0  0  0  0  0  0  0  0
  133.1080  121.3150   60.5600 N   0  0  0  0  0  0  0  0  0  0  0  0
  132.5640  120.0180   60.6250 C   0  0  0  0  0  0  0  0  0  0  0  0
  131.2410  119.7040   60.9870 C   0  0  0  0  0  0  0  0  0  0  0  0
  130.8270  118.3710   61.0060 C   0  0  0  0  0  0  0  0  0  0  0  0
  131.7470  117.3820   60.6580 C   0  0  0  0  0  0  0  0  0  0  0  0
  133.0260  117.6580   60.2980 N   0  0  0  0  0  0  0  0  0  0  0  0
  133.4130  118.9590   60.2840 C   0  0  0  0  0  0  0  0  0  0  0  0
  131.6850  125.4310   62.1900 N   0  0  0  0  0  0  0  0  0  0  0  0
  1  2  1  0
  2  3  2  0
  3  4  1  0
  4  5  1  0
  5  6  1  0
  5  7  1  0
  5  8  1  0
  4  9  2  0
  9 10  1  0
 10 11  3  0
  9 12  1  0
 12 13  1  0
 13 14  1  0
 14 15  1  0
 15 16  2  0
 15 17  1  0
 17 18  1  0
 18 19  2  0
 19 20  1  0
 20 21  2  0
 21 22  1  0
 22 23  2  0
 12 24  2  0
 24  2  1  0
 23 18  1  0
M  END
>  <Binding energies>  (22) 
[-5.9]

>  <Ligand effiencies>  (22) 
[-0.23600000000000002]

>  <Interactions>  (22) 
["V-B:TYR:539:CE1:9847, V-A:ILE:369:CD1:3236, V-A:LEU:475:CD2:4256, V-B:TYR:539:CD1:9845, V-A:GLY:454:CA:4046, V-A:GLU:543:CG:4905, V-A:ILE:369:CG2:3234, V-B:GLU:543:CD:9880, H-A:ARG:545:NH2:4926, V-B:GLU:543:CB:9878, V-B:GLU:543:CG:9879, V-A:HIS:456:CE1:4066, V-A:TYR:484:CE2:4343, V-A:TYR:484:CZ:4344, V-A:GLU:543:CD:4906, V-A:ARG:545:CZ:4924, V-A:ARG:545:CG:4920, V-A:SER:385:CA:3404, H-A:GLY:454:N:4047, V-A:ARG:545:CD:4921, H-A:TYR:484:OH:4345, H-A:ARG:545:NE:4922, V-A:SER:385:CB:3406, V-A:LEU:373:CD1:3277, V-A:PRO:482:CB:4323, V-A:PRO:482:CG:4324, H-A:ILE:455:N:4052"]

$$$$
2g_Grossjean_2025
     RDKit          3D

 25 26  0  0  0  0  0  0  0  0999 V2000
  129.7110  126.5330   63.3650 C   0  0  0  0  0  0  0  0  0  0  0  0
  130.6310  125.8430   62.3750 C   0  0  0  0  0  0  0  0  0  0  0  0
  131.9420  125.5110   62.7070 C   0  0  0  0  0  0  0  0  0  0  0  0
  132.7560  124.8800   61.7540 C   0  0  0  0  0  0  0  0  0  0  0  0
  134.2070  124.5280   62.1360 C   0  0  0  0  0  0  0  0  0  0  0  0
  134.5930  125.2440   63.1930 F   0  0  0  0  0  0  0  0  0  0  0  0
  134.2930  123.2320   62.4380 F   0  0  0  0  0  0  0  0  0  0  0  0
  135.0740  124.7710   61.1510 F   0  0  0  0  0  0  0  0  0  0  0  0
  132.2080  124.5920   60.4770 C   0  0  0  0  0  0  0  0  0  0  0  0
  133.0320  123.9860   59.4280 C   0  0  0  0  0  0  0  0  0  0  0  0
  133.6830  123.5080   58.5990 N   0  0  0  0  0  0  0  0  0  0  0  0
  130.8560  124.9390   60.2400 C   0  0  0  0  0  0  0  0  0  0  0  0
  130.0050  124.6290   58.7080 S   0  0  0  0  0  0  0  0  0  0  0  0
  128.3350  124.0190   59.1220 C   0  0  0  0  0  0  0  0  0  0  0  0
  128.3010  122.9170   60.1890 C   0  0  0  0  0  0  0  0  0  0  0  0
  127.2410  122.5490   60.6990 O   0  0  0  0  0  0  0  0  0  0  0  0
  129.4970  122.3980   60.5230 N   0  0  0  0  0  0  0  0  0  0  0  0
  129.7180  121.3350   61.5050 C   0  0  0  0  0  0  0  0  0  0  0  0
  130.8620  120.3880   61.1600 C   0  0  0  0  0  0  0  0  0  0  0  0
  132.1520  120.8940   60.9740 C   0  0  0  0  0  0  0  0  0  0  0  0
  133.2060  120.0270   60.6960 C   0  0  0  0  0  0  0  0  0  0  0  0
  132.9680  118.6570   60.6150 C   0  0  0  0  0  0  0  0  0  0  0  0
  131.6870  118.1450   60.8120 C   0  0  0  0  0  0  0  0  0  0  0  0
  130.6340  119.0110   61.0900 C   0  0  0  0  0  0  0  0  0  0  0  0
  130.0910  125.5690   61.1660 N   0  0  0  0  0  0  0  0  0  0  0  0
  1  2  1  0
  2  3  2  0
  3  4  1  0
  4  5  1  0
  5  6  1  0
  5  7  1  0
  5  8  1  0
  4  9  2  0
  9 10  1  0
 10 11  3  0
  9 12  1  0
 12 13  1  0
 13 14  1  0
 14 15  1  0
 15 16  2  0
 15 17  1  0
 17 18  1  0
 18 19  1  0
 19 20  2  0
 20 21  1  0
 21 22  2  0
 22 23  1  0
 23 24  2  0
 12 25  2  0
 25  2  1  0
 24 19  1  0
M  END
>  <Binding energies>  (23) 
[-5.98]

>  <Ligand effiencies>  (23) 
[-0.23]

>  <Interactions>  (23) 
["V-B:TYR:539:CE1:9847, H-B:ALA:541:N:9863, V-A:ILE:369:CD1:3236, V-B:PRO:540:CA:9855, V-A:GLY:453:C:4039, V-A:LEU:475:CD2:4256, V-B:TYR:539:CD1:9845, V-A:GLY:454:CA:4046, V-A:ASP:366:CG:3210, V-A:ILE:369:CG2:3234, V-B:GLU:543:CD:9880, V-A:ASP:366:CA:3207, V-A:ARG:545:CZ:4924, V-A:SER:385:CA:3404, V-B:ALA:541:CB:9864, V-A:GLY:453:CA:4041, H-B:TYR:539:OH:9850, V-A:SER:385:CB:3406, V-A:LEU:373:CD1:3277, V-A:PRO:482:CB:4323, V-A:PRO:482:CG:4324"]

$$$$
2h_Grossjean_2025
     RDKit          3D

 31 32  0  0  0  0  0  0  0  0999 V2000
  133.0340  119.9810   60.9350 C   0  0  0  0  0  0  0  0  0  0  0  0
  132.0420  120.9620   60.6530 O   0  0  0  0  0  0  0  0  0  0  0  0
  131.6980  121.8800   61.6280 C   0  0  0  0  0  0  0  0  0  0  0  0
  130.4150  121.9850   62.1880 C   0  0  0  0  0  0  0  0  0  0  0  0
  130.1460  122.9310   63.1750 C   0  0  0  0  0  0  0  0  0  0  0  0
  131.1480  123.7920   63.6230 C   0  0  0  0  0  0  0  0  0  0  0  0
  130.8340  124.8080   64.7200 C   0  0  0  0  0  0  0  0  0  0  0  0
  130.5110  126.1410   64.2100 N   0  0  0  0  0  0  0  0  0  0  0  0
  129.8080  126.3880   63.0910 C   0  0  0  0  0  0  0  0  0  0  0  0
  129.4270  125.5020   62.3230 O   0  0  0  0  0  0  0  0  0  0  0  0
  129.4910  127.8650   62.8200 C   0  0  0  0  0  0  0  0  0  0  0  0
  127.9840  128.4920   63.6360 S   0  0  0  0  0  0  0  0  0  0  0  0
  127.6060  130.0600   62.8830 C   0  0  0  0  0  0  0  0  0  0  0  0
  128.5730  130.5100   62.0450 N   0  0  0  0  0  0  0  0  0  0  0  0
  128.3960  131.7020   61.4330 C   0  0  0  0  0  0  0  0  0  0  0  0
  129.5210  132.1450   60.5160 C   0  0  0  0  0  0  0  0  0  0  0  0
  127.2590  132.4840   61.6230 C   0  0  0  0  0  0  0  0  0  0  0  0
  126.2390  132.0260   62.4710 C   0  0  0  0  0  0  0  0  0  0  0  0
  124.9850  132.9010   62.6620 C   0  0  0  0  0  0  0  0  0  0  0  0
  124.7590  133.0930   63.9620 F   0  0  0  0  0  0  0  0  0  0  0  0
  125.1040  134.1040   62.0940 F   0  0  0  0  0  0  0  0  0  0  0  0
  123.9230  132.3040   62.1200 F   0  0  0  0  0  0  0  0  0  0  0  0
  126.4060  130.7730   63.1150 C   0  0  0  0  0  0  0  0  0  0  0  0
  125.3450  130.2230   63.9630 C   0  0  0  0  0  0  0  0  0  0  0  0
  124.5050  129.7890   64.6290 N   0  0  0  0  0  0  0  0  0  0  0  0
  132.4290  123.7150   63.0550 C   0  0  0  0  0  0  0  0  0  0  0  0
  133.4210  124.5620   63.4890 O   0  0  0  0  0  0  0  0  0  0  0  0
  133.8530  125.5060   62.5170 C   0  0  0  0  0  0  0  0  0  0  0  0
  132.7040  122.7470   62.0740 C   0  0  0  0  0  0  0  0  0  0  0  0
  133.9630  122.6560   61.5290 O   0  0  0  0  0  0  0  0  0  0  0  0
  134.0990  123.3010   60.2700 C   0  0  0  0  0  0  0  0  0  0  0  0
  1  2  1  0
  2  3  1  0
  3  4  2  0
  4  5  1  0
  5  6  2  0
  6  7  1  0
  7  8  1  0
  8  9  1  0
  9 10  2  0
  9 11  1  0
 11 12  1  0
 12 13  1  0
 13 14  2  0
 14 15  1  0
 15 16  1  0
 15 17  2  0
 17 18  1  0
 18 19  1  0
 19 20  1  0
 19 21  1  0
 19 22  1  0
 18 23  2  0
 23 24  1  0
 24 25  3  0
  6 26  1  0
 26 27  1  0
 27 28  1  0
 26 29  2  0
 29 30  1  0
 30 31  1  0
 29  3  1  0
 23 13  1  0
M  END
>  <Binding energies>  (24) 
[-5.19]

>  <Ligand effiencies>  (24) 
[-0.1621875]

>  <Interactions>  (24) 
["V-B:LEU:475:CD2:9230, V-B:GLY:454:CA:9020, V-B:ILE:369:CG2:8208, V-B:ILE:369:CD1:8210, V-A:PRO:540:CA:4881, V-B:TYR:539:CE1:9847, V-A:ILE:369:CD1:3236, V-A:LEU:475:CD2:4256, V-B:TYR:539:CD1:9845, V-A:ASP:366:CG:3210, H-B:ARG:545:NH2:9900, V-A:ILE:369:CG2:3234, V-B:GLU:543:CD:9880, H-A:GLU:543:OE2:4908, H-B:GLY:454:N:9021, V-A:GLU:543:CD:4906, V-A:ILE:369:CB:3233, V-B:ARG:545:CZ:9898, V-A:ARG:545:CZ:4924, V-A:SER:385:CA:3404, H-A:GLY:454:N:4047, V-B:ALA:541:CB:9864, V-A:ILE:369:CG1:3235, H-B:ARG:545:NE:9896, V-A:GLY:453:CA:4041, H-B:TYR:484:OH:9319"]

$$$$
2i_Grossjean_2025
     RDKit          3D

 23 24  0  0  0  0  0  0  0  0999 V2000
  129.3850  126.6900   62.9780 C   0  0  0  0  0  0  0  0  0  0  0  0
  130.3670  126.0390   62.0220 C   0  0  0  0  0  0  0  0  0  0  0  0
  131.6000  125.5610   62.4570 C   0  0  0  0  0  0  0  0  0  0  0  0
  132.4730  124.9650   61.5340 C   0  0  0  0  0  0  0  0  0  0  0  0
  133.8340  124.4420   62.0320 C   0  0  0  0  0  0  0  0  0  0  0  0
  133.7690  123.1250   62.2390 F   0  0  0  0  0  0  0  0  0  0  0  0
  134.7800  124.6910   61.1260 F   0  0  0  0  0  0  0  0  0  0  0  0
  134.2170  125.0090   63.1780 F   0  0  0  0  0  0  0  0  0  0  0  0
  132.0640  124.8700   60.1800 C   0  0  0  0  0  0  0  0  0  0  0  0
  132.9360  124.2550   59.1740 C   0  0  0  0  0  0  0  0  0  0  0  0
  133.6240  123.7690   58.3790 N   0  0  0  0  0  0  0  0  0  0  0  0
  130.7960  125.3840   59.8250 C   0  0  0  0  0  0  0  0  0  0  0  0
  130.1800  125.3260   58.1500 S   0  0  0  0  0  0  0  0  0  0  0  0
  129.6230  123.6290   57.8100 C   0  0  0  0  0  0  0  0  0  0  0  0
  128.2800  123.3160   58.4720 C   0  0  0  0  0  0  0  0  0  0  0  0
  127.4440  122.6580   57.8500 O   0  0  0  0  0  0  0  0  0  0  0  0
  128.1030  123.8220   59.7120 N   0  0  0  0  0  0  0  0  0  0  0  0
  126.9750  123.6920   60.5050 C   0  0  0  0  0  0  0  0  0  0  0  0
  125.6290  123.9500   60.2100 C   0  0  0  0  0  0  0  0  0  0  0  0
  124.9520  123.6420   61.3680 C   0  0  0  0  0  0  0  0  0  0  0  0
  125.8380  123.2170   62.3000 O   0  0  0  0  0  0  0  0  0  0  0  0
  127.1150  123.2490   61.7360 N   0  0  0  0  0  0  0  0  0  0  0  0
  129.9660  125.9560   60.7340 N   0  0  0  0  0  0  0  0  0  0  0  0
  1  2  1  0
  2  3  2  0
  3  4  1  0
  4  5  1  0
  5  6  1  0
  5  7  1  0
  5  8  1  0
  4  9  2  0
  9 10  1  0
 10 11  3  0
  9 12  1  0
 12 13  1  0
 13 14  1  0
 14 15  1  0
 15 16  2  0
 15 17  1  0
 17 18  1  0
 18 19  1  0
 19 20  2  0
 20 21  1  0
 21 22  1  0
 12 23  2  0
 23  2  1  0
 22 18  2  0
M  END
>  <Binding energies>  (25) 
[-5.73]

>  <Ligand effiencies>  (25) 
[-0.23875000000000002]

>  <Interactions>  (25) 
["V-B:TYR:539:CE1:9847, H-B:ALA:541:N:9863, V-A:ILE:369:CD1:3236, V-B:PRO:540:CA:9855, V-A:GLY:453:C:4039, V-B:TYR:539:CD1:9845, V-A:GLY:454:CA:4046, V-A:ASP:366:CG:3210, V-B:GLU:543:CD:9880, V-A:ARG:545:CZ:4924, V-B:PRO:540:CB:9857, V-B:TYR:539:CZ:9849, V-A:GLY:453:CA:4041, V-B:ASN:362:CB:8147, H-B:TYR:539:OH:9850, H-B:TYR:539:N:9842"]

$$$$
2k_Grossjean_2025
     RDKit          3D

 28 28  0  0  0  0  0  0  0  0999 V2000
  123.4860  130.5350   62.5770 C   0  0  0  0  0  0  0  0  0  0  0  0
  123.8920  130.1850   63.8910 O   0  0  0  0  0  0  0  0  0  0  0  0
  125.2400  130.5350   64.1790 C   0  0  0  0  0  0  0  0  0  0  0  0
  126.0570  129.2660   64.4570 C   0  0  0  0  0  0  0  0  0  0  0  0
  125.9810  128.9610   65.8410 O   0  0  0  0  0  0  0  0  0  0  0  0
  126.9800  129.5910   66.6340 C   0  0  0  0  0  0  0  0  0  0  0  0
  128.2430  128.7210   66.6030 C   0  0  0  0  0  0  0  0  0  0  0  0
  128.7300  128.6120   67.9310 O   0  0  0  0  0  0  0  0  0  0  0  0
  128.3150  127.4500   68.6330 C   0  0  0  0  0  0  0  0  0  0  0  0
  129.3880  126.3570   68.4700 C   0  0  0  0  0  0  0  0  0  0  0  0
  130.1410  126.4780   67.2190 N   0  0  0  0  0  0  0  0  0  0  0  0
  130.6460  125.4530   66.5070 C   0  0  0  0  0  0  0  0  0  0  0  0
  130.4990  124.2710   66.8230 O   0  0  0  0  0  0  0  0  0  0  0  0
  131.4520  125.8420   65.2590 C   0  0  0  0  0  0  0  0  0  0  0  0
  130.4930  125.9450   63.7080 S   0  0  0  0  0  0  0  0  0  0  0  0
  130.7610  124.4630   62.7450 C   0  0  0  0  0  0  0  0  0  0  0  0
  129.6430  123.8730   62.2480 N   0  0  0  0  0  0  0  0  0  0  0  0
  129.7700  122.7460   61.5140 C   0  0  0  0  0  0  0  0  0  0  0  0
  128.4750  122.1420   61.0060 C   0  0  0  0  0  0  0  0  0  0  0  0
  131.0050  122.1680   61.2340 C   0  0  0  0  0  0  0  0  0  0  0  0
  132.1740  122.7640   61.7290 C   0  0  0  0  0  0  0  0  0  0  0  0
  133.5330  122.1140   61.4050 C   0  0  0  0  0  0  0  0  0  0  0  0
  134.2630  121.8720   62.4950 F   0  0  0  0  0  0  0  0  0  0  0  0
  133.3450  120.9490   60.7810 F   0  0  0  0  0  0  0  0  0  0  0  0
  134.2460  122.9170   60.6140 F   0  0  0  0  0  0  0  0  0  0  0  0
  132.0550  123.9430   62.5080 C   0  0  0  0  0  0  0  0  0  0  0  0
  133.2440  124.6070   63.0540 C   0  0  0  0  0  0  0  0  0  0  0  0
  134.1820  125.1300   63.4840 N   0  0  0  0  0  0  0  0  0  0  0  0
  1  2  1  0
  2  3  1  0
  3  4  1  0
  4  5  1  0
  5  6  1  0
  6  7  1  0
  7  8  1  0
  8  9  1  0
  9 10  1  0
 10 11  1  0
 11 12  1  0
 12 13  2  0
 12 14  1  0
 14 15  1  0
 15 16  1  0
 16 17  2  0
 17 18  1  0
 18 19  1  0
 18 20  2  0
 20 21  1  0
 21 22  1  0
 22 23  1  0
 22 24  1  0
 22 25  1  0
 21 26  2  0
 26 27  1  0
 27 28  3  0
 26 16  1  0
M  END
>  <Binding energies>  (26) 
[-4.95]

>  <Ligand effiencies>  (26) 
[-0.1706896551724138]

>  <Interactions>  (26) 
["V-B:GLY:453:C:9013, V-B:ILE:369:CD1:8210, V-B:PRO:540:C:9853, V-B:TYR:539:CE1:9847, V-B:TYR:539:C:9839, V-A:ILE:369:CD1:3236, V-B:PRO:540:CA:9855, V-A:GLY:453:C:4039, V-A:LEU:475:CD2:4256, V-B:TYR:539:CD1:9845, V-A:GLY:454:CA:4046, V-A:GLU:543:CG:4905, H-B:ARG:545:NH2:9900, V-A:ILE:369:CG2:3234, V-B:GLY:453:CA:9015, V-B:HIS:456:CE1:9040, H-B:GLU:543:OE2:9882, V-B:GLU:543:CD:9880, H-A:ARG:545:NH2:4926, V-B:GLU:543:CB:9878, V-B:GLU:543:CG:9879, V-A:HIS:456:CE1:4066, H-A:GLU:543:OE2:4908, H-B:GLY:454:N:9021, V-A:GLU:543:CD:4906, V-A:GLU:543:CB:4904, V-B:GLU:543:C:9874, V-A:ILE:369:CB:3233, V-B:ARG:545:CZ:9898, V-A:ARG:545:CZ:4924, H-A:GLY:454:N:4047, V-A:SER:385:C:3402, V-B:ALA:541:CB:9864, V-B:TYR:484:CZ:9318, V-A:ILE:369:CG1:3235, V-B:ALA:541:CA:9862, H-A:HIS:456:NE2:4067, H-B:HIS:456:NE2:9041, H-B:ARG:545:NE:9896, H-B:ARG:545:NH1:9899, H-A:ARG:545:NH1:4925, H-A:TYR:484:OH:4345, H-A:ARG:545:NE:4922, H-B:TYR:484:OH:9319"]

$$$$
3aa_Grossjean_2025
     RDKit          3D

 34 36  0  0  0  0  0  0  0  0999 V2000
  129.2050  124.6310   72.9800 C   0  0  0  0  0  0  0  0  0  0  0  0
  130.0880  125.8300   73.3400 C   0  0  0  0  0  0  0  0  0  0  0  0
  129.2670  126.9260   73.7240 O   0  0  0  0  0  0  0  0  0  0  0  0
  129.1640  128.0300   72.9400 C   0  0  0  0  0  0  0  0  0  0  0  0
  128.8880  129.1510   73.3770 O   0  0  0  0  0  0  0  0  0  0  0  0
  129.4040  127.7490   71.4840 C   0  0  0  0  0  0  0  0  0  0  0  0
  128.3940  127.2520   70.6470 C   0  0  0  0  0  0  0  0  0  0  0  0
  128.6490  127.0070   69.3000 C   0  0  0  0  0  0  0  0  0  0  0  0
  129.9130  127.2580   68.7620 C   0  0  0  0  0  0  0  0  0  0  0  0
  130.0640  126.9800   67.3890 N   0  0  0  0  0  0  0  0  0  0  0  0
  130.2770  125.7990   66.7680 C   0  0  0  0  0  0  0  0  0  0  0  0
  130.4060  124.7100   67.3300 O   0  0  0  0  0  0  0  0  0  0  0  0
  130.3740  125.8630   65.2440 C   0  0  0  0  0  0  0  0  0  0  0  0
  131.7320  124.8330   64.6090 S   0  0  0  0  0  0  0  0  0  0  0  0
  131.2900  124.3500   62.9550 C   0  0  0  0  0  0  0  0  0  0  0  0
  131.5180  123.0410   62.6930 N   0  0  0  0  0  0  0  0  0  0  0  0
  131.2270  122.5400   61.4640 C   0  0  0  0  0  0  0  0  0  0  0  0
  131.4940  121.0800   61.2570 C   0  0  0  0  0  0  0  0  0  0  0  0
  132.7860  120.6270   60.9440 C   0  0  0  0  0  0  0  0  0  0  0  0
  133.0430  119.2720   60.7510 C   0  0  0  0  0  0  0  0  0  0  0  0
  132.0090  118.3500   60.8670 C   0  0  0  0  0  0  0  0  0  0  0  0
  130.7200  118.7730   61.1780 C   0  0  0  0  0  0  0  0  0  0  0  0
  130.4670  120.1280   61.3740 C   0  0  0  0  0  0  0  0  0  0  0  0
  130.6850  123.3550   60.4660 C   0  0  0  0  0  0  0  0  0  0  0  0
  130.4560  124.7180   60.7090 C   0  0  0  0  0  0  0  0  0  0  0  0
  129.8680  125.5860   59.5800 C   0  0  0  0  0  0  0  0  0  0  0  0
  130.6790  126.5820   59.2170 F   0  0  0  0  0  0  0  0  0  0  0  0
  129.6440  124.8410   58.4970 F   0  0  0  0  0  0  0  0  0  0  0  0
  128.7160  126.1290   59.9760 F   0  0  0  0  0  0  0  0  0  0  0  0
  130.7770  125.2400   61.9860 C   0  0  0  0  0  0  0  0  0  0  0  0
  130.6130  126.6670   62.2780 C   0  0  0  0  0  0  0  0  0  0  0  0
  130.4830  127.7940   62.5080 N   0  0  0  0  0  0  0  0  0  0  0  0
  130.9320  127.7420   69.5970 C   0  0  0  0  0  0  0  0  0  0  0  0
  130.6750  127.9840   70.9420 C   0  0  0  0  0  0  0  0  0  0  0  0
  1  2  1  0
  2  3  1  0
  3  4  1  0
  4  5  2  0
  4  6  1  0
  6  7  2  0
  7  8  1  0
  8  9  2  0
  9 10  1  0
 10 11  1  0
 11 12  2  0
 11 13  1  0
 13 14  1  0
 14 15  1  0
 15 16  2  0
 16 17  1  0
 17 18  1  0
 18 19  2  0
 19 20  1  0
 20 21  2  0
 21 22  1  0
 22 23  2  0
 17 24  2  0
 24 25  1  0
 25 26  1  0
 26 27  1  0
 26 28  1  0
 26 29  1  0
 25 30  2  0
 30 31  1  0
 31 32  3  0
  9 33  1  0
 33 34  2  0
 34  6  1  0
 30 15  1  0
 23 18  1  0
M  END
>  <Binding energies>  (27) 
[-7.82]

>  <Ligand effiencies>  (27) 
[-0.22342857142857145]

>  <Interactions>  (27) 
["V-B:TYR:539:CE1:9847, V-A:LEU:475:CD2:4256, V-B:TYR:539:CD1:9845, V-A:GLU:543:CG:4905, V-A:ASP:366:CG:3210, V-A:ILE:369:CG2:3234, V-B:HIS:456:CE1:9040, H-B:GLU:543:OE2:9882, V-B:GLU:543:CD:9880, H-A:ARG:545:NH2:4926, V-B:GLU:543:CB:9878, V-B:GLU:543:CG:9879, V-A:HIS:456:CE1:4066, H-A:GLU:543:OE2:4908, V-A:GLU:543:CD:4906, V-B:GLU:543:C:9874, V-B:GLY:544:C:9884, V-A:SER:385:CA:3404, H-A:GLU:543:OE1:4907, V-B:ALA:541:CB:9864, V-A:HIS:456:CD2:4065, H-A:HIS:456:NE2:4067, H-B:HIS:456:NE2:9041, V-A:GLY:544:C:4910, H-A:TYR:484:OH:4345, V-A:SER:385:CB:3406, V-A:LEU:373:CD1:3277, V-A:PRO:482:CB:4323, V-A:PRO:482:CG:4324, V-A:GLY:544:CA:4912, V-A:GLU:543:C:4900, V-B:HIS:456:CD2:9039, V-B:GLY:544:CA:9886, V-A:HIS:456:CG:4063, H-B:LYS:547:NZ:9923, H-A:LYS:547:NZ:4949, V-B:LYS:547:CE:9922"]

$$$$
3ad_Grossjean_2025
     RDKit          3D

 29 31  0  0  0  0  0  0  0  0999 V2000
  131.6560  127.2830   74.2060 N   0  0  0  0  0  0  0  0  0  0  0  0
  131.1410  126.2660   74.0090 C   0  0  0  0  0  0  0  0  0  0  0  0
  130.4910  124.9750   73.7620 C   0  0  0  0  0  0  0  0  0  0  0  0
  131.0690  123.7710   74.2330 C   0  0  0  0  0  0  0  0  0  0  0  0
  132.3690  123.7400   75.0590 C   0  0  0  0  0  0  0  0  0  0  0  0
  132.1610  123.4370   76.3420 F   0  0  0  0  0  0  0  0  0  0  0  0
  133.2030  122.8260   74.5600 F   0  0  0  0  0  0  0  0  0  0  0  0
  132.9650  124.9330   75.0230 F   0  0  0  0  0  0  0  0  0  0  0  0
  130.4320  122.5590   73.9300 C   0  0  0  0  0  0  0  0  0  0  0  0
  129.2540  122.5470   73.1750 C   0  0  0  0  0  0  0  0  0  0  0  0
  128.5410  121.2790   72.8100 C   0  0  0  0  0  0  0  0  0  0  0  0
  128.1960  120.3410   73.7950 C   0  0  0  0  0  0  0  0  0  0  0  0
  127.5330  119.1630   73.4630 C   0  0  0  0  0  0  0  0  0  0  0  0
  127.2050  118.9070   72.1350 C   0  0  0  0  0  0  0  0  0  0  0  0
  127.5330  119.8220   71.1400 C   0  0  0  0  0  0  0  0  0  0  0  0
  128.1950  121.0000   71.4770 C   0  0  0  0  0  0  0  0  0  0  0  0
  128.7070  123.7030   72.7210 N   0  0  0  0  0  0  0  0  0  0  0  0
  129.2930  124.8870   73.0190 C   0  0  0  0  0  0  0  0  0  0  0  0
  128.4330  126.2960   72.3530 S   0  0  0  0  0  0  0  0  0  0  0  0
  129.6280  127.6630   72.2600 C   0  0  0  0  0  0  0  0  0  0  0  0
  129.2160  128.8500   73.1330 C   0  0  0  0  0  0  0  0  0  0  0  0
  128.4950  128.6530   74.1110 O   0  0  0  0  0  0  0  0  0  0  0  0
  129.6950  130.0510   72.7410 N   0  0  0  0  0  0  0  0  0  0  0  0
  129.5210  131.3220   73.3180 C   0  0  0  0  0  0  0  0  0  0  0  0
  130.0580  132.3930   72.5980 C   0  0  0  0  0  0  0  0  0  0  0  0
  129.9450  133.6930   73.0820 C   0  0  0  0  0  0  0  0  0  0  0  0
  129.2980  133.9250   74.2920 C   0  0  0  0  0  0  0  0  0  0  0  0
  128.7640  132.8680   75.0230 C   0  0  0  0  0  0  0  0  0  0  0  0
  128.8750  131.5650   74.5430 C   0  0  0  0  0  0  0  0  0  0  0  0
  1  2  3  0
  2  3  1  0
  3  4  2  0
  4  5  1  0
  5  6  1  0
  5  7  1  0
  5  8  1  0
  4  9  1  0
  9 10  2  0
 10 11  1  0
 11 12  2  0
 12 13  1  0
 13 14  2  0
 14 15  1  0
 15 16  2  0
 10 17  1  0
 17 18  2  0
 18 19  1  0
 19 20  1  0
 20 21  1  0
 21 22  2  0
 21 23  1  0
 23 24  1  0
 24 25  2  0
 25 26  1  0
 26 27  2  0
 27 28  1  0
 28 29  2  0
 18  3  1  0
 29 24  1  0
 16 11  1  0
M  END
>  <Binding energies>  (28) 
[-7.33]

>  <Ligand effiencies>  (28) 
[-0.24433333333333335]

>  <Interactions>  (28) 
["V-B:GLU:543:C:9874, V-A:HIS:456:CD2:4065, H-A:HIS:456:NE2:4067, V-A:GLY:544:CA:4912, V-A:GLU:543:C:4900, V-B:HIS:456:CD2:9039, V-A:HIS:456:CA:4060, V-A:HIS:456:C:4058, V-A:LYS:547:CE:4948, V-B:GLY:544:CA:9886, V-A:HIS:456:CG:4063, H-B:LYS:547:NZ:9923, H-A:GLY:544:O:4911, V-A:LYS:471:CD:4216, V-A:HIS:456:CB:4062, H-A:LYS:547:NZ:4949, V-B:LYS:547:CE:9922, V-A:ASP:473:CG:4237, V-B:TYR:484:CB:9312, H-B:GLY:544:N:9887, V-B:VAL:542:CG1:9871, V-A:TYR:484:CG:4339, V-A:TYR:484:CA:4336, V-B:GLU:543:CA:9876, V-B:VAL:542:C:9866, V-A:TYR:484:CB:4338, V-A:TYR:484:CD2:4341, V-A:LYS:471:CE:4217, H-A:GLU:543:O:4901, V-A:ASP:473:CB:4236"]

$$$$
3ai_Grossjean_2025
     RDKit          3D

 28 30  0  0  0  0  0  0  0  0999 V2000
  129.1810  126.3130   62.4340 N   0  0  0  0  0  0  0  0  0  0  0  0
  129.5860  125.2480   62.2300 C   0  0  0  0  0  0  0  0  0  0  0  0
  130.0990  123.8990   61.9730 C   0  0  0  0  0  0  0  0  0  0  0  0
  131.4220  123.5460   62.3360 C   0  0  0  0  0  0  0  0  0  0  0  0
  132.3760  124.5220   63.0520 C   0  0  0  0  0  0  0  0  0  0  0  0
  131.9050  124.9330   64.2320 F   0  0  0  0  0  0  0  0  0  0  0  0
  133.5510  123.9300   63.2720 F   0  0  0  0  0  0  0  0  0  0  0  0
  132.5710  125.6060   62.3020 F   0  0  0  0  0  0  0  0  0  0  0  0
  131.8820  122.2580   62.0250 C   0  0  0  0  0  0  0  0  0  0  0  0
  131.0470  121.3480   61.3680 C   0  0  0  0  0  0  0  0  0  0  0  0
  131.4890  119.9630   61.0010 C   0  0  0  0  0  0  0  0  0  0  0  0
  130.5800  118.8930   61.0180 C   0  0  0  0  0  0  0  0  0  0  0  0
  130.9830  117.6050   60.6750 C   0  0  0  0  0  0  0  0  0  0  0  0
  132.3030  117.3700   60.3070 C   0  0  0  0  0  0  0  0  0  0  0  0
  133.2230  118.4130   60.2790 C   0  0  0  0  0  0  0  0  0  0  0  0
  132.8170  119.7000   60.6230 C   0  0  0  0  0  0  0  0  0  0  0  0
  129.7830  121.6930   61.0140 N   0  0  0  0  0  0  0  0  0  0  0  0
  129.3080  122.9230   61.3250 C   0  0  0  0  0  0  0  0  0  0  0  0
  127.6260  123.1870   60.8030 S   0  0  0  0  0  0  0  0  0  0  0  0
  127.6550  123.6810   59.0470 C   0  0  0  0  0  0  0  0  0  0  0  0
  129.0300  123.5850   58.3690 C   0  0  0  0  0  0  0  0  0  0  0  0
  129.1900  122.8890   57.3640 O   0  0  0  0  0  0  0  0  0  0  0  0
  130.0040  124.3110   58.9630 N   0  0  0  0  0  0  0  0  0  0  0  0
  131.3320  124.4190   58.5700 C   0  0  0  0  0  0  0  0  0  0  0  0
  131.7750  125.3490   57.6300 C   0  0  0  0  0  0  0  0  0  0  0  0
  133.1290  125.1310   57.5210 C   0  0  0  0  0  0  0  0  0  0  0  0
  133.4840  124.1230   58.3530 O   0  0  0  0  0  0  0  0  0  0  0  0
  132.3360  123.6800   59.0120 N   0  0  0  0  0  0  0  0  0  0  0  0
  1  2  3  0
  2  3  1  0
  3  4  2  0
  4  5  1  0
  5  6  1  0
  5  7  1  0
  5  8  1  0
  4  9  1  0
  9 10  2  0
 10 11  1  0
 11 12  2  0
 12 13  1  0
 13 14  2  0
 14 15  1  0
 15 16  2  0
 10 17  1  0
 17 18  2  0
 18 19  1  0
 19 20  1  0
 20 21  1  0
 21 22  2  0
 21 23  1  0
 23 24  1  0
 24 25  1  0
 25 26  2  0
 26 27  1  0
 27 28  1  0
 18  3  1  0
 28 24  2  0
 16 11  1  0
M  END
>  <Binding energies>  (29) 
[-6.78]

>  <Ligand effiencies>  (29) 
[-0.23379310344827586]

>  <Interactions>  (29) 
["V-B:TYR:539:CE1:9847, H-B:ALA:541:N:9863, V-A:GLY:453:C:4039, V-A:LEU:475:CD2:4256, V-B:TYR:539:CD1:9845, V-A:GLY:454:CA:4046, V-A:ASP:366:CG:3210, V-A:ILE:369:CG2:3234, V-B:GLU:543:CD:9880, V-A:ASP:366:CA:3207, V-A:ASP:366:CB:3209, V-A:ARG:545:CZ:4924, V-A:SER:385:CA:3404, V-B:ALA:541:CB:9864, V-B:TYR:539:CZ:9849, V-A:ASP:366:C:3205, H-B:TYR:539:OH:9850, V-A:SER:385:CB:3406, V-A:LEU:373:CD1:3277, V-A:PRO:482:CB:4323, V-A:PRO:482:CG:4324, V-B:TYR:539:CB:9843"]

$$$$
3aj_Grossjean_2025
     RDKit          3D

 28 30  0  0  0  0  0  0  0  0999 V2000
  131.5360  127.4060   61.0000 N   0  0  0  0  0  0  0  0  0  0  0  0
  131.5540  126.2500   61.0450 C   0  0  0  0  0  0  0  0  0  0  0  0
  131.5780  124.7860   61.1050 C   0  0  0  0  0  0  0  0  0  0  0  0
  132.2120  124.1150   62.1790 C   0  0  0  0  0  0  0  0  0  0  0  0
  132.8690  124.8640   63.3550 C   0  0  0  0  0  0  0  0  0  0  0  0
  134.0430  125.4100   63.0300 F   0  0  0  0  0  0  0  0  0  0  0  0
  132.0700  125.8450   63.7740 F   0  0  0  0  0  0  0  0  0  0  0  0
  133.0870  124.0220   64.3660 F   0  0  0  0  0  0  0  0  0  0  0  0
  132.2490  122.7120   62.1650 C   0  0  0  0  0  0  0  0  0  0  0  0
  131.6720  122.0000   61.1080 C   0  0  0  0  0  0  0  0  0  0  0  0
  131.6920  120.5030   61.0390 C   0  0  0  0  0  0  0  0  0  0  0  0
  130.5430  119.7580   61.3430 C   0  0  0  0  0  0  0  0  0  0  0  0
  130.5520  118.3660   61.2760 C   0  0  0  0  0  0  0  0  0  0  0  0
  131.7170  117.7010   60.9050 C   0  0  0  0  0  0  0  0  0  0  0  0
  132.8690  118.4180   60.5970 C   0  0  0  0  0  0  0  0  0  0  0  0
  132.8540  119.8080   60.6630 C   0  0  0  0  0  0  0  0  0  0  0  0
  131.0720  122.6480   60.0770 N   0  0  0  0  0  0  0  0  0  0  0  0
  131.0030  124.0000   60.0790 C   0  0  0  0  0  0  0  0  0  0  0  0
  130.1610  124.6700   58.6620 S   0  0  0  0  0  0  0  0  0  0  0  0
  129.2510  123.3090   57.8560 C   0  0  0  0  0  0  0  0  0  0  0  0
  127.8840  122.9850   58.4770 C   0  0  0  0  0  0  0  0  0  0  0  0
  127.1070  122.2050   57.9220 O   0  0  0  0  0  0  0  0  0  0  0  0
  127.6310  123.6170   59.6450 N   0  0  0  0  0  0  0  0  0  0  0  0
  126.4830  123.5010   60.4180 C   0  0  0  0  0  0  0  0  0  0  0  0
  126.4000  123.3060   61.7170 N   0  0  0  0  0  0  0  0  0  0  0  0
  125.1460  123.2510   62.1200 C   0  0  0  0  0  0  0  0  0  0  0  0
  124.1750  123.4020   61.1340 C   0  0  0  0  0  0  0  0  0  0  0  0
  124.9590  123.6280   59.5990 S   0  0  0  0  0  0  0  0  0  0  0  0
  1  2  3  0
  2  3  1  0
  3  4  2  0
  4  5  1  0
  5  6  1  0
  5  7  1  0
  5  8  1  0
  4  9  1  0
  9 10  2  0
 10 11  1  0
 11 12  2  0
 12 13  1  0
 13 14  2  0
 14 15  1  0
 15 16  2  0
 10 17  1  0
 17 18  2  0
 18 19  1  0
 19 20  1  0
 20 21  1  0
 21 22  2  0
 21 23  1  0
 23 24  1  0
 24 25  2  0
 25 26  1  0
 26 27  2  0
 27 28  1  0
 18  3  1  0
 28 24  1  0
 16 11  1  0
M  END
>  <Binding energies>  (30) 
[-6.99]

>  <Ligand effiencies>  (30) 
[-0.2410344827586207]

>  <Interactions>  (30) 
["V-B:PRO:540:C:9853, V-B:TYR:539:CE1:9847, V-B:TYR:539:C:9839, V-B:PRO:540:N:9856, H-B:ALA:541:N:9863, V-B:PRO:540:CA:9855, V-A:GLY:453:C:4039, V-A:LEU:475:CD2:4256, V-B:TYR:539:CD1:9845, V-A:GLY:454:CA:4046, V-A:ASP:366:CG:3210, V-A:ILE:369:CG2:3234, H-A:ARG:545:NH2:4926, V-A:ARG:545:CZ:4924, V-A:SER:385:CA:3404, V-B:PRO:540:CB:9857, V-B:ALA:541:CB:9864, V-B:TYR:539:CZ:9849, V-A:GLY:453:CA:4041, V-B:ASN:362:CB:8147, V-A:SER:385:CB:3406, V-A:LEU:373:CD1:3277, V-A:PRO:482:CB:4323, V-A:PRO:482:CG:4324, V-B:ASN:362:C:8143, V-B:ALA:541:C:9860, H-B:TYR:539:N:9842"]

$$$$
3ak_Grossjean_2025
     RDKit          3D

 33 34  0  0  0  0  0  0  0  0999 V2000
  131.0850  123.8630   74.5320 C   0  0  0  0  0  0  0  0  0  0  0  0
  130.5060  125.1510   74.3950 O   0  0  0  0  0  0  0  0  0  0  0  0
  131.4010  126.1190   73.8660 C   0  0  0  0  0  0  0  0  0  0  0  0
  130.6550  126.9830   72.8420 C   0  0  0  0  0  0  0  0  0  0  0  0
  129.2590  126.7270   72.9510 O   0  0  0  0  0  0  0  0  0  0  0  0
  128.4870  127.0220   71.7890 C   0  0  0  0  0  0  0  0  0  0  0  0
  129.3360  127.3060   70.5370 C   0  0  0  0  0  0  0  0  0  0  0  0
  128.5220  127.1680   69.3800 O   0  0  0  0  0  0  0  0  0  0  0  0
  129.0010  127.8870   68.2500 C   0  0  0  0  0  0  0  0  0  0  0  0
  130.3540  127.3150   67.7910 C   0  0  0  0  0  0  0  0  0  0  0  0
  130.2300  126.1630   66.8970 N   0  0  0  0  0  0  0  0  0  0  0  0
  131.1900  125.6920   66.0770 C   0  0  0  0  0  0  0  0  0  0  0  0
  132.3130  126.1930   66.0090 O   0  0  0  0  0  0  0  0  0  0  0  0
  130.8740  124.4790   65.1860 C   0  0  0  0  0  0  0  0  0  0  0  0
  131.9460  124.2380   63.7220 S   0  0  0  0  0  0  0  0  0  0  0  0
  131.0360  123.3200   62.4890 C   0  0  0  0  0  0  0  0  0  0  0  0
  131.5230  122.0900   62.1960 N   0  0  0  0  0  0  0  0  0  0  0  0
  130.9040  121.3180   61.2670 C   0  0  0  0  0  0  0  0  0  0  0  0
  131.5100  119.9720   61.0050 C   0  0  0  0  0  0  0  0  0  0  0  0
  132.8550  119.8520   60.6240 C   0  0  0  0  0  0  0  0  0  0  0  0
  133.4250  118.6040   60.3840 C   0  0  0  0  0  0  0  0  0  0  0  0
  132.6530  117.4560   60.5230 C   0  0  0  0  0  0  0  0  0  0  0  0
  131.3190  117.5460   60.9020 C   0  0  0  0  0  0  0  0  0  0  0  0
  130.7530  118.7950   61.1430 C   0  0  0  0  0  0  0  0  0  0  0  0
  129.7510  121.7690   60.6140 C   0  0  0  0  0  0  0  0  0  0  0  0
  129.2250  123.0370   60.9000 C   0  0  0  0  0  0  0  0  0  0  0  0
  127.9560  123.5000   60.1580 C   0  0  0  0  0  0  0  0  0  0  0  0
  128.1870  124.6530   59.5320 F   0  0  0  0  0  0  0  0  0  0  0  0
  127.5930  122.5840   59.2580 F   0  0  0  0  0  0  0  0  0  0  0  0
  126.9180  123.6890   60.9760 F   0  0  0  0  0  0  0  0  0  0  0  0
  129.8820  123.8400   61.8630 C   0  0  0  0  0  0  0  0  0  0  0  0
  129.3770  125.1750   62.2020 C   0  0  0  0  0  0  0  0  0  0  0  0
  128.9800  126.2290   62.4690 N   0  0  0  0  0  0  0  0  0  0  0  0
  1  2  1  0
  2  3  1  0
  3  4  1  0
  4  5  1  0
  5  6  1  0
  6  7  1  0
  7  8  1  0
  8  9  1  0
  9 10  1  0
 10 11  1  0
 11 12  1  0
 12 13  2  0
 12 14  1  0
 14 15  1  0
 15 16  1  0
 16 17  2  0
 17 18  1  0
 18 19  1  0
 19 20  2  0
 20 21  1  0
 21 22  2  0
 22 23  1  0
 23 24  2  0
 18 25  2  0
 25 26  1  0
 26 27  1  0
 27 28  1  0
 27 29  1  0
 27 30  1  0
 26 31  2  0
 31 32  1  0
 32 33  3  0
 31 16  1  0
 24 19  1  0
M  END
>  <Binding energies>  (31) 
[-7.14]

>  <Ligand effiencies>  (31) 
[-0.21]

>  <Interactions>  (31) 
["V-B:TYR:539:CE1:9847, V-B:TYR:539:C:9839, V-B:PRO:540:N:9856, V-B:PRO:540:CA:9855, V-A:LEU:475:CD2:4256, V-B:TYR:539:CD1:9845, V-A:GLU:543:CG:4905, H-B:GLU:543:OE1:9881, V-A:ILE:369:CG2:3234, V-B:HIS:456:CE1:9040, H-B:GLU:543:OE2:9882, V-B:GLU:543:CD:9880, V-B:GLU:543:CB:9878, V-B:GLU:543:CG:9879, V-A:HIS:456:CE1:4066, H-A:GLU:543:OE2:4908, V-A:TYR:484:CZ:4344, V-A:GLU:543:CD:4906, V-B:GLY:544:C:9884, V-A:SER:385:CA:3404, V-A:HIS:456:CD2:4065, H-B:HIS:456:NE2:9041, V-A:GLY:544:C:4910, H-A:TYR:484:OH:4345, H-A:ARG:545:NE:4922, V-A:SER:385:CB:3406, V-A:LEU:373:CD1:3277, V-A:PRO:482:CB:4323, V-A:PRO:482:CG:4324, V-A:LYS:547:CE:4948, V-B:GLY:544:CA:9886, V-A:HIS:456:CG:4063, H-B:LYS:547:NZ:9923, V-A:HIS:456:CB:4062, H-B:GLU:543:O:9875"]

$$$$
3bk_Grossjean_2025
     RDKit          3D

 30 31  0  0  0  0  0  0  0  0999 V2000
  123.7260  129.7410   63.1470 C   0  0  0  0  0  0  0  0  0  0  0  0
  124.1670  130.3700   64.3400 O   0  0  0  0  0  0  0  0  0  0  0  0
  125.0510  131.4590   64.1120 C   0  0  0  0  0  0  0  0  0  0  0  0
  126.5040  130.9750   64.2230 C   0  0  0  0  0  0  0  0  0  0  0  0
  126.5180  129.6240   64.6620 O   0  0  0  0  0  0  0  0  0  0  0  0
  127.7070  129.2560   65.3490 C   0  0  0  0  0  0  0  0  0  0  0  0
  127.4480  129.2860   66.8600 C   0  0  0  0  0  0  0  0  0  0  0  0
  126.8130  128.0770   67.2540 O   0  0  0  0  0  0  0  0  0  0  0  0
  127.4780  127.3940   68.3080 C   0  0  0  0  0  0  0  0  0  0  0  0
  128.9020  127.9480   68.4580 C   0  0  0  0  0  0  0  0  0  0  0  0
  129.3830  127.8860   69.8390 N   0  0  0  0  0  0  0  0  0  0  0  0
  128.6930  127.3980   70.8840 C   0  0  0  0  0  0  0  0  0  0  0  0
  127.5610  126.9210   70.7930 O   0  0  0  0  0  0  0  0  0  0  0  0
  129.3980  127.4300   72.2420 C   0  0  0  0  0  0  0  0  0  0  0  0
  128.2160  127.3680   73.6260 S   0  0  0  0  0  0  0  0  0  0  0  0
  127.8250  129.0340   74.1310 C   0  0  0  0  0  0  0  0  0  0  0  0
  128.7210  129.9880   73.7740 N   0  0  0  0  0  0  0  0  0  0  0  0
  128.5080  131.2860   74.1190 C   0  0  0  0  0  0  0  0  0  0  0  0
  129.5370  132.2780   73.6660 C   0  0  0  0  0  0  0  0  0  0  0  0
  130.5380  132.7250   74.5430 C   0  0  0  0  0  0  0  0  0  0  0  0
  131.4930  133.6500   74.1290 C   0  0  0  0  0  0  0  0  0  0  0  0
  131.4590  134.1420   72.8290 C   0  0  0  0  0  0  0  0  0  0  0  0
  130.4800  133.7130   71.9380 C   0  0  0  0  0  0  0  0  0  0  0  0
  129.5280  132.7860   72.3560 C   0  0  0  0  0  0  0  0  0  0  0  0
  127.3670  131.6580   74.8380 C   0  0  0  0  0  0  0  0  0  0  0  0
  126.4320  130.6880   75.2160 C   0  0  0  0  0  0  0  0  0  0  0  0
  125.2010  131.1370   76.0000 C   0  0  0  0  0  0  0  0  0  0  0  0
  126.6560  129.3410   74.8600 C   0  0  0  0  0  0  0  0  0  0  0  0
  125.6930  128.3030   75.2410 C   0  0  0  0  0  0  0  0  0  0  0  0
  124.9330  127.4830   75.5420 N   0  0  0  0  0  0  0  0  0  0  0  0
  1  2  1  0
  2  3  1  0
  3  4  1  0
  4  5  1  0
  5  6  1  0
  6  7  1  0
  7  8  1  0
  8  9  1  0
  9 10  1  0
 10 11  1  0
 11 12  1  0
 12 13  2  0
 12 14  1  0
 14 15  1  0
 15 16  1  0
 16 17  2  0
 17 18  1  0
 18 19  1  0
 19 20  2  0
 20 21  1  0
 21 22  2  0
 22 23  1  0
 23 24  2  0
 18 25  2  0
 25 26  1  0
 26 27  1  0
 26 28  2  0
 28 29  1  0
 29 30  3  0
 28 16  1  0
 24 19  1  0
M  END
>  <Binding energies>  (32) 
[-7.05]

>  <Ligand effiencies>  (32) 
[-0.22741935483870968]

>  <Interactions>  (32) 
["V-B:GLY:454:CA:9020, V-B:GLY:453:C:9013, V-A:GLU:543:CG:4905, V-B:GLY:453:CA:9015, V-B:HIS:456:CE1:9040, V-B:GLU:543:CD:9880, V-B:GLU:543:CG:9879, V-A:HIS:456:CE1:4066, H-B:GLY:454:N:9021, V-A:GLU:543:CD:4906, V-A:GLU:543:CB:4904, V-B:ARG:545:CZ:9898, V-B:ARG:545:CG:9894, H-B:HIS:456:NE2:9041, H-B:TYR:484:OH:9319, V-A:GLY:544:CA:4912, V-A:GLU:543:C:4900, V-B:HIS:456:CD2:9039, V-B:HIS:456:CG:9037, V-A:LYS:547:CE:4948, H-B:LYS:547:NZ:9923, H-A:LYS:547:NZ:4949, V-B:LYS:471:CD:9190, V-B:HIS:456:C:9032, V-B:LYS:547:CE:9922, V-B:ASP:473:CG:9211, V-B:HIS:456:CB:9036, V-B:VAL:458:CG2:9058, V-B:LYS:547:CD:9921, V-B:TYR:484:CB:9312, V-B:TYR:484:CG:9313, V-B:TYR:484:CD2:9315, V-A:GLU:543:CA:4902, H-A:GLU:543:O:4901, H-B:ARG:545:N:9892, V-B:ASP:473:CB:9210, V-B:LYS:471:CG:9189"]

$$$$
3cb_Grossjean_2025
     RDKit          3D

 30 32  0  0  0  0  0  0  0  0999 V2000
  127.1860  128.1070   73.5900 C   0  0  0  0  0  0  0  0  0  0  0  0
  127.8390  127.4150   72.5360 O   0  0  0  0  0  0  0  0  0  0  0  0
  129.0390  127.8370   72.0600 C   0  0  0  0  0  0  0  0  0  0  0  0
  129.8950  128.3840   72.7610 O   0  0  0  0  0  0  0  0  0  0  0  0
  129.2200  127.5750   70.5920 C   0  0  0  0  0  0  0  0  0  0  0  0
  130.4590  127.7420   69.9540 C   0  0  0  0  0  0  0  0  0  0  0  0
  130.5930  127.4880   68.5920 C   0  0  0  0  0  0  0  0  0  0  0  0
  129.4970  127.0670   67.8380 C   0  0  0  0  0  0  0  0  0  0  0  0
  129.7470  126.8360   66.4710 N   0  0  0  0  0  0  0  0  0  0  0  0
  130.4540  125.8530   65.8720 C   0  0  0  0  0  0  0  0  0  0  0  0
  131.0170  124.9290   66.4620 O   0  0  0  0  0  0  0  0  0  0  0  0
  130.5030  125.9470   64.3390 C   0  0  0  0  0  0  0  0  0  0  0  0
  131.7800  124.9120   63.5450 S   0  0  0  0  0  0  0  0  0  0  0  0
  130.9500  123.6000   62.6710 C   0  0  0  0  0  0  0  0  0  0  0  0
  129.6370  123.8490   62.4450 N   0  0  0  0  0  0  0  0  0  0  0  0
  128.9060  122.9210   61.7880 C   0  0  0  0  0  0  0  0  0  0  0  0
  127.4480  123.2720   61.5600 C   0  0  0  0  0  0  0  0  0  0  0  0
  129.4460  121.7190   61.3400 C   0  0  0  0  0  0  0  0  0  0  0  0
  130.7970  121.4340   61.5770 C   0  0  0  0  0  0  0  0  0  0  0  0
  131.3290  120.1280   61.0810 C   0  0  0  0  0  0  0  0  0  0  0  0
  130.5070  118.9940   61.0650 C   0  0  0  0  0  0  0  0  0  0  0  0
  130.9900  117.7750   60.5940 C   0  0  0  0  0  0  0  0  0  0  0  0
  132.3000  117.6860   60.1340 C   0  0  0  0  0  0  0  0  0  0  0  0
  133.1290  118.8040   60.1360 C   0  0  0  0  0  0  0  0  0  0  0  0
  132.6430  120.0220   60.6050 C   0  0  0  0  0  0  0  0  0  0  0  0
  131.5760  122.3920   62.2770 C   0  0  0  0  0  0  0  0  0  0  0  0
  132.9690  122.1060   62.6340 C   0  0  0  0  0  0  0  0  0  0  0  0
  134.0690  121.8810   62.9150 N   0  0  0  0  0  0  0  0  0  0  0  0
  128.2560  126.8920   68.4700 C   0  0  0  0  0  0  0  0  0  0  0  0
  128.1230  127.1460   69.8320 C   0  0  0  0  0  0  0  0  0  0  0  0
  1  2  1  0
  2  3  1  0
  3  4  2  0
  3  5  1  0
  5  6  2  0
  6  7  1  0
  7  8  2  0
  8  9  1  0
  9 10  1  0
 10 11  2  0
 10 12  1  0
 12 13  1  0
 13 14  1  0
 14 15  2  0
 15 16  1  0
 16 17  1  0
 16 18  2  0
 18 19  1  0
 19 20  1  0
 20 21  2  0
 21 22  1  0
 22 23  2  0
 23 24  1  0
 24 25  2  0
 19 26  2  0
 26 27  1  0
 27 28  3  0
  8 29  1  0
 29 30  2  0
 30  5  1  0
 26 14  1  0
 25 20  1  0
M  END
>  <Binding energies>  (33) 
[-7.77]

>  <Ligand effiencies>  (33) 
[-0.25064516129032255]

>  <Interactions>  (33) 
["V-B:PRO:540:C:9853, V-B:TYR:539:CE1:9847, V-B:PRO:540:CA:9855, V-A:LEU:475:CD2:4256, V-B:TYR:539:CD1:9845, V-A:GLY:454:CA:4046, V-A:GLU:543:CG:4905, H-B:GLU:543:OE1:9881, V-A:ILE:369:CG2:3234, V-B:HIS:456:CE1:9040, H-B:GLU:543:OE2:9882, V-B:GLU:543:CD:9880, V-B:GLU:543:CB:9878, V-B:GLU:543:CG:9879, V-A:HIS:456:CE1:4066, H-A:GLU:543:OE2:4908, V-A:GLU:543:CD:4906, V-B:GLU:543:C:9874, V-B:GLY:544:C:9884, V-A:SER:385:CA:3404, H-A:GLY:454:N:4047, H-A:GLU:543:OE1:4907, V-B:ALA:541:CB:9864, H-A:HIS:456:NE2:4067, V-A:GLY:544:C:4910, H-A:TYR:484:OH:4345, V-A:SER:385:CB:3406, V-A:LEU:373:CD1:3277, V-A:PRO:482:CB:4323, V-A:PRO:482:CG:4324, V-B:TYR:539:CB:9843, V-A:GLU:543:C:4900, V-B:HIS:456:CD2:9039, V-B:HIS:456:CG:9037, H-A:LYS:547:NZ:4949, V-B:LYS:547:CE:9922, V-B:HIS:456:CB:9036"]

$$$$
3ch_Grossjean_2025
     RDKit          3D

 32 34  0  0  0  0  0  0  0  0999 V2000
  124.6110  129.6100   66.3980 C   0  0  0  0  0  0  0  0  0  0  0  0
  124.1960  129.9870   65.0890 O   0  0  0  0  0  0  0  0  0  0  0  0
  125.1130  129.9770   64.0530 C   0  0  0  0  0  0  0  0  0  0  0  0
  126.3190  129.2590   64.0790 C   0  0  0  0  0  0  0  0  0  0  0  0
  127.1980  129.2890   62.9860 C   0  0  0  0  0  0  0  0  0  0  0  0
  128.4230  128.5990   62.9170 N   0  0  0  0  0  0  0  0  0  0  0  0
  128.6640  127.2880   62.6980 C   0  0  0  0  0  0  0  0  0  0  0  0
  127.8070  126.4280   62.4990 O   0  0  0  0  0  0  0  0  0  0  0  0
  130.1380  126.8860   62.6630 C   0  0  0  0  0  0  0  0  0  0  0  0
  130.4510  125.3430   63.5710 S   0  0  0  0  0  0  0  0  0  0  0  0
  130.0700  124.0200   62.4440 C   0  0  0  0  0  0  0  0  0  0  0  0
  128.9550  124.2340   61.7020 N   0  0  0  0  0  0  0  0  0  0  0  0
  128.5740  123.2840   60.8190 C   0  0  0  0  0  0  0  0  0  0  0  0
  127.3170  123.5850   60.0260 C   0  0  0  0  0  0  0  0  0  0  0  0
  129.2800  122.0960   60.6440 C   0  0  0  0  0  0  0  0  0  0  0  0
  130.4390  121.8590   61.3970 C   0  0  0  0  0  0  0  0  0  0  0  0
  131.1580  120.5660   61.1830 C   0  0  0  0  0  0  0  0  0  0  0  0
  132.5040  120.5650   60.7990 C   0  0  0  0  0  0  0  0  0  0  0  0
  133.1780  119.3640   60.5900 C   0  0  0  0  0  0  0  0  0  0  0  0
  132.5040  118.1570   60.7600 C   0  0  0  0  0  0  0  0  0  0  0  0
  131.1640  118.1410   61.1340 C   0  0  0  0  0  0  0  0  0  0  0  0
  130.4930  119.3440   61.3420 C   0  0  0  0  0  0  0  0  0  0  0  0
  130.8620  122.8560   62.3130 C   0  0  0  0  0  0  0  0  0  0  0  0
  132.1170  122.7040   63.0560 C   0  0  0  0  0  0  0  0  0  0  0  0
  133.1060  122.5840   63.6450 N   0  0  0  0  0  0  0  0  0  0  0  0
  126.8690  130.0620   61.8710 C   0  0  0  0  0  0  0  0  0  0  0  0
  125.6700  130.7900   61.8230 C   0  0  0  0  0  0  0  0  0  0  0  0
  125.2820  131.5690   60.7450 O   0  0  0  0  0  0  0  0  0  0  0  0
  124.2870  131.0810   59.8510 C   0  0  0  0  0  0  0  0  0  0  0  0
  124.8020  130.7420   62.9210 C   0  0  0  0  0  0  0  0  0  0  0  0
  123.6170  131.4370   62.8790 O   0  0  0  0  0  0  0  0  0  0  0  0
  123.7740  132.8480   62.8400 C   0  0  0  0  0  0  0  0  0  0  0  0
  1  2  1  0
  2  3  1  0
  3  4  2  0
  4  5  1  0
  5  6  1  0
  6  7  1  0
  7  8  2  0
  7  9  1  0
  9 10  1  0
 10 11  1  0
 11 12  2  0
 12 13  1  0
 13 14  1  0
 13 15  2  0
 15 16  1  0
 16 17  1  0
 17 18  2  0
 18 19  1  0
 19 20  2  0
 20 21  1  0
 21 22  2  0
 16 23  2  0
 23 24  1  0
 24 25  3  0
  5 26  2  0
 26 27  1  0
 27 28  1  0
 28 29  1  0
 27 30  2  0
 30 31  1  0
 31 32  1  0
 30  3  1  0
 23 11  1  0
 22 17  1  0
M  END
>  <Binding energies>  (34) 
[-7.62]

>  <Ligand effiencies>  (34) 
[-0.23090909090909092]

>  <Interactions>  (34) 
["V-B:LEU:475:CD2:9230, V-B:GLY:454:CA:9020, V-B:ILE:369:CG2:8208, V-A:TYR:539:CE1:4873, V-B:ILE:369:CD1:8210, V-B:ASP:366:CG:8184, V-B:TYR:539:CE1:9847, V-B:TYR:539:C:9839, V-B:PRO:540:CA:9855, V-A:LEU:475:CD2:4256, V-B:TYR:539:CD1:9845, H-B:ARG:545:NH2:9900, V-A:ILE:369:CG2:3234, V-B:HIS:456:CE1:9040, V-B:GLU:543:CD:9880, H-A:GLU:543:OE2:4908, H-B:GLY:454:N:9021, V-A:GLU:543:CD:4906, V-B:ARG:545:CZ:9898, V-B:ARG:545:CG:9894, V-A:SER:385:CA:3404, H-A:GLY:454:N:4047, H-A:GLU:543:OE1:4907, V-B:ALA:541:CB:9864, H-B:ARG:545:NE:9896, V-B:ARG:545:CD:9895, H-A:TYR:484:OH:4345, V-A:SER:385:CB:3406, V-A:LEU:373:CD1:3277, V-A:PRO:482:CB:4323, V-A:PRO:482:CG:4324, H-B:TYR:484:OH:9319"]

$$$$
3ci_Grossjean_2025
     RDKit          3D

 25 27  0  0  0  0  0  0  0  0999 V2000
  134.6070  124.3680   59.2070 C   0  0  0  0  0  0  0  0  0  0  0  0
  133.7870  123.7710   60.3350 C   0  0  0  0  0  0  0  0  0  0  0  0
  133.2510  122.4900   60.2500 C   0  0  0  0  0  0  0  0  0  0  0  0
  132.5130  121.9750   61.3260 C   0  0  0  0  0  0  0  0  0  0  0  0
  131.9700  120.5890   61.1960 C   0  0  0  0  0  0  0  0  0  0  0  0
  130.6350  120.3100   61.5160 C   0  0  0  0  0  0  0  0  0  0  0  0
  130.1360  119.0150   61.4020 C   0  0  0  0  0  0  0  0  0  0  0  0
  130.9740  117.9900   60.9730 C   0  0  0  0  0  0  0  0  0  0  0  0
  132.3060  118.2490   60.6600 C   0  0  0  0  0  0  0  0  0  0  0  0
  132.8020  119.5450   60.7750 C   0  0  0  0  0  0  0  0  0  0  0  0
  132.3290  122.7930   62.4690 C   0  0  0  0  0  0  0  0  0  0  0  0
  131.5300  122.3250   63.6070 C   0  0  0  0  0  0  0  0  0  0  0  0
  130.9000  121.9540   64.5050 N   0  0  0  0  0  0  0  0  0  0  0  0
  132.9130  124.0830   62.4750 C   0  0  0  0  0  0  0  0  0  0  0  0
  132.7620  125.1890   63.8720 S   0  0  0  0  0  0  0  0  0  0  0  0
  131.0530  125.8170   63.9690 C   0  0  0  0  0  0  0  0  0  0  0  0
  130.1890  125.4160   62.7680 C   0  0  0  0  0  0  0  0  0  0  0  0
  130.0810  126.1940   61.8170 O   0  0  0  0  0  0  0  0  0  0  0  0
  129.5840  124.2110   62.8570 N   0  0  0  0  0  0  0  0  0  0  0  0
  128.7770  123.6030   61.9050 C   0  0  0  0  0  0  0  0  0  0  0  0
  129.2260  123.2740   60.6260 C   0  0  0  0  0  0  0  0  0  0  0  0
  128.1400  122.7020   60.0020 C   0  0  0  0  0  0  0  0  0  0  0  0
  127.0930  122.6870   60.8620 O   0  0  0  0  0  0  0  0  0  0  0  0
  127.5090  123.2620   62.0640 N   0  0  0  0  0  0  0  0  0  0  0  0
  133.6220  124.5600   61.4200 N   0  0  0  0  0  0  0  0  0  0  0  0
  1  2  1  0
  2  3  2  0
  3  4  1  0
  4  5  1  0
  5  6  2  0
  6  7  1  0
  7  8  2  0
  8  9  1  0
  9 10  2  0
  4 11  2  0
 11 12  1  0
 12 13  3  0
 11 14  1  0
 14 15  1  0
 15 16  1  0
 16 17  1  0
 17 18  2  0
 17 19  1  0
 19 20  1  0
 20 21  1  0
 21 22  2  0
 22 23  1  0
 23 24  1  0
 14 25  2  0
 25  2  1  0
 10  5  1  0
 24 20  2  0
M  END
>  <Binding energies>  (35) 
[-7.32]

>  <Ligand effiencies>  (35) 
[-0.28153846153846157]

>  <Interactions>  (35) 
["V-B:TYR:539:CE1:9847, V-B:TYR:539:C:9839, V-B:PRO:540:N:9856, H-B:ALA:541:N:9863, V-A:ILE:369:CD1:3236, V-B:PRO:540:CA:9855, V-A:LEU:475:CD2:4256, V-B:TYR:539:CD1:9845, H-B:GLU:543:OE1:9881, V-A:ASP:366:CG:3210, V-A:ILE:369:CG2:3234, V-B:GLU:543:CD:9880, H-A:ARG:545:NH2:4926, V-A:ASP:366:CA:3207, V-A:ASP:366:CB:3209, V-A:ILE:369:CB:3233, V-A:SER:385:CA:3404, V-B:ALA:541:CB:9864, V-A:ILE:369:CG1:3235, V-A:ASP:366:C:3205, H-A:TYR:484:OH:4345, H-A:ARG:545:NE:4922, V-A:SER:385:CB:3406, V-A:LEU:373:CD1:3277, V-A:PRO:482:CB:4323, V-A:PRO:482:CG:4324"]

$$$$
3ck_Grossjean_2025
     RDKit          3D

 30 31  0  0  0  0  0  0  0  0999 V2000
  127.1520  130.4960   75.2080 C   0  0  0  0  0  0  0  0  0  0  0  0
  127.9110  129.3510   74.8520 O   0  0  0  0  0  0  0  0  0  0  0  0
  127.2150  128.4540   73.9980 C   0  0  0  0  0  0  0  0  0  0  0  0
  128.1670  127.9340   72.9140 C   0  0  0  0  0  0  0  0  0  0  0  0
  129.4820  128.4090   73.1750 O   0  0  0  0  0  0  0  0  0  0  0  0
  130.4170  128.1120   72.1470 C   0  0  0  0  0  0  0  0  0  0  0  0
  129.7550  127.1870   71.1180 C   0  0  0  0  0  0  0  0  0  0  0  0
  129.8920  127.7750   69.8330 O   0  0  0  0  0  0  0  0  0  0  0  0
  129.3600  127.0050   68.7660 C   0  0  0  0  0  0  0  0  0  0  0  0
  127.9630  127.5360   68.3940 C   0  0  0  0  0  0  0  0  0  0  0  0
  127.9820  128.5760   67.3600 N   0  0  0  0  0  0  0  0  0  0  0  0
  126.9290  128.9650   66.6190 C   0  0  0  0  0  0  0  0  0  0  0  0
  125.7980  128.4930   66.7520 O   0  0  0  0  0  0  0  0  0  0  0  0
  127.2200  130.0580   65.5790 C   0  0  0  0  0  0  0  0  0  0  0  0
  127.2750  129.4930   63.8430 S   0  0  0  0  0  0  0  0  0  0  0  0
  127.6860  130.8770   62.7900 C   0  0  0  0  0  0  0  0  0  0  0  0
  128.8620  130.7740   62.1210 N   0  0  0  0  0  0  0  0  0  0  0  0
  129.2390  131.7870   61.3090 C   0  0  0  0  0  0  0  0  0  0  0  0
  130.5650  131.6020   60.5970 C   0  0  0  0  0  0  0  0  0  0  0  0
  128.4680  132.9330   61.1320 C   0  0  0  0  0  0  0  0  0  0  0  0
  127.2530  133.0640   61.8180 C   0  0  0  0  0  0  0  0  0  0  0  0
  126.4720  134.3200   61.6160 C   0  0  0  0  0  0  0  0  0  0  0  0
  127.1060  135.5650   61.7020 C   0  0  0  0  0  0  0  0  0  0  0  0
  126.3810  136.7420   61.5250 C   0  0  0  0  0  0  0  0  0  0  0  0
  125.0160  136.6770   61.2660 C   0  0  0  0  0  0  0  0  0  0  0  0
  124.3680  135.4460   61.1850 C   0  0  0  0  0  0  0  0  0  0  0  0
  125.0950  134.2720   61.3630 C   0  0  0  0  0  0  0  0  0  0  0  0
  126.8400  132.0020   62.6640 C   0  0  0  0  0  0  0  0  0  0  0  0
  125.5580  132.0660   63.3750 C   0  0  0  0  0  0  0  0  0  0  0  0
  124.5460  132.1160   63.9350 N   0  0  0  0  0  0  0  0  0  0  0  0
  1  2  1  0
  2  3  1  0
  3  4  1  0
  4  5  1  0
  5  6  1  0
  6  7  1  0
  7  8  1  0
  8  9  1  0
  9 10  1  0
 10 11  1  0
 11 12  1  0
 12 13  2  0
 12 14  1  0
 14 15  1  0
 15 16  1  0
 16 17  2  0
 17 18  1  0
 18 19  1  0
 18 20  2  0
 20 21  1  0
 21 22  1  0
 22 23  2  0
 23 24  1  0
 24 25  2  0
 25 26  1  0
 26 27  2  0
 21 28  2  0
 28 29  1  0
 29 30  3  0
 28 16  1  0
 27 22  1  0
M  END
>  <Binding energies>  (36) 
[-7.42]

>  <Ligand effiencies>  (36) 
[-0.23935483870967741]

>  <Interactions>  (36) 
["V-B:LEU:475:CD2:9230, V-B:ILE:369:CG2:8208, V-A:TYR:539:CE1:4873, V-A:TYR:539:CD1:4871, V-A:PRO:540:CA:4881, V-A:ALA:541:CB:4890, V-A:GLU:543:CG:4905, V-B:HIS:456:CE1:9040, H-B:GLU:543:OE2:9882, V-B:GLU:543:CD:9880, V-B:GLU:543:CG:9879, V-A:HIS:456:CE1:4066, H-A:GLU:543:OE2:4908, H-B:GLY:454:N:9021, V-A:GLU:543:CD:4906, V-A:GLU:543:CB:4904, H-A:GLU:543:OE1:4907, V-A:HIS:456:CD2:4065, H-A:HIS:456:NE2:4067, H-B:ARG:545:NE:9896, V-A:GLY:544:C:4910, V-B:PRO:482:CG:9298, V-B:PRO:482:CB:9297, V-B:SER:385:CA:8378, V-B:SER:385:CB:8380, V-B:LEU:373:CD1:8251, H-B:TYR:484:OH:9319, V-A:GLY:544:CA:4912, V-B:HIS:456:CD2:9039, V-B:HIS:456:CG:9037, V-A:LYS:547:CE:4948, H-A:LYS:547:NZ:4949, V-B:LYS:547:CE:9922, V-B:HIS:456:CB:9036, H-A:GLU:543:O:4901"]

$$$$
4aa_Grossjean_2025
     RDKit          3D

 26 28  0  0  0  0  0  0  0  0999 V2000
  129.8270  125.9810   72.9970 C   0  0  0  0  0  0  0  0  0  0  0  0
  130.5410  127.3350   73.0440 C   0  0  0  0  0  0  0  0  0  0  0  0
  129.6580  128.3500   72.5830 O   0  0  0  0  0  0  0  0  0  0  0  0
  128.5580  128.0420   71.8490 C   0  0  0  0  0  0  0  0  0  0  0  0
  127.4070  128.0850   72.2970 O   0  0  0  0  0  0  0  0  0  0  0  0
  128.8790  127.6400   70.4390 C   0  0  0  0  0  0  0  0  0  0  0  0
  130.1970  127.7560   69.9780 C   0  0  0  0  0  0  0  0  0  0  0  0
  130.5250  127.3960   68.6740 C   0  0  0  0  0  0  0  0  0  0  0  0
  129.5470  126.9040   67.8080 C   0  0  0  0  0  0  0  0  0  0  0  0
  129.9870  126.5780   66.5100 N   0  0  0  0  0  0  0  0  0  0  0  0
  130.5160  125.4260   66.0310 C   0  0  0  0  0  0  0  0  0  0  0  0
  130.7470  124.4320   66.7190 O   0  0  0  0  0  0  0  0  0  0  0  0
  130.8340  125.4330   64.6020 C   0  0  0  0  0  0  0  0  0  0  0  0
  132.1100  124.3890   63.9690 S   0  0  0  0  0  0  0  0  0  0  0  0
  131.8770  125.0060   62.3500 C   0  0  0  0  0  0  0  0  0  0  0  0
  132.6040  124.5750   61.3180 N   0  0  0  0  0  0  0  0  0  0  0  0
  132.3260  125.1380   60.1170 C   0  0  0  0  0  0  0  0  0  0  0  0
  133.1680  124.6370   58.9580 C   0  0  0  0  0  0  0  0  0  0  0  0
  131.3460  126.1100   59.9250 C   0  0  0  0  0  0  0  0  0  0  0  0
  130.5840  126.5590   61.0090 C   0  0  0  0  0  0  0  0  0  0  0  0
  129.5260  127.6210   60.7490 C   0  0  0  0  0  0  0  0  0  0  0  0
  130.8490  125.9950   62.2860 C   0  0  0  0  0  0  0  0  0  0  0  0
  130.2740  126.2220   63.5850 C   0  0  0  0  0  0  0  0  0  0  0  0
  129.2670  127.1310   63.7900 N   0  0  0  0  0  0  0  0  0  0  0  0
  128.2240  126.7890   68.2590 C   0  0  0  0  0  0  0  0  0  0  0  0
  127.8960  127.1540   69.5630 C   0  0  0  0  0  0  0  0  0  0  0  0
  1  2  1  0
  2  3  1  0
  3  4  1  0
  4  5  2  0
  4  6  1  0
  6  7  2  0
  7  8  1  0
  8  9  2  0
  9 10  1  0
 10 11  1  0
 11 12  2  0
 11 13  1  0
 13 14  1  0
 14 15  1  0
 15 16  2  0
 16 17  1  0
 17 18  1  0
 17 19  2  0
 19 20  1  0
 20 21  1  0
 20 22  2  0
 22 23  1  0
 23 24  1  0
  9 25  1  0
 25 26  2  0
 26  6  1  0
 23 13  2  0
 22 15  1  0
M  END
>  <Binding energies>  (37) 
[-6.29]

>  <Ligand effiencies>  (37) 
[-0.21689655172413794]

>  <Interactions>  (37) 
["V-B:TYR:539:CE1:9847, V-A:GLU:543:CG:4905, H-B:GLU:543:OE1:9881, V-A:ASP:366:CG:3210, V-B:HIS:456:CE1:9040, H-B:GLU:543:OE2:9882, V-B:GLU:543:CD:9880, V-B:GLU:543:CB:9878, V-B:GLU:543:CG:9879, V-A:HIS:456:CE1:4066, H-A:GLU:543:OE2:4908, V-A:ASP:366:CA:3207, V-A:ASP:366:CB:3209, V-A:GLU:543:CD:4906, V-B:GLU:543:C:9874, V-B:GLY:544:C:9884, H-A:GLU:543:OE1:4907, V-A:HIS:456:CD2:4065, H-A:HIS:456:NE2:4067, H-B:HIS:456:NE2:9041, V-A:GLY:544:C:4910, H-A:TYR:484:OH:4345, V-A:GLU:543:C:4900, V-B:HIS:456:CD2:9039, V-B:HIS:456:CG:9037, V-A:LYS:547:CE:4948, H-A:LYS:547:NZ:4949, V-B:LYS:547:CE:9922"]

$$$$
4ab_Grossjean_2025
     RDKit          3D

 25 27  0  0  0  0  0  0  0  0999 V2000
  130.5910  127.2150   73.1400 C   0  0  0  0  0  0  0  0  0  0  0  0
  129.7340  128.2550   72.6910 O   0  0  0  0  0  0  0  0  0  0  0  0
  128.6270  127.9790   71.9550 C   0  0  0  0  0  0  0  0  0  0  0  0
  127.4780  128.0460   72.4020 O   0  0  0  0  0  0  0  0  0  0  0  0
  128.9400  127.5770   70.5420 C   0  0  0  0  0  0  0  0  0  0  0  0
  130.2440  127.7470   70.0560 C   0  0  0  0  0  0  0  0  0  0  0  0
  130.5650  127.3860   68.7510 C   0  0  0  0  0  0  0  0  0  0  0  0
  129.5960  126.8400   67.9090 C   0  0  0  0  0  0  0  0  0  0  0  0
  130.0290  126.5180   66.6080 N   0  0  0  0  0  0  0  0  0  0  0  0
  130.4410  125.3340   66.0930 C   0  0  0  0  0  0  0  0  0  0  0  0
  130.5450  124.2930   66.7440 O   0  0  0  0  0  0  0  0  0  0  0  0
  130.7950  125.3610   64.6730 C   0  0  0  0  0  0  0  0  0  0  0  0
  132.0520  124.2900   64.0480 S   0  0  0  0  0  0  0  0  0  0  0  0
  131.8780  124.9480   62.4370 C   0  0  0  0  0  0  0  0  0  0  0  0
  132.6170  124.5170   61.4140 N   0  0  0  0  0  0  0  0  0  0  0  0
  132.3860  125.1120   60.2190 C   0  0  0  0  0  0  0  0  0  0  0  0
  133.2410  124.6110   59.0700 C   0  0  0  0  0  0  0  0  0  0  0  0
  131.4400  126.1160   60.0230 C   0  0  0  0  0  0  0  0  0  0  0  0
  130.6660  126.5670   61.0990 C   0  0  0  0  0  0  0  0  0  0  0  0
  129.6480  127.6660   60.8360 C   0  0  0  0  0  0  0  0  0  0  0  0
  130.8830  125.9690   62.3700 C   0  0  0  0  0  0  0  0  0  0  0  0
  130.2860  126.1880   63.6600 C   0  0  0  0  0  0  0  0  0  0  0  0
  129.3040  127.1260   63.8620 N   0  0  0  0  0  0  0  0  0  0  0  0
  128.2870  126.6700   68.3850 C   0  0  0  0  0  0  0  0  0  0  0  0
  127.9670  127.0350   69.6900 C   0  0  0  0  0  0  0  0  0  0  0  0
  1  2  1  0
  2  3  1  0
  3  4  2  0
  3  5  1  0
  5  6  2  0
  6  7  1  0
  7  8  2  0
  8  9  1  0
  9 10  1  0
 10 11  2  0
 10 12  1  0
 12 13  1  0
 13 14  1  0
 14 15  2  0
 15 16  1  0
 16 17  1  0
 16 18  2  0
 18 19  1  0
 19 20  1  0
 19 21  2  0
 21 22  1  0
 22 23  1  0
  8 24  1  0
 24 25  2  0
 25  5  1  0
 22 12  2  0
 21 14  1  0
M  END
>  <Binding energies>  (38) 
[-6.22]

>  <Ligand effiencies>  (38) 
[-0.22214285714285714]

>  <Interactions>  (38) 
["V-B:TYR:539:CE1:9847, V-A:GLU:543:CG:4905, H-B:GLU:543:OE1:9881, V-A:ASP:366:CG:3210, V-B:HIS:456:CE1:9040, H-B:GLU:543:OE2:9882, V-B:GLU:543:CD:9880, V-B:GLU:543:CB:9878, V-B:GLU:543:CG:9879, V-A:HIS:456:CE1:4066, H-A:GLU:543:OE2:4908, V-A:ASP:366:CA:3207, V-A:ASP:366:CB:3209, V-A:GLU:543:CD:4906, V-B:GLU:543:C:9874, V-B:GLY:544:C:9884, H-A:GLU:543:OE1:4907, V-A:HIS:456:CD2:4065, H-A:HIS:456:NE2:4067, H-B:HIS:456:NE2:9041, V-A:GLY:544:C:4910, H-A:TYR:484:OH:4345, V-A:GLU:543:C:4900, V-B:HIS:456:CD2:9039, V-A:LYS:547:CE:4948, H-A:LYS:547:NZ:4949"]

$$$$
4ac_Grossjean_2025
     RDKit          3D

 23 25  0  0  0  0  0  0  0  0999 V2000
  129.4340  128.6630   72.6040 C   0  0  0  0  0  0  0  0  0  0  0  0
  128.4500  127.9780   71.8350 O   0  0  0  0  0  0  0  0  0  0  0  0
  128.7540  127.5900   70.5450 C   0  0  0  0  0  0  0  0  0  0  0  0
  130.0800  127.7480   70.1430 C   0  0  0  0  0  0  0  0  0  0  0  0
  130.4800  127.3830   68.8600 C   0  0  0  0  0  0  0  0  0  0  0  0
  129.5570  126.8460   67.9630 C   0  0  0  0  0  0  0  0  0  0  0  0
  130.0490  126.5190   66.6850 N   0  0  0  0  0  0  0  0  0  0  0  0
  130.4800  125.3250   66.2120 C   0  0  0  0  0  0  0  0  0  0  0  0
  130.5380  124.2960   66.8880 O   0  0  0  0  0  0  0  0  0  0  0  0
  130.8990  125.3200   64.8080 C   0  0  0  0  0  0  0  0  0  0  0  0
  132.1920  124.2500   64.2670 S   0  0  0  0  0  0  0  0  0  0  0  0
  132.0580  124.8400   62.6250 C   0  0  0  0  0  0  0  0  0  0  0  0
  132.8360  124.3800   61.6440 N   0  0  0  0  0  0  0  0  0  0  0  0
  132.6300  124.9210   60.4190 C   0  0  0  0  0  0  0  0  0  0  0  0
  133.5240  124.3840   59.3170 C   0  0  0  0  0  0  0  0  0  0  0  0
  131.6760  125.9030   60.1550 C   0  0  0  0  0  0  0  0  0  0  0  0
  130.8620  126.3830   61.1870 C   0  0  0  0  0  0  0  0  0  0  0  0
  129.8360  127.4530   60.8490 C   0  0  0  0  0  0  0  0  0  0  0  0
  131.0480  125.8370   62.4860 C   0  0  0  0  0  0  0  0  0  0  0  0
  130.4000  126.0910   63.7450 C   0  0  0  0  0  0  0  0  0  0  0  0
  129.3900  127.0090   63.8760 N   0  0  0  0  0  0  0  0  0  0  0  0
  128.2180  126.6950   68.3540 C   0  0  0  0  0  0  0  0  0  0  0  0
  127.8220  127.0610   69.6380 C   0  0  0  0  0  0  0  0  0  0  0  0
  1  2  1  0
  2  3  1  0
  3  4  2  0
  4  5  1  0
  5  6  2  0
  6  7  1  0
  7  8  1  0
  8  9  2  0
  8 10  1  0
 10 11  1  0
 11 12  1  0
 12 13  2  0
 13 14  1  0
 14 15  1  0
 14 16  2  0
 16 17  1  0
 17 18  1  0
 17 19  2  0
 19 20  1  0
 20 21  1  0
  6 22  1  0
 22 23  2  0
 23  3  1  0
 20 10  2  0
 19 12  1  0
M  END
>  <Binding energies>  (39) 
[-5.85]

>  <Ligand effiencies>  (39) 
[-0.22499999999999998]

>  <Interactions>  (39) 
["V-A:GLU:543:CG:4905, H-B:GLU:543:OE1:9881, V-A:ASP:366:CG:3210, V-A:ILE:369:CG2:3234, V-B:HIS:456:CE1:9040, H-B:GLU:543:OE2:9882, V-B:GLU:543:CD:9880, V-B:GLU:543:CB:9878, V-B:GLU:543:CG:9879, V-A:HIS:456:CE1:4066, H-A:GLU:543:OE2:4908, V-A:ASP:366:CA:3207, V-A:ASP:366:CB:3209, V-A:GLU:543:CD:4906, V-B:GLU:543:C:9874, V-B:GLY:544:C:9884, H-A:GLU:543:OE1:4907, H-A:HIS:456:NE2:4067, H-B:HIS:456:NE2:9041, V-A:GLY:544:C:4910, H-A:TYR:484:OH:4345, V-A:GLY:544:CA:4912, V-A:GLU:543:C:4900, V-B:HIS:456:CD2:9039, V-A:LYS:547:CE:4948"]

$$$$
4ad_Grossjean_2025
     RDKit          3D

 21 23  0  0  0  0  0  0  0  0999 V2000
  125.9910  117.2560   71.2880 C   0  0  0  0  0  0  0  0  0  0  0  0
  126.7240  118.1660   72.2560 C   0  0  0  0  0  0  0  0  0  0  0  0
  126.8340  117.8390   73.6060 C   0  0  0  0  0  0  0  0  0  0  0  0
  127.5130  118.6960   74.4810 C   0  0  0  0  0  0  0  0  0  0  0  0
  127.6050  118.2970   75.9460 C   0  0  0  0  0  0  0  0  0  0  0  0
  128.0730  119.8860   73.9420 C   0  0  0  0  0  0  0  0  0  0  0  0
  128.8170  120.9630   74.5370 C   0  0  0  0  0  0  0  0  0  0  0  0
  129.1300  120.9850   75.8730 N   0  0  0  0  0  0  0  0  0  0  0  0
  129.1860  121.9710   73.6310 C   0  0  0  0  0  0  0  0  0  0  0  0
  129.9260  123.2060   73.8940 C   0  0  0  0  0  0  0  0  0  0  0  0
  129.4020  124.3050   73.7020 O   0  0  0  0  0  0  0  0  0  0  0  0
  131.1880  123.0380   74.3610 N   0  0  0  0  0  0  0  0  0  0  0  0
  132.1650  124.0050   74.6680 C   0  0  0  0  0  0  0  0  0  0  0  0
  131.8840  125.3110   74.2530 C   0  0  0  0  0  0  0  0  0  0  0  0
  132.7830  126.3400   74.5190 C   0  0  0  0  0  0  0  0  0  0  0  0
  133.9620  126.0660   75.2080 C   0  0  0  0  0  0  0  0  0  0  0  0
  134.2470  124.7730   75.6380 C   0  0  0  0  0  0  0  0  0  0  0  0
  133.3500  123.7410   75.3730 C   0  0  0  0  0  0  0  0  0  0  0  0
  128.6170  121.6010   72.0030 S   0  0  0  0  0  0  0  0  0  0  0  0
  127.8900  120.1060   72.5430 C   0  0  0  0  0  0  0  0  0  0  0  0
  127.2440  119.2910   71.7080 N   0  0  0  0  0  0  0  0  0  0  0  0
  1  2  1  0
  2  3  2  0
  3  4  1  0
  4  5  1  0
  4  6  2  0
  6  7  1  0
  7  8  1  0
  7  9  2  0
  9 10  1  0
 10 11  2  0
 10 12  1  0
 12 13  1  0
 13 14  2  0
 14 15  1  0
 15 16  2  0
 16 17  1  0
 17 18  2  0
  9 19  1  0
 19 20  1  0
 20 21  2  0
 21  2  1  0
 20  6  1  0
 18 13  1  0
M  END
>  <Binding energies>  (40) 
[-6.2]

>  <Ligand effiencies>  (40) 
[-0.25833333333333336]

>  <Interactions>  (40) 
["V-B:GLU:543:C:9874, V-A:HIS:456:CD2:4065, V-A:LYS:547:CD:4947, V-A:VAL:458:CG2:4084, V-A:HIS:456:C:4058, V-A:LYS:547:CE:4948, V-B:GLY:544:CA:9886, V-A:HIS:456:CG:4063, H-B:LYS:547:NZ:9923, V-A:LYS:471:CD:4216, V-A:HIS:456:CB:4062, V-B:LYS:547:CE:9922, V-A:ASP:473:CG:4237, V-B:VAL:542:CG1:9871, V-A:TYR:484:CG:4339, V-B:GLU:543:CA:9876, V-A:TYR:484:CB:4338, V-A:TYR:484:CD2:4341, H-A:ASP:473:OD2:4239, V-A:SER:483:CA:4328, V-A:SER:483:CB:4330, H-A:TYR:484:N:4337"]

$$$$
4ae_Grossjean_2025
     RDKit          3D

 22 24  0  0  0  0  0  0  0  0999 V2000
  123.3900  130.9840   62.4940 C   0  0  0  0  0  0  0  0  0  0  0  0
  124.7150  130.7260   63.1830 C   0  0  0  0  0  0  0  0  0  0  0  0
  125.2640  131.6450   64.0810 C   0  0  0  0  0  0  0  0  0  0  0  0
  126.4920  131.3440   64.6710 C   0  0  0  0  0  0  0  0  0  0  0  0
  127.1340  130.1450   64.3540 C   0  0  0  0  0  0  0  0  0  0  0  0
  126.5250  129.2650   63.4530 C   0  0  0  0  0  0  0  0  0  0  0  0
  127.2290  128.0850   63.1580 N   0  0  0  0  0  0  0  0  0  0  0  0
  127.5160  127.5490   61.9450 C   0  0  0  0  0  0  0  0  0  0  0  0
  127.1710  128.0520   60.8740 O   0  0  0  0  0  0  0  0  0  0  0  0
  128.2780  126.2990   61.9750 C   0  0  0  0  0  0  0  0  0  0  0  0
  127.7300  124.8990   61.0530 S   0  0  0  0  0  0  0  0  0  0  0  0
  129.0640  123.9310   61.6370 C   0  0  0  0  0  0  0  0  0  0  0  0
  129.2240  122.6590   61.2740 N   0  0  0  0  0  0  0  0  0  0  0  0
  130.2950  122.0190   61.8020 C   0  0  0  0  0  0  0  0  0  0  0  0
  130.4550  120.5700   61.3810 C   0  0  0  0  0  0  0  0  0  0  0  0
  131.2030  122.6180   62.6740 C   0  0  0  0  0  0  0  0  0  0  0  0
  131.0320  123.9550   63.0520 C   0  0  0  0  0  0  0  0  0  0  0  0
  132.0470  124.5630   64.0090 C   0  0  0  0  0  0  0  0  0  0  0  0
  129.9180  124.6580   62.5200 C   0  0  0  0  0  0  0  0  0  0  0  0
  129.4490  126.0070   62.6950 C   0  0  0  0  0  0  0  0  0  0  0  0
  130.0980  126.9110   63.4960 N   0  0  0  0  0  0  0  0  0  0  0  0
  125.3270  129.5570   62.8660 N   0  0  0  0  0  0  0  0  0  0  0  0
  1  2  1  0
  2  3  2  0
  3  4  1  0
  4  5  2  0
  5  6  1  0
  6  7  1  0
  7  8  1  0
  8  9  2  0
  8 10  1  0
 10 11  1  0
 11 12  1  0
 12 13  2  0
 13 14  1  0
 14 15  1  0
 14 16  2  0
 16 17  1  0
 17 18  1  0
 17 19  2  0
 19 20  1  0
 20 21  1  0
  6 22  2  0
 22  2  1  0
 20 10  2  0
 19 12  1  0
M  END
>  <Binding energies>  (41) 
[-5.98]

>  <Ligand effiencies>  (41) 
[-0.23920000000000002]

>  <Interactions>  (41) 
["V-B:GLY:454:CA:9020, V-B:GLY:453:C:9013, V-B:ILE:369:CD1:8210, V-B:TYR:539:CE1:9847, V-A:LEU:475:CD2:4256, V-B:TYR:539:CD1:9845, H-B:GLU:543:OE1:9881, H-B:ARG:545:NH2:9900, V-B:GLY:453:CA:9015, H-B:GLU:543:OE2:9882, V-B:GLU:543:CD:9880, H-A:GLU:543:OE2:4908, V-A:GLU:543:CD:4906, V-B:ARG:545:CZ:9898, H-A:GLU:543:OE1:4907, V-B:ALA:541:CB:9864, V-B:TYR:484:CZ:9318"]

$$$$
4af_Grossjean_2025
     RDKit          3D

 21 23  0  0  0  0  0  0  0  0999 V2000
  125.9490  117.2730   71.5040 C   0  0  0  0  0  0  0  0  0  0  0  0
  126.8000  118.1420   72.4120 C   0  0  0  0  0  0  0  0  0  0  0  0
  127.1630  117.7080   73.6860 C   0  0  0  0  0  0  0  0  0  0  0  0
  127.9470  118.5270   74.5070 C   0  0  0  0  0  0  0  0  0  0  0  0
  128.3160  118.0120   75.8890 C   0  0  0  0  0  0  0  0  0  0  0  0
  128.3460  119.7920   73.9950 C   0  0  0  0  0  0  0  0  0  0  0  0
  129.1320  120.8600   74.5540 C   0  0  0  0  0  0  0  0  0  0  0  0
  129.6700  120.7900   75.8140 N   0  0  0  0  0  0  0  0  0  0  0  0
  129.2900  121.9600   73.6970 C   0  0  0  0  0  0  0  0  0  0  0  0
  129.9950  123.2180   73.9490 C   0  0  0  0  0  0  0  0  0  0  0  0
  129.4400  124.2990   73.7490 O   0  0  0  0  0  0  0  0  0  0  0  0
  131.2590  123.0900   74.4220 N   0  0  0  0  0  0  0  0  0  0  0  0
  132.2100  124.0850   74.7170 C   0  0  0  0  0  0  0  0  0  0  0  0
  133.4320  123.8740   75.3820 C   0  0  0  0  0  0  0  0  0  0  0  0
  134.2790  124.9550   75.6290 C   0  0  0  0  0  0  0  0  0  0  0  0
  133.8830  126.2260   75.2090 C   0  0  0  0  0  0  0  0  0  0  0  0
  132.7070  126.4560   74.5730 N   0  0  0  0  0  0  0  0  0  0  0  0
  131.8940  125.3960   74.3410 C   0  0  0  0  0  0  0  0  0  0  0  0
  128.4580  121.6970   72.1620 S   0  0  0  0  0  0  0  0  0  0  0  0
  127.9090  120.1180   72.6770 C   0  0  0  0  0  0  0  0  0  0  0  0
  127.1630  119.3400   71.8910 N   0  0  0  0  0  0  0  0  0  0  0  0
  1  2  1  0
  2  3  2  0
  3  4  1  0
  4  5  1  0
  4  6  2  0
  6  7  1  0
  7  8  1  0
  7  9  2  0
  9 10  1  0
 10 11  2  0
 10 12  1  0
 12 13  1  0
 13 14  2  0
 14 15  1  0
 15 16  2  0
 16 17  1  0
 17 18  2  0
  9 19  1  0
 19 20  1  0
 20 21  2  0
 21  2  1  0
 20  6  1  0
 18 13  1  0
M  END
>  <Binding energies>  (42) 
[-6.44]

>  <Ligand effiencies>  (42) 
[-0.26833333333333337]

>  <Interactions>  (42) 
["V-B:GLU:543:C:9874, V-A:HIS:456:CD2:4065, V-A:LYS:547:CD:4947, V-A:VAL:458:CG2:4084, V-A:HIS:456:C:4058, V-B:GLY:544:CA:9886, V-A:HIS:456:CG:4063, H-B:LYS:547:NZ:9923, V-A:LYS:471:CD:4216, V-A:HIS:456:CB:4062, V-B:LYS:547:CE:9922, V-A:ASP:473:CG:4237, V-B:VAL:542:CG1:9871, V-A:TYR:484:CG:4339, V-B:GLU:543:CA:9876, V-A:TYR:484:CB:4338, V-A:TYR:484:CD2:4341, H-A:ASP:473:OD2:4239, V-A:SER:483:CB:4330, H-A:TYR:484:N:4337"]

$$$$
4ag_Grossjean_2025
     RDKit          3D

 22 24  0  0  0  0  0  0  0  0999 V2000
  134.2640  123.8670   60.0000 C   0  0  0  0  0  0  0  0  0  0  0  0
  133.2580  124.4330   60.9850 C   0  0  0  0  0  0  0  0  0  0  0  0
  132.0260  124.9200   60.5520 C   0  0  0  0  0  0  0  0  0  0  0  0
  131.1130  125.4370   61.4770 C   0  0  0  0  0  0  0  0  0  0  0  0
  129.7810  125.9560   60.9550 C   0  0  0  0  0  0  0  0  0  0  0  0
  131.4880  125.4430   62.8470 C   0  0  0  0  0  0  0  0  0  0  0  0
  130.8120  125.8880   64.0350 C   0  0  0  0  0  0  0  0  0  0  0  0
  129.5530  126.4350   64.0020 N   0  0  0  0  0  0  0  0  0  0  0  0
  131.5550  125.7140   65.2120 C   0  0  0  0  0  0  0  0  0  0  0  0
  131.1730  126.0420   66.5850 C   0  0  0  0  0  0  0  0  0  0  0  0
  130.4570  125.2900   67.2500 O   0  0  0  0  0  0  0  0  0  0  0  0
  131.6330  127.2170   67.0650 N   0  0  0  0  0  0  0  0  0  0  0  0
  131.3980  127.7320   68.4130 C   0  0  0  0  0  0  0  0  0  0  0  0
  129.9980  127.4520   68.9480 C   0  0  0  0  0  0  0  0  0  0  0  0
  129.7970  127.2960   70.3220 C   0  0  0  0  0  0  0  0  0  0  0  0
  128.5150  127.0650   70.8150 C   0  0  0  0  0  0  0  0  0  0  0  0
  127.4370  127.0020   69.9340 C   0  0  0  0  0  0  0  0  0  0  0  0
  127.6290  127.1720   68.5650 C   0  0  0  0  0  0  0  0  0  0  0  0
  128.9100  127.4040   68.0720 C   0  0  0  0  0  0  0  0  0  0  0  0
  133.1210  124.9760   64.8770 S   0  0  0  0  0  0  0  0  0  0  0  0
  132.7770  124.9160   63.1620 C   0  0  0  0  0  0  0  0  0  0  0  0
  133.6490  124.4210   62.2830 N   0  0  0  0  0  0  0  0  0  0  0  0
  1  2  1  0
  2  3  2  0
  3  4  1  0
  4  5  1  0
  4  6  2  0
  6  7  1  0
  7  8  1  0
  7  9  2  0
  9 10  1  0
 10 11  2  0
 10 12  1  0
 12 13  1  0
 13 14  1  0
 14 15  2  0
 15 16  1  0
 16 17  2  0
 17 18  1  0
 18 19  2  0
  9 20  1  0
 20 21  1  0
 21 22  2  0
 22  2  1  0
 21  6  1  0
 19 14  1  0
M  END
>  <Binding energies>  (43) 
[-6.12]

>  <Ligand effiencies>  (43) 
[-0.24480000000000002]

>  <Interactions>  (43) 
["V-A:ILE:369:CD1:3236, V-A:GLY:454:CA:4046, V-A:GLU:543:CG:4905, H-B:GLU:543:OE1:9881, V-A:ASP:366:CG:3210, V-A:ILE:369:CG2:3234, V-B:HIS:456:CE1:9040, H-B:GLU:543:OE2:9882, V-B:GLU:543:CD:9880, V-B:GLU:543:CB:9878, V-B:GLU:543:CG:9879, V-A:HIS:456:CE1:4066, H-A:GLU:543:OE2:4908, V-A:GLU:543:CD:4906, V-B:GLU:543:C:9874, V-A:ILE:369:CB:3233, V-B:GLY:544:C:9884, V-A:ARG:545:CZ:4924, V-A:ARG:545:CG:4920, H-A:GLY:454:N:4047, V-A:ARG:545:CD:4921, H-A:GLU:543:OE1:4907, V-A:ILE:369:CG1:3235, V-A:HIS:456:CD2:4065, H-A:HIS:456:NE2:4067, H-A:TYR:484:OH:4345, V-A:GLU:543:C:4900, V-B:GLY:544:CA:9886"]

$$$$
4ah_Grossjean_2025
     RDKit          3D

 28 30  0  0  0  0  0  0  0  0999 V2000
  126.0190  128.6380   58.2670 C   0  0  0  0  0  0  0  0  0  0  0  0
  126.0910  130.0190   58.6000 O   0  0  0  0  0  0  0  0  0  0  0  0
  125.9540  130.4070   59.9220 C   0  0  0  0  0  0  0  0  0  0  0  0
  126.7440  129.9110   60.9700 C   0  0  0  0  0  0  0  0  0  0  0  0
  126.5480  130.3470   62.2810 C   0  0  0  0  0  0  0  0  0  0  0  0
  127.4470  129.8310   63.4000 C   0  0  0  0  0  0  0  0  0  0  0  0
  128.4820  128.9060   62.9390 N   0  0  0  0  0  0  0  0  0  0  0  0
  128.2600  127.6860   62.4080 C   0  0  0  0  0  0  0  0  0  0  0  0
  127.1300  127.2070   62.2920 O   0  0  0  0  0  0  0  0  0  0  0  0
  129.4490  126.9340   62.0100 C   0  0  0  0  0  0  0  0  0  0  0  0
  129.8590  126.7610   60.3020 S   0  0  0  0  0  0  0  0  0  0  0  0
  131.2540  125.7790   60.6910 C   0  0  0  0  0  0  0  0  0  0  0  0
  132.0590  125.2920   59.7470 N   0  0  0  0  0  0  0  0  0  0  0  0
  133.1050  124.5480   60.1810 C   0  0  0  0  0  0  0  0  0  0  0  0
  134.0070  124.0020   59.0910 C   0  0  0  0  0  0  0  0  0  0  0  0
  133.3620  124.2830   61.5250 C   0  0  0  0  0  0  0  0  0  0  0  0
  132.5140  124.7930   62.5140 C   0  0  0  0  0  0  0  0  0  0  0  0
  132.8350  124.4760   63.9670 C   0  0  0  0  0  0  0  0  0  0  0  0
  131.4040  125.5770   62.0960 C   0  0  0  0  0  0  0  0  0  0  0  0
  130.3540  126.2370   62.8250 C   0  0  0  0  0  0  0  0  0  0  0  0
  130.2660  126.1870   64.1930 N   0  0  0  0  0  0  0  0  0  0  0  0
  125.5740  131.3100   62.5480 C   0  0  0  0  0  0  0  0  0  0  0  0
  124.7660  131.8200   61.5200 C   0  0  0  0  0  0  0  0  0  0  0  0
  123.7730  132.7630   61.7150 O   0  0  0  0  0  0  0  0  0  0  0  0
  124.1190  134.1440   61.7520 C   0  0  0  0  0  0  0  0  0  0  0  0
  124.9620  131.3560   60.2120 C   0  0  0  0  0  0  0  0  0  0  0  0
  124.1900  131.8600   59.1930 O   0  0  0  0  0  0  0  0  0  0  0  0
  123.0310  131.0890   58.9090 C   0  0  0  0  0  0  0  0  0  0  0  0
  1  2  1  0
  2  3  1  0
  3  4  2  0
  4  5  1  0
  5  6  1  0
  6  7  1  0
  7  8  1  0
  8  9  2  0
  8 10  1  0
 10 11  1  0
 11 12  1  0
 12 13  2  0
 13 14  1  0
 14 15  1  0
 14 16  2  0
 16 17  1  0
 17 18  1  0
 17 19  2  0
 19 20  1  0
 20 21  1  0
  5 22  2  0
 22 23  1  0
 23 24  1  0
 24 25  1  0
 23 26  2  0
 26 27  1  0
 27 28  1  0
 26  3  1  0
 20 10  2  0
 19 12  1  0
M  END
>  <Binding energies>  (44) 
[-5.59]

>  <Ligand effiencies>  (44) 
[-0.1803225806451613]

>  <Interactions>  (44) 
["V-B:LEU:475:CD2:9230, V-B:ASP:366:CB:8183, H-A:TYR:539:OH:4876, V-B:ILE:369:CG2:8208, V-A:TYR:539:CE1:4873, V-B:ILE:369:CD1:8210, V-B:ASP:366:CG:8184, V-B:TYR:539:CE1:9847, V-A:ILE:369:CD1:3236, V-A:GLY:454:CA:4046, H-B:GLU:543:OE1:9881, V-A:ASP:366:CG:3210, H-B:ARG:545:NH2:9900, V-A:ILE:369:CG2:3234, H-B:GLU:543:OE2:9882, V-B:GLU:543:CD:9880, H-A:GLU:543:OE2:4908, V-A:ASP:366:CA:3207, V-A:ASP:366:CB:3209, V-A:GLU:543:CD:4906, V-B:ILE:369:CG1:8209, V-B:ILE:369:CB:8207, V-A:ILE:369:CB:3233, V-B:ASP:366:CA:8181, H-A:GLU:543:OE1:4907, V-B:ASP:366:C:8179"]

$$$$
4ai_Grossjean_2025
     RDKit          3D

 20 22  0  0  0  0  0  0  0  0999 V2000
  126.2710  117.6260   71.3000 C   0  0  0  0  0  0  0  0  0  0  0  0
  127.0820  118.4730   72.2640 C   0  0  0  0  0  0  0  0  0  0  0  0
  127.3310  118.0380   73.5650 C   0  0  0  0  0  0  0  0  0  0  0  0
  128.0870  118.8320   74.4350 C   0  0  0  0  0  0  0  0  0  0  0  0
  128.3340  118.3140   75.8440 C   0  0  0  0  0  0  0  0  0  0  0  0
  128.5780  120.0720   73.9440 C   0  0  0  0  0  0  0  0  0  0  0  0
  129.3690  121.1090   74.5500 C   0  0  0  0  0  0  0  0  0  0  0  0
  129.8040  121.0340   75.8490 N   0  0  0  0  0  0  0  0  0  0  0  0
  129.6510  122.1860   73.6940 C   0  0  0  0  0  0  0  0  0  0  0  0
  130.4120  123.4030   73.9810 C   0  0  0  0  0  0  0  0  0  0  0  0
  129.9260  124.5150   73.7650 O   0  0  0  0  0  0  0  0  0  0  0  0
  131.6490  123.2050   74.5030 N   0  0  0  0  0  0  0  0  0  0  0  0
  132.5730  124.1730   74.8750 C   0  0  0  0  0  0  0  0  0  0  0  0
  132.3550  125.5400   74.7050 C   0  0  0  0  0  0  0  0  0  0  0  0
  133.4910  126.1470   75.1880 C   0  0  0  0  0  0  0  0  0  0  0  0
  134.3480  125.1960   75.6280 O   0  0  0  0  0  0  0  0  0  0  0  0
  133.7550  123.9490   75.4260 N   0  0  0  0  0  0  0  0  0  0  0  0
  128.9140  121.9470   72.1080 S   0  0  0  0  0  0  0  0  0  0  0  0
  128.2530  120.4020   72.5940 C   0  0  0  0  0  0  0  0  0  0  0  0
  127.5320  119.6490   71.7630 N   0  0  0  0  0  0  0  0  0  0  0  0
  1  2  1  0
  2  3  2  0
  3  4  1  0
  4  5  1  0
  4  6  2  0
  6  7  1  0
  7  8  1  0
  7  9  2  0
  9 10  1  0
 10 11  2  0
 10 12  1  0
 12 13  1  0
 13 14  1  0
 14 15  2  0
 15 16  1  0
 16 17  1  0
  9 18  1  0
 18 19  1  0
 19 20  2  0
 20  2  1  0
 19  6  1  0
 17 13  2  0
M  END
>  <Binding energies>  (45) 
[-6.2]

>  <Ligand effiencies>  (45) 
[-0.26956521739130435]

>  <Interactions>  (45) 
["V-B:GLU:543:C:9874, V-A:HIS:456:CD2:4065, V-A:LYS:547:CD:4947, V-A:VAL:458:CG2:4084, V-B:GLY:544:CA:9886, V-A:HIS:456:CG:4063, H-B:LYS:547:NZ:9923, V-A:HIS:456:CB:4062, V-A:ASP:473:CG:4237, V-B:VAL:542:CG1:9871, V-A:TYR:484:CG:4339, V-B:GLU:543:CA:9876, V-A:TYR:484:CB:4338, V-A:TYR:484:CD2:4341, H-A:ASP:473:OD2:4239, V-A:SER:483:CA:4328, V-A:SER:483:CB:4330, H-A:TYR:484:N:4337"]

$$$$
4aj_Grossjean_2025
     RDKit          3D

 20 22  0  0  0  0  0  0  0  0999 V2000
  126.0250  117.4550   71.4950 C   0  0  0  0  0  0  0  0  0  0  0  0
  126.8900  118.2970   72.4160 C   0  0  0  0  0  0  0  0  0  0  0  0
  127.2230  117.8510   73.6930 C   0  0  0  0  0  0  0  0  0  0  0  0
  128.0170  118.6460   74.5270 C   0  0  0  0  0  0  0  0  0  0  0  0
  128.3520  118.1160   75.9130 C   0  0  0  0  0  0  0  0  0  0  0  0
  128.4600  119.8990   74.0240 C   0  0  0  0  0  0  0  0  0  0  0  0
  129.2690  120.9420   74.5970 C   0  0  0  0  0  0  0  0  0  0  0  0
  129.7820  120.8580   75.8660 N   0  0  0  0  0  0  0  0  0  0  0  0
  129.4810  122.0330   73.7400 C   0  0  0  0  0  0  0  0  0  0  0  0
  130.2380  123.2600   73.9970 C   0  0  0  0  0  0  0  0  0  0  0  0
  129.7500  124.3650   73.7490 O   0  0  0  0  0  0  0  0  0  0  0  0
  131.4730  123.0810   74.5270 N   0  0  0  0  0  0  0  0  0  0  0  0
  132.3830  124.0710   74.8730 C   0  0  0  0  0  0  0  0  0  0  0  0
  133.5660  123.9220   75.4280 N   0  0  0  0  0  0  0  0  0  0  0  0
  134.1650  125.0820   75.6140 C   0  0  0  0  0  0  0  0  0  0  0  0
  133.4600  126.2110   75.2040 C   0  0  0  0  0  0  0  0  0  0  0  0
  131.9320  125.7120   74.5400 S   0  0  0  0  0  0  0  0  0  0  0  0
  128.6620  121.7980   72.1940 S   0  0  0  0  0  0  0  0  0  0  0  0
  128.0530  120.2380   72.6990 C   0  0  0  0  0  0  0  0  0  0  0  0
  127.2960  119.4840   71.9020 N   0  0  0  0  0  0  0  0  0  0  0  0
  1  2  1  0
  2  3  2  0
  3  4  1  0
  4  5  1  0
  4  6  2  0
  6  7  1  0
  7  8  1  0
  7  9  2  0
  9 10  1  0
 10 11  2  0
 10 12  1  0
 12 13  1  0
 13 14  2  0
 14 15  1  0
 15 16  2  0
 16 17  1  0
  9 18  1  0
 18 19  1  0
 19 20  2  0
 20  2  1  0
 19  6  1  0
 17 13  1  0
M  END
>  <Binding energies>  (46) 
[-6.42]

>  <Ligand effiencies>  (46) 
[-0.2791304347826087]

>  <Interactions>  (46) 
["V-B:GLU:543:C:9874, V-A:HIS:456:CD2:4065, V-A:LYS:547:CD:4947, V-A:VAL:458:CG2:4084, V-A:HIS:456:C:4058, V-A:LYS:547:CE:4948, V-B:GLY:544:CA:9886, V-A:HIS:456:CG:4063, H-B:LYS:547:NZ:9923, V-A:LYS:471:CD:4216, V-A:HIS:456:CB:4062, V-B:LYS:547:CE:9922, V-A:ASP:473:CG:4237, V-B:VAL:542:CG1:9871, V-A:TYR:484:CG:4339, V-B:GLU:543:CA:9876, V-A:TYR:484:CB:4338, V-A:TYR:484:CD2:4341, H-A:ASP:473:OD2:4239, V-A:SER:483:CB:4330, H-A:TYR:484:N:4337"]

$$$$
4ak_Grossjean_2025
     RDKit          3D

 25 26  0  0  0  0  0  0  0  0999 V2000
  131.3450  124.1000   74.7470 C   0  0  0  0  0  0  0  0  0  0  0  0
  130.6900  125.3320   74.4910 O   0  0  0  0  0  0  0  0  0  0  0  0
  131.4640  126.2340   73.7100 C   0  0  0  0  0  0  0  0  0  0  0  0
  130.5460  126.9910   72.7420 C   0  0  0  0  0  0  0  0  0  0  0  0
  129.1990  126.8720   73.1810 O   0  0  0  0  0  0  0  0  0  0  0  0
  128.2740  126.6180   72.1320 C   0  0  0  0  0  0  0  0  0  0  0  0
  128.9040  127.0180   70.7920 C   0  0  0  0  0  0  0  0  0  0  0  0
  127.8790  127.4110   69.8900 O   0  0  0  0  0  0  0  0  0  0  0  0
  128.0710  126.9410   68.5620 C   0  0  0  0  0  0  0  0  0  0  0  0
  128.9320  127.9520   67.7830 C   0  0  0  0  0  0  0  0  0  0  0  0
  128.2170  128.6120   66.6910 N   0  0  0  0  0  0  0  0  0  0  0  0
  127.7340  129.8710   66.7230 C   0  0  0  0  0  0  0  0  0  0  0  0
  127.8750  130.6080   67.7000 O   0  0  0  0  0  0  0  0  0  0  0  0
  127.0340  130.3210   65.5210 C   0  0  0  0  0  0  0  0  0  0  0  0
  125.6910  129.3830   64.8690 S   0  0  0  0  0  0  0  0  0  0  0  0
  125.4560  130.5340   63.5730 C   0  0  0  0  0  0  0  0  0  0  0  0
  124.5070  130.3730   62.6500 N   0  0  0  0  0  0  0  0  0  0  0  0
  124.4330  131.3370   61.6990 C   0  0  0  0  0  0  0  0  0  0  0  0
  123.3450  131.1360   60.6590 C   0  0  0  0  0  0  0  0  0  0  0  0
  125.2760  132.4450   61.6510 C   0  0  0  0  0  0  0  0  0  0  0  0
  126.2710  132.6110   62.6210 C   0  0  0  0  0  0  0  0  0  0  0  0
  127.1690  133.8340   62.5240 C   0  0  0  0  0  0  0  0  0  0  0  0
  126.3800  131.6200   63.6340 C   0  0  0  0  0  0  0  0  0  0  0  0
  127.2650  131.4770   64.7590 C   0  0  0  0  0  0  0  0  0  0  0  0
  128.2430  132.3950   65.0440 N   0  0  0  0  0  0  0  0  0  0  0  0
  1  2  1  0
  2  3  1  0
  3  4  1  0
  4  5  1  0
  5  6  1  0
  6  7  1  0
  7  8  1  0
  8  9  1  0
  9 10  1  0
 10 11  1  0
 11 12  1  0
 12 13  2  0
 12 14  1  0
 14 15  1  0
 15 16  1  0
 16 17  2  0
 17 18  1  0
 18 19  1  0
 18 20  2  0
 20 21  1  0
 21 22  1  0
 21 23  2  0
 23 24  1  0
 24 25  1  0
 24 14  2  0
 23 16  1  0
M  END
>  <Binding energies>  (47) 
[-6.06]

>  <Ligand effiencies>  (47) 
[-0.21642857142857141]

>  <Interactions>  (47) 
["V-B:LEU:475:CD2:9230, V-B:ILE:369:CG2:8208, V-A:TYR:539:CE1:4873, V-B:ILE:369:CD1:8210, V-B:ASP:366:CG:8184, V-A:ALA:541:CB:4890, V-A:GLU:543:CG:4905, V-B:HIS:456:CE1:9040, H-B:GLU:543:OE2:9882, V-B:GLU:543:CD:9880, V-B:GLU:543:CB:9878, V-B:GLU:543:CG:9879, V-A:HIS:456:CE1:4066, H-A:GLU:543:OE2:4908, V-A:GLU:543:CD:4906, V-B:ILE:369:CG1:8209, V-B:ILE:369:CB:8207, V-A:GLU:543:CB:4904, V-B:GLU:543:C:9874, V-B:ASP:366:CA:8181, V-B:ARG:545:CZ:9898, V-B:GLY:544:C:9884, V-B:TYR:484:CE2:9317, H-A:GLU:543:OE1:4907, V-B:TYR:484:CZ:9318, V-A:HIS:456:CD2:4065, H-B:HIS:456:NE2:9041, H-B:TYR:484:OH:9319, V-A:LYS:547:CE:4948, V-B:GLY:544:CA:9886, V-A:HIS:456:CG:4063, H-B:LYS:547:NZ:9923, V-A:HIS:456:CB:4062, V-B:LYS:547:CE:9922"]

$$$$
4al_Grossjean_2025
     RDKit          3D

 16 17  0  0  0  0  0  0  0  0999 V2000
  132.0040  126.1370   57.6510 C   0  0  0  0  0  0  0  0  0  0  0  0
  132.0510  124.7820   58.0710 O   0  0  0  0  0  0  0  0  0  0  0  0
  133.0790  124.3230   58.8310 C   0  0  0  0  0  0  0  0  0  0  0  0
  134.0500  123.7090   58.3810 O   0  0  0  0  0  0  0  0  0  0  0  0
  132.9180  124.6360   60.2670 C   0  0  0  0  0  0  0  0  0  0  0  0
  134.2550  124.3590   61.3860 S   0  0  0  0  0  0  0  0  0  0  0  0
  133.3030  124.9380   62.7330 C   0  0  0  0  0  0  0  0  0  0  0  0
  133.7910  124.9850   63.9730 N   0  0  0  0  0  0  0  0  0  0  0  0
  132.9500  125.4550   64.9280 C   0  0  0  0  0  0  0  0  0  0  0  0
  133.5250  125.4990   66.3310 C   0  0  0  0  0  0  0  0  0  0  0  0
  131.6460  125.8740   64.6720 C   0  0  0  0  0  0  0  0  0  0  0  0
  131.1360  125.8240   63.3700 C   0  0  0  0  0  0  0  0  0  0  0  0
  129.7080  126.2920   63.1410 C   0  0  0  0  0  0  0  0  0  0  0  0
  131.9900  125.3370   62.3440 C   0  0  0  0  0  0  0  0  0  0  0  0
  131.7990  125.1530   60.9310 C   0  0  0  0  0  0  0  0  0  0  0  0
  130.6220  125.4600   60.2990 N   0  0  0  0  0  0  0  0  0  0  0  0
  1  2  1  0
  2  3  1  0
  3  4  2  0
  3  5  1  0
  5  6  1  0
  6  7  1  0
  7  8  2  0
  8  9  1  0
  9 10  1  0
  9 11  2  0
 11 12  1  0
 12 13  1  0
 12 14  2  0
 14 15  1  0
 15 16  1  0
 15  5  2  0
 14  7  1  0
M  END
>  <Binding energies>  (48) 
[-4.82]

>  <Ligand effiencies>  (48) 
[-0.2677777777777778]

>  <Interactions>  (48) 
["V-B:TYR:539:CE1:9847, V-A:ILE:369:CD1:3236, V-A:ASP:366:CG:3210, V-B:GLU:543:CD:9880, H-A:ARG:545:NH2:4926, V-A:HIS:456:CE1:4066, V-A:ASP:366:CB:3209, V-A:TYR:484:CZ:4344, V-A:ARG:545:CZ:4924, V-A:ARG:545:CG:4920, H-A:GLY:454:N:4047, V-A:ARG:545:CD:4921, V-B:TYR:539:CZ:9849, H-A:ARG:545:NE:4922, H-B:TYR:539:OH:9850"]

$$$$
4bc_Grossjean_2025
     RDKit          3D

 26 28  0  0  0  0  0  0  0  0999 V2000
  133.8810  121.6090   61.9700 C   0  0  0  0  0  0  0  0  0  0  0  0
  133.4970  122.1950   63.2090 O   0  0  0  0  0  0  0  0  0  0  0  0
  132.7110  123.3310   63.2020 C   0  0  0  0  0  0  0  0  0  0  0  0
  133.0560  124.3200   62.2820 C   0  0  0  0  0  0  0  0  0  0  0  0
  132.3230  125.5010   62.2020 C   0  0  0  0  0  0  0  0  0  0  0  0
  131.2240  125.7050   63.0390 C   0  0  0  0  0  0  0  0  0  0  0  0
  130.5540  126.9330   62.8970 N   0  0  0  0  0  0  0  0  0  0  0  0
  130.0880  127.5310   61.7730 C   0  0  0  0  0  0  0  0  0  0  0  0
  130.2260  127.0660   60.6410 O   0  0  0  0  0  0  0  0  0  0  0  0
  129.3940  128.8050   61.9790 C   0  0  0  0  0  0  0  0  0  0  0  0
  129.9090  130.2470   61.1070 S   0  0  0  0  0  0  0  0  0  0  0  0
  128.6690  131.2110   61.8750 C   0  0  0  0  0  0  0  0  0  0  0  0
  128.5290  132.5080   61.6030 N   0  0  0  0  0  0  0  0  0  0  0  0
  127.5350  133.1480   62.2600 C   0  0  0  0  0  0  0  0  0  0  0  0
  127.3880  134.6230   61.9320 C   0  0  0  0  0  0  0  0  0  0  0  0
  126.6870  132.5290   63.1760 C   0  0  0  0  0  0  0  0  0  0  0  0
  126.8310  131.1630   63.4660 C   0  0  0  0  0  0  0  0  0  0  0  0
  125.8750  130.5270   64.4830 C   0  0  0  0  0  0  0  0  0  0  0  0
  125.2870  129.4210   64.0240 F   0  0  0  0  0  0  0  0  0  0  0  0
  126.5470  130.1960   65.5850 F   0  0  0  0  0  0  0  0  0  0  0  0
  124.9110  131.3910   64.7980 F   0  0  0  0  0  0  0  0  0  0  0  0
  127.8690  130.4570   62.7880 C   0  0  0  0  0  0  0  0  0  0  0  0
  128.3070  129.0830   62.8230 C   0  0  0  0  0  0  0  0  0  0  0  0
  127.7090  128.1360   63.6150 N   0  0  0  0  0  0  0  0  0  0  0  0
  130.8790  124.7200   63.9770 C   0  0  0  0  0  0  0  0  0  0  0  0
  131.6150  123.5410   64.0550 C   0  0  0  0  0  0  0  0  0  0  0  0
  1  2  1  0
  2  3  1  0
  3  4  2  0
  4  5  1  0
  5  6  2  0
  6  7  1  0
  7  8  1  0
  8  9  2  0
  8 10  1  0
 10 11  1  0
 11 12  1  0
 12 13  2  0
 13 14  1  0
 14 15  1  0
 14 16  2  0
 16 17  1  0
 17 18  1  0
 18 19  1  0
 18 20  1  0
 18 21  1  0
 17 22  2  0
 22 23  1  0
 23 24  1  0
  6 25  1  0
 25 26  2  0
 26  3  1  0
 23 10  2  0
 22 12  1  0
M  END
>  <Binding energies>  (49) 
[-5.47]

>  <Ligand effiencies>  (49) 
[-0.1886206896551724]

>  <Interactions>  (49) 
["V-B:LEU:475:CD2:9230, V-B:GLY:454:CA:9020, V-A:TYR:539:CD1:4871, V-A:ALA:541:CB:4890, V-A:ILE:369:CD1:3236, V-A:LEU:475:CD2:4256, V-A:GLY:454:CA:4046, H-B:GLU:543:OE1:9881, V-A:ILE:369:CG2:3234, H-B:GLU:543:OE2:9882, V-B:GLU:543:CD:9880, H-A:GLU:543:OE2:4908, V-A:GLU:543:CD:4906, V-B:ARG:545:CZ:9898, V-A:ARG:545:CZ:4924, H-A:GLY:454:N:4047, H-A:GLU:543:OE1:4907, V-B:TYR:484:CZ:9318"]

$$$$
4bf_Grossjean_2025
     RDKit          3D

 24 26  0  0  0  0  0  0  0  0999 V2000
  130.4800  120.6200   61.3870 C   0  0  0  0  0  0  0  0  0  0  0  0
  130.3320  122.0680   61.8210 C   0  0  0  0  0  0  0  0  0  0  0  0
  131.2590  122.6590   62.6750 C   0  0  0  0  0  0  0  0  0  0  0  0
  131.1080  123.9970   63.0710 C   0  0  0  0  0  0  0  0  0  0  0  0
  132.1530  124.6040   64.0140 C   0  0  0  0  0  0  0  0  0  0  0  0
  132.7600  125.6770   63.5000 F   0  0  0  0  0  0  0  0  0  0  0  0
  131.5690  124.9820   65.1510 F   0  0  0  0  0  0  0  0  0  0  0  0
  133.0980  123.7020   64.2820 F   0  0  0  0  0  0  0  0  0  0  0  0
  129.9780  124.7040   62.5640 C   0  0  0  0  0  0  0  0  0  0  0  0
  129.5030  126.0540   62.7450 C   0  0  0  0  0  0  0  0  0  0  0  0
  130.1570  126.9690   63.5290 N   0  0  0  0  0  0  0  0  0  0  0  0
  128.3190  126.3450   62.0470 C   0  0  0  0  0  0  0  0  0  0  0  0
  127.5510  127.5940   62.0310 C   0  0  0  0  0  0  0  0  0  0  0  0
  127.0930  128.0350   60.9760 O   0  0  0  0  0  0  0  0  0  0  0  0
  127.3860  128.1890   63.2370 N   0  0  0  0  0  0  0  0  0  0  0  0
  126.7510  129.4040   63.5580 C   0  0  0  0  0  0  0  0  0  0  0  0
  127.2000  130.6820   63.1800 C   0  0  0  0  0  0  0  0  0  0  0  0
  126.4830  131.8130   63.5790 C   0  0  0  0  0  0  0  0  0  0  0  0
  125.3340  131.6370   64.3510 C   0  0  0  0  0  0  0  0  0  0  0  0
  124.8840  130.4160   64.7340 N   0  0  0  0  0  0  0  0  0  0  0  0
  125.5920  129.3270   64.3390 C   0  0  0  0  0  0  0  0  0  0  0  0
  127.7530  124.9430   61.1410 S   0  0  0  0  0  0  0  0  0  0  0  0
  129.1020  123.9810   61.6960 C   0  0  0  0  0  0  0  0  0  0  0  0
  129.2510  122.7110   61.3220 N   0  0  0  0  0  0  0  0  0  0  0  0
  1  2  1  0
  2  3  2  0
  3  4  1  0
  4  5  1  0
  5  6  1  0
  5  7  1  0
  5  8  1  0
  4  9  2  0
  9 10  1  0
 10 11  1  0
 10 12  2  0
 12 13  1  0
 13 14  2  0
 13 15  1  0
 15 16  1  0
 16 17  2  0
 17 18  1  0
 18 19  2  0
 19 20  1  0
 20 21  2  0
 12 22  1  0
 22 23  1  0
 23 24  2  0
 24  2  1  0
 23  9  1  0
 21 16  1  0
M  END
>  <Binding energies>  (50) 
[-5.76]

>  <Ligand effiencies>  (50) 
[-0.21333333333333332]

>  <Interactions>  (50) 
["V-B:GLY:454:CA:9020, V-B:TYR:539:CE1:9847, V-A:LEU:475:CD2:4256, V-B:TYR:539:CD1:9845, V-A:GLY:454:CA:4046, H-B:GLU:543:OE1:9881, H-B:ARG:545:NH2:9900, H-B:GLU:543:OE2:9882, V-B:GLU:543:CD:9880, H-A:GLU:543:OE2:4908, H-B:GLY:454:N:9021, V-A:GLU:543:CD:4906, V-B:ARG:545:CZ:9898, V-A:ARG:545:CZ:4924, H-A:GLU:543:OE1:4907, V-B:ALA:541:CB:9864, H-B:TYR:484:OH:9319"]

$$$$
4bh_Grossjean_2025
     RDKit          3D

 31 33  0  0  0  0  0  0  0  0999 V2000
  126.2450  128.4440   58.3690 C   0  0  0  0  0  0  0  0  0  0  0  0
  125.7160  129.7140   58.7320 O   0  0  0  0  0  0  0  0  0  0  0  0
  125.5900  130.0400   60.0700 C   0  0  0  0  0  0  0  0  0  0  0  0
  126.2260  129.3440   61.1090 C   0  0  0  0  0  0  0  0  0  0  0  0
  126.0520  129.7280   62.4400 C   0  0  0  0  0  0  0  0  0  0  0  0
  126.7870  128.9880   63.5510 C   0  0  0  0  0  0  0  0  0  0  0  0
  127.8720  128.1350   63.0670 N   0  0  0  0  0  0  0  0  0  0  0  0
  128.9070  128.5440   62.3040 C   0  0  0  0  0  0  0  0  0  0  0  0
  129.0150  129.7030   61.9000 O   0  0  0  0  0  0  0  0  0  0  0  0
  129.8830  127.5160   61.9400 C   0  0  0  0  0  0  0  0  0  0  0  0
  130.5010  127.4300   60.2940 S   0  0  0  0  0  0  0  0  0  0  0  0
  131.4720  126.0310   60.6850 C   0  0  0  0  0  0  0  0  0  0  0  0
  132.2460  125.4440   59.7730 N   0  0  0  0  0  0  0  0  0  0  0  0
  132.9530  124.3710   60.1950 C   0  0  0  0  0  0  0  0  0  0  0  0
  133.8260  123.7160   59.1390 C   0  0  0  0  0  0  0  0  0  0  0  0
  132.9070  123.8750   61.4950 C   0  0  0  0  0  0  0  0  0  0  0  0
  132.0930  124.4880   62.4610 C   0  0  0  0  0  0  0  0  0  0  0  0
  132.0770  123.9090   63.8800 C   0  0  0  0  0  0  0  0  0  0  0  0
  130.8480  123.6250   64.3160 F   0  0  0  0  0  0  0  0  0  0  0  0
  132.7840  122.7800   63.9140 F   0  0  0  0  0  0  0  0  0  0  0  0
  132.6100  124.7870   64.7300 F   0  0  0  0  0  0  0  0  0  0  0  0
  131.3320  125.6210   62.0480 C   0  0  0  0  0  0  0  0  0  0  0  0
  130.4040  126.4840   62.7370 C   0  0  0  0  0  0  0  0  0  0  0  0
  130.0690  126.3140   64.0550 N   0  0  0  0  0  0  0  0  0  0  0  0
  125.2580  130.8370   62.7370 C   0  0  0  0  0  0  0  0  0  0  0  0
  124.6040  131.5480   61.7180 C   0  0  0  0  0  0  0  0  0  0  0  0
  123.7930  132.6460   61.9410 O   0  0  0  0  0  0  0  0  0  0  0  0
  124.3210  133.9540   61.7500 C   0  0  0  0  0  0  0  0  0  0  0  0
  124.7740  131.1350   60.3890 C   0  0  0  0  0  0  0  0  0  0  0  0
  124.1540  131.8340   59.3790 O   0  0  0  0  0  0  0  0  0  0  0  0
  123.0920  131.1260   58.7560 C   0  0  0  0  0  0  0  0  0  0  0  0
  1  2  1  0
  2  3  1  0
  3  4  2  0
  4  5  1  0
  5  6  1  0
  6  7  1  0
  7  8  1  0
  8  9  2  0
  8 10  1  0
 10 11  1  0
 11 12  1  0
 12 13  2  0
 13 14  1  0
 14 15  1  0
 14 16  2  0
 16 17  1  0
 17 18  1  0
 18 19  1  0
 18 20  1  0
 18 21  1  0
 17 22  2  0
 22 23  1  0
 23 24  1  0
  5 25  2  0
 25 26  1  0
 26 27  1  0
 27 28  1  0
 26 29  2  0
 29 30  1  0
 30 31  1  0
 29  3  1  0
 23 10  2  0
 22 12  1  0
M  END
>  <Binding energies>  (51) 
[-5.33]

>  <Ligand effiencies>  (51) 
[-0.15676470588235294]

>  <Interactions>  (51) 
["V-B:LEU:475:CD2:9230, V-B:ASP:366:CB:8183, H-A:TYR:539:OH:4876, V-B:ILE:369:CG2:8208, V-A:TYR:539:CE1:4873, V-B:ILE:369:CD1:8210, V-B:ASP:366:CG:8184, V-B:TYR:539:CE1:9847, V-A:ILE:369:CD1:3236, V-A:LEU:475:CD2:4256, V-A:GLY:454:CA:4046, H-B:GLU:543:OE1:9881, V-A:ASP:366:CG:3210, V-A:ILE:369:CG2:3234, H-B:GLU:543:OE2:9882, V-B:GLU:543:CD:9880, H-A:GLU:543:OE2:4908, V-A:GLU:543:CD:4906, V-B:ILE:369:CB:8207, V-A:ILE:369:CB:3233, V-B:ASP:366:CA:8181, V-B:ARG:545:CZ:9898, V-B:ASP:366:C:8179"]

$$$$
4bi_Grossjean_2025
     RDKit          3D

 23 25  0  0  0  0  0  0  0  0999 V2000
  134.4900  124.0830   59.4420 C   0  0  0  0  0  0  0  0  0  0  0  0
  133.5040  123.8220   60.5670 C   0  0  0  0  0  0  0  0  0  0  0  0
  132.5950  122.7700   60.4940 C   0  0  0  0  0  0  0  0  0  0  0  0
  131.6910  122.5380   61.5440 C   0  0  0  0  0  0  0  0  0  0  0  0
  130.7140  121.3640   61.4230 C   0  0  0  0  0  0  0  0  0  0  0  0
  131.1630  120.3920   60.6250 F   0  0  0  0  0  0  0  0  0  0  0  0
  130.5020  120.8270   62.6240 F   0  0  0  0  0  0  0  0  0  0  0  0
  129.5550  121.7900   60.9200 F   0  0  0  0  0  0  0  0  0  0  0  0
  131.7510  123.4210   62.6630 C   0  0  0  0  0  0  0  0  0  0  0  0
  131.0020  123.4980   63.8930 C   0  0  0  0  0  0  0  0  0  0  0  0
  129.9900  122.6250   64.2010 N   0  0  0  0  0  0  0  0  0  0  0  0
  131.4060  124.5380   64.7480 C   0  0  0  0  0  0  0  0  0  0  0  0
  130.8600  124.9090   66.0560 C   0  0  0  0  0  0  0  0  0  0  0  0
  130.4940  124.0430   66.8540 O   0  0  0  0  0  0  0  0  0  0  0  0
  130.8120  126.2400   66.3100 N   0  0  0  0  0  0  0  0  0  0  0  0
  130.3570  126.8650   67.4640 C   0  0  0  0  0  0  0  0  0  0  0  0
  129.0650  126.7000   67.9610 C   0  0  0  0  0  0  0  0  0  0  0  0
  129.0160  127.4740   69.0980 C   0  0  0  0  0  0  0  0  0  0  0  0
  130.2170  128.0740   69.2760 O   0  0  0  0  0  0  0  0  0  0  0  0
  131.0580  127.6800   68.2340 N   0  0  0  0  0  0  0  0  0  0  0  0
  132.7180  125.4740   64.0360 S   0  0  0  0  0  0  0  0  0  0  0  0
  132.7310  124.4600   62.6120 C   0  0  0  0  0  0  0  0  0  0  0  0
  133.5870  124.6740   61.6140 N   0  0  0  0  0  0  0  0  0  0  0  0
  1  2  1  0
  2  3  2  0
  3  4  1  0
  4  5  1  0
  5  6  1  0
  5  7  1  0
  5  8  1  0
  4  9  2  0
  9 10  1  0
 10 11  1  0
 10 12  2  0
 12 13  1  0
 13 14  2  0
 13 15  1  0
 15 16  1  0
 16 17  1  0
 17 18  2  0
 18 19  1  0
 19 20  1  0
 12 21  1  0
 21 22  1  0
 22 23  2  0
 23  2  1  0
 22  9  1  0
 20 16  2  0
M  END
>  <Binding energies>  (52) 
[-5.69]

>  <Ligand effiencies>  (52) 
[-0.21884615384615386]

>  <Interactions>  (52) 
["V-B:TYR:539:CE1:9847, V-A:ILE:369:CD1:3236, V-A:LEU:475:CD2:4256, V-B:TYR:539:CD1:9845, V-A:GLU:543:CG:4905, H-B:GLU:543:OE1:9881, V-A:ASP:366:CG:3210, V-A:ILE:369:CG2:3234, V-B:HIS:456:CE1:9040, V-B:GLU:543:CD:9880, V-B:GLU:543:CB:9878, V-B:GLU:543:CG:9879, V-A:HIS:456:CE1:4066, H-A:GLU:543:OE2:4908, V-A:ASP:366:CA:3207, V-A:ASP:366:CB:3209, V-A:TYR:484:CE2:4343, V-A:TYR:484:CZ:4344, V-A:GLU:543:CD:4906, V-A:ILE:369:CB:3233, V-A:ARG:545:CZ:4924, V-B:ALA:541:CB:9864, V-A:ILE:369:CG1:3235, V-B:TYR:539:CG:9844, H-A:HIS:456:NE2:4067, H-A:TYR:484:OH:4345"]

$$$$
4bj_Grossjean_2025
     RDKit          3D

 23 25  0  0  0  0  0  0  0  0999 V2000
  126.2170  117.6100   71.1740 C   0  0  0  0  0  0  0  0  0  0  0  0
  126.9570  118.4720   72.1810 C   0  0  0  0  0  0  0  0  0  0  0  0
  127.0140  118.1160   73.5260 C   0  0  0  0  0  0  0  0  0  0  0  0
  127.6960  118.9260   74.4470 C   0  0  0  0  0  0  0  0  0  0  0  0
  127.7300  118.4950   75.9180 C   0  0  0  0  0  0  0  0  0  0  0  0
  127.1280  117.3230   76.1310 F   0  0  0  0  0  0  0  0  0  0  0  0
  128.9930  118.3760   76.3240 F   0  0  0  0  0  0  0  0  0  0  0  0
  127.1080  119.4050   76.6670 F   0  0  0  0  0  0  0  0  0  0  0  0
  128.3170  120.1070   73.9420 C   0  0  0  0  0  0  0  0  0  0  0  0
  129.0820  121.1590   74.5680 C   0  0  0  0  0  0  0  0  0  0  0  0
  129.3540  121.1770   75.9130 N   0  0  0  0  0  0  0  0  0  0  0  0
  129.5270  122.1510   73.6800 C   0  0  0  0  0  0  0  0  0  0  0  0
  130.3110  123.3530   73.9730 C   0  0  0  0  0  0  0  0  0  0  0  0
  129.8400  124.4760   73.7780 O   0  0  0  0  0  0  0  0  0  0  0  0
  131.5510  123.1330   74.4750 N   0  0  0  0  0  0  0  0  0  0  0  0
  132.4840  124.0920   74.8440 C   0  0  0  0  0  0  0  0  0  0  0  0
  133.6540  123.9040   75.4140 N   0  0  0  0  0  0  0  0  0  0  0  0
  134.2830  125.0440   75.6180 C   0  0  0  0  0  0  0  0  0  0  0  0
  133.6180  126.1960   75.2100 C   0  0  0  0  0  0  0  0  0  0  0  0
  132.0830  125.7500   74.5250 S   0  0  0  0  0  0  0  0  0  0  0  0
  128.9890  121.8230   72.0350 S   0  0  0  0  0  0  0  0  0  0  0  0
  128.1870  120.3550   72.5410 C   0  0  0  0  0  0  0  0  0  0  0  0
  127.5360  119.5840   71.6710 N   0  0  0  0  0  0  0  0  0  0  0  0
  1  2  1  0
  2  3  2  0
  3  4  1  0
  4  5  1  0
  5  6  1  0
  5  7  1  0
  5  8  1  0
  4  9  2  0
  9 10  1  0
 10 11  1  0
 10 12  2  0
 12 13  1  0
 13 14  2  0
 13 15  1  0
 15 16  1  0
 16 17  2  0
 17 18  1  0
 18 19  2  0
 19 20  1  0
 12 21  1  0
 21 22  1  0
 22 23  2  0
 23  2  1  0
 22  9  1  0
 20 16  1  0
M  END
>  <Binding energies>  (53) 
[-5.66]

>  <Ligand effiencies>  (53) 
[-0.21769230769230768]

>  <Interactions>  (53) 
["V-B:GLU:543:C:9874, V-A:HIS:456:CD2:4065, V-A:LYS:547:CD:4947, V-A:VAL:458:CG2:4084, V-A:HIS:456:C:4058, V-B:GLY:544:CA:9886, V-A:HIS:456:CG:4063, H-B:LYS:547:NZ:9923, V-A:LYS:471:CD:4216, V-A:HIS:456:CB:4062, V-B:LYS:547:CE:9922, V-A:ASP:473:CG:4237, V-B:VAL:542:CG1:9871, V-A:TYR:484:CG:4339, V-B:GLU:543:CA:9876, V-A:TYR:484:CB:4338, V-A:TYR:484:CD2:4341, H-A:ASP:473:OD2:4239, V-A:SER:483:CA:4328, V-A:SER:483:CB:4330, V-B:VAL:542:CB:9870, H-A:TYR:484:N:4337"]

$$$$
4bk_Grossjean_2025
     RDKit          3D

 28 29  0  0  0  0  0  0  0  0999 V2000
  127.5320  130.7090   74.9180 C   0  0  0  0  0  0  0  0  0  0  0  0
  128.1500  129.4670   74.6180 O   0  0  0  0  0  0  0  0  0  0  0  0
  127.2590  128.5130   74.0560 C   0  0  0  0  0  0  0  0  0  0  0  0
  127.9680  127.7530   72.9270 C   0  0  0  0  0  0  0  0  0  0  0  0
  129.3030  127.4660   73.3170 O   0  0  0  0  0  0  0  0  0  0  0  0
  130.0800  126.8540   72.2970 C   0  0  0  0  0  0  0  0  0  0  0  0
  130.1020  127.7610   71.0590 C   0  0  0  0  0  0  0  0  0  0  0  0
  129.5340  127.0650   69.9580 O   0  0  0  0  0  0  0  0  0  0  0  0
  130.1540  127.3580   68.7110 C   0  0  0  0  0  0  0  0  0  0  0  0
  129.2000  126.9780   67.5660 C   0  0  0  0  0  0  0  0  0  0  0  0
  129.8770  126.4020   66.4030 N   0  0  0  0  0  0  0  0  0  0  0  0
  130.4880  125.2000   66.3730 C   0  0  0  0  0  0  0  0  0  0  0  0
  130.5120  124.4470   67.3490 O   0  0  0  0  0  0  0  0  0  0  0  0
  131.1170  124.8280   65.1050 C   0  0  0  0  0  0  0  0  0  0  0  0
  132.4580  125.7800   64.4720 S   0  0  0  0  0  0  0  0  0  0  0  0
  132.6080  124.7270   63.0860 C   0  0  0  0  0  0  0  0  0  0  0  0
  133.5290  124.9400   62.1470 N   0  0  0  0  0  0  0  0  0  0  0  0
  133.5490  124.0560   61.1220 C   0  0  0  0  0  0  0  0  0  0  0  0
  134.6070  124.3180   60.0650 C   0  0  0  0  0  0  0  0  0  0  0  0
  132.6790  122.9750   61.0150 C   0  0  0  0  0  0  0  0  0  0  0  0
  131.7050  122.7450   62.0000 C   0  0  0  0  0  0  0  0  0  0  0  0
  130.7670  121.5440   61.8370 C   0  0  0  0  0  0  0  0  0  0  0  0
  130.5120  120.9210   62.9900 F   0  0  0  0  0  0  0  0  0  0  0  0
  129.6010  121.9480   61.3340 F   0  0  0  0  0  0  0  0  0  0  0  0
  131.3160  120.6510   61.0150 F   0  0  0  0  0  0  0  0  0  0  0  0
  131.6570  123.6580   63.0960 C   0  0  0  0  0  0  0  0  0  0  0  0
  130.8220  123.7420   64.2680 C   0  0  0  0  0  0  0  0  0  0  0  0
  129.8250  122.8390   64.5340 N   0  0  0  0  0  0  0  0  0  0  0  0
  1  2  1  0
  2  3  1  0
  3  4  1  0
  4  5  1  0
  5  6  1  0
  6  7  1  0
  7  8  1  0
  8  9  1  0
  9 10  1  0
 10 11  1  0
 11 12  1  0
 12 13  2  0
 12 14  1  0
 14 15  1  0
 15 16  1  0
 16 17  2  0
 17 18  1  0
 18 19  1  0
 18 20  2  0
 20 21  1  0
 21 22  1  0
 22 23  1  0
 22 24  1  0
 22 25  1  0
 21 26  2  0
 26 27  1  0
 27 28  1  0
 27 14  2  0
 26 16  1  0
M  END
>  <Binding energies>  (54) 
[-5.46]

>  <Ligand effiencies>  (54) 
[-0.1761290322580645]

>  <Interactions>  (54) 
["V-B:TYR:539:CE1:9847, V-A:ILE:369:CD1:3236, V-A:LEU:475:CD2:4256, V-B:TYR:539:CD1:9845, V-A:GLU:543:CG:4905, H-B:GLU:543:OE1:9881, V-A:ASP:366:CG:3210, V-A:ILE:369:CG2:3234, H-B:GLU:543:OE2:9882, V-B:GLU:543:CD:9880, H-A:ARG:545:NH2:4926, V-B:GLU:543:CB:9878, V-B:GLU:543:CG:9879, V-A:HIS:456:CE1:4066, H-A:GLU:543:OE2:4908, V-A:ASP:366:CA:3207, V-A:ASP:366:CB:3209, V-A:TYR:484:CE2:4343, V-A:TYR:484:CZ:4344, V-A:GLU:543:CD:4906, V-A:ILE:369:CB:3233, V-B:GLY:544:C:9884, V-A:ARG:545:CZ:4924, V-B:ALA:541:CB:9864, V-A:ILE:369:CG1:3235, V-A:HIS:456:CD2:4065, H-A:HIS:456:NE2:4067, V-A:GLY:544:C:4910, H-A:TYR:484:OH:4345, V-A:GLY:544:CA:4912, V-A:GLU:543:C:4900, V-B:HIS:456:CD2:9039, V-B:HIS:456:CG:9037, H-B:LYS:547:NZ:9923, H-A:LYS:547:NZ:4949, V-B:LYS:547:CE:9922, V-B:HIS:456:CB:9036, V-A:LEU:475:CG:4254"]

$$$$
4cd_Grossjean_2025
     RDKit          3D

 29 32  0  0  0  0  0  0  0  0999 V2000
  130.1110  126.8730   63.6270 N   0  0  0  0  0  0  0  0  0  0  0  0
  129.6840  125.9310   62.7250 C   0  0  0  0  0  0  0  0  0  0  0  0
  128.5910  126.1290   61.8660 C   0  0  0  0  0  0  0  0  0  0  0  0
  127.7110  127.2970   61.7610 C   0  0  0  0  0  0  0  0  0  0  0  0
  127.3510  127.7150   60.6600 O   0  0  0  0  0  0  0  0  0  0  0  0
  127.3370  127.8500   62.9400 N   0  0  0  0  0  0  0  0  0  0  0  0
  126.5530  128.9930   63.1860 C   0  0  0  0  0  0  0  0  0  0  0  0
  126.7560  129.6210   64.4180 C   0  0  0  0  0  0  0  0  0  0  0  0
  126.0370  130.7660   64.7490 C   0  0  0  0  0  0  0  0  0  0  0  0
  125.1190  131.2900   63.8430 C   0  0  0  0  0  0  0  0  0  0  0  0
  124.9160  130.6820   62.6070 C   0  0  0  0  0  0  0  0  0  0  0  0
  125.6330  129.5350   62.2720 C   0  0  0  0  0  0  0  0  0  0  0  0
  128.3290  124.7230   60.8370 S   0  0  0  0  0  0  0  0  0  0  0  0
  129.6730  123.8800   61.5690 C   0  0  0  0  0  0  0  0  0  0  0  0
  130.0140  122.6510   61.1870 N   0  0  0  0  0  0  0  0  0  0  0  0
  131.0650  122.0720   61.8240 C   0  0  0  0  0  0  0  0  0  0  0  0
  131.4240  120.6860   61.3740 C   0  0  0  0  0  0  0  0  0  0  0  0
  132.7260  120.3840   60.9430 C   0  0  0  0  0  0  0  0  0  0  0  0
  133.0660  119.1000   60.5250 C   0  0  0  0  0  0  0  0  0  0  0  0
  132.1040  118.0960   60.5330 C   0  0  0  0  0  0  0  0  0  0  0  0
  130.8080  118.3660   60.9570 C   0  0  0  0  0  0  0  0  0  0  0  0
  130.4730  119.6500   61.3770 C   0  0  0  0  0  0  0  0  0  0  0  0
  131.7800  122.7360   62.8250 C   0  0  0  0  0  0  0  0  0  0  0  0
  131.4310  124.0340   63.2320 C   0  0  0  0  0  0  0  0  0  0  0  0
  132.2560  124.7020   64.3390 C   0  0  0  0  0  0  0  0  0  0  0  0
  133.2840  123.9560   64.7490 F   0  0  0  0  0  0  0  0  0  0  0  0
  132.7520  125.8580   63.8970 F   0  0  0  0  0  0  0  0  0  0  0  0
  131.4830  124.9320   65.4000 F   0  0  0  0  0  0  0  0  0  0  0  0
  130.3230  124.6460   62.5800 C   0  0  0  0  0  0  0  0  0  0  0  0
  1  2  1  0
  2  3  2  0
  3  4  1  0
  4  5  2  0
  4  6  1  0
  6  7  1  0
  7  8  2  0
  8  9  1  0
  9 10  2  0
 10 11  1  0
 11 12  2  0
  3 13  1  0
 13 14  1  0
 14 15  2  0
 15 16  1  0
 16 17  1  0
 17 18  2  0
 18 19  1  0
 19 20  2  0
 20 21  1  0
 21 22  2  0
 16 23  2  0
 23 24  1  0
 24 25  1  0
 25 26  1  0
 25 27  1  0
 25 28  1  0
 24 29  2  0
 29  2  1  0
 12  7  1  0
 29 14  1  0
 22 17  1  0
M  END
>  <Binding energies>  (55) 
[-7.55]

>  <Ligand effiencies>  (55) 
[-0.2359375]

>  <Interactions>  (55) 
["V-B:GLY:454:CA:9020, V-B:TYR:539:CE1:9847, V-A:GLY:453:C:4039, V-A:LEU:475:CD2:4256, V-B:TYR:539:CD1:9845, V-A:GLY:454:CA:4046, H-B:GLU:543:OE1:9881, V-A:ILE:369:CG2:3234, H-B:GLU:543:OE2:9882, V-B:GLU:543:CD:9880, H-A:GLU:543:OE2:4908, V-A:TYR:484:CZ:4344, V-A:GLU:543:CD:4906, V-B:ARG:545:CZ:9898, V-A:ARG:545:CZ:4924, V-A:SER:385:CA:3404, H-A:GLU:543:OE1:4907, V-B:ALA:541:CB:9864, V-A:SER:385:CB:3406, V-A:LEU:373:CD1:3277, V-A:PRO:482:CB:4323, V-A:PRO:482:CG:4324"]

$$$$
4cg_Grossjean_2025
     RDKit          3D

 30 33  0  0  0  0  0  0  0  0999 V2000
  129.6550  126.8610   63.6270 N   0  0  0  0  0  0  0  0  0  0  0  0
  129.3850  125.9070   62.6800 C   0  0  0  0  0  0  0  0  0  0  0  0
  128.3520  126.0290   61.7400 C   0  0  0  0  0  0  0  0  0  0  0  0
  127.4280  127.1450   61.5400 C   0  0  0  0  0  0  0  0  0  0  0  0
  126.9970  127.4300   60.4200 O   0  0  0  0  0  0  0  0  0  0  0  0
  127.1140  127.8590   62.6420 N   0  0  0  0  0  0  0  0  0  0  0  0
  126.1980  128.9970   62.6820 C   0  0  0  0  0  0  0  0  0  0  0  0
  126.6870  130.1380   63.5660 C   0  0  0  0  0  0  0  0  0  0  0  0
  127.0230  129.8880   64.8990 C   0  0  0  0  0  0  0  0  0  0  0  0
  127.5000  130.9220   65.7020 C   0  0  0  0  0  0  0  0  0  0  0  0
  127.6480  132.1990   65.1660 C   0  0  0  0  0  0  0  0  0  0  0  0
  127.3290  132.4510   63.8330 C   0  0  0  0  0  0  0  0  0  0  0  0
  126.8540  131.4180   63.0300 C   0  0  0  0  0  0  0  0  0  0  0  0
  128.2970  124.6370   60.6620 S   0  0  0  0  0  0  0  0  0  0  0  0
  129.6420  123.8900   61.4910 C   0  0  0  0  0  0  0  0  0  0  0  0
  130.1180  122.7070   61.1150 N   0  0  0  0  0  0  0  0  0  0  0  0
  131.1690  122.2070   61.8150 C   0  0  0  0  0  0  0  0  0  0  0  0
  131.6830  120.8680   61.3670 C   0  0  0  0  0  0  0  0  0  0  0  0
  130.8330  119.7510   61.3110 C   0  0  0  0  0  0  0  0  0  0  0  0
  131.3040  118.5090   60.8970 C   0  0  0  0  0  0  0  0  0  0  0  0
  132.6390  118.3630   60.5330 C   0  0  0  0  0  0  0  0  0  0  0  0
  133.5030  119.4510   60.5810 C   0  0  0  0  0  0  0  0  0  0  0  0
  133.0280  120.6920   60.9960 C   0  0  0  0  0  0  0  0  0  0  0  0
  131.7230  122.8910   62.9040 C   0  0  0  0  0  0  0  0  0  0  0  0
  131.2280  124.1400   63.3100 C   0  0  0  0  0  0  0  0  0  0  0  0
  131.8820  124.8340   64.5100 C   0  0  0  0  0  0  0  0  0  0  0  0
  131.1450  124.7640   65.6210 F   0  0  0  0  0  0  0  0  0  0  0  0
  133.0580  124.2650   64.7750 F   0  0  0  0  0  0  0  0  0  0  0  0
  132.0690  126.1240   64.2370 F   0  0  0  0  0  0  0  0  0  0  0  0
  130.1360  124.6800   62.5710 C   0  0  0  0  0  0  0  0  0  0  0  0
  1  2  1  0
  2  3  2  0
  3  4  1  0
  4  5  2  0
  4  6  1  0
  6  7  1  0
  7  8  1  0
  8  9  2  0
  9 10  1  0
 10 11  2  0
 11 12  1  0
 12 13  2  0
  3 14  1  0
 14 15  1  0
 15 16  2  0
 16 17  1  0
 17 18  1  0
 18 19  2  0
 19 20  1  0
 20 21  2  0
 21 22  1  0
 22 23  2  0
 17 24  2  0
 24 25  1  0
 25 26  1  0
 26 27  1  0
 26 28  1  0
 26 29  1  0
 25 30  2  0
 30  2  1  0
 13  8  1  0
 30 15  1  0
 23 18  1  0
M  END
>  <Binding energies>  (56) 
[-7.21]

>  <Ligand effiencies>  (56) 
[-0.21848484848484848]

>  <Interactions>  (56) 
["V-B:LEU:475:CD2:9230, V-A:ALA:541:CB:4890, V-B:TYR:539:CE1:9847, V-A:LEU:475:CD2:4256, V-B:TYR:539:CD1:9845, V-A:GLY:454:CA:4046, V-A:GLU:543:CG:4905, H-B:GLU:543:OE1:9881, V-A:ILE:369:CG2:3234, H-B:GLU:543:OE2:9882, V-B:GLU:543:CD:9880, V-B:GLU:543:CB:9878, V-A:HIS:456:CE1:4066, H-A:GLU:543:OE2:4908, V-A:TYR:484:CE2:4343, V-A:TYR:484:CZ:4344, V-A:GLU:543:CD:4906, V-A:GLU:543:CB:4904, V-B:ARG:545:CZ:9898, V-A:ARG:545:CZ:4924, V-A:SER:385:CA:3404, V-A:SER:385:C:3402, V-B:TYR:484:CE2:9317, H-A:GLU:543:OE1:4907, V-B:ALA:541:CB:9864, V-B:TYR:484:CZ:9318, V-A:SER:385:CB:3406, V-A:LEU:373:CD1:3277, V-A:PRO:482:CG:4324"]

$$$$
4ch_Grossjean_2025
     RDKit          3D

 36 39  0  0  0  0  0  0  0  0999 V2000
  124.3270  133.7180   61.8060 C   0  0  0  0  0  0  0  0  0  0  0  0
  125.5110  133.3740   61.0940 O   0  0  0  0  0  0  0  0  0  0  0  0
  126.3530  132.4040   61.6070 C   0  0  0  0  0  0  0  0  0  0  0  0
  125.9070  131.2010   62.1770 C   0  0  0  0  0  0  0  0  0  0  0  0
  126.8160  130.2650   62.6750 C   0  0  0  0  0  0  0  0  0  0  0  0
  126.3120  128.9770   63.3150 C   0  0  0  0  0  0  0  0  0  0  0  0
  127.2060  127.8310   63.1420 N   0  0  0  0  0  0  0  0  0  0  0  0
  127.4870  127.2250   61.9700 C   0  0  0  0  0  0  0  0  0  0  0  0
  127.0200  127.6100   60.8960 O   0  0  0  0  0  0  0  0  0  0  0  0
  128.4140  126.0940   62.0380 C   0  0  0  0  0  0  0  0  0  0  0  0
  128.1040  124.6410   61.0930 S   0  0  0  0  0  0  0  0  0  0  0  0
  129.5680  123.8930   61.6840 C   0  0  0  0  0  0  0  0  0  0  0  0
  129.9230  122.6670   61.3060 N   0  0  0  0  0  0  0  0  0  0  0  0
  131.0810  122.1700   61.8140 C   0  0  0  0  0  0  0  0  0  0  0  0
  131.4500  120.7830   61.3730 C   0  0  0  0  0  0  0  0  0  0  0  0
  130.5020  119.7460   61.3930 C   0  0  0  0  0  0  0  0  0  0  0  0
  130.8380  118.4570   60.9860 C   0  0  0  0  0  0  0  0  0  0  0  0
  132.1310  118.1860   60.5530 C   0  0  0  0  0  0  0  0  0  0  0  0
  133.0900  119.1920   60.5260 C   0  0  0  0  0  0  0  0  0  0  0  0
  132.7510  120.4790   60.9360 C   0  0  0  0  0  0  0  0  0  0  0  0
  131.8670  122.9000   62.7110 C   0  0  0  0  0  0  0  0  0  0  0  0
  131.5020  124.1930   63.1180 C   0  0  0  0  0  0  0  0  0  0  0  0
  132.4090  124.9370   64.1040 C   0  0  0  0  0  0  0  0  0  0  0  0
  133.2630  124.1320   64.7400 F   0  0  0  0  0  0  0  0  0  0  0  0
  133.1290  125.8500   63.4550 F   0  0  0  0  0  0  0  0  0  0  0  0
  131.6670  125.5420   65.0320 F   0  0  0  0  0  0  0  0  0  0  0  0
  130.2960  124.7290   62.5820 C   0  0  0  0  0  0  0  0  0  0  0  0
  129.6150  125.9890   62.7560 C   0  0  0  0  0  0  0  0  0  0  0  0
  130.0980  126.9900   63.5610 N   0  0  0  0  0  0  0  0  0  0  0  0
  128.1830  130.5370   62.6210 C   0  0  0  0  0  0  0  0  0  0  0  0
  128.6570  131.7340   62.0580 C   0  0  0  0  0  0  0  0  0  0  0  0
  129.9960  132.0670   61.9700 O   0  0  0  0  0  0  0  0  0  0  0  0
  130.9450  131.0650   61.6230 C   0  0  0  0  0  0  0  0  0  0  0  0
  127.7310  132.6560   61.5480 C   0  0  0  0  0  0  0  0  0  0  0  0
  128.1800  133.8370   61.0090 O   0  0  0  0  0  0  0  0  0  0  0  0
  127.8170  134.9900   61.7560 C   0  0  0  0  0  0  0  0  0  0  0  0
  1  2  1  0
  2  3  1  0
  3  4  2  0
  4  5  1  0
  5  6  1  0
  6  7  1  0
  7  8  1  0
  8  9  2  0
  8 10  1  0
 10 11  1  0
 11 12  1  0
 12 13  2  0
 13 14  1  0
 14 15  1  0
 15 16  2  0
 16 17  1  0
 17 18  2  0
 18 19  1  0
 19 20  2  0
 14 21  2  0
 21 22  1  0
 22 23  1  0
 23 24  1  0
 23 25  1  0
 23 26  1  0
 22 27  2  0
 27 28  1  0
 28 29  1  0
  5 30  2  0
 30 31  1  0
 31 32  1  0
 32 33  1  0
 31 34  2  0
 34 35  1  0
 35 36  1  0
 34  3  1  0
 28 10  2  0
 27 12  1  0
 20 15  1  0
M  END
>  <Binding energies>  (57) 
[-7.08]

>  <Ligand effiencies>  (57) 
[-0.18153846153846154]

>  <Interactions>  (57) 
["V-B:LEU:475:CD2:9230, V-B:ILE:369:CG2:8208, V-A:TYR:539:CE1:4873, V-B:ILE:369:CD1:8210, V-A:TYR:539:CD1:4871, H-A:ALA:541:N:4889, V-A:TYR:539:C:4865, V-A:ALA:541:CB:4890, V-B:TYR:539:CE1:9847, V-A:GLY:453:C:4039, V-A:LEU:475:CD2:4256, V-B:TYR:539:CD1:9845, V-A:GLY:454:CA:4046, H-B:GLU:543:OE1:9881, H-B:ARG:545:NH2:9900, V-A:ILE:369:CG2:3234, H-B:GLU:543:OE2:9882, V-B:GLU:543:CD:9880, H-A:GLU:543:OE2:4908, V-A:TYR:484:CZ:4344, V-A:GLU:543:CD:4906, V-B:ARG:545:CZ:9898, V-A:ARG:545:CZ:4924, V-A:SER:385:CA:3404, H-A:GLU:543:OE1:4907, V-B:ALA:541:CB:9864, V-A:SER:385:CB:3406, V-A:LEU:373:CD1:3277, V-A:PRO:482:CB:4323, V-A:PRO:482:CG:4324"]

$$$$
4cj_Grossjean_2025
     RDKit          3D

 28 31  0  0  0  0  0  0  0  0999 V2000
  130.1190  126.9560   63.6240 N   0  0  0  0  0  0  0  0  0  0  0  0
  129.6380  125.9780   62.7920 C   0  0  0  0  0  0  0  0  0  0  0  0
  128.4690  126.1240   62.0280 C   0  0  0  0  0  0  0  0  0  0  0  0
  127.5680  127.2770   61.9490 C   0  0  0  0  0  0  0  0  0  0  0  0
  127.0990  127.6380   60.8660 O   0  0  0  0  0  0  0  0  0  0  0  0
  127.3110  127.8980   63.1270 N   0  0  0  0  0  0  0  0  0  0  0  0
  126.4970  129.0040   63.3260 C   0  0  0  0  0  0  0  0  0  0  0  0
  125.7870  129.6550   62.4290 N   0  0  0  0  0  0  0  0  0  0  0  0
  125.1260  130.6600   62.9700 C   0  0  0  0  0  0  0  0  0  0  0  0
  125.2940  130.8400   64.3400 C   0  0  0  0  0  0  0  0  0  0  0  0
  126.3780  129.6210   64.9430 S   0  0  0  0  0  0  0  0  0  0  0  0
  128.1520  124.6830   61.0650 S   0  0  0  0  0  0  0  0  0  0  0  0
  129.5820  123.8970   61.6920 C   0  0  0  0  0  0  0  0  0  0  0  0
  129.9260  122.6710   61.3060 N   0  0  0  0  0  0  0  0  0  0  0  0
  131.0570  122.1440   61.8400 C   0  0  0  0  0  0  0  0  0  0  0  0
  131.4230  120.7640   61.3740 C   0  0  0  0  0  0  0  0  0  0  0  0
  132.7200  120.4810   60.9170 C   0  0  0  0  0  0  0  0  0  0  0  0
  133.0650  119.2050   60.4770 C   0  0  0  0  0  0  0  0  0  0  0  0
  132.1110  118.1910   60.4860 C   0  0  0  0  0  0  0  0  0  0  0  0
  130.8190  118.4460   60.9320 C   0  0  0  0  0  0  0  0  0  0  0  0
  130.4800  119.7220   61.3710 C   0  0  0  0  0  0  0  0  0  0  0  0
  131.8250  122.8420   62.7790 C   0  0  0  0  0  0  0  0  0  0  0  0
  131.4710  124.1350   63.1950 C   0  0  0  0  0  0  0  0  0  0  0  0
  132.3590  124.8450   64.2240 C   0  0  0  0  0  0  0  0  0  0  0  0
  131.6750  125.3230   65.2650 F   0  0  0  0  0  0  0  0  0  0  0  0
  133.2660  123.9910   64.6990 F   0  0  0  0  0  0  0  0  0  0  0  0
  132.9820  125.8740   63.6490 F   0  0  0  0  0  0  0  0  0  0  0  0
  130.2960  124.7050   62.6250 C   0  0  0  0  0  0  0  0  0  0  0  0
  1  2  1  0
  2  3  2  0
  3  4  1  0
  4  5  2  0
  4  6  1  0
  6  7  1  0
  7  8  2  0
  8  9  1  0
  9 10  2  0
 10 11  1  0
  3 12  1  0
 12 13  1  0
 13 14  2  0
 14 15  1  0
 15 16  1  0
 16 17  2  0
 17 18  1  0
 18 19  2  0
 19 20  1  0
 20 21  2  0
 15 22  2  0
 22 23  1  0
 23 24  1  0
 24 25  1  0
 24 26  1  0
 24 27  1  0
 23 28  2  0
 28  2  1  0
 11  7  1  0
 28 13  1  0
 21 16  1  0
M  END
>  <Binding energies>  (58) 
[-7.01]

>  <Ligand effiencies>  (58) 
[-0.22612903225806452]

>  <Interactions>  (58) 
["V-B:GLY:454:CA:9020, V-B:TYR:539:CE1:9847, V-A:GLY:453:C:4039, V-A:LEU:475:CD2:4256, V-B:TYR:539:CD1:9845, V-A:GLY:454:CA:4046, H-B:GLU:543:OE1:9881, H-B:ARG:545:NH2:9900, V-A:ILE:369:CG2:3234, H-B:GLU:543:OE2:9882, V-B:GLU:543:CD:9880, H-A:GLU:543:OE2:4908, V-A:TYR:484:CZ:4344, V-A:GLU:543:CD:4906, V-B:ARG:545:CZ:9898, V-A:ARG:545:CZ:4924, V-A:SER:385:CA:3404, H-A:GLU:543:OE1:4907, V-B:ALA:541:CB:9864, V-A:SER:385:CB:3406, V-A:LEU:373:CD1:3277, V-A:PRO:482:CB:4323, V-A:PRO:482:CG:4324"]

$$$$
4ck_Grossjean_2025
     RDKit          3D

 33 35  0  0  0  0  0  0  0  0999 V2000
  126.0080  124.3700   61.6680 C   0  0  0  0  0  0  0  0  0  0  0  0
  126.7160  123.1410   61.6990 O   0  0  0  0  0  0  0  0  0  0  0  0
  128.1080  123.2840   61.4520 C   0  0  0  0  0  0  0  0  0  0  0  0
  128.6820  121.9290   61.0210 C   0  0  0  0  0  0  0  0  0  0  0  0
  130.0670  122.0790   60.7420 O   0  0  0  0  0  0  0  0  0  0  0  0
  130.5860  123.3490   61.1150 C   0  0  0  0  0  0  0  0  0  0  0  0
  131.4360  123.1920   62.3820 C   0  0  0  0  0  0  0  0  0  0  0  0
  130.7780  123.8460   63.4580 O   0  0  0  0  0  0  0  0  0  0  0  0
  131.4340  125.0280   63.9010 C   0  0  0  0  0  0  0  0  0  0  0  0
  131.6780  125.9600   62.7040 C   0  0  0  0  0  0  0  0  0  0  0  0
  130.7770  127.1130   62.7120 N   0  0  0  0  0  0  0  0  0  0  0  0
  130.2910  127.7440   61.6230 C   0  0  0  0  0  0  0  0  0  0  0  0
  130.5470  127.3790   60.4730 O   0  0  0  0  0  0  0  0  0  0  0  0
  129.4240  128.8930   61.8830 C   0  0  0  0  0  0  0  0  0  0  0  0
  129.4970  130.3100   60.8390 S   0  0  0  0  0  0  0  0  0  0  0  0
  128.2180  131.0910   61.7380 C   0  0  0  0  0  0  0  0  0  0  0  0
  127.7760  132.3020   61.4080 N   0  0  0  0  0  0  0  0  0  0  0  0
  126.7790  132.8290   62.1660 C   0  0  0  0  0  0  0  0  0  0  0  0
  126.2910  134.1890   61.7560 C   0  0  0  0  0  0  0  0  0  0  0  0
  127.1580  135.2940   61.7520 C   0  0  0  0  0  0  0  0  0  0  0  0
  126.7100  136.5580   61.3750 C   0  0  0  0  0  0  0  0  0  0  0  0
  125.3840  136.7350   60.9950 C   0  0  0  0  0  0  0  0  0  0  0  0
  124.5050  135.6570   60.9850 C   0  0  0  0  0  0  0  0  0  0  0  0
  124.9570  134.3950   61.3620 C   0  0  0  0  0  0  0  0  0  0  0  0
  126.2260  132.1340   63.2460 C   0  0  0  0  0  0  0  0  0  0  0  0
  126.6850  130.8570   63.6040 C   0  0  0  0  0  0  0  0  0  0  0  0
  126.0370  130.1530   64.8020 C   0  0  0  0  0  0  0  0  0  0  0  0
  125.7920  128.8610   64.5800 F   0  0  0  0  0  0  0  0  0  0  0  0
  126.8420  130.2310   65.8610 F   0  0  0  0  0  0  0  0  0  0  0  0
  124.8730  130.7360   65.0900 F   0  0  0  0  0  0  0  0  0  0  0  0
  127.7320  130.2960   62.8170 C   0  0  0  0  0  0  0  0  0  0  0  0
  128.4370  129.0380   62.8700 C   0  0  0  0  0  0  0  0  0  0  0  0
  128.1660  128.0730   63.8070 N   0  0  0  0  0  0  0  0  0  0  0  0
  1  2  1  0
  2  3  1  0
  3  4  1  0
  4  5  1  0
  5  6  1  0
  6  7  1  0
  7  8  1  0
  8  9  1  0
  9 10  1  0
 10 11  1  0
 11 12  1  0
 12 13  2  0
 12 14  1  0
 14 15  1  0
 15 16  1  0
 16 17  2  0
 17 18  1  0
 18 19  1  0
 19 20  2  0
 20 21  1  0
 21 22  2  0
 22 23  1  0
 23 24  2  0
 18 25  2  0
 25 26  1  0
 26 27  1  0
 27 28  1  0
 27 29  1  0
 27 30  1  0
 26 31  2  0
 31 32  1  0
 32 33  1  0
 32 14  2  0
 31 16  1  0
 24 19  1  0
M  END
>  <Binding energies>  (59) 
[-6.02]

>  <Ligand effiencies>  (59) 
[-0.16722222222222222]

>  <Interactions>  (59) 
["V-B:LEU:475:CD2:9230, V-B:GLY:454:CA:9020, V-B:ILE:369:CG2:8208, V-A:TYR:539:CE1:4873, V-A:TYR:539:CD1:4871, V-A:ALA:541:CB:4890, V-B:PRO:540:C:9853, V-B:TYR:539:C:9839, H-B:ALA:541:N:9863, V-B:PRO:540:CA:9855, H-B:GLU:543:OE1:9881, V-B:HIS:456:CE1:9040, H-B:GLU:543:OE2:9882, V-B:GLU:543:CD:9880, H-A:GLU:543:OE2:4908, V-A:GLU:543:CD:4906, V-B:ARG:545:CZ:9898, V-A:ARG:545:CZ:4924, V-B:TYR:484:CE2:9317, H-A:GLU:543:OE1:4907, V-B:ALA:541:CB:9864, V-B:TYR:484:CZ:9318, V-B:ALA:541:CA:9862, V-B:PRO:482:CG:9298, V-B:PRO:482:CB:9297, V-B:SER:385:CA:8378, V-B:LEU:373:CD1:8251"]

$$$$
4dd_Grossjean_2025
     RDKit          3D

 26 29  0  0  0  0  0  0  0  0999 V2000
  132.3660  124.7150   64.2310 C   0  0  0  0  0  0  0  0  0  0  0  0
  131.5080  124.0240   63.1810 C   0  0  0  0  0  0  0  0  0  0  0  0
  131.8650  122.7290   62.7860 C   0  0  0  0  0  0  0  0  0  0  0  0
  131.1170  122.0390   61.8240 C   0  0  0  0  0  0  0  0  0  0  0  0
  131.4780  120.6530   61.3770 C   0  0  0  0  0  0  0  0  0  0  0  0
  132.7830  120.3510   60.9550 C   0  0  0  0  0  0  0  0  0  0  0  0
  133.1260  119.0660   60.5420 C   0  0  0  0  0  0  0  0  0  0  0  0
  132.1650  118.0620   60.5430 C   0  0  0  0  0  0  0  0  0  0  0  0
  130.8650  118.3320   60.9580 C   0  0  0  0  0  0  0  0  0  0  0  0
  130.5270  119.6180   61.3720 C   0  0  0  0  0  0  0  0  0  0  0  0
  130.0270  122.5940   61.2270 N   0  0  0  0  0  0  0  0  0  0  0  0
  129.6830  123.8240   61.6070 C   0  0  0  0  0  0  0  0  0  0  0  0
  128.2940  124.6490   60.9350 S   0  0  0  0  0  0  0  0  0  0  0  0
  128.5930  126.0690   61.9400 C   0  0  0  0  0  0  0  0  0  0  0  0
  127.7000  127.2280   61.8690 C   0  0  0  0  0  0  0  0  0  0  0  0
  127.2340  127.5960   60.7900 O   0  0  0  0  0  0  0  0  0  0  0  0
  127.4370  127.8310   63.0540 N   0  0  0  0  0  0  0  0  0  0  0  0
  126.6740  128.9810   63.3240 C   0  0  0  0  0  0  0  0  0  0  0  0
  127.0950  129.7530   64.4110 C   0  0  0  0  0  0  0  0  0  0  0  0
  126.4140  130.9190   64.7510 C   0  0  0  0  0  0  0  0  0  0  0  0
  125.3140  131.3190   63.9980 C   0  0  0  0  0  0  0  0  0  0  0  0
  124.8910  130.5670   62.9050 C   0  0  0  0  0  0  0  0  0  0  0  0
  125.5700  129.4010   62.5630 C   0  0  0  0  0  0  0  0  0  0  0  0
  129.7270  125.8880   62.7460 C   0  0  0  0  0  0  0  0  0  0  0  0
  130.1980  126.8320   63.6250 N   0  0  0  0  0  0  0  0  0  0  0  0
  130.3670  124.6100   62.5770 C   0  0  0  0  0  0  0  0  0  0  0  0
  1  2  1  0
  2  3  2  0
  3  4  1  0
  4  5  1  0
  5  6  2  0
  6  7  1  0
  7  8  2  0
  8  9  1  0
  9 10  2  0
  4 11  2  0
 11 12  1  0
 12 13  1  0
 13 14  1  0
 14 15  1  0
 15 16  2  0
 15 17  1  0
 17 18  1  0
 18 19  2  0
 19 20  1  0
 20 21  2  0
 21 22  1  0
 22 23  2  0
 14 24  2  0
 24 25  1  0
 24 26  1  0
 26  2  1  0
 10  5  1  0
 26 12  2  0
 23 18  1  0
M  END
>  <Binding energies>  (60) 
[-7.87]

>  <Ligand effiencies>  (60) 
[-0.2713793103448276]

>  <Interactions>  (60) 
["V-B:GLY:454:CA:9020, V-B:TYR:539:CE1:9847, V-A:LEU:475:CD2:4256, V-B:TYR:539:CD1:9845, H-B:GLU:543:OE1:9881, V-A:ILE:369:CG2:3234, H-B:GLU:543:OE2:9882, V-B:GLU:543:CD:9880, H-A:GLU:543:OE2:4908, V-A:GLU:543:CD:4906, V-B:ARG:545:CZ:9898, V-A:SER:385:CA:3404, H-A:GLU:543:OE1:4907, V-B:ALA:541:CB:9864, V-A:SER:385:CB:3406, V-A:LEU:373:CD1:3277, V-A:PRO:482:CB:4323, V-A:PRO:482:CG:4324"]

$$$$
4dg_Grossjean_2025
     RDKit          3D

 27 30  0  0  0  0  0  0  0  0999 V2000
  133.0250  124.6290   63.8870 C   0  0  0  0  0  0  0  0  0  0  0  0
  131.9890  123.9310   63.0190 C   0  0  0  0  0  0  0  0  0  0  0  0
  132.2520  122.6210   62.6010 C   0  0  0  0  0  0  0  0  0  0  0  0
  131.3390  121.9250   61.8000 C   0  0  0  0  0  0  0  0  0  0  0  0
  131.5920  120.5170   61.3380 C   0  0  0  0  0  0  0  0  0  0  0  0
  132.8550  120.1330   60.8590 C   0  0  0  0  0  0  0  0  0  0  0  0
  133.0940  118.8310   60.4250 C   0  0  0  0  0  0  0  0  0  0  0  0
  132.0710  117.8910   60.4650 C   0  0  0  0  0  0  0  0  0  0  0  0
  130.8080  118.2450   60.9310 C   0  0  0  0  0  0  0  0  0  0  0  0
  130.5740  119.5480   61.3620 C   0  0  0  0  0  0  0  0  0  0  0  0
  130.1580  122.4770   61.4110 N   0  0  0  0  0  0  0  0  0  0  0  0
  129.9060  123.7240   61.8070 C   0  0  0  0  0  0  0  0  0  0  0  0
  128.4300  124.5540   61.3720 S   0  0  0  0  0  0  0  0  0  0  0  0
  128.9280  125.9950   62.2570 C   0  0  0  0  0  0  0  0  0  0  0  0
  128.0800  127.1860   62.2600 C   0  0  0  0  0  0  0  0  0  0  0  0
  127.0370  127.2320   61.6050 O   0  0  0  0  0  0  0  0  0  0  0  0
  128.5310  128.2290   62.9860 N   0  0  0  0  0  0  0  0  0  0  0  0
  127.8400  129.5080   63.1510 C   0  0  0  0  0  0  0  0  0  0  0  0
  126.8160  129.5020   64.2800 C   0  0  0  0  0  0  0  0  0  0  0  0
  125.4590  129.6620   63.9870 C   0  0  0  0  0  0  0  0  0  0  0  0
  124.5180  129.6260   65.0120 C   0  0  0  0  0  0  0  0  0  0  0  0
  124.9350  129.4180   66.3250 C   0  0  0  0  0  0  0  0  0  0  0  0
  126.2850  129.2400   66.6220 C   0  0  0  0  0  0  0  0  0  0  0  0
  127.2260  129.2750   65.5970 C   0  0  0  0  0  0  0  0  0  0  0  0
  130.1920  125.8230   62.8420 C   0  0  0  0  0  0  0  0  0  0  0  0
  130.8300  126.7890   63.5780 N   0  0  0  0  0  0  0  0  0  0  0  0
  130.7680  124.5260   62.6090 C   0  0  0  0  0  0  0  0  0  0  0  0
  1  2  1  0
  2  3  2  0
  3  4  1  0
  4  5  1  0
  5  6  2  0
  6  7  1  0
  7  8  2  0
  8  9  1  0
  9 10  2  0
  4 11  2  0
 11 12  1  0
 12 13  1  0
 13 14  1  0
 14 15  1  0
 15 16  2  0
 15 17  1  0
 17 18  1  0
 18 19  1  0
 19 20  2  0
 20 21  1  0
 21 22  2  0
 22 23  1  0
 23 24  2  0
 14 25  2  0
 25 26  1  0
 25 27  1  0
 27  2  1  0
 10  5  1  0
 27 12  2  0
 24 19  1  0
M  END
>  <Binding energies>  (61) 
[-7.85]

>  <Ligand effiencies>  (61) 
[-0.26166666666666666]

>  <Interactions>  (61) 
["V-B:TYR:539:CE1:9847, V-A:LEU:475:CD2:4256, V-B:TYR:539:CD1:9845, V-A:GLY:454:CA:4046, H-B:ARG:545:NH2:9900, V-A:ILE:369:CG2:3234, V-B:GLY:453:CA:9015, V-B:HIS:456:CE1:9040, H-B:GLU:543:OE2:9882, V-B:GLU:543:CD:9880, H-A:GLU:543:OE2:4908, V-A:GLU:543:CD:4906, V-B:ARG:545:CZ:9898, V-B:ARG:545:CG:9894, V-A:ARG:545:CZ:4924, V-A:SER:385:CA:3404, H-A:GLU:543:OE1:4907, V-B:ALA:541:CB:9864, V-B:ARG:545:CD:9895, V-A:SER:385:CB:3406, V-A:LEU:373:CD1:3277, V-A:PRO:482:CB:4323, V-A:PRO:482:CG:4324"]

$$$$
4dj_Grossjean_2025
     RDKit          3D

 25 28  0  0  0  0  0  0  0  0999 V2000
  132.4810  124.7510   64.1260 C   0  0  0  0  0  0  0  0  0  0  0  0
  131.5700  124.0440   63.1330 C   0  0  0  0  0  0  0  0  0  0  0  0
  131.9100  122.7460   62.7330 C   0  0  0  0  0  0  0  0  0  0  0  0
  131.1150  122.0420   61.8210 C   0  0  0  0  0  0  0  0  0  0  0  0
  131.4520  120.6470   61.3780 C   0  0  0  0  0  0  0  0  0  0  0  0
  132.7460  120.3250   60.9360 C   0  0  0  0  0  0  0  0  0  0  0  0
  133.0650  119.0340   60.5240 C   0  0  0  0  0  0  0  0  0  0  0  0
  132.0890  118.0420   60.5440 C   0  0  0  0  0  0  0  0  0  0  0  0
  130.7990  118.3340   60.9730 C   0  0  0  0  0  0  0  0  0  0  0  0
  130.4850  119.6260   61.3850 C   0  0  0  0  0  0  0  0  0  0  0  0
  129.9760  122.5750   61.3000 N   0  0  0  0  0  0  0  0  0  0  0  0
  129.6510  123.8110   61.6790 C   0  0  0  0  0  0  0  0  0  0  0  0
  128.2190  124.6190   61.0810 S   0  0  0  0  0  0  0  0  0  0  0  0
  128.5760  126.0590   62.0380 C   0  0  0  0  0  0  0  0  0  0  0  0
  127.6900  127.2220   61.9810 C   0  0  0  0  0  0  0  0  0  0  0  0
  127.2320  127.6140   60.9040 O   0  0  0  0  0  0  0  0  0  0  0  0
  127.4310  127.8180   63.1710 N   0  0  0  0  0  0  0  0  0  0  0  0
  126.6310  128.9300   63.3920 C   0  0  0  0  0  0  0  0  0  0  0  0
  125.8000  129.5070   62.5510 N   0  0  0  0  0  0  0  0  0  0  0  0
  125.2000  130.5460   63.0980 C   0  0  0  0  0  0  0  0  0  0  0  0
  125.5420  130.8310   64.4160 C   0  0  0  0  0  0  0  0  0  0  0  0
  126.7160  129.6680   64.9590 S   0  0  0  0  0  0  0  0  0  0  0  0
  129.7590  125.8960   62.7750 C   0  0  0  0  0  0  0  0  0  0  0  0
  130.2790  126.8570   63.6050 N   0  0  0  0  0  0  0  0  0  0  0  0
  130.3910  124.6180   62.5900 C   0  0  0  0  0  0  0  0  0  0  0  0
  1  2  1  0
  2  3  2  0
  3  4  1  0
  4  5  1  0
  5  6  2  0
  6  7  1  0
  7  8  2  0
  8  9  1  0
  9 10  2  0
  4 11  2  0
 11 12  1  0
 12 13  1  0
 13 14  1  0
 14 15  1  0
 15 16  2  0
 15 17  1  0
 17 18  1  0
 18 19  2  0
 19 20  1  0
 20 21  2  0
 21 22  1  0
 14 23  2  0
 23 24  1  0
 23 25  1  0
 25  2  1  0
 10  5  1  0
 25 12  2  0
 22 18  1  0
M  END
>  <Binding energies>  (62) 
[-7.37]

>  <Ligand effiencies>  (62) 
[-0.26321428571428573]

>  <Interactions>  (62) 
["V-B:TYR:539:CE1:9847, V-A:LEU:475:CD2:4256, V-B:TYR:539:CD1:9845, H-B:GLU:543:OE1:9881, H-B:ARG:545:NH2:9900, V-A:ILE:369:CG2:3234, H-B:GLU:543:OE2:9882, V-B:GLU:543:CD:9880, H-A:GLU:543:OE2:4908, V-A:GLU:543:CD:4906, V-B:ARG:545:CZ:9898, V-A:SER:385:CA:3404, H-A:GLU:543:OE1:4907, V-B:ALA:541:CB:9864, V-A:SER:385:CB:3406, V-A:LEU:373:CD1:3277, V-A:PRO:482:CB:4323, V-A:PRO:482:CG:4324"]

$$$$
4ea_Grossjean_2025
     RDKit          3D

 31 34  0  0  0  0  0  0  0  0999 V2000
  124.5500  136.1690   61.0540 C   0  0  0  0  0  0  0  0  0  0  0  0
  125.3670  134.9130   61.3690 C   0  0  0  0  0  0  0  0  0  0  0  0
  124.5430  133.7640   61.2250 O   0  0  0  0  0  0  0  0  0  0  0  0
  124.2140  132.9970   62.2960 C   0  0  0  0  0  0  0  0  0  0  0  0
  123.3990  133.3450   63.1560 O   0  0  0  0  0  0  0  0  0  0  0  0
  124.9420  131.6840   62.3310 C   0  0  0  0  0  0  0  0  0  0  0  0
  125.4270  131.1400   61.1350 C   0  0  0  0  0  0  0  0  0  0  0  0
  126.1050  129.9250   61.1330 C   0  0  0  0  0  0  0  0  0  0  0  0
  126.3130  129.2290   62.3240 C   0  0  0  0  0  0  0  0  0  0  0  0
  127.0110  128.0120   62.2010 N   0  0  0  0  0  0  0  0  0  0  0  0
  127.1520  127.1830   61.1370 C   0  0  0  0  0  0  0  0  0  0  0  0
  126.6520  127.3850   60.0300 O   0  0  0  0  0  0  0  0  0  0  0  0
  127.9620  125.9870   61.3810 C   0  0  0  0  0  0  0  0  0  0  0  0
  127.7400  124.5410   60.3930 S   0  0  0  0  0  0  0  0  0  0  0  0
  128.9830  123.6860   61.2760 C   0  0  0  0  0  0  0  0  0  0  0  0
  129.3190  122.4290   60.9820 N   0  0  0  0  0  0  0  0  0  0  0  0
  130.2990  121.8810   61.7430 C   0  0  0  0  0  0  0  0  0  0  0  0
  130.6660  120.4510   61.3920 C   0  0  0  0  0  0  0  0  0  0  0  0
  130.9430  122.5530   62.7790 C   0  0  0  0  0  0  0  0  0  0  0  0
  130.5880  123.8720   63.0830 C   0  0  0  0  0  0  0  0  0  0  0  0
  131.2820  124.5730   64.1870 C   0  0  0  0  0  0  0  0  0  0  0  0
  130.5680  124.9840   65.3180 C   0  0  0  0  0  0  0  0  0  0  0  0
  131.2200  125.6410   66.3570 C   0  0  0  0  0  0  0  0  0  0  0  0
  132.5870  125.8910   66.2640 C   0  0  0  0  0  0  0  0  0  0  0  0
  133.3070  125.4900   65.1410 C   0  0  0  0  0  0  0  0  0  0  0  0
  132.6530  124.8330   64.1030 C   0  0  0  0  0  0  0  0  0  0  0  0
  129.5640  124.4830   62.3090 C   0  0  0  0  0  0  0  0  0  0  0  0
  128.9630  125.7910   62.3460 C   0  0  0  0  0  0  0  0  0  0  0  0
  129.3470  126.7470   63.2510 N   0  0  0  0  0  0  0  0  0  0  0  0
  125.8310  129.7660   63.5280 C   0  0  0  0  0  0  0  0  0  0  0  0
  125.1530  130.9820   63.5270 C   0  0  0  0  0  0  0  0  0  0  0  0
  1  2  1  0
  2  3  1  0
  3  4  1  0
  4  5  2  0
  4  6  1  0
  6  7  2  0
  7  8  1  0
  8  9  2  0
  9 10  1  0
 10 11  1  0
 11 12  2  0
 11 13  1  0
 13 14  1  0
 14 15  1  0
 15 16  2  0
 16 17  1  0
 17 18  1  0
 17 19  2  0
 19 20  1  0
 20 21  1  0
 21 22  2  0
 22 23  1  0
 23 24  2  0
 24 25  1  0
 25 26  2  0
 20 27  2  0
 27 28  1  0
 28 29  1  0
  9 30  1  0
 30 31  2  0
 31  6  1  0
 28 13  2  0
 27 15  1  0
 26 21  1  0
M  END
>  <Binding energies>  (63) 
[-7.02]

>  <Ligand effiencies>  (63) 
[-0.2064705882352941]

>  <Interactions>  (63) 
["V-B:LEU:475:CD2:9230, V-B:GLY:454:CA:9020, V-B:ILE:369:CG2:8208, V-A:TYR:539:CE1:4873, V-B:ILE:369:CD1:8210, V-A:TYR:539:CD1:4871, V-B:TYR:539:CE1:9847, V-A:LEU:475:CD2:4256, V-B:TYR:539:CD1:9845, H-B:GLU:543:OE1:9881, H-B:GLU:543:OE2:9882, V-B:GLU:543:CD:9880, V-B:GLU:543:CB:9878, V-A:HIS:456:CE1:4066, H-A:GLU:543:OE2:4908, H-B:GLY:454:N:9021, V-B:ARG:545:CZ:9898, V-A:ARG:545:CZ:4924, V-A:ARG:545:CG:4920, V-A:ARG:545:CD:4921, H-A:GLU:543:OE1:4907, V-B:ALA:541:CB:9864, V-B:SER:385:CA:8378, V-B:SER:385:CB:8380, V-B:LEU:373:CD1:8251"]

$$$$
4eb_Grossjean_2025
     RDKit          3D

 30 33  0  0  0  0  0  0  0  0999 V2000
  124.1940  135.2990   61.4050 C   0  0  0  0  0  0  0  0  0  0  0  0
  124.8940  134.1010   61.7060 O   0  0  0  0  0  0  0  0  0  0  0  0
  124.3650  133.1740   62.5460 C   0  0  0  0  0  0  0  0  0  0  0  0
  123.3540  133.3710   63.2250 O   0  0  0  0  0  0  0  0  0  0  0  0
  125.1330  131.8830   62.5650 C   0  0  0  0  0  0  0  0  0  0  0  0
  125.1270  131.0680   61.4260 C   0  0  0  0  0  0  0  0  0  0  0  0
  125.8290  129.8660   61.4120 C   0  0  0  0  0  0  0  0  0  0  0  0
  126.5500  129.4550   62.5340 C   0  0  0  0  0  0  0  0  0  0  0  0
  127.2210  128.2230   62.4060 N   0  0  0  0  0  0  0  0  0  0  0  0
  127.4410  127.4520   61.3130 C   0  0  0  0  0  0  0  0  0  0  0  0
  127.0590  127.7340   60.1770 O   0  0  0  0  0  0  0  0  0  0  0  0
  128.1880  126.2160   61.5600 C   0  0  0  0  0  0  0  0  0  0  0  0
  127.9040  124.7880   60.5630 S   0  0  0  0  0  0  0  0  0  0  0  0
  129.0940  123.8680   61.4550 C   0  0  0  0  0  0  0  0  0  0  0  0
  129.3700  122.5970   61.1590 N   0  0  0  0  0  0  0  0  0  0  0  0
  130.3120  121.9980   61.9260 C   0  0  0  0  0  0  0  0  0  0  0  0
  130.6100  120.5520   61.5720 C   0  0  0  0  0  0  0  0  0  0  0  0
  130.9790  122.6310   62.9720 C   0  0  0  0  0  0  0  0  0  0  0  0
  130.6860  123.9650   63.2790 C   0  0  0  0  0  0  0  0  0  0  0  0
  131.4030  124.6260   64.3940 C   0  0  0  0  0  0  0  0  0  0  0  0
  130.7040  125.0400   65.5320 C   0  0  0  0  0  0  0  0  0  0  0  0
  131.3770  125.6600   66.5810 C   0  0  0  0  0  0  0  0  0  0  0  0
  132.7520  125.8680   66.4910 C   0  0  0  0  0  0  0  0  0  0  0  0
  133.4570  125.4620   65.3600 C   0  0  0  0  0  0  0  0  0  0  0  0
  132.7820  124.8430   64.3120 C   0  0  0  0  0  0  0  0  0  0  0  0
  129.7030  124.6300   62.4970 C   0  0  0  0  0  0  0  0  0  0  0  0
  129.1670  125.9660   62.5340 C   0  0  0  0  0  0  0  0  0  0  0  0
  129.5890  126.8990   63.4480 N   0  0  0  0  0  0  0  0  0  0  0  0
  126.5610  130.2650   63.6800 C   0  0  0  0  0  0  0  0  0  0  0  0
  125.8590  131.4660   63.6920 C   0  0  0  0  0  0  0  0  0  0  0  0
  1  2  1  0
  2  3  1  0
  3  4  2  0
  3  5  1  0
  5  6  2  0
  6  7  1  0
  7  8  2  0
  8  9  1  0
  9 10  1  0
 10 11  2  0
 10 12  1  0
 12 13  1  0
 13 14  1  0
 14 15  2  0
 15 16  1  0
 16 17  1  0
 16 18  2  0
 18 19  1  0
 19 20  1  0
 20 21  2  0
 21 22  1  0
 22 23  2  0
 23 24  1  0
 24 25  2  0
 19 26  2  0
 26 27  1  0
 27 28  1  0
  8 29  1  0
 29 30  2  0
 30  5  1  0
 27 12  2  0
 26 14  1  0
 25 20  1  0
M  END
>  <Binding energies>  (64) 
[-6.72]

>  <Ligand effiencies>  (64) 
[-0.20363636363636362]

>  <Interactions>  (64) 
["V-B:LEU:475:CD2:9230, V-B:GLY:454:CA:9020, V-B:ILE:369:CG2:8208, V-A:TYR:539:CE1:4873, V-B:ILE:369:CD1:8210, V-A:TYR:539:CD1:4871, V-B:ASP:366:CG:8184, V-A:LEU:475:CD2:4256, V-B:TYR:539:CD1:9845, H-B:GLU:543:OE1:9881, H-B:GLU:543:OE2:9882, V-B:GLU:543:CD:9880, V-B:GLU:543:CB:9878, V-A:HIS:456:CE1:4066, H-A:GLU:543:OE2:4908, H-B:GLY:454:N:9021, V-A:TYR:484:CZ:4344, V-A:GLU:543:CD:4906, V-A:ARG:545:CZ:4924, V-A:ARG:545:CG:4920, V-A:ARG:545:CD:4921, H-A:GLU:543:OE1:4907, V-B:ALA:541:CB:9864, V-B:SER:385:CA:8378, V-B:SER:385:CB:8380, V-B:SER:385:C:8376, V-B:LEU:373:CD1:8251"]

$$$$
8b_Ghoteimi_2023
     RDKit          3D

 34 38  0  0  0  0  0  0  0  0999 V2000
  128.4410  133.7400   61.6800 C   0  0  0  0  0  0  0  0  0  0  0  0
  129.7390  133.1590   61.7560 O   0  0  0  0  0  0  0  0  0  0  0  0
  129.8810  131.7990   61.5590 C   0  0  0  0  0  0  0  0  0  0  0  0
  128.7300  131.0260   61.7020 C   0  0  0  0  0  0  0  0  0  0  0  0
  128.7780  129.6470   61.5240 C   0  0  0  0  0  0  0  0  0  0  0  0
  129.9810  129.0030   61.1980 C   0  0  0  0  0  0  0  0  0  0  0  0
  130.0380  127.5210   61.0080 C   0  0  0  0  0  0  0  0  0  0  0  0
  128.9840  126.8120   60.4220 C   0  0  0  0  0  0  0  0  0  0  0  0
  129.0620  125.4260   60.2550 C   0  0  0  0  0  0  0  0  0  0  0  0
  127.9240  124.7040   59.6400 C   0  0  0  0  0  0  0  0  0  0  0  0
  127.9260  124.4230   58.2730 C   0  0  0  0  0  0  0  0  0  0  0  0
  126.8600  123.7360   57.6990 C   0  0  0  0  0  0  0  0  0  0  0  0
  125.7790  123.3230   58.4790 C   0  0  0  0  0  0  0  0  0  0  0  0
  124.7680  122.6460   57.8240 O   0  0  0  0  0  0  0  0  0  0  0  0
  123.4230  123.0830   57.9840 C   0  0  0  0  0  0  0  0  0  0  0  0
  125.7780  123.6100   59.8520 C   0  0  0  0  0  0  0  0  0  0  0  0
  126.8450  124.2970   60.4260 C   0  0  0  0  0  0  0  0  0  0  0  0
  130.2430  124.7660   60.6890 C   0  0  0  0  0  0  0  0  0  0  0  0
  130.6560  123.3870   60.6660 C   0  0  0  0  0  0  0  0  0  0  0  0
  129.8620  122.3920   60.1550 N   0  0  0  0  0  0  0  0  0  0  0  0
  131.9310  123.1660   61.2080 C   0  0  0  0  0  0  0  0  0  0  0  0
  132.6590  121.9020   61.3390 C   0  0  0  0  0  0  0  0  0  0  0  0
  133.6860  121.8350   62.0200 O   0  0  0  0  0  0  0  0  0  0  0  0
  132.1250  120.8500   60.6690 N   0  0  0  0  0  0  0  0  0  0  0  0
  132.6010  119.5470   60.6230 C   0  0  0  0  0  0  0  0  0  0  0  0
  131.8150  118.4380   60.9310 C   0  0  0  0  0  0  0  0  0  0  0  0
  132.6470  117.3530   60.7700 C   0  0  0  0  0  0  0  0  0  0  0  0
  133.8700  117.7870   60.3820 O   0  0  0  0  0  0  0  0  0  0  0  0
  133.8280  119.1790   60.2910 N   0  0  0  0  0  0  0  0  0  0  0  0
  132.6580  124.6750   61.7620 S   0  0  0  0  0  0  0  0  0  0  0  0
  131.2530  125.5890   61.2650 C   0  0  0  0  0  0  0  0  0  0  0  0
  131.1780  126.9100   61.4280 N   0  0  0  0  0  0  0  0  0  0  0  0
  131.1330  129.7870   61.0540 C   0  0  0  0  0  0  0  0  0  0  0  0
  131.0890  131.1670   61.2320 C   0  0  0  0  0  0  0  0  0  0  0  0
  1  2  1  0
  2  3  1  0
  3  4  2  0
  4  5  1  0
  5  6  2  0
  6  7  1  0
  7  8  2  0
  8  9  1  0
  9 10  1  0
 10 11  2  0
 11 12  1  0
 12 13  2  0
 13 14  1  0
 14 15  1  0
 13 16  1  0
 16 17  2  0
  9 18  2  0
 18 19  1  0
 19 20  1  0
 19 21  2  0
 21 22  1  0
 22 23  2  0
 22 24  1  0
 24 25  1  0
 25 26  1  0
 26 27  2  0
 27 28  1  0
 28 29  1  0
 21 30  1  0
 30 31  1  0
 31 32  2  0
  6 33  1  0
 33 34  2  0
 34  3  1  0
 32  7  1  0
 17 10  1  0
 31 18  1  0
 29 25  2  0
M  END
>  <Binding energies>  (65) 
[-5.21]

>  <Ligand effiencies>  (65) 
[-0.14081081081081082]

>  <Interactions>  (65) 
["V-A:TYR:539:CD1:4871, H-A:ALA:541:N:4889, V-A:PRO:540:CA:4881, V-A:ALA:541:CB:4890, V-B:TYR:539:CE1:9847, V-B:PRO:540:N:9856, V-B:PRO:540:CA:9855, V-A:LEU:475:CD2:4256, V-B:TYR:539:CD1:9845, H-A:ARG:545:NH2:4926, V-A:PRO:540:C:4879, V-A:SER:385:CA:3404, V-B:PRO:540:CD:9859, V-B:PRO:540:CB:9857, V-B:PRO:540:CG:9858, V-A:SER:385:CB:3406, V-A:LEU:373:CD1:3277, V-B:LEU:363:CA:8156, V-B:LEU:363:CD1:8160, H-B:TYR:539:O:9840, V-A:ALA:541:CA:4888, V-B:LEU:363:CB:8158, H-A:SER:385:N:3405, V-B:LEU:363:CG:8159"]

$$$$
9d_Ghoteimi_2023
     RDKit          3D

 38 43  0  0  0  0  0  0  0  0999 V2000
  133.6690  122.2040   60.2650 C   0  0  0  0  0  0  0  0  0  0  0  0
  134.2610  123.3880   59.7510 O   0  0  0  0  0  0  0  0  0  0  0  0
  134.6820  124.3740   60.5860 C   0  0  0  0  0  0  0  0  0  0  0  0
  135.7770  124.9350   60.4930 O   0  0  0  0  0  0  0  0  0  0  0  0
  133.6890  124.7080   61.6300 C   0  0  0  0  0  0  0  0  0  0  0  0
  134.2310  125.1180   63.2580 S   0  0  0  0  0  0  0  0  0  0  0  0
  132.5850  125.3790   63.7830 C   0  0  0  0  0  0  0  0  0  0  0  0
  132.3030  125.7750   65.0230 N   0  0  0  0  0  0  0  0  0  0  0  0
  130.9920  125.9670   65.3270 C   0  0  0  0  0  0  0  0  0  0  0  0
  130.7010  126.4360   66.7170 C   0  0  0  0  0  0  0  0  0  0  0  0
  129.5680  125.9790   67.3970 C   0  0  0  0  0  0  0  0  0  0  0  0
  129.2870  126.4120   68.6900 C   0  0  0  0  0  0  0  0  0  0  0  0
  130.1380  127.3090   69.3560 C   0  0  0  0  0  0  0  0  0  0  0  0
  129.8590  127.7660   70.6490 N   0  0  0  0  0  0  0  0  0  0  0  0
  128.5050  127.6590   71.2270 C   0  0  0  0  0  0  0  0  0  0  0  0
  128.2980  128.5110   72.4960 C   0  0  0  0  0  0  0  0  0  0  0  0
  129.2880  128.1950   73.4600 O   0  0  0  0  0  0  0  0  0  0  0  0
  130.5930  128.4600   72.9700 C   0  0  0  0  0  0  0  0  0  0  0  0
  130.8720  127.6070   71.7140 C   0  0  0  0  0  0  0  0  0  0  0  0
  131.2640  127.7750   68.6630 C   0  0  0  0  0  0  0  0  0  0  0  0
  131.5430  127.3450   67.3680 C   0  0  0  0  0  0  0  0  0  0  0  0
  129.9700  125.7300   64.4040 C   0  0  0  0  0  0  0  0  0  0  0  0
  130.2600  125.2950   63.1060 C   0  0  0  0  0  0  0  0  0  0  0  0
  129.1340  125.0320   62.1720 C   0  0  0  0  0  0  0  0  0  0  0  0
  128.8970  123.7450   61.6850 C   0  0  0  0  0  0  0  0  0  0  0  0
  127.8290  123.5000   60.8250 C   0  0  0  0  0  0  0  0  0  0  0  0
  126.9600  124.5340   60.4440 C   0  0  0  0  0  0  0  0  0  0  0  0
  125.8880  124.3160   59.5760 N   0  0  0  0  0  0  0  0  0  0  0  0
  124.6970  123.5990   60.0720 C   0  0  0  0  0  0  0  0  0  0  0  0
  123.4610  123.7680   59.1620 C   0  0  0  0  0  0  0  0  0  0  0  0
  123.7760  123.3700   57.8360 O   0  0  0  0  0  0  0  0  0  0  0  0
  124.8330  124.1470   57.2920 C   0  0  0  0  0  0  0  0  0  0  0  0
  126.1030  123.9830   58.1540 C   0  0  0  0  0  0  0  0  0  0  0  0
  127.2080  125.8220   60.9380 C   0  0  0  0  0  0  0  0  0  0  0  0
  128.2770  126.0670   61.7960 C   0  0  0  0  0  0  0  0  0  0  0  0
  131.6290  125.1280   62.7540 C   0  0  0  0  0  0  0  0  0  0  0  0
  132.2940  124.7660   61.5290 C   0  0  0  0  0  0  0  0  0  0  0  0
  131.6200  124.5200   60.3610 N   0  0  0  0  0  0  0  0  0  0  0  0
  1  2  1  0
  2  3  1  0
  3  4  2  0
  3  5  1  0
  5  6  1  0
  6  7  1  0
  7  8  2  0
  8  9  1  0
  9 10  1  0
 10 11  2  0
 11 12  1  0
 12 13  2  0
 13 14  1  0
 14 15  1  0
 15 16  1  0
 16 17  1  0
 17 18  1  0
 18 19  1  0
 13 20  1  0
 20 21  2  0
  9 22  2  0
 22 23  1  0
 23 24  1  0
 24 25  2  0
 25 26  1  0
 26 27  2  0
 27 28  1  0
 28 29  1  0
 29 30  1  0
 30 31  1  0
 31 32  1  0
 32 33  1  0
 27 34  1  0
 34 35  2  0
 23 36  2  0
 36 37  1  0
 37 38  1  0
 37  5  2  0
 36  7  1  0
 21 10  1  0
 35 24  1  0
 19 14  1  0
 33 28  1  0
M  END
>  <Binding energies>  (66) 
[-3.23]

>  <Ligand effiencies>  (66) 
[-0.08075]

>  <Interactions>  (66) 
["V-B:ASP:366:CB:8183, V-B:ASP:366:CG:8184, V-B:TYR:539:CE1:9847, V-A:ILE:369:CD1:3236, V-B:PRO:540:CA:9855, V-A:GLY:453:C:4039, V-A:GLY:454:CA:4046, V-A:GLU:543:CG:4905, V-A:ASP:366:CG:3210, V-A:ILE:369:CG2:3234, V-B:HIS:456:CE1:9040, V-B:GLU:543:CD:9880, H-A:ARG:545:NH2:4926, V-B:GLU:543:CB:9878, V-B:GLU:543:CG:9879, V-A:HIS:456:CE1:4066, V-A:ASP:366:CA:3207, V-A:GLU:543:CD:4906, V-B:GLU:543:C:9874, V-A:ILE:369:CB:3233, V-A:ARG:545:CZ:4924, V-A:ARG:545:CG:4920, V-A:ARG:545:CD:4921, V-B:PRO:540:CB:9857, V-B:TYR:531:CE2:9765, V-B:TYR:531:CZ:9766, V-A:ILE:369:CG1:3235, V-A:HIS:456:CD2:4065, V-A:GLY:453:CA:4041, V-A:GLY:544:C:4910, H-A:TYR:484:OH:4345, H-A:ARG:545:NE:4922, V-B:LEU:363:CA:8156, V-B:LEU:363:CD1:8160, V-B:ASN:362:C:8143, V-A:GLY:544:CA:4912, V-A:GLU:543:C:4900, V-B:HIS:456:CD2:9039, V-B:HIS:456:CG:9037, V-A:LYS:547:CE:4948, H-A:LYS:547:NZ:4949, V-B:LEU:363:CB:8158, H-A:ASP:366:N:3208"]

$$$$
RR10_Rahimova_2017
     RDKit          3D

 34 38  0  0  0  0  0  0  0  0999 V2000
  134.7000  134.2080   72.2740 C   0  0  0  0  0  0  0  0  0  0  0  0
  133.3240  134.7930   72.6370 C   0  0  1  0  0  0  0  0  0  0  0  0
  132.1970  134.2040   71.7560 C   0  0  0  0  0  0  0  0  0  0  0  0
  130.8300  134.8310   72.1140 C   0  0  0  0  0  0  0  0  0  0  0  0
  130.4670  134.6270   73.6070 C   0  0  1  0  0  0  0  0  0  0  0  0
  130.2050  133.2100   73.8910 N   0  0  0  0  0  0  0  0  0  0  0  0
  128.9930  132.6250   73.8850 C   0  0  0  0  0  0  0  0  0  0  0  0
  127.9550  133.2320   73.6120 O   0  0  0  0  0  0  0  0  0  0  0  0
  128.9440  131.1280   74.2570 C   0  0  1  0  0  0  0  0  0  0  0  0
  127.6010  130.8180   74.9670 C   0  0  0  0  0  0  0  0  0  0  0  0
  127.5080  129.3010   75.2580 C   0  0  0  0  0  0  0  0  0  0  0  0
  127.7670  128.4390   74.0010 C   0  0  0  0  0  0  0  0  0  0  0  0
  129.0400  128.8410   73.3420 N   0  0  0  0  0  0  0  0  0  0  0  0
  129.5900  127.7350   72.0730 S   0  0  0  0  0  0  0  0  0  0  0  0
  130.8860  128.2150   71.5790 O   0  0  0  0  0  0  0  0  0  0  0  0
  128.4740  127.5280   71.1400 O   0  0  0  0  0  0  0  0  0  0  0  0
  129.9010  126.1810   72.9110 C   0  0  0  0  0  0  0  0  0  0  0  0
  130.9990  126.0760   73.7720 C   0  0  0  0  0  0  0  0  0  0  0  0
  131.2980  124.8920   74.4540 C   0  0  0  0  0  0  0  0  0  0  0  0
  130.4400  123.8120   74.2340 C   0  0  0  0  0  0  0  0  0  0  0  0
  130.3990  122.5190   74.6980 N   0  0  0  0  0  0  0  0  0  0  0  0
  129.3080  121.8970   74.1280 C   0  0  0  0  0  0  0  0  0  0  0  0
  128.9370  120.4650   74.3890 C   0  0  0  0  0  0  0  0  0  0  0  0
  127.9030  119.8560   73.6640 C   0  0  0  0  0  0  0  0  0  0  0  0
  127.5610  118.5280   73.9020 C   0  0  0  0  0  0  0  0  0  0  0  0
  128.2510  117.8000   74.8690 C   0  0  0  0  0  0  0  0  0  0  0  0
  129.2800  118.3900   75.5970 C   0  0  0  0  0  0  0  0  0  0  0  0
  129.6220  119.7190   75.3570 C   0  0  0  0  0  0  0  0  0  0  0  0
  128.6410  122.7040   73.3340 N   0  0  0  0  0  0  0  0  0  0  0  0
  129.3170  123.8950   73.3760 C   0  0  0  0  0  0  0  0  0  0  0  0
  129.0410  125.0960   72.7070 C   0  0  0  0  0  0  0  0  0  0  0  0
  129.0860  130.2780   72.9700 C   0  0  0  0  0  0  0  0  0  0  0  0
  131.6140  135.2070   74.4780 C   0  0  0  0  0  0  0  0  0  0  0  0
  132.9810  134.5780   74.1290 C   0  0  0  0  0  0  0  0  0  0  0  0
  2  1  1  6
  2  3  1  0
  3  4  1  0
  4  5  1  0
  5  6  1  6
  6  7  1  0
  7  8  2  0
  9  7  1  6
  9 10  1  0
 10 11  1  0
 11 12  1  0
 12 13  1  0
 13 14  1  0
 14 15  2  0
 14 16  2  0
 14 17  1  0
 17 18  2  0
 18 19  1  0
 19 20  2  0
 20 21  1  0
 21 22  1  0
 22 23  1  0
 23 24  2  0
 24 25  1  0
 25 26  2  0
 26 27  1  0
 27 28  2  0
 22 29  2  0
 29 30  1  0
 30 31  2  0
 13 32  1  0
  5 33  1  0
 33 34  1  0
 34  2  1  0
 32  9  1  0
 31 17  1  0
 30 20  1  0
 28 23  1  0
M  END
>  <Binding energies>  (67) 
[-8.55]

>  <Ligand effiencies>  (67) 
[-0.23750000000000002]

>  <Interactions>  (67) 
["V-B:GLU:543:C:9874, V-A:HIS:456:CD2:4065, H-B:HIS:456:NE2:9041, V-A:GLY:544:CA:4912, V-A:GLU:543:C:4900, V-B:HIS:456:CD2:9039, V-B:HIS:456:CG:9037, V-A:LYS:547:CE:4948, V-B:GLY:544:CA:9886, V-A:HIS:456:CG:4063, V-A:HIS:456:CB:4062, H-A:LYS:547:NZ:4949, V-B:LYS:547:CE:9922, V-B:HIS:456:CB:9036, V-B:TYR:484:CB:9312, V-A:TYR:484:CB:4338, H-A:ASP:473:OD2:4239, V-A:VAL:542:CG1:4897, V-A:GLU:543:CA:4902, V-B:TYR:484:CA:9310, H-A:GLY:544:N:4913, V-A:VAL:542:C:4892"]

$$$$
RR12_Rahimova_2017
     RDKit          3D

 26 28  0  0  0  0  0  0  0  0999 V2000
  130.1640  133.3500   72.4400 C   0  0  0  0  0  0  0  0  0  0  0  0
  128.9830  132.4880   72.9030 C   0  0  0  0  0  0  0  0  0  0  0  0
  129.3720  131.4980   74.0160 C   0  0  0  0  0  0  0  0  0  0  0  0
  128.5100  130.3200   73.9870 N   0  0  0  0  0  0  0  0  0  0  0  0
  128.7410  129.1210   73.3310 C   0  0  0  0  0  0  0  0  0  0  0  0
  129.9590  128.8500   72.4650 C   0  0  0  0  0  0  0  0  0  0  0  0
  129.8940  127.4750   71.7740 C   0  0  0  0  0  0  0  0  0  0  0  0
  128.6650  127.3270   70.8570 C   0  0  0  0  0  0  0  0  0  0  0  0
  128.9940  126.9290   69.4890 N   0  0  0  0  0  0  0  0  0  0  0  0
  128.9540  127.7420   68.4180 C   0  0  0  0  0  0  0  0  0  0  0  0
  128.6270  128.9290   68.4830 O   0  0  0  0  0  0  0  0  0  0  0  0
  129.3520  127.1010   67.0830 C   0  0  0  0  0  0  0  0  0  0  0  0
  130.1370  125.9330   67.3300 O   0  0  0  0  0  0  0  0  0  0  0  0
  131.0120  125.4870   66.3570 C   0  0  0  0  0  0  0  0  0  0  0  0
  130.4940  124.5890   65.4220 C   0  0  0  0  0  0  0  0  0  0  0  0
  131.2990  124.0870   64.4020 C   0  0  0  0  0  0  0  0  0  0  0  0
  132.6290  124.4860   64.3150 C   0  0  0  0  0  0  0  0  0  0  0  0
  133.1630  125.3800   65.2410 C   0  0  0  0  0  0  0  0  0  0  0  0
  132.3580  125.8800   66.2610 C   0  0  0  0  0  0  0  0  0  0  0  0
  127.7920  128.2370   73.5150 N   0  0  0  0  0  0  0  0  0  0  0  0
  126.8970  128.8500   74.3460 C   0  0  0  0  0  0  0  0  0  0  0  0
  125.6970  128.3500   74.8750 C   0  0  0  0  0  0  0  0  0  0  0  0
  124.9540  129.1790   75.7160 C   0  0  0  0  0  0  0  0  0  0  0  0
  125.3850  130.4680   76.0280 C   0  0  0  0  0  0  0  0  0  0  0  0
  126.5730  130.9950   75.5170 C   0  0  0  0  0  0  0  0  0  0  0  0
  127.3180  130.1630   74.6720 C   0  0  0  0  0  0  0  0  0  0  0  0
  1  2  1  0
  2  3  1  0
  3  4  1  0
  4  5  1  0
  5  6  1  0
  6  7  1  0
  7  8  1  0
  8  9  1  0
  9 10  1  0
 10 11  2  0
 10 12  1  0
 12 13  1  0
 13 14  1  0
 14 15  2  0
 15 16  1  0
 16 17  2  0
 17 18  1  0
 18 19  2  0
  5 20  2  0
 20 21  1  0
 21 22  2  0
 22 23  1  0
 23 24  2  0
 24 25  1  0
 25 26  2  0
 26  4  1  0
 19 14  1  0
 26 21  1  0
M  END
>  <Binding energies>  (68) 
[-7.03]

>  <Ligand effiencies>  (68) 
[-0.26037037037037036]

>  <Interactions>  (68) 
["V-A:GLY:454:CA:4046, V-A:GLU:543:CG:4905, V-B:HIS:456:CE1:9040, V-B:GLU:543:CD:9880, V-B:GLU:543:CB:9878, V-B:GLU:543:CG:9879, V-A:HIS:456:CE1:4066, V-A:TYR:484:CE2:4343, V-A:TYR:484:CZ:4344, V-A:GLU:543:CD:4906, V-B:GLU:543:C:9874, V-A:ARG:545:CZ:4924, V-A:ARG:545:CG:4920, V-A:ARG:545:CD:4921, H-A:HIS:456:NE2:4067, H-B:HIS:456:NE2:9041, V-A:GLY:544:C:4910, V-A:GLY:544:CA:4912, V-A:GLU:543:C:4900, V-B:HIS:456:CD2:9039, V-B:HIS:456:CG:9037, V-A:LYS:547:CE:4948, V-B:LYS:471:CD:9190, V-B:HIS:456:C:9032, V-B:LYS:547:CE:9922, V-B:ASP:473:CG:9211, V-B:HIS:456:CB:9036, V-B:VAL:458:CG2:9058, V-B:LYS:547:CD:9921, V-B:TYR:484:CB:9312, V-B:TYR:484:CG:9313, H-B:GLU:543:O:9875"]

$$$$
RR13_Rahimova_2017
     RDKit          3D

 48 54  0  0  0  0  0  0  0  0999 V2000
  131.9210  125.3530   59.2280 Cl  0  0  0  0  0  0  0  0  0  0  0  0
  132.0050  125.1240   60.9420 C   0  0  0  0  0  0  0  0  0  0  0  0
  133.2310  124.7370   61.4880 C   0  0  0  0  0  0  0  0  0  0  0  0
  133.3580  124.5160   62.8570 C   0  0  0  0  0  0  0  0  0  0  0  0
  132.2550  124.6790   63.6910 C   0  0  0  0  0  0  0  0  0  0  0  0
  131.0280  125.0650   63.1540 C   0  0  0  0  0  0  0  0  0  0  0  0
  130.8830  125.3040   61.7780 C   0  0  0  0  0  0  0  0  0  0  0  0
  129.5070  125.7070   61.2050 C   0  0  1  0  0  0  0  0  0  0  0  0
  128.4910  124.5640   61.3530 C   0  0  0  0  0  0  0  0  0  0  0  0
  127.2530  124.6640   61.7840 N   0  0  0  0  0  0  0  0  0  0  0  0
  126.7380  123.3720   61.7700 N   0  0  0  0  0  0  0  0  0  0  0  0
  127.7020  122.4820   61.3380 N   0  0  0  0  0  0  0  0  0  0  0  0
  128.7820  123.2380   61.1110 N   0  0  0  0  0  0  0  0  0  0  0  0
  130.0080  122.6380   60.5980 C   0  0  0  0  0  0  0  0  0  0  0  0
  130.8040  121.9870   61.7450 C   0  0  0  0  0  0  0  0  0  0  0  0
  131.3660  120.6290   61.3550 C   0  0  0  0  0  0  0  0  0  0  0  0
  132.7060  120.5110   60.9750 C   0  0  0  0  0  0  0  0  0  0  0  0
  133.2170  119.2680   60.6110 C   0  0  0  0  0  0  0  0  0  0  0  0
  132.3880  118.1480   60.6300 C   0  0  0  0  0  0  0  0  0  0  0  0
  131.0520  118.2590   61.0070 C   0  0  0  0  0  0  0  0  0  0  0  0
  130.5390  119.5020   61.3700 C   0  0  0  0  0  0  0  0  0  0  0  0
  128.9960  126.9900   61.7430 N   0  0  0  0  0  0  0  0  0  0  0  0
  128.7440  126.8790   63.1920 C   0  0  0  0  0  0  0  0  0  0  0  0
  128.3390  128.2490   63.7850 C   0  0  0  0  0  0  0  0  0  0  0  0
  127.0980  128.7370   63.1610 N   0  0  0  0  0  0  0  0  0  0  0  0
  126.6260  130.0090   63.7570 C   0  0  1  0  0  0  0  0  0  0  0  0
  125.9620  130.9990   62.7750 C   0  0  0  0  0  0  0  0  0  0  0  0
  124.6620  130.6990   62.3460 C   0  0  0  0  0  0  0  0  0  0  0  0
  123.9780  131.5440   61.4730 C   0  0  0  0  0  0  0  0  0  0  0  0
  124.5900  132.7050   61.0100 C   0  0  0  0  0  0  0  0  0  0  0  0
  125.8860  133.0130   61.4100 C   0  0  0  0  0  0  0  0  0  0  0  0
  126.5820  132.1710   62.2820 C   0  0  0  0  0  0  0  0  0  0  0  0
  128.2140  132.6050   62.6660 Cl  0  0  0  0  0  0  0  0  0  0  0  0
  125.7330  129.8040   64.9820 C   0  0  0  0  0  0  0  0  0  0  0  0
  124.4280  129.9510   65.0070 N   0  0  0  0  0  0  0  0  0  0  0  0
  124.0340  129.6500   66.3060 N   0  0  0  0  0  0  0  0  0  0  0  0
  125.1320  129.3020   67.0650 N   0  0  0  0  0  0  0  0  0  0  0  0
  126.1670  129.3830   66.2210 N   0  0  0  0  0  0  0  0  0  0  0  0
  127.5180  129.0980   66.6930 C   0  0  0  0  0  0  0  0  0  0  0  0
  127.5330  127.8080   67.5330 C   0  0  0  0  0  0  0  0  0  0  0  0
  128.6740  127.7920   68.5390 C   0  0  0  0  0  0  0  0  0  0  0  0
  128.4240  127.4590   69.8730 C   0  0  0  0  0  0  0  0  0  0  0  0
  129.4700  127.4360   70.7910 C   0  0  0  0  0  0  0  0  0  0  0  0
  130.7630  127.7480   70.3730 C   0  0  0  0  0  0  0  0  0  0  0  0
  131.0180  128.0800   69.0430 C   0  0  0  0  0  0  0  0  0  0  0  0
  129.9730  128.1020   68.1240 C   0  0  0  0  0  0  0  0  0  0  0  0
  127.3550  128.8520   61.7140 C   0  0  0  0  0  0  0  0  0  0  0  0
  127.7500  127.4770   61.1250 C   0  0  0  0  0  0  0  0  0  0  0  0
  1  2  1  0
  2  3  2  0
  3  4  1  0
  4  5  2  0
  5  6  1  0
  6  7  2  0
  7  8  1  0
  8  9  1  0
  9 10  2  0
 10 11  1  0
 11 12  2  0
 12 13  1  0
 13 14  1  0
 14 15  1  0
 15 16  1  0
 16 17  2  0
 17 18  1  0
 18 19  2  0
 19 20  1  0
 20 21  2  0
  8 22  1  1
 22 23  1  0
 23 24  1  0
 24 25  1  0
 26 25  1  6
 26 27  1  0
 27 28  2  0
 28 29  1  0
 29 30  2  0
 30 31  1  0
 31 32  2  0
 32 33  1  0
 26 34  1  0
 34 35  2  0
 35 36  1  0
 36 37  2  0
 37 38  1  0
 38 39  1  0
 39 40  1  0
 40 41  1  0
 41 42  2  0
 42 43  1  0
 43 44  2  0
 44 45  1  0
 45 46  2  0
 25 47  1  0
 47 48  1  0
  7  2  1  0
 13  9  1  0
 21 16  1  0
 48 22  1  0
 32 27  1  0
 38 34  1  0
 46 41  1  0
M  END
>  <Binding energies>  (69) 
[-13.37]

>  <Ligand effiencies>  (69) 
[-0.27854166666666663]

>  <Interactions>  (69) 
["V-B:ILE:369:CG2:8208, V-A:TYR:539:CE1:4873, V-B:ILE:369:CD1:8210, V-A:TYR:539:CD1:4871, V-A:ALA:541:CB:4890, V-B:TYR:539:CE1:9847, H-B:ALA:541:N:9863, V-A:LEU:475:CD2:4256, V-B:TYR:539:CD1:9845, V-A:GLU:543:CG:4905, V-A:ASP:366:CG:3210, H-B:ARG:545:NH2:9900, V-A:ILE:369:CG2:3234, V-B:HIS:456:CE1:9040, V-B:GLU:543:CD:9880, V-B:GLU:543:CG:9879, V-A:HIS:456:CE1:4066, H-B:GLY:454:N:9021, V-A:GLU:543:CD:4906, V-A:GLU:543:CB:4904, V-B:ARG:545:CZ:9898, V-A:ARG:545:CG:4920, V-A:SER:385:CA:3404, V-B:ALA:541:CB:9864, H-B:ARG:545:NE:9896, V-A:GLY:544:C:4910, V-A:SER:385:CB:3406, V-A:LEU:373:CD1:3277, V-A:PRO:482:CB:4323, V-A:PRO:482:CG:4324, H-B:TYR:484:OH:9319, V-A:GLY:544:CA:4912, V-A:GLU:543:C:4900"]

$$$$
RR14_Rahimova_2017
     RDKit          3D

 39 43  0  0  0  0  0  0  0  0999 V2000
  126.6770  129.3350   66.2430 C   0  0  0  0  0  0  0  0  0  0  0  0
  125.3780  129.5320   65.6950 O   0  0  0  0  0  0  0  0  0  0  0  0
  125.2330  130.3320   64.5780 C   0  0  0  0  0  0  0  0  0  0  0  0
  124.2390  129.9620   63.6720 C   0  0  0  0  0  0  0  0  0  0  0  0
  124.0360  130.6940   62.5060 C   0  0  0  0  0  0  0  0  0  0  0  0
  124.8340  131.8070   62.2320 C   0  0  0  0  0  0  0  0  0  0  0  0
  124.6580  132.5720   60.9260 C   0  0  0  0  0  0  0  0  0  0  0  0
  124.5530  131.7010   59.7550 N   0  0  0  0  0  0  0  0  0  0  0  0
  123.3700  131.5090   59.1590 N   0  0  0  0  0  0  0  0  0  0  0  0
  123.6350  130.6260   58.1310 N   0  0  0  0  0  0  0  0  0  0  0  0
  124.9850  130.2880   58.1260 N   0  0  0  0  0  0  0  0  0  0  0  0
  125.5200  130.9480   59.1250 C   0  0  0  0  0  0  0  0  0  0  0  0
  126.9850  130.8800   59.5360 C   0  0  0  0  0  0  0  0  0  0  0  0
  127.7530  129.9210   58.7250 N   0  0  0  0  0  0  0  0  0  0  0  0
  128.4890  130.5850   57.6410 C   0  0  0  0  0  0  0  0  0  0  0  0
  129.4640  131.6740   58.1390 C   0  0  0  0  0  0  0  0  0  0  0  0
  130.9250  131.1920   58.2540 C   0  0  0  0  0  0  0  0  0  0  0  0
  131.3720  131.0160   59.6400 N   0  0  0  0  0  0  0  0  0  0  0  0
  130.4050  131.6190   60.5670 C   0  0  0  0  0  0  0  0  0  0  0  0
  130.8710  131.4970   62.0340 C   0  0  0  0  0  0  0  0  0  0  0  0
  132.1760  132.0480   62.1800 O   0  0  0  0  0  0  0  0  0  0  0  0
  133.1350  131.3870   61.3620 C   0  0  0  0  0  0  0  0  0  0  0  0
  132.7380  131.5070   59.8750 C   0  0  0  0  0  0  0  0  0  0  0  0
  128.6730  129.1590   59.5810 C   0  0  0  0  0  0  0  0  0  0  0  0
  128.2230  127.7510   59.9630 C   0  0  0  0  0  0  0  0  0  0  0  0
  128.9770  126.6670   59.6560 C   0  0  0  0  0  0  0  0  0  0  0  0
  128.5460  125.2920   59.9790 C   0  0  0  0  0  0  0  0  0  0  0  0
  129.3110  124.1480   59.6930 C   0  0  0  0  0  0  0  0  0  0  0  0
  130.6710  124.2470   59.0150 C   0  0  0  0  0  0  0  0  0  0  0  0
  128.8110  122.8910   60.0430 C   0  0  0  0  0  0  0  0  0  0  0  0
  127.5710  122.7670   60.6670 C   0  0  0  0  0  0  0  0  0  0  0  0
  126.8030  123.8980   60.9580 C   0  0  0  0  0  0  0  0  0  0  0  0
  125.4530  123.7290   61.6430 C   0  0  0  0  0  0  0  0  0  0  0  0
  127.2960  125.1660   60.6110 C   0  0  0  0  0  0  0  0  0  0  0  0
  126.5550  126.3360   60.8820 N   0  0  0  0  0  0  0  0  0  0  0  0
  126.9110  127.6150   60.6040 C   0  0  0  0  0  0  0  0  0  0  0  0
  126.1560  128.5470   60.8830 O   0  0  0  0  0  0  0  0  0  0  0  0
  125.8110  132.2030   63.1470 C   0  0  0  0  0  0  0  0  0  0  0  0
  126.0140  131.4690   64.3120 C   0  0  0  0  0  0  0  0  0  0  0  0
  1  2  1  0
  2  3  1  0
  3  4  2  0
  4  5  1  0
  5  6  2  0
  6  7  1  0
  7  8  1  0
  8  9  1  0
  9 10  2  0
 10 11  1  0
 11 12  2  0
 12 13  1  0
 13 14  1  0
 14 15  1  0
 15 16  1  0
 16 17  1  0
 17 18  1  0
 18 19  1  0
 19 20  1  0
 20 21  1  0
 21 22  1  0
 22 23  1  0
 14 24  1  0
 24 25  1  0
 25 26  2  0
 26 27  1  0
 27 28  2  0
 28 29  1  0
 28 30  1  0
 30 31  2  0
 31 32  1  0
 32 33  1  0
 32 34  2  0
 34 35  1  0
 35 36  1  0
 36 37  2  0
  6 38  1  0
 38 39  2  0
 39  3  1  0
 12  8  1  0
 23 18  1  0
 36 25  1  0
 34 27  1  0
M  END
>  <Binding energies>  (70) 
[-9.03]

>  <Ligand effiencies>  (70) 
[-0.22574999999999998]

>  <Interactions>  (70) 
["V-B:LEU:475:CD2:9230, V-A:TYR:539:CZ:4875, H-A:TYR:539:OH:4876, V-B:ILE:369:CG2:8208, V-B:GLY:453:C:9013, V-A:TYR:539:CE1:4873, V-B:ILE:369:CD1:8210, V-B:ASP:366:CG:8184, V-A:PRO:540:CB:4883, H-A:ALA:541:N:4889, V-A:PRO:540:CA:4881, V-B:PRO:540:C:9853, V-B:TYR:539:CE1:9847, V-B:TYR:539:C:9839, V-B:PRO:540:N:9856, V-B:PRO:540:CA:9855, V-B:TYR:539:CD1:9845, V-A:ASP:366:CG:3210, H-B:ARG:545:NH2:9900, V-B:GLY:453:CA:9015, V-B:HIS:456:CE1:9040, V-A:GLU:543:CD:4906, V-B:ARG:545:CZ:9898, V-B:PRO:540:CB:9857, V-B:TYR:539:CZ:9849, H-B:ARG:545:NE:9896, H-B:ASP:366:OD1:8185, H-B:TYR:484:OH:9319, V-A:ASN:362:CB:3173, H-B:ASP:366:OD2:8186"]

$$$$
RR15_Rahimova_2017
     RDKit          3D

 45 49  0  0  0  0  0  0  0  0999 V2000
  131.6780  126.2310   74.9020 C   0  0  0  0  0  0  0  0  0  0  0  0
  130.4690  126.9480   74.6760 O   0  0  0  0  0  0  0  0  0  0  0  0
  129.9820  127.0750   73.3860 C   0  0  0  0  0  0  0  0  0  0  0  0
  130.7780  126.9350   72.2380 C   0  0  0  0  0  0  0  0  0  0  0  0
  130.2250  127.0780   70.9680 C   0  0  0  0  0  0  0  0  0  0  0  0
  128.8660  127.3660   70.8070 C   0  0  0  0  0  0  0  0  0  0  0  0
  128.2710  127.5270   69.4350 C   0  0  0  0  0  0  0  0  0  0  0  0
  127.1140  126.9830   69.0830 N   0  0  0  0  0  0  0  0  0  0  0  0
  126.9090  127.3400   67.7670 N   0  0  0  0  0  0  0  0  0  0  0  0
  127.9630  128.1050   67.4800 N   0  0  0  0  0  0  0  0  0  0  0  0
  128.2350  128.5720   66.1220 C   0  0  0  0  0  0  0  0  0  0  0  0
  127.7270  130.0020   65.8140 C   0  0  0  0  0  0  0  0  0  0  0  0
  127.6380  130.8030   66.7470 O   0  0  0  0  0  0  0  0  0  0  0  0
  127.4220  130.3500   64.5260 N   0  0  0  0  0  0  0  0  0  0  0  0
  127.5370  131.7460   64.0590 C   0  0  0  0  0  0  0  0  0  0  0  0
  128.0760  131.8730   62.6180 C   0  0  0  0  0  0  0  0  0  0  0  0
  129.5740  132.2470   62.5160 C   0  0  0  0  0  0  0  0  0  0  0  0
  130.0510  132.4020   61.1390 N   0  0  0  0  0  0  0  0  0  0  0  0
  131.0110  131.3660   60.7300 C   0  0  0  0  0  0  0  0  0  0  0  0
  131.4160  131.5230   59.2480 C   0  0  0  0  0  0  0  0  0  0  0  0
  130.2570  131.5410   58.4220 O   0  0  0  0  0  0  0  0  0  0  0  0
  129.3730  132.6080   58.7480 C   0  0  0  0  0  0  0  0  0  0  0  0
  128.9100  132.4770   60.2160 C   0  0  0  0  0  0  0  0  0  0  0  0
  127.1420  129.3510   63.4490 C   0  0  2  0  0  0  0  0  0  0  0  0
  128.4230  128.7640   62.7770 C   0  0  0  0  0  0  0  0  0  0  0  0
  128.9610  129.3340   61.8280 O   0  0  0  0  0  0  0  0  0  0  0  0
  128.9040  127.6360   63.3290 N   0  0  0  0  0  0  0  0  0  0  0  0
  130.1390  126.9660   62.9380 C   0  0  0  0  0  0  0  0  0  0  0  0
  130.3510  125.6720   63.7460 C   0  0  2  0  0  0  0  0  0  0  0  0
  130.5570  125.8650   65.2590 C   0  0  0  0  0  0  0  0  0  0  0  0
  132.0470  125.7290   65.4580 C   0  0  0  0  0  0  0  0  0  0  0  0
  132.4000  124.7060   64.3920 C   0  0  0  0  0  0  0  0  0  0  0  0
  131.5930  125.1170   63.2930 O   0  0  0  0  0  0  0  0  0  0  0  0
  126.0320  129.8470   62.5300 C   0  0  0  0  0  0  0  0  0  0  0  0
  124.8370  130.2840   63.1140 C   0  0  0  0  0  0  0  0  0  0  0  0
  123.7890  130.7470   62.3250 C   0  0  0  0  0  0  0  0  0  0  0  0
  123.9290  130.7780   60.9400 C   0  0  0  0  0  0  0  0  0  0  0  0
  122.9110  131.2290   60.1720 F   0  0  0  0  0  0  0  0  0  0  0  0
  125.1100  130.3480   60.3400 C   0  0  0  0  0  0  0  0  0  0  0  0
  126.1570  129.8840   61.1310 C   0  0  0  0  0  0  0  0  0  0  0  0
  128.8540  128.2160   68.4720 N   0  0  0  0  0  0  0  0  0  0  0  0
  128.0740  127.5040   71.9550 C   0  0  0  0  0  0  0  0  0  0  0  0
  128.6160  127.3590   73.2430 C   0  0  0  0  0  0  0  0  0  0  0  0
  127.8750  127.4820   74.4060 O   0  0  0  0  0  0  0  0  0  0  0  0
  126.6500  128.2060   74.3850 C   0  0  0  0  0  0  0  0  0  0  0  0
  1  2  1  0
  2  3  1  0
  3  4  2  0
  4  5  1  0
  5  6  2  0
  6  7  1  0
  7  8  1  0
  8  9  2  0
  9 10  1  0
 10 11  1  0
 11 12  1  0
 12 13  2  0
 12 14  1  0
 14 15  1  0
 15 16  1  0
 16 17  1  0
 17 18  1  0
 18 19  1  0
 19 20  1  0
 20 21  1  0
 21 22  1  0
 22 23  1  0
 24 14  1  1
 24 25  1  0
 25 26  2  0
 25 27  1  0
 27 28  1  0
 29 28  1  6
 29 30  1  0
 30 31  1  0
 31 32  1  0
 32 33  1  0
 24 34  1  0
 34 35  2  0
 35 36  1  0
 36 37  2  0
 37 38  1  0
 37 39  1  0
 39 40  2  0
 10 41  1  0
  6 42  1  0
 42 43  2  0
 43 44  1  0
 44 45  1  0
 43  3  1  0
 41  7  2  0
 23 18  1  0
 33 29  1  0
 40 34  1  0
M  END
>  <Binding energies>  (71) 
[-8.75]

>  <Ligand effiencies>  (71) 
[-0.19021739130434784]

>  <Interactions>  (71) 
["V-B:ILE:369:CG2:8208, V-A:TYR:539:CE1:4873, V-B:ILE:369:CD1:8210, V-A:TYR:539:CD1:4871, V-B:ASP:366:CG:8184, V-A:PRO:540:CB:4883, H-A:ALA:541:N:4889, V-A:PRO:540:CA:4881, V-A:PRO:540:N:4882, V-A:TYR:539:C:4865, V-A:ALA:541:CB:4890, V-A:GLU:543:CG:4905, H-B:GLU:543:OE1:9881, V-B:HIS:456:CE1:9040, H-B:GLU:543:OE2:9882, V-B:GLU:543:CD:9880, V-B:GLU:543:CG:9879, V-A:HIS:456:CE1:4066, H-A:GLU:543:OE2:4908, V-A:GLU:543:CD:4906, V-B:ILE:369:CG1:8209, V-B:ILE:369:CB:8207, V-A:GLU:543:CB:4904, V-B:ASP:366:CA:8181, V-B:ARG:545:CZ:9898, V-B:GLY:544:C:9884, V-A:ARG:545:CZ:4924, V-A:HIS:456:CD2:4065, H-B:HIS:456:NE2:9041, V-A:GLY:544:C:4910, H-B:TYR:484:OH:9319, V-B:HIS:456:CD2:9039, V-B:HIS:456:CG:9037, V-A:LYS:547:CE:4948, V-A:HIS:456:CG:4063, H-B:LYS:547:NZ:9923, H-A:LYS:547:NZ:4949, V-B:LYS:547:CE:9922, V-B:HIS:456:CB:9036, V-A:ALA:541:CA:4888, H-B:ARG:545:N:9892"]

$$$$
RR17_Rahimova_2017
     RDKit          3D

 38 41  0  0  0  0  0  0  0  0999 V2000
  129.2580  127.3490   69.0600 C   0  0  0  0  0  0  0  0  0  0  0  0
  128.8120  127.7650   67.6550 C   0  0  0  0  0  0  0  0  0  0  0  0
  127.4400  128.1470   67.7050 O   0  0  0  0  0  0  0  0  0  0  0  0
  126.8980  128.8690   66.6580 C   0  0  0  0  0  0  0  0  0  0  0  0
  125.5070  128.9370   66.6020 C   0  0  0  0  0  0  0  0  0  0  0  0
  124.8720  129.6400   65.5830 C   0  0  0  0  0  0  0  0  0  0  0  0
  125.6200  130.2920   64.5920 C   0  0  0  0  0  0  0  0  0  0  0  0
  124.9070  131.0440   63.5060 C   0  0  0  0  0  0  0  0  0  0  0  0
  123.7600  130.7600   63.1480 O   0  0  0  0  0  0  0  0  0  0  0  0
  125.6800  132.1970   62.8270 C   0  0  0  0  0  0  0  0  0  0  0  0
  124.6790  133.0390   61.5500 S   0  0  0  0  0  0  0  0  0  0  0  0
  124.7930  131.8510   60.2410 C   0  0  0  0  0  0  0  0  0  0  0  0
  123.7900  131.4280   59.5090 N   0  0  0  0  0  0  0  0  0  0  0  0
  124.2890  130.5120   58.5920 N   0  0  0  0  0  0  0  0  0  0  0  0
  125.5780  130.4190   58.8020 C   0  0  0  0  0  0  0  0  0  0  0  0
  126.5210  129.5290   58.0050 C   0  0  0  0  0  0  0  0  0  0  0  0
  127.4760  128.7940   58.8300 N   0  0  0  0  0  0  0  0  0  0  0  0
  127.1960  127.5550   59.4340 C   0  0  0  0  0  0  0  0  0  0  0  0
  127.0130  126.4570   58.5930 C   0  0  0  0  0  0  0  0  0  0  0  0
  126.7270  125.2030   59.1240 C   0  0  0  0  0  0  0  0  0  0  0  0
  126.6240  125.0310   60.5070 C   0  0  0  0  0  0  0  0  0  0  0  0
  126.3030  123.6480   61.0740 C   0  0  0  0  0  0  0  0  0  0  0  0
  126.3280  123.6310   62.4090 F   0  0  0  0  0  0  0  0  0  0  0  0
  125.0920  123.2540   60.6800 F   0  0  0  0  0  0  0  0  0  0  0  0
  127.2040  122.7730   60.6270 F   0  0  0  0  0  0  0  0  0  0  0  0
  126.8150  126.1290   61.3530 C   0  0  0  0  0  0  0  0  0  0  0  0
  127.1020  127.3820   60.8210 C   0  0  0  0  0  0  0  0  0  0  0  0
  125.9630  131.2350   59.8450 N   0  0  0  0  0  0  0  0  0  0  0  0
  127.2550  131.4200   60.3610 C   0  0  0  0  0  0  0  0  0  0  0  0
  128.0130  132.5120   59.9400 C   0  0  0  0  0  0  0  0  0  0  0  0
  129.2960  132.6930   60.4500 C   0  0  0  0  0  0  0  0  0  0  0  0
  129.8230  131.7830   61.3800 C   0  0  0  0  0  0  0  0  0  0  0  0
  131.0830  131.8830   61.9380 O   0  0  0  0  0  0  0  0  0  0  0  0
  132.1500  131.1180   61.3860 C   0  0  0  0  0  0  0  0  0  0  0  0
  129.0500  130.6940   61.7880 C   0  0  0  0  0  0  0  0  0  0  0  0
  127.7660  130.5070   61.2830 C   0  0  0  0  0  0  0  0  0  0  0  0
  127.0200  130.2240   64.6500 C   0  0  0  0  0  0  0  0  0  0  0  0
  127.6540  129.5200   65.6710 C   0  0  0  0  0  0  0  0  0  0  0  0
  1  2  1  0
  2  3  1  0
  3  4  1  0
  4  5  2  0
  5  6  1  0
  6  7  2  0
  7  8  1  0
  8  9  2  0
  8 10  1  0
 10 11  1  0
 11 12  1  0
 12 13  2  0
 13 14  1  0
 14 15  2  0
 15 16  1  0
 16 17  1  0
 17 18  1  0
 18 19  2  0
 19 20  1  0
 20 21  2  0
 21 22  1  0
 22 23  1  0
 22 24  1  0
 22 25  1  0
 21 26  1  0
 26 27  2  0
 15 28  1  0
 28 29  1  0
 29 30  2  0
 30 31  1  0
 31 32  2  0
 32 33  1  0
 33 34  1  0
 32 35  1  0
 35 36  2  0
  7 37  1  0
 37 38  2  0
 38  4  1  0
 28 12  1  0
 36 29  1  0
 27 18  1  0
M  END
>  <Binding energies>  (72) 
[-7.77]

>  <Ligand effiencies>  (72) 
[-0.1992307692307692]

>  <Interactions>  (72) 
["V-B:LEU:475:CD2:9230, V-A:TYR:539:CZ:4875, H-A:TYR:539:OH:4876, V-B:GLY:454:CA:9020, V-B:ILE:369:CG2:8208, V-A:TYR:539:CE1:4873, V-A:TYR:539:CD1:4871, V-B:ASP:366:CG:8184, H-A:ALA:541:N:4889, V-A:PRO:540:CA:4881, V-A:PRO:540:N:4882, V-A:TYR:539:C:4865, V-B:PRO:540:C:9853, V-B:TYR:539:C:9839, V-B:PRO:540:N:9856, V-B:PRO:540:CA:9855, V-A:GLU:543:CG:4905, V-B:HIS:456:CE1:9040, V-B:GLU:543:CD:9880, V-B:GLU:543:CG:9879, V-A:HIS:456:CE1:4066, H-B:GLY:454:N:9021, V-A:GLU:543:CD:4906, V-A:GLU:543:CB:4904, V-B:ARG:545:CZ:9898, V-B:ARG:545:CG:9894, V-B:PRO:540:CB:9857, H-B:HIS:456:NE2:9041, V-B:ARG:545:CD:9895"]

$$$$
RR19_Rahimova_2017
     RDKit          3D

 46 51  0  0  0  0  0  0  0  0999 V2000
  129.2430  123.1980   60.0230 O   0  0  0  0  0  0  0  0  0  0  0  0
  129.5750  123.8360   61.0270 C   0  0  0  0  0  0  0  0  0  0  0  0
  129.0740  125.0370   61.4100 N   0  0  0  0  0  0  0  0  0  0  0  0
  127.9880  125.7720   61.0000 C   0  0  0  0  0  0  0  0  0  0  0  0
  126.7530  125.2210   59.9810 S   0  0  0  0  0  0  0  0  0  0  0  0
  128.0710  127.0250   61.5540 N   0  0  0  0  0  0  0  0  0  0  0  0
  127.2140  128.0760   61.5950 C   0  0  0  0  0  0  0  0  0  0  0  0
  126.0260  128.0650   61.2640 O   0  0  0  0  0  0  0  0  0  0  0  0
  127.8590  129.3940   62.0920 C   0  0  2  0  0  0  0  0  0  0  0  0
  126.8640  130.4110   62.7220 C   0  0  0  0  0  0  0  0  0  0  0  0
  126.3720  130.0570   64.1170 C   0  0  0  0  0  0  0  0  0  0  0  0
  124.9920  130.0290   64.4130 C   0  0  0  0  0  0  0  0  0  0  0  0
  124.5590  129.6270   65.6690 C   0  0  0  0  0  0  0  0  0  0  0  0
  125.4790  129.2340   66.6350 C   0  0  0  0  0  0  0  0  0  0  0  0
  126.8380  129.2280   66.3480 C   0  0  0  0  0  0  0  0  0  0  0  0
  127.2910  129.6240   65.0970 C   0  0  0  0  0  0  0  0  0  0  0  0
  128.6870  130.0260   61.0290 N   0  0  0  0  0  0  0  0  0  0  0  0
  128.2500  131.1250   60.3490 C   0  0  0  0  0  0  0  0  0  0  0  0
  127.1690  131.7030   60.4800 O   0  0  0  0  0  0  0  0  0  0  0  0
  129.3510  131.4810   59.4210 C   0  0  0  0  0  0  0  0  0  0  0  0
  129.4600  132.5090   58.4830 C   0  0  0  0  0  0  0  0  0  0  0  0
  130.6400  132.6120   57.7380 C   0  0  0  0  0  0  0  0  0  0  0  0
  131.6840  131.6990   57.9380 C   0  0  0  0  0  0  0  0  0  0  0  0
  131.5550  130.6770   58.8840 C   0  0  0  0  0  0  0  0  0  0  0  0
  130.3700  130.5900   59.6160 C   0  0  0  0  0  0  0  0  0  0  0  0
  129.9490  129.6390   60.6750 C   0  0  0  0  0  0  0  0  0  0  0  0
  130.6060  128.7070   61.1410 O   0  0  0  0  0  0  0  0  0  0  0  0
  130.6720  123.2670   61.9670 C   0  0  2  0  0  0  0  0  0  0  0  0
  131.8700  124.2330   62.1930 C   0  0  0  0  0  0  0  0  0  0  0  0
  131.9180  124.8410   63.5840 C   0  0  0  0  0  0  0  0  0  0  0  0
  130.7230  125.0520   64.3050 C   0  0  0  0  0  0  0  0  0  0  0  0
  130.7760  125.5120   65.6150 C   0  0  0  0  0  0  0  0  0  0  0  0
  132.0000  125.7400   66.2290 C   0  0  0  0  0  0  0  0  0  0  0  0
  133.1850  125.4990   65.5440 C   0  0  0  0  0  0  0  0  0  0  0  0
  133.1540  125.0400   64.2340 C   0  0  0  0  0  0  0  0  0  0  0  0
  131.1350  121.9040   61.5790 N   0  0  0  0  0  0  0  0  0  0  0  0
  130.2620  120.8710   61.4130 C   0  0  0  0  0  0  0  0  0  0  0  0
  129.0400  120.8950   61.5640 O   0  0  0  0  0  0  0  0  0  0  0  0
  131.0970  119.7120   61.0100 C   0  0  0  0  0  0  0  0  0  0  0  0
  130.7480  118.3930   60.7130 C   0  0  0  0  0  0  0  0  0  0  0  0
  131.7610  117.4980   60.3520 C   0  0  0  0  0  0  0  0  0  0  0  0
  133.0940  117.9270   60.2910 C   0  0  0  0  0  0  0  0  0  0  0  0
  133.4230  119.2540   60.5900 C   0  0  0  0  0  0  0  0  0  0  0  0
  132.3980  120.1310   60.9500 C   0  0  0  0  0  0  0  0  0  0  0  0
  132.4320  121.5680   61.3130 C   0  0  0  0  0  0  0  0  0  0  0  0
  133.4190  122.3020   61.3630 O   0  0  0  0  0  0  0  0  0  0  0  0
  1  2  2  0
  2  3  1  0
  3  4  1  0
  4  5  2  0
  4  6  1  0
  6  7  1  0
  7  8  2  0
  7  9  1  0
  9 10  1  6
 10 11  1  0
 11 12  2  0
 12 13  1  0
 13 14  2  0
 14 15  1  0
 15 16  2  0
  9 17  1  0
 17 18  1  0
 18 19  2  0
 18 20  1  0
 20 21  2  0
 21 22  1  0
 22 23  2  0
 23 24  1  0
 24 25  2  0
 25 26  1  0
 26 27  2  0
  2 28  1  0
 28 29  1  6
 29 30  1  0
 30 31  2  0
 31 32  1  0
 32 33  2  0
 33 34  1  0
 34 35  2  0
 28 36  1  0
 36 37  1  0
 37 38  2  0
 37 39  1  0
 39 40  2  0
 40 41  1  0
 41 42  2  0
 42 43  1  0
 43 44  2  0
 44 45  1  0
 45 46  2  0
 16 11  1  0
 26 17  1  0
 35 30  1  0
 45 36  1  0
 25 20  1  0
 44 39  1  0
M  END
>  <Binding energies>  (73) 
[-11.15]

>  <Ligand effiencies>  (73) 
[-0.23229166666666667]

>  <Interactions>  (73) 
["V-B:GLY:454:CA:9020, V-A:TYR:539:CE1:4873, V-A:TYR:539:CD1:4871, V-A:PRO:540:CB:4883, V-A:PRO:540:CD:4885, V-A:PRO:540:CA:4881, V-A:PRO:540:N:4882, V-A:TYR:539:C:4865, V-B:TYR:539:CE1:9847, H-B:ALA:541:N:9863, V-A:LEU:475:CD2:4256, V-B:TYR:539:CD1:9845, H-B:GLU:543:OE1:9881, H-B:ARG:545:NH2:9900, V-A:ILE:369:CG2:3234, V-B:HIS:456:CE1:9040, V-B:GLU:543:CD:9880, H-A:ARG:545:NH2:4926, V-B:GLU:543:CB:9878, V-A:HIS:456:CE1:4066, V-A:GLU:543:CD:4906, V-B:ARG:545:CZ:9898, V-B:ARG:545:CG:9894, V-A:ARG:545:CZ:4924, V-A:ARG:545:CG:4920, V-A:SER:385:CA:3404, V-A:SER:385:C:3402, V-A:ARG:545:CD:4921, V-B:ALA:541:CB:9864, V-B:TYR:539:CG:9844, V-B:ARG:545:CD:9895, V-A:SER:385:CB:3406, V-A:LEU:373:CD1:3277, V-A:PRO:482:CB:4323, V-A:PRO:482:CG:4324, V-B:TYR:539:CB:9843"]

$$$$
RR1_Rahimova_2017
     RDKit          3D

 41 44  0  0  0  0  0  0  0  0999 V2000
  124.1250  124.0110   57.9300 C   0  0  0  0  0  0  0  0  0  0  0  0
  125.2390  123.1650   57.6710 O   0  0  0  0  0  0  0  0  0  0  0  0
  126.3540  123.2500   58.4820 C   0  0  0  0  0  0  0  0  0  0  0  0
  126.3330  123.7010   59.8110 C   0  0  0  0  0  0  0  0  0  0  0  0
  127.5100  123.7600   60.5510 C   0  0  0  0  0  0  0  0  0  0  0  0
  128.7220  123.3650   59.9820 C   0  0  0  0  0  0  0  0  0  0  0  0
  129.8630  123.5050   60.7950 N   0  0  0  0  0  0  0  0  0  0  0  0
  130.5090  122.5740   61.5290 C   0  0  0  0  0  0  0  0  0  0  0  0
  130.1410  121.4070   61.6630 O   0  0  0  0  0  0  0  0  0  0  0  0
  131.7840  123.0790   62.2230 C   0  0  0  0  0  0  0  0  0  0  0  0
  132.3310  124.7530   61.7380 S   0  0  0  0  0  0  0  0  0  0  0  0
  131.0380  125.6630   62.5160 C   0  0  0  0  0  0  0  0  0  0  0  0
  130.1350  126.3570   61.8710 N   0  0  0  0  0  0  0  0  0  0  0  0
  129.3680  126.8560   62.8350 C   0  0  0  0  0  0  0  0  0  0  0  0
  128.1750  127.7220   62.5460 C   0  0  0  0  0  0  0  0  0  0  0  0
  127.4760  127.6270   61.3330 C   0  0  0  0  0  0  0  0  0  0  0  0
  126.3720  128.4480   61.0910 C   0  0  0  0  0  0  0  0  0  0  0  0
  125.9880  129.3520   62.0790 C   0  0  0  0  0  0  0  0  0  0  0  0
  126.6410  129.4700   63.2630 N   0  0  0  0  0  0  0  0  0  0  0  0
  127.7110  128.6630   63.4790 C   0  0  0  0  0  0  0  0  0  0  0  0
  129.7250  126.5340   64.0640 N   0  0  0  0  0  0  0  0  0  0  0  0
  130.8000  125.7670   63.8620 N   0  0  0  0  0  0  0  0  0  0  0  0
  131.5080  125.1660   64.9930 C   0  0  0  0  0  0  0  0  0  0  0  0
  130.7260  125.1550   66.3180 C   0  0  0  0  0  0  0  0  0  0  0  0
  130.4880  124.0930   66.9030 O   0  0  0  0  0  0  0  0  0  0  0  0
  130.3390  126.3670   66.7590 N   0  0  0  0  0  0  0  0  0  0  0  0
  129.7590  126.4510   68.0170 N   0  0  0  0  0  0  0  0  0  0  0  0
  130.2230  127.3960   68.8640 C   0  0  0  0  0  0  0  0  0  0  0  0
  131.0560  128.2540   68.5530 O   0  0  0  0  0  0  0  0  0  0  0  0
  129.6330  127.3730   70.2590 C   0  0  0  0  0  0  0  0  0  0  0  0
  128.2440  127.3720   70.4300 C   0  0  0  0  0  0  0  0  0  0  0  0
  127.6810  127.3640   71.7010 C   0  0  0  0  0  0  0  0  0  0  0  0
  128.4930  127.3640   72.8470 C   0  0  0  0  0  0  0  0  0  0  0  0
  127.9980  127.3690   74.1390 O   0  0  0  0  0  0  0  0  0  0  0  0
  126.8480  128.1490   74.4450 C   0  0  0  0  0  0  0  0  0  0  0  0
  129.8870  127.3720   72.6970 C   0  0  0  0  0  0  0  0  0  0  0  0
  130.6430  127.3920   73.8570 O   0  0  0  0  0  0  0  0  0  0  0  0
  131.7630  126.5230   73.9820 C   0  0  0  0  0  0  0  0  0  0  0  0
  130.4430  127.3740   71.4050 C   0  0  0  0  0  0  0  0  0  0  0  0
  128.7470  122.9130   58.6540 C   0  0  0  0  0  0  0  0  0  0  0  0
  127.5670  122.8550   57.9180 C   0  0  0  0  0  0  0  0  0  0  0  0
  1  2  1  0
  2  3  1  0
  3  4  2  0
  4  5  1  0
  5  6  2  0
  6  7  1  0
  7  8  1  0
  8  9  2  0
  8 10  1  0
 10 11  1  0
 11 12  1  0
 12 13  2  0
 13 14  1  0
 14 15  1  0
 15 16  2  0
 16 17  1  0
 17 18  2  0
 18 19  1  0
 19 20  2  0
 14 21  2  0
 21 22  1  0
 22 23  1  0
 23 24  1  0
 24 25  2  0
 24 26  1  0
 26 27  1  0
 27 28  1  0
 28 29  2  0
 28 30  1  0
 30 31  2  0
 31 32  1  0
 32 33  2  0
 33 34  1  0
 34 35  1  0
 33 36  1  0
 36 37  1  0
 37 38  1  0
 36 39  2  0
  6 40  1  0
 40 41  2  0
 41  3  1  0
 22 12  1  0
 39 30  1  0
 20 15  1  0
M  END
>  <Binding energies>  (74) 
[-8.29]

>  <Ligand effiencies>  (74) 
[-0.1884090909090909]

>  <Interactions>  (74) 
["V-B:ASP:366:CB:8183, V-B:ASP:366:CG:8184, V-B:TYR:539:CE1:9847, V-B:TYR:539:C:9839, V-B:PRO:540:N:9856, V-B:PRO:540:CA:9855, V-B:TYR:539:CD1:9845, V-A:GLU:543:CG:4905, H-B:ARG:545:NH2:9900, V-B:HIS:456:CE1:9040, V-B:GLU:543:CD:9880, V-B:GLU:543:CB:9878, V-B:GLU:543:CG:9879, V-A:HIS:456:CE1:4066, H-A:GLU:543:OE2:4908, V-A:TYR:484:CE2:4343, V-A:TYR:484:CZ:4344, V-A:GLU:543:CD:4906, V-B:GLU:543:C:9874, V-B:GLY:544:C:9884, V-B:PRO:540:CB:9857, V-B:TYR:531:CE2:9765, V-A:HIS:456:CD2:4065, H-A:HIS:456:NE2:4067, V-A:GLY:544:C:4910, H-A:TYR:484:OH:4345, V-B:LEU:363:CA:8156, V-B:LEU:363:CD1:8160, V-A:GLY:544:CA:4912, V-B:HIS:456:CD2:9039, V-B:HIS:456:CG:9037, V-A:LYS:547:CE:4948, V-B:GLY:544:CA:9886, V-A:HIS:456:CG:4063, H-B:LYS:547:NZ:9923, V-A:HIS:456:CB:4062, H-A:LYS:547:NZ:4949, V-B:LYS:547:CE:9922, V-B:HIS:456:CB:9036, H-B:GLU:543:O:9875"]

$$$$
RR22_Rahimova_2017
     RDKit          3D

 31 36  0  0  0  0  0  0  0  0999 V2000
  126.6270  126.2500   57.5590 O   0  0  0  0  0  0  0  0  0  0  0  0
  127.1160  127.0870   58.3130 C   0  0  0  0  0  0  0  0  0  0  0  0
  126.7540  127.3590   59.6210 N   0  0  0  0  0  0  0  0  0  0  0  0
  127.4710  128.3320   60.3880 C   0  0  1  0  0  0  0  0  0  0  0  0
  126.4800  129.2620   60.8340 O   0  0  0  0  0  0  0  0  0  0  0  0
  126.3090  129.4410   62.2070 C   0  0  0  0  0  0  0  0  0  0  0  0
  125.1220  130.0510   62.6120 C   0  0  0  0  0  0  0  0  0  0  0  0
  124.8970  130.3000   63.9660 C   0  0  0  0  0  0  0  0  0  0  0  0
  125.8610  129.9480   64.9110 C   0  0  0  0  0  0  0  0  0  0  0  0
  127.0500  129.3390   64.5050 C   0  0  0  0  0  0  0  0  0  0  0  0
  127.2790  129.0600   63.1540 C   0  0  0  0  0  0  0  0  0  0  0  0
  128.5480  128.4450   62.6100 C   0  0  1  0  0  0  0  0  0  0  0  0
  129.3710  127.4450   63.3970 C   0  0  0  0  0  0  0  0  0  0  0  0
  129.9600  126.6260   62.2450 C   0  0  0  0  0  0  0  0  0  0  0  0
  131.1410  125.7550   62.4070 C   0  0  0  0  0  0  0  0  0  0  0  0
  131.4130  125.1440   63.6400 C   0  0  0  0  0  0  0  0  0  0  0  0
  132.5280  124.3230   63.7870 C   0  0  0  0  0  0  0  0  0  0  0  0
  133.3770  124.1090   62.7040 C   0  0  0  0  0  0  0  0  0  0  0  0
  133.1210  124.7080   61.4740 C   0  0  0  0  0  0  0  0  0  0  0  0
  132.0060  125.5290   61.3250 C   0  0  0  0  0  0  0  0  0  0  0  0
  129.2820  126.7850   61.1710 N   0  0  0  0  0  0  0  0  0  0  0  0
  128.2190  127.6580   61.4600 N   0  0  0  0  0  0  0  0  0  0  0  0
  128.3740  129.0740   59.4140 C   0  0  0  0  0  0  0  0  0  0  0  0
  128.9400  130.2710   59.6990 C   0  0  0  0  0  0  0  0  0  0  0  0
  129.8440  131.0830   58.8620 C   0  0  0  0  0  0  0  0  0  0  0  0
  131.2080  130.7980   58.7050 C   0  0  0  0  0  0  0  0  0  0  0  0
  132.0020  131.6120   57.8970 C   0  0  0  0  0  0  0  0  0  0  0  0
  131.4080  132.7050   57.2660 C   0  0  0  0  0  0  0  0  0  0  0  0
  130.0940  133.0110   57.4060 N   0  0  0  0  0  0  0  0  0  0  0  0
  129.3380  132.2060   58.1960 C   0  0  0  0  0  0  0  0  0  0  0  0
  128.4790  128.2090   57.8740 S   0  0  0  0  0  0  0  0  0  0  0  0
  1  2  2  0
  2  3  1  0
  4  3  1  6
  4  5  1  0
  5  6  1  0
  6  7  2  0
  7  8  1  0
  8  9  2  0
  9 10  1  0
 10 11  2  0
 11 12  1  0
 12 13  1  1
 13 14  1  0
 14 15  1  0
 15 16  2  0
 16 17  1  0
 17 18  2  0
 18 19  1  0
 19 20  2  0
 14 21  2  0
 21 22  1  0
  4 23  1  0
 23 24  2  0
 24 25  1  0
 25 26  2  0
 26 27  1  0
 27 28  2  0
 28 29  1  0
 29 30  2  0
 23 31  1  0
 31  2  1  0
 22  4  1  0
 30 25  1  0
 11  6  1  0
 22 12  1  0
 20 15  1  0
M  END
>  <Binding energies>  (75) 
[-7.71]

>  <Ligand effiencies>  (75) 
[-0.2409375]

>  <Interactions>  (75) 
["V-A:TYR:539:CE1:4873, V-A:TYR:539:CD1:4871, V-B:ASP:366:CG:8184, V-A:PRO:540:CB:4883, V-A:PRO:540:CD:4885, V-A:PRO:540:CA:4881, V-A:PRO:540:N:4882, V-A:TYR:539:C:4865, V-A:GLY:454:CA:4046, V-A:ASP:366:CG:3210, V-B:GLU:543:CD:9880, V-A:GLU:543:CD:4906, V-B:ARG:545:CZ:9898, H-B:ASP:366:OD1:8185, H-A:TYR:539:N:4868, H-B:TYR:531:OH:9767, H-B:ASP:366:OD2:8186"]

$$$$
RR24_Rahimova_2017
     RDKit          3D

 43 49  0  0  0  0  0  0  0  0999 V2000
  128.2170  122.5110   58.2270 C   0  0  0  0  0  0  0  0  0  0  0  0
  128.4430  122.3740   59.7400 C   0  0  2  0  0  0  0  0  0  0  0  0
  127.4150  123.1770   60.5900 C   0  0  0  0  0  0  0  0  0  0  0  0
  127.1550  122.8780   61.7590 O   0  0  0  0  0  0  0  0  0  0  0  0
  126.8420  124.1980   59.8880 O   0  0  0  0  0  0  0  0  0  0  0  0
  127.1260  125.5010   60.2300 C   0  0  0  0  0  0  0  0  0  0  0  0
  127.1570  126.4790   59.2340 C   0  0  0  0  0  0  0  0  0  0  0  0
  127.4340  127.8010   59.5690 C   0  0  0  0  0  0  0  0  0  0  0  0
  127.6730  128.1530   60.9000 C   0  0  0  0  0  0  0  0  0  0  0  0
  127.9960  129.6080   61.2600 C   0  0  1  0  0  0  0  0  0  0  0  0
  129.0270  130.2280   60.2880 C   0  0  0  0  0  0  0  0  0  0  0  0
  128.8280  131.4080   59.6720 C   0  0  0  0  0  0  0  0  0  0  0  0
  127.6890  132.1500   59.8610 N   0  0  0  0  0  0  0  0  0  0  0  0
  126.6850  131.7190   60.6960 C   0  0  0  0  0  0  0  0  0  0  0  0
  125.6320  132.5710   60.7800 N   0  0  0  0  0  0  0  0  0  0  0  0
  124.5130  132.2770   61.4960 C   0  0  0  0  0  0  0  0  0  0  0  0
  123.4790  132.9160   61.2880 O   0  0  0  0  0  0  0  0  0  0  0  0
  124.6290  131.1440   62.2870 N   0  0  0  0  0  0  0  0  0  0  0  0
  123.4740  130.8300   63.1540 C   0  0  0  0  0  0  0  0  0  0  0  0
  125.6510  130.2100   62.2790 C   0  0  0  0  0  0  0  0  0  0  0  0
  125.6640  129.1920   62.9780 O   0  0  0  0  0  0  0  0  0  0  0  0
  126.7560  130.5430   61.3740 C   0  0  0  0  0  0  0  0  0  0  0  0
  129.9570  131.7430   58.8190 C   0  0  0  0  0  0  0  0  0  0  0  0
  130.2300  132.8280   57.9850 C   0  0  0  0  0  0  0  0  0  0  0  0
  131.4360  132.8580   57.2790 C   0  0  0  0  0  0  0  0  0  0  0  0
  132.3550  131.8120   57.4100 C   0  0  0  0  0  0  0  0  0  0  0  0
  132.0750  130.7290   58.2470 C   0  0  0  0  0  0  0  0  0  0  0  0
  130.8690  130.7030   58.9490 C   0  0  0  0  0  0  0  0  0  0  0  0
  130.3270  129.7000   59.8890 C   0  0  0  0  0  0  0  0  0  0  0  0
  130.8180  128.6420   60.2800 O   0  0  0  0  0  0  0  0  0  0  0  0
  127.6220  127.1740   61.8990 C   0  0  0  0  0  0  0  0  0  0  0  0
  127.3440  125.8520   61.5650 C   0  0  0  0  0  0  0  0  0  0  0  0
  129.8550  122.6710   60.1250 N   0  0  0  0  0  0  0  0  0  0  0  0
  130.5060  121.9340   61.0680 C   0  0  0  0  0  0  0  0  0  0  0  0
  130.0630  120.9810   61.7110 O   0  0  0  0  0  0  0  0  0  0  0  0
  131.8660  122.5230   61.1590 C   0  0  0  0  0  0  0  0  0  0  0  0
  132.9590  122.1790   61.9560 C   0  0  0  0  0  0  0  0  0  0  0  0
  134.1400  122.9190   61.8270 C   0  0  0  0  0  0  0  0  0  0  0  0
  134.2130  123.9780   60.9140 C   0  0  0  0  0  0  0  0  0  0  0  0
  133.1070  124.3070   60.1240 C   0  0  0  0  0  0  0  0  0  0  0  0
  131.9380  123.5590   60.2670 C   0  0  0  0  0  0  0  0  0  0  0  0
  130.6260  123.6620   59.5820 C   0  0  0  0  0  0  0  0  0  0  0  0
  130.3040  124.4660   58.7060 O   0  0  0  0  0  0  0  0  0  0  0  0
  2  1  1  6
  2  3  1  0
  3  4  2  0
  3  5  1  0
  5  6  1  0
  6  7  2  0
  7  8  1  0
  8  9  2  0
 10  9  1  6
 10 11  1  0
 11 12  2  0
 12 13  1  0
 13 14  1  0
 14 15  1  0
 15 16  1  0
 16 17  2  0
 16 18  1  0
 18 19  1  0
 18 20  1  0
 20 21  2  0
 20 22  1  0
 12 23  1  0
 23 24  2  0
 24 25  1  0
 25 26  2  0
 26 27  1  0
 27 28  2  0
 28 29  1  0
 29 30  2  0
  9 31  1  0
 31 32  2  0
  2 33  1  0
 33 34  1  0
 34 35  2  0
 34 36  1  0
 36 37  2  0
 37 38  1  0
 38 39  2  0
 39 40  1  0
 40 41  2  0
 41 42  1  0
 42 43  2  0
 32  6  1  0
 42 33  1  0
 22 10  1  0
 28 23  1  0
 41 36  1  0
 29 11  1  0
 22 14  2  0
M  END
>  <Binding energies>  (76) 
[-8.26]

>  <Ligand effiencies>  (76) 
[-0.18355555555555556]

>  <Interactions>  (76) 
["V-B:GLY:454:CA:9020, V-B:ILE:369:CG2:8208, V-B:GLY:453:C:9013, V-A:TYR:539:CE1:4873, V-B:ILE:369:CD1:8210, V-A:TYR:539:CD1:4871, V-A:PRO:540:CB:4883, V-A:PRO:540:CD:4885, V-A:PRO:540:CA:4881, V-A:PRO:540:N:4882, V-A:TYR:539:C:4865, V-B:PRO:540:C:9853, V-B:TYR:539:CE1:9847, V-B:TYR:539:C:9839, V-B:PRO:540:N:9856, H-B:ALA:541:N:9863, V-A:ILE:369:CD1:3236, V-B:PRO:540:CA:9855, V-A:LEU:475:CD2:4256, V-B:TYR:539:CD1:9845, V-A:GLY:454:CA:4046, V-A:ASP:366:CG:3210, H-B:ARG:545:NH2:9900, V-A:ILE:369:CG2:3234, V-B:GLY:453:CA:9015, V-B:GLU:543:CD:9880, H-A:ARG:545:NH2:4926, H-A:TYR:539:O:4866, V-B:TYR:539:CG:9844, V-A:TYR:539:CA:4867"]

$$$$
RR25_Rahimova_2017
     RDKit          3D

 39 44  0  0  0  0  0  0  0  0999 V2000
  133.8700  125.4030   63.1180 O   0  0  0  0  0  0  0  0  0  0  0  0
  133.1350  124.5040   62.7070 C   0  0  0  0  0  0  0  0  0  0  0  0
  133.7360  123.5280   61.9520 O   0  0  0  0  0  0  0  0  0  0  0  0
  133.0820  122.3480   61.6450 C   0  0  0  0  0  0  0  0  0  0  0  0
  133.8820  121.2360   61.3870 C   0  0  0  0  0  0  0  0  0  0  0  0
  133.2900  120.0170   61.0640 C   0  0  0  0  0  0  0  0  0  0  0  0
  131.8950  119.8930   60.9890 C   0  0  0  0  0  0  0  0  0  0  0  0
  131.2660  118.5920   60.6530 N   0  0  0  0  0  0  0  0  0  0  0  0
  131.9290  117.7620   60.0360 O   0  0  0  0  0  0  0  0  0  0  0  0
  130.1070  118.3920   61.0020 O   0  0  0  0  0  0  0  0  0  0  0  0
  131.1070  121.0290   61.2400 C   0  0  0  0  0  0  0  0  0  0  0  0
  131.6850  122.2600   61.5580 C   0  0  0  0  0  0  0  0  0  0  0  0
  130.8780  123.5120   61.8490 C   0  0  0  0  0  0  0  0  0  0  0  0
  131.6010  124.3630   62.9310 C   0  0  2  0  0  0  0  0  0  0  0  0
  130.8530  125.7040   63.1830 C   0  0  0  0  0  0  0  0  0  0  0  0
  130.6210  125.9820   64.3630 O   0  0  0  0  0  0  0  0  0  0  0  0
  130.5790  126.5860   62.1750 N   0  0  0  0  0  0  0  0  0  0  0  0
  130.5450  126.1890   60.7510 C   0  0  0  0  0  0  0  0  0  0  0  0
  131.1160  127.3390   59.8960 C   0  0  0  0  0  0  0  0  0  0  0  0
  130.4110  128.5980   60.1520 N   0  0  0  0  0  0  0  0  0  0  0  0
  130.8630  129.6620   59.2450 C   0  0  0  0  0  0  0  0  0  0  0  0
  130.4580  131.0790   59.7310 C   0  0  0  0  0  0  0  0  0  0  0  0
  129.0390  131.2460   60.1580 N   0  0  0  0  0  0  0  0  0  0  0  0
  128.8590  131.8780   61.3700 C   0  0  0  0  0  0  0  0  0  0  0  0
  129.7960  132.2530   62.0840 O   0  0  0  0  0  0  0  0  0  0  0  0
  127.4090  132.0980   61.7590 C   0  0  0  0  0  0  0  0  0  0  0  0
  127.1110  132.7540   62.9600 C   0  0  0  0  0  0  0  0  0  0  0  0
  125.7900  132.9810   63.3440 C   0  0  0  0  0  0  0  0  0  0  0  0
  124.7290  132.5640   62.5420 C   0  0  0  0  0  0  0  0  0  0  0  0
  124.9820  131.8960   61.3200 C   0  0  0  0  0  0  0  0  0  0  0  0
  123.9540  131.4470   60.4580 C   0  0  0  0  0  0  0  0  0  0  0  0
  124.2730  130.7990   59.2660 C   0  0  0  0  0  0  0  0  0  0  0  0
  125.6000  130.5810   58.9030 C   0  0  0  0  0  0  0  0  0  0  0  0
  126.6510  131.0070   59.7240 C   0  0  0  0  0  0  0  0  0  0  0  0
  126.3340  131.6690   60.9390 C   0  0  0  0  0  0  0  0  0  0  0  0
  128.0830  130.7590   59.2900 C   0  0  0  0  0  0  0  0  0  0  0  0
  128.3560  130.1800   58.2330 O   0  0  0  0  0  0  0  0  0  0  0  0
  130.5710  128.9800   61.5560 C   0  0  0  0  0  0  0  0  0  0  0  0
  129.9970  127.9050   62.5100 C   0  0  0  0  0  0  0  0  0  0  0  0
  1  2  2  0
  2  3  1  0
  3  4  1  0
  4  5  2  0
  5  6  1  0
  6  7  2  0
  7  8  1  0
  8  9  2  0
  8 10  1  0
  7 11  1  0
 11 12  2  0
 12 13  1  0
 13 14  1  0
 14 15  1  6
 15 16  2  0
 15 17  1  0
 17 18  1  0
 18 19  1  0
 19 20  1  0
 20 21  1  0
 21 22  1  0
 22 23  1  0
 23 24  1  0
 24 25  2  0
 24 26  1  0
 26 27  2  0
 27 28  1  0
 28 29  2  0
 29 30  1  0
 30 31  2  0
 31 32  1  0
 32 33  2  0
 33 34  1  0
 34 35  2  0
 34 36  1  0
 36 37  2  0
 20 38  1  0
 38 39  1  0
 14  2  1  0
 39 17  1  0
 12  4  1  0
 36 23  1  0
 35 26  1  0
 35 30  1  0
M  CHG  2   8   1  10  -1
M  END
>  <Binding energies>  (77) 
[-8.88]

>  <Ligand effiencies>  (77) 
[-0.22769230769230772]

>  <Interactions>  (77) 
["V-B:LEU:475:CD2:9230, V-A:TYR:539:CZ:4875, V-B:ASP:366:CB:8183, V-B:ILE:369:CG2:8208, V-A:TYR:539:CE1:4873, V-B:ILE:369:CD1:8210, V-B:ASP:366:CG:8184, H-A:ALA:541:N:4889, V-A:ALA:541:CB:4890, V-B:TYR:539:CE1:9847, V-A:ILE:369:CD1:3236, V-A:LEU:475:CD2:4256, V-B:TYR:539:CD1:9845, V-A:ASP:366:CG:3210, V-A:ILE:369:CG2:3234, H-A:ARG:545:NH2:4926, V-A:GLU:543:CD:4906, V-B:ILE:369:CB:8207, V-B:ASP:366:CA:8181, V-A:SER:385:CA:3404, H-A:GLY:454:N:4047, V-A:SER:385:C:3402, H-A:ARG:545:NH1:4925, H-A:ARG:545:NE:4922"]

$$$$
RR27_Rahimova_2017
     RDKit          3D

 39 44  0  0  0  0  0  0  0  0999 V2000
  129.3510  132.8490   62.1240 O   0  0  0  0  0  0  0  0  0  0  0  0
  128.5890  132.3080   61.3180 C   0  0  0  0  0  0  0  0  0  0  0  0
  127.0550  132.4590   61.5370 C   0  0  0  0  0  0  0  0  0  0  0  0
  126.5860  133.9260   61.5380 C   0  0  0  0  0  0  0  0  0  0  0  0
  127.4820  134.9900   61.7210 C   0  0  0  0  0  0  0  0  0  0  0  0
  127.0240  136.3040   61.7150 C   0  0  0  0  0  0  0  0  0  0  0  0
  125.6690  136.5610   61.5260 C   0  0  0  0  0  0  0  0  0  0  0  0
  124.7680  135.5160   61.3460 C   0  0  0  0  0  0  0  0  0  0  0  0
  125.2260  134.2020   61.3530 C   0  0  0  0  0  0  0  0  0  0  0  0
  126.5620  131.6190   62.7310 C   0  0  0  0  0  0  0  0  0  0  0  0
  127.3470  131.4350   63.8770 C   0  0  0  0  0  0  0  0  0  0  0  0
  126.8760  130.6600   64.9340 C   0  0  0  0  0  0  0  0  0  0  0  0
  125.6230  130.0610   64.8460 C   0  0  0  0  0  0  0  0  0  0  0  0
  124.8370  130.2260   63.7080 C   0  0  0  0  0  0  0  0  0  0  0  0
  125.3080  131.0000   62.6530 C   0  0  0  0  0  0  0  0  0  0  0  0
  129.0520  131.7210   60.1780 N   0  0  0  0  0  0  0  0  0  0  0  0
  128.2320  130.8510   59.3220 C   0  0  0  0  0  0  0  0  0  0  0  0
  128.3590  129.4190   59.8860 C   0  0  0  0  0  0  0  0  0  0  0  0
  129.8440  128.9460   60.0010 C   0  0  0  0  0  0  0  0  0  0  0  0
  130.0320  127.5680   60.6630 C   0  0  0  0  0  0  0  0  0  0  0  0
  130.5600  127.5660   61.9220 N   0  0  0  0  0  0  0  0  0  0  0  0
  130.7220  126.3750   62.5620 C   0  0  0  0  0  0  0  0  0  0  0  0
  131.2350  126.2450   63.8260 O   0  0  0  0  0  0  0  0  0  0  0  0
  130.3420  125.1930   61.8980 C   0  0  0  0  0  0  0  0  0  0  0  0
  130.3630  123.8730   62.2400 N   0  0  0  0  0  0  0  0  0  0  0  0
  129.8640  123.1620   61.1650 N   0  0  0  0  0  0  0  0  0  0  0  0
  129.5350  124.0290   60.1840 N   0  0  0  0  0  0  0  0  0  0  0  0
  129.0020  123.5430   58.9130 C   0  0  0  0  0  0  0  0  0  0  0  0
  127.4820  123.5840   58.8310 C   0  0  0  0  0  0  0  0  0  0  0  0
  126.8430  123.5800   57.5870 C   0  0  0  0  0  0  0  0  0  0  0  0
  125.4500  123.6060   57.5130 C   0  0  0  0  0  0  0  0  0  0  0  0
  124.6880  123.6310   58.6800 C   0  0  0  0  0  0  0  0  0  0  0  0
  125.3190  123.6250   59.9260 C   0  0  0  0  0  0  0  0  0  0  0  0
  124.3770  123.6290   61.3730 Cl  0  0  0  0  0  0  0  0  0  0  0  0
  126.7120  123.6070   60.0000 C   0  0  0  0  0  0  0  0  0  0  0  0
  129.8200  125.3210   60.5930 C   0  0  0  0  0  0  0  0  0  0  0  0
  129.6570  126.4740   59.9390 N   0  0  0  0  0  0  0  0  0  0  0  0
  130.7620  130.0520   60.6050 C   0  0  0  0  0  0  0  0  0  0  0  0
  130.4910  131.4590   60.0140 C   0  0  0  0  0  0  0  0  0  0  0  0
  1  2  2  0
  2  3  1  0
  3  4  1  0
  4  5  2  0
  5  6  1  0
  6  7  2  0
  7  8  1  0
  8  9  2  0
  3 10  1  0
 10 11  2  0
 11 12  1  0
 12 13  2  0
 13 14  1  0
 14 15  2  0
  2 16  1  0
 16 17  1  0
 17 18  1  0
 18 19  1  0
 19 20  1  0
 20 21  2  0
 21 22  1  0
 22 23  1  0
 22 24  2  0
 24 25  1  0
 25 26  2  0
 26 27  1  0
 27 28  1  0
 28 29  1  0
 29 30  2  0
 30 31  1  0
 31 32  2  0
 32 33  1  0
 33 34  1  0
 33 35  2  0
 27 36  1  0
 36 37  2  0
 19 38  1  0
 38 39  1  0
  9  4  1  0
 15 10  1  0
 39 16  1  0
 37 20  1  0
 36 24  1  0
 35 29  1  0
M  END
>  <Binding energies>  (78) 
[-9.97]

>  <Ligand effiencies>  (78) 
[-0.24925000000000003]

>  <Interactions>  (78) 
["V-B:LEU:475:CD2:9230, V-B:ILE:369:CG2:8208, V-A:TYR:539:CE1:4873, V-A:TYR:539:CD1:4871, H-A:ALA:541:N:4889, V-A:PRO:540:CA:4881, V-A:ALA:541:CB:4890, V-B:TYR:539:CE1:9847, V-B:PRO:540:CA:9855, V-B:TYR:539:CD1:9845, H-A:ARG:545:NH2:4926, H-A:GLU:543:OE2:4908, V-A:GLU:543:CD:4906, V-B:ARG:545:CZ:9898, V-B:PRO:540:CB:9857, V-B:ASN:362:CB:8147, V-B:PRO:482:CG:9298, V-B:PRO:482:CB:9297, V-B:SER:385:CA:8378, V-B:LEU:373:CD1:8251, V-B:ASN:362:C:8143"]

$$$$
RR28_Rahimova_2017
     RDKit          3D

 46 49  0  0  0  0  0  0  0  0999 V2000
  124.8620  134.2080   60.9650 C   0  0  0  0  0  0  0  0  0  0  0  0
  126.1950  133.6350   61.4320 C   0  0  0  0  0  0  0  0  0  0  0  0
  126.9170  134.3020   62.1700 O   0  0  0  0  0  0  0  0  0  0  0  0
  126.5010  132.3980   60.9900 N   0  0  0  0  0  0  0  0  0  0  0  0
  127.7170  131.6010   61.2700 C   0  0  0  0  0  0  0  0  0  0  0  0
  127.6330  131.0820   62.7340 C   0  0  0  0  0  0  0  0  0  0  0  0
  127.5760  129.7010   62.9730 C   0  0  0  0  0  0  0  0  0  0  0  0
  127.4950  129.2010   64.2690 C   0  0  0  0  0  0  0  0  0  0  0  0
  127.4690  130.0730   65.3580 C   0  0  0  0  0  0  0  0  0  0  0  0
  127.3760  129.5060   66.7740 C   0  0  0  0  0  0  0  0  0  0  0  0
  128.0750  128.3780   66.9160 F   0  0  0  0  0  0  0  0  0  0  0  0
  127.8390  130.3900   67.6580 F   0  0  0  0  0  0  0  0  0  0  0  0
  126.1000  129.2440   67.0580 F   0  0  0  0  0  0  0  0  0  0  0  0
  127.5240  131.4510   65.1350 C   0  0  0  0  0  0  0  0  0  0  0  0
  127.6040  131.9500   63.8370 C   0  0  0  0  0  0  0  0  0  0  0  0
  129.0080  132.4440   60.9710 C   0  0  0  0  0  0  0  0  0  0  0  0
  129.1780  132.7950   59.4710 C   0  0  0  0  0  0  0  0  0  0  0  0
  129.2250  131.5150   58.7460 N   0  0  0  0  0  0  0  0  0  0  0  0
  130.4200  130.9250   58.4690 C   0  0  0  0  0  0  0  0  0  0  0  0
  131.4930  131.5030   58.6550 O   0  0  0  0  0  0  0  0  0  0  0  0
  130.4280  129.5550   57.7480 C   0  0  0  0  0  0  0  0  0  0  0  0
  130.8400  128.3340   58.6150 C   0  0  0  0  0  0  0  0  0  0  0  0
  129.7320  127.2750   58.8240 C   0  0  0  0  0  0  0  0  0  0  0  0
  128.5580  127.6580   58.8270 O   0  0  0  0  0  0  0  0  0  0  0  0
  130.0590  125.9520   58.8600 N   0  0  0  0  0  0  0  0  0  0  0  0
  131.4070  125.4620   59.1730 C   0  0  0  0  0  0  0  0  0  0  0  0
  131.5000  125.3820   60.7130 C   0  0  0  0  0  0  0  0  0  0  0  0
  130.4020  124.4900   61.3900 C   0  0  0  0  0  0  0  0  0  0  0  0
  130.3430  124.8070   62.8330 N   0  0  0  0  0  0  0  0  0  0  0  0
  131.3620  124.8730   63.7130 C   0  0  0  0  0  0  0  0  0  0  0  0
  130.9900  125.2070   65.1540 C   0  0  0  0  0  0  0  0  0  0  0  0
  132.5410  124.6790   63.4180 O   0  0  0  0  0  0  0  0  0  0  0  0
  130.8590  123.0010   61.2540 C   0  0  0  0  0  0  0  0  0  0  0  0
  129.9820  121.9170   61.4280 C   0  0  0  0  0  0  0  0  0  0  0  0
  130.4290  120.6050   61.2970 C   0  0  0  0  0  0  0  0  0  0  0  0
  131.7660  120.3420   60.9900 C   0  0  0  0  0  0  0  0  0  0  0  0
  132.2710  118.9080   60.8380 C   0  0  0  0  0  0  0  0  0  0  0  0
  132.3740  118.5800   59.5480 F   0  0  0  0  0  0  0  0  0  0  0  0
  133.4750  118.8070   61.4000 F   0  0  0  0  0  0  0  0  0  0  0  0
  131.4600  118.0250   61.4230 F   0  0  0  0  0  0  0  0  0  0  0  0
  132.6510  121.4090   60.8210 C   0  0  0  0  0  0  0  0  0  0  0  0
  132.2010  122.7180   60.9530 C   0  0  0  0  0  0  0  0  0  0  0  0
  129.0100  124.7780   60.7050 C   0  0  0  0  0  0  0  0  0  0  0  0
  129.0320  124.9470   59.1620 C   0  0  0  0  0  0  0  0  0  0  0  0
  127.9660  130.7600   58.8150 C   0  0  0  0  0  0  0  0  0  0  0  0
  127.7470  130.3740   60.3010 C   0  0  0  0  0  0  0  0  0  0  0  0
  1  2  1  0
  2  3  2  0
  2  4  1  0
  4  5  1  0
  5  6  1  0
  6  7  2  0
  7  8  1  0
  8  9  2  0
  9 10  1  0
 10 11  1  0
 10 12  1  0
 10 13  1  0
  9 14  1  0
 14 15  2  0
  5 16  1  0
 16 17  1  0
 17 18  1  0
 18 19  1  0
 19 20  2  0
 19 21  1  0
 21 22  1  0
 22 23  1  0
 23 24  2  0
 23 25  1  0
 25 26  1  0
 26 27  1  0
 27 28  1  0
 28 29  1  0
 29 30  1  0
 30 31  1  0
 30 32  2  0
 28 33  1  0
 33 34  2  0
 34 35  1  0
 35 36  2  0
 36 37  1  0
 37 38  1  0
 37 39  1  0
 37 40  1  0
 36 41  1  0
 41 42  2  0
 28 43  1  0
 43 44  1  0
 18 45  1  0
 45 46  1  0
 46  5  1  0
 15  6  1  0
 44 25  1  0
 42 33  1  0
M  END
>  <Binding energies>  (79) 
[-7.73]

>  <Ligand effiencies>  (79) 
[-0.16104166666666667]

>  <Interactions>  (79) 
["V-B:LEU:475:CD2:9230, V-B:ILE:369:CG2:8208, V-A:TYR:539:CE1:4873, V-A:TYR:539:CD1:4871, V-A:PRO:540:CA:4881, V-A:PRO:540:N:4882, V-A:TYR:539:C:4865, V-A:ALA:541:CB:4890, V-B:TYR:539:CE1:9847, V-A:LEU:475:CD2:4256, V-B:TYR:539:CD1:9845, V-A:GLU:543:CG:4905, H-B:GLU:543:OE1:9881, V-A:ASP:366:CG:3210, V-A:ILE:369:CG2:3234, V-B:HIS:456:CE1:9040, H-B:GLU:543:OE2:9882, V-B:GLU:543:CD:9880, V-A:GLU:543:CD:4906, V-A:GLU:543:CB:4904, V-B:ARG:545:CG:9894, V-A:SER:385:CA:3404, V-A:SER:385:C:3402, V-B:TYR:484:CE2:9317, V-B:ALA:541:CB:9864, V-B:TYR:484:CZ:9318, V-B:TYR:539:CG:9844, V-A:SER:385:CB:3406, V-A:LEU:373:CD1:3277, V-A:PRO:482:CB:4323, V-A:PRO:482:CG:4324, V-B:TYR:539:CB:9843, V-A:GLU:543:CA:4902, V-A:LEU:475:CG:4254"]

$$$$
RR29_Rahimova_2017
     RDKit          3D

 18 19  0  0  0  0  0  0  0  0999 V2000
  129.2390  127.7430   70.1940 C   0  0  0  0  0  0  0  0  0  0  0  0
  129.1380  127.7040   68.6760 C   0  0  0  0  0  0  0  0  0  0  0  0
  130.4110  127.1460   68.0010 C   0  0  0  0  0  0  0  0  0  0  0  0
  130.1010  125.9080   67.1340 C   0  0  0  0  0  0  0  0  0  0  0  0
  131.1870  125.6400   66.1030 C   0  0  0  0  0  0  0  0  0  0  0  0
  132.5440  125.7200   66.4730 C   0  0  0  0  0  0  0  0  0  0  0  0
  133.5600  125.4750   65.5390 C   0  0  0  0  0  0  0  0  0  0  0  0
  133.1780  125.1640   64.2400 C   0  0  0  0  0  0  0  0  0  0  0  0
  131.8630  125.0870   63.8740 C   0  0  0  0  0  0  0  0  0  0  0  0
  130.8340  125.3150   64.7810 C   0  0  0  0  0  0  0  0  0  0  0  0
  131.7810  124.7350   62.5640 O   0  0  0  0  0  0  0  0  0  0  0  0
  133.0920  124.8050   62.0700 C   0  0  0  0  0  0  0  0  0  0  0  0
  133.9600  124.8620   63.1700 O   0  0  0  0  0  0  0  0  0  0  0  0
  128.0620  128.1250   68.1220 N   0  0  0  0  0  0  0  0  0  0  0  0
  128.0000  128.1700   66.7460 N   0  0  0  0  0  0  0  0  0  0  0  0
  127.5570  129.2290   66.0480 C   0  0  0  0  0  0  0  0  0  0  0  0
  127.1380  130.3750   66.5860 N   0  0  0  0  0  0  0  0  0  0  0  0
  127.5340  129.1300   64.7270 N   0  0  0  0  0  0  0  0  0  0  0  0
  1  2  1  0
  2  3  1  0
  3  4  1  0
  4  5  1  0
  5  6  2  0
  6  7  1  0
  7  8  2  0
  8  9  1  0
  9 10  2  0
  9 11  1  0
 11 12  1  0
 12 13  1  0
  2 14  2  0
 14 15  1  0
 15 16  1  0
 16 17  1  0
 16 18  2  0
 10  5  1  0
 13  8  1  0
M  CHG  1  18   1
M  END
>  <Binding energies>  (80) 
[-7.27]

>  <Ligand effiencies>  (80) 
[-0.3160869565217391]

>  <Interactions>  (80) 
["V-A:GLU:543:CG:4905, H-B:GLU:543:OE1:9881, V-B:HIS:456:CE1:9040, H-B:GLU:543:OE2:9882, V-B:GLU:543:CD:9880, H-A:ARG:545:NH2:4926, V-B:GLU:543:CB:9878, V-B:GLU:543:CG:9879, V-A:HIS:456:CE1:4066, H-A:GLU:543:OE2:4908, V-A:TYR:484:CZ:4344, V-A:GLU:543:CD:4906, V-A:GLU:543:CB:4904, V-A:ARG:545:CZ:4924, V-A:ARG:545:CG:4920, H-A:GLY:454:N:4047, V-A:ARG:545:CD:4921, V-B:TYR:484:CE2:9317, H-A:GLU:543:OE1:4907, V-B:TYR:484:CZ:9318, H-B:HIS:456:NE2:9041, H-A:ARG:545:NH1:4925, H-B:TYR:484:OH:9319, H-B:HIS:456:ND1:9038"]

$$$$
RR30_Rahimova_2017
     RDKit          3D

 18 19  0  0  0  0  0  0  0  0999 V2000
  123.7740  127.3300   74.9000 C   0  0  0  0  0  0  0  0  0  0  0  0
  124.5180  128.6260   75.2520 C   0  0  0  0  0  0  0  0  0  0  0  0
  126.0160  128.4900   75.0830 C   0  0  0  0  0  0  0  0  0  0  0  0
  126.8980  128.0900   75.9650 N   0  0  0  0  0  0  0  0  0  0  0  0
  128.1330  128.1520   75.3250 N   0  0  0  0  0  0  0  0  0  0  0  0
  127.8930  128.5930   74.1160 C   0  0  0  0  0  0  0  0  0  0  0  0
  129.0580  128.8710   72.8210 S   0  0  0  0  0  0  0  0  0  0  0  0
  129.0420  127.2310   72.0290 C   0  0  0  0  0  0  0  0  0  0  0  0
  129.4620  126.1190   72.9930 C   0  0  0  0  0  0  0  0  0  0  0  0
  130.1130  126.4080   74.0000 O   0  0  0  0  0  0  0  0  0  0  0  0
  129.1060  124.8640   72.6390 N   0  0  0  0  0  0  0  0  0  0  0  0
  129.3740  123.7000   73.3450 C   0  0  0  0  0  0  0  0  0  0  0  0
  130.0080  123.5710   74.4880 N   0  0  0  0  0  0  0  0  0  0  0  0
  130.0910  122.2460   74.8990 N   0  0  0  0  0  0  0  0  0  0  0  0
  129.5230  121.4060   74.0650 C   0  0  0  0  0  0  0  0  0  0  0  0
  129.4860  119.9120   74.2910 C   0  0  0  0  0  0  0  0  0  0  0  0
  128.8210  122.1960   72.6790 S   0  0  0  0  0  0  0  0  0  0  0  0
  126.5740  128.8240   73.8920 O   0  0  0  0  0  0  0  0  0  0  0  0
  1  2  1  0
  2  3  1  0
  3  4  2  0
  4  5  1  0
  5  6  2  0
  6  7  1  0
  7  8  1  0
  8  9  1  0
  9 10  2  0
  9 11  1  0
 11 12  1  0
 12 13  2  0
 13 14  1  0
 14 15  2  0
 15 16  1  0
 15 17  1  0
  6 18  1  0
 18  3  1  0
 17 12  1  0
M  END
>  <Binding energies>  (81) 
[-6.46]

>  <Ligand effiencies>  (81) 
[-0.34]

>  <Interactions>  (81) 
["V-B:GLU:543:C:9874, V-B:GLY:544:C:9884, V-A:HIS:456:CD2:4065, H-B:HIS:456:NE2:9041, V-B:HIS:456:CD2:9039, V-B:HIS:456:CG:9037, V-B:GLY:544:CA:9886, H-B:LYS:547:NZ:9923, H-A:LYS:547:NZ:4949, V-B:HIS:456:C:9032, V-B:LYS:547:CE:9922, V-B:HIS:456:CB:9036, V-B:VAL:458:CG2:9058, V-B:HIS:456:CA:9034, V-B:LYS:547:CD:9921, V-B:LYS:547:CB:9919, V-B:LYS:547:CG:9920, V-A:TYR:484:CB:4338, V-B:VAL:457:C:9044, V-A:TYR:484:C:4334, H-B:GLU:543:O:9875, V-B:ARG:545:C:9889"]

$$$$
RR31_Rahimova_2017
     RDKit          3D

 18 19  0  0  0  0  0  0  0  0999 V2000
  123.9970  123.4650   58.0190 C   0  0  0  0  0  0  0  0  0  0  0  0
  125.2700  123.5260   58.8520 C   0  0  0  0  0  0  0  0  0  0  0  0
  126.5080  123.4920   58.2090 C   0  0  0  0  0  0  0  0  0  0  0  0
  127.6900  123.5500   58.9430 C   0  0  0  0  0  0  0  0  0  0  0  0
  127.6710  123.6510   60.3430 C   0  0  0  0  0  0  0  0  0  0  0  0
  128.8480  123.7000   61.0940 N   0  0  0  0  0  0  0  0  0  0  0  0
  129.3470  122.5300   61.8420 C   0  0  0  0  0  0  0  0  0  0  0  0
  130.4020  122.8730   62.9200 C   0  0  0  0  0  0  0  0  0  0  0  0
  131.5320  123.5980   62.3340 N   0  0  0  0  0  0  0  0  0  0  0  0
  132.5670  123.9070   63.3250 C   0  0  0  0  0  0  0  0  0  0  0  0
  132.3530  125.2690   64.0150 C   0  0  0  0  0  0  0  0  0  0  0  0
  131.2120  125.2280   65.0450 C   0  0  0  0  0  0  0  0  0  0  0  0
  130.1190  126.2300   64.6570 N   0  0  0  0  0  0  0  0  0  0  0  0
  131.0090  124.8390   61.7650 C   0  0  0  0  0  0  0  0  0  0  0  0
  129.9780  124.5410   60.6520 C   0  0  0  0  0  0  0  0  0  0  0  0
  126.4210  123.6750   60.9780 C   0  0  0  0  0  0  0  0  0  0  0  0
  125.2250  123.6160   60.2520 C   0  0  0  0  0  0  0  0  0  0  0  0
  123.8990  123.6430   61.0020 C   0  0  0  0  0  0  0  0  0  0  0  0
  1  2  1  0
  2  3  2  0
  3  4  1  0
  4  5  2  0
  5  6  1  0
  6  7  1  0
  7  8  1  0
  8  9  1  0
  9 10  1  0
 10 11  1  0
 11 12  1  0
 12 13  1  0
  9 14  1  0
 14 15  1  0
  5 16  1  0
 16 17  2  0
 17 18  1  0
 17  2  1  0
 15  6  1  0
M  CHG  1  13   1
M  END
>  <Binding energies>  (82) 
[-6.77]

>  <Ligand effiencies>  (82) 
[-0.3223809523809524]

>  <Interactions>  (82) 
["V-B:ASP:366:CG:8184, V-B:PRO:540:N:9856, V-B:PRO:540:CA:9855, H-B:GLU:543:OE1:9881, H-B:GLU:543:OE2:9882, V-B:GLU:543:CD:9880, H-A:GLU:543:OE2:4908, V-A:GLU:543:CD:4906, V-A:ARG:545:CZ:4924, H-A:GLU:543:OE1:4907, V-B:PRO:540:CB:9857, V-B:ALA:541:CB:9864, V-B:ASN:362:CB:8147, V-B:LEU:363:CA:8156, V-B:LEU:363:CD1:8160, V-B:ASN:362:C:8143, V-B:ASN:362:CA:8145, V-B:LEU:363:CB:8158"]

$$$$
RR32_Rahimova_2017
     RDKit          3D

 18 20  0  0  0  0  0  0  0  0999 V2000
  129.0120  127.7530   72.7500 C   0  0  0  0  0  0  0  0  0  0  0  0
  128.6200  129.0870   73.3790 C   0  0  0  0  0  0  0  0  0  0  0  0
  129.3740  130.2150   73.0550 C   0  0  0  0  0  0  0  0  0  0  0  0
  129.0450  131.4500   73.6070 C   0  0  0  0  0  0  0  0  0  0  0  0
  129.7950  132.5670   73.2830 N   0  0  0  0  0  0  0  0  0  0  0  0
  129.7840  133.0040   71.8750 C   0  0  0  0  0  0  0  0  0  0  0  0
  130.7890  134.1420   71.5810 C   0  0  0  0  0  0  0  0  0  0  0  0
  130.5060  135.2980   72.4310 N   0  0  0  0  0  0  0  0  0  0  0  0
  131.4340  136.3830   72.1310 C   0  0  0  0  0  0  0  0  0  0  0  0
  130.6490  134.8800   73.8240 C   0  0  0  0  0  0  0  0  0  0  0  0
  129.6440  133.7510   74.1510 C   0  0  0  0  0  0  0  0  0  0  0  0
  128.0050  131.6140   74.4650 N   0  0  0  0  0  0  0  0  0  0  0  0
  127.2530  130.5310   74.8030 C   0  0  0  0  0  0  0  0  0  0  0  0
  126.1760  130.7310   75.7010 C   0  0  0  0  0  0  0  0  0  0  0  0
  125.3740  129.6610   76.0820 C   0  0  0  0  0  0  0  0  0  0  0  0
  125.6170  128.3860   75.5850 C   0  0  0  0  0  0  0  0  0  0  0  0
  126.6660  128.1560   74.7000 C   0  0  0  0  0  0  0  0  0  0  0  0
  127.5150  129.2220   74.2830 C   0  0  0  0  0  0  0  0  0  0  0  0
  1  2  1  0
  2  3  2  0
  3  4  1  0
  4  5  1  0
  5  6  1  0
  6  7  1  0
  7  8  1  0
  8  9  1  0
  8 10  1  0
 10 11  1  0
  4 12  2  0
 12 13  1  0
 13 14  2  0
 14 15  1  0
 15 16  2  0
 16 17  1  0
 17 18  2  0
 18  2  1  0
 11  5  1  0
 18 13  1  0
M  END
>  <Binding energies>  (83) 
[-5.83]

>  <Ligand effiencies>  (83) 
[-0.3238888888888889]

>  <Interactions>  (83) 
["V-A:GLY:544:CA:4912, V-A:GLU:543:C:4900, V-B:HIS:456:CD2:9039, V-B:HIS:456:CG:9037, V-A:LYS:547:CE:4948, V-B:LYS:471:CD:9190, V-B:LYS:547:CE:9922, V-B:HIS:456:CB:9036, V-B:VAL:458:CG2:9058, V-B:LYS:547:CD:9921, V-B:TYR:484:CB:9312, V-B:TYR:484:CG:9313, V-B:TYR:484:CD2:9315, V-A:GLU:543:CA:4902, V-B:SER:483:CB:9304, V-A:VAL:542:C:4892, H-B:TYR:484:N:9311"]

$$$$
RR5_Rahimova_2017
     RDKit          3D

 45 50  0  0  0  0  0  0  0  0999 V2000
  128.2160  122.8770   62.4540 O   0  0  0  0  0  0  0  0  0  0  0  0
  128.3670  123.0540   61.2470 C   0  0  0  0  0  0  0  0  0  0  0  0
  127.1370  123.2940   60.3510 C   0  0  0  0  0  0  0  0  0  0  0  0
  126.1180  124.3380   60.9310 C   0  0  2  0  0  0  0  0  0  0  0  0
  126.6950  125.3100   61.8820 N   0  0  0  0  0  0  0  0  0  0  0  0
  126.8990  126.6370   61.5320 C   0  0  0  0  0  0  0  0  0  0  0  0
  126.6020  127.1700   60.4590 O   0  0  0  0  0  0  0  0  0  0  0  0
  127.4990  127.2600   62.5610 O   0  0  0  0  0  0  0  0  0  0  0  0
  128.3200  128.4070   62.3600 C   0  0  0  0  0  0  0  0  0  0  0  0
  127.6190  129.6820   62.8790 C   0  0  0  0  0  0  0  0  0  0  0  0
  126.4330  130.1120   62.0340 C   0  0  0  0  0  0  0  0  0  0  0  0
  126.3810  130.4350   60.6750 C   0  0  0  0  0  0  0  0  0  0  0  0
  125.1630  130.7880   60.0910 C   0  0  0  0  0  0  0  0  0  0  0  0
  123.9990  130.8190   60.8610 C   0  0  0  0  0  0  0  0  0  0  0  0
  124.0490  130.5000   62.2190 C   0  0  0  0  0  0  0  0  0  0  0  0
  125.2680  130.1480   62.8010 C   0  0  0  0  0  0  0  0  0  0  0  0
  125.6100  129.7790   64.1840 C   0  0  0  0  0  0  0  0  0  0  0  0
  124.8190  129.6780   65.3310 C   0  0  0  0  0  0  0  0  0  0  0  0
  125.4070  129.3240   66.5460 C   0  0  0  0  0  0  0  0  0  0  0  0
  126.7790  129.0690   66.6130 C   0  0  0  0  0  0  0  0  0  0  0  0
  127.5640  129.1680   65.4640 C   0  0  0  0  0  0  0  0  0  0  0  0
  126.9800  129.5190   64.2450 C   0  0  0  0  0  0  0  0  0  0  0  0
  124.9100  123.6230   61.5850 C   0  0  0  0  0  0  0  0  0  0  0  0
  123.8630  123.3750   61.0200 O   0  0  0  0  0  0  0  0  0  0  0  0
  125.2120  123.3000   62.8770 O   0  0  0  0  0  0  0  0  0  0  0  0
  129.5620  123.0890   60.6160 N   0  0  0  0  0  0  0  0  0  0  0  0
  130.9720  122.9170   61.0770 C   0  0  0  0  0  0  0  0  0  0  0  0
  131.7720  123.7000   59.9820 C   0  0  0  0  0  0  0  0  0  0  0  0
  133.1750  123.6530   59.9240 C   0  0  0  0  0  0  0  0  0  0  0  0
  133.8760  124.3520   58.9450 C   0  0  0  0  0  0  0  0  0  0  0  0
  133.1850  125.1200   58.0140 C   0  0  0  0  0  0  0  0  0  0  0  0
  131.7970  125.1840   58.0460 C   0  0  0  0  0  0  0  0  0  0  0  0
  131.0970  124.4760   59.0190 C   0  0  0  0  0  0  0  0  0  0  0  0
  131.0850  123.5760   62.4920 C   0  0  0  0  0  0  0  0  0  0  0  0
  130.7660  122.8700   63.6630 C   0  0  0  0  0  0  0  0  0  0  0  0
  130.8550  123.4830   64.9100 C   0  0  0  0  0  0  0  0  0  0  0  0
  131.2620  124.8100   65.0030 C   0  0  0  0  0  0  0  0  0  0  0  0
  131.5870  125.5290   63.8580 C   0  0  0  0  0  0  0  0  0  0  0  0
  131.5060  124.9120   62.6130 C   0  0  0  0  0  0  0  0  0  0  0  0
  131.2530  121.3760   61.0500 C   0  0  0  0  0  0  0  0  0  0  0  0
  130.2400  120.4500   61.3560 C   0  0  0  0  0  0  0  0  0  0  0  0
  130.4860  119.0800   61.3410 C   0  0  0  0  0  0  0  0  0  0  0  0
  131.7520  118.6100   61.0140 C   0  0  0  0  0  0  0  0  0  0  0  0
  132.7700  119.4990   60.6930 C   0  0  0  0  0  0  0  0  0  0  0  0
  132.5200  120.8690   60.7090 C   0  0  0  0  0  0  0  0  0  0  0  0
  1  2  2  0
  2  3  1  0
  4  3  1  1
  4  5  1  0
  5  6  1  0
  6  7  2  0
  6  8  1  0
  8  9  1  0
  9 10  1  0
 10 11  1  0
 11 12  2  0
 12 13  1  0
 13 14  2  0
 14 15  1  0
 15 16  2  0
 16 17  1  0
 17 18  2  0
 18 19  1  0
 19 20  2  0
 20 21  1  0
 21 22  2  0
  4 23  1  0
 23 24  2  0
 23 25  1  0
  2 26  1  0
 26 27  1  0
 27 28  1  0
 28 29  2  0
 29 30  1  0
 30 31  2  0
 31 32  1  0
 32 33  2  0
 27 34  1  0
 34 35  2  0
 35 36  1  0
 36 37  2  0
 37 38  1  0
 38 39  2  0
 27 40  1  0
 40 41  2  0
 41 42  1  0
 42 43  2  0
 43 44  1  0
 44 45  2  0
 22 10  1  0
 33 28  1  0
 39 34  1  0
 45 40  1  0
 16 11  1  0
 22 17  1  0
M  END
>  <Binding energies>  (84) 
[-11.19]

>  <Ligand effiencies>  (84) 
[-0.233125]

>  <Interactions>  (84) 
["V-A:TYR:539:CE1:4873, V-B:ILE:369:CD1:8210, V-B:ASP:366:CG:8184, V-B:TYR:539:CE1:9847, H-B:ALA:541:N:9863, V-B:PRO:540:CA:9855, V-A:LEU:475:CD2:4256, V-B:TYR:539:CD1:9845, H-B:GLU:543:OE1:9881, V-A:ASP:366:CG:3210, H-B:ARG:545:NH2:9900, V-A:ILE:369:CG2:3234, V-B:HIS:456:CE1:9040, H-B:GLU:543:OE2:9882, V-B:GLU:543:CD:9880, V-B:GLU:543:CB:9878, V-A:ASP:366:CA:3207, V-A:ASP:366:CB:3209, V-A:TYR:484:CE2:4343, V-A:TYR:484:CZ:4344, V-A:GLU:543:CD:4906, V-A:ILE:369:CB:3233, V-B:ARG:545:CZ:9898, V-B:ARG:545:CG:9894, V-A:ARG:545:CZ:4924, V-A:SER:385:CA:3404, H-B:ALA:541:O:9861, V-B:PRO:540:CB:9857, V-B:ALA:541:CB:9864, V-B:TYR:539:CZ:9849, V-B:TYR:484:CZ:9318, V-A:ASP:366:C:3205, V-B:ARG:545:CD:9895, V-B:ASN:362:CB:8147, V-A:LEU:373:CD1:3277, V-A:PRO:482:CB:4323, V-A:PRO:482:CG:4324, H-B:LEU:363:N:8157, H-B:ASN:362:ND2:8150"]

$$$$
