1a_Ghoteimi_2023
     RDKit          3D

 40 43  0  0  0  0  0  0  0  0999 V2000
  133.0610  117.7590   60.5820 C   0  0  0  0  0  0  0  0  0  0  0  0
  132.5400  119.2000   60.6070 C   0  0  0  0  0  0  0  0  0  0  0  0
  133.6030  120.0780   60.9570 O   0  0  0  0  0  0  0  0  0  0  0  0
  133.3700  121.2160   61.6600 C   0  0  0  0  0  0  0  0  0  0  0  0
  134.1080  121.6210   62.5630 O   0  0  0  0  0  0  0  0  0  0  0  0
  132.1270  121.9370   61.2240 C   0  0  0  0  0  0  0  0  0  0  0  0
  132.1640  122.9850   60.2920 C   0  0  0  0  0  0  0  0  0  0  0  0
  130.9950  123.6370   59.9100 C   0  0  0  0  0  0  0  0  0  0  0  0
  129.7610  123.2480   60.4530 C   0  0  0  0  0  0  0  0  0  0  0  0
  128.5210  123.8390   60.1430 N   0  0  0  0  0  0  0  0  0  0  0  0
  127.3070  123.6490   60.7050 C   0  0  0  0  0  0  0  0  0  0  0  0
  127.0650  122.8960   61.6480 O   0  0  0  0  0  0  0  0  0  0  0  0
  126.1660  124.4620   60.0940 C   0  0  0  0  0  0  0  0  0  0  0  0
  126.7840  125.7550   58.9770 S   0  0  0  0  0  0  0  0  0  0  0  0
  127.6310  126.9340   60.0040 C   0  0  0  0  0  0  0  0  0  0  0  0
  128.5970  126.3910   60.7820 N   0  0  0  0  0  0  0  0  0  0  0  0
  129.3230  127.1870   61.6110 C   0  0  0  0  0  0  0  0  0  0  0  0
  130.3890  126.5140   62.4260 C   0  0  0  0  0  0  0  0  0  0  0  0
  131.6150  126.1360   61.8540 C   0  0  0  0  0  0  0  0  0  0  0  0
  132.6020  125.5130   62.6120 C   0  0  0  0  0  0  0  0  0  0  0  0
  132.3960  125.2460   63.9630 C   0  0  0  0  0  0  0  0  0  0  0  0
  133.4310  124.6270   64.6380 O   0  0  0  0  0  0  0  0  0  0  0  0
  133.8510  125.1490   65.8930 C   0  0  0  0  0  0  0  0  0  0  0  0
  131.1760  125.6130   64.5480 C   0  0  0  0  0  0  0  0  0  0  0  0
  130.1910  126.2360   63.7870 C   0  0  0  0  0  0  0  0  0  0  0  0
  129.0800  128.5650   61.6690 C   0  0  0  0  0  0  0  0  0  0  0  0
  128.0680  129.1450   60.8920 C   0  0  0  0  0  0  0  0  0  0  0  0
  127.8440  130.6160   61.0290 C   0  0  0  0  0  0  0  0  0  0  0  0
  126.6860  131.1110   61.6380 C   0  0  0  0  0  0  0  0  0  0  0  0
  126.4920  132.4830   61.7750 C   0  0  0  0  0  0  0  0  0  0  0  0
  127.4510  133.3850   61.3150 C   0  0  0  0  0  0  0  0  0  0  0  0
  127.1720  134.7250   61.4950 O   0  0  0  0  0  0  0  0  0  0  0  0
  125.8290  135.1790   61.3700 C   0  0  0  0  0  0  0  0  0  0  0  0
  128.6170  132.8920   60.7110 C   0  0  0  0  0  0  0  0  0  0  0  0
  128.8090  131.5190   60.5740 C   0  0  0  0  0  0  0  0  0  0  0  0
  127.3200  128.3110   60.0270 C   0  0  0  0  0  0  0  0  0  0  0  0
  126.2590  128.8630   59.1780 C   0  0  0  0  0  0  0  0  0  0  0  0
  125.4220  129.3000   58.5090 N   0  0  0  0  0  0  0  0  0  0  0  0
  129.7210  122.2090   61.3840 C   0  0  0  0  0  0  0  0  0  0  0  0
  130.8920  121.5580   61.7650 C   0  0  0  0  0  0  0  0  0  0  0  0
  1  2  1  0
  2  3  1  0
  3  4  1  0
  4  5  2  0
  4  6  1  0
  6  7  2  0
  7  8  1  0
  8  9  2  0
  9 10  1  0
 10 11  1  0
 11 12  2  0
 11 13  1  0
 13 14  1  0
 14 15  1  0
 15 16  2  0
 16 17  1  0
 17 18  1  0
 18 19  2  0
 19 20  1  0
 20 21  2  0
 21 22  1  0
 22 23  1  0
 21 24  1  0
 24 25  2  0
 17 26  2  0
 26 27  1  0
 27 28  1  0
 28 29  2  0
 29 30  1  0
 30 31  2  0
 31 32  1  0
 32 33  1  0
 31 34  1  0
 34 35  2  0
 27 36  2  0
 36 37  1  0
 37 38  3  0
  9 39  1  0
 39 40  2  0
 40  6  1  0
 36 15  1  0
 25 18  1  0
 35 28  1  0
M  END
>  <Binding energies>  (1) 
[-7.06]

>  <Ligand effiencies>  (1) 
[-0.1721951219512195]

>  <Interactions>  (1) 
["V-B:LEU:475:CD2:9230, V-B:ASP:366:CB:8183, V-A:TYR:539:CE1:4873, V-A:TYR:539:CD1:4871, V-B:ASP:366:CG:8184, V-A:TYR:539:C:4865, V-B:TYR:539:CE1:9847, H-B:ALA:541:N:9863, V-B:PRO:540:CA:9855, V-A:GLY:453:C:4039, V-A:LEU:475:CD2:4256, V-B:TYR:539:CD1:9845, V-A:GLY:454:CA:4046, V-A:ILE:369:CG2:3234, V-B:GLU:543:CD:9880, V-A:HIS:456:CE1:4066, V-A:TYR:484:CZ:4344, V-A:GLU:543:CD:4906, V-A:ARG:545:CZ:4924, V-A:ARG:545:CG:4920, V-A:SER:385:CA:3404, H-A:GLY:454:N:4047, V-A:ARG:545:CD:4921, V-B:ALA:541:CB:9864, H-A:TYR:484:OH:4345, V-A:SER:385:CB:3406, V-A:LEU:373:CD1:3277"]

$$$$
1b_Ghoteimi_2023
     RDKit          3D

 34 37  0  0  0  0  0  0  0  0999 V2000
  134.0840  124.3780   59.0110 C   0  0  0  0  0  0  0  0  0  0  0  0
  132.8270  124.4630   58.3500 O   0  0  0  0  0  0  0  0  0  0  0  0
  131.9310  125.4440   58.7310 C   0  0  0  0  0  0  0  0  0  0  0  0
  131.5650  126.3690   57.7560 C   0  0  0  0  0  0  0  0  0  0  0  0
  130.6690  127.3930   58.0490 C   0  0  0  0  0  0  0  0  0  0  0  0
  130.1070  127.5200   59.3280 C   0  0  0  0  0  0  0  0  0  0  0  0
  129.1410  128.6290   59.6410 C   0  0  0  0  0  0  0  0  0  0  0  0
  128.3600  128.6530   60.8010 C   0  0  0  0  0  0  0  0  0  0  0  0
  127.4770  129.7120   61.0480 C   0  0  0  0  0  0  0  0  0  0  0  0
  126.6710  129.6680   62.3040 C   0  0  0  0  0  0  0  0  0  0  0  0
  125.3390  130.0900   62.3030 C   0  0  0  0  0  0  0  0  0  0  0  0
  124.5860  130.0600   63.4730 C   0  0  0  0  0  0  0  0  0  0  0  0
  125.1500  129.6110   64.6680 C   0  0  0  0  0  0  0  0  0  0  0  0
  124.3280  129.6160   65.7790 O   0  0  0  0  0  0  0  0  0  0  0  0
  124.8940  129.3710   67.0620 C   0  0  0  0  0  0  0  0  0  0  0  0
  126.4890  129.1940   64.6760 C   0  0  0  0  0  0  0  0  0  0  0  0
  127.2390  129.2260   63.5040 C   0  0  0  0  0  0  0  0  0  0  0  0
  127.4040  130.7630   60.1010 C   0  0  0  0  0  0  0  0  0  0  0  0
  126.5680  131.9390   60.3590 C   0  0  0  0  0  0  0  0  0  0  0  0
  125.9080  132.8680   60.5630 N   0  0  0  0  0  0  0  0  0  0  0  0
  128.2050  130.6670   58.9410 C   0  0  0  0  0  0  0  0  0  0  0  0
  128.2360  131.8870   57.6440 S   0  0  0  0  0  0  0  0  0  0  0  0
  129.9750  132.3630   57.3630 C   0  0  0  0  0  0  0  0  0  0  0  0
  130.9690  131.8410   58.4100 C   0  0  0  0  0  0  0  0  0  0  0  0
  131.9200  131.1310   58.0770 O   0  0  0  0  0  0  0  0  0  0  0  0
  130.7010  132.2220   59.6800 N   0  0  0  0  0  0  0  0  0  0  0  0
  131.4250  131.9030   60.8230 C   0  0  0  0  0  0  0  0  0  0  0  0
  132.7800  131.5770   60.8010 C   0  0  0  0  0  0  0  0  0  0  0  0
  133.1110  131.3330   62.1140 C   0  0  0  0  0  0  0  0  0  0  0  0
  132.0120  131.5050   62.8870 O   0  0  0  0  0  0  0  0  0  0  0  0
  130.9500  131.8670   62.0580 N   0  0  0  0  0  0  0  0  0  0  0  0
  129.0610  129.6370   58.7340 N   0  0  0  0  0  0  0  0  0  0  0  0
  130.4840  126.5840   60.3030 C   0  0  0  0  0  0  0  0  0  0  0  0
  131.3800  125.5600   60.0150 C   0  0  0  0  0  0  0  0  0  0  0  0
  1  2  1  0
  2  3  1  0
  3  4  2  0
  4  5  1  0
  5  6  2  0
  6  7  1  0
  7  8  2  0
  8  9  1  0
  9 10  1  0
 10 11  2  0
 11 12  1  0
 12 13  2  0
 13 14  1  0
 14 15  1  0
 13 16  1  0
 16 17  2  0
  9 18  2  0
 18 19  1  0
 19 20  3  0
 18 21  1  0
 21 22  1  0
 22 23  1  0
 23 24  1  0
 24 25  2  0
 24 26  1  0
 26 27  1  0
 27 28  1  0
 28 29  2  0
 29 30  1  0
 30 31  1  0
 21 32  2  0
  6 33  1  0
 33 34  2  0
 34  3  1  0
 32  7  1  0
 17 10  1  0
 31 27  2  0
M  END
>  <Binding energies>  (2) 
[-6.73]

>  <Ligand effiencies>  (2) 
[-0.1922857142857143]

>  <Interactions>  (2) 
["V-A:TYR:539:CE1:4873, V-A:TYR:539:CD1:4871, V-A:PRO:540:CB:4883, H-A:ALA:541:N:4889, V-A:PRO:540:CA:4881, V-A:PRO:540:N:4882, V-A:TYR:539:C:4865, V-A:ILE:369:CD1:3236, V-A:ASP:366:CG:3210, V-A:ILE:369:CG2:3234, V-B:HIS:456:CE1:9040, H-A:ARG:545:NH2:4926, V-A:PRO:540:C:4879, V-A:ASP:366:CA:3207, V-A:ASP:366:CB:3209, H-B:GLY:454:N:9021, V-A:ILE:369:CB:3233, V-B:ARG:545:CZ:9898, V-B:ARG:545:CG:9894, V-A:ARG:545:CZ:4924, V-B:TYR:484:CZ:9318, H-A:TYR:539:O:4866, H-B:ARG:545:NE:9896, V-B:ARG:545:CD:9895, H-B:TYR:539:OH:9850, H-A:TYR:531:OH:4793, H-B:TYR:484:OH:9319, V-A:ASN:362:CB:3173"]

$$$$
1c_Ghoteimi_2023
     RDKit          3D

 34 37  0  0  0  0  0  0  0  0999 V2000
  134.3200  125.1860   67.2610 C   0  0  0  0  0  0  0  0  0  0  0  0
  134.2490  124.7260   65.9160 O   0  0  0  0  0  0  0  0  0  0  0  0
  133.1960  125.1320   65.1180 C   0  0  0  0  0  0  0  0  0  0  0  0
  133.4390  125.1990   63.7490 C   0  0  0  0  0  0  0  0  0  0  0  0
  132.4370  125.6010   62.8700 C   0  0  0  0  0  0  0  0  0  0  0  0
  131.1600  125.9500   63.3360 C   0  0  0  0  0  0  0  0  0  0  0  0
  130.0770  126.3890   62.3930 C   0  0  0  0  0  0  0  0  0  0  0  0
  129.0750  127.2940   62.7600 C   0  0  0  0  0  0  0  0  0  0  0  0
  128.1020  127.6940   61.8370 C   0  0  0  0  0  0  0  0  0  0  0  0
  127.1030  128.7130   62.2770 C   0  0  0  0  0  0  0  0  0  0  0  0
  126.5800  129.6360   61.3670 C   0  0  0  0  0  0  0  0  0  0  0  0
  125.6660  130.5990   61.7830 C   0  0  0  0  0  0  0  0  0  0  0  0
  125.2610  130.6600   63.1160 C   0  0  0  0  0  0  0  0  0  0  0  0
  124.3500  131.6480   63.4390 O   0  0  0  0  0  0  0  0  0  0  0  0
  123.8980  132.5360   62.4220 C   0  0  0  0  0  0  0  0  0  0  0  0
  125.7880  129.7390   64.0350 C   0  0  0  0  0  0  0  0  0  0  0  0
  126.7030  128.7770   63.6150 C   0  0  0  0  0  0  0  0  0  0  0  0
  128.1390  127.1400   60.5360 C   0  0  0  0  0  0  0  0  0  0  0  0
  127.1280  127.4930   59.5330 C   0  0  0  0  0  0  0  0  0  0  0  0
  126.3300  127.7730   58.7430 N   0  0  0  0  0  0  0  0  0  0  0  0
  129.1860  126.2470   60.2280 C   0  0  0  0  0  0  0  0  0  0  0  0
  129.4550  125.6080   58.5890 S   0  0  0  0  0  0  0  0  0  0  0  0
  131.2310  125.8630   58.2740 C   0  0  0  0  0  0  0  0  0  0  0  0
  132.0750  124.6610   58.7140 C   0  0  0  0  0  0  0  0  0  0  0  0
  133.1270  124.4080   58.1250 O   0  0  0  0  0  0  0  0  0  0  0  0
  131.5960  123.9810   59.7790 N   0  0  0  0  0  0  0  0  0  0  0  0
  132.2360  122.9620   60.4670 C   0  0  0  0  0  0  0  0  0  0  0  0
  131.7770  121.7590   60.7380 N   0  0  0  0  0  0  0  0  0  0  0  0
  132.6740  121.0320   61.3750 C   0  0  0  0  0  0  0  0  0  0  0  0
  133.8950  121.6480   61.6320 C   0  0  0  0  0  0  0  0  0  0  0  0
  133.8560  123.2680   61.0030 S   0  0  0  0  0  0  0  0  0  0  0  0
  130.1320  125.8910   61.1300 N   0  0  0  0  0  0  0  0  0  0  0  0
  130.9240  125.8730   64.7170 C   0  0  0  0  0  0  0  0  0  0  0  0
  131.9240  125.4730   65.5990 C   0  0  0  0  0  0  0  0  0  0  0  0
  1  2  1  0
  2  3  1  0
  3  4  2  0
  4  5  1  0
  5  6  2  0
  6  7  1  0
  7  8  2  0
  8  9  1  0
  9 10  1  0
 10 11  2  0
 11 12  1  0
 12 13  2  0
 13 14  1  0
 14 15  1  0
 13 16  1  0
 16 17  2  0
  9 18  2  0
 18 19  1  0
 19 20  3  0
 18 21  1  0
 21 22  1  0
 22 23  1  0
 23 24  1  0
 24 25  2  0
 24 26  1  0
 26 27  1  0
 27 28  2  0
 28 29  1  0
 29 30  2  0
 30 31  1  0
 21 32  2  0
  6 33  1  0
 33 34  2  0
 34  3  1  0
 32  7  1  0
 17 10  1  0
 31 27  1  0
M  END
>  <Binding energies>  (3) 
[-6.0]

>  <Ligand effiencies>  (3) 
[-0.17142857142857143]

>  <Interactions>  (3) 
["V-B:GLY:454:CA:9020, V-B:ILE:369:CD1:8210, V-B:ASP:366:CG:8184, V-B:TYR:539:CE1:9847, V-A:ILE:369:CD1:3236, V-A:LEU:475:CD2:4256, V-A:GLY:454:CA:4046, V-A:ASP:366:CG:3210, V-A:ILE:369:CG2:3234, V-B:GLU:543:CD:9880, V-A:HIS:456:CE1:4066, H-B:GLY:454:N:9021, V-A:TYR:484:CZ:4344, V-B:ARG:545:CZ:9898, V-A:ARG:545:CZ:4924, V-A:ARG:545:CG:4920, H-A:GLY:454:N:4047, V-A:ARG:545:CD:4921, V-B:TYR:539:CZ:9849, V-A:GLY:453:CA:4041, H-A:TYR:484:OH:4345, H-B:TYR:539:OH:9850, V-A:ARG:545:CB:4919, H-B:TYR:531:OH:9767, V-A:GLY:454:C:4044, V-A:ILE:455:C:4049, H-A:ILE:455:N:4052, V-A:TYR:484:CE1:4342"]

$$$$
1d_Ghoteimi_2023
     RDKit          3D

 30 32  0  0  0  0  0  0  0  0999 V2000
  129.5600  133.0030   60.6050 C   0  0  0  0  0  0  0  0  0  0  0  0
  130.2030  132.1460   61.5370 O   0  0  0  0  0  0  0  0  0  0  0  0
  131.4670  131.7260   61.3210 C   0  0  0  0  0  0  0  0  0  0  0  0
  132.4120  131.8280   62.1050 O   0  0  0  0  0  0  0  0  0  0  0  0
  131.6380  131.0830   59.9480 C   0  0  0  0  0  0  0  0  0  0  0  0
  130.0800  130.2400   59.5400 S   0  0  0  0  0  0  0  0  0  0  0  0
  129.5700  129.3550   60.9970 C   0  0  0  0  0  0  0  0  0  0  0  0
  130.3420  128.2790   61.2790 N   0  0  0  0  0  0  0  0  0  0  0  0
  130.0620  127.5110   62.3630 C   0  0  0  0  0  0  0  0  0  0  0  0
  130.9690  126.3400   62.6090 C   0  0  0  0  0  0  0  0  0  0  0  0
  130.9740  125.6680   63.8420 C   0  0  0  0  0  0  0  0  0  0  0  0
  131.8210  124.5880   64.0700 C   0  0  0  0  0  0  0  0  0  0  0  0
  132.6900  124.1450   63.0760 C   0  0  0  0  0  0  0  0  0  0  0  0
  133.4960  123.0680   63.3920 O   0  0  0  0  0  0  0  0  0  0  0  0
  133.6390  122.0100   62.4510 C   0  0  0  0  0  0  0  0  0  0  0  0
  132.6980  124.8060   61.8400 C   0  0  0  0  0  0  0  0  0  0  0  0
  131.8480  125.8860   61.6150 C   0  0  0  0  0  0  0  0  0  0  0  0
  128.9860  127.8250   63.2010 C   0  0  0  0  0  0  0  0  0  0  0  0
  128.1620  128.9230   62.9240 C   0  0  0  0  0  0  0  0  0  0  0  0
  127.0260  129.1980   63.8560 C   0  0  0  0  0  0  0  0  0  0  0  0
  125.7350  129.3870   63.3550 C   0  0  0  0  0  0  0  0  0  0  0  0
  124.6720  129.6430   64.2180 C   0  0  0  0  0  0  0  0  0  0  0  0
  124.8770  129.7090   65.5960 C   0  0  0  0  0  0  0  0  0  0  0  0
  123.7670  129.9740   66.3740 O   0  0  0  0  0  0  0  0  0  0  0  0
  123.7920  129.6420   67.7580 C   0  0  0  0  0  0  0  0  0  0  0  0
  126.1700  129.5060   66.1040 C   0  0  0  0  0  0  0  0  0  0  0  0
  127.2300  129.2500   65.2400 C   0  0  0  0  0  0  0  0  0  0  0  0
  128.4440  129.7050   61.7760 C   0  0  0  0  0  0  0  0  0  0  0  0
  127.5550  130.8020   61.3810 C   0  0  0  0  0  0  0  0  0  0  0  0
  126.8520  131.6670   61.0700 N   0  0  0  0  0  0  0  0  0  0  0  0
  1  2  1  0
  2  3  1  0
  3  4  2  0
  3  5  1  0
  5  6  1  0
  6  7  1  0
  7  8  2  0
  8  9  1  0
  9 10  1  0
 10 11  2  0
 11 12  1  0
 12 13  2  0
 13 14  1  0
 14 15  1  0
 13 16  1  0
 16 17  2  0
  9 18  2  0
 18 19  1  0
 19 20  1  0
 20 21  2  0
 21 22  1  0
 22 23  2  0
 23 24  1  0
 24 25  1  0
 23 26  1  0
 26 27  2  0
 19 28  2  0
 28 29  1  0
 29 30  3  0
 28  7  1  0
 17 10  1  0
 27 20  1  0
M  END
>  <Binding energies>  (4) 
[-5.84]

>  <Ligand effiencies>  (4) 
[-0.19466666666666665]

>  <Interactions>  (4) 
["V-A:PRO:540:CB:4883, H-A:ALA:541:N:4889, V-A:PRO:540:CA:4881, V-A:PRO:540:N:4882, V-A:TYR:539:C:4865, V-A:ILE:369:CD1:3236, V-A:LEU:475:CD2:4256, V-A:GLY:454:CA:4046, V-A:ASP:366:CG:3210, V-B:HIS:456:CE1:9040, V-B:GLU:543:CD:9880, H-A:ARG:545:NH2:4926, V-A:PRO:540:C:4879, H-B:GLY:454:N:9021, V-A:GLU:543:CD:4906, V-B:ARG:545:CZ:9898, V-B:ARG:545:CG:9894, H-A:GLY:454:N:4047, V-B:TYR:484:CZ:9318, H-B:ARG:545:NE:9896, V-B:ARG:545:CD:9895, H-A:TYR:484:OH:4345, H-B:TYR:484:OH:9319, H-B:ILE:455:N:9026, V-B:ARG:545:CB:9893, V-B:ILE:455:C:9023"]

$$$$
1j_Grossjean_2025
     RDKit          3D

 20 21  0  0  0  0  0  0  0  0999 V2000
  129.2410  131.9530   74.6450 C   0  0  0  0  0  0  0  0  0  0  0  0
  128.0930  130.9670   74.7620 C   0  0  0  0  0  0  0  0  0  0  0  0
  126.9480  131.2650   75.4970 C   0  0  0  0  0  0  0  0  0  0  0  0
  125.9160  130.3240   75.5580 C   0  0  0  0  0  0  0  0  0  0  0  0
  124.6620  130.6810   76.3570 C   0  0  0  0  0  0  0  0  0  0  0  0
  126.0630  129.0920   74.8810 C   0  0  0  0  0  0  0  0  0  0  0  0
  124.9720  128.1130   74.8880 C   0  0  0  0  0  0  0  0  0  0  0  0
  124.1090  127.3430   74.8950 N   0  0  0  0  0  0  0  0  0  0  0  0
  127.2700  128.8640   74.1800 C   0  0  0  0  0  0  0  0  0  0  0  0
  127.6250  127.3730   73.2760 S   0  0  0  0  0  0  0  0  0  0  0  0
  129.3240  127.5010   72.6430 C   0  0  0  0  0  0  0  0  0  0  0  0
  130.2790  126.5460   73.3620 C   0  0  0  0  0  0  0  0  0  0  0  0
  129.8830  125.4250   73.6840 O   0  0  0  0  0  0  0  0  0  0  0  0
  131.5200  127.0270   73.5910 N   0  0  0  0  0  0  0  0  0  0  0  0
  132.5610  126.3640   74.2270 C   0  0  0  0  0  0  0  0  0  0  0  0
  133.8500  126.6080   74.1330 N   0  0  0  0  0  0  0  0  0  0  0  0
  134.5550  125.7800   74.8790 C   0  0  0  0  0  0  0  0  0  0  0  0
  133.8320  124.8370   75.6030 C   0  0  0  0  0  0  0  0  0  0  0  0
  132.1380  125.0550   75.2830 S   0  0  0  0  0  0  0  0  0  0  0  0
  128.2570  129.7930   74.1090 N   0  0  0  0  0  0  0  0  0  0  0  0
  1  2  1  0
  2  3  2  0
  3  4  1  0
  4  5  1  0
  4  6  2  0
  6  7  1  0
  7  8  3  0
  6  9  1  0
  9 10  1  0
 10 11  1  0
 11 12  1  0
 12 13  2  0
 12 14  1  0
 14 15  1  0
 15 16  2  0
 16 17  1  0
 17 18  2  0
 18 19  1  0
  9 20  2  0
 20  2  1  0
 19 15  1  0
M  END
>  <Binding energies>  (5) 
[-7.47]

>  <Ligand effiencies>  (5) 
[-0.3557142857142857]

>  <Interactions>  (5) 
["V-A:HIS:456:CD2:4065, V-A:GLY:544:C:4910, V-A:VAL:458:CG2:4084, V-B:HIS:456:CD2:9039, V-B:HIS:456:CG:9037, V-A:HIS:456:CA:4060, V-A:HIS:456:C:4058, V-A:LYS:547:CE:4948, V-A:VAL:457:C:4070, V-A:HIS:456:CG:4063, H-B:LYS:547:NZ:9923, H-A:GLY:544:O:4911, V-A:LYS:471:CD:4216, V-A:HIS:456:CB:4062, H-A:LYS:547:NZ:4949, V-B:LYS:471:CD:9190, V-B:HIS:456:C:9032, V-B:LYS:547:CE:9922, V-B:ASP:473:CG:9211, V-B:HIS:456:CB:9036, V-B:VAL:458:CG2:9058, V-B:HIS:456:CA:9034, V-B:LYS:547:CD:9921, V-B:LYS:471:CG:9189"]

$$$$
1o_Grossjean_2025
     RDKit          3D

 26 27  0  0  0  0  0  0  0  0999 V2000
  128.6230  128.8670   73.3820 C   0  0  0  0  0  0  0  0  0  0  0  0
  129.4410  127.7400   73.6620 O   0  0  0  0  0  0  0  0  0  0  0  0
  129.4840  126.6790   72.8150 C   0  0  0  0  0  0  0  0  0  0  0  0
  129.7560  125.5300   73.1770 O   0  0  0  0  0  0  0  0  0  0  0  0
  129.1640  127.0410   71.3930 C   0  0  0  0  0  0  0  0  0  0  0  0
  127.8560  126.9850   70.8890 C   0  0  0  0  0  0  0  0  0  0  0  0
  127.5930  127.3300   69.5660 C   0  0  0  0  0  0  0  0  0  0  0  0
  128.6270  127.7310   68.7200 C   0  0  0  0  0  0  0  0  0  0  0  0
  128.2480  128.0650   67.4050 N   0  0  0  0  0  0  0  0  0  0  0  0
  127.8870  129.2590   66.8850 C   0  0  0  0  0  0  0  0  0  0  0  0
  127.8700  130.3250   67.5010 O   0  0  0  0  0  0  0  0  0  0  0  0
  127.5040  129.2440   65.3980 C   0  0  0  0  0  0  0  0  0  0  0  0
  126.0240  128.8880   65.1530 C   0  0  0  0  0  0  0  0  0  0  0  0
  124.9130  130.3270   65.1330 S   0  0  0  0  0  0  0  0  0  0  0  0
  125.2130  131.2510   63.6410 C   0  0  0  0  0  0  0  0  0  0  0  0
  124.3810  130.9170   62.6220 N   0  0  0  0  0  0  0  0  0  0  0  0
  124.5100  131.5610   61.4380 C   0  0  0  0  0  0  0  0  0  0  0  0
  123.5360  131.1440   60.3520 C   0  0  0  0  0  0  0  0  0  0  0  0
  125.4700  132.5450   61.2180 C   0  0  0  0  0  0  0  0  0  0  0  0
  126.3500  132.8800   62.2530 C   0  0  0  0  0  0  0  0  0  0  0  0
  127.4040  133.9520   61.9830 C   0  0  0  0  0  0  0  0  0  0  0  0
  126.2380  132.2180   63.4970 C   0  0  0  0  0  0  0  0  0  0  0  0
  127.1870  132.5120   64.5730 C   0  0  0  0  0  0  0  0  0  0  0  0
  127.9380  132.7470   65.4220 N   0  0  0  0  0  0  0  0  0  0  0  0
  129.9370  127.7940   69.2190 C   0  0  0  0  0  0  0  0  0  0  0  0
  130.1980  127.4500   70.5420 C   0  0  0  0  0  0  0  0  0  0  0  0
  1  2  1  0
  2  3  1  0
  3  4  2  0
  3  5  1  0
  5  6  2  0
  6  7  1  0
  7  8  2  0
  8  9  1  0
  9 10  1  0
 10 11  2  0
 10 12  1  0
 12 13  1  0
 13 14  1  0
 14 15  1  0
 15 16  2  0
 16 17  1  0
 17 18  1  0
 17 19  2  0
 19 20  1  0
 20 21  1  0
 20 22  2  0
 22 23  1  0
 23 24  3  0
  8 25  1  0
 25 26  2  0
 26  5  1  0
 22 15  1  0
M  END
>  <Binding energies>  (6) 
[-7.33]

>  <Ligand effiencies>  (6) 
[-0.2714814814814815]

>  <Interactions>  (6) 
["V-B:LEU:475:CD2:9230, V-B:GLY:454:CA:9020, V-B:ILE:369:CG2:8208, V-A:TYR:539:CE1:4873, V-B:ILE:369:CD1:8210, V-A:TYR:539:CD1:4871, V-B:ASP:366:CG:8184, V-A:ALA:541:CB:4890, V-A:GLU:543:CG:4905, H-B:GLU:543:OE1:9881, V-B:HIS:456:CE1:9040, H-B:GLU:543:OE2:9882, V-B:GLU:543:CD:9880, V-B:GLU:543:CG:9879, V-A:HIS:456:CE1:4066, H-A:GLU:543:OE2:4908, H-B:GLY:454:N:9021, V-A:GLU:543:CD:4906, V-B:ILE:369:CB:8207, V-A:GLU:543:CB:4904, V-B:GLU:543:C:9874, V-B:ASP:366:CA:8181, V-B:ARG:545:CZ:9898, V-B:GLY:544:C:9884, V-B:TYR:484:CE2:9317, V-B:TYR:484:CZ:9318, V-A:HIS:456:CD2:4065, H-A:HIS:456:NE2:4067, H-B:HIS:456:NE2:9041, V-A:GLY:544:C:4910, H-B:TYR:484:OH:9319, V-A:GLU:543:C:4900, V-B:HIS:456:CD2:9039, V-B:HIS:456:CG:9037, V-A:LYS:547:CE:4948, V-B:GLY:544:CA:9886, H-B:LYS:547:NZ:9923, H-A:LYS:547:NZ:4949"]

$$$$
1p_Grossjean_2025
     RDKit          3D

 21 22  0  0  0  0  0  0  0  0999 V2000
  128.9290  131.8880   75.1870 C   0  0  0  0  0  0  0  0  0  0  0  0
  127.7980  130.8790   75.1300 C   0  0  0  0  0  0  0  0  0  0  0  0
  126.5790  131.1150   75.7620 C   0  0  0  0  0  0  0  0  0  0  0  0
  125.5750  130.1420   75.6880 C   0  0  0  0  0  0  0  0  0  0  0  0
  124.2530  130.4150   76.4010 C   0  0  0  0  0  0  0  0  0  0  0  0
  125.8190  128.9510   74.9680 C   0  0  0  0  0  0  0  0  0  0  0  0
  124.8040  127.8980   74.9160 C   0  0  0  0  0  0  0  0  0  0  0  0
  123.9990  127.0670   74.8750 N   0  0  0  0  0  0  0  0  0  0  0  0
  127.0790  128.8070   74.3380 C   0  0  0  0  0  0  0  0  0  0  0  0
  127.5450  127.3790   73.3860 S   0  0  0  0  0  0  0  0  0  0  0  0
  128.5020  127.9830   71.9650 C   0  0  0  0  0  0  0  0  0  0  0  0
  129.7950  127.1870   71.7040 C   0  0  0  0  0  0  0  0  0  0  0  0
  130.2760  126.3810   72.9200 C   0  0  0  0  0  0  0  0  0  0  0  0
  129.7140  125.3230   73.2080 O   0  0  0  0  0  0  0  0  0  0  0  0
  131.3240  126.9070   73.5930 N   0  0  0  0  0  0  0  0  0  0  0  0
  131.9490  126.3830   74.7170 C   0  0  0  0  0  0  0  0  0  0  0  0
  133.2490  125.8790   74.7010 C   0  0  0  0  0  0  0  0  0  0  0  0
  133.4900  125.4660   75.9910 C   0  0  0  0  0  0  0  0  0  0  0  0
  132.3920  125.7060   76.7450 O   0  0  0  0  0  0  0  0  0  0  0  0
  131.4210  126.2870   75.9260 N   0  0  0  0  0  0  0  0  0  0  0  0
  128.0530  129.7460   74.4330 N   0  0  0  0  0  0  0  0  0  0  0  0
  1  2  1  0
  2  3  2  0
  3  4  1  0
  4  5  1  0
  4  6  2  0
  6  7  1  0
  7  8  3  0
  6  9  1  0
  9 10  1  0
 10 11  1  0
 11 12  1  0
 12 13  1  0
 13 14  2  0
 13 15  1  0
 15 16  1  0
 16 17  1  0
 17 18  2  0
 18 19  1  0
 19 20  1  0
  9 21  2  0
 21  2  1  0
 20 16  2  0
M  END
>  <Binding energies>  (7) 
[-7.57]

>  <Ligand effiencies>  (7) 
[-0.3440909090909091]

>  <Interactions>  (7) 
["V-B:HIS:456:CE1:9040, V-A:HIS:456:CE1:4066, V-A:HIS:456:CD2:4065, H-A:HIS:456:NE2:4067, V-A:GLY:544:C:4910, V-A:LYS:547:CD:4947, V-A:VAL:458:CG2:4084, V-B:HIS:456:CD2:9039, V-B:HIS:456:CG:9037, V-A:LYS:547:CE:4948, V-A:HIS:456:CG:4063, H-B:LYS:547:NZ:9923, H-A:GLY:544:O:4911, V-A:LYS:471:CD:4216, V-A:HIS:456:CB:4062, H-A:LYS:547:NZ:4949, V-B:LYS:471:CD:9190, V-B:HIS:456:C:9032, V-B:LYS:547:CE:9922, V-B:ASP:473:CG:9211, V-B:HIS:456:CB:9036, V-B:VAL:458:CG2:9058, V-B:LYS:547:CD:9921, V-B:LYS:547:CG:9920, V-B:LYS:471:CG:9189, V-B:LYS:471:CB:9188"]

$$$$
2a_Ghoteimi_2023
     RDKit          3D

 48 53  0  0  0  0  0  0  0  0999 V2000
  129.7260  121.4800   61.4160 C   0  0  0  0  0  0  0  0  0  0  0  0
  128.6690  122.5830   61.5330 C   0  0  0  0  0  0  0  0  0  0  0  0
  128.8440  123.5180   60.4760 O   0  0  0  0  0  0  0  0  0  0  0  0
  129.3720  124.7470   60.7070 C   0  0  0  0  0  0  0  0  0  0  0  0
  130.5860  124.9720   60.7280 O   0  0  0  0  0  0  0  0  0  0  0  0
  128.3310  125.8080   60.9270 C   0  0  0  0  0  0  0  0  0  0  0  0
  128.1470  126.4190   62.1760 C   0  0  0  0  0  0  0  0  0  0  0  0
  127.1740  127.4000   62.3450 C   0  0  0  0  0  0  0  0  0  0  0  0
  126.3700  127.7940   61.2740 C   0  0  0  0  0  0  0  0  0  0  0  0
  125.4170  128.7900   61.5590 N   0  0  0  0  0  0  0  0  0  0  0  0
  125.1370  129.9340   60.8970 C   0  0  0  0  0  0  0  0  0  0  0  0
  125.7360  130.3420   59.9020 O   0  0  0  0  0  0  0  0  0  0  0  0
  124.0010  130.7720   61.4970 C   0  0  0  0  0  0  0  0  0  0  0  0
  123.7370  130.5160   63.2820 S   0  0  0  0  0  0  0  0  0  0  0  0
  125.3320  130.1030   63.9490 C   0  0  0  0  0  0  0  0  0  0  0  0
  126.3600  130.3520   63.1040 N   0  0  0  0  0  0  0  0  0  0  0  0
  127.6280  130.0690   63.4950 C   0  0  0  0  0  0  0  0  0  0  0  0
  128.7110  130.3600   62.5070 C   0  0  0  0  0  0  0  0  0  0  0  0
  128.9600  131.6660   62.0670 C   0  0  0  0  0  0  0  0  0  0  0  0
  129.9620  131.9300   61.1380 C   0  0  0  0  0  0  0  0  0  0  0  0
  130.7590  130.8990   60.6190 C   0  0  0  0  0  0  0  0  0  0  0  0
  131.7420  131.1750   59.6630 N   0  0  0  0  0  0  0  0  0  0  0  0
  133.1040  131.5890   60.0570 C   0  0  0  0  0  0  0  0  0  0  0  0
  134.1380  131.4980   58.9150 C   0  0  0  0  0  0  0  0  0  0  0  0
  133.6870  132.2370   57.7910 O   0  0  0  0  0  0  0  0  0  0  0  0
  132.4550  131.7330   57.3000 C   0  0  0  0  0  0  0  0  0  0  0  0
  131.3690  131.8310   58.3920 C   0  0  0  0  0  0  0  0  0  0  0  0
  130.4970  129.5900   61.0540 C   0  0  0  0  0  0  0  0  0  0  0  0
  129.4970  129.3270   61.9850 C   0  0  0  0  0  0  0  0  0  0  0  0
  127.8920  129.5390   64.7610 C   0  0  0  0  0  0  0  0  0  0  0  0
  126.8440  129.2740   65.6530 C   0  0  0  0  0  0  0  0  0  0  0  0
  127.1970  128.7020   66.9870 C   0  0  0  0  0  0  0  0  0  0  0  0
  128.3570  129.1180   67.6460 C   0  0  0  0  0  0  0  0  0  0  0  0
  128.7050  128.5770   68.8800 C   0  0  0  0  0  0  0  0  0  0  0  0
  127.9020  127.6050   69.4940 C   0  0  0  0  0  0  0  0  0  0  0  0
  128.2430  127.0350   70.7240 N   0  0  0  0  0  0  0  0  0  0  0  0
  127.6640  127.5900   71.9640 C   0  0  0  0  0  0  0  0  0  0  0  0
  127.8040  126.6480   73.1780 C   0  0  0  0  0  0  0  0  0  0  0  0
  129.1670  126.3010   73.3700 O   0  0  0  0  0  0  0  0  0  0  0  0
  129.7040  125.6380   72.2360 C   0  0  0  0  0  0  0  0  0  0  0  0
  129.6100  126.5510   70.9960 C   0  0  0  0  0  0  0  0  0  0  0  0
  126.7460  127.1830   68.8210 C   0  0  0  0  0  0  0  0  0  0  0  0
  126.3980  127.7240   67.5860 C   0  0  0  0  0  0  0  0  0  0  0  0
  125.5210  129.5680   65.2420 C   0  0  0  0  0  0  0  0  0  0  0  0
  124.3880  129.3660   66.1520 C   0  0  0  0  0  0  0  0  0  0  0  0
  123.4960  129.2030   66.8710 N   0  0  0  0  0  0  0  0  0  0  0  0
  126.5440  127.1810   60.0240 C   0  0  0  0  0  0  0  0  0  0  0  0
  127.5180  126.2010   59.8550 C   0  0  0  0  0  0  0  0  0  0  0  0
  1  2  1  0
  2  3  1  0
  3  4  1  0
  4  5  2  0
  4  6  1  0
  6  7  2  0
  7  8  1  0
  8  9  2  0
  9 10  1  0
 10 11  1  0
 11 12  2  0
 11 13  1  0
 13 14  1  0
 14 15  1  0
 15 16  2  0
 16 17  1  0
 17 18  1  0
 18 19  2  0
 19 20  1  0
 20 21  2  0
 21 22  1  0
 22 23  1  0
 23 24  1  0
 24 25  1  0
 25 26  1  0
 26 27  1  0
 21 28  1  0
 28 29  2  0
 17 30  2  0
 30 31  1  0
 31 32  1  0
 32 33  2  0
 33 34  1  0
 34 35  2  0
 35 36  1  0
 36 37  1  0
 37 38  1  0
 38 39  1  0
 39 40  1  0
 40 41  1  0
 35 42  1  0
 42 43  2  0
 31 44  2  0
 44 45  1  0
 45 46  3  0
  9 47  1  0
 47 48  2  0
 48  6  1  0
 44 15  1  0
 29 18  1  0
 43 32  1  0
 27 22  1  0
 41 36  1  0
M  END
>  <Binding energies>  (8) 
[-2.2]

>  <Ligand effiencies>  (8) 
[-0.04489795918367347]

>  <Interactions>  (8) 
["V-B:ILE:369:CD1:8210, V-B:ASP:366:CG:8184, V-A:PRO:540:CB:4883, V-A:PRO:540:CA:4881, V-A:PRO:540:N:4882, V-A:ALA:541:CB:4890, V-B:TYR:539:CD1:9845, V-A:GLU:543:CG:4905, V-A:ASP:366:CG:3210, V-B:HIS:456:CE1:9040, V-B:GLU:543:CD:9880, V-B:GLU:543:CG:9879, V-A:HIS:456:CE1:4066, V-A:ASP:366:CB:3209, H-B:GLY:454:N:9021, V-A:GLU:543:CD:4906, V-A:GLU:543:CB:4904, V-B:GLU:543:C:9874, V-B:ARG:545:CZ:9898, V-B:ARG:545:CG:9894, V-B:GLY:544:C:9884, V-B:ALA:541:CB:9864, V-A:HIS:456:CD2:4065, H-B:ARG:545:NE:9896, V-B:ARG:545:CD:9895, H-B:ASP:366:OD1:8185, V-A:LEU:363:CA:3182, H-B:TYR:484:OH:9319, H-B:ASP:366:OD2:8186, V-A:GLU:543:C:4900, V-B:HIS:456:CD2:9039, V-B:HIS:456:CG:9037, V-B:GLY:544:CA:9886, V-A:HIS:456:CG:4063, H-B:LYS:547:NZ:9923, V-B:LYS:547:CE:9922, V-A:ASN:362:C:3169, V-A:LEU:363:CB:3184, V-A:LEU:363:CD1:3186, V-B:ARG:545:CA:9891"]

$$$$
2aa_Ghoteimi_2023
     RDKit          3D

 48 53  0  0  0  0  0  0  0  0999 V2000
  130.3100  117.6600   60.5560 C   0  0  0  0  0  0  0  0  0  0  0  0
  131.7790  117.7590   60.9800 C   0  0  0  0  0  0  0  0  0  0  0  0
  132.5070  118.4760   59.9920 O   0  0  0  0  0  0  0  0  0  0  0  0
  133.3840  119.4540   60.3370 C   0  0  0  0  0  0  0  0  0  0  0  0
  134.6060  119.2820   60.3950 O   0  0  0  0  0  0  0  0  0  0  0  0
  132.7210  120.7700   60.6270 C   0  0  0  0  0  0  0  0  0  0  0  0
  133.3870  121.9910   60.4450 C   0  0  0  0  0  0  0  0  0  0  0  0
  132.7450  123.1950   60.7180 C   0  0  0  0  0  0  0  0  0  0  0  0
  131.4300  123.2040   61.1870 C   0  0  0  0  0  0  0  0  0  0  0  0
  130.8760  124.4770   61.4280 N   0  0  0  0  0  0  0  0  0  0  0  0
  130.9180  125.5960   60.6730 C   0  0  0  0  0  0  0  0  0  0  0  0
  131.4580  125.6850   59.5680 O   0  0  0  0  0  0  0  0  0  0  0  0
  130.2010  126.8060   61.2850 C   0  0  0  0  0  0  0  0  0  0  0  0
  129.6520  126.4480   62.5580 O   0  0  0  0  0  0  0  0  0  0  0  0
  129.0970  127.4220   63.3770 C   0  0  0  0  0  0  0  0  0  0  0  0
  129.1520  127.2320   64.7250 N   0  0  0  0  0  0  0  0  0  0  0  0
  128.6230  128.1670   65.5540 C   0  0  0  0  0  0  0  0  0  0  0  0
  128.7150  127.8890   67.0210 C   0  0  0  0  0  0  0  0  0  0  0  0
  127.5660  127.6200   67.7710 C   0  0  0  0  0  0  0  0  0  0  0  0
  127.6470  127.3540   69.1360 C   0  0  0  0  0  0  0  0  0  0  0  0
  128.8840  127.3340   69.7990 C   0  0  0  0  0  0  0  0  0  0  0  0
  128.9820  127.0810   71.1720 N   0  0  0  0  0  0  0  0  0  0  0  0
  130.2940  126.9780   71.8440 C   0  0  0  0  0  0  0  0  0  0  0  0
  130.2240  126.3540   73.2530 C   0  0  0  0  0  0  0  0  0  0  0  0
  129.2980  127.0680   74.0550 O   0  0  0  0  0  0  0  0  0  0  0  0
  127.9920  127.0310   73.4990 C   0  0  0  0  0  0  0  0  0  0  0  0
  127.9960  127.6760   72.0970 C   0  0  0  0  0  0  0  0  0  0  0  0
  130.0310  127.6260   69.0460 C   0  0  0  0  0  0  0  0  0  0  0  0
  129.9490  127.8940   67.6830 C   0  0  0  0  0  0  0  0  0  0  0  0
  128.0060  129.3150   65.0480 C   0  0  0  0  0  0  0  0  0  0  0  0
  127.9260  129.5280   63.6660 C   0  0  0  0  0  0  0  0  0  0  0  0
  127.2320  130.7620   63.1850 C   0  0  0  0  0  0  0  0  0  0  0  0
  125.8380  130.8000   63.1020 C   0  0  0  0  0  0  0  0  0  0  0  0
  125.1870  131.9390   62.6360 C   0  0  0  0  0  0  0  0  0  0  0  0
  125.9120  133.0680   62.2250 C   0  0  0  0  0  0  0  0  0  0  0  0
  125.2790  134.2230   61.7570 N   0  0  0  0  0  0  0  0  0  0  0  0
  125.9730  135.5250   61.7360 C   0  0  0  0  0  0  0  0  0  0  0  0
  125.2600  136.5880   60.8730 C   0  0  0  0  0  0  0  0  0  0  0  0
  123.9150  136.7380   61.3020 O   0  0  0  0  0  0  0  0  0  0  0  0
  123.1920  135.5220   61.1890 C   0  0  0  0  0  0  0  0  0  0  0  0
  123.8490  134.4320   62.0610 C   0  0  0  0  0  0  0  0  0  0  0  0
  127.3100  133.0220   62.3180 C   0  0  0  0  0  0  0  0  0  0  0  0
  127.9620  131.8850   62.7850 C   0  0  0  0  0  0  0  0  0  0  0  0
  128.5010  128.5620   62.8080 C   0  0  0  0  0  0  0  0  0  0  0  0
  128.5090  128.7260   61.3530 C   0  0  0  0  0  0  0  0  0  0  0  0
  128.5150  128.8560   60.2030 N   0  0  0  0  0  0  0  0  0  0  0  0
  130.7550  121.9880   61.3650 C   0  0  0  0  0  0  0  0  0  0  0  0
  131.3990  120.7860   61.0870 C   0  0  0  0  0  0  0  0  0  0  0  0
  1  2  1  0
  2  3  1  0
  3  4  1  0
  4  5  2  0
  4  6  1  0
  6  7  2  0
  7  8  1  0
  8  9  2  0
  9 10  1  0
 10 11  1  0
 11 12  2  0
 11 13  1  0
 13 14  1  0
 14 15  1  0
 15 16  2  0
 16 17  1  0
 17 18  1  0
 18 19  2  0
 19 20  1  0
 20 21  2  0
 21 22  1  0
 22 23  1  0
 23 24  1  0
 24 25  1  0
 25 26  1  0
 26 27  1  0
 21 28  1  0
 28 29  2  0
 17 30  2  0
 30 31  1  0
 31 32  1  0
 32 33  2  0
 33 34  1  0
 34 35  2  0
 35 36  1  0
 36 37  1  0
 37 38  1  0
 38 39  1  0
 39 40  1  0
 40 41  1  0
 35 42  1  0
 42 43  2  0
 31 44  2  0
 44 45  1  0
 45 46  3  0
  9 47  1  0
 47 48  2  0
 48  6  1  0
 44 15  1  0
 29 18  1  0
 43 32  1  0
 27 22  1  0
 41 36  1  0
M  END
>  <Binding energies>  (9) 
[-0.62]

>  <Ligand effiencies>  (9) 
[-0.012653061224489795]

>  <Interactions>  (9) 
["V-B:LEU:475:CD2:9230, V-B:ILE:369:CG2:8208, V-A:TYR:539:CE1:4873, V-B:ILE:369:CD1:8210, V-A:TYR:539:CD1:4871, V-A:ALA:541:CB:4890, V-B:TYR:539:CE1:9847, V-B:TYR:539:C:9839, V-A:ILE:369:CD1:3236, V-A:LEU:475:CD2:4256, V-B:TYR:539:CD1:9845, V-A:GLU:543:CG:4905, H-B:GLU:543:OE1:9881, V-A:ILE:369:CG2:3234, V-B:HIS:456:CE1:9040, V-B:GLU:543:CD:9880, V-B:GLU:543:CG:9879, V-A:HIS:456:CE1:4066, V-A:GLU:543:CD:4906, V-A:GLU:543:CB:4904, V-B:GLU:543:C:9874, V-B:GLY:544:C:9884, V-A:SER:385:CA:3404, V-A:HIS:456:CD2:4065, V-A:LEU:373:CD1:3277, V-B:SER:385:CA:8378, V-B:SER:385:CB:8380, V-B:SER:385:C:8376, V-B:LEU:373:CD1:8251, V-A:PRO:482:CB:4323, V-A:PRO:482:CG:4324, V-B:TYR:539:CB:9843, V-A:GLU:543:C:4900, V-B:HIS:456:CD2:9039, V-B:HIS:456:CG:9037, V-B:GLY:544:CA:9886, V-A:HIS:456:CG:4063, H-B:LYS:547:NZ:9923, H-A:LYS:547:NZ:4949, V-B:LYS:547:CE:9922, H-A:SER:385:N:3405, V-B:VAL:384:C:8368, V-B:VAL:344:CG1:7972, H-B:SER:385:N:8379"]

$$$$
2b_Ghoteimi_2023
     RDKit          3D

 42 47  0  0  0  0  0  0  0  0999 V2000
  130.1960  126.1530   59.2720 N   0  0  0  0  0  0  0  0  0  0  0  0
  130.0520  126.2570   60.4150 C   0  0  0  0  0  0  0  0  0  0  0  0
  129.8740  126.3830   61.8650 C   0  0  0  0  0  0  0  0  0  0  0  0
  130.1630  125.2930   62.7240 C   0  0  0  0  0  0  0  0  0  0  0  0
  130.6600  123.9690   62.2450 C   0  0  0  0  0  0  0  0  0  0  0  0
  132.0030  123.8020   61.9030 C   0  0  0  0  0  0  0  0  0  0  0  0
  132.4710  122.5700   61.4560 C   0  0  0  0  0  0  0  0  0  0  0  0
  131.6040  121.4740   61.3220 C   0  0  0  0  0  0  0  0  0  0  0  0
  132.0520  120.2260   60.8880 N   0  0  0  0  0  0  0  0  0  0  0  0
  133.4750  119.8710   61.0650 C   0  0  0  0  0  0  0  0  0  0  0  0
  133.9110  118.6560   60.2200 C   0  0  0  0  0  0  0  0  0  0  0  0
  133.0700  117.5450   60.4910 O   0  0  0  0  0  0  0  0  0  0  0  0
  131.7140  117.8270   60.1860 C   0  0  0  0  0  0  0  0  0  0  0  0
  131.2200  119.0150   61.0370 C   0  0  0  0  0  0  0  0  0  0  0  0
  130.2570  121.6530   61.6650 C   0  0  0  0  0  0  0  0  0  0  0  0
  129.7890  122.8830   62.1160 C   0  0  0  0  0  0  0  0  0  0  0  0
  129.9820  125.4630   64.1020 C   0  0  0  0  0  0  0  0  0  0  0  0
  129.5550  126.6920   64.6130 C   0  0  0  0  0  0  0  0  0  0  0  0
  129.3740  126.9340   66.0780 C   0  0  0  0  0  0  0  0  0  0  0  0
  129.9040  126.0440   67.0190 C   0  0  0  0  0  0  0  0  0  0  0  0
  129.7530  126.2720   68.3840 C   0  0  0  0  0  0  0  0  0  0  0  0
  129.0560  127.3930   68.8610 C   0  0  0  0  0  0  0  0  0  0  0  0
  128.9230  127.6510   70.2300 N   0  0  0  0  0  0  0  0  0  0  0  0
  127.7650  127.1110   70.9710 C   0  0  0  0  0  0  0  0  0  0  0  0
  127.5410  127.7840   72.3430 C   0  0  0  0  0  0  0  0  0  0  0  0
  128.7250  127.7070   73.1210 O   0  0  0  0  0  0  0  0  0  0  0  0
  129.8070  128.3690   72.4880 C   0  0  0  0  0  0  0  0  0  0  0  0
  130.0990  127.7170   71.1190 C   0  0  0  0  0  0  0  0  0  0  0  0
  128.5340  128.2860   67.9140 C   0  0  0  0  0  0  0  0  0  0  0  0
  128.6870  128.0590   66.5490 C   0  0  0  0  0  0  0  0  0  0  0  0
  129.2790  127.7350   63.7890 N   0  0  0  0  0  0  0  0  0  0  0  0
  129.4150  127.5850   62.4500 C   0  0  0  0  0  0  0  0  0  0  0  0
  129.0070  129.0490   61.5240 S   0  0  0  0  0  0  0  0  0  0  0  0
  127.9920  130.1110   62.5950 C   0  0  0  0  0  0  0  0  0  0  0  0
  126.9060  130.8490   61.8100 C   0  0  0  0  0  0  0  0  0  0  0  0
  126.8190  132.0740   61.9070 O   0  0  0  0  0  0  0  0  0  0  0  0
  126.1030  130.0690   61.0540 N   0  0  0  0  0  0  0  0  0  0  0  0
  125.0550  130.4780   60.2410 C   0  0  0  0  0  0  0  0  0  0  0  0
  123.7950  130.8120   60.7360 C   0  0  0  0  0  0  0  0  0  0  0  0
  123.0560  131.1570   59.6290 C   0  0  0  0  0  0  0  0  0  0  0  0
  123.8310  131.0380   58.5250 O   0  0  0  0  0  0  0  0  0  0  0  0
  125.0980  130.6080   58.9260 N   0  0  0  0  0  0  0  0  0  0  0  0
  1  2  3  0
  2  3  1  0
  3  4  2  0
  4  5  1  0
  5  6  2  0
  6  7  1  0
  7  8  2  0
  8  9  1  0
  9 10  1  0
 10 11  1  0
 11 12  1  0
 12 13  1  0
 13 14  1  0
  8 15  1  0
 15 16  2  0
  4 17  1  0
 17 18  2  0
 18 19  1  0
 19 20  2  0
 20 21  1  0
 21 22  2  0
 22 23  1  0
 23 24  1  0
 24 25  1  0
 25 26  1  0
 26 27  1  0
 27 28  1  0
 22 29  1  0
 29 30  2  0
 18 31  1  0
 31 32  2  0
 32 33  1  0
 33 34  1  0
 34 35  1  0
 35 36  2  0
 35 37  1  0
 37 38  1  0
 38 39  1  0
 39 40  2  0
 40 41  1  0
 41 42  1  0
 32  3  1  0
 42 38  2  0
 16  5  1  0
 30 19  1  0
 14  9  1  0
 28 23  1  0
M  END
>  <Binding energies>  (10) 
[-2.6]

>  <Ligand effiencies>  (10) 
[-0.06046511627906977]

>  <Interactions>  (10) 
["V-B:ASP:366:CB:8183, H-A:TYR:539:OH:4876, V-B:ILE:369:CG2:8208, V-B:ILE:369:CD1:8210, V-B:ASP:366:CG:8184, V-B:TYR:539:CE1:9847, V-A:LEU:475:CD2:4256, V-B:TYR:539:CD1:9845, V-A:GLU:543:CG:4905, V-A:ILE:369:CG2:3234, V-B:HIS:456:CE1:9040, V-B:GLU:543:CD:9880, V-B:GLU:543:CB:9878, V-B:GLU:543:CG:9879, V-A:HIS:456:CE1:4066, V-A:GLU:543:CD:4906, V-B:ILE:369:CG1:8209, V-B:ILE:369:CB:8207, V-A:GLU:543:CB:4904, V-B:GLU:543:C:9874, V-B:ASP:366:CA:8181, V-B:GLY:544:C:9884, V-A:SER:385:CA:3404, V-A:SER:385:C:3402, V-B:ALA:541:CB:9864, V-B:TYR:539:CG:9844, V-A:GLY:544:C:4910, H-B:ASP:366:OD1:8185, V-A:SER:385:CB:3406, V-A:LEU:373:CD1:3277, V-A:VAL:384:C:3394, V-B:ASP:366:C:8179, V-B:TYR:539:CB:9843, V-A:GLY:544:CA:4912, V-A:GLU:543:C:4900, V-B:HIS:456:CD2:9039, V-B:HIS:456:CG:9037, V-A:LYS:547:CE:4948, V-B:GLY:544:CA:9886"]

$$$$
2c_Ghoteimi_2023
     RDKit          3D

 42 47  0  0  0  0  0  0  0  0999 V2000
  130.7670  125.0260   60.3580 N   0  0  0  0  0  0  0  0  0  0  0  0
  130.6520  125.3290   61.4680 C   0  0  0  0  0  0  0  0  0  0  0  0
  130.5010  125.7170   62.8740 C   0  0  0  0  0  0  0  0  0  0  0  0
  129.4920  126.6310   63.2660 C   0  0  0  0  0  0  0  0  0  0  0  0
  128.5280  127.2640   62.3160 C   0  0  0  0  0  0  0  0  0  0  0  0
  127.8150  126.4760   61.4100 C   0  0  0  0  0  0  0  0  0  0  0  0
  126.9120  127.0570   60.5240 C   0  0  0  0  0  0  0  0  0  0  0  0
  126.7060  128.4450   60.5100 C   0  0  0  0  0  0  0  0  0  0  0  0
  125.7900  129.0470   59.6440 N   0  0  0  0  0  0  0  0  0  0  0  0
  125.0190  130.2180   60.1080 C   0  0  0  0  0  0  0  0  0  0  0  0
  123.7960  130.5330   59.2220 C   0  0  0  0  0  0  0  0  0  0  0  0
  124.2030  130.6970   57.8720 O   0  0  0  0  0  0  0  0  0  0  0  0
  124.8200  129.5250   57.3640 C   0  0  0  0  0  0  0  0  0  0  0  0
  126.0700  129.1830   58.2020 C   0  0  0  0  0  0  0  0  0  0  0  0
  127.4290  129.2290   61.4210 C   0  0  0  0  0  0  0  0  0  0  0  0
  128.3310  128.6470   62.3070 C   0  0  0  0  0  0  0  0  0  0  0  0
  129.3860  126.9670   64.6210 C   0  0  0  0  0  0  0  0  0  0  0  0
  130.2420  126.3880   65.5630 C   0  0  0  0  0  0  0  0  0  0  0  0
  130.1590  126.6990   67.0230 C   0  0  0  0  0  0  0  0  0  0  0  0
  131.1800  127.4100   67.6610 C   0  0  0  0  0  0  0  0  0  0  0  0
  131.1050  127.7080   69.0200 C   0  0  0  0  0  0  0  0  0  0  0  0
  130.0090  127.2960   69.7940 C   0  0  0  0  0  0  0  0  0  0  0  0
  129.9070  127.6080   71.1530 N   0  0  0  0  0  0  0  0  0  0  0  0
  128.6450  128.1600   71.6880 C   0  0  0  0  0  0  0  0  0  0  0  0
  128.7930  128.8080   73.0810 C   0  0  0  0  0  0  0  0  0  0  0  0
  129.3630  127.8810   73.9900 O   0  0  0  0  0  0  0  0  0  0  0  0
  130.6520  127.4650   73.5670 C   0  0  0  0  0  0  0  0  0  0  0  0
  130.5620  126.7810   72.1870 C   0  0  0  0  0  0  0  0  0  0  0  0
  128.9820  126.5950   69.1470 C   0  0  0  0  0  0  0  0  0  0  0  0
  129.0570  126.2980   67.7880 C   0  0  0  0  0  0  0  0  0  0  0  0
  131.2060  125.5100   65.1860 N   0  0  0  0  0  0  0  0  0  0  0  0
  131.3490  125.1940   63.8760 C   0  0  0  0  0  0  0  0  0  0  0  0
  132.6660  124.0410   63.5620 S   0  0  0  0  0  0  0  0  0  0  0  0
  132.3950  123.3420   61.9050 C   0  0  0  0  0  0  0  0  0  0  0  0
  132.7030  121.8450   61.8560 C   0  0  0  0  0  0  0  0  0  0  0  0
  133.5860  121.3850   62.5830 O   0  0  0  0  0  0  0  0  0  0  0  0
  131.9600  121.1250   60.9880 N   0  0  0  0  0  0  0  0  0  0  0  0
  132.0320  119.7580   60.7690 C   0  0  0  0  0  0  0  0  0  0  0  0
  131.0390  118.9010   60.6730 N   0  0  0  0  0  0  0  0  0  0  0  0
  131.4740  117.6760   60.4560 C   0  0  0  0  0  0  0  0  0  0  0  0
  132.8540  117.5190   60.3730 C   0  0  0  0  0  0  0  0  0  0  0  0
  133.6130  119.0670   60.5920 S   0  0  0  0  0  0  0  0  0  0  0  0
  1  2  3  0
  2  3  1  0
  3  4  2  0
  4  5  1  0
  5  6  2  0
  6  7  1  0
  7  8  2  0
  8  9  1  0
  9 10  1  0
 10 11  1  0
 11 12  1  0
 12 13  1  0
 13 14  1  0
  8 15  1  0
 15 16  2  0
  4 17  1  0
 17 18  2  0
 18 19  1  0
 19 20  2  0
 20 21  1  0
 21 22  2  0
 22 23  1  0
 23 24  1  0
 24 25  1  0
 25 26  1  0
 26 27  1  0
 27 28  1  0
 22 29  1  0
 29 30  2  0
 18 31  1  0
 31 32  2  0
 32 33  1  0
 33 34  1  0
 34 35  1  0
 35 36  2  0
 35 37  1  0
 37 38  1  0
 38 39  2  0
 39 40  1  0
 40 41  2  0
 41 42  1  0
 32  3  1  0
 42 38  1  0
 16  5  1  0
 30 19  1  0
 14  9  1  0
 28 23  1  0
M  END
>  <Binding energies>  (11) 
[-4.0]

>  <Ligand effiencies>  (11) 
[-0.09302325581395349]

>  <Interactions>  (11) 
["V-B:ASP:366:CB:8183, H-A:TYR:539:OH:4876, V-B:ILE:369:CG2:8208, V-B:ASP:366:CG:8184, V-B:TYR:539:CE1:9847, V-A:LEU:475:CD2:4256, V-B:TYR:539:CD1:9845, V-A:GLU:543:CG:4905, V-A:ILE:369:CG2:3234, V-B:HIS:456:CE1:9040, V-B:GLU:543:CD:9880, V-B:GLU:543:CB:9878, V-B:GLU:543:CG:9879, V-A:HIS:456:CE1:4066, V-A:GLU:543:CD:4906, V-B:ILE:369:CB:8207, V-B:GLU:543:C:9874, V-B:ASP:366:CA:8181, V-A:ARG:545:CG:4920, V-A:SER:385:CA:3404, H-A:GLY:454:N:4047, V-A:SER:385:C:3402, V-B:TYR:531:CZ:9766, V-A:HIS:456:CD2:4065, V-A:GLY:544:C:4910, H-A:TYR:484:OH:4345, V-A:SER:385:CB:3406, V-A:LEU:373:CD1:3277, V-A:PRO:482:CG:4324, V-B:ASP:366:C:8179, V-A:GLU:543:C:4900, V-B:HIS:456:CD2:9039, V-B:HIS:456:CG:9037, V-A:LYS:547:CE:4948, V-A:HIS:456:CG:4063, H-B:LYS:547:NZ:9923, H-A:LYS:547:NZ:4949, V-B:TYR:531:CE1:9764"]

$$$$
2j_Grossjean_2025
     RDKit          3D

 23 24  0  0  0  0  0  0  0  0999 V2000
  130.5860  120.8300   61.7170 C   0  0  0  0  0  0  0  0  0  0  0  0
  130.3830  121.9660   60.7320 C   0  0  0  0  0  0  0  0  0  0  0  0
  129.1190  122.2920   60.2440 C   0  0  0  0  0  0  0  0  0  0  0  0
  128.9820  123.3530   59.3380 C   0  0  0  0  0  0  0  0  0  0  0  0
  127.5770  123.7000   58.8090 C   0  0  0  0  0  0  0  0  0  0  0  0
  127.4280  123.2330   57.5690 F   0  0  0  0  0  0  0  0  0  0  0  0
  126.6460  123.1530   59.5920 F   0  0  0  0  0  0  0  0  0  0  0  0
  127.3490  125.0150   58.7730 F   0  0  0  0  0  0  0  0  0  0  0  0
  130.1440  124.0630   58.9460 C   0  0  0  0  0  0  0  0  0  0  0  0
  130.0600  125.1810   58.0010 C   0  0  0  0  0  0  0  0  0  0  0  0
  129.9920  126.0640   57.2560 N   0  0  0  0  0  0  0  0  0  0  0  0
  131.3880  123.6640   59.4910 C   0  0  0  0  0  0  0  0  0  0  0  0
  132.9170  124.4870   59.0700 S   0  0  0  0  0  0  0  0  0  0  0  0
  134.2320  123.8540   60.1660 C   0  0  0  0  0  0  0  0  0  0  0  0
  133.8500  123.7700   61.6510 C   0  0  0  0  0  0  0  0  0  0  0  0
  133.9200  122.7010   62.2600 O   0  0  0  0  0  0  0  0  0  0  0  0
  133.4360  124.9360   62.1950 N   0  0  0  0  0  0  0  0  0  0  0  0
  133.0350  125.1420   63.5090 C   0  0  0  0  0  0  0  0  0  0  0  0
  133.7950  125.2450   64.5770 N   0  0  0  0  0  0  0  0  0  0  0  0
  133.0780  125.4410   65.6670 C   0  0  0  0  0  0  0  0  0  0  0  0
  131.6990  125.5010   65.4930 C   0  0  0  0  0  0  0  0  0  0  0  0
  131.3330  125.2880   63.8060 S   0  0  0  0  0  0  0  0  0  0  0  0
  131.5000  122.6350   60.3690 N   0  0  0  0  0  0  0  0  0  0  0  0
  1  2  1  0
  2  3  2  0
  3  4  1  0
  4  5  1  0
  5  6  1  0
  5  7  1  0
  5  8  1  0
  4  9  2  0
  9 10  1  0
 10 11  3  0
  9 12  1  0
 12 13  1  0
 13 14  1  0
 14 15  1  0
 15 16  2  0
 15 17  1  0
 17 18  1  0
 18 19  2  0
 19 20  1  0
 20 21  2  0
 21 22  1  0
 12 23  2  0
 23  2  1  0
 22 18  1  0
M  END
>  <Binding energies>  (12) 
[-5.52]

>  <Ligand effiencies>  (12) 
[-0.22999999999999998]

>  <Interactions>  (12) 
["V-B:TYR:539:CE1:9847, V-B:TYR:539:C:9839, V-B:PRO:540:N:9856, V-A:ILE:369:CD1:3236, V-B:PRO:540:CA:9855, V-A:LEU:475:CD2:4256, V-B:TYR:539:CD1:9845, V-A:ILE:369:CG2:3234, H-A:ARG:545:NH2:4926, V-A:HIS:456:CE1:4066, V-A:ILE:369:CB:3233, V-A:ARG:545:CZ:4924, V-A:ARG:545:CG:4920, H-A:GLY:454:N:4047, V-A:ARG:545:CD:4921, V-B:PRO:540:CB:9857, V-B:ALA:541:CB:9864, V-B:TYR:539:CZ:9849, V-A:ILE:369:CG1:3235, H-A:ARG:545:NH1:4925, H-A:TYR:484:OH:4345, H-A:ARG:545:NE:4922, H-A:ASP:366:OD1:3211, H-A:ASP:366:OD2:3212, H-B:TYR:539:OH:9850"]

$$$$
3ab_Grossjean_2025
     RDKit          3D

 33 35  0  0  0  0  0  0  0  0999 V2000
  125.0000  123.6290   62.5110 C   0  0  0  0  0  0  0  0  0  0  0  0
  125.8920  124.0750   61.4990 O   0  0  0  0  0  0  0  0  0  0  0  0
  127.2250  123.8310   61.5860 C   0  0  0  0  0  0  0  0  0  0  0  0
  127.7140  122.6990   61.5410 O   0  0  0  0  0  0  0  0  0  0  0  0
  128.0470  125.0780   61.7390 C   0  0  0  0  0  0  0  0  0  0  0  0
  129.4020  125.0350   62.1030 C   0  0  0  0  0  0  0  0  0  0  0  0
  130.1400  126.2080   62.2360 C   0  0  0  0  0  0  0  0  0  0  0  0
  129.5320  127.4520   62.0090 C   0  0  0  0  0  0  0  0  0  0  0  0
  130.1810  128.6970   62.1090 N   0  0  0  0  0  0  0  0  0  0  0  0
  130.5740  129.5500   61.1390 C   0  0  0  0  0  0  0  0  0  0  0  0
  130.4360  129.3700   59.9290 O   0  0  0  0  0  0  0  0  0  0  0  0
  131.2450  130.8350   61.6280 C   0  0  0  0  0  0  0  0  0  0  0  0
  130.0900  132.2380   61.6690 S   0  0  0  0  0  0  0  0  0  0  0  0
  128.4400  131.5740   61.5840 C   0  0  0  0  0  0  0  0  0  0  0  0
  127.9760  131.1250   62.7740 N   0  0  0  0  0  0  0  0  0  0  0  0
  126.7270  130.5970   62.8580 C   0  0  0  0  0  0  0  0  0  0  0  0
  126.2870  130.1250   64.2120 C   0  0  0  0  0  0  0  0  0  0  0  0
  127.2280  129.7100   65.1680 C   0  0  0  0  0  0  0  0  0  0  0  0
  126.8260  129.2720   66.4270 C   0  0  0  0  0  0  0  0  0  0  0  0
  125.4720  129.2410   66.7480 C   0  0  0  0  0  0  0  0  0  0  0  0
  124.5200  129.6430   65.8170 C   0  0  0  0  0  0  0  0  0  0  0  0
  124.9260  130.0810   64.5600 C   0  0  0  0  0  0  0  0  0  0  0  0
  125.9180  130.4910   61.7210 C   0  0  0  0  0  0  0  0  0  0  0  0
  126.3830  130.9310   60.4740 C   0  0  0  0  0  0  0  0  0  0  0  0
  125.4620  130.7910   59.2460 C   0  0  0  0  0  0  0  0  0  0  0  0
  124.5190  131.7340   59.1960 F   0  0  0  0  0  0  0  0  0  0  0  0
  126.1760  130.8810   58.1230 F   0  0  0  0  0  0  0  0  0  0  0  0
  124.8470  129.6080   59.2720 F   0  0  0  0  0  0  0  0  0  0  0  0
  127.6860  131.4830   60.3930 C   0  0  0  0  0  0  0  0  0  0  0  0
  128.2420  131.9060   59.1050 C   0  0  0  0  0  0  0  0  0  0  0  0
  128.6780  132.2390   58.0860 N   0  0  0  0  0  0  0  0  0  0  0  0
  128.1860  127.4980   61.6420 C   0  0  0  0  0  0  0  0  0  0  0  0
  127.4500  126.3250   61.5100 C   0  0  0  0  0  0  0  0  0  0  0  0
  1  2  1  0
  2  3  1  0
  3  4  2  0
  3  5  1  0
  5  6  2  0
  6  7  1  0
  7  8  2  0
  8  9  1  0
  9 10  1  0
 10 11  2  0
 10 12  1  0
 12 13  1  0
 13 14  1  0
 14 15  2  0
 15 16  1  0
 16 17  1  0
 17 18  2  0
 18 19  1  0
 19 20  2  0
 20 21  1  0
 21 22  2  0
 16 23  2  0
 23 24  1  0
 24 25  1  0
 25 26  1  0
 25 27  1  0
 25 28  1  0
 24 29  2  0
 29 30  1  0
 30 31  3  0
  8 32  1  0
 32 33  2  0
 33  5  1  0
 29 14  1  0
 22 17  1  0
M  END
>  <Binding energies>  (13) 
[-6.35]

>  <Ligand effiencies>  (13) 
[-0.18676470588235294]

>  <Interactions>  (13) 
["V-A:TYR:539:CZ:4875, V-B:ASP:366:CB:8183, V-B:GLY:454:CA:9020, V-B:ILE:369:CG2:8208, V-A:TYR:539:CE1:4873, V-A:TYR:539:CD1:4871, V-B:ASP:366:CG:8184, H-A:ALA:541:N:4889, H-B:ALA:541:N:9863, H-B:ARG:545:NH2:9900, V-B:HIS:456:CE1:9040, V-B:GLU:543:CD:9880, H-A:GLU:543:OE2:4908, V-A:GLU:543:CD:4906, V-B:ASP:366:CA:8181, V-B:ARG:545:CZ:9898, V-B:ARG:545:CG:9894, H-A:GLU:543:OE1:4907, V-B:TYR:484:CZ:9318, V-B:ARG:545:CD:9895, V-B:ASN:362:CB:8147"]

$$$$
3ac_Grossjean_2025
     RDKit          3D

 31 33  0  0  0  0  0  0  0  0999 V2000
  127.1200  129.0580   74.7950 C   0  0  0  0  0  0  0  0  0  0  0  0
  128.4050  128.5060   74.5260 O   0  0  0  0  0  0  0  0  0  0  0  0
  128.7230  128.1340   73.2340 C   0  0  0  0  0  0  0  0  0  0  0  0
  127.6610  127.7450   72.4190 C   0  0  0  0  0  0  0  0  0  0  0  0
  127.8830  127.3580   71.1010 C   0  0  0  0  0  0  0  0  0  0  0  0
  129.1790  127.3450   70.5800 C   0  0  0  0  0  0  0  0  0  0  0  0
  129.3020  126.9590   69.2330 N   0  0  0  0  0  0  0  0  0  0  0  0
  129.2730  127.7250   68.1210 C   0  0  0  0  0  0  0  0  0  0  0  0
  129.1720  128.9530   68.1060 O   0  0  0  0  0  0  0  0  0  0  0  0
  129.3820  126.9700   66.7960 C   0  0  0  0  0  0  0  0  0  0  0  0
  130.8270  125.8650   66.7500 S   0  0  0  0  0  0  0  0  0  0  0  0
  131.2050  125.4890   65.0490 C   0  0  0  0  0  0  0  0  0  0  0  0
  130.1080  125.4520   64.2550 N   0  0  0  0  0  0  0  0  0  0  0  0
  130.2400  125.1840   62.9300 C   0  0  0  0  0  0  0  0  0  0  0  0
  128.9760  125.1560   62.1230 C   0  0  0  0  0  0  0  0  0  0  0  0
  128.2870  126.3430   61.8260 C   0  0  0  0  0  0  0  0  0  0  0  0
  127.1170  126.3240   61.0720 C   0  0  0  0  0  0  0  0  0  0  0  0
  126.6160  125.1130   60.6060 C   0  0  0  0  0  0  0  0  0  0  0  0
  127.2760  123.9220   60.8900 C   0  0  0  0  0  0  0  0  0  0  0  0
  128.4460  123.9460   61.6440 C   0  0  0  0  0  0  0  0  0  0  0  0
  131.4960  124.9250   62.3740 C   0  0  0  0  0  0  0  0  0  0  0  0
  132.6450  124.9340   63.1790 C   0  0  0  0  0  0  0  0  0  0  0  0
  134.0090  124.6380   62.5250 C   0  0  0  0  0  0  0  0  0  0  0  0
  133.9740  124.7190   61.1930 F   0  0  0  0  0  0  0  0  0  0  0  0
  134.9250  125.5100   62.9520 F   0  0  0  0  0  0  0  0  0  0  0  0
  134.4060  123.4050   62.8440 F   0  0  0  0  0  0  0  0  0  0  0  0
  132.5020  125.2090   64.5620 C   0  0  0  0  0  0  0  0  0  0  0  0
  133.6610  125.1540   65.4540 C   0  0  0  0  0  0  0  0  0  0  0  0
  134.5780  125.1090   66.1600 N   0  0  0  0  0  0  0  0  0  0  0  0
  130.2530  127.7420   71.3920 C   0  0  0  0  0  0  0  0  0  0  0  0
  130.0260  128.1290   72.7100 C   0  0  0  0  0  0  0  0  0  0  0  0
  1  2  1  0
  2  3  1  0
  3  4  2  0
  4  5  1  0
  5  6  2  0
  6  7  1  0
  7  8  1  0
  8  9  2  0
  8 10  1  0
 10 11  1  0
 11 12  1  0
 12 13  2  0
 13 14  1  0
 14 15  1  0
 15 16  2  0
 16 17  1  0
 17 18  2  0
 18 19  1  0
 19 20  2  0
 14 21  2  0
 21 22  1  0
 22 23  1  0
 23 24  1  0
 23 25  1  0
 23 26  1  0
 22 27  2  0
 27 28  1  0
 28 29  3  0
  6 30  1  0
 30 31  2  0
 31  3  1  0
 27 12  1  0
 20 15  1  0
M  END
>  <Binding energies>  (14) 
[-7.08]

>  <Ligand effiencies>  (14) 
[-0.22125]

>  <Interactions>  (14) 
["V-A:ILE:369:CD1:3236, V-B:PRO:540:CA:9855, V-A:GLY:453:C:4039, V-A:GLY:454:CA:4046, V-A:GLU:543:CG:4905, V-A:ASP:366:CG:3210, V-B:HIS:456:CE1:9040, V-B:GLU:543:CD:9880, V-B:GLU:543:CB:9878, V-B:GLU:543:CG:9879, V-A:HIS:456:CE1:4066, V-A:GLU:543:CD:4906, V-B:GLY:544:C:9884, V-A:ARG:545:CZ:4924, V-A:ARG:545:CG:4920, H-A:GLY:454:N:4047, V-A:ARG:545:CD:4921, H-A:HIS:456:NE2:4067, H-B:HIS:456:NE2:9041, V-A:GLY:453:CA:4041, V-A:GLY:544:C:4910, H-A:TYR:484:OH:4345, H-A:ARG:545:NE:4922, V-A:GLY:544:CA:4912, V-A:GLU:543:C:4900, V-B:HIS:456:CD2:9039, V-B:HIS:456:CG:9037, V-A:LYS:547:CE:4948, V-B:GLY:544:CA:9886, H-B:LYS:547:NZ:9923, H-A:LYS:547:NZ:4949, V-B:HIS:456:CB:9036, H-B:GLU:543:O:9875, H-A:ILE:455:N:4052"]

$$$$
3af_Grossjean_2025
     RDKit          3D

 29 31  0  0  0  0  0  0  0  0999 V2000
  124.1100  130.1090   64.0010 N   0  0  0  0  0  0  0  0  0  0  0  0
  124.9470  130.4200   63.2650 C   0  0  0  0  0  0  0  0  0  0  0  0
  126.0070  130.8160   62.3340 C   0  0  0  0  0  0  0  0  0  0  0  0
  125.9850  132.0880   61.7140 C   0  0  0  0  0  0  0  0  0  0  0  0
  124.8970  133.1400   62.0080 C   0  0  0  0  0  0  0  0  0  0  0  0
  124.7070  133.3360   63.3150 F   0  0  0  0  0  0  0  0  0  0  0  0
  125.2390  134.3110   61.4710 F   0  0  0  0  0  0  0  0  0  0  0  0
  123.7310  132.7500   61.4910 F   0  0  0  0  0  0  0  0  0  0  0  0
  126.9920  132.4010   60.7870 C   0  0  0  0  0  0  0  0  0  0  0  0
  127.9900  131.4680   60.4870 C   0  0  0  0  0  0  0  0  0  0  0  0
  129.0780  131.7420   59.4920 C   0  0  0  0  0  0  0  0  0  0  0  0
  128.7800  132.2990   58.2380 C   0  0  0  0  0  0  0  0  0  0  0  0
  129.7860  132.5580   57.3110 C   0  0  0  0  0  0  0  0  0  0  0  0
  131.1080  132.2630   57.6270 C   0  0  0  0  0  0  0  0  0  0  0  0
  131.4310  131.7140   58.8640 C   0  0  0  0  0  0  0  0  0  0  0  0
  130.4220  131.4570   59.7880 C   0  0  0  0  0  0  0  0  0  0  0  0
  128.0050  130.2480   61.0810 N   0  0  0  0  0  0  0  0  0  0  0  0
  127.0570  129.9310   61.9960 C   0  0  0  0  0  0  0  0  0  0  0  0
  127.2500  128.2960   62.6760 S   0  0  0  0  0  0  0  0  0  0  0  0
  128.9760  128.1130   63.2180 C   0  0  0  0  0  0  0  0  0  0  0  0
  129.5370  126.7340   62.8740 C   0  0  0  0  0  0  0  0  0  0  0  0
  129.0910  126.1330   61.8960 O   0  0  0  0  0  0  0  0  0  0  0  0
  130.4980  126.2760   63.7050 N   0  0  0  0  0  0  0  0  0  0  0  0
  131.2060  125.0590   63.6750 C   0  0  0  0  0  0  0  0  0  0  0  0
  130.6320  123.7740   63.6710 C   0  0  0  0  0  0  0  0  0  0  0  0
  131.4580  122.6490   63.6420 C   0  0  0  0  0  0  0  0  0  0  0  0
  132.8410  122.8340   63.6180 C   0  0  0  0  0  0  0  0  0  0  0  0
  133.4190  124.0610   63.6200 N   0  0  0  0  0  0  0  0  0  0  0  0
  132.6030  125.1450   63.6490 C   0  0  0  0  0  0  0  0  0  0  0  0
  1  2  3  0
  2  3  1  0
  3  4  2  0
  4  5  1  0
  5  6  1  0
  5  7  1  0
  5  8  1  0
  4  9  1  0
  9 10  2  0
 10 11  1  0
 11 12  2  0
 12 13  1  0
 13 14  2  0
 14 15  1  0
 15 16  2  0
 10 17  1  0
 17 18  2  0
 18 19  1  0
 19 20  1  0
 20 21  1  0
 21 22  2  0
 21 23  1  0
 23 24  1  0
 24 25  2  0
 25 26  1  0
 26 27  2  0
 27 28  1  0
 28 29  2  0
 18  3  1  0
 29 24  1  0
 16 11  1  0
M  END
>  <Binding energies>  (15) 
[-6.93]

>  <Ligand effiencies>  (15) 
[-0.23099999999999998]

>  <Interactions>  (15) 
["V-B:LEU:475:CD2:9230, V-A:TYR:539:CZ:4875, V-B:GLY:454:CA:9020, V-B:ILE:369:CG2:8208, V-A:TYR:539:CE1:4873, V-B:ILE:369:CD1:8210, V-A:TYR:539:CD1:4871, V-A:PRO:540:CB:4883, V-A:PRO:540:CD:4885, V-A:PRO:540:CA:4881, V-A:PRO:540:N:4882, V-A:TYR:539:C:4865, V-A:LEU:475:CD2:4256, V-A:GLY:454:CA:4046, H-B:ARG:545:NH2:9900, V-B:GLU:543:CD:9880, H-A:GLU:543:OE2:4908, H-B:GLY:454:N:9021, V-A:GLU:543:CD:4906, V-B:ILE:369:CG1:8209, V-B:ILE:369:CB:8207, V-A:ARG:545:CZ:4924, H-A:GLY:454:N:4047, V-A:TYR:539:CG:4870, H-B:ARG:545:NH1:9899, H-A:TYR:484:OH:4345"]

$$$$
3ag_Grossjean_2025
     RDKit          3D

 30 32  0  0  0  0  0  0  0  0999 V2000
  127.9620  126.5870   62.3100 N   0  0  0  0  0  0  0  0  0  0  0  0
  128.4790  125.5780   62.0770 C   0  0  0  0  0  0  0  0  0  0  0  0
  129.1310  124.2990   61.7800 C   0  0  0  0  0  0  0  0  0  0  0  0
  128.5140  123.3530   60.9260 C   0  0  0  0  0  0  0  0  0  0  0  0
  127.1710  123.6220   60.2190 C   0  0  0  0  0  0  0  0  0  0  0  0
  127.0710  124.8690   59.7560 F   0  0  0  0  0  0  0  0  0  0  0  0
  127.0310  122.7950   59.1830 F   0  0  0  0  0  0  0  0  0  0  0  0
  126.1590  123.4290   61.0660 F   0  0  0  0  0  0  0  0  0  0  0  0
  129.1530  122.1210   60.7160 C   0  0  0  0  0  0  0  0  0  0  0  0
  130.3680  121.8380   61.3500 C   0  0  0  0  0  0  0  0  0  0  0  0
  131.0920  120.5390   61.1630 C   0  0  0  0  0  0  0  0  0  0  0  0
  132.4500  120.5210   60.8090 C   0  0  0  0  0  0  0  0  0  0  0  0
  133.1290  119.3180   60.6340 C   0  0  0  0  0  0  0  0  0  0  0  0
  132.4570  118.1130   60.8110 C   0  0  0  0  0  0  0  0  0  0  0  0
  131.1090  118.1040   61.1590 C   0  0  0  0  0  0  0  0  0  0  0  0
  130.4340  119.3080   61.3320 C   0  0  0  0  0  0  0  0  0  0  0  0
  130.9630  122.7530   62.1580 N   0  0  0  0  0  0  0  0  0  0  0  0
  130.3730  123.9560   62.3590 C   0  0  0  0  0  0  0  0  0  0  0  0
  131.2950  125.0260   63.4420 S   0  0  0  0  0  0  0  0  0  0  0  0
  130.8580  124.5770   65.1480 C   0  0  0  0  0  0  0  0  0  0  0  0
  131.3400  125.6170   66.1610 C   0  0  0  0  0  0  0  0  0  0  0  0
  132.5480  125.7880   66.3380 O   0  0  0  0  0  0  0  0  0  0  0  0
  130.3860  126.3050   66.8110 N   0  0  0  0  0  0  0  0  0  0  0  0
  130.6210  127.3660   67.7900 C   0  0  0  0  0  0  0  0  0  0  0  0
  129.7100  127.2990   69.0100 C   0  0  0  0  0  0  0  0  0  0  0  0
  130.2300  127.5590   70.2810 C   0  0  0  0  0  0  0  0  0  0  0  0
  129.3950  127.5280   71.3940 C   0  0  0  0  0  0  0  0  0  0  0  0
  128.0400  127.2490   71.2320 C   0  0  0  0  0  0  0  0  0  0  0  0
  127.5110  127.0040   69.9670 C   0  0  0  0  0  0  0  0  0  0  0  0
  128.3460  127.0350   68.8530 C   0  0  0  0  0  0  0  0  0  0  0  0
  1  2  3  0
  2  3  1  0
  3  4  2  0
  4  5  1  0
  5  6  1  0
  5  7  1  0
  5  8  1  0
  4  9  1  0
  9 10  2  0
 10 11  1  0
 11 12  2  0
 12 13  1  0
 13 14  2  0
 14 15  1  0
 15 16  2  0
 10 17  1  0
 17 18  2  0
 18 19  1  0
 19 20  1  0
 20 21  1  0
 21 22  2  0
 21 23  1  0
 23 24  1  0
 24 25  1  0
 25 26  2  0
 26 27  1  0
 27 28  2  0
 28 29  1  0
 29 30  2  0
 18  3  1  0
 30 25  1  0
 16 11  1  0
M  END
>  <Binding energies>  (16) 
[-7.59]

>  <Ligand effiencies>  (16) 
[-0.24483870967741936]

>  <Interactions>  (16) 
["V-B:PRO:540:C:9853, V-B:TYR:539:CE1:9847, V-B:TYR:539:C:9839, V-B:PRO:540:N:9856, V-B:PRO:540:CA:9855, V-A:LEU:475:CD2:4256, V-B:TYR:539:CD1:9845, V-A:GLU:543:CG:4905, H-B:GLU:543:OE1:9881, H-B:ARG:545:NH2:9900, V-A:ILE:369:CG2:3234, V-B:HIS:456:CE1:9040, H-B:GLU:543:OE2:9882, V-B:GLU:543:CD:9880, V-B:GLU:543:CB:9878, V-B:GLU:543:CG:9879, V-A:HIS:456:CE1:4066, H-A:GLU:543:OE2:4908, V-A:TYR:484:CZ:4344, V-A:GLU:543:CD:4906, V-B:GLU:543:C:9874, V-B:GLY:544:C:9884, V-A:SER:385:CA:3404, V-B:PRO:540:CB:9857, V-B:ALA:541:CB:9864, V-A:GLY:544:C:4910, H-A:TYR:484:OH:4345, H-A:ARG:545:NE:4922, V-A:SER:385:CB:3406, V-A:LEU:373:CD1:3277, V-A:PRO:482:CB:4323, V-A:PRO:482:CG:4324, V-A:GLU:543:C:4900, V-B:HIS:456:CD2:9039, V-B:GLY:544:CA:9886"]

$$$$
3bc_Grossjean_2025
     RDKit          3D

 28 30  0  0  0  0  0  0  0  0999 V2000
  131.4610  125.7990   74.3550 C   0  0  0  0  0  0  0  0  0  0  0  0
  130.1350  126.2610   74.1270 O   0  0  0  0  0  0  0  0  0  0  0  0
  129.7800  126.6910   72.8620 C   0  0  0  0  0  0  0  0  0  0  0  0
  130.8050  127.2110   72.0720 C   0  0  0  0  0  0  0  0  0  0  0  0
  130.5440  127.6700   70.7830 C   0  0  0  0  0  0  0  0  0  0  0  0
  129.2470  127.6220   70.2700 C   0  0  0  0  0  0  0  0  0  0  0  0
  129.0830  128.0960   68.9550 N   0  0  0  0  0  0  0  0  0  0  0  0
  128.1090  127.8150   68.0630 C   0  0  0  0  0  0  0  0  0  0  0  0
  127.1390  127.0880   68.2890 O   0  0  0  0  0  0  0  0  0  0  0  0
  128.2620  128.5140   66.7040 C   0  0  0  0  0  0  0  0  0  0  0  0
  127.5460  130.1900   66.6090 S   0  0  0  0  0  0  0  0  0  0  0  0
  126.8690  130.4000   64.9780 C   0  0  0  0  0  0  0  0  0  0  0  0
  127.8020  130.6670   64.0310 N   0  0  0  0  0  0  0  0  0  0  0  0
  127.4220  130.8480   62.7390 C   0  0  0  0  0  0  0  0  0  0  0  0
  128.5130  131.1600   61.7570 C   0  0  0  0  0  0  0  0  0  0  0  0
  129.6240  130.3130   61.6270 C   0  0  0  0  0  0  0  0  0  0  0  0
  130.6400  130.5960   60.7180 C   0  0  0  0  0  0  0  0  0  0  0  0
  130.5570  131.7350   59.9240 C   0  0  0  0  0  0  0  0  0  0  0  0
  129.4670  132.5930   60.0350 C   0  0  0  0  0  0  0  0  0  0  0  0
  128.4540  132.3060   60.9460 C   0  0  0  0  0  0  0  0  0  0  0  0
  126.0770  130.7640   62.3670 C   0  0  0  0  0  0  0  0  0  0  0  0
  125.1040  130.4670   63.3280 C   0  0  0  0  0  0  0  0  0  0  0  0
  123.6480  130.3690   62.8740 C   0  0  0  0  0  0  0  0  0  0  0  0
  125.4960  130.2670   64.6690 C   0  0  0  0  0  0  0  0  0  0  0  0
  124.5020  129.9070   65.6820 C   0  0  0  0  0  0  0  0  0  0  0  0
  123.7140  129.6240   66.4810 N   0  0  0  0  0  0  0  0  0  0  0  0
  128.2130  127.0880   71.0530 C   0  0  0  0  0  0  0  0  0  0  0  0
  128.4780  126.6300   72.3410 C   0  0  0  0  0  0  0  0  0  0  0  0
  1  2  1  0
  2  3  1  0
  3  4  2  0
  4  5  1  0
  5  6  2  0
  6  7  1  0
  7  8  1  0
  8  9  2  0
  8 10  1  0
 10 11  1  0
 11 12  1  0
 12 13  2  0
 13 14  1  0
 14 15  1  0
 15 16  2  0
 16 17  1  0
 17 18  2  0
 18 19  1  0
 19 20  2  0
 14 21  2  0
 21 22  1  0
 22 23  1  0
 22 24  2  0
 24 25  1  0
 25 26  3  0
  6 27  1  0
 27 28  2  0
 28  3  1  0
 24 12  1  0
 20 15  1  0
M  END
>  <Binding energies>  (17) 
[-8.19]

>  <Ligand effiencies>  (17) 
[-0.2824137931034483]

>  <Interactions>  (17) 
["V-B:GLY:454:CA:9020, V-B:GLY:453:C:9013, V-B:ILE:369:CD1:8210, V-A:PRO:540:CA:4881, V-A:PRO:540:N:4882, V-A:TYR:539:C:4865, V-A:GLU:543:CG:4905, V-B:GLY:453:CA:9015, V-B:HIS:456:CE1:9040, V-B:GLU:543:CD:9880, V-B:GLU:543:CG:9879, V-A:HIS:456:CE1:4066, H-A:GLU:543:OE2:4908, H-B:GLY:454:N:9021, V-A:GLU:543:CD:4906, V-A:GLU:543:CB:4904, V-B:GLU:543:C:9874, V-B:ARG:545:CZ:9898, V-B:GLY:544:C:9884, V-A:HIS:456:CD2:4065, H-B:ARG:545:NE:9896, V-B:ARG:545:CD:9895, V-A:GLY:544:C:4910, H-B:TYR:484:OH:9319, V-A:GLY:544:CA:4912, V-A:GLU:543:C:4900, V-B:GLY:544:CA:9886, V-A:HIS:456:CG:4063, H-B:LYS:547:NZ:9923, V-A:HIS:456:CB:4062, H-A:LYS:547:NZ:4949, V-B:LYS:547:CE:9922, H-B:ILE:455:N:9026, H-A:GLU:543:O:4901"]

$$$$
3bd_Grossjean_2025
     RDKit          3D

 26 28  0  0  0  0  0  0  0  0999 V2000
  124.6620  130.4100   76.4420 C   0  0  0  0  0  0  0  0  0  0  0  0
  125.8940  130.1640   75.5730 C   0  0  0  0  0  0  0  0  0  0  0  0
  126.8790  131.1570   75.5260 C   0  0  0  0  0  0  0  0  0  0  0  0
  128.0210  130.9710   74.7380 C   0  0  0  0  0  0  0  0  0  0  0  0
  129.1170  131.9910   74.6460 C   0  0  0  0  0  0  0  0  0  0  0  0
  129.6960  132.3130   73.4080 C   0  0  0  0  0  0  0  0  0  0  0  0
  130.7140  133.2570   73.3150 C   0  0  0  0  0  0  0  0  0  0  0  0
  131.1700  133.8960   74.4640 C   0  0  0  0  0  0  0  0  0  0  0  0
  130.6160  133.5930   75.7040 C   0  0  0  0  0  0  0  0  0  0  0  0
  129.5980  132.6470   75.7920 C   0  0  0  0  0  0  0  0  0  0  0  0
  128.1960  129.8270   74.0250 N   0  0  0  0  0  0  0  0  0  0  0  0
  127.2500  128.8540   74.0590 C   0  0  0  0  0  0  0  0  0  0  0  0
  127.5920  127.4080   73.0700 S   0  0  0  0  0  0  0  0  0  0  0  0
  129.3260  127.4930   72.5280 C   0  0  0  0  0  0  0  0  0  0  0  0
  130.2090  126.4930   73.2750 C   0  0  0  0  0  0  0  0  0  0  0  0
  129.7510  125.3870   73.5610 O   0  0  0  0  0  0  0  0  0  0  0  0
  131.4520  126.9250   73.5820 N   0  0  0  0  0  0  0  0  0  0  0  0
  132.4930  126.2360   74.2330 C   0  0  0  0  0  0  0  0  0  0  0  0
  132.1170  125.1150   74.9780 C   0  0  0  0  0  0  0  0  0  0  0  0
  133.0760  124.3750   75.6640 C   0  0  0  0  0  0  0  0  0  0  0  0
  134.4130  124.7620   75.6130 C   0  0  0  0  0  0  0  0  0  0  0  0
  134.7980  125.8860   74.8850 C   0  0  0  0  0  0  0  0  0  0  0  0
  133.8410  126.6270   74.1970 C   0  0  0  0  0  0  0  0  0  0  0  0
  126.0710  128.9810   74.8250 C   0  0  0  0  0  0  0  0  0  0  0  0
  125.0570  127.9220   74.8540 C   0  0  0  0  0  0  0  0  0  0  0  0
  124.2570  127.0860   74.8790 N   0  0  0  0  0  0  0  0  0  0  0  0
  1  2  1  0
  2  3  2  0
  3  4  1  0
  4  5  1  0
  5  6  2  0
  6  7  1  0
  7  8  2  0
  8  9  1  0
  9 10  2  0
  4 11  2  0
 11 12  1  0
 12 13  1  0
 13 14  1  0
 14 15  1  0
 15 16  2  0
 15 17  1  0
 17 18  1  0
 18 19  2  0
 19 20  1  0
 20 21  2  0
 21 22  1  0
 22 23  2  0
 12 24  2  0
 24 25  1  0
 25 26  3  0
 24  2  1  0
 10  5  1  0
 23 18  1  0
M  END
>  <Binding energies>  (18) 
[-8.69]

>  <Ligand effiencies>  (18) 
[-0.32185185185185183]

>  <Interactions>  (18) 
["V-A:HIS:456:CD2:4065, V-A:GLY:544:C:4910, V-A:GLY:544:CA:4912, V-A:LYS:547:CD:4947, V-A:VAL:458:CG2:4084, V-B:HIS:456:CD2:9039, V-B:HIS:456:CG:9037, V-A:HIS:456:CA:4060, V-A:HIS:456:C:4058, V-A:LYS:547:CE:4948, V-A:VAL:457:C:4070, V-A:HIS:456:CG:4063, H-B:LYS:547:NZ:9923, H-A:GLY:544:O:4911, V-A:LYS:471:CD:4216, V-A:HIS:456:CB:4062, H-A:LYS:547:NZ:4949, V-B:LYS:471:CD:9190, V-B:HIS:456:C:9032, V-B:LYS:547:CE:9922, V-B:ASP:473:CG:9211, V-B:HIS:456:CB:9036, V-B:VAL:458:CG2:9058, V-B:LYS:547:CD:9921, V-B:LYS:547:CG:9920, V-B:LYS:471:CG:9189, V-A:VAL:457:CA:4072"]

$$$$
3be_Grossjean_2025
     RDKit          3D

 27 29  0  0  0  0  0  0  0  0999 V2000
  127.7870  120.2650   71.6440 C   0  0  0  0  0  0  0  0  0  0  0  0
  128.5190  121.1850   72.6010 C   0  0  0  0  0  0  0  0  0  0  0  0
  129.0650  120.7120   73.7970 C   0  0  0  0  0  0  0  0  0  0  0  0
  129.7220  121.6170   74.6310 C   0  0  0  0  0  0  0  0  0  0  0  0
  129.8180  122.9590   74.2530 C   0  0  0  0  0  0  0  0  0  0  0  0
  129.2520  123.3650   73.0400 C   0  0  0  0  0  0  0  0  0  0  0  0
  129.3730  124.7310   72.7210 N   0  0  0  0  0  0  0  0  0  0  0  0
  130.0860  125.6870   73.3550 C   0  0  0  0  0  0  0  0  0  0  0  0
  130.7690  125.4980   74.3630 O   0  0  0  0  0  0  0  0  0  0  0  0
  129.9960  127.0830   72.7190 C   0  0  0  0  0  0  0  0  0  0  0  0
  128.3050  127.7440   72.5330 S   0  0  0  0  0  0  0  0  0  0  0  0
  128.1810  129.2290   73.5050 C   0  0  0  0  0  0  0  0  0  0  0  0
  129.0630  130.1920   73.1400 N   0  0  0  0  0  0  0  0  0  0  0  0
  129.0770  131.3820   73.7970 C   0  0  0  0  0  0  0  0  0  0  0  0
  130.0930  132.3880   73.3410 C   0  0  0  0  0  0  0  0  0  0  0  0
  129.9310  133.0700   72.1250 C   0  0  0  0  0  0  0  0  0  0  0  0
  130.8700  134.0030   71.6950 C   0  0  0  0  0  0  0  0  0  0  0  0
  131.9890  134.2660   72.4770 C   0  0  0  0  0  0  0  0  0  0  0  0
  132.1750  133.6020   73.6850 C   0  0  0  0  0  0  0  0  0  0  0  0
  131.2330  132.6700   74.1110 C   0  0  0  0  0  0  0  0  0  0  0  0
  128.1920  131.6290   74.8520 C   0  0  0  0  0  0  0  0  0  0  0  0
  127.2590  130.6560   75.2240 C   0  0  0  0  0  0  0  0  0  0  0  0
  126.3010  130.9770   76.3700 C   0  0  0  0  0  0  0  0  0  0  0  0
  127.2340  129.4240   74.5350 C   0  0  0  0  0  0  0  0  0  0  0  0
  126.2300  128.4120   74.8730 C   0  0  0  0  0  0  0  0  0  0  0  0
  125.4360  127.6140   75.1410 N   0  0  0  0  0  0  0  0  0  0  0  0
  128.6050  122.4850   72.2210 N   0  0  0  0  0  0  0  0  0  0  0  0
  1  2  1  0
  2  3  2  0
  3  4  1  0
  4  5  2  0
  5  6  1  0
  6  7  1  0
  7  8  1  0
  8  9  2  0
  8 10  1  0
 10 11  1  0
 11 12  1  0
 12 13  2  0
 13 14  1  0
 14 15  1  0
 15 16  2  0
 16 17  1  0
 17 18  2  0
 18 19  1  0
 19 20  2  0
 14 21  2  0
 21 22  1  0
 22 23  1  0
 22 24  2  0
 24 25  1  0
 25 26  3  0
  6 27  2  0
 27  2  1  0
 24 12  1  0
 20 15  1  0
M  END
>  <Binding energies>  (19) 
[-8.28]

>  <Ligand effiencies>  (19) 
[-0.2957142857142857]

>  <Interactions>  (19) 
["V-B:GLU:543:C:9874, V-A:HIS:456:CD2:4065, H-B:HIS:456:NE2:9041, V-A:GLY:544:CA:4912, V-A:GLU:543:C:4900, V-B:HIS:456:CD2:9039, V-B:HIS:456:CG:9037, V-A:LYS:547:CE:4948, V-B:GLY:544:CA:9886, V-A:HIS:456:CG:4063, H-B:LYS:547:NZ:9923, H-A:LYS:547:NZ:4949, V-B:LYS:471:CD:9190, V-B:LYS:547:CE:9922, V-B:ASP:473:CG:9211, V-B:HIS:456:CB:9036, V-B:LYS:547:CD:9921, V-B:TYR:484:CB:9312, V-B:TYR:484:CG:9313, H-B:GLY:544:N:9887, V-B:GLU:543:CA:9876, V-A:TYR:484:CB:4338, V-A:TYR:484:CD2:4341, V-B:TYR:484:CD2:9315, V-A:GLU:543:CA:4902, V-B:LYS:471:CE:9191, V-A:VAL:542:C:4892, H-B:GLU:543:O:9875"]

$$$$
3bf_Grossjean_2025
     RDKit          3D

 26 28  0  0  0  0  0  0  0  0999 V2000
  125.0550  130.8760   76.1860 C   0  0  0  0  0  0  0  0  0  0  0  0
  126.2470  130.4900   75.3130 C   0  0  0  0  0  0  0  0  0  0  0  0
  127.2450  131.4470   75.1000 C   0  0  0  0  0  0  0  0  0  0  0  0
  128.3620  131.1310   74.3190 C   0  0  0  0  0  0  0  0  0  0  0  0
  129.4760  132.1040   74.0720 C   0  0  0  0  0  0  0  0  0  0  0  0
  130.2130  132.6360   75.1410 C   0  0  0  0  0  0  0  0  0  0  0  0
  131.2480  133.5400   74.9190 C   0  0  0  0  0  0  0  0  0  0  0  0
  131.5600  133.9250   73.6190 C   0  0  0  0  0  0  0  0  0  0  0  0
  130.8450  133.4140   72.5430 C   0  0  0  0  0  0  0  0  0  0  0  0
  129.8090  132.5110   72.7690 C   0  0  0  0  0  0  0  0  0  0  0  0
  128.4950  129.8990   73.7590 N   0  0  0  0  0  0  0  0  0  0  0  0
  127.5240  128.9690   73.9350 C   0  0  0  0  0  0  0  0  0  0  0  0
  127.8650  127.4210   73.1250 S   0  0  0  0  0  0  0  0  0  0  0  0
  129.6410  127.3800   72.7080 C   0  0  0  0  0  0  0  0  0  0  0  0
  130.4570  126.3030   73.4380 C   0  0  0  0  0  0  0  0  0  0  0  0
  129.9640  125.2020   73.6890 O   0  0  0  0  0  0  0  0  0  0  0  0
  131.7250  126.6620   73.7350 N   0  0  0  0  0  0  0  0  0  0  0  0
  132.7190  125.9220   74.4020 C   0  0  0  0  0  0  0  0  0  0  0  0
  132.3400  124.6930   74.9510 C   0  0  0  0  0  0  0  0  0  0  0  0
  133.2840  123.9050   75.6140 C   0  0  0  0  0  0  0  0  0  0  0  0
  134.5950  124.3730   75.7040 C   0  0  0  0  0  0  0  0  0  0  0  0
  134.9940  125.5560   75.1720 N   0  0  0  0  0  0  0  0  0  0  0  0
  134.0650  126.3100   74.5310 C   0  0  0  0  0  0  0  0  0  0  0  0
  126.3800  129.2130   74.7270 C   0  0  0  0  0  0  0  0  0  0  0  0
  125.3710  128.1800   74.9770 C   0  0  0  0  0  0  0  0  0  0  0  0
  124.5730  127.3650   75.1750 N   0  0  0  0  0  0  0  0  0  0  0  0
  1  2  1  0
  2  3  2  0
  3  4  1  0
  4  5  1  0
  5  6  2  0
  6  7  1  0
  7  8  2  0
  8  9  1  0
  9 10  2  0
  4 11  2  0
 11 12  1  0
 12 13  1  0
 13 14  1  0
 14 15  1  0
 15 16  2  0
 15 17  1  0
 17 18  1  0
 18 19  2  0
 19 20  1  0
 20 21  2  0
 21 22  1  0
 22 23  2  0
 12 24  2  0
 24 25  1  0
 25 26  3  0
 24  2  1  0
 10  5  1  0
 23 18  1  0
M  END
>  <Binding energies>  (20) 
[-8.44]

>  <Ligand effiencies>  (20) 
[-0.3125925925925926]

>  <Interactions>  (20) 
["V-A:HIS:456:CD2:4065, H-B:HIS:456:NE2:9041, V-A:GLY:544:C:4910, V-A:GLY:544:CA:4912, V-A:GLU:543:C:4900, V-A:VAL:458:CG2:4084, V-B:HIS:456:CD2:9039, V-B:HIS:456:CG:9037, V-A:HIS:456:CA:4060, V-A:HIS:456:C:4058, V-A:LYS:547:CE:4948, V-A:HIS:456:CG:4063, H-B:LYS:547:NZ:9923, H-A:GLY:544:O:4911, V-A:LYS:471:CD:4216, V-A:HIS:456:CB:4062, H-A:LYS:547:NZ:4949, V-B:LYS:471:CD:9190, V-B:HIS:456:C:9032, V-B:LYS:547:CE:9922, V-B:ASP:473:CG:9211, V-B:HIS:456:CB:9036, V-B:VAL:458:CG2:9058, V-B:LYS:547:CD:9921, V-A:ASP:473:CG:4237, V-B:TYR:484:CB:9312, V-B:LYS:471:CE:9191, V-A:LYS:471:CG:4215, H-A:VAL:457:N:4073, V-B:LYS:471:CG:9189"]

$$$$
3bg_Grossjean_2025
     RDKit          3D

 27 29  0  0  0  0  0  0  0  0999 V2000
  130.6770  131.7690   59.6860 C   0  0  0  0  0  0  0  0  0  0  0  0
  129.5250  131.8600   60.6860 C   0  0  0  0  0  0  0  0  0  0  0  0
  128.6900  132.9800   60.6310 C   0  0  0  0  0  0  0  0  0  0  0  0
  127.6160  133.1000   61.5240 C   0  0  0  0  0  0  0  0  0  0  0  0
  126.6740  134.2710   61.5110 C   0  0  0  0  0  0  0  0  0  0  0  0
  127.1530  135.5880   61.6170 C   0  0  0  0  0  0  0  0  0  0  0  0
  126.2850  136.6760   61.5870 C   0  0  0  0  0  0  0  0  0  0  0  0
  124.9170  136.4640   61.4530 C   0  0  0  0  0  0  0  0  0  0  0  0
  124.4130  135.1730   61.3580 C   0  0  0  0  0  0  0  0  0  0  0  0
  125.2850  134.0880   61.3900 C   0  0  0  0  0  0  0  0  0  0  0  0
  127.3660  132.1240   62.4370 N   0  0  0  0  0  0  0  0  0  0  0  0
  128.1660  131.0290   62.5020 C   0  0  0  0  0  0  0  0  0  0  0  0
  127.7090  129.8080   63.7220 S   0  0  0  0  0  0  0  0  0  0  0  0
  126.4890  130.5570   64.8510 C   0  0  0  0  0  0  0  0  0  0  0  0
  125.0870  130.5900   64.2340 C   0  0  0  0  0  0  0  0  0  0  0  0
  124.1750  129.9410   64.7460 O   0  0  0  0  0  0  0  0  0  0  0  0
  124.9410  131.3320   63.1220 N   0  0  0  0  0  0  0  0  0  0  0  0
  123.7500  131.3620   62.2720 C   0  0  0  0  0  0  0  0  0  0  0  0
  124.0670  130.9520   60.8390 C   0  0  0  0  0  0  0  0  0  0  0  0
  125.3090  130.3870   60.5310 C   0  0  0  0  0  0  0  0  0  0  0  0
  125.6030  130.0210   59.2210 C   0  0  0  0  0  0  0  0  0  0  0  0
  124.6480  130.2090   58.2220 C   0  0  0  0  0  0  0  0  0  0  0  0
  123.4020  130.7520   58.5240 C   0  0  0  0  0  0  0  0  0  0  0  0
  123.1090  131.1190   59.8360 C   0  0  0  0  0  0  0  0  0  0  0  0
  129.2720  130.8560   61.6440 C   0  0  0  0  0  0  0  0  0  0  0  0
  130.1260  129.6680   61.7210 C   0  0  0  0  0  0  0  0  0  0  0  0
  130.8000  128.7300   61.7800 N   0  0  0  0  0  0  0  0  0  0  0  0
  1  2  1  0
  2  3  2  0
  3  4  1  0
  4  5  1  0
  5  6  2  0
  6  7  1  0
  7  8  2  0
  8  9  1  0
  9 10  2  0
  4 11  2  0
 11 12  1  0
 12 13  1  0
 13 14  1  0
 14 15  1  0
 15 16  2  0
 15 17  1  0
 17 18  1  0
 18 19  1  0
 19 20  2  0
 20 21  1  0
 21 22  2  0
 22 23  1  0
 23 24  2  0
 12 25  2  0
 25 26  1  0
 26 27  3  0
 25  2  1  0
 10  5  1  0
 24 19  1  0
M  END
>  <Binding energies>  (21) 
[-7.29]

>  <Ligand effiencies>  (21) 
[-0.26035714285714284]

>  <Interactions>  (21) 
["V-B:LEU:475:CD2:9230, V-A:TYR:539:CZ:4875, V-B:ASP:366:CB:8183, V-B:GLY:454:CA:9020, V-B:ILE:369:CG2:8208, V-A:TYR:539:CE1:4873, V-B:ILE:369:CD1:8210, V-A:TYR:539:CD1:4871, V-B:ASP:366:CG:8184, V-A:PRO:540:CA:4881, V-A:PRO:540:N:4882, V-A:TYR:539:C:4865, V-A:ALA:541:CB:4890, H-B:ARG:545:NH2:9900, H-A:ARG:545:NH2:4926, H-B:GLY:454:N:9021, V-A:GLU:543:CD:4906, V-B:ILE:369:CG1:8209, V-B:ILE:369:CB:8207, V-B:ASP:366:CA:8181, H-B:ARG:545:NE:9896, V-B:PRO:482:CG:9298, V-B:SER:385:CA:8378, V-B:SER:385:CB:8380, V-B:LEU:373:CD1:8251, V-B:ASP:366:C:8179, H-B:TYR:484:OH:9319"]

$$$$
3ca_Grossjean_2025
     RDKit          3D

 31 33  0  0  0  0  0  0  0  0999 V2000
  129.7480  125.8960   73.0030 C   0  0  0  0  0  0  0  0  0  0  0  0
  130.2920  127.3140   73.2040 C   0  0  0  0  0  0  0  0  0  0  0  0
  129.3890  128.2530   72.6330 O   0  0  0  0  0  0  0  0  0  0  0  0
  128.4070  127.8550   71.7850 C   0  0  0  0  0  0  0  0  0  0  0  0
  127.2180  127.7720   72.1100 O   0  0  0  0  0  0  0  0  0  0  0  0
  128.9080  127.5320   70.4060 C   0  0  0  0  0  0  0  0  0  0  0  0
  128.0170  127.0160   69.4580 C   0  0  0  0  0  0  0  0  0  0  0  0
  128.4510  126.7060   68.1720 C   0  0  0  0  0  0  0  0  0  0  0  0
  129.7860  126.8990   67.8110 C   0  0  0  0  0  0  0  0  0  0  0  0
  130.1190  126.5540   66.4870 N   0  0  0  0  0  0  0  0  0  0  0  0
  130.4750  125.3580   65.9710 C   0  0  0  0  0  0  0  0  0  0  0  0
  130.5540  124.3050   66.6030 O   0  0  0  0  0  0  0  0  0  0  0  0
  130.7740  125.3560   64.4680 C   0  0  0  0  0  0  0  0  0  0  0  0
  132.5500  125.1930   64.0890 S   0  0  0  0  0  0  0  0  0  0  0  0
  132.7760  124.0900   62.7010 C   0  0  0  0  0  0  0  0  0  0  0  0
  133.5300  124.5740   61.6820 N   0  0  0  0  0  0  0  0  0  0  0  0
  133.7600  123.7870   60.6090 C   0  0  0  0  0  0  0  0  0  0  0  0
  134.6260  124.3920   59.5220 C   0  0  0  0  0  0  0  0  0  0  0  0
  133.2390  122.5000   60.4980 C   0  0  0  0  0  0  0  0  0  0  0  0
  132.4420  121.9840   61.5280 C   0  0  0  0  0  0  0  0  0  0  0  0
  131.8950  120.6040   61.3590 C   0  0  0  0  0  0  0  0  0  0  0  0
  132.7140  119.5770   60.8750 C   0  0  0  0  0  0  0  0  0  0  0  0
  132.2100  118.2900   60.7050 C   0  0  0  0  0  0  0  0  0  0  0  0
  130.8780  118.0260   61.0170 C   0  0  0  0  0  0  0  0  0  0  0  0
  130.0480  119.0370   61.4930 C   0  0  0  0  0  0  0  0  0  0  0  0
  130.5560  120.3230   61.6610 C   0  0  0  0  0  0  0  0  0  0  0  0
  132.2080  122.7940   62.6680 C   0  0  0  0  0  0  0  0  0  0  0  0
  131.4240  122.2890   63.8000 C   0  0  0  0  0  0  0  0  0  0  0  0
  130.8050  121.8890   64.6930 N   0  0  0  0  0  0  0  0  0  0  0  0
  130.6840  127.4230   68.7520 C   0  0  0  0  0  0  0  0  0  0  0  0
  130.2470  127.7340   70.0370 C   0  0  0  0  0  0  0  0  0  0  0  0
  1  2  1  0
  2  3  1  0
  3  4  1  0
  4  5  2  0
  4  6  1  0
  6  7  2  0
  7  8  1  0
  8  9  2  0
  9 10  1  0
 10 11  1  0
 11 12  2  0
 11 13  1  0
 13 14  1  0
 14 15  1  0
 15 16  2  0
 16 17  1  0
 17 18  1  0
 17 19  2  0
 19 20  1  0
 20 21  1  0
 21 22  2  0
 22 23  1  0
 23 24  2  0
 24 25  1  0
 25 26  2  0
 20 27  2  0
 27 28  1  0
 28 29  3  0
  9 30  1  0
 30 31  2  0
 31  6  1  0
 27 15  1  0
 26 21  1  0
M  END
>  <Binding energies>  (22) 
[-8.32]

>  <Ligand effiencies>  (22) 
[-0.26]

>  <Interactions>  (22) 
["V-B:TYR:539:CE1:9847, V-B:TYR:539:C:9839, V-A:ILE:369:CD1:3236, V-A:LEU:475:CD2:4256, V-B:TYR:539:CD1:9845, V-A:GLU:543:CG:4905, V-A:ASP:366:CG:3210, V-A:ILE:369:CG2:3234, V-B:HIS:456:CE1:9040, H-B:GLU:543:OE2:9882, V-B:GLU:543:CD:9880, H-A:ARG:545:NH2:4926, V-B:GLU:543:CB:9878, V-B:GLU:543:CG:9879, V-A:HIS:456:CE1:4066, H-A:GLU:543:OE2:4908, V-A:ASP:366:CA:3207, V-A:ASP:366:CB:3209, V-A:GLU:543:CD:4906, V-B:GLU:543:C:9874, V-A:ILE:369:CB:3233, V-A:SER:385:CA:3404, H-A:GLU:543:OE1:4907, V-B:ALA:541:CB:9864, V-A:ILE:369:CG1:3235, V-A:HIS:456:CD2:4065, H-A:HIS:456:NE2:4067, H-B:HIS:456:NE2:9041, V-A:GLY:544:C:4910, H-A:TYR:484:OH:4345, H-A:ARG:545:NE:4922, V-A:LEU:373:CD1:3277, V-A:PRO:482:CB:4323, V-A:PRO:482:CG:4324, V-A:GLU:543:C:4900, V-B:HIS:456:CD2:9039, V-B:HIS:456:CG:9037, V-A:LYS:547:CE:4948, H-A:LYS:547:NZ:4949, V-B:LYS:547:CE:9922"]

$$$$
3ce_Grossjean_2025
     RDKit          3D

 27 29  0  0  0  0  0  0  0  0999 V2000
  128.2770  122.5510   58.1550 C   0  0  0  0  0  0  0  0  0  0  0  0
  127.7240  123.2570   59.3780 C   0  0  0  0  0  0  0  0  0  0  0  0
  126.3520  123.2970   59.6420 C   0  0  0  0  0  0  0  0  0  0  0  0
  125.9160  123.9550   60.7910 C   0  0  0  0  0  0  0  0  0  0  0  0
  126.8500  124.5540   61.6400 C   0  0  0  0  0  0  0  0  0  0  0  0
  128.2080  124.4860   61.3120 C   0  0  0  0  0  0  0  0  0  0  0  0
  129.1030  125.0880   62.2130 N   0  0  0  0  0  0  0  0  0  0  0  0
  130.2640  125.7220   61.9380 C   0  0  0  0  0  0  0  0  0  0  0  0
  130.7330  125.8820   60.8100 O   0  0  0  0  0  0  0  0  0  0  0  0
  131.0180  126.2760   63.1470 C   0  0  0  0  0  0  0  0  0  0  0  0
  132.3250  125.1450   63.7090 S   0  0  0  0  0  0  0  0  0  0  0  0
  132.5810  124.0000   62.3730 C   0  0  0  0  0  0  0  0  0  0  0  0
  133.2900  124.5120   61.3380 N   0  0  0  0  0  0  0  0  0  0  0  0
  133.5540  123.7140   60.2770 C   0  0  0  0  0  0  0  0  0  0  0  0
  134.3620  124.3450   59.1610 C   0  0  0  0  0  0  0  0  0  0  0  0
  133.1130  122.3950   60.2040 C   0  0  0  0  0  0  0  0  0  0  0  0
  132.3560  121.8560   61.2530 C   0  0  0  0  0  0  0  0  0  0  0  0
  131.8850  120.4450   61.1180 C   0  0  0  0  0  0  0  0  0  0  0  0
  130.5570  120.1160   61.4130 C   0  0  0  0  0  0  0  0  0  0  0  0
  130.1120  118.8020   61.2950 C   0  0  0  0  0  0  0  0  0  0  0  0
  130.9970  117.8080   60.8870 C   0  0  0  0  0  0  0  0  0  0  0  0
  132.3240  118.1170   60.5980 C   0  0  0  0  0  0  0  0  0  0  0  0
  132.7660  119.4320   60.7170 C   0  0  0  0  0  0  0  0  0  0  0  0
  132.0820  122.6760   62.3770 C   0  0  0  0  0  0  0  0  0  0  0  0
  131.3070  122.1630   63.5110 C   0  0  0  0  0  0  0  0  0  0  0  0
  130.6970  121.7560   64.4060 N   0  0  0  0  0  0  0  0  0  0  0  0
  128.6430  123.8350   60.1930 N   0  0  0  0  0  0  0  0  0  0  0  0
  1  2  1  0
  2  3  2  0
  3  4  1  0
  4  5  2  0
  5  6  1  0
  6  7  1  0
  7  8  1  0
  8  9  2  0
  8 10  1  0
 10 11  1  0
 11 12  1  0
 12 13  2  0
 13 14  1  0
 14 15  1  0
 14 16  2  0
 16 17  1  0
 17 18  1  0
 18 19  2  0
 19 20  1  0
 20 21  2  0
 21 22  1  0
 22 23  2  0
 17 24  2  0
 24 25  1  0
 25 26  3  0
  6 27  2  0
 27  2  1  0
 24 12  1  0
 23 18  1  0
M  END
>  <Binding energies>  (23) 
[-7.66]

>  <Ligand effiencies>  (23) 
[-0.2735714285714286]

>  <Interactions>  (23) 
["V-B:TYR:539:CE1:9847, V-B:TYR:539:C:9839, V-B:PRO:540:N:9856, V-A:ILE:369:CD1:3236, V-B:PRO:540:CA:9855, V-A:LEU:475:CD2:4256, V-B:TYR:539:CD1:9845, H-B:GLU:543:OE1:9881, V-A:ASP:366:CG:3210, V-A:ILE:369:CG2:3234, H-B:GLU:543:OE2:9882, V-B:GLU:543:CD:9880, H-A:ARG:545:NH2:4926, V-A:ASP:366:CA:3207, V-A:ASP:366:CB:3209, V-A:ILE:369:CB:3233, V-A:ARG:545:CZ:4924, V-A:SER:385:CA:3404, V-B:PRO:540:CB:9857, V-B:ALA:541:CB:9864, V-B:TYR:539:CG:9844, V-A:ASP:366:C:3205, H-A:TYR:484:OH:4345, V-A:SER:385:CB:3406, V-A:LEU:373:CD1:3277, V-A:PRO:482:CB:4323, V-A:PRO:482:CG:4324"]

$$$$
3cj_Grossjean_2025
     RDKit          3D

 25 27  0  0  0  0  0  0  0  0999 V2000
  134.5840  124.3410   59.2720 C   0  0  0  0  0  0  0  0  0  0  0  0
  133.7120  123.7490   60.3610 C   0  0  0  0  0  0  0  0  0  0  0  0
  133.1810  122.4660   60.2530 C   0  0  0  0  0  0  0  0  0  0  0  0
  132.3980  121.9500   61.2950 C   0  0  0  0  0  0  0  0  0  0  0  0
  131.9040  120.5480   61.1640 C   0  0  0  0  0  0  0  0  0  0  0  0
  130.5780  120.2290   61.4780 C   0  0  0  0  0  0  0  0  0  0  0  0
  130.1220  118.9180   61.3690 C   0  0  0  0  0  0  0  0  0  0  0  0
  130.9950  117.9180   60.9500 C   0  0  0  0  0  0  0  0  0  0  0  0
  132.3190  118.2180   60.6430 C   0  0  0  0  0  0  0  0  0  0  0  0
  132.7730  119.5300   60.7530 C   0  0  0  0  0  0  0  0  0  0  0  0
  132.1440  122.7740   62.4190 C   0  0  0  0  0  0  0  0  0  0  0  0
  131.3080  122.3020   63.5280 C   0  0  0  0  0  0  0  0  0  0  0  0
  130.6500  121.9280   64.4030 N   0  0  0  0  0  0  0  0  0  0  0  0
  132.7260  124.0610   62.4470 C   0  0  0  0  0  0  0  0  0  0  0  0
  132.5990  125.1440   63.8540 S   0  0  0  0  0  0  0  0  0  0  0  0
  130.8350  125.5900   63.9410 C   0  0  0  0  0  0  0  0  0  0  0  0
  130.1150  125.3320   62.6140 C   0  0  0  0  0  0  0  0  0  0  0  0
  130.2560  126.1260   61.6820 O   0  0  0  0  0  0  0  0  0  0  0  0
  129.3880  124.1950   62.5620 N   0  0  0  0  0  0  0  0  0  0  0  0
  128.7570  123.6670   61.4480 C   0  0  0  0  0  0  0  0  0  0  0  0
  127.4990  123.3010   61.3290 N   0  0  0  0  0  0  0  0  0  0  0  0
  127.2340  122.8690   60.1120 C   0  0  0  0  0  0  0  0  0  0  0  0
  128.2940  122.8780   59.2100 C   0  0  0  0  0  0  0  0  0  0  0  0
  129.7120  123.4860   60.0110 S   0  0  0  0  0  0  0  0  0  0  0  0
  133.5040  124.5350   61.4410 N   0  0  0  0  0  0  0  0  0  0  0  0
  1  2  1  0
  2  3  2  0
  3  4  1  0
  4  5  1  0
  5  6  2  0
  6  7  1  0
  7  8  2  0
  8  9  1  0
  9 10  2  0
  4 11  2  0
 11 12  1  0
 12 13  3  0
 11 14  1  0
 14 15  1  0
 15 16  1  0
 16 17  1  0
 17 18  2  0
 17 19  1  0
 19 20  1  0
 20 21  2  0
 21 22  1  0
 22 23  2  0
 23 24  1  0
 14 25  2  0
 25  2  1  0
 10  5  1  0
 24 20  1  0
M  END
>  <Binding energies>  (24) 
[-7.05]

>  <Ligand effiencies>  (24) 
[-0.27115384615384613]

>  <Interactions>  (24) 
["V-B:PRO:540:C:9853, V-B:TYR:539:CE1:9847, V-B:TYR:539:C:9839, V-B:PRO:540:N:9856, H-B:ALA:541:N:9863, V-A:ILE:369:CD1:3236, V-B:PRO:540:CA:9855, V-A:LEU:475:CD2:4256, V-B:TYR:539:CD1:9845, H-B:GLU:543:OE1:9881, V-A:ASP:366:CG:3210, V-A:ILE:369:CG2:3234, V-B:GLU:543:CD:9880, H-A:ARG:545:NH2:4926, V-A:ASP:366:CA:3207, V-A:ASP:366:CB:3209, V-A:ILE:369:CB:3233, V-A:SER:385:CA:3404, V-B:PRO:540:CB:9857, V-B:ALA:541:CB:9864, V-A:ILE:369:CG1:3235, V-A:ASP:366:C:3205, H-A:TYR:484:OH:4345, V-A:SER:385:CB:3406, V-A:LEU:373:CD1:3277, V-A:PRO:482:CB:4323, V-A:PRO:482:CG:4324"]

$$$$
4ba_Grossjean_2025
     RDKit          3D

 28 30  0  0  0  0  0  0  0  0999 V2000
  131.3980  126.5380   73.6590 C   0  0  0  0  0  0  0  0  0  0  0  0
  130.8950  127.2630   72.3970 C   0  0  0  0  0  0  0  0  0  0  0  0
  129.6780  126.6110   71.7090 C   0  0  0  0  0  0  0  0  0  0  0  0
  129.0750  125.6980   72.2790 O   0  0  0  0  0  0  0  0  0  0  0  0
  129.2780  127.1320   70.3600 C   0  0  0  0  0  0  0  0  0  0  0  0
  127.9480  127.0040   69.9400 C   0  0  0  0  0  0  0  0  0  0  0  0
  127.5490  127.4760   68.6930 C   0  0  0  0  0  0  0  0  0  0  0  0
  128.4690  128.0900   67.8420 C   0  0  0  0  0  0  0  0  0  0  0  0
  127.9610  128.5230   66.6020 N   0  0  0  0  0  0  0  0  0  0  0  0
  127.5490  129.7540   66.2100 C   0  0  0  0  0  0  0  0  0  0  0  0
  127.5160  130.7400   66.9480 O   0  0  0  0  0  0  0  0  0  0  0  0
  127.1030  129.8500   64.8180 C   0  0  0  0  0  0  0  0  0  0  0  0
  125.8410  130.9940   64.3690 S   0  0  0  0  0  0  0  0  0  0  0  0
  125.8840  130.4600   62.7050 C   0  0  0  0  0  0  0  0  0  0  0  0
  125.0840  130.9940   61.7840 N   0  0  0  0  0  0  0  0  0  0  0  0
  125.2080  130.4990   60.5310 C   0  0  0  0  0  0  0  0  0  0  0  0
  124.2800  131.1150   59.4990 C   0  0  0  0  0  0  0  0  0  0  0  0
  126.1080  129.4970   60.1800 C   0  0  0  0  0  0  0  0  0  0  0  0
  126.9550  128.9300   61.1460 C   0  0  0  0  0  0  0  0  0  0  0  0
  127.9300  127.8320   60.7120 C   0  0  0  0  0  0  0  0  0  0  0  0
  129.2050  128.1340   60.9680 F   0  0  0  0  0  0  0  0  0  0  0  0
  127.6520  126.6980   61.3570 F   0  0  0  0  0  0  0  0  0  0  0  0
  127.8240  127.6280   59.3990 F   0  0  0  0  0  0  0  0  0  0  0  0
  126.8440  129.4260   62.4800 C   0  0  0  0  0  0  0  0  0  0  0  0
  127.5190  129.0920   63.7110 C   0  0  0  0  0  0  0  0  0  0  0  0
  128.4840  128.1200   63.7850 N   0  0  0  0  0  0  0  0  0  0  0  0
  129.8050  128.2170   68.2520 C   0  0  0  0  0  0  0  0  0  0  0  0
  130.2020  127.7430   69.5000 C   0  0  0  0  0  0  0  0  0  0  0  0
  1  2  1  0
  2  3  1  0
  3  4  2  0
  3  5  1  0
  5  6  2  0
  6  7  1  0
  7  8  2  0
  8  9  1  0
  9 10  1  0
 10 11  2  0
 10 12  1  0
 12 13  1  0
 13 14  1  0
 14 15  2  0
 15 16  1  0
 16 17  1  0
 16 18  2  0
 18 19  1  0
 19 20  1  0
 20 21  1  0
 20 22  1  0
 20 23  1  0
 19 24  2  0
 24 25  1  0
 25 26  1  0
  8 27  1  0
 27 28  2  0
 28  5  1  0
 25 12  2  0
 24 14  1  0
M  END
>  <Binding energies>  (25) 
[-6.41]

>  <Ligand effiencies>  (25) 
[-0.2067741935483871]

>  <Interactions>  (25) 
["V-A:TYR:539:CZ:4875, V-B:ILE:369:CG2:8208, V-A:TYR:539:CE1:4873, V-B:ASP:366:CG:8184, V-A:GLU:543:CG:4905, H-B:GLU:543:OE1:9881, V-B:HIS:456:CE1:9040, H-B:GLU:543:OE2:9882, V-B:GLU:543:CD:9880, V-B:GLU:543:CG:9879, V-A:HIS:456:CE1:4066, H-A:GLU:543:OE2:4908, V-A:GLU:543:CD:4906, V-A:GLU:543:CB:4904, V-B:GLU:543:C:9874, V-B:GLY:544:C:9884, H-A:GLU:543:OE1:4907, V-A:HIS:456:CD2:4065, H-A:HIS:456:NE2:4067, H-B:HIS:456:NE2:9041, V-A:GLY:544:C:4910, H-B:TYR:484:OH:9319, V-A:GLY:544:CA:4912, V-A:GLU:543:C:4900, V-A:LYS:547:CE:4948, V-A:HIS:456:CG:4063"]

$$$$
4bb_Grossjean_2025
     RDKit          3D

 27 29  0  0  0  0  0  0  0  0999 V2000
  128.7920  125.8590   72.4590 C   0  0  0  0  0  0  0  0  0  0  0  0
  129.8090  126.6250   71.6100 C   0  0  0  0  0  0  0  0  0  0  0  0
  130.9380  126.8000   72.0730 O   0  0  0  0  0  0  0  0  0  0  0  0
  129.3750  127.1320   70.2670 C   0  0  0  0  0  0  0  0  0  0  0  0
  128.0350  127.0020   69.8840 C   0  0  0  0  0  0  0  0  0  0  0  0
  127.6060  127.4630   68.6420 C   0  0  0  0  0  0  0  0  0  0  0  0
  128.5060  128.0700   67.7640 C   0  0  0  0  0  0  0  0  0  0  0  0
  127.9670  128.4970   66.5340 N   0  0  0  0  0  0  0  0  0  0  0  0
  127.5230  129.7200   66.1560 C   0  0  0  0  0  0  0  0  0  0  0  0
  127.4980  130.7050   66.8930 O   0  0  0  0  0  0  0  0  0  0  0  0
  127.0280  129.8060   64.7790 C   0  0  0  0  0  0  0  0  0  0  0  0
  125.7310  130.9270   64.3720 S   0  0  0  0  0  0  0  0  0  0  0  0
  125.7330  130.3970   62.7060 C   0  0  0  0  0  0  0  0  0  0  0  0
  124.9000  130.9210   61.8080 N   0  0  0  0  0  0  0  0  0  0  0  0
  124.9950  130.4300   60.5510 C   0  0  0  0  0  0  0  0  0  0  0  0
  124.0380  131.0420   59.5440 C   0  0  0  0  0  0  0  0  0  0  0  0
  125.8930  129.4350   60.1740 C   0  0  0  0  0  0  0  0  0  0  0  0
  126.7730  128.8790   61.1150 C   0  0  0  0  0  0  0  0  0  0  0  0
  127.7440  127.7870   60.6530 C   0  0  0  0  0  0  0  0  0  0  0  0
  127.5760  126.6310   61.3000 F   0  0  0  0  0  0  0  0  0  0  0  0
  127.5670  127.5470   59.3540 F   0  0  0  0  0  0  0  0  0  0  0  0
  129.0000  128.1820   60.8610 F   0  0  0  0  0  0  0  0  0  0  0  0
  126.6990  129.3750   62.4520 C   0  0  0  0  0  0  0  0  0  0  0  0
  127.4210  129.0560   63.6580 C   0  0  0  0  0  0  0  0  0  0  0  0
  128.4090  128.1060   63.7000 N   0  0  0  0  0  0  0  0  0  0  0  0
  129.8530  128.1970   68.1390 C   0  0  0  0  0  0  0  0  0  0  0  0
  130.2790  127.7330   69.3800 C   0  0  0  0  0  0  0  0  0  0  0  0
  1  2  1  0
  2  3  2  0
  2  4  1  0
  4  5  2  0
  5  6  1  0
  6  7  2  0
  7  8  1  0
  8  9  1  0
  9 10  2  0
  9 11  1  0
 11 12  1  0
 12 13  1  0
 13 14  2  0
 14 15  1  0
 15 16  1  0
 15 17  2  0
 17 18  1  0
 18 19  1  0
 19 20  1  0
 19 21  1  0
 19 22  1  0
 18 23  2  0
 23 24  1  0
 24 25  1  0
  7 26  1  0
 26 27  2  0
 27  4  1  0
 24 11  2  0
 23 13  1  0
M  END
>  <Binding energies>  (26) 
[-6.24]

>  <Ligand effiencies>  (26) 
[-0.20800000000000002]

>  <Interactions>  (26) 
["V-B:ASP:366:CB:8183, V-B:ILE:369:CG2:8208, V-A:TYR:539:CE1:4873, V-B:ASP:366:CG:8184, V-A:GLU:543:CG:4905, H-B:GLU:543:OE1:9881, V-B:HIS:456:CE1:9040, H-B:GLU:543:OE2:9882, V-B:GLU:543:CD:9880, V-B:GLU:543:CG:9879, V-A:HIS:456:CE1:4066, H-A:GLU:543:OE2:4908, V-A:GLU:543:CD:4906, V-B:ILE:369:CB:8207, V-A:GLU:543:CB:4904, V-B:GLU:543:C:9874, V-B:ASP:366:CA:8181, V-B:GLY:544:C:9884, H-A:GLU:543:OE1:4907, V-A:HIS:456:CD2:4065, H-A:HIS:456:NE2:4067, H-B:HIS:456:NE2:9041, H-B:TYR:484:OH:9319, V-A:GLU:543:C:4900, V-B:GLY:544:CA:9886, V-B:LYS:547:CE:9922"]

$$$$
4bd_Grossjean_2025
     RDKit          3D

 24 26  0  0  0  0  0  0  0  0999 V2000
  130.4640  120.6380   61.4030 C   0  0  0  0  0  0  0  0  0  0  0  0
  130.3030  122.0870   61.8260 C   0  0  0  0  0  0  0  0  0  0  0  0
  131.2050  122.6840   62.7030 C   0  0  0  0  0  0  0  0  0  0  0  0
  131.0420  124.0240   63.0870 C   0  0  0  0  0  0  0  0  0  0  0  0
  132.0580  124.6370   64.0570 C   0  0  0  0  0  0  0  0  0  0  0  0
  132.6380  125.7400   63.5770 F   0  0  0  0  0  0  0  0  0  0  0  0
  131.4530  124.9690   65.1960 F   0  0  0  0  0  0  0  0  0  0  0  0
  133.0260  123.7570   64.3110 F   0  0  0  0  0  0  0  0  0  0  0  0
  129.9280  124.7290   62.5420 C   0  0  0  0  0  0  0  0  0  0  0  0
  129.4480  126.0800   62.6990 C   0  0  0  0  0  0  0  0  0  0  0  0
  130.0810  127.0010   63.4940 N   0  0  0  0  0  0  0  0  0  0  0  0
  128.2810  126.3640   61.9700 C   0  0  0  0  0  0  0  0  0  0  0  0
  127.5230  127.6170   61.9130 C   0  0  0  0  0  0  0  0  0  0  0  0
  127.2500  128.1380   60.8300 O   0  0  0  0  0  0  0  0  0  0  0  0
  127.1490  128.1260   63.1130 N   0  0  0  0  0  0  0  0  0  0  0  0
  126.4580  129.3170   63.4040 C   0  0  0  0  0  0  0  0  0  0  0  0
  127.1290  130.2290   64.2250 C   0  0  0  0  0  0  0  0  0  0  0  0
  126.5320  131.4410   64.5620 C   0  0  0  0  0  0  0  0  0  0  0  0
  125.2660  131.7470   64.0710 C   0  0  0  0  0  0  0  0  0  0  0  0
  124.5940  130.8540   63.2410 C   0  0  0  0  0  0  0  0  0  0  0  0
  125.1870  129.6400   62.9020 C   0  0  0  0  0  0  0  0  0  0  0  0
  127.7440  124.9580   61.0550 S   0  0  0  0  0  0  0  0  0  0  0  0
  129.0770  124.0000   61.6550 C   0  0  0  0  0  0  0  0  0  0  0  0
  129.2370  122.7280   61.2930 N   0  0  0  0  0  0  0  0  0  0  0  0
  1  2  1  0
  2  3  2  0
  3  4  1  0
  4  5  1  0
  5  6  1  0
  5  7  1  0
  5  8  1  0
  4  9  2  0
  9 10  1  0
 10 11  1  0
 10 12  2  0
 12 13  1  0
 13 14  2  0
 13 15  1  0
 15 16  1  0
 16 17  2  0
 17 18  1  0
 18 19  2  0
 19 20  1  0
 20 21  2  0
 12 22  1  0
 22 23  1  0
 23 24  2  0
 24  2  1  0
 23  9  1  0
 21 16  1  0
M  END
>  <Binding energies>  (27) 
[-5.58]

>  <Ligand effiencies>  (27) 
[-0.20666666666666667]

>  <Interactions>  (27) 
["V-B:GLY:454:CA:9020, V-B:TYR:539:CE1:9847, V-A:LEU:475:CD2:4256, V-B:TYR:539:CD1:9845, V-A:GLY:454:CA:4046, H-B:GLU:543:OE1:9881, H-B:GLU:543:OE2:9882, V-B:GLU:543:CD:9880, H-A:GLU:543:OE2:4908, V-A:TYR:484:CZ:4344, V-A:GLU:543:CD:4906, V-B:ARG:545:CZ:9898, V-A:ARG:545:CZ:4924, H-A:GLU:543:OE1:4907, V-B:ALA:541:CB:9864"]

$$$$
4be_Grossjean_2025
     RDKit          3D

 25 27  0  0  0  0  0  0  0  0999 V2000
  123.3990  130.8560   62.5040 C   0  0  0  0  0  0  0  0  0  0  0  0
  124.7280  130.6280   63.1990 C   0  0  0  0  0  0  0  0  0  0  0  0
  125.2440  131.5520   64.1100 C   0  0  0  0  0  0  0  0  0  0  0  0
  126.4740  131.2780   64.7100 C   0  0  0  0  0  0  0  0  0  0  0  0
  127.1510  130.1000   64.3860 C   0  0  0  0  0  0  0  0  0  0  0  0
  126.5740  129.2140   63.4690 C   0  0  0  0  0  0  0  0  0  0  0  0
  127.3100  128.0500   63.1820 N   0  0  0  0  0  0  0  0  0  0  0  0
  127.6720  127.5470   61.9750 C   0  0  0  0  0  0  0  0  0  0  0  0
  127.3940  128.0800   60.8990 O   0  0  0  0  0  0  0  0  0  0  0  0
  128.4170  126.2860   62.0170 C   0  0  0  0  0  0  0  0  0  0  0  0
  127.8300  124.8810   61.1290 S   0  0  0  0  0  0  0  0  0  0  0  0
  129.1620  123.9050   61.7020 C   0  0  0  0  0  0  0  0  0  0  0  0
  129.2920  122.6290   61.3450 N   0  0  0  0  0  0  0  0  0  0  0  0
  130.3640  121.9770   61.8510 C   0  0  0  0  0  0  0  0  0  0  0  0
  130.4930  120.5230   61.4350 C   0  0  0  0  0  0  0  0  0  0  0  0
  131.3010  122.5670   62.6950 C   0  0  0  0  0  0  0  0  0  0  0  0
  131.1700  123.9120   63.0740 C   0  0  0  0  0  0  0  0  0  0  0  0
  132.2290  124.5180   64.0020 C   0  0  0  0  0  0  0  0  0  0  0  0
  131.7130  125.0040   65.1340 F   0  0  0  0  0  0  0  0  0  0  0  0
  133.1210  123.5870   64.3380 F   0  0  0  0  0  0  0  0  0  0  0  0
  132.8510  125.5210   63.3830 F   0  0  0  0  0  0  0  0  0  0  0  0
  130.0470  124.6270   62.5610 C   0  0  0  0  0  0  0  0  0  0  0  0
  129.5880  125.9840   62.7300 C   0  0  0  0  0  0  0  0  0  0  0  0
  130.2450  126.8970   63.5150 N   0  0  0  0  0  0  0  0  0  0  0  0
  125.3740  129.4780   62.8750 N   0  0  0  0  0  0  0  0  0  0  0  0
  1  2  1  0
  2  3  2  0
  3  4  1  0
  4  5  2  0
  5  6  1  0
  6  7  1  0
  7  8  1  0
  8  9  2  0
  8 10  1  0
 10 11  1  0
 11 12  1  0
 12 13  2  0
 13 14  1  0
 14 15  1  0
 14 16  2  0
 16 17  1  0
 17 18  1  0
 18 19  1  0
 18 20  1  0
 18 21  1  0
 17 22  2  0
 22 23  1  0
 23 24  1  0
  6 25  2  0
 25  2  1  0
 23 10  2  0
 22 12  1  0
M  END
>  <Binding energies>  (28) 
[-5.81]

>  <Ligand effiencies>  (28) 
[-0.2075]

>  <Interactions>  (28) 
["V-B:GLY:454:CA:9020, V-B:GLY:453:C:9013, V-B:ILE:369:CD1:8210, V-A:LEU:475:CD2:4256, V-B:TYR:539:CD1:9845, V-A:GLY:454:CA:4046, H-B:GLU:543:OE1:9881, H-B:ARG:545:NH2:9900, V-B:GLY:453:CA:9015, H-B:GLU:543:OE2:9882, V-B:GLU:543:CD:9880, H-A:GLU:543:OE2:4908, V-A:TYR:484:CZ:4344, V-A:GLU:543:CD:4906, V-B:ARG:545:CZ:9898, V-A:ARG:545:CZ:4924, H-A:GLU:543:OE1:4907, V-B:ALA:541:CB:9864, V-B:TYR:484:CZ:9318"]

$$$$
4bg_Grossjean_2025
     RDKit          3D

 25 27  0  0  0  0  0  0  0  0999 V2000
  133.8970  124.0460   59.0280 C   0  0  0  0  0  0  0  0  0  0  0  0
  132.9470  124.6530   60.0440 C   0  0  0  0  0  0  0  0  0  0  0  0
  133.0350  124.3250   61.3940 C   0  0  0  0  0  0  0  0  0  0  0  0
  132.1450  124.8890   62.3230 C   0  0  0  0  0  0  0  0  0  0  0  0
  132.2800  124.4970   63.7970 C   0  0  0  0  0  0  0  0  0  0  0  0
  131.1220  124.1220   64.3460 F   0  0  0  0  0  0  0  0  0  0  0  0
  133.1280  123.4750   63.9160 F   0  0  0  0  0  0  0  0  0  0  0  0
  132.7370  125.5330   64.5010 F   0  0  0  0  0  0  0  0  0  0  0  0
  131.1690  125.8000   61.8190 C   0  0  0  0  0  0  0  0  0  0  0  0
  130.1120  126.5530   62.4500 C   0  0  0  0  0  0  0  0  0  0  0  0
  129.8520  126.4850   63.7950 N   0  0  0  0  0  0  0  0  0  0  0  0
  129.3830  127.3630   61.5670 C   0  0  0  0  0  0  0  0  0  0  0  0
  128.2370  128.2260   61.8560 C   0  0  0  0  0  0  0  0  0  0  0  0
  127.1180  127.9810   61.4040 O   0  0  0  0  0  0  0  0  0  0  0  0
  128.4780  129.2730   62.6730 N   0  0  0  0  0  0  0  0  0  0  0  0
  127.4920  130.2710   63.0850 C   0  0  0  0  0  0  0  0  0  0  0  0
  126.7050  129.8750   64.3270 C   0  0  0  0  0  0  0  0  0  0  0  0
  127.3770  129.4700   65.4840 C   0  0  0  0  0  0  0  0  0  0  0  0
  126.6560  129.1450   66.6290 C   0  0  0  0  0  0  0  0  0  0  0  0
  125.2660  129.2400   66.6210 C   0  0  0  0  0  0  0  0  0  0  0  0
  124.5900  129.6590   65.4780 C   0  0  0  0  0  0  0  0  0  0  0  0
  125.3110  129.9830   64.3300 C   0  0  0  0  0  0  0  0  0  0  0  0
  129.9600  127.1900   59.9120 S   0  0  0  0  0  0  0  0  0  0  0  0
  131.1920  126.0570   60.4140 C   0  0  0  0  0  0  0  0  0  0  0  0
  132.0370  125.5160   59.5370 N   0  0  0  0  0  0  0  0  0  0  0  0
  1  2  1  0
  2  3  2  0
  3  4  1  0
  4  5  1  0
  5  6  1  0
  5  7  1  0
  5  8  1  0
  4  9  2  0
  9 10  1  0
 10 11  1  0
 10 12  2  0
 12 13  1  0
 13 14  2  0
 13 15  1  0
 15 16  1  0
 16 17  1  0
 17 18  2  0
 18 19  1  0
 19 20  2  0
 20 21  1  0
 21 22  2  0
 12 23  1  0
 23 24  1  0
 24 25  2  0
 25  2  1  0
 24  9  1  0
 22 17  1  0
M  END
>  <Binding energies>  (29) 
[-5.64]

>  <Ligand effiencies>  (29) 
[-0.20142857142857143]

>  <Interactions>  (29) 
["V-B:GLY:454:CA:9020, V-B:TYR:539:CE1:9847, V-A:ILE:369:CD1:3236, V-A:GLY:454:CA:4046, H-B:GLU:543:OE1:9881, V-A:ASP:366:CG:3210, H-B:ARG:545:NH2:9900, V-A:ILE:369:CG2:3234, V-B:HIS:456:CE1:9040, H-B:GLU:543:OE2:9882, V-B:GLU:543:CD:9880, H-A:GLU:543:OE2:4908, V-A:ASP:366:CA:3207, V-A:ASP:366:CB:3209, V-A:GLU:543:CD:4906, V-A:ILE:369:CB:3233, V-B:ARG:545:CZ:9898, V-B:ARG:545:CG:9894, V-A:ARG:545:CZ:4924, H-A:GLU:543:OE1:4907, V-B:ARG:545:CD:9895"]

$$$$
4ca_Grossjean_2025
     RDKit          3D

 34 37  0  0  0  0  0  0  0  0999 V2000
  124.5760  136.0880   61.3930 C   0  0  0  0  0  0  0  0  0  0  0  0
  124.5650  134.5690   61.2000 C   0  0  0  0  0  0  0  0  0  0  0  0
  124.8790  133.9330   62.4330 O   0  0  0  0  0  0  0  0  0  0  0  0
  124.1920  132.8400   62.8540 C   0  0  0  0  0  0  0  0  0  0  0  0
  123.0110  132.8760   63.2120 O   0  0  0  0  0  0  0  0  0  0  0  0
  125.0110  131.5820   62.8370 C   0  0  0  0  0  0  0  0  0  0  0  0
  125.5430  131.1280   61.6230 C   0  0  0  0  0  0  0  0  0  0  0  0
  126.3100  129.9680   61.5760 C   0  0  0  0  0  0  0  0  0  0  0  0
  126.5560  129.2350   62.7370 C   0  0  0  0  0  0  0  0  0  0  0  0
  127.3520  128.0830   62.5760 N   0  0  0  0  0  0  0  0  0  0  0  0
  127.6580  127.3830   61.4560 C   0  0  0  0  0  0  0  0  0  0  0  0
  127.2970  127.7010   60.3220 O   0  0  0  0  0  0  0  0  0  0  0  0
  128.4870  126.1950   61.6690 C   0  0  0  0  0  0  0  0  0  0  0  0
  128.3100  124.7910   60.6190 S   0  0  0  0  0  0  0  0  0  0  0  0
  129.5840  123.9430   61.4620 C   0  0  0  0  0  0  0  0  0  0  0  0
  129.9570  122.7170   61.1030 N   0  0  0  0  0  0  0  0  0  0  0  0
  130.9660  122.1430   61.8080 C   0  0  0  0  0  0  0  0  0  0  0  0
  131.3700  120.7640   61.3730 C   0  0  0  0  0  0  0  0  0  0  0  0
  130.4500  119.7040   61.3980 C   0  0  0  0  0  0  0  0  0  0  0  0
  130.8200  118.4210   61.0010 C   0  0  0  0  0  0  0  0  0  0  0  0
  132.1210  118.1800   60.5730 C   0  0  0  0  0  0  0  0  0  0  0  0
  133.0540  119.2110   60.5410 C   0  0  0  0  0  0  0  0  0  0  0  0
  132.6800  120.4920   60.9390 C   0  0  0  0  0  0  0  0  0  0  0  0
  131.5790  122.7940   62.8840 C   0  0  0  0  0  0  0  0  0  0  0  0
  131.1910  124.0850   63.2730 C   0  0  0  0  0  0  0  0  0  0  0  0
  131.9080  124.7410   64.4580 C   0  0  0  0  0  0  0  0  0  0  0  0
  131.1810  124.7390   65.5770 F   0  0  0  0  0  0  0  0  0  0  0  0
  133.0410  124.0890   64.7180 F   0  0  0  0  0  0  0  0  0  0  0  0
  132.1880  126.0120   64.1690 F   0  0  0  0  0  0  0  0  0  0  0  0
  130.1450  124.7030   62.5290 C   0  0  0  0  0  0  0  0  0  0  0  0
  129.4990  125.9900   62.6220 C   0  0  0  0  0  0  0  0  0  0  0  0
  129.8450  126.9260   63.5630 N   0  0  0  0  0  0  0  0  0  0  0  0
  126.0330  129.6840   63.9580 C   0  0  0  0  0  0  0  0  0  0  0  0
  125.2680  130.8460   64.0040 C   0  0  0  0  0  0  0  0  0  0  0  0
  1  2  1  0
  2  3  1  0
  3  4  1  0
  4  5  2  0
  4  6  1  0
  6  7  2  0
  7  8  1  0
  8  9  2  0
  9 10  1  0
 10 11  1  0
 11 12  2  0
 11 13  1  0
 13 14  1  0
 14 15  1  0
 15 16  2  0
 16 17  1  0
 17 18  1  0
 18 19  2  0
 19 20  1  0
 20 21  2  0
 21 22  1  0
 22 23  2  0
 17 24  2  0
 24 25  1  0
 25 26  1  0
 26 27  1  0
 26 28  1  0
 26 29  1  0
 25 30  2  0
 30 31  1  0
 31 32  1  0
  9 33  1  0
 33 34  2  0
 34  6  1  0
 31 13  2  0
 30 15  1  0
 23 18  1  0
M  END
>  <Binding energies>  (30) 
[-7.4]

>  <Ligand effiencies>  (30) 
[-0.2]

>  <Interactions>  (30) 
["V-B:LEU:475:CD2:9230, V-B:GLY:454:CA:9020, V-B:ILE:369:CG2:8208, V-A:TYR:539:CE1:4873, V-B:ILE:369:CD1:8210, V-A:TYR:539:CD1:4871, V-B:TYR:539:CE1:9847, V-A:LEU:475:CD2:4256, V-B:TYR:539:CD1:9845, V-A:GLY:454:CA:4046, H-B:GLU:543:OE1:9881, V-A:ILE:369:CG2:3234, H-B:GLU:543:OE2:9882, V-B:GLU:543:CD:9880, V-B:GLU:543:CB:9878, H-A:GLU:543:OE2:4908, V-A:TYR:484:CE2:4343, H-B:GLY:454:N:9021, V-A:TYR:484:CZ:4344, V-A:GLU:543:CD:4906, V-B:ARG:545:CZ:9898, V-A:ARG:545:CZ:4924, V-A:SER:385:CA:3404, H-A:GLU:543:OE1:4907, V-B:ALA:541:CB:9864, V-A:SER:385:CB:3406, V-A:LEU:373:CD1:3277, V-B:SER:385:CA:8378, V-B:SER:385:CB:8380, V-B:LEU:373:CD1:8251, V-A:PRO:482:CB:4323, V-A:PRO:482:CG:4324"]

$$$$
4cb_Grossjean_2025
     RDKit          3D

 33 36  0  0  0  0  0  0  0  0999 V2000
  124.2040  135.0340   61.4630 C   0  0  0  0  0  0  0  0  0  0  0  0
  124.8600  134.0090   62.1970 O   0  0  0  0  0  0  0  0  0  0  0  0
  124.1850  132.9080   62.6160 C   0  0  0  0  0  0  0  0  0  0  0  0
  122.9970  132.9240   62.9520 O   0  0  0  0  0  0  0  0  0  0  0  0
  125.0280  131.6650   62.6300 C   0  0  0  0  0  0  0  0  0  0  0  0
  125.1520  130.9090   61.4570 C   0  0  0  0  0  0  0  0  0  0  0  0
  125.9320  129.7560   61.4370 C   0  0  0  0  0  0  0  0  0  0  0  0
  126.5990  129.3330   62.5870 C   0  0  0  0  0  0  0  0  0  0  0  0
  127.3710  128.1630   62.4490 N   0  0  0  0  0  0  0  0  0  0  0  0
  127.5800  127.3780   61.3640 C   0  0  0  0  0  0  0  0  0  0  0  0
  127.1280  127.6130   60.2420 O   0  0  0  0  0  0  0  0  0  0  0  0
  128.4180  126.1990   61.5970 C   0  0  0  0  0  0  0  0  0  0  0  0
  128.3020  124.8030   60.5280 S   0  0  0  0  0  0  0  0  0  0  0  0
  129.5550  123.9640   61.4120 C   0  0  0  0  0  0  0  0  0  0  0  0
  129.9590  122.7460   61.0590 N   0  0  0  0  0  0  0  0  0  0  0  0
  130.9460  122.1790   61.8000 C   0  0  0  0  0  0  0  0  0  0  0  0
  131.3840  120.8080   61.3740 C   0  0  0  0  0  0  0  0  0  0  0  0
  130.4840  119.7300   61.3860 C   0  0  0  0  0  0  0  0  0  0  0  0
  130.8850  118.4550   60.9950 C   0  0  0  0  0  0  0  0  0  0  0  0
  132.1960  118.2390   60.5850 C   0  0  0  0  0  0  0  0  0  0  0  0
  133.1090  119.2890   60.5660 C   0  0  0  0  0  0  0  0  0  0  0  0
  132.7040  120.5610   60.9590 C   0  0  0  0  0  0  0  0  0  0  0  0
  131.5060  122.8290   62.9060 C   0  0  0  0  0  0  0  0  0  0  0  0
  131.0840  124.1110   63.2890 C   0  0  0  0  0  0  0  0  0  0  0  0
  131.7420  124.7660   64.5100 C   0  0  0  0  0  0  0  0  0  0  0  0
  131.9900  126.0660   64.3350 F   0  0  0  0  0  0  0  0  0  0  0  0
  130.9400  124.6520   65.5680 F   0  0  0  0  0  0  0  0  0  0  0  0
  132.9040  124.1690   64.7720 F   0  0  0  0  0  0  0  0  0  0  0  0
  130.0610  124.7220   62.5080 C   0  0  0  0  0  0  0  0  0  0  0  0
  129.3950  126.0000   62.5870 C   0  0  0  0  0  0  0  0  0  0  0  0
  129.6940  126.9330   63.5460 N   0  0  0  0  0  0  0  0  0  0  0  0
  126.4830  130.0860   63.7650 C   0  0  0  0  0  0  0  0  0  0  0  0
  125.7040  131.2380   63.7830 C   0  0  0  0  0  0  0  0  0  0  0  0
  1  2  1  0
  2  3  1  0
  3  4  2  0
  3  5  1  0
  5  6  2  0
  6  7  1  0
  7  8  2  0
  8  9  1  0
  9 10  1  0
 10 11  2  0
 10 12  1  0
 12 13  1  0
 13 14  1  0
 14 15  2  0
 15 16  1  0
 16 17  1  0
 17 18  2  0
 18 19  1  0
 19 20  2  0
 20 21  1  0
 21 22  2  0
 16 23  2  0
 23 24  1  0
 24 25  1  0
 25 26  1  0
 25 27  1  0
 25 28  1  0
 24 29  2  0
 29 30  1  0
 30 31  1  0
  8 32  1  0
 32 33  2  0
 33  5  1  0
 30 12  2  0
 29 14  1  0
 22 17  1  0
M  END
>  <Binding energies>  (31) 
[-7.08]

>  <Ligand effiencies>  (31) 
[-0.19666666666666666]

>  <Interactions>  (31) 
["V-B:LEU:475:CD2:9230, V-B:GLY:454:CA:9020, V-B:ILE:369:CG2:8208, V-A:TYR:539:CE1:4873, V-B:ILE:369:CD1:8210, V-B:ASP:366:CG:8184, V-B:TYR:539:CE1:9847, V-A:LEU:475:CD2:4256, V-B:TYR:539:CD1:9845, V-A:GLY:454:CA:4046, H-B:GLU:543:OE1:9881, V-A:ILE:369:CG2:3234, H-B:GLU:543:OE2:9882, V-B:GLU:543:CD:9880, V-B:GLU:543:CB:9878, H-A:GLU:543:OE2:4908, V-A:TYR:484:CE2:4343, H-B:GLY:454:N:9021, V-A:TYR:484:CZ:4344, V-A:GLU:543:CD:4906, V-A:ARG:545:CZ:4924, V-A:SER:385:CA:3404, H-A:GLU:543:OE1:4907, V-B:ALA:541:CB:9864, V-A:SER:385:CB:3406, V-A:LEU:373:CD1:3277, V-B:SER:385:CA:8378, V-B:SER:385:C:8376, V-A:PRO:482:CB:4323, V-A:PRO:482:CG:4324"]

$$$$
4cc_Grossjean_2025
     RDKit          3D

 31 34  0  0  0  0  0  0  0  0999 V2000
  124.0540  133.3290   62.3550 C   0  0  0  0  0  0  0  0  0  0  0  0
  123.8300  132.2270   63.2280 O   0  0  0  0  0  0  0  0  0  0  0  0
  124.7190  131.1700   63.2220 C   0  0  0  0  0  0  0  0  0  0  0  0
  124.8070  130.4370   62.0390 C   0  0  0  0  0  0  0  0  0  0  0  0
  125.6770  129.3550   61.9370 C   0  0  0  0  0  0  0  0  0  0  0  0
  126.4670  128.9840   63.0270 C   0  0  0  0  0  0  0  0  0  0  0  0
  127.3270  127.8880   62.8250 N   0  0  0  0  0  0  0  0  0  0  0  0
  127.7500  127.3330   61.6640 C   0  0  0  0  0  0  0  0  0  0  0  0
  127.4530  127.7610   60.5480 O   0  0  0  0  0  0  0  0  0  0  0  0
  128.6130  126.1560   61.8070 C   0  0  0  0  0  0  0  0  0  0  0  0
  128.3530  124.7370   60.7950 S   0  0  0  0  0  0  0  0  0  0  0  0
  129.6920  123.9010   61.5450 C   0  0  0  0  0  0  0  0  0  0  0  0
  130.0360  122.6690   61.1770 N   0  0  0  0  0  0  0  0  0  0  0  0
  131.0970  122.1050   61.8100 C   0  0  0  0  0  0  0  0  0  0  0  0
  131.4590  120.7140   61.3770 C   0  0  0  0  0  0  0  0  0  0  0  0
  130.5040  119.6840   61.3960 C   0  0  0  0  0  0  0  0  0  0  0  0
  130.8330  118.3910   60.9980 C   0  0  0  0  0  0  0  0  0  0  0  0
  132.1260  118.1080   60.5740 C   0  0  0  0  0  0  0  0  0  0  0  0
  133.0930  119.1080   60.5490 C   0  0  0  0  0  0  0  0  0  0  0  0
  132.7600  120.4000   60.9490 C   0  0  0  0  0  0  0  0  0  0  0  0
  131.7970  122.7740   62.8190 C   0  0  0  0  0  0  0  0  0  0  0  0
  131.4420  124.0730   63.2160 C   0  0  0  0  0  0  0  0  0  0  0  0
  132.2560  124.7500   64.3240 C   0  0  0  0  0  0  0  0  0  0  0  0
  131.5290  125.0390   65.4070 F   0  0  0  0  0  0  0  0  0  0  0  0
  133.2450  123.9450   64.7120 F   0  0  0  0  0  0  0  0  0  0  0  0
  132.7710  125.8930   63.8720 F   0  0  0  0  0  0  0  0  0  0  0  0
  130.3360  124.6780   62.5530 C   0  0  0  0  0  0  0  0  0  0  0  0
  129.6930  125.9630   62.6830 C   0  0  0  0  0  0  0  0  0  0  0  0
  130.1080  126.9110   63.5850 N   0  0  0  0  0  0  0  0  0  0  0  0
  126.3940  129.7230   64.2170 C   0  0  0  0  0  0  0  0  0  0  0  0
  125.5230  130.8050   64.3130 C   0  0  0  0  0  0  0  0  0  0  0  0
  1  2  1  0
  2  3  1  0
  3  4  2  0
  4  5  1  0
  5  6  2  0
  6  7  1  0
  7  8  1  0
  8  9  2  0
  8 10  1  0
 10 11  1  0
 11 12  1  0
 12 13  2  0
 13 14  1  0
 14 15  1  0
 15 16  2  0
 16 17  1  0
 17 18  2  0
 18 19  1  0
 19 20  2  0
 14 21  2  0
 21 22  1  0
 22 23  1  0
 23 24  1  0
 23 25  1  0
 23 26  1  0
 22 27  2  0
 27 28  1  0
 28 29  1  0
  6 30  1  0
 30 31  2  0
 31  3  1  0
 28 10  2  0
 27 12  1  0
 20 15  1  0
M  END
>  <Binding energies>  (32) 
[-7.44]

>  <Ligand effiencies>  (32) 
[-0.21882352941176472]

>  <Interactions>  (32) 
["V-B:LEU:475:CD2:9230, V-B:GLY:454:CA:9020, V-B:ILE:369:CG2:8208, V-B:ILE:369:CD1:8210, V-B:ASP:366:CG:8184, V-B:TYR:539:CE1:9847, V-A:GLY:453:C:4039, V-A:LEU:475:CD2:4256, V-B:TYR:539:CD1:9845, V-A:GLY:454:CA:4046, H-B:GLU:543:OE1:9881, V-A:ILE:369:CG2:3234, H-B:GLU:543:OE2:9882, V-B:GLU:543:CD:9880, H-A:GLU:543:OE2:4908, H-B:GLY:454:N:9021, V-A:TYR:484:CZ:4344, V-A:GLU:543:CD:4906, V-B:ARG:545:CZ:9898, V-A:ARG:545:CZ:4924, V-A:SER:385:CA:3404, H-A:GLU:543:OE1:4907, V-B:ALA:541:CB:9864, V-A:SER:385:CB:3406, V-A:LEU:373:CD1:3277, V-A:PRO:482:CB:4323, V-A:PRO:482:CG:4324"]

$$$$
4ce_Grossjean_2025
     RDKit          3D

 30 33  0  0  0  0  0  0  0  0999 V2000
  124.1270  131.0900   61.2110 C   0  0  0  0  0  0  0  0  0  0  0  0
  124.9420  130.5630   62.3770 C   0  0  0  0  0  0  0  0  0  0  0  0
  124.8610  131.1430   63.6460 C   0  0  0  0  0  0  0  0  0  0  0  0
  125.6340  130.6010   64.6740 C   0  0  0  0  0  0  0  0  0  0  0  0
  126.4580  129.5050   64.4120 C   0  0  0  0  0  0  0  0  0  0  0  0
  126.4960  128.9760   63.1160 C   0  0  0  0  0  0  0  0  0  0  0  0
  127.3260  127.8580   62.9220 N   0  0  0  0  0  0  0  0  0  0  0  0
  127.7120  127.2790   61.7560 C   0  0  0  0  0  0  0  0  0  0  0  0
  127.3780  127.6920   60.6440 O   0  0  0  0  0  0  0  0  0  0  0  0
  128.5730  126.1030   61.8930 C   0  0  0  0  0  0  0  0  0  0  0  0
  128.2980  124.6820   60.8880 S   0  0  0  0  0  0  0  0  0  0  0  0
  129.6660  123.8590   61.6000 C   0  0  0  0  0  0  0  0  0  0  0  0
  130.0120  122.6320   61.2190 N   0  0  0  0  0  0  0  0  0  0  0  0
  131.1000  122.0800   61.8180 C   0  0  0  0  0  0  0  0  0  0  0  0
  131.4670  120.6980   61.3630 C   0  0  0  0  0  0  0  0  0  0  0  0
  130.5170  119.6630   61.3780 C   0  0  0  0  0  0  0  0  0  0  0  0
  130.8530  118.3770   60.9640 C   0  0  0  0  0  0  0  0  0  0  0  0
  132.1450  118.1080   60.5260 C   0  0  0  0  0  0  0  0  0  0  0  0
  133.1040  119.1140   60.5030 C   0  0  0  0  0  0  0  0  0  0  0  0
  132.7660  120.3990   60.9200 C   0  0  0  0  0  0  0  0  0  0  0  0
  131.8200  122.7530   62.8110 C   0  0  0  0  0  0  0  0  0  0  0  0
  131.4590  124.0460   63.2230 C   0  0  0  0  0  0  0  0  0  0  0  0
  132.2930  124.7270   64.3140 C   0  0  0  0  0  0  0  0  0  0  0  0
  131.5830  125.0320   65.4020 F   0  0  0  0  0  0  0  0  0  0  0  0
  133.2820  123.9180   64.6960 F   0  0  0  0  0  0  0  0  0  0  0  0
  132.8100  125.8610   63.8440 F   0  0  0  0  0  0  0  0  0  0  0  0
  130.3300  124.6410   62.5900 C   0  0  0  0  0  0  0  0  0  0  0  0
  129.6810  125.9210   62.7380 C   0  0  0  0  0  0  0  0  0  0  0  0
  130.1120  126.8730   63.6250 N   0  0  0  0  0  0  0  0  0  0  0  0
  125.7390  129.4980   62.1070 N   0  0  0  0  0  0  0  0  0  0  0  0
  1  2  1  0
  2  3  2  0
  3  4  1  0
  4  5  2  0
  5  6  1  0
  6  7  1  0
  7  8  1  0
  8  9  2  0
  8 10  1  0
 10 11  1  0
 11 12  1  0
 12 13  2  0
 13 14  1  0
 14 15  1  0
 15 16  2  0
 16 17  1  0
 17 18  2  0
 18 19  1  0
 19 20  2  0
 14 21  2  0
 21 22  1  0
 22 23  1  0
 23 24  1  0
 23 25  1  0
 23 26  1  0
 22 27  2  0
 27 28  1  0
 28 29  1  0
  6 30  2  0
 30  2  1  0
 28 10  2  0
 27 12  1  0
 20 15  1  0
M  END
>  <Binding energies>  (33) 
[-7.73]

>  <Ligand effiencies>  (33) 
[-0.23424242424242425]

>  <Interactions>  (33) 
["V-B:GLY:454:CA:9020, V-B:ILE:369:CD1:8210, V-B:TYR:539:CE1:9847, V-A:GLY:453:C:4039, V-A:LEU:475:CD2:4256, V-B:TYR:539:CD1:9845, V-A:GLY:454:CA:4046, H-B:GLU:543:OE1:9881, H-B:ARG:545:NH2:9900, V-A:ILE:369:CG2:3234, H-B:GLU:543:OE2:9882, V-B:GLU:543:CD:9880, H-A:GLU:543:OE2:4908, V-A:TYR:484:CZ:4344, V-A:GLU:543:CD:4906, V-B:ARG:545:CZ:9898, V-A:ARG:545:CZ:4924, V-A:SER:385:CA:3404, H-A:GLU:543:OE1:4907, V-B:ALA:541:CB:9864, V-A:SER:385:CB:3406, V-A:LEU:373:CD1:3277, V-A:PRO:482:CB:4323, V-A:PRO:482:CG:4324"]

$$$$
4cf_Grossjean_2025
     RDKit          3D

 29 32  0  0  0  0  0  0  0  0999 V2000
  129.7920  127.0090   63.7550 N   0  0  0  0  0  0  0  0  0  0  0  0
  129.4060  126.0770   62.8250 C   0  0  0  0  0  0  0  0  0  0  0  0
  128.3330  126.2710   61.9400 C   0  0  0  0  0  0  0  0  0  0  0  0
  127.4230  127.4170   61.8440 C   0  0  0  0  0  0  0  0  0  0  0  0
  126.8980  127.7120   60.7700 O   0  0  0  0  0  0  0  0  0  0  0  0
  127.2110  128.0880   63.0020 N   0  0  0  0  0  0  0  0  0  0  0  0
  126.4460  129.2450   63.2420 C   0  0  0  0  0  0  0  0  0  0  0  0
  126.4300  130.3970   62.4310 C   0  0  0  0  0  0  0  0  0  0  0  0
  125.6330  131.4850   62.7940 C   0  0  0  0  0  0  0  0  0  0  0  0
  124.8720  131.3980   63.9600 C   0  0  0  0  0  0  0  0  0  0  0  0
  124.8750  130.3030   64.7620 N   0  0  0  0  0  0  0  0  0  0  0  0
  125.6560  129.2530   64.3970 C   0  0  0  0  0  0  0  0  0  0  0  0
  128.1210  124.8790   60.8820 S   0  0  0  0  0  0  0  0  0  0  0  0
  129.4610  124.0460   61.6340 C   0  0  0  0  0  0  0  0  0  0  0  0
  129.8300  122.8280   61.2440 N   0  0  0  0  0  0  0  0  0  0  0  0
  130.8730  122.2550   61.9000 C   0  0  0  0  0  0  0  0  0  0  0  0
  131.2610  120.8790   61.4440 C   0  0  0  0  0  0  0  0  0  0  0  0
  132.5670  120.6110   61.0060 C   0  0  0  0  0  0  0  0  0  0  0  0
  132.9360  119.3370   60.5810 C   0  0  0  0  0  0  0  0  0  0  0  0
  132.0000  118.3090   60.5920 C   0  0  0  0  0  0  0  0  0  0  0  0
  130.6990  118.5460   61.0240 C   0  0  0  0  0  0  0  0  0  0  0  0
  130.3350  119.8210   61.4480 C   0  0  0  0  0  0  0  0  0  0  0  0
  131.5540  122.9170   62.9260 C   0  0  0  0  0  0  0  0  0  0  0  0
  131.1760  124.2030   63.3420 C   0  0  0  0  0  0  0  0  0  0  0  0
  131.9630  124.8690   64.4770 C   0  0  0  0  0  0  0  0  0  0  0  0
  132.3050  126.1310   64.2080 F   0  0  0  0  0  0  0  0  0  0  0  0
  131.2280  124.8830   65.5880 F   0  0  0  0  0  0  0  0  0  0  0  0
  133.0890  124.1910   64.7030 F   0  0  0  0  0  0  0  0  0  0  0  0
  130.0720  124.8070   62.6730 C   0  0  0  0  0  0  0  0  0  0  0  0
  1  2  1  0
  2  3  2  0
  3  4  1  0
  4  5  2  0
  4  6  1  0
  6  7  1  0
  7  8  2  0
  8  9  1  0
  9 10  2  0
 10 11  1  0
 11 12  2  0
  3 13  1  0
 13 14  1  0
 14 15  2  0
 15 16  1  0
 16 17  1  0
 17 18  2  0
 18 19  1  0
 19 20  2  0
 20 21  1  0
 21 22  2  0
 16 23  2  0
 23 24  1  0
 24 25  1  0
 25 26  1  0
 25 27  1  0
 25 28  1  0
 24 29  2  0
 29  2  1  0
 12  7  1  0
 29 14  1  0
 22 17  1  0
M  END
>  <Binding energies>  (34) 
[-7.51]

>  <Ligand effiencies>  (34) 
[-0.2346875]

>  <Interactions>  (34) 
["V-B:GLY:454:CA:9020, V-B:TYR:539:CE1:9847, V-A:LEU:475:CD2:4256, V-B:TYR:539:CD1:9845, V-A:GLY:454:CA:4046, H-B:GLU:543:OE1:9881, H-B:ARG:545:NH2:9900, V-A:ILE:369:CG2:3234, H-B:GLU:543:OE2:9882, V-B:GLU:543:CD:9880, V-A:HIS:456:CE1:4066, H-A:GLU:543:OE2:4908, H-B:GLY:454:N:9021, V-A:TYR:484:CZ:4344, V-A:GLU:543:CD:4906, V-B:ARG:545:CZ:9898, V-A:ARG:545:CZ:4924, V-A:SER:385:CA:3404, H-A:GLU:543:OE1:4907, V-B:ALA:541:CB:9864, V-A:LEU:373:CD1:3277, V-A:PRO:482:CB:4323, V-A:PRO:482:CG:4324, H-B:TYR:484:OH:9319"]

$$$$
4ci_Grossjean_2025
     RDKit          3D

 28 31  0  0  0  0  0  0  0  0999 V2000
  130.0070  127.0240   63.6160 N   0  0  0  0  0  0  0  0  0  0  0  0
  129.5200  126.0290   62.8090 C   0  0  0  0  0  0  0  0  0  0  0  0
  128.3160  126.1370   62.0940 C   0  0  0  0  0  0  0  0  0  0  0  0
  127.3820  127.2660   62.0440 C   0  0  0  0  0  0  0  0  0  0  0  0
  126.8410  127.5880   60.9840 O   0  0  0  0  0  0  0  0  0  0  0  0
  127.1830  127.9110   63.2210 N   0  0  0  0  0  0  0  0  0  0  0  0
  126.3610  129.0060   63.4570 C   0  0  0  0  0  0  0  0  0  0  0  0
  126.2540  130.0830   62.5780 C   0  0  0  0  0  0  0  0  0  0  0  0
  125.3550  130.9400   63.1690 C   0  0  0  0  0  0  0  0  0  0  0  0
  124.9410  130.4060   64.3430 O   0  0  0  0  0  0  0  0  0  0  0  0
  125.5860  129.1810   64.5140 N   0  0  0  0  0  0  0  0  0  0  0  0
  128.0000  124.6810   61.1540 S   0  0  0  0  0  0  0  0  0  0  0  0
  129.4720  123.9360   61.7300 C   0  0  0  0  0  0  0  0  0  0  0  0
  129.8300  122.7130   61.3440 N   0  0  0  0  0  0  0  0  0  0  0  0
  130.9930  122.2180   61.8410 C   0  0  0  0  0  0  0  0  0  0  0  0
  131.3660  120.8350   61.3910 C   0  0  0  0  0  0  0  0  0  0  0  0
  132.6690  120.5480   60.9490 C   0  0  0  0  0  0  0  0  0  0  0  0
  133.0220  119.2670   60.5310 C   0  0  0  0  0  0  0  0  0  0  0  0
  132.0720  118.2510   60.5490 C   0  0  0  0  0  0  0  0  0  0  0  0
  130.7750  118.5070   60.9770 C   0  0  0  0  0  0  0  0  0  0  0  0
  130.4260  119.7890   61.3920 C   0  0  0  0  0  0  0  0  0  0  0  0
  131.7810  122.9470   62.7370 C   0  0  0  0  0  0  0  0  0  0  0  0
  131.4140  124.2380   63.1510 C   0  0  0  0  0  0  0  0  0  0  0  0
  132.3260  124.9800   64.1350 C   0  0  0  0  0  0  0  0  0  0  0  0
  131.6510  125.6420   65.0770 F   0  0  0  0  0  0  0  0  0  0  0  0
  133.1230  124.1090   64.7530 F   0  0  0  0  0  0  0  0  0  0  0  0
  133.0710  125.8690   63.4770 F   0  0  0  0  0  0  0  0  0  0  0  0
  130.2030  124.7710   62.6250 C   0  0  0  0  0  0  0  0  0  0  0  0
  1  2  1  0
  2  3  2  0
  3  4  1  0
  4  5  2  0
  4  6  1  0
  6  7  1  0
  7  8  1  0
  8  9  2  0
  9 10  1  0
 10 11  1  0
  3 12  1  0
 12 13  1  0
 13 14  2  0
 14 15  1  0
 15 16  1  0
 16 17  2  0
 17 18  1  0
 18 19  2  0
 19 20  1  0
 20 21  2  0
 15 22  2  0
 22 23  1  0
 23 24  1  0
 24 25  1  0
 24 26  1  0
 24 27  1  0
 23 28  2  0
 28  2  1  0
 11  7  2  0
 28 13  1  0
 21 16  1  0
M  END
>  <Binding energies>  (35) 
[-7.11]

>  <Ligand effiencies>  (35) 
[-0.22935483870967743]

>  <Interactions>  (35) 
["V-B:TYR:539:CE1:9847, V-A:LEU:475:CD2:4256, V-B:TYR:539:CD1:9845, V-A:GLY:454:CA:4046, H-B:GLU:543:OE1:9881, H-B:ARG:545:NH2:9900, V-A:ILE:369:CG2:3234, H-B:GLU:543:OE2:9882, V-B:GLU:543:CD:9880, H-A:GLU:543:OE2:4908, H-B:GLY:454:N:9021, V-A:TYR:484:CZ:4344, V-A:GLU:543:CD:4906, V-B:ARG:545:CZ:9898, V-A:ARG:545:CZ:4924, V-A:SER:385:CA:3404, H-A:GLU:543:OE1:4907, V-B:ALA:541:CB:9864, H-B:ARG:545:NE:9896, V-A:SER:385:CB:3406, V-A:LEU:373:CD1:3277, V-A:PRO:482:CB:4323, V-A:PRO:482:CG:4324, H-B:TYR:484:OH:9319"]

$$$$
8a_Ghoteimi_2023
     RDKit          3D

 40 44  0  0  0  0  0  0  0  0999 V2000
  129.3390  132.1360   73.5210 C   0  0  0  0  0  0  0  0  0  0  0  0
  129.3950  130.8140   72.7500 C   0  0  0  0  0  0  0  0  0  0  0  0
  129.5130  129.7360   73.6690 O   0  0  0  0  0  0  0  0  0  0  0  0
  128.8170  128.5820   73.4890 C   0  0  0  0  0  0  0  0  0  0  0  0
  128.1520  128.0450   74.3800 O   0  0  0  0  0  0  0  0  0  0  0  0
  128.9430  128.0230   72.1020 C   0  0  0  0  0  0  0  0  0  0  0  0
  130.1940  128.0320   71.4720 C   0  0  0  0  0  0  0  0  0  0  0  0
  130.3440  127.5230   70.1860 C   0  0  0  0  0  0  0  0  0  0  0  0
  129.2480  126.9950   69.5010 C   0  0  0  0  0  0  0  0  0  0  0  0
  129.5170  126.5120   68.2040 N   0  0  0  0  0  0  0  0  0  0  0  0
  129.3720  127.1130   66.9980 C   0  0  0  0  0  0  0  0  0  0  0  0
  128.9470  128.2580   66.8390 O   0  0  0  0  0  0  0  0  0  0  0  0
  129.7670  126.3000   65.8440 C   0  0  0  0  0  0  0  0  0  0  0  0
  130.5920  124.7600   66.0790 S   0  0  0  0  0  0  0  0  0  0  0  0
  130.6950  124.4970   64.3540 C   0  0  0  0  0  0  0  0  0  0  0  0
  131.2860  123.4170   63.8440 N   0  0  0  0  0  0  0  0  0  0  0  0
  131.3160  123.3120   62.4890 C   0  0  0  0  0  0  0  0  0  0  0  0
  132.0030  122.1030   61.9390 C   0  0  0  0  0  0  0  0  0  0  0  0
  131.2680  120.9980   61.4840 C   0  0  0  0  0  0  0  0  0  0  0  0
  131.9130  119.8710   60.9840 C   0  0  0  0  0  0  0  0  0  0  0  0
  133.3040  119.8190   60.9220 C   0  0  0  0  0  0  0  0  0  0  0  0
  133.8570  118.6600   60.4130 O   0  0  0  0  0  0  0  0  0  0  0  0
  133.0550  117.4870   60.3310 C   0  0  0  0  0  0  0  0  0  0  0  0
  134.0480  120.9210   61.3680 C   0  0  0  0  0  0  0  0  0  0  0  0
  133.4000  122.0470   61.8710 C   0  0  0  0  0  0  0  0  0  0  0  0
  130.7520  124.2780   61.6530 C   0  0  0  0  0  0  0  0  0  0  0  0
  130.1150  125.4050   62.1840 C   0  0  0  0  0  0  0  0  0  0  0  0
  129.5030  126.3850   61.2510 C   0  0  0  0  0  0  0  0  0  0  0  0
  130.2990  127.3390   60.6130 C   0  0  0  0  0  0  0  0  0  0  0  0
  129.7330  128.2470   59.7220 C   0  0  0  0  0  0  0  0  0  0  0  0
  128.3650  128.2130   59.4490 C   0  0  0  0  0  0  0  0  0  0  0  0
  127.8920  129.1510   58.5520 O   0  0  0  0  0  0  0  0  0  0  0  0
  126.4890  129.3620   58.4440 C   0  0  0  0  0  0  0  0  0  0  0  0
  127.5650  127.2500   60.0830 C   0  0  0  0  0  0  0  0  0  0  0  0
  128.1350  126.3420   60.9730 C   0  0  0  0  0  0  0  0  0  0  0  0
  130.0910  125.5470   63.6010 C   0  0  0  0  0  0  0  0  0  0  0  0
  129.5860  126.5730   64.4780 C   0  0  0  0  0  0  0  0  0  0  0  0
  128.9960  127.7210   64.0080 N   0  0  0  0  0  0  0  0  0  0  0  0
  127.9920  126.9770   70.1260 C   0  0  0  0  0  0  0  0  0  0  0  0
  127.8440  127.4870   71.4130 C   0  0  0  0  0  0  0  0  0  0  0  0
  1  2  1  0
  2  3  1  0
  3  4  1  0
  4  5  2  0
  4  6  1  0
  6  7  2  0
  7  8  1  0
  8  9  2  0
  9 10  1  0
 10 11  1  0
 11 12  2  0
 11 13  1  0
 13 14  1  0
 14 15  1  0
 15 16  2  0
 16 17  1  0
 17 18  1  0
 18 19  2  0
 19 20  1  0
 20 21  2  0
 21 22  1  0
 22 23  1  0
 21 24  1  0
 24 25  2  0
 17 26  2  0
 26 27  1  0
 27 28  1  0
 28 29  2  0
 29 30  1  0
 30 31  2  0
 31 32  1  0
 32 33  1  0
 31 34  1  0
 34 35  2  0
 27 36  2  0
 36 37  1  0
 37 38  1  0
  9 39  1  0
 39 40  2  0
 40  6  1  0
 37 13  2  0
 36 15  1  0
 25 18  1  0
 35 28  1  0
M  END
>  <Binding energies>  (36) 
[-5.08]

>  <Ligand effiencies>  (36) 
[-0.11813953488372093]

>  <Interactions>  (36) 
["V-B:TYR:539:CE1:9847, V-A:ILE:369:CD1:3236, V-A:LEU:475:CD2:4256, V-B:TYR:539:CD1:9845, V-A:GLY:454:CA:4046, V-A:GLU:543:CG:4905, H-B:GLU:543:OE1:9881, V-A:ILE:369:CG2:3234, V-B:HIS:456:CE1:9040, H-B:GLU:543:OE2:9882, V-B:GLU:543:CD:9880, V-B:GLU:543:CB:9878, V-B:GLU:543:CG:9879, V-A:HIS:456:CE1:4066, H-A:GLU:543:OE2:4908, V-A:TYR:484:CE2:4343, V-A:TYR:484:CZ:4344, V-A:GLU:543:CD:4906, V-B:GLU:543:C:9874, V-B:GLY:544:C:9884, V-A:SER:385:CA:3404, V-A:SER:385:C:3402, H-A:GLU:543:OE1:4907, V-A:GLY:544:C:4910, H-A:TYR:484:OH:4345, V-A:SER:385:CB:3406, V-A:LEU:373:CD1:3277, V-A:GLY:544:CA:4912, V-A:GLU:543:C:4900, V-B:HIS:456:CD2:9039, V-B:HIS:456:CG:9037, V-A:LYS:547:CE:4948, V-B:GLY:544:CA:9886, H-B:LYS:547:NZ:9923, H-A:LYS:547:NZ:4949, H-B:GLU:543:O:9875"]

$$$$
8c_Ghoteimi_2023
     RDKit          3D

 34 38  0  0  0  0  0  0  0  0999 V2000
  133.7460  117.2780   60.0580 C   0  0  0  0  0  0  0  0  0  0  0  0
  132.3670  117.3740   60.3960 O   0  0  0  0  0  0  0  0  0  0  0  0
  131.8460  118.6020   60.7570 C   0  0  0  0  0  0  0  0  0  0  0  0
  132.6910  119.7020   60.6230 C   0  0  0  0  0  0  0  0  0  0  0  0
  132.2520  120.9770   60.9650 C   0  0  0  0  0  0  0  0  0  0  0  0
  130.9540  121.1860   61.4510 C   0  0  0  0  0  0  0  0  0  0  0  0
  130.4770  122.5540   61.8250 C   0  0  0  0  0  0  0  0  0  0  0  0
  130.9560  123.2190   62.9570 C   0  0  0  0  0  0  0  0  0  0  0  0
  130.4960  124.4990   63.2830 C   0  0  0  0  0  0  0  0  0  0  0  0
  131.0170  125.1710   64.4940 C   0  0  0  0  0  0  0  0  0  0  0  0
  130.1390  125.6240   65.4810 C   0  0  0  0  0  0  0  0  0  0  0  0
  130.6310  126.2470   66.6240 C   0  0  0  0  0  0  0  0  0  0  0  0
  132.0040  126.4300   66.7960 C   0  0  0  0  0  0  0  0  0  0  0  0
  132.4020  127.0560   67.9620 O   0  0  0  0  0  0  0  0  0  0  0  0
  131.6270  128.1370   68.4700 C   0  0  0  0  0  0  0  0  0  0  0  0
  132.8850  125.9790   65.8020 C   0  0  0  0  0  0  0  0  0  0  0  0
  132.3920  125.3540   64.6590 C   0  0  0  0  0  0  0  0  0  0  0  0
  129.5350  125.1010   62.4270 C   0  0  0  0  0  0  0  0  0  0  0  0
  128.8640  126.3730   62.4560 C   0  0  0  0  0  0  0  0  0  0  0  0
  129.0890  127.3010   63.4420 N   0  0  0  0  0  0  0  0  0  0  0  0
  127.9700  126.5690   61.3910 C   0  0  0  0  0  0  0  0  0  0  0  0
  127.1310  127.7360   61.1080 C   0  0  0  0  0  0  0  0  0  0  0  0
  126.8220  128.0230   59.9490 O   0  0  0  0  0  0  0  0  0  0  0  0
  126.7410  128.4490   62.1930 N   0  0  0  0  0  0  0  0  0  0  0  0
  125.9470  129.5870   62.2020 C   0  0  0  0  0  0  0  0  0  0  0  0
  125.6940  130.3870   63.2150 N   0  0  0  0  0  0  0  0  0  0  0  0
  124.8980  131.3770   62.8640 C   0  0  0  0  0  0  0  0  0  0  0  0
  124.4850  131.3940   61.5360 C   0  0  0  0  0  0  0  0  0  0  0  0
  125.1830  130.0310   60.7110 S   0  0  0  0  0  0  0  0  0  0  0  0
  127.9420  125.1700   60.3170 S   0  0  0  0  0  0  0  0  0  0  0  0
  129.1220  124.3340   61.2990 C   0  0  0  0  0  0  0  0  0  0  0  0
  129.5590  123.1130   60.9890 N   0  0  0  0  0  0  0  0  0  0  0  0
  130.1080  120.0760   61.5810 C   0  0  0  0  0  0  0  0  0  0  0  0
  130.5440  118.7990   61.2410 C   0  0  0  0  0  0  0  0  0  0  0  0
  1  2  1  0
  2  3  1  0
  3  4  2  0
  4  5  1  0
  5  6  2  0
  6  7  1  0
  7  8  2  0
  8  9  1  0
  9 10  1  0
 10 11  2  0
 11 12  1  0
 12 13  2  0
 13 14  1  0
 14 15  1  0
 13 16  1  0
 16 17  2  0
  9 18  2  0
 18 19  1  0
 19 20  1  0
 19 21  2  0
 21 22  1  0
 22 23  2  0
 22 24  1  0
 24 25  1  0
 25 26  2  0
 26 27  1  0
 27 28  2  0
 28 29  1  0
 21 30  1  0
 30 31  1  0
 31 32  2  0
  6 33  1  0
 33 34  2  0
 34  3  1  0
 32  7  1  0
 17 10  1  0
 31 18  1  0
 29 25  1  0
M  END
>  <Binding energies>  (37) 
[-5.0]

>  <Ligand effiencies>  (37) 
[-0.13513513513513514]

>  <Interactions>  (37) 
["V-B:ILE:369:CD1:8210, V-B:ASP:366:CG:8184, V-B:TYR:539:CE1:9847, V-A:LEU:475:CD2:4256, V-B:TYR:539:CD1:9845, V-A:GLU:543:CG:4905, H-B:GLU:543:OE1:9881, V-A:ILE:369:CG2:3234, H-B:GLU:543:OE2:9882, V-B:GLU:543:CD:9880, V-B:GLU:543:CB:9878, V-B:GLU:543:CG:9879, V-A:HIS:456:CE1:4066, H-A:GLU:543:OE2:4908, V-A:GLU:543:CD:4906, V-A:GLU:543:CB:4904, V-A:ARG:545:CZ:4924, V-A:ARG:545:CG:4920, V-A:SER:385:CA:3404, V-A:ARG:545:CD:4921, H-A:GLU:543:OE1:4907, V-B:ALA:541:CB:9864, H-A:HIS:456:NE2:4067, V-A:GLY:544:C:4910, H-A:ARG:545:NE:4922, V-A:SER:385:CB:3406, V-A:LEU:373:CD1:3277, V-A:PRO:482:CB:4323, V-A:VAL:384:C:3394, V-A:PRO:482:CG:4324, V-A:GLU:543:C:4900, V-A:ARG:545:CA:4917"]

$$$$
8d_Ghoteimi_2023
     RDKit          3D

 30 33  0  0  0  0  0  0  0  0999 V2000
  129.3990  132.6120   57.5020 C   0  0  0  0  0  0  0  0  0  0  0  0
  129.8410  132.9970   58.7970 O   0  0  0  0  0  0  0  0  0  0  0  0
  129.0270  132.8700   59.8770 C   0  0  0  0  0  0  0  0  0  0  0  0
  128.2290  133.7350   60.2460 O   0  0  0  0  0  0  0  0  0  0  0  0
  129.1930  131.5760   60.5740 C   0  0  0  0  0  0  0  0  0  0  0  0
  130.5170  130.4980   60.1250 S   0  0  0  0  0  0  0  0  0  0  0  0
  130.0170  129.3230   61.3190 C   0  0  0  0  0  0  0  0  0  0  0  0
  130.6720  128.1750   61.4940 N   0  0  0  0  0  0  0  0  0  0  0  0
  130.2000  127.3330   62.4520 C   0  0  0  0  0  0  0  0  0  0  0  0
  130.9500  126.0500   62.6250 C   0  0  0  0  0  0  0  0  0  0  0  0
  130.8560  125.3090   63.8110 C   0  0  0  0  0  0  0  0  0  0  0  0
  131.5570  124.1170   63.9670 C   0  0  0  0  0  0  0  0  0  0  0  0
  132.3710  123.6350   62.9440 C   0  0  0  0  0  0  0  0  0  0  0  0
  133.0280  122.4440   63.1860 O   0  0  0  0  0  0  0  0  0  0  0  0
  133.8280  121.8700   62.1570 C   0  0  0  0  0  0  0  0  0  0  0  0
  132.4720  124.3660   61.7520 C   0  0  0  0  0  0  0  0  0  0  0  0
  131.7680  125.5580   61.5990 C   0  0  0  0  0  0  0  0  0  0  0  0
  129.0740  127.6350   63.2230 C   0  0  0  0  0  0  0  0  0  0  0  0
  128.3880  128.8410   63.0410 C   0  0  0  0  0  0  0  0  0  0  0  0
  127.2030  129.1360   63.8790 C   0  0  0  0  0  0  0  0  0  0  0  0
  125.9560  129.3380   63.2860 C   0  0  0  0  0  0  0  0  0  0  0  0
  124.8440  129.6250   64.0730 C   0  0  0  0  0  0  0  0  0  0  0  0
  124.9610  129.7100   65.4610 C   0  0  0  0  0  0  0  0  0  0  0  0
  123.8060  129.9990   66.1610 O   0  0  0  0  0  0  0  0  0  0  0  0
  123.7430  129.7040   67.5510 C   0  0  0  0  0  0  0  0  0  0  0  0
  126.2160  129.5020   66.0560 C   0  0  0  0  0  0  0  0  0  0  0  0
  127.3270  129.2160   65.2670 C   0  0  0  0  0  0  0  0  0  0  0  0
  128.8660  129.7370   62.0490 C   0  0  0  0  0  0  0  0  0  0  0  0
  128.4170  131.0270   61.6010 C   0  0  0  0  0  0  0  0  0  0  0  0
  127.3210  131.6540   62.1360 N   0  0  0  0  0  0  0  0  0  0  0  0
  1  2  1  0
  2  3  1  0
  3  4  2  0
  3  5  1  0
  5  6  1  0
  6  7  1  0
  7  8  2  0
  8  9  1  0
  9 10  1  0
 10 11  2  0
 11 12  1  0
 12 13  2  0
 13 14  1  0
 14 15  1  0
 13 16  1  0
 16 17  2  0
  9 18  2  0
 18 19  1  0
 19 20  1  0
 20 21  2  0
 21 22  1  0
 22 23  2  0
 23 24  1  0
 24 25  1  0
 23 26  1  0
 26 27  2  0
 19 28  2  0
 28 29  1  0
 29 30  1  0
 29  5  2  0
 28  7  1  0
 17 10  1  0
 27 20  1  0
M  END
>  <Binding energies>  (38) 
[-4.86]

>  <Ligand effiencies>  (38) 
[-0.151875]

>  <Interactions>  (38) 
["V-B:GLY:454:CA:9020, V-A:TYR:539:CE1:4873, V-A:TYR:539:CD1:4871, V-A:PRO:540:CA:4881, V-A:PRO:540:N:4882, V-A:TYR:539:C:4865, V-A:ILE:369:CD1:3236, V-A:LEU:475:CD2:4256, V-A:GLY:454:CA:4046, V-B:HIS:456:CE1:9040, V-B:GLU:543:CD:9880, H-A:ARG:545:NH2:4926, H-B:GLY:454:N:9021, V-A:GLU:543:CD:4906, V-B:ARG:545:CZ:9898, V-B:ARG:545:CG:9894, H-A:GLY:454:N:4047, V-B:TYR:484:CZ:9318, V-A:TYR:539:CG:4870, H-B:ARG:545:NE:9896, V-B:ARG:545:CD:9895, H-A:TYR:484:OH:4345, H-B:TYR:484:OH:9319, H-B:ILE:455:N:9026, V-B:ARG:545:CB:9893, V-B:ILE:455:C:9023, V-B:GLY:454:C:9018"]

$$$$
9a_Ghoteimi_2023
     RDKit          3D

 48 54  0  0  0  0  0  0  0  0999 V2000
  130.6690  117.4850   60.6100 C   0  0  0  0  0  0  0  0  0  0  0  0
  132.1540  117.5210   60.9830 C   0  0  0  0  0  0  0  0  0  0  0  0
  132.8940  118.1160   59.9230 O   0  0  0  0  0  0  0  0  0  0  0  0
  133.8220  119.0760   60.1690 C   0  0  0  0  0  0  0  0  0  0  0  0
  135.0170  118.9590   59.8760 O   0  0  0  0  0  0  0  0  0  0  0  0
  133.2540  120.2930   60.8400 C   0  0  0  0  0  0  0  0  0  0  0  0
  131.8690  120.5040   60.8180 C   0  0  0  0  0  0  0  0  0  0  0  0
  131.3130  121.6230   61.4300 C   0  0  0  0  0  0  0  0  0  0  0  0
  132.1260  122.5540   62.0760 C   0  0  0  0  0  0  0  0  0  0  0  0
  131.4540  123.6470   62.6580 N   0  0  0  0  0  0  0  0  0  0  0  0
  131.1050  123.8780   63.9480 C   0  0  0  0  0  0  0  0  0  0  0  0
  131.3430  123.1060   64.8780 O   0  0  0  0  0  0  0  0  0  0  0  0
  130.4090  125.1450   64.1910 C   0  0  0  0  0  0  0  0  0  0  0  0
  129.9070  126.1590   62.8380 S   0  0  0  0  0  0  0  0  0  0  0  0
  129.2110  127.3400   63.9220 C   0  0  0  0  0  0  0  0  0  0  0  0
  128.6030  128.4340   63.4660 N   0  0  0  0  0  0  0  0  0  0  0  0
  128.0850  129.2840   64.3930 C   0  0  0  0  0  0  0  0  0  0  0  0
  127.3980  130.4990   63.8580 C   0  0  0  0  0  0  0  0  0  0  0  0
  126.0020  130.5470   63.7740 C   0  0  0  0  0  0  0  0  0  0  0  0
  125.3540  131.6750   63.2780 C   0  0  0  0  0  0  0  0  0  0  0  0
  126.0780  132.8030   62.8600 C   0  0  0  0  0  0  0  0  0  0  0  0
  125.4410  133.9360   62.3430 N   0  0  0  0  0  0  0  0  0  0  0  0
  126.2070  135.0340   61.7180 C   0  0  0  0  0  0  0  0  0  0  0  0
  125.3970  136.3350   61.5390 C   0  0  0  0  0  0  0  0  0  0  0  0
  124.2060  136.0710   60.8170 O   0  0  0  0  0  0  0  0  0  0  0  0
  123.3830  135.1350   61.4960 C   0  0  0  0  0  0  0  0  0  0  0  0
  124.1340  133.7990   61.6670 C   0  0  0  0  0  0  0  0  0  0  0  0
  127.4770  132.7440   62.9330 C   0  0  0  0  0  0  0  0  0  0  0  0
  128.1240  131.6150   63.4260 C   0  0  0  0  0  0  0  0  0  0  0  0
  128.2010  129.0510   65.7650 C   0  0  0  0  0  0  0  0  0  0  0  0
  128.8560  127.9130   66.2480 C   0  0  0  0  0  0  0  0  0  0  0  0
  128.9830  127.7330   67.7170 C   0  0  0  0  0  0  0  0  0  0  0  0
  127.8840  127.3350   68.4830 C   0  0  0  0  0  0  0  0  0  0  0  0
  128.0080  127.1540   69.8560 C   0  0  0  0  0  0  0  0  0  0  0  0
  129.2400  127.3470   70.5010 C   0  0  0  0  0  0  0  0  0  0  0  0
  129.3860  127.1810   71.8800 N   0  0  0  0  0  0  0  0  0  0  0  0
  128.6740  128.0960   72.7940 C   0  0  0  0  0  0  0  0  0  0  0  0
  128.6110  127.5810   74.2480 C   0  0  0  0  0  0  0  0  0  0  0  0
  129.9200  127.3080   74.7230 O   0  0  0  0  0  0  0  0  0  0  0  0
  130.5680  126.3200   73.9380 C   0  0  0  0  0  0  0  0  0  0  0  0
  130.6830  126.8010   72.4750 C   0  0  0  0  0  0  0  0  0  0  0  0
  130.3370  127.7430   69.7220 C   0  0  0  0  0  0  0  0  0  0  0  0
  130.2120  127.9290   68.3490 C   0  0  0  0  0  0  0  0  0  0  0  0
  129.3750  126.9910   65.2950 C   0  0  0  0  0  0  0  0  0  0  0  0
  130.0420  125.7190   65.4180 C   0  0  0  0  0  0  0  0  0  0  0  0
  130.2790  125.1250   66.6310 N   0  0  0  0  0  0  0  0  0  0  0  0
  133.5140  122.3500   62.1060 C   0  0  0  0  0  0  0  0  0  0  0  0
  134.0700  121.2300   61.4930 C   0  0  0  0  0  0  0  0  0  0  0  0
  1  2  1  0
  2  3  1  0
  3  4  1  0
  4  5  2  0
  4  6  1  0
  6  7  2  0
  7  8  1  0
  8  9  2  0
  9 10  1  0
 10 11  1  0
 11 12  2  0
 11 13  1  0
 13 14  1  0
 14 15  1  0
 15 16  2  0
 16 17  1  0
 17 18  1  0
 18 19  2  0
 19 20  1  0
 20 21  2  0
 21 22  1  0
 22 23  1  0
 23 24  1  0
 24 25  1  0
 25 26  1  0
 26 27  1  0
 21 28  1  0
 28 29  2  0
 17 30  2  0
 30 31  1  0
 31 32  1  0
 32 33  2  0
 33 34  1  0
 34 35  2  0
 35 36  1  0
 36 37  1  0
 37 38  1  0
 38 39  1  0
 39 40  1  0
 40 41  1  0
 35 42  1  0
 42 43  2  0
 31 44  2  0
 44 45  1  0
 45 46  1  0
  9 47  1  0
 47 48  2  0
 48  6  1  0
 45 13  2  0
 44 15  1  0
 29 18  1  0
 43 32  1  0
 27 22  1  0
 41 36  1  0
M  END
>  <Binding energies>  (39) 
[1.13]

>  <Ligand effiencies>  (39) 
[0.022156862745098038]

>  <Interactions>  (39) 
["V-B:LEU:475:CD2:9230, V-B:ILE:369:CG2:8208, V-A:TYR:539:CE1:4873, V-B:ILE:369:CD1:8210, V-A:TYR:539:CD1:4871, V-A:ALA:541:CB:4890, V-B:TYR:539:CE1:9847, V-A:ILE:369:CD1:3236, V-A:LEU:475:CD2:4256, V-B:TYR:539:CD1:9845, V-A:GLY:454:CA:4046, V-A:GLU:543:CG:4905, V-A:ILE:369:CG2:3234, V-B:HIS:456:CE1:9040, H-B:GLU:543:OE2:9882, V-B:GLU:543:CD:9880, V-B:GLU:543:CB:9878, V-B:GLU:543:CG:9879, V-A:HIS:456:CE1:4066, V-A:TYR:484:CE2:4343, V-A:TYR:484:CZ:4344, V-A:GLU:543:CD:4906, V-A:GLU:543:CB:4904, V-B:GLU:543:C:9874, V-B:GLY:544:C:9884, V-A:SER:385:CA:3404, V-A:SER:385:C:3402, V-A:HIS:456:CD2:4065, V-A:GLY:544:C:4910, H-A:TYR:484:OH:4345, V-A:SER:385:CB:3406, V-A:LEU:373:CD1:3277, V-B:SER:385:CA:8378, V-B:SER:385:CB:8380, V-B:SER:385:C:8376, V-B:LEU:373:CD1:8251, V-A:PRO:482:CB:4323, V-A:PRO:482:CG:4324, V-B:TYR:539:CB:9843, V-A:GLU:543:C:4900, V-B:HIS:456:CD2:9039, V-A:HIS:456:CG:4063, H-B:LYS:547:NZ:9923, H-A:LYS:547:NZ:4949, V-B:LYS:547:CE:9922, H-B:GLU:543:O:9875, H-A:SER:385:N:3405"]

$$$$
9b_Ghoteimi_2023
     RDKit          3D

 42 48  0  0  0  0  0  0  0  0999 V2000
  127.5540  129.9730   66.8940 N   0  0  0  0  0  0  0  0  0  0  0  0
  127.8680  129.5330   65.6330 C   0  0  0  0  0  0  0  0  0  0  0  0
  127.4910  130.2090   64.4620 C   0  0  0  0  0  0  0  0  0  0  0  0
  126.7510  131.4670   64.3310 C   0  0  0  0  0  0  0  0  0  0  0  0
  126.7580  132.2990   65.2410 O   0  0  0  0  0  0  0  0  0  0  0  0
  126.0770  131.6270   63.1650 N   0  0  0  0  0  0  0  0  0  0  0  0
  125.2900  132.7070   62.7830 C   0  0  0  0  0  0  0  0  0  0  0  0
  125.6850  133.6310   61.8170 C   0  0  0  0  0  0  0  0  0  0  0  0
  124.6430  134.5250   61.7300 C   0  0  0  0  0  0  0  0  0  0  0  0
  123.6710  134.1570   62.5990 O   0  0  0  0  0  0  0  0  0  0  0  0
  124.0930  133.0040   63.2610 N   0  0  0  0  0  0  0  0  0  0  0  0
  128.0340  129.3440   63.0240 S   0  0  0  0  0  0  0  0  0  0  0  0
  128.7420  128.0780   63.9980 C   0  0  0  0  0  0  0  0  0  0  0  0
  129.3380  127.0230   63.4450 N   0  0  0  0  0  0  0  0  0  0  0  0
  129.8410  126.0860   64.2900 C   0  0  0  0  0  0  0  0  0  0  0  0
  130.4850  124.9020   63.6430 C   0  0  0  0  0  0  0  0  0  0  0  0
  130.4490  124.7260   62.2550 C   0  0  0  0  0  0  0  0  0  0  0  0
  131.0370  123.6150   61.6600 C   0  0  0  0  0  0  0  0  0  0  0  0
  131.6730  122.6310   62.4320 C   0  0  0  0  0  0  0  0  0  0  0  0
  132.2720  121.5090   61.8480 N   0  0  0  0  0  0  0  0  0  0  0  0
  133.6300  121.5760   61.2710 C   0  0  0  0  0  0  0  0  0  0  0  0
  134.2570  120.1940   60.9930 C   0  0  0  0  0  0  0  0  0  0  0  0
  133.3940  119.4270   60.1700 O   0  0  0  0  0  0  0  0  0  0  0  0
  132.1380  119.2120   60.7920 C   0  0  0  0  0  0  0  0  0  0  0  0
  131.4450  120.5630   61.0700 C   0  0  0  0  0  0  0  0  0  0  0  0
  131.7240  122.8220   63.8200 C   0  0  0  0  0  0  0  0  0  0  0  0
  131.1390  123.9360   64.4160 C   0  0  0  0  0  0  0  0  0  0  0  0
  129.7720  126.2190   65.6790 C   0  0  0  0  0  0  0  0  0  0  0  0
  129.1650  127.3360   66.2640 C   0  0  0  0  0  0  0  0  0  0  0  0
  129.1440  127.4450   67.7450 C   0  0  0  0  0  0  0  0  0  0  0  0
  127.9510  127.2690   68.4480 C   0  0  0  0  0  0  0  0  0  0  0  0
  127.9310  127.3510   69.8360 C   0  0  0  0  0  0  0  0  0  0  0  0
  129.1040  127.6120   70.5620 C   0  0  0  0  0  0  0  0  0  0  0  0
  129.1100  127.6830   71.9570 N   0  0  0  0  0  0  0  0  0  0  0  0
  127.8830  128.0980   72.6640 C   0  0  0  0  0  0  0  0  0  0  0  0
  128.1370  128.5160   74.1280 C   0  0  0  0  0  0  0  0  0  0  0  0
  128.7870  127.4650   74.8270 O   0  0  0  0  0  0  0  0  0  0  0  0
  130.0380  127.1390   74.2390 C   0  0  0  0  0  0  0  0  0  0  0  0
  129.8340  126.6910   72.7760 C   0  0  0  0  0  0  0  0  0  0  0  0
  130.3000  127.7690   69.8460 C   0  0  0  0  0  0  0  0  0  0  0  0
  130.3200  127.6870   68.4560 C   0  0  0  0  0  0  0  0  0  0  0  0
  128.6000  128.3140   65.3980 C   0  0  0  0  0  0  0  0  0  0  0  0
  1  2  1  0
  2  3  2  0
  3  4  1  0
  4  5  2  0
  4  6  1  0
  6  7  1  0
  7  8  1  0
  8  9  2  0
  9 10  1  0
 10 11  1  0
  3 12  1  0
 12 13  1  0
 13 14  2  0
 14 15  1  0
 15 16  1  0
 16 17  2  0
 17 18  1  0
 18 19  2  0
 19 20  1  0
 20 21  1  0
 21 22  1  0
 22 23  1  0
 23 24  1  0
 24 25  1  0
 19 26  1  0
 26 27  2  0
 15 28  2  0
 28 29  1  0
 29 30  1  0
 30 31  2  0
 31 32  1  0
 32 33  2  0
 33 34  1  0
 34 35  1  0
 35 36  1  0
 36 37  1  0
 37 38  1  0
 38 39  1  0
 33 40  1  0
 40 41  2  0
 29 42  2  0
 42  2  1  0
 11  7  2  0
 42 13  1  0
 27 16  1  0
 41 30  1  0
 25 20  1  0
 39 34  1  0
M  END
>  <Binding energies>  (40) 
[-0.43]

>  <Ligand effiencies>  (40) 
[-0.009555555555555555]

>  <Interactions>  (40) 
["V-B:LEU:475:CD2:9230, V-B:ILE:369:CG2:8208, V-A:TYR:539:CE1:4873, V-A:TYR:539:CD1:4871, V-B:TYR:539:CE1:9847, V-A:ILE:369:CD1:3236, V-A:LEU:475:CD2:4256, V-B:TYR:539:CD1:9845, V-A:GLU:543:CG:4905, V-A:ILE:369:CG2:3234, V-B:HIS:456:CE1:9040, V-B:GLU:543:CD:9880, V-B:GLU:543:CB:9878, V-B:GLU:543:CG:9879, V-A:HIS:456:CE1:4066, H-B:GLY:454:N:9021, V-A:GLU:543:CD:4906, V-A:GLU:543:CB:4904, V-B:GLU:543:C:9874, V-B:GLY:544:C:9884, V-A:SER:385:CA:3404, V-A:SER:385:C:3402, V-B:TYR:484:CE2:9317, V-B:TYR:484:CZ:9318, V-A:HIS:456:CD2:4065, V-A:GLY:544:C:4910, V-A:SER:385:CB:3406, H-B:TYR:484:OH:9319, V-A:GLU:543:C:4900, V-B:HIS:456:CD2:9039, V-B:HIS:456:CG:9037, V-A:LYS:547:CE:4948, H-B:LYS:547:NZ:9923, H-A:LYS:547:NZ:4949, H-A:GLU:543:O:4901"]

$$$$
9c_Ghoteimi_2023
     RDKit          3D

 42 48  0  0  0  0  0  0  0  0999 V2000
  130.4350  124.6820   60.8860 N   0  0  0  0  0  0  0  0  0  0  0  0
  130.9530  124.3850   62.1220 C   0  0  0  0  0  0  0  0  0  0  0  0
  131.8390  123.3220   62.3540 C   0  0  0  0  0  0  0  0  0  0  0  0
  132.3910  122.3660   61.3900 C   0  0  0  0  0  0  0  0  0  0  0  0
  132.7910  122.7420   60.2860 O   0  0  0  0  0  0  0  0  0  0  0  0
  132.4160  121.0740   61.8010 N   0  0  0  0  0  0  0  0  0  0  0  0
  132.8710  119.9780   61.0820 C   0  0  0  0  0  0  0  0  0  0  0  0
  134.0820  119.7620   60.6170 N   0  0  0  0  0  0  0  0  0  0  0  0
  134.1560  118.6130   59.9730 C   0  0  0  0  0  0  0  0  0  0  0  0
  132.9820  117.8680   59.9050 C   0  0  0  0  0  0  0  0  0  0  0  0
  131.7190  118.7280   60.7340 S   0  0  0  0  0  0  0  0  0  0  0  0
  132.2750  123.2170   64.0590 S   0  0  0  0  0  0  0  0  0  0  0  0
  131.2570  124.5810   64.4510 C   0  0  0  0  0  0  0  0  0  0  0  0
  131.1280  125.0190   65.7020 N   0  0  0  0  0  0  0  0  0  0  0  0
  130.2980  126.0760   65.9030 C   0  0  0  0  0  0  0  0  0  0  0  0
  130.1540  126.5330   67.3190 C   0  0  0  0  0  0  0  0  0  0  0  0
  131.1810  127.2350   67.9610 C   0  0  0  0  0  0  0  0  0  0  0  0
  131.0470  127.6500   69.2820 C   0  0  0  0  0  0  0  0  0  0  0  0
  129.8820  127.3670   70.0150 C   0  0  0  0  0  0  0  0  0  0  0  0
  129.7290  127.7830   71.3430 N   0  0  0  0  0  0  0  0  0  0  0  0
  130.2720  126.9910   72.4650 C   0  0  0  0  0  0  0  0  0  0  0  0
  130.3210  127.7580   73.8030 C   0  0  0  0  0  0  0  0  0  0  0  0
  129.0340  128.2670   74.1170 O   0  0  0  0  0  0  0  0  0  0  0  0
  128.5750  129.1660   73.1210 C   0  0  0  0  0  0  0  0  0  0  0  0
  128.4750  128.4450   71.7600 C   0  0  0  0  0  0  0  0  0  0  0  0
  128.8500  126.6800   69.3610 C   0  0  0  0  0  0  0  0  0  0  0  0
  128.9840  126.2690   68.0380 C   0  0  0  0  0  0  0  0  0  0  0  0
  129.6250  126.7070   64.8540 C   0  0  0  0  0  0  0  0  0  0  0  0
  129.7760  126.2640   63.5350 C   0  0  0  0  0  0  0  0  0  0  0  0
  129.0650  126.9870   62.4510 C   0  0  0  0  0  0  0  0  0  0  0  0
  127.6720  126.9510   62.3760 C   0  0  0  0  0  0  0  0  0  0  0  0
  127.0000  127.6420   61.3700 C   0  0  0  0  0  0  0  0  0  0  0  0
  127.7050  128.3860   60.4130 C   0  0  0  0  0  0  0  0  0  0  0  0
  127.0510  129.0970   59.4010 N   0  0  0  0  0  0  0  0  0  0  0  0
  125.6330  129.4640   59.5810 C   0  0  0  0  0  0  0  0  0  0  0  0
  124.9410  129.8820   58.2660 C   0  0  0  0  0  0  0  0  0  0  0  0
  125.6600  130.9430   57.6550 O   0  0  0  0  0  0  0  0  0  0  0  0
  126.9930  130.5650   57.3490 C   0  0  0  0  0  0  0  0  0  0  0  0
  127.7380  130.1580   58.6400 C   0  0  0  0  0  0  0  0  0  0  0  0
  129.1040  128.4330   60.5110 C   0  0  0  0  0  0  0  0  0  0  0  0
  129.7750  127.7420   61.5160 C   0  0  0  0  0  0  0  0  0  0  0  0
  130.6130  125.1350   63.3050 C   0  0  0  0  0  0  0  0  0  0  0  0
  1  2  1  0
  2  3  2  0
  3  4  1  0
  4  5  2  0
  4  6  1  0
  6  7  1  0
  7  8  2  0
  8  9  1  0
  9 10  2  0
 10 11  1  0
  3 12  1  0
 12 13  1  0
 13 14  2  0
 14 15  1  0
 15 16  1  0
 16 17  2  0
 17 18  1  0
 18 19  2  0
 19 20  1  0
 20 21  1  0
 21 22  1  0
 22 23  1  0
 23 24  1  0
 24 25  1  0
 19 26  1  0
 26 27  2  0
 15 28  2  0
 28 29  1  0
 29 30  1  0
 30 31  2  0
 31 32  1  0
 32 33  2  0
 33 34  1  0
 34 35  1  0
 35 36  1  0
 36 37  1  0
 37 38  1  0
 38 39  1  0
 33 40  1  0
 40 41  2  0
 29 42  2  0
 42  2  1  0
 11  7  1  0
 42 13  1  0
 27 16  1  0
 41 30  1  0
 25 20  1  0
 39 34  1  0
M  END
>  <Binding energies>  (41) 
[-0.38]

>  <Ligand effiencies>  (41) 
[-0.008444444444444445]

>  <Interactions>  (41) 
["V-A:TYR:539:CZ:4875, V-B:ASP:366:CB:8183, H-A:TYR:539:OH:4876, V-A:TYR:539:CE1:4873, V-B:ASP:366:CG:8184, V-B:TYR:539:CE1:9847, V-A:LEU:475:CD2:4256, V-B:TYR:539:CD1:9845, V-A:GLY:454:CA:4046, V-A:GLU:543:CG:4905, V-A:ILE:369:CG2:3234, V-B:HIS:456:CE1:9040, V-B:GLU:543:CD:9880, V-B:GLU:543:CB:9878, V-B:GLU:543:CG:9879, V-A:HIS:456:CE1:4066, V-A:TYR:484:CZ:4344, V-A:GLU:543:CD:4906, V-B:GLU:543:C:9874, V-B:ASP:366:CA:8181, V-A:ARG:545:CG:4920, V-A:SER:385:CA:3404, V-A:SER:385:C:3402, V-A:HIS:456:CD2:4065, V-A:GLY:544:C:4910, H-A:TYR:484:OH:4345, V-A:SER:385:CB:3406, V-A:LEU:373:CD1:3277, V-A:VAL:384:C:3394, V-A:GLU:543:C:4900, V-B:HIS:456:CD2:9039, V-B:HIS:456:CG:9037, V-A:LYS:547:CE:4948, H-B:LYS:547:NZ:9923, H-A:LYS:547:NZ:4949, V-B:GLU:543:CA:9876, V-A:LEU:373:CG:3276"]

$$$$
RR11_Rahimova_2017
     RDKit          3D

 33 38  0  0  0  0  0  0  0  0999 V2000
  123.4220  133.8010   61.4170 N   0  0  0  0  0  0  0  0  0  0  0  0
  124.0430  132.9230   62.3030 C   0  0  0  0  0  0  0  0  0  0  0  0
  125.1270  133.3570   63.0640 C   0  0  0  0  0  0  0  0  0  0  0  0
  125.7440  132.4800   63.9510 C   0  0  0  0  0  0  0  0  0  0  0  0
  125.2860  131.1630   64.0860 C   0  0  0  0  0  0  0  0  0  0  0  0
  125.9500  130.2210   65.0460 C   0  0  0  0  0  0  0  0  0  0  0  0
  127.2510  130.0580   65.1480 N   0  0  0  0  0  0  0  0  0  0  0  0
  127.4230  129.1290   66.1400 C   0  0  0  0  0  0  0  0  0  0  0  0
  128.6110  128.5960   66.6590 C   0  0  0  0  0  0  0  0  0  0  0  0
  128.5240  127.6610   67.6970 C   0  0  0  0  0  0  0  0  0  0  0  0
  129.7970  127.0610   68.2770 C   0  0  0  0  0  0  0  0  0  0  0  0
  130.6600  126.3730   67.2280 C   0  0  0  0  0  0  0  0  0  0  0  0
  131.9760  126.8050   67.0270 C   0  0  0  0  0  0  0  0  0  0  0  0
  132.8090  126.2000   66.0840 C   0  0  0  0  0  0  0  0  0  0  0  0
  132.2940  125.1330   65.3360 C   0  0  0  0  0  0  0  0  0  0  0  0
  132.8980  124.3870   64.3570 N   0  0  0  0  0  0  0  0  0  0  0  0
  131.9890  123.5170   63.9730 C   0  0  0  0  0  0  0  0  0  0  0  0
  132.1970  122.4920   62.8950 C   0  0  0  0  0  0  0  0  0  0  0  0
  131.1040  121.8240   62.3290 C   0  0  0  0  0  0  0  0  0  0  0  0
  131.2970  120.8660   61.3370 C   0  0  0  0  0  0  0  0  0  0  0  0
  132.5880  120.5680   60.9050 C   0  0  0  0  0  0  0  0  0  0  0  0
  132.7830  119.6050   59.9160 N   0  0  0  0  0  0  0  0  0  0  0  0
  133.6840  121.2270   61.4560 C   0  0  0  0  0  0  0  0  0  0  0  0
  133.4890  122.1850   62.4470 C   0  0  0  0  0  0  0  0  0  0  0  0
  130.8090  123.6610   64.6700 N   0  0  0  0  0  0  0  0  0  0  0  0
  130.9660  124.6980   65.5590 C   0  0  0  0  0  0  0  0  0  0  0  0
  130.1290  125.2960   66.5050 C   0  0  0  0  0  0  0  0  0  0  0  0
  127.2780  127.2510   68.1850 C   0  0  0  0  0  0  0  0  0  0  0  0
  126.0760  127.7590   67.6860 C   0  0  0  0  0  0  0  0  0  0  0  0
  126.1780  128.7040   66.6620 C   0  0  0  0  0  0  0  0  0  0  0  0
  125.2580  129.4230   65.9340 N   0  0  0  0  0  0  0  0  0  0  0  0
  124.1960  130.7400   63.3130 C   0  0  0  0  0  0  0  0  0  0  0  0
  123.5760  131.6150   62.4260 C   0  0  0  0  0  0  0  0  0  0  0  0
  1  2  1  0
  2  3  2  0
  3  4  1  0
  4  5  2  0
  5  6  1  0
  6  7  2  0
  7  8  1  0
  8  9  2  0
  9 10  1  0
 10 11  1  0
 11 12  1  0
 12 13  2  0
 13 14  1  0
 14 15  2  0
 15 16  1  0
 16 17  2  0
 17 18  1  0
 18 19  2  0
 19 20  1  0
 20 21  2  0
 21 22  1  0
 21 23  1  0
 23 24  2  0
 17 25  1  0
 25 26  1  0
 26 27  2  0
 10 28  2  0
 28 29  1  0
 29 30  2  0
 30 31  1  0
  5 32  1  0
 32 33  2  0
 33  2  1  0
 31  6  1  0
 30  8  1  0
 27 12  1  0
 26 15  1  0
 24 18  1  0
M  END
>  <Binding energies>  (42) 
[-5.57]

>  <Ligand effiencies>  (42) 
[-0.14282051282051283]

>  <Interactions>  (42) 
["V-B:LEU:475:CD2:9230, V-B:GLY:454:CA:9020, V-B:ILE:369:CG2:8208, V-B:GLY:453:C:9013, V-B:ILE:369:CD1:8210, V-B:TYR:539:CE1:9847, V-A:ILE:369:CD1:3236, V-A:LEU:475:CD2:4256, V-B:TYR:539:CD1:9845, V-A:GLY:454:CA:4046, V-A:GLU:543:CG:4905, H-B:GLU:543:OE1:9881, V-A:ILE:369:CG2:3234, V-B:GLY:453:CA:9015, V-B:HIS:456:CE1:9040, V-B:GLU:543:CD:9880, V-B:GLU:543:CB:9878, V-B:GLU:543:CG:9879, V-A:HIS:456:CE1:4066, V-A:TYR:484:CE2:4343, V-A:TYR:484:CZ:4344, V-A:GLU:543:CD:4906, V-B:ILE:369:CG1:8209, V-B:ILE:369:CB:8207, V-A:GLU:543:CB:4904, V-B:GLU:543:C:9874, V-B:ARG:545:CZ:9898, V-B:ARG:545:CG:9894, V-A:ARG:545:CZ:4924, V-A:ARG:545:CG:4920, H-A:GLY:454:N:4047, V-A:ARG:545:CD:4921, V-B:ALA:541:CB:9864, V-B:ARG:545:CD:9895, H-A:TYR:484:OH:4345, V-A:LEU:373:CD1:3277, V-B:SER:385:C:8376, H-B:TYR:484:OH:9319, H-B:SER:385:O:8377, V-B:ARG:545:CB:9893, H-A:VAL:384:O:3395"]

$$$$
RR16_Rahimova_2017
     RDKit          3D

 44 49  0  0  0  0  0  0  0  0999 V2000
  124.1920  133.7770   63.3840 O   0  0  0  0  0  0  0  0  0  0  0  0
  124.3940  132.4030   62.9100 S   0  0  0  0  0  0  0  0  0  0  0  0
  123.4380  131.7760   61.9890 O   0  0  0  0  0  0  0  0  0  0  0  0
  124.5450  131.3670   64.3310 N   0  0  0  0  0  0  0  0  0  0  0  0
  124.4300  129.8940   64.2150 C   0  0  0  0  0  0  0  0  0  0  0  0
  125.2230  129.4180   62.9700 C   0  0  0  0  0  0  0  0  0  0  0  0
  126.5710  128.7140   63.2180 C   0  0  0  0  0  0  0  0  0  0  0  0
  127.5790  129.5570   64.0190 C   0  0  0  0  0  0  0  0  0  0  0  0
  127.4690  129.4560   65.5460 C   0  0  0  0  0  0  0  0  0  0  0  0
  126.1280  129.8650   66.1860 C   0  0  0  0  0  0  0  0  0  0  0  0
  124.8540  129.2620   65.5620 C   0  0  0  0  0  0  0  0  0  0  0  0
  126.0100  132.3500   62.1470 C   0  0  0  0  0  0  0  0  0  0  0  0
  126.1340  132.1510   60.7700 C   0  0  0  0  0  0  0  0  0  0  0  0
  127.3960  131.9890   60.2070 C   0  0  0  0  0  0  0  0  0  0  0  0
  128.5290  132.0290   61.0230 C   0  0  0  0  0  0  0  0  0  0  0  0
  130.1420  131.6810   60.3250 S   0  0  0  0  0  0  0  0  0  0  0  0
  131.1110  132.5530   61.0030 O   0  0  0  0  0  0  0  0  0  0  0  0
  130.0070  131.7200   58.8640 O   0  0  0  0  0  0  0  0  0  0  0  0
  130.4710  130.0050   60.8060 N   0  0  0  0  0  0  0  0  0  0  0  0
  129.6040  129.4970   61.9000 C   0  0  0  0  0  0  0  0  0  0  0  0
  130.1580  128.1700   62.4560 C   0  0  0  0  0  0  0  0  0  0  0  0
  130.3890  127.1280   61.3340 C   0  0  0  0  0  0  0  0  0  0  0  0
  130.9830  125.8190   61.8600 C   0  0  0  0  0  0  0  0  0  0  0  0
  131.9430  125.8510   62.8810 C   0  0  0  0  0  0  0  0  0  0  0  0
  132.5050  124.6820   63.3960 C   0  0  0  0  0  0  0  0  0  0  0  0
  133.4390  124.7330   64.3980 O   0  0  0  0  0  0  0  0  0  0  0  0
  132.0830  123.4540   62.8640 C   0  0  0  0  0  0  0  0  0  0  0  0
  132.4360  122.1730   63.1750 N   0  0  0  0  0  0  0  0  0  0  0  0
  131.7000  121.3320   62.3700 N   0  0  0  0  0  0  0  0  0  0  0  0
  130.9420  122.0850   61.5490 N   0  0  0  0  0  0  0  0  0  0  0  0
  129.9930  121.4520   60.6420 C   0  0  0  0  0  0  0  0  0  0  0  0
  128.8050  122.3470   60.3170 C   0  0  0  0  0  0  0  0  0  0  0  0
  128.5970  122.7870   59.0050 C   0  0  0  0  0  0  0  0  0  0  0  0
  127.4970  123.5900   58.6990 C   0  0  0  0  0  0  0  0  0  0  0  0
  126.5990  123.9550   59.7030 C   0  0  0  0  0  0  0  0  0  0  0  0
  126.8000  123.5180   61.0120 C   0  0  0  0  0  0  0  0  0  0  0  0
  125.6850  123.9600   62.2540 Cl  0  0  0  0  0  0  0  0  0  0  0  0
  127.9030  122.7180   61.3190 C   0  0  0  0  0  0  0  0  0  0  0  0
  131.1200  123.4300   61.8270 C   0  0  0  0  0  0  0  0  0  0  0  0
  130.5590  124.6010   61.3080 C   0  0  0  0  0  0  0  0  0  0  0  0
  131.1890  127.7150   60.1420 C   0  0  0  0  0  0  0  0  0  0  0  0
  130.6080  129.0610   59.6660 C   0  0  0  0  0  0  0  0  0  0  0  0
  128.4070  132.2700   62.3930 C   0  0  0  0  0  0  0  0  0  0  0  0
  127.1450  132.4270   62.9560 C   0  0  0  0  0  0  0  0  0  0  0  0
  1  2  2  0
  2  3  2  0
  2  4  1  0
  4  5  1  0
  5  6  1  0
  6  7  1  0
  7  8  1  0
  8  9  1  0
  9 10  1  0
 10 11  1  0
  2 12  1  0
 12 13  2  0
 13 14  1  0
 14 15  2  0
 15 16  1  0
 16 17  2  0
 16 18  2  0
 16 19  1  0
 19 20  1  0
 20 21  1  0
 21 22  1  0
 22 23  1  0
 23 24  2  0
 24 25  1  0
 25 26  1  0
 25 27  2  0
 27 28  1  0
 28 29  2  0
 29 30  1  0
 30 31  1  0
 31 32  1  0
 32 33  2  0
 33 34  1  0
 34 35  2  0
 35 36  1  0
 36 37  1  0
 36 38  2  0
 30 39  1  0
 39 40  2  0
 22 41  1  0
 41 42  1  0
 15 43  1  0
 43 44  2  0
 11  5  1  0
 44 12  1  0
 42 19  1  0
 40 23  1  0
 39 27  1  0
 38 32  1  0
M  END
>  <Binding energies>  (43) 
[-7.27]

>  <Ligand effiencies>  (43) 
[-0.15145833333333333]

>  <Interactions>  (43) 
["V-B:LEU:475:CD2:9230, V-B:GLY:454:CA:9020, V-B:GLY:453:C:9013, V-A:TYR:539:CE1:4873, V-A:TYR:539:CD1:4871, H-A:ALA:541:N:4889, V-A:PRO:540:CA:4881, V-A:ALA:541:CB:4890, V-B:PRO:540:C:9853, V-B:TYR:539:CE1:9847, V-B:TYR:539:C:9839, V-B:PRO:540:CA:9855, V-A:LEU:475:CD2:4256, V-B:TYR:539:CD1:9845, V-A:ASP:366:CG:3210, V-B:GLY:453:CA:9015, V-B:HIS:456:CE1:9040, V-B:GLU:543:CD:9880, H-B:GLY:454:N:9021, V-A:GLU:543:CD:4906, V-A:GLU:543:CB:4904, V-B:ARG:545:CZ:9898, V-B:ARG:545:CG:9894, V-A:ARG:545:CZ:4924, H-A:GLY:454:N:4047, V-B:ALA:541:CB:9864, V-B:TYR:484:CZ:9318, V-B:ALA:541:CA:9862, V-B:ARG:545:CD:9895, H-A:TYR:484:OH:4345, H-B:TYR:484:OH:9319"]

$$$$
RR18_Rahimova_2017
     RDKit          3D

 36 41  0  0  0  0  0  0  0  0999 V2000
  128.1600  122.5930   58.4590 C   0  0  0  0  0  0  0  0  0  0  0  0
  127.8760  123.6420   59.5050 C   0  0  0  0  0  0  0  0  0  0  0  0
  126.7610  124.3940   59.8400 C   0  0  0  0  0  0  0  0  0  0  0  0
  127.1310  125.2040   60.9140 C   0  0  0  0  0  0  0  0  0  0  0  0
  128.4560  124.9190   61.1950 C   0  0  0  0  0  0  0  0  0  0  0  0
  129.4520  125.4320   62.2320 C   0  0  1  0  0  0  0  0  0  0  0  0
  130.8120  124.6770   62.1420 C   0  0  0  0  0  0  0  0  0  0  0  0
  130.8860  123.2510   62.4480 C   0  0  0  0  0  0  0  0  0  0  0  0
  130.8320  122.8310   63.6050 O   0  0  0  0  0  0  0  0  0  0  0  0
  131.0010  122.4560   61.3590 N   0  0  0  0  0  0  0  0  0  0  0  0
  131.1180  121.0530   61.2610 C   0  0  0  0  0  0  0  0  0  0  0  0
  130.0490  120.1680   61.4940 C   0  0  0  0  0  0  0  0  0  0  0  0
  130.2330  118.7910   61.3870 C   0  0  0  0  0  0  0  0  0  0  0  0
  131.4820  118.2760   61.0560 C   0  0  0  0  0  0  0  0  0  0  0  0
  132.5520  119.1390   60.8340 C   0  0  0  0  0  0  0  0  0  0  0  0
  132.3830  120.5240   60.9360 C   0  0  0  0  0  0  0  0  0  0  0  0
  133.5890  121.4260   60.6880 C   0  0  0  0  0  0  0  0  0  0  0  0
  131.8960  125.3490   61.6760 C   0  0  0  0  0  0  0  0  0  0  0  0
  131.9200  126.6800   61.3870 N   0  0  0  0  0  0  0  0  0  0  0  0
  130.8870  127.3980   61.6340 C   0  0  0  0  0  0  0  0  0  0  0  0
  130.8210  129.1350   61.4590 S   0  0  0  0  0  0  0  0  0  0  0  0
  129.1250  129.1820   62.0360 C   0  0  0  0  0  0  0  0  0  0  0  0
  128.3270  130.2950   62.1860 C   0  0  0  0  0  0  0  0  0  0  0  0
  128.8720  131.6380   61.9410 C   0  0  0  0  0  0  0  0  0  0  0  0
  129.9950  131.9810   61.5720 O   0  0  0  0  0  0  0  0  0  0  0  0
  127.9030  132.5180   62.2130 N   0  0  0  0  0  0  0  0  0  0  0  0
  126.7360  131.9240   62.5880 C   0  0  0  0  0  0  0  0  0  0  0  0
  125.5320  132.5410   62.9250 C   0  0  0  0  0  0  0  0  0  0  0  0
  124.4370  131.7470   63.2520 C   0  0  0  0  0  0  0  0  0  0  0  0
  124.5610  130.3580   63.2270 C   0  0  0  0  0  0  0  0  0  0  0  0
  125.7780  129.7630   62.8860 C   0  0  0  0  0  0  0  0  0  0  0  0
  126.9030  130.5500   62.5760 C   0  0  0  0  0  0  0  0  0  0  0  0
  128.7150  127.8110   62.3440 C   0  0  0  0  0  0  0  0  0  0  0  0
  127.6370  127.4600   62.8120 O   0  0  0  0  0  0  0  0  0  0  0  0
  129.6980  126.9100   62.0720 N   0  0  0  0  0  0  0  0  0  0  0  0
  128.9030  123.9670   60.3320 O   0  0  0  0  0  0  0  0  0  0  0  0
  1  2  1  0
  2  3  2  0
  3  4  1  0
  4  5  2  0
  6  5  1  6
  6  7  1  0
  7  8  1  0
  8  9  2  0
  8 10  1  0
 10 11  1  0
 11 12  2  0
 12 13  1  0
 13 14  2  0
 14 15  1  0
 15 16  2  0
 16 17  1  0
  7 18  2  0
 18 19  1  0
 19 20  2  0
 20 21  1  0
 21 22  1  0
 22 23  2  0
 23 24  1  0
 24 25  2  0
 24 26  1  0
 26 27  1  0
 27 28  2  0
 28 29  1  0
 29 30  2  0
 30 31  1  0
 31 32  2  0
 22 33  1  0
 33 34  2  0
 33 35  1  0
  5 36  1  0
 36  2  1  0
 35  6  1  0
 16 11  1  0
 35 20  1  0
 32 23  1  0
 32 27  1  0
M  END
>  <Binding energies>  (44) 
[-7.92]

>  <Ligand effiencies>  (44) 
[-0.20842105263157895]

>  <Interactions>  (44) 
["V-B:LEU:475:CD2:9230, V-B:GLY:454:CA:9020, H-A:ALA:541:N:4889, V-A:ALA:541:CB:4890, V-B:TYR:539:CE1:9847, V-B:TYR:539:C:9839, V-B:PRO:540:N:9856, V-A:ILE:369:CD1:3236, V-B:PRO:540:CA:9855, V-A:LEU:475:CD2:4256, V-B:TYR:539:CD1:9845, H-B:ARG:545:NH2:9900, V-A:ILE:369:CG2:3234, V-B:GLU:543:CD:9880, H-A:ARG:545:NH2:4926, V-A:GLU:543:CD:4906, V-B:ARG:545:CZ:9898, V-A:SER:385:CA:3404, V-B:ALA:541:CB:9864, H-A:TYR:539:O:4866, H-A:TYR:484:OH:4345, V-A:LEU:373:CD1:3277, V-A:PRO:482:CB:4323, V-A:PRO:482:CG:4324"]

$$$$
RR20_Rahimova_2017
     RDKit          3D

 38 43  0  0  0  0  0  0  0  0999 V2000
  131.1410  117.3000   60.4360 C   0  0  0  0  0  0  0  0  0  0  0  0
  131.7300  118.6760   60.6910 C   0  0  0  0  0  0  0  0  0  0  0  0
  133.1070  118.8710   60.5890 C   0  0  0  0  0  0  0  0  0  0  0  0
  133.6490  120.1330   60.8140 C   0  0  0  0  0  0  0  0  0  0  0  0
  132.8200  121.2080   61.1560 C   0  0  0  0  0  0  0  0  0  0  0  0
  133.4260  122.5760   61.3760 C   0  0  0  0  0  0  0  0  0  0  0  0
  134.2230  122.7050   62.3080 O   0  0  0  0  0  0  0  0  0  0  0  0
  133.0860  123.6010   60.5400 N   0  0  0  0  0  0  0  0  0  0  0  0
  133.7470  123.7860   59.2380 C   0  0  0  0  0  0  0  0  0  0  0  0
  133.0080  124.9150   58.5390 C   0  0  0  0  0  0  0  0  0  0  0  0
  131.7460  125.0330   59.3380 C   0  0  0  0  0  0  0  0  0  0  0  0
  130.6370  125.8490   59.1150 C   0  0  0  0  0  0  0  0  0  0  0  0
  129.6150  125.9410   60.0680 C   0  0  0  0  0  0  0  0  0  0  0  0
  128.4160  126.8130   59.8240 C   0  0  0  0  0  0  0  0  0  0  0  0
  127.9490  127.5370   60.8290 N   0  0  0  0  0  0  0  0  0  0  0  0
  126.9180  128.2720   60.4980 C   0  0  0  0  0  0  0  0  0  0  0  0
  126.1970  129.1430   61.3010 N   0  0  0  0  0  0  0  0  0  0  0  0
  126.1760  129.1740   62.6560 C   0  0  0  0  0  0  0  0  0  0  0  0
  126.8340  128.4170   63.3730 O   0  0  0  0  0  0  0  0  0  0  0  0
  125.2920  130.2400   63.3450 C   0  0  0  0  0  0  0  0  0  0  0  0
  125.7550  131.6180   63.1000 N   0  0  0  0  0  0  0  0  0  0  0  0
  127.1010  131.6620   62.5100 C   0  0  0  0  0  0  0  0  0  0  0  0
  127.6420  133.1100   62.5230 C   0  0  0  0  0  0  0  0  0  0  0  0
  126.6160  134.1340   62.0360 C   0  0  0  0  0  0  0  0  0  0  0  0
  126.9980  135.4430   61.7230 C   0  0  0  0  0  0  0  0  0  0  0  0
  126.0580  136.3870   61.3160 C   0  0  0  0  0  0  0  0  0  0  0  0
  124.7180  136.0290   61.2150 C   0  0  0  0  0  0  0  0  0  0  0  0
  124.3250  134.7260   61.5140 C   0  0  0  0  0  0  0  0  0  0  0  0
  125.2590  133.7690   61.9250 C   0  0  0  0  0  0  0  0  0  0  0  0
  124.8370  132.3250   62.1980 C   0  0  0  0  0  0  0  0  0  0  0  0
  126.4220  128.1060   58.8590 S   0  0  0  0  0  0  0  0  0  0  0  0
  127.7060  126.9470   58.6110 C   0  0  0  0  0  0  0  0  0  0  0  0
  127.8780  126.2690   57.2690 C   0  0  0  0  0  0  0  0  0  0  0  0
  129.7600  125.2380   61.2740 C   0  0  0  0  0  0  0  0  0  0  0  0
  130.8770  124.4370   61.5090 C   0  0  0  0  0  0  0  0  0  0  0  0
  131.8500  124.2860   60.5120 C   0  0  0  0  0  0  0  0  0  0  0  0
  131.4350  121.0110   61.2270 C   0  0  0  0  0  0  0  0  0  0  0  0
  130.8920  119.7480   61.0010 C   0  0  0  0  0  0  0  0  0  0  0  0
  1  2  1  0
  2  3  2  0
  3  4  1  0
  4  5  2  0
  5  6  1  0
  6  7  2  0
  6  8  1  0
  8  9  1  0
  9 10  1  0
 10 11  1  0
 11 12  2  0
 12 13  1  0
 13 14  1  0
 14 15  1  0
 15 16  2  0
 16 17  1  0
 17 18  1  0
 18 19  2  0
 18 20  1  0
 20 21  1  0
 21 22  1  0
 22 23  1  0
 23 24  1  0
 24 25  2  0
 25 26  1  0
 26 27  2  0
 27 28  1  0
 28 29  2  0
 29 30  1  0
 16 31  1  0
 31 32  1  0
 32 33  1  0
 13 34  2  0
 34 35  1  0
 35 36  2  0
  5 37  1  0
 37 38  2  0
 38  2  1  0
 36  8  1  0
 36 11  1  0
 32 14  2  0
 30 21  1  0
 29 24  1  0
M  END
>  <Binding energies>  (45) 
[-9.03]

>  <Ligand effiencies>  (45) 
[-0.23153846153846153]

>  <Interactions>  (45) 
["V-B:LEU:475:CD2:9230, V-B:ASP:366:CB:8183, V-B:ILE:369:CG2:8208, V-A:TYR:539:CE1:4873, V-A:TYR:539:CD1:4871, V-B:ASP:366:CG:8184, V-A:ALA:541:CB:4890, V-B:TYR:539:CE1:9847, V-A:ILE:369:CD1:3236, V-A:LEU:475:CD2:4256, V-B:TYR:539:CD1:9845, V-A:ASP:366:CG:3210, H-B:ARG:545:NH2:9900, V-A:ILE:369:CG2:3234, V-A:ASP:366:CA:3207, V-A:ASP:366:CB:3209, V-A:ILE:369:CB:3233, V-B:ARG:545:CZ:9898, V-A:SER:385:CA:3404, H-A:GLY:454:N:4047, V-A:SER:385:C:3402, H-B:ASP:366:OD1:8185, V-A:SER:385:CB:3406, V-A:LEU:373:CD1:3277, V-B:SER:385:CA:8378, V-B:SER:385:CB:8380, V-B:LEU:373:CD1:8251, V-A:PRO:482:CB:4323, V-A:PRO:482:CG:4324, V-B:TYR:539:CB:9843, V-B:MET:535:CE:9807"]

$$$$
RR21_Rahimova_2017
     RDKit          3D

 40 45  0  0  0  0  0  0  0  0999 V2000
  123.4300  124.5260   57.6180 C   0  0  0  0  0  0  0  0  0  0  0  0
  123.6350  123.9510   58.9050 O   0  0  0  0  0  0  0  0  0  0  0  0
  124.9200  123.6480   59.3140 C   0  0  0  0  0  0  0  0  0  0  0  0
  125.9790  123.3560   58.4370 C   0  0  0  0  0  0  0  0  0  0  0  0
  127.2500  123.0640   58.9310 C   0  0  0  0  0  0  0  0  0  0  0  0
  127.4970  123.0590   60.3090 C   0  0  0  0  0  0  0  0  0  0  0  0
  128.8640  122.7500   60.8370 C   0  0  0  0  0  0  0  0  0  0  0  0
  129.4450  121.6090   60.5230 N   0  0  0  0  0  0  0  0  0  0  0  0
  130.6430  121.6070   61.1280 N   0  0  0  0  0  0  0  0  0  0  0  0
  131.5460  120.5220   60.9810 C   0  0  0  0  0  0  0  0  0  0  0  0
  131.0880  119.1960   61.0270 C   0  0  0  0  0  0  0  0  0  0  0  0
  131.9840  118.1400   60.8760 C   0  0  0  0  0  0  0  0  0  0  0  0
  133.3370  118.4050   60.6800 C   0  0  0  0  0  0  0  0  0  0  0  0
  133.8040  119.7160   60.6360 C   0  0  0  0  0  0  0  0  0  0  0  0
  132.9120  120.7740   60.7860 C   0  0  0  0  0  0  0  0  0  0  0  0
  130.8240  122.7760   61.8220 C   0  0  0  0  0  0  0  0  0  0  0  0
  129.6810  123.5460   61.6720 C   0  0  0  0  0  0  0  0  0  0  0  0
  129.4230  124.8830   62.1860 C   0  0  0  0  0  0  0  0  0  0  0  0
  129.7640  126.0710   61.6360 C   0  0  0  0  0  0  0  0  0  0  0  0
  130.6410  126.3600   60.1170 S   0  0  0  0  0  0  0  0  0  0  0  0
  130.4920  128.0920   60.3760 C   0  0  0  0  0  0  0  0  0  0  0  0
  130.9120  129.0510   59.6100 N   0  0  0  0  0  0  0  0  0  0  0  0
  130.7150  130.4210   59.9330 C   0  0  0  0  0  0  0  0  0  0  0  0
  131.0640  131.3860   59.2530 O   0  0  0  0  0  0  0  0  0  0  0  0
  129.9990  130.6410   61.2380 C   0  0  0  0  0  0  0  0  0  0  0  0
  129.7460  132.0820   61.7010 C   0  0  0  0  0  0  0  0  0  0  0  0
  128.2850  132.3930   62.0190 C   0  0  0  0  0  0  0  0  0  0  0  0
  127.5390  133.2040   61.1590 C   0  0  0  0  0  0  0  0  0  0  0  0
  126.2020  133.4740   61.4410 C   0  0  0  0  0  0  0  0  0  0  0  0
  125.6070  132.9330   62.5820 C   0  0  0  0  0  0  0  0  0  0  0  0
  124.1470  133.2210   62.8780 C   0  0  0  0  0  0  0  0  0  0  0  0
  126.3480  132.1130   63.4370 C   0  0  0  0  0  0  0  0  0  0  0  0
  127.6840  131.8430   63.1560 C   0  0  0  0  0  0  0  0  0  0  0  0
  129.5900  129.6750   61.9940 N   0  0  0  0  0  0  0  0  0  0  0  0
  129.8410  128.3710   61.5490 N   0  0  0  0  0  0  0  0  0  0  0  0
  129.4170  127.3220   62.2960 C   0  0  0  0  0  0  0  0  0  0  0  0
  128.8180  127.4200   63.3740 O   0  0  0  0  0  0  0  0  0  0  0  0
  126.4420  123.3440   61.1820 C   0  0  0  0  0  0  0  0  0  0  0  0
  125.1690  123.6360   60.6900 C   0  0  0  0  0  0  0  0  0  0  0  0
  124.1700  123.9080   61.5620 F   0  0  0  0  0  0  0  0  0  0  0  0
  1  2  1  0
  2  3  1  0
  3  4  2  0
  4  5  1  0
  5  6  2  0
  6  7  1  0
  7  8  2  0
  8  9  1  0
  9 10  1  0
 10 11  2  0
 11 12  1  0
 12 13  2  0
 13 14  1  0
 14 15  2  0
  9 16  1  0
 16 17  2  0
 17 18  1  0
 18 19  2  0
 19 20  1  0
 20 21  1  0
 21 22  2  0
 22 23  1  0
 23 24  2  0
 23 25  1  0
 25 26  1  0
 26 27  1  0
 27 28  2  0
 28 29  1  0
 29 30  2  0
 30 31  1  0
 30 32  1  0
 32 33  2  0
 25 34  2  0
 34 35  1  0
 35 36  1  0
 36 37  2  0
  6 38  1  0
 38 39  2  0
 39 40  1  0
 39  3  1  0
 17  7  1  0
 36 19  1  0
 15 10  1  0
 35 21  1  0
 33 27  1  0
M  END
>  <Binding energies>  (46) 
[-8.83]

>  <Ligand effiencies>  (46) 
[-0.22075]

>  <Interactions>  (46) 
["V-B:LEU:475:CD2:9230, V-B:ASP:366:CB:8183, V-B:GLY:454:CA:9020, V-A:TYR:539:CE1:4873, V-B:ILE:369:CD1:8210, V-A:TYR:539:CD1:4871, V-B:ASP:366:CG:8184, V-A:PRO:540:CA:4881, V-A:ALA:541:CB:4890, V-B:PRO:540:C:9853, V-B:TYR:539:CE1:9847, V-B:TYR:539:C:9839, V-B:PRO:540:N:9856, V-B:PRO:540:CA:9855, V-A:LEU:475:CD2:4256, V-B:TYR:539:CD1:9845, V-A:ASP:366:CG:3210, V-A:ILE:369:CG2:3234, V-B:GLU:543:CD:9880, V-B:ARG:545:CZ:9898, V-A:SER:385:CA:3404, V-A:SER:385:C:3402, V-B:PRO:540:CB:9857, V-B:TYR:531:CE2:9765, V-B:TYR:531:CZ:9766, V-B:ASN:362:CB:8147, V-A:SER:385:CB:3406, V-A:LEU:373:CD1:3277, V-B:LEU:363:CA:8156, V-B:LEU:363:CD1:8160, V-B:ASN:362:C:8143, V-B:ASN:362:CA:8145, H-B:LEU:363:N:8157, V-B:LEU:363:CB:8158, V-B:LEU:363:C:8154"]

$$$$
RR23_Rahimova_2017
     RDKit          3D

 39 44  0  0  0  0  0  0  0  0999 V2000
  127.5010  129.6230   66.6740 C   0  0  0  0  0  0  0  0  0  0  0  0
  126.6910  130.0170   65.4520 C   0  0  0  0  0  0  0  0  0  0  0  0
  125.4910  129.3640   65.1700 C   0  0  0  0  0  0  0  0  0  0  0  0
  124.7430  129.7330   64.0530 C   0  0  0  0  0  0  0  0  0  0  0  0
  125.1970  130.7500   63.2060 C   0  0  0  0  0  0  0  0  0  0  0  0
  124.3610  131.1500   62.0110 C   0  0  0  0  0  0  0  0  0  0  0  0
  123.4840  132.0000   62.1860 O   0  0  0  0  0  0  0  0  0  0  0  0
  124.6110  130.5770   60.7960 N   0  0  0  0  0  0  0  0  0  0  0  0
  124.1850  131.2170   59.5410 C   0  0  0  0  0  0  0  0  0  0  0  0
  124.7610  130.3750   58.4140 C   0  0  0  0  0  0  0  0  0  0  0  0
  125.7840  129.5340   59.1160 C   0  0  0  0  0  0  0  0  0  0  0  0
  126.6960  128.6260   58.5760 C   0  0  0  0  0  0  0  0  0  0  0  0
  127.4680  127.8120   59.4180 C   0  0  0  0  0  0  0  0  0  0  0  0
  128.4830  126.7990   58.8650 C   0  0  2  0  0  0  0  0  0  0  0  0
  129.1600  126.0740   59.9190 N   0  0  0  0  0  0  0  0  0  0  0  0
  130.3510  125.7680   59.5940 C   0  0  0  0  0  0  0  0  0  0  0  0
  131.2820  125.1130   60.3400 N   0  0  0  0  0  0  0  0  0  0  0  0
  131.2160  124.7560   61.6450 C   0  0  0  0  0  0  0  0  0  0  0  0
  130.2490  124.9370   62.3890 O   0  0  0  0  0  0  0  0  0  0  0  0
  132.4730  124.0760   62.2110 C   0  0  0  0  0  0  0  0  0  0  0  0
  132.5060  122.6670   61.7590 N   0  0  0  0  0  0  0  0  0  0  0  0
  133.7330  122.2220   61.2830 N   0  0  0  0  0  0  0  0  0  0  0  0
  133.8930  121.0090   60.8570 N   0  0  0  0  0  0  0  0  0  0  0  0
  132.8170  120.1190   60.8740 C   0  0  0  0  0  0  0  0  0  0  0  0
  133.0230  118.8190   60.4060 C   0  0  0  0  0  0  0  0  0  0  0  0
  131.9670  117.9070   60.4100 C   0  0  0  0  0  0  0  0  0  0  0  0
  130.7090  118.2910   60.8790 C   0  0  0  0  0  0  0  0  0  0  0  0
  130.5000  119.5900   61.3470 C   0  0  0  0  0  0  0  0  0  0  0  0
  131.5600  120.5040   61.3440 C   0  0  0  0  0  0  0  0  0  0  0  0
  131.3550  121.9160   61.8420 C   0  0  0  0  0  0  0  0  0  0  0  0
  130.2760  122.3450   62.2630 O   0  0  0  0  0  0  0  0  0  0  0  0
  130.9000  126.2610   57.9660 S   0  0  0  0  0  0  0  0  0  0  0  0
  129.5070  127.4010   57.8740 C   0  0  2  0  0  0  0  0  0  0  0  0
  130.0060  128.8290   58.1760 C   0  0  0  0  0  0  0  0  0  0  0  0
  127.2720  127.8920   60.8010 C   0  0  0  0  0  0  0  0  0  0  0  0
  126.3450  128.7850   61.3410 C   0  0  0  0  0  0  0  0  0  0  0  0
  125.6360  129.6520   60.4990 C   0  0  0  0  0  0  0  0  0  0  0  0
  126.3880  131.4210   63.5120 C   0  0  0  0  0  0  0  0  0  0  0  0
  127.1340  131.0520   64.6280 C   0  0  0  0  0  0  0  0  0  0  0  0
  1  2  1  0
  2  3  2  0
  3  4  1  0
  4  5  2  0
  5  6  1  0
  6  7  2  0
  6  8  1  0
  8  9  1  0
  9 10  1  0
 10 11  1  0
 11 12  2  0
 12 13  1  0
 14 13  1  1
 14 15  1  0
 15 16  2  0
 16 17  1  0
 17 18  1  0
 18 19  2  0
 18 20  1  0
 20 21  1  0
 21 22  1  0
 22 23  2  0
 23 24  1  0
 24 25  2  0
 25 26  1  0
 26 27  2  0
 27 28  1  0
 28 29  2  0
 29 30  1  0
 30 31  2  0
 16 32  1  0
 32 33  1  0
 33 34  1  1
 13 35  2  0
 35 36  1  0
 36 37  2  0
  5 38  1  0
 38 39  2  0
 39  2  1  0
 37  8  1  0
 37 11  1  0
 33 14  1  0
 30 21  1  0
 29 24  1  0
M  END
>  <Binding energies>  (47) 
[-8.72]

>  <Ligand effiencies>  (47) 
[-0.21800000000000003]

>  <Interactions>  (47) 
["V-A:TYR:539:CZ:4875, V-B:ASP:366:CB:8183, V-B:ILE:369:CG2:8208, V-A:TYR:539:CE1:4873, V-B:ILE:369:CD1:8210, V-B:ASP:366:CG:8184, V-B:TYR:539:CE1:9847, V-A:LEU:475:CD2:4256, V-B:TYR:539:CD1:9845, V-A:GLU:543:CG:4905, V-A:ILE:369:CG2:3234, V-B:HIS:456:CE1:9040, H-B:GLY:454:N:9021, V-A:GLU:543:CD:4906, V-B:ILE:369:CB:8207, V-A:GLU:543:CB:4904, V-B:ASP:366:CA:8181, V-B:ARG:545:CZ:9898, V-A:SER:385:CA:3404, V-B:ALA:541:CB:9864, V-B:TYR:484:CZ:9318, V-B:ARG:545:CD:9895, H-A:ASP:366:OD1:3211, V-A:SER:385:CB:3406, V-A:LEU:373:CD1:3277, V-A:PRO:482:CB:4323, V-A:PRO:482:CG:4324, V-B:TYR:539:CB:9843"]

$$$$
RR26_Rahimova_2017
     RDKit          3D

 38 44  0  0  0  0  0  0  0  0999 V2000
  126.6660  130.6130   64.1520 C   0  0  0  0  0  0  0  0  0  0  0  0
  127.2280  131.3880   62.9670 C   0  0  0  0  0  0  0  0  0  0  0  0
  127.0120  132.7690   62.9160 C   0  0  0  0  0  0  0  0  0  0  0  0
  127.5370  133.5330   61.8760 C   0  0  0  0  0  0  0  0  0  0  0  0
  128.2910  132.9220   60.8790 C   0  0  0  0  0  0  0  0  0  0  0  0
  128.5130  131.5470   60.9190 C   0  0  0  0  0  0  0  0  0  0  0  0
  127.9850  130.7600   61.9530 C   0  0  0  0  0  0  0  0  0  0  0  0
  128.2590  129.2840   61.9120 C   0  0  0  0  0  0  0  0  0  0  0  0
  129.4760  128.7810   62.0990 N   0  0  0  0  0  0  0  0  0  0  0  0
  129.2570  127.4980   61.9950 C   0  0  0  0  0  0  0  0  0  0  0  0
  130.2180  126.0690   62.0820 S   0  0  0  0  0  0  0  0  0  0  0  0
  128.7370  125.0830   61.7870 C   0  0  0  0  0  0  0  0  0  0  0  0
  128.6430  123.7370   61.6970 C   0  0  0  0  0  0  0  0  0  0  0  0
  129.7060  122.7540   61.8210 C   0  0  0  0  0  0  0  0  0  0  0  0
  129.8650  121.5700   61.1170 C   0  0  0  0  0  0  0  0  0  0  0  0
  131.0330  120.9840   61.5340 N   0  0  0  0  0  0  0  0  0  0  0  0
  131.6100  119.7650   61.0930 C   0  0  0  0  0  0  0  0  0  0  0  0
  130.8480  118.5890   61.0340 C   0  0  0  0  0  0  0  0  0  0  0  0
  131.4280  117.4000   60.6020 C   0  0  0  0  0  0  0  0  0  0  0  0
  132.7680  117.3820   60.2240 C   0  0  0  0  0  0  0  0  0  0  0  0
  133.5350  118.5440   60.2740 C   0  0  0  0  0  0  0  0  0  0  0  0
  132.9590  119.7340   60.7080 C   0  0  0  0  0  0  0  0  0  0  0  0
  131.6380  121.7540   62.4510 N   0  0  0  0  0  0  0  0  0  0  0  0
  130.8610  122.8030   62.6350 C   0  0  0  0  0  0  0  0  0  0  0  0
  131.2560  123.8620   63.6170 C   0  0  0  0  0  0  0  0  0  0  0  0
  132.5290  124.4490   63.5550 C   0  0  0  0  0  0  0  0  0  0  0  0
  132.9090  125.4340   64.4690 C   0  0  0  0  0  0  0  0  0  0  0  0
  132.0140  125.8390   65.4570 C   0  0  0  0  0  0  0  0  0  0  0  0
  130.7320  125.2730   65.5190 C   0  0  0  0  0  0  0  0  0  0  0  0
  130.3580  124.2850   64.6080 C   0  0  0  0  0  0  0  0  0  0  0  0
  129.8290  125.6120   66.5070 O   0  0  0  0  0  0  0  0  0  0  0  0
  130.1150  126.8520   67.1600 C   0  0  0  0  0  0  0  0  0  0  0  0
  131.6220  126.9540   67.4990 C   0  0  0  0  0  0  0  0  0  0  0  0
  132.4120  126.8490   66.3100 O   0  0  0  0  0  0  0  0  0  0  0  0
  127.5440  125.9090   61.6250 C   0  0  0  0  0  0  0  0  0  0  0  0
  126.3820  125.5620   61.4080 O   0  0  0  0  0  0  0  0  0  0  0  0
  127.9570  127.2430   61.7630 N   0  0  0  0  0  0  0  0  0  0  0  0
  127.2930  128.4010   61.7110 N   0  0  0  0  0  0  0  0  0  0  0  0
  1  2  1  0
  2  3  2  0
  3  4  1  0
  4  5  2  0
  5  6  1  0
  6  7  2  0
  7  8  1  0
  8  9  1  0
  9 10  2  0
 10 11  1  0
 11 12  1  0
 12 13  2  0
 13 14  1  0
 14 15  2  0
 15 16  1  0
 16 17  1  0
 17 18  2  0
 18 19  1  0
 19 20  2  0
 20 21  1  0
 21 22  2  0
 16 23  1  0
 23 24  2  0
 24 25  1  0
 25 26  2  0
 26 27  1  0
 27 28  2  0
 28 29  1  0
 29 30  2  0
 29 31  1  0
 31 32  1  0
 32 33  1  0
 33 34  1  0
 12 35  1  0
 35 36  2  0
 35 37  1  0
 37 38  1  0
  7  2  1  0
 38  8  2  0
 37 10  1  0
 24 14  1  0
 30 25  1  0
 22 17  1  0
 34 28  1  0
M  END
>  <Binding energies>  (48) 
[-7.68]

>  <Ligand effiencies>  (48) 
[-0.20210526315789473]

>  <Interactions>  (48) 
["V-B:LEU:475:CD2:9230, V-A:TYR:539:CE1:4873, V-A:TYR:539:CD1:4871, V-A:ALA:541:CB:4890, V-B:TYR:539:CE1:9847, V-A:LEU:475:CD2:4256, V-B:TYR:539:CD1:9845, V-A:GLU:543:CG:4905, H-B:ARG:545:NH2:9900, V-A:ILE:369:CG2:3234, V-B:GLU:543:CD:9880, V-B:GLU:543:CB:9878, V-A:HIS:456:CE1:4066, V-A:GLU:543:CD:4906, V-A:ARG:545:CZ:4924, V-A:ARG:545:CG:4920, V-A:SER:385:CA:3404, V-A:ARG:545:CD:4921, V-B:ALA:541:CB:9864, H-A:ARG:545:NE:4922, V-A:SER:385:CB:3406, V-A:LEU:373:CD1:3277, V-A:PRO:482:CB:4323, V-A:PRO:482:CG:4324"]

$$$$
RR2_Rahimova_2017
     RDKit          3D

 46 50  0  0  0  0  0  0  0  0999 V2000
  122.9940  124.6600   57.6090 C   0  0  0  0  0  0  0  0  0  0  0  0
  123.5290  123.4100   58.0280 O   0  0  0  0  0  0  0  0  0  0  0  0
  124.8580  123.3370   58.4050 C   0  0  0  0  0  0  0  0  0  0  0  0
  125.3390  123.6770   59.6760 C   0  0  0  0  0  0  0  0  0  0  0  0
  126.6980  123.5750   59.9640 C   0  0  0  0  0  0  0  0  0  0  0  0
  127.6050  123.1340   58.9900 C   0  0  0  0  0  0  0  0  0  0  0  0
  129.0800  123.0380   59.3270 C   0  0  0  0  0  0  0  0  0  0  0  0
  129.8980  123.7690   58.7580 O   0  0  0  0  0  0  0  0  0  0  0  0
  129.4140  122.1110   60.2550 N   0  0  0  0  0  0  0  0  0  0  0  0
  130.7630  121.9170   60.5330 N   0  0  0  0  0  0  0  0  0  0  0  0
  131.1530  120.7110   60.9910 C   0  0  0  0  0  0  0  0  0  0  0  0
  130.3880  119.8140   61.3550 O   0  0  0  0  0  0  0  0  0  0  0  0
  132.6690  120.4740   61.0220 C   0  0  0  0  0  0  0  0  0  0  0  0
  133.6560  121.8600   61.6970 S   0  0  0  0  0  0  0  0  0  0  0  0
  133.0500  123.1990   60.7160 C   0  0  0  0  0  0  0  0  0  0  0  0
  133.1650  123.2370   59.4120 N   0  0  0  0  0  0  0  0  0  0  0  0
  132.6510  124.4530   58.9830 N   0  0  0  0  0  0  0  0  0  0  0  0
  132.2180  125.0930   60.0430 C   0  0  0  0  0  0  0  0  0  0  0  0
  131.5770  126.4420   59.9830 C   0  0  0  0  0  0  0  0  0  0  0  0
  131.3400  127.1510   61.1640 C   0  0  0  0  0  0  0  0  0  0  0  0
  130.7370  128.4040   61.1190 C   0  0  0  0  0  0  0  0  0  0  0  0
  130.3800  128.9690   59.8890 C   0  0  0  0  0  0  0  0  0  0  0  0
  129.7600  130.2230   59.7840 N   0  0  0  0  0  0  0  0  0  0  0  0
  129.8130  131.4860   61.0340 S   0  0  0  0  0  0  0  0  0  0  0  0
  129.3920  132.7270   60.3720 O   0  0  0  0  0  0  0  0  0  0  0  0
  131.1110  131.4000   61.7130 O   0  0  0  0  0  0  0  0  0  0  0  0
  128.5180  131.0540   62.1930 C   0  0  0  0  0  0  0  0  0  0  0  0
  127.9260  132.0320   62.9960 C   0  0  0  0  0  0  0  0  0  0  0  0
  126.9320  131.6720   63.9020 C   0  0  0  0  0  0  0  0  0  0  0  0
  126.5270  130.3390   64.0010 C   0  0  0  0  0  0  0  0  0  0  0  0
  125.4530  129.9470   65.0000 C   0  0  0  0  0  0  0  0  0  0  0  0
  127.1230  129.3630   63.1990 C   0  0  0  0  0  0  0  0  0  0  0  0
  128.1180  129.7210   62.2940 C   0  0  0  0  0  0  0  0  0  0  0  0
  130.6200  128.2610   58.7110 C   0  0  0  0  0  0  0  0  0  0  0  0
  131.2170  127.0050   58.7550 C   0  0  0  0  0  0  0  0  0  0  0  0
  132.4460  124.3490   61.1890 N   0  0  0  0  0  0  0  0  0  0  0  0
  132.1710  124.6950   62.5280 C   0  0  0  0  0  0  0  0  0  0  0  0
  133.2110  125.0810   63.3750 C   0  0  0  0  0  0  0  0  0  0  0  0
  132.9320  125.4260   64.6950 C   0  0  0  0  0  0  0  0  0  0  0  0
  131.6230  125.3870   65.1780 C   0  0  0  0  0  0  0  0  0  0  0  0
  131.4460  125.7450   66.5010 O   0  0  0  0  0  0  0  0  0  0  0  0
  130.1560  126.1570   66.9430 C   0  0  0  0  0  0  0  0  0  0  0  0
  130.5830  124.9970   64.3190 C   0  0  0  0  0  0  0  0  0  0  0  0
  130.8560  124.6530   62.9980 C   0  0  0  0  0  0  0  0  0  0  0  0
  127.1140  122.7900   57.7210 C   0  0  0  0  0  0  0  0  0  0  0  0
  125.7550  122.8910   57.4370 C   0  0  0  0  0  0  0  0  0  0  0  0
  1  2  1  0
  2  3  1  0
  3  4  2  0
  4  5  1  0
  5  6  2  0
  6  7  1  0
  7  8  2  0
  7  9  1  0
  9 10  1  0
 10 11  1  0
 11 12  2  0
 11 13  1  0
 13 14  1  0
 14 15  1  0
 15 16  2  0
 16 17  1  0
 17 18  2  0
 18 19  1  0
 19 20  2  0
 20 21  1  0
 21 22  2  0
 22 23  1  0
 23 24  1  0
 24 25  2  0
 24 26  2  0
 24 27  1  0
 27 28  2  0
 28 29  1  0
 29 30  2  0
 30 31  1  0
 30 32  1  0
 32 33  2  0
 22 34  1  0
 34 35  2  0
 18 36  1  0
 36 37  1  0
 37 38  2  0
 38 39  1  0
 39 40  2  0
 40 41  1  0
 41 42  1  0
 40 43  1  0
 43 44  2  0
  6 45  1  0
 45 46  2  0
 46  3  1  0
 36 15  1  0
 44 37  1  0
 35 19  1  0
 33 27  1  0
M  END
>  <Binding energies>  (49) 
[-9.75]

>  <Ligand effiencies>  (49) 
[-0.1989795918367347]

>  <Interactions>  (49) 
["V-B:ASP:366:CB:8183, V-B:ASP:366:CG:8184, H-A:ALA:541:N:4889, V-A:ALA:541:CB:4890, V-B:TYR:539:CE1:9847, V-B:TYR:539:C:9839, V-B:PRO:540:N:9856, V-B:PRO:540:CA:9855, V-A:LEU:475:CD2:4256, V-B:TYR:539:CD1:9845, V-A:ASP:366:CG:3210, V-A:ILE:369:CG2:3234, V-B:GLU:543:CD:9880, V-B:GLU:543:CB:9878, V-B:GLU:543:CG:9879, V-A:HIS:456:CE1:4066, V-A:ASP:366:CB:3209, V-B:ARG:545:CZ:9898, V-A:ARG:545:CZ:4924, V-A:ARG:545:CD:4921, V-B:PRO:540:CD:9859, V-B:PRO:540:CB:9857, V-B:TYR:531:CE2:9765, V-B:TYR:531:CZ:9766, H-A:TYR:484:OH:4345, H-B:TYR:539:OH:9850, V-B:LEU:363:CA:8156, V-B:LEU:363:CD1:8160, H-B:TYR:539:O:9840, V-B:LEU:363:CB:8158, V-B:LEU:363:CG:8159, V-B:LEU:363:C:8154"]

$$$$
RR33_Rahimova_2017
     RDKit          3D

 18 19  0  0  0  0  0  0  0  0999 V2000
  127.4560  129.9290   74.9630 C   0  0  0  0  0  0  0  0  0  0  0  0
  127.4910  128.5130   75.5450 C   0  0  0  0  0  0  0  0  0  0  0  0
  128.6180  127.8250   75.0090 O   0  0  0  0  0  0  0  0  0  0  0  0
  128.7910  127.7730   73.6390 C   0  0  0  0  0  0  0  0  0  0  0  0
  127.6720  127.4260   72.8830 C   0  0  0  0  0  0  0  0  0  0  0  0
  127.7520  127.3450   71.4960 C   0  0  0  0  0  0  0  0  0  0  0  0
  128.9580  127.6120   70.8410 C   0  0  0  0  0  0  0  0  0  0  0  0
  129.0430  127.5230   69.3510 C   0  0  0  0  0  0  0  0  0  0  0  0
  129.7380  126.6670   68.6360 N   0  0  0  0  0  0  0  0  0  0  0  0
  129.4920  126.9840   67.3740 C   0  0  0  0  0  0  0  0  0  0  0  0
  130.1170  126.2010   66.2390 C   0  0  0  0  0  0  0  0  0  0  0  0
  131.2280  125.3950   66.7220 N   0  0  0  0  0  0  0  0  0  0  0  0
  132.4880  125.8860   66.1890 C   0  0  0  0  0  0  0  0  0  0  0  0
  128.6220  128.0660   67.3260 C   0  0  0  0  0  0  0  0  0  0  0  0
  127.9740  128.8750   66.2290 C   0  0  0  0  0  0  0  0  0  0  0  0
  128.3360  128.4100   68.6030 O   0  0  0  0  0  0  0  0  0  0  0  0
  130.0820  127.9640   71.5950 C   0  0  0  0  0  0  0  0  0  0  0  0
  130.0030  128.0440   72.9830 C   0  0  0  0  0  0  0  0  0  0  0  0
  1  2  1  0
  2  3  1  0
  3  4  1  0
  4  5  2  0
  5  6  1  0
  6  7  2  0
  7  8  1  0
  8  9  2  0
  9 10  1  0
 10 11  1  0
 11 12  1  0
 12 13  1  0
 10 14  2  0
 14 15  1  0
 14 16  1  0
  7 17  1  0
 17 18  2  0
 18  4  1  0
 16  8  1  0
M  END
>  <Binding energies>  (50) 
[-5.12]

>  <Ligand effiencies>  (50) 
[-0.2694736842105263]

>  <Interactions>  (50) 
["V-A:GLU:543:CG:4905, V-B:HIS:456:CE1:9040, V-B:GLU:543:CD:9880, V-B:GLU:543:CB:9878, V-B:GLU:543:CG:9879, V-A:HIS:456:CE1:4066, V-A:GLU:543:CD:4906, V-A:GLU:543:CB:4904, V-B:GLY:544:C:9884, V-A:ARG:545:CZ:4924, V-A:ARG:545:CG:4920, V-A:ARG:545:CD:4921, H-A:HIS:456:NE2:4067, H-B:HIS:456:NE2:9041, V-A:GLY:544:C:4910, H-A:TYR:484:OH:4345, V-A:GLY:544:CA:4912, V-A:GLU:543:C:4900, V-B:HIS:456:CD2:9039, V-B:HIS:456:CG:9037, V-A:LYS:547:CE:4948, V-B:GLY:544:CA:9886, H-B:LYS:547:NZ:9923, H-A:LYS:547:NZ:4949, V-B:LYS:547:CE:9922, V-B:HIS:456:CB:9036"]

$$$$
RR3_Rahimova_2017
     RDKit          3D

 38 44  0  0  0  0  0  0  0  0999 V2000
  126.3040  133.1750   61.3060 C   0  0  0  0  0  0  0  0  0  0  0  0
  125.6270  131.9920   61.5830 C   0  0  0  0  0  0  0  0  0  0  0  0
  126.3440  130.8580   61.9550 C   0  0  0  0  0  0  0  0  0  0  0  0
  127.7430  130.8910   62.0560 C   0  0  0  0  0  0  0  0  0  0  0  0
  128.5130  129.6720   62.4580 C   0  0  0  0  0  0  0  0  0  0  0  0
  128.0290  128.8100   63.4520 C   0  0  0  0  0  0  0  0  0  0  0  0
  128.7470  127.6780   63.8270 C   0  0  0  0  0  0  0  0  0  0  0  0
  129.9720  127.3850   63.2210 C   0  0  0  0  0  0  0  0  0  0  0  0
  130.7510  126.1730   63.6240 C   0  0  0  0  0  0  0  0  0  0  0  0
  131.2540  125.3670   62.6950 N   0  0  0  0  0  0  0  0  0  0  0  0
  131.9150  124.4290   63.3300 C   0  0  0  0  0  0  0  0  0  0  0  0
  132.6310  123.3270   62.6940 C   0  0  0  0  0  0  0  0  0  0  0  0
  134.0010  123.2510   62.5080 C   0  0  0  0  0  0  0  0  0  0  0  0
  134.3300  122.0750   61.8870 N   0  0  0  0  0  0  0  0  0  0  0  0
  133.1910  121.3400   61.6420 C   0  0  0  0  0  0  0  0  0  0  0  0
  133.0230  120.0900   61.0370 C   0  0  0  0  0  0  0  0  0  0  0  0
  131.7190  119.6060   60.9340 C   0  0  0  0  0  0  0  0  0  0  0  0
  130.6290  120.3280   61.4080 C   0  0  0  0  0  0  0  0  0  0  0  0
  130.7960  121.5730   62.0120 C   0  0  0  0  0  0  0  0  0  0  0  0
  132.0910  122.1070   62.1410 C   0  0  0  0  0  0  0  0  0  0  0  0
  131.8420  124.6110   64.6830 N   0  0  0  0  0  0  0  0  0  0  0  0
  131.0730  125.7220   64.9150 C   0  0  0  0  0  0  0  0  0  0  0  0
  130.7250  126.1950   66.2890 C   0  0  0  0  0  0  0  0  0  0  0  0
  131.6120  127.0080   66.9950 C   0  0  0  0  0  0  0  0  0  0  0  0
  131.2960  127.4400   68.2800 C   0  0  0  0  0  0  0  0  0  0  0  0
  130.0860  127.0740   68.8860 C   0  0  0  0  0  0  0  0  0  0  0  0
  129.7590  127.5240   70.2750 C   0  0  0  0  0  0  0  0  0  0  0  0
  128.4260  127.6450   70.6970 C   0  0  0  0  0  0  0  0  0  0  0  0
  128.1210  128.0600   71.9910 C   0  0  0  0  0  0  0  0  0  0  0  0
  129.1500  128.3570   72.8800 C   0  0  0  0  0  0  0  0  0  0  0  0
  130.4780  128.2420   72.4840 C   0  0  0  0  0  0  0  0  0  0  0  0
  130.7790  127.8290   71.1890 C   0  0  0  0  0  0  0  0  0  0  0  0
  129.1960  126.2710   68.1590 C   0  0  0  0  0  0  0  0  0  0  0  0
  129.5080  125.8370   66.8740 C   0  0  0  0  0  0  0  0  0  0  0  0
  130.4550  128.2300   62.2200 C   0  0  0  0  0  0  0  0  0  0  0  0
  129.7350  129.3620   61.8470 C   0  0  0  0  0  0  0  0  0  0  0  0
  128.4040  132.0950   61.7710 C   0  0  0  0  0  0  0  0  0  0  0  0
  127.6910  133.2310   61.3980 C   0  0  0  0  0  0  0  0  0  0  0  0
  1  2  2  0
  2  3  1  0
  3  4  2  0
  4  5  1  0
  5  6  2  0
  6  7  1  0
  7  8  2  0
  8  9  1  0
  9 10  1  0
 10 11  2  0
 11 12  1  0
 12 13  2  0
 13 14  1  0
 14 15  1  0
 15 16  2  0
 16 17  1  0
 17 18  2  0
 18 19  1  0
 19 20  2  0
 11 21  1  0
 21 22  1  0
 22 23  1  0
 23 24  2  0
 24 25  1  0
 25 26  2  0
 26 27  1  0
 27 28  2  0
 28 29  1  0
 29 30  2  0
 30 31  1  0
 31 32  2  0
 26 33  1  0
 33 34  2  0
  8 35  1  0
 35 36  2  0
  4 37  1  0
 37 38  2  0
 38  1  1  0
 36  5  1  0
 22  9  2  0
 34 23  1  0
 20 12  1  0
 32 27  1  0
 20 15  1  0
M  END
>  <Binding energies>  (51) 
[-6.27]

>  <Ligand effiencies>  (51) 
[-0.15675]

>  <Interactions>  (51) 
["V-A:TYR:539:CE1:4873, V-A:TYR:539:CD1:4871, V-A:ALA:541:CB:4890, V-B:TYR:539:CE1:9847, V-A:ILE:369:CD1:3236, V-A:GLY:453:C:4039, V-A:LEU:475:CD2:4256, V-B:TYR:539:CD1:9845, V-A:GLY:454:CA:4046, V-A:GLU:543:CG:4905, V-A:ILE:369:CG2:3234, V-B:HIS:456:CE1:9040, V-B:GLU:543:CD:9880, V-B:GLU:543:CB:9878, V-B:GLU:543:CG:9879, V-A:HIS:456:CE1:4066, V-A:GLU:543:CD:4906, V-B:GLU:543:C:9874, V-A:ARG:545:CG:4920, V-A:SER:385:CA:3404, V-A:ARG:545:CD:4921, V-B:ALA:541:CB:9864, V-A:GLY:544:C:4910, H-A:TYR:484:OH:4345, V-A:GLY:544:CA:4912, V-A:GLU:543:C:4900, V-B:HIS:456:CD2:9039, V-B:HIS:456:CG:9037, V-A:LYS:547:CE:4948, H-A:SER:385:O:3403"]

$$$$
RR4_Rahimova_2017
     RDKit          3D

 40 44  0  0  0  0  0  0  0  0999 V2000
  132.5580  125.4520   65.4700 C   0  0  0  0  0  0  0  0  0  0  0  0
  132.5490  125.1190   64.0860 O   0  0  0  0  0  0  0  0  0  0  0  0
  131.6360  125.7340   63.2510 C   0  0  0  0  0  0  0  0  0  0  0  0
  130.3680  125.9730   63.7770 C   0  0  0  0  0  0  0  0  0  0  0  0
  129.3850  126.5890   63.0100 C   0  0  0  0  0  0  0  0  0  0  0  0
  129.6400  126.9830   61.6880 C   0  0  0  0  0  0  0  0  0  0  0  0
  128.5760  127.6470   60.8610 C   0  0  0  0  0  0  0  0  0  0  0  0
  127.8380  128.7440   61.3160 C   0  0  0  0  0  0  0  0  0  0  0  0
  126.8580  129.3310   60.5050 C   0  0  0  0  0  0  0  0  0  0  0  0
  126.1300  130.5180   61.0470 C   0  0  0  0  0  0  0  0  0  0  0  0
  126.6610  131.8010   60.8870 C   0  0  0  0  0  0  0  0  0  0  0  0
  125.9840  132.9140   61.3780 C   0  0  0  0  0  0  0  0  0  0  0  0
  124.7610  132.7670   62.0330 C   0  0  0  0  0  0  0  0  0  0  0  0
  124.1610  133.9260   62.4860 O   0  0  0  0  0  0  0  0  0  0  0  0
  124.1730  135.0840   61.6570 C   0  0  0  0  0  0  0  0  0  0  0  0
  124.2210  131.4820   62.1910 C   0  0  0  0  0  0  0  0  0  0  0  0
  124.9000  130.3700   61.6980 C   0  0  0  0  0  0  0  0  0  0  0  0
  126.6130  128.7700   59.2280 C   0  0  0  0  0  0  0  0  0  0  0  0
  125.6000  129.3450   58.3390 C   0  0  0  0  0  0  0  0  0  0  0  0
  124.8000  129.8000   57.6370 N   0  0  0  0  0  0  0  0  0  0  0  0
  127.3760  127.6420   58.8440 C   0  0  0  0  0  0  0  0  0  0  0  0
  127.1950  126.8020   57.2850 S   0  0  0  0  0  0  0  0  0  0  0  0
  126.5390  125.1340   57.6250 C   0  0  0  0  0  0  0  0  0  0  0  0
  127.5420  124.1760   58.2820 C   0  0  0  0  0  0  0  0  0  0  0  0
  127.2920  122.9720   58.3720 O   0  0  0  0  0  0  0  0  0  0  0  0
  128.6690  124.7660   58.7450 N   0  0  0  0  0  0  0  0  0  0  0  0
  129.7610  124.1730   59.3830 C   0  0  0  0  0  0  0  0  0  0  0  0
  131.3950  124.3110   58.7920 S   0  0  0  0  0  0  0  0  0  0  0  0
  132.0080  123.3410   60.0950 C   0  0  0  0  0  0  0  0  0  0  0  0
  130.9800  122.9220   60.9550 C   0  0  0  0  0  0  0  0  0  0  0  0
  129.7110  123.4080   60.5580 C   0  0  0  0  0  0  0  0  0  0  0  0
  128.4800  123.1320   61.2930 C   0  0  0  0  0  0  0  0  0  0  0  0
  127.5040  122.9120   61.8750 N   0  0  0  0  0  0  0  0  0  0  0  0
  131.2720  122.0840   62.2050 C   0  0  0  0  0  0  0  0  0  0  0  0
  132.7750  122.1390   62.5610 C   0  0  0  0  0  0  0  0  0  0  0  0
  133.6710  121.9340   61.3270 C   0  0  0  0  0  0  0  0  0  0  0  0
  133.4930  123.0620   60.2880 C   0  0  0  0  0  0  0  0  0  0  0  0
  128.3390  127.1150   59.6350 N   0  0  0  0  0  0  0  0  0  0  0  0
  130.9210  126.7420   61.1670 C   0  0  0  0  0  0  0  0  0  0  0  0
  131.9070  126.1260   61.9320 C   0  0  0  0  0  0  0  0  0  0  0  0
  1  2  1  0
  2  3  1  0
  3  4  2  0
  4  5  1  0
  5  6  2  0
  6  7  1  0
  7  8  2  0
  8  9  1  0
  9 10  1  0
 10 11  2  0
 11 12  1  0
 12 13  2  0
 13 14  1  0
 14 15  1  0
 13 16  1  0
 16 17  2  0
  9 18  2  0
 18 19  1  0
 19 20  3  0
 18 21  1  0
 21 22  1  0
 22 23  1  0
 23 24  1  0
 24 25  2  0
 24 26  1  0
 26 27  1  0
 27 28  1  0
 28 29  1  0
 29 30  2  0
 30 31  1  0
 31 32  1  0
 32 33  3  0
 30 34  1  0
 34 35  1  0
 35 36  1  0
 36 37  1  0
 21 38  2  0
  6 39  1  0
 39 40  2  0
 40  3  1  0
 38  7  1  0
 17 10  1  0
 31 27  2  0
 37 29  1  0
M  END
>  <Binding energies>  (52) 
[-7.68]

>  <Ligand effiencies>  (52) 
[-0.1873170731707317]

>  <Interactions>  (52) 
["V-B:LEU:475:CD2:9230, V-B:ASP:366:CB:8183, H-A:TYR:539:OH:4876, V-B:ILE:369:CG2:8208, V-A:TYR:539:CE1:4873, V-B:ILE:369:CD1:8210, V-A:TYR:539:CD1:4871, V-B:ASP:366:CG:8184, V-B:TYR:539:CE1:9847, H-B:ALA:541:N:9863, V-A:ILE:369:CD1:3236, V-A:LEU:475:CD2:4256, V-A:GLY:454:CA:4046, V-A:ASP:366:CG:3210, V-A:ILE:369:CG2:3234, V-B:GLU:543:CD:9880, H-A:ARG:545:NH2:4926, V-A:ILE:369:CB:3233, V-A:ARG:545:CZ:4924, V-A:ARG:545:CD:4921, V-B:ALA:541:CB:9864, V-B:TYR:539:CZ:9849, H-A:TYR:484:OH:4345, V-B:SER:385:CA:8378, V-B:SER:385:CB:8380, V-B:SER:385:C:8376, H-B:TYR:531:OH:9767"]

$$$$
RR6_Rahimova_2017
     RDKit          3D

 38 41  0  0  0  0  0  0  0  0999 V2000
  132.9490  131.4780   58.2080 C   0  0  0  0  0  0  0  0  0  0  0  0
  131.8510  132.0790   58.8810 O   0  0  0  0  0  0  0  0  0  0  0  0
  131.2930  131.4910   59.9710 C   0  0  0  0  0  0  0  0  0  0  0  0
  131.4560  131.9040   61.1240 O   0  0  0  0  0  0  0  0  0  0  0  0
  130.4570  130.2900   59.6350 C   0  0  0  0  0  0  0  0  0  0  0  0
  129.2740  130.3920   58.8890 C   0  0  0  0  0  0  0  0  0  0  0  0
  128.5170  129.2590   58.6010 C   0  0  0  0  0  0  0  0  0  0  0  0
  128.9310  128.0000   59.0600 C   0  0  0  0  0  0  0  0  0  0  0  0
  128.2290  126.7980   58.8510 N   0  0  0  0  0  0  0  0  0  0  0  0
  126.9310  126.6110   58.5240 C   0  0  0  0  0  0  0  0  0  0  0  0
  126.1070  127.5050   58.3340 O   0  0  0  0  0  0  0  0  0  0  0  0
  126.4710  125.1510   58.4520 C   0  0  0  0  0  0  0  0  0  0  0  0
  126.7980  124.2030   59.9760 S   0  0  0  0  0  0  0  0  0  0  0  0
  127.6310  125.3070   61.0980 C   0  0  0  0  0  0  0  0  0  0  0  0
  127.0020  126.4920   61.2850 N   0  0  0  0  0  0  0  0  0  0  0  0
  127.5260  127.4050   62.1410 C   0  0  0  0  0  0  0  0  0  0  0  0
  126.7360  128.6650   62.3380 C   0  0  0  0  0  0  0  0  0  0  0  0
  126.6180  129.2540   63.6070 C   0  0  0  0  0  0  0  0  0  0  0  0
  125.8740  130.4160   63.7910 C   0  0  0  0  0  0  0  0  0  0  0  0
  125.2370  131.0160   62.7060 C   0  0  0  0  0  0  0  0  0  0  0  0
  124.4190  132.2780   62.9140 C   0  0  0  0  0  0  0  0  0  0  0  0
  125.3420  130.4490   61.4390 C   0  0  0  0  0  0  0  0  0  0  0  0
  126.0880  129.2880   61.2600 C   0  0  0  0  0  0  0  0  0  0  0  0
  128.7170  127.1420   62.8250 C   0  0  0  0  0  0  0  0  0  0  0  0
  129.3900  125.9250   62.6460 C   0  0  0  0  0  0  0  0  0  0  0  0
  130.6460  125.7030   63.4210 C   0  0  0  0  0  0  0  0  0  0  0  0
  131.8580  125.5040   62.7530 C   0  0  0  0  0  0  0  0  0  0  0  0
  133.0370  125.3120   63.4690 C   0  0  0  0  0  0  0  0  0  0  0  0
  133.0290  125.3210   64.8620 C   0  0  0  0  0  0  0  0  0  0  0  0
  134.2460  125.1250   65.4880 O   0  0  0  0  0  0  0  0  0  0  0  0
  134.3040  125.1350   66.9100 C   0  0  0  0  0  0  0  0  0  0  0  0
  131.8170  125.5270   65.5380 C   0  0  0  0  0  0  0  0  0  0  0  0
  130.6390  125.7190   64.8190 C   0  0  0  0  0  0  0  0  0  0  0  0
  128.8360  124.9770   61.7500 C   0  0  0  0  0  0  0  0  0  0  0  0
  129.5030  123.6960   61.4940 C   0  0  0  0  0  0  0  0  0  0  0  0
  130.0290  122.6850   61.2940 N   0  0  0  0  0  0  0  0  0  0  0  0
  130.1160  127.8920   59.7880 C   0  0  0  0  0  0  0  0  0  0  0  0
  130.8710  129.0260   60.0780 C   0  0  0  0  0  0  0  0  0  0  0  0
  1  2  1  0
  2  3  1  0
  3  4  2  0
  3  5  1  0
  5  6  2  0
  6  7  1  0
  7  8  2  0
  8  9  1  0
  9 10  1  0
 10 11  2  0
 10 12  1  0
 12 13  1  0
 13 14  1  0
 14 15  2  0
 15 16  1  0
 16 17  1  0
 17 18  2  0
 18 19  1  0
 19 20  2  0
 20 21  1  0
 20 22  1  0
 22 23  2  0
 16 24  2  0
 24 25  1  0
 25 26  1  0
 26 27  2  0
 27 28  1  0
 28 29  2  0
 29 30  1  0
 30 31  1  0
 29 32  1  0
 32 33  2  0
 25 34  2  0
 34 35  1  0
 35 36  3  0
  8 37  1  0
 37 38  2  0
 38  5  1  0
 34 14  1  0
 23 17  1  0
 33 26  1  0
M  END
>  <Binding energies>  (53) 
[-6.64]

>  <Ligand effiencies>  (53) 
[-0.17025641025641025]

>  <Interactions>  (53) 
["V-B:GLY:454:CA:9020, V-B:ASP:366:CG:8184, V-A:PRO:540:CB:4883, H-A:ALA:541:N:4889, V-A:PRO:540:CA:4881, V-A:GLY:454:CA:4046, V-A:ASP:366:CG:3210, H-B:ARG:545:NH2:9900, V-B:GLU:543:CD:9880, V-A:HIS:456:CE1:4066, V-A:TYR:484:CZ:4344, V-B:ARG:545:CZ:9898, V-A:ARG:545:CZ:4924, V-A:ARG:545:CG:4920, H-A:GLY:454:N:4047, V-A:ARG:545:CD:4921, H-A:TYR:484:OH:4345, H-A:ARG:545:NE:4922, V-A:ARG:545:CB:4919, H-B:TYR:531:OH:9767, V-A:GLY:454:C:4044, V-A:ILE:455:C:4049"]

$$$$
RR7_Rahimova_2017
     RDKit          3D

 47 53  0  0  0  0  0  0  0  0999 V2000
  124.5290  135.3560   61.0650 C   0  0  0  0  0  0  0  0  0  0  0  0
  125.6070  135.0130   61.9290 O   0  0  0  0  0  0  0  0  0  0  0  0
  126.4700  133.9990   61.5590 C   0  0  0  0  0  0  0  0  0  0  0  0
  125.8880  132.8510   61.0230 C   0  0  0  0  0  0  0  0  0  0  0  0
  126.6770  131.7800   60.6170 C   0  0  0  0  0  0  0  0  0  0  0  0
  128.0730  131.8260   60.7500 C   0  0  0  0  0  0  0  0  0  0  0  0
  128.9840  130.6520   60.2720 C   0  0  0  0  0  0  0  0  0  0  0  0
  128.7110  130.4720   58.8640 O   0  0  0  0  0  0  0  0  0  0  0  0
  129.1470  129.2840   58.1960 C   0  0  0  0  0  0  0  0  0  0  0  0
  127.9380  128.6180   57.5190 C   0  0  1  0  0  0  0  0  0  0  0  0
  128.2620  127.2390   57.3610 O   0  0  0  0  0  0  0  0  0  0  0  0
  127.3450  126.4080   58.0130 C   0  0  1  0  0  0  0  0  0  0  0  0
  128.0130  125.2200   58.5090 N   0  0  0  0  0  0  0  0  0  0  0  0
  128.9610  124.4440   57.8660 C   0  0  0  0  0  0  0  0  0  0  0  0
  129.3680  123.3910   58.5300 N   0  0  0  0  0  0  0  0  0  0  0  0
  128.6220  123.4190   59.6770 C   0  0  0  0  0  0  0  0  0  0  0  0
  128.5740  122.5600   60.7920 C   0  0  0  0  0  0  0  0  0  0  0  0
  129.4290  121.4430   60.8210 N   0  0  0  0  0  0  0  0  0  0  0  0
  130.7630  121.3960   61.0540 C   0  0  0  0  0  0  0  0  0  0  0  0
  131.4650  122.3860   61.2690 O   0  0  0  0  0  0  0  0  0  0  0  0
  131.3880  120.0180   61.0050 C   0  0  0  0  0  0  0  0  0  0  0  0
  132.7460  119.8830   60.6760 C   0  0  0  0  0  0  0  0  0  0  0  0
  133.3420  118.6270   60.6310 C   0  0  0  0  0  0  0  0  0  0  0  0
  132.5880  117.4940   60.9180 C   0  0  0  0  0  0  0  0  0  0  0  0
  131.2400  117.6060   61.2500 C   0  0  0  0  0  0  0  0  0  0  0  0
  130.6420  118.8630   61.2950 C   0  0  0  0  0  0  0  0  0  0  0  0
  127.6990  122.8320   61.8070 N   0  0  0  0  0  0  0  0  0  0  0  0
  126.9110  123.9320   61.6870 C   0  0  0  0  0  0  0  0  0  0  0  0
  126.8780  124.8260   60.6620 N   0  0  0  0  0  0  0  0  0  0  0  0
  127.7490  124.5370   59.6860 C   0  0  0  0  0  0  0  0  0  0  0  0
  126.7040  127.2810   59.0850 C   0  0  0  0  0  0  0  0  0  0  0  0
  126.6490  128.6110   58.3540 C   0  0  2  0  0  0  0  0  0  0  0  0
  125.4860  128.7300   57.5530 O   0  0  0  0  0  0  0  0  0  0  0  0
  130.4940  130.9870   60.4020 C   0  0  0  0  0  0  0  0  0  0  0  0
  131.0870  131.1060   61.6690 C   0  0  0  0  0  0  0  0  0  0  0  0
  132.4360  131.4190   61.7970 C   0  0  0  0  0  0  0  0  0  0  0  0
  133.2080  131.6190   60.6570 C   0  0  0  0  0  0  0  0  0  0  0  0
  132.6410  131.5070   59.3910 C   0  0  0  0  0  0  0  0  0  0  0  0
  131.2910  131.1950   59.2640 C   0  0  0  0  0  0  0  0  0  0  0  0
  128.7910  129.3000   61.0150 C   0  0  0  0  0  0  0  0  0  0  0  0
  127.6250  129.0590   61.7600 C   0  0  0  0  0  0  0  0  0  0  0  0
  127.4480  127.8560   62.4360 C   0  0  0  0  0  0  0  0  0  0  0  0
  128.4410  126.8820   62.3820 C   0  0  0  0  0  0  0  0  0  0  0  0
  129.6100  127.1050   61.6620 C   0  0  0  0  0  0  0  0  0  0  0  0
  129.7860  128.3090   60.9860 C   0  0  0  0  0  0  0  0  0  0  0  0
  128.6540  132.9880   61.2770 C   0  0  0  0  0  0  0  0  0  0  0  0
  127.8650  134.0610   61.6820 C   0  0  0  0  0  0  0  0  0  0  0  0
  1  2  1  0
  2  3  1  0
  3  4  2  0
  4  5  1  0
  5  6  2  0
  6  7  1  0
  7  8  1  0
  8  9  1  0
 10  9  1  1
 10 11  1  0
 11 12  1  0
 12 13  1  1
 13 14  1  0
 14 15  2  0
 15 16  1  0
 16 17  2  0
 17 18  1  0
 18 19  1  0
 19 20  2  0
 19 21  1  0
 21 22  2  0
 22 23  1  0
 23 24  2  0
 24 25  1  0
 25 26  2  0
 17 27  1  0
 27 28  2  0
 28 29  1  0
 29 30  2  0
 12 31  1  0
 31 32  1  0
 32 33  1  6
  7 34  1  0
 34 35  2  0
 35 36  1  0
 36 37  2  0
 37 38  1  0
 38 39  2  0
  7 40  1  0
 40 41  2  0
 41 42  1  0
 42 43  2  0
 43 44  1  0
 44 45  2  0
  6 46  1  0
 46 47  2  0
 47  3  1  0
 32 10  1  0
 39 34  1  0
 45 40  1  0
 30 13  1  0
 30 16  1  0
 26 21  1  0
M  END
>  <Binding energies>  (54) 
[-9.84]

>  <Ligand effiencies>  (54) 
[-0.20081632653061224]

>  <Interactions>  (54) 
["V-B:LEU:475:CD2:9230, V-B:ILE:369:CG2:8208, V-A:TYR:539:CE1:4873, V-A:TYR:539:CD1:4871, V-B:ASP:366:CG:8184, V-A:PRO:540:CB:4883, V-A:PRO:540:CA:4881, V-A:ALA:541:CB:4890, V-B:TYR:539:CE1:9847, V-B:TYR:539:C:9839, H-B:ALA:541:N:9863, V-B:PRO:540:CA:9855, V-A:LEU:475:CD2:4256, V-B:TYR:539:CD1:9845, V-A:ASP:366:CG:3210, V-A:ILE:369:CG2:3234, V-B:GLU:543:CD:9880, V-A:GLU:543:CD:4906, V-A:SER:385:CA:3404, V-B:ALA:541:CB:9864, V-A:SER:385:CB:3406, V-A:LEU:373:CD1:3277, V-B:SER:385:CA:8378, V-B:LEU:373:CD1:8251, V-A:PRO:482:CB:4323, H-B:TYR:539:O:9840, V-A:PRO:482:CG:4324, H-B:TYR:531:OH:9767, V-A:ASN:362:CB:3173, H-B:ASP:366:OD2:8186, V-A:ASN:362:C:3169"]

$$$$
RR8_A_Rahimova_2017
     RDKit          3D

 42 46  0  0  0  0  0  0  0  0999 V2000
  128.3730  126.8780   62.8700 O   0  0  0  0  0  0  0  0  0  0  0  0
  128.5790  127.1660   61.6860 C   0  0  0  0  0  0  0  0  0  0  0  0
  129.7110  126.8300   60.9940 O   0  0  0  0  0  0  0  0  0  0  0  0
  129.7270  125.5910   60.3400 C   0  0  1  0  0  0  0  0  0  0  0  0
  129.7010  125.7400   58.9500 O   0  0  0  0  0  0  0  0  0  0  0  0
  130.5280  124.7800   58.2990 C   0  0  2  0  0  0  0  0  0  0  0  0
  129.6720  124.0060   57.2810 C   0  0  0  0  0  0  0  0  0  0  0  0
  129.0740  122.8950   57.9350 O   0  0  0  0  0  0  0  0  0  0  0  0
  127.6530  122.9310   57.9520 C   0  0  0  0  0  0  0  0  0  0  0  0
  127.1610  123.1850   59.3690 C   0  0  0  0  0  0  0  0  0  0  0  0
  128.0170  122.9740   60.4530 C   0  0  0  0  0  0  0  0  0  0  0  0
  127.5700  123.2120   61.7500 C   0  0  0  0  0  0  0  0  0  0  0  0
  126.2680  123.6640   61.9600 C   0  0  0  0  0  0  0  0  0  0  0  0
  125.4100  123.8820   60.8850 C   0  0  0  0  0  0  0  0  0  0  0  0
  125.8570  123.6460   59.5880 C   0  0  0  0  0  0  0  0  0  0  0  0
  131.0970  123.9440   59.4530 C   0  0  1  0  0  0  0  0  0  0  0  0
  132.4600  123.5740   59.2590 O   0  0  0  0  0  0  0  0  0  0  0  0
  133.0890  122.9340   60.3630 C   0  0  0  0  0  0  0  0  0  0  0  0
  132.4680  121.5630   60.5910 C   0  0  0  0  0  0  0  0  0  0  0  0
  133.2040  120.4110   60.3000 C   0  0  0  0  0  0  0  0  0  0  0  0
  132.6390  119.1540   60.4970 C   0  0  0  0  0  0  0  0  0  0  0  0
  131.3360  119.0520   60.9830 C   0  0  0  0  0  0  0  0  0  0  0  0
  130.5930  120.1940   61.2690 C   0  0  0  0  0  0  0  0  0  0  0  0
  131.1580  121.4520   61.0700 C   0  0  0  0  0  0  0  0  0  0  0  0
  131.0520  124.9000   60.6310 C   0  0  2  0  0  0  0  0  0  0  0  0
  131.0660  124.1810   61.8620 O   0  0  0  0  0  0  0  0  0  0  0  0
  130.2580  124.7230   62.9010 C   0  0  0  0  0  0  0  0  0  0  0  0
  131.1280  125.0970   64.0920 C   0  0  0  0  0  0  0  0  0  0  0  0
  130.5390  125.4910   65.2980 C   0  0  0  0  0  0  0  0  0  0  0  0
  131.3400  125.8220   66.3880 C   0  0  0  0  0  0  0  0  0  0  0  0
  132.7260  125.7560   66.2720 C   0  0  0  0  0  0  0  0  0  0  0  0
  133.3210  125.3590   65.0760 C   0  0  0  0  0  0  0  0  0  0  0  0
  132.5210  125.0270   63.9850 C   0  0  0  0  0  0  0  0  0  0  0  0
  127.5910  127.9230   60.8460 C   0  0  0  0  0  0  0  0  0  0  0  0
  126.6530  128.8000   61.4140 C   0  0  0  0  0  0  0  0  0  0  0  0
  125.7490  129.4870   60.6080 C   0  0  0  0  0  0  0  0  0  0  0  0
  125.7560  129.3150   59.2180 C   0  0  0  0  0  0  0  0  0  0  0  0
  124.7940  130.0480   58.3610 N   0  0  0  0  0  0  0  0  0  0  0  0
  124.4830  129.5640   57.2770 O   0  0  0  0  0  0  0  0  0  0  0  0
  124.3390  131.1140   58.7660 O   0  0  0  0  0  0  0  0  0  0  0  0
  126.6900  128.4370   58.6530 C   0  0  0  0  0  0  0  0  0  0  0  0
  127.5950  127.7500   59.4560 C   0  0  0  0  0  0  0  0  0  0  0  0
  1  2  2  0
  2  3  1  0
  4  3  1  1
  4  5  1  0
  5  6  1  0
  6  7  1  6
  7  8  1  0
  8  9  1  0
  9 10  1  0
 10 11  2  0
 11 12  1  0
 12 13  2  0
 13 14  1  0
 14 15  2  0
  6 16  1  0
 16 17  1  6
 17 18  1  0
 18 19  1  0
 19 20  2  0
 20 21  1  0
 21 22  2  0
 22 23  1  0
 23 24  2  0
 16 25  1  0
 25 26  1  1
 26 27  1  0
 27 28  1  0
 28 29  2  0
 29 30  1  0
 30 31  2  0
 31 32  1  0
 32 33  2  0
  2 34  1  0
 34 35  2  0
 35 36  1  0
 36 37  2  0
 37 38  1  0
 38 39  2  0
 38 40  1  0
 37 41  1  0
 41 42  2  0
 25  4  1  0
 33 28  1  0
 42 34  1  0
 15 10  1  0
 24 19  1  0
M  CHG  2  38   1  40  -1
M  END
>  <Binding energies>  (55) 
[-8.11]

>  <Ligand effiencies>  (55) 
[-0.19309523809523807]

>  <Interactions>  (55) 
["V-B:ASP:366:CB:8183, H-A:TYR:539:OH:4876, V-B:ASP:366:CG:8184, V-B:TYR:539:CE1:9847, V-B:TYR:539:C:9839, V-B:PRO:540:N:9856, V-B:PRO:540:CA:9855, V-A:LEU:475:CD2:4256, V-B:TYR:539:CD1:9845, V-A:ILE:369:CG2:3234, V-B:GLU:543:CD:9880, V-B:GLU:543:CB:9878, V-A:HIS:456:CE1:4066, V-B:ASP:366:CA:8181, V-A:ARG:545:CZ:4924, V-A:ARG:545:CG:4920, V-A:SER:385:CA:3404, V-A:ARG:545:CD:4921, V-B:PRO:540:CB:9857, V-B:ALA:541:CB:9864, V-B:TYR:539:CZ:9849, H-B:TYR:539:OH:9850, V-A:LEU:373:CD1:3277, H-B:TYR:531:OH:9767"]

$$$$
RR8_B_Rahimova_2017
     RDKit          3D

 42 46  0  0  0  0  0  0  0  0999 V2000
  130.6880  128.7530   61.3070 O   0  0  0  0  0  0  0  0  0  0  0  0
  129.7080  128.0150   61.4450 C   0  0  0  0  0  0  0  0  0  0  0  0
  129.6660  126.7040   61.0550 O   0  0  0  0  0  0  0  0  0  0  0  0
  129.0360  125.7780   61.9060 C   0  0  2  0  0  0  0  0  0  0  0  0
  129.6200  125.7570   63.1780 O   0  0  0  0  0  0  0  0  0  0  0  0
  130.6570  124.7810   63.2600 C   0  0  2  0  0  0  0  0  0  0  0  0
  131.9770  125.4660   63.6570 C   0  0  0  0  0  0  0  0  0  0  0  0
  131.8750  125.9380   64.9950 O   0  0  0  0  0  0  0  0  0  0  0  0
  130.8090  125.3780   65.7470 C   0  0  0  0  0  0  0  0  0  0  0  0
  130.5590  126.2360   66.9780 C   0  0  0  0  0  0  0  0  0  0  0  0
  131.5280  127.1570   67.3900 C   0  0  0  0  0  0  0  0  0  0  0  0
  131.3160  127.9280   68.5300 C   0  0  0  0  0  0  0  0  0  0  0  0
  130.1350  127.7780   69.2530 C   0  0  0  0  0  0  0  0  0  0  0  0
  129.1630  126.8670   68.8450 C   0  0  0  0  0  0  0  0  0  0  0  0
  129.3750  126.0930   67.7070 C   0  0  0  0  0  0  0  0  0  0  0  0
  130.6530  124.1050   61.8840 C   0  0  1  0  0  0  0  0  0  0  0  0
  130.9590  122.7150   62.0240 O   0  0  0  0  0  0  0  0  0  0  0  0
  131.9180  122.1660   61.1180 C   0  0  0  0  0  0  0  0  0  0  0  0
  131.8190  120.6460   61.0220 C   0  0  0  0  0  0  0  0  0  0  0  0
  130.6160  120.0020   61.3250 C   0  0  0  0  0  0  0  0  0  0  0  0
  130.5190  118.6180   61.2050 C   0  0  0  0  0  0  0  0  0  0  0  0
  131.6270  117.8830   60.7880 C   0  0  0  0  0  0  0  0  0  0  0  0
  132.8300  118.5180   60.4880 C   0  0  0  0  0  0  0  0  0  0  0  0
  132.9260  119.9030   60.6050 C   0  0  0  0  0  0  0  0  0  0  0  0
  129.2440  124.3650   61.3630 C   0  0  2  0  0  0  0  0  0  0  0  0
  129.2170  124.2860   59.9400 O   0  0  0  0  0  0  0  0  0  0  0  0
  128.7410  123.0620   59.4020 C   0  0  0  0  0  0  0  0  0  0  0  0
  127.2870  123.2500   59.0050 C   0  0  0  0  0  0  0  0  0  0  0  0
  126.3190  123.5130   59.9780 C   0  0  0  0  0  0  0  0  0  0  0  0
  124.9850  123.6650   59.6050 C   0  0  0  0  0  0  0  0  0  0  0  0
  124.6260  123.5530   58.2640 C   0  0  0  0  0  0  0  0  0  0  0  0
  125.5870  123.2920   57.2890 C   0  0  0  0  0  0  0  0  0  0  0  0
  126.9200  123.1410   57.6610 C   0  0  0  0  0  0  0  0  0  0  0  0
  128.4060  128.4790   62.0320 C   0  0  0  0  0  0  0  0  0  0  0  0
  127.3030  128.7970   61.2260 C   0  0  0  0  0  0  0  0  0  0  0  0
  126.1120  129.2330   61.7970 C   0  0  0  0  0  0  0  0  0  0  0  0
  125.9960  129.3720   63.1860 C   0  0  0  0  0  0  0  0  0  0  0  0
  124.7340  129.8620   63.7910 N   0  0  0  0  0  0  0  0  0  0  0  0
  124.5270  129.6410   64.9810 O   0  0  0  0  0  0  0  0  0  0  0  0
  123.9410  130.4780   63.0820 O   0  0  0  0  0  0  0  0  0  0  0  0
  127.0960  129.0480   63.9910 C   0  0  0  0  0  0  0  0  0  0  0  0
  128.2850  128.6050   63.4210 C   0  0  0  0  0  0  0  0  0  0  0  0
  1  2  2  0
  2  3  1  0
  4  3  1  6
  4  5  1  0
  5  6  1  0
  6  7  1  6
  7  8  1  0
  8  9  1  0
  9 10  1  0
 10 11  2  0
 11 12  1  0
 12 13  2  0
 13 14  1  0
 14 15  2  0
  6 16  1  0
 16 17  1  1
 17 18  1  0
 18 19  1  0
 19 20  2  0
 20 21  1  0
 21 22  2  0
 22 23  1  0
 23 24  2  0
 16 25  1  0
 25 26  1  6
 26 27  1  0
 27 28  1  0
 28 29  2  0
 29 30  1  0
 30 31  2  0
 31 32  1  0
 32 33  2  0
  2 34  1  0
 34 35  2  0
 35 36  1  0
 36 37  2  0
 37 38  1  0
 38 39  2  0
 38 40  1  0
 37 41  1  0
 41 42  2  0
 25  4  1  0
 33 28  1  0
 42 34  1  0
 15 10  1  0
 24 19  1  0
M  CHG  2  38   1  40  -1
M  END
>  <Binding energies>  (56) 
[-8.68]

>  <Ligand effiencies>  (56) 
[-0.20666666666666667]

>  <Interactions>  (56) 
["V-B:ASP:366:CG:8184, V-B:TYR:539:CE1:9847, V-B:TYR:539:C:9839, V-B:PRO:540:N:9856, V-B:PRO:540:CA:9855, V-A:LEU:475:CD2:4256, V-B:TYR:539:CD1:9845, V-A:GLU:543:CG:4905, H-B:ARG:545:NH2:9900, V-A:ILE:369:CG2:3234, V-B:GLU:543:CD:9880, H-A:ARG:545:NH2:4926, V-B:GLU:543:CB:9878, V-B:GLU:543:CG:9879, V-A:HIS:456:CE1:4066, H-B:GLY:454:N:9021, V-A:GLU:543:CD:4906, V-A:GLU:543:CB:4904, V-B:GLU:543:C:9874, V-B:ARG:545:CZ:9898, V-A:ARG:545:CZ:4924, V-A:ARG:545:CG:4920, V-A:SER:385:CA:3404, V-B:PRO:540:CB:9857, V-B:ALA:541:CB:9864, H-B:ARG:545:NE:9896, V-A:GLY:544:C:4910, H-A:TYR:484:OH:4345, H-A:ARG:545:NE:4922, V-A:SER:385:CB:3406, V-A:LEU:373:CD1:3277, V-A:PRO:482:CB:4323, V-A:PRO:482:CG:4324, H-B:TYR:484:OH:9319, V-A:GLU:543:C:4900"]

$$$$
RR9_Rahimova_2017
     RDKit          3D

 36 40  0  0  0  0  0  0  0  0999 V2000
  127.4420  134.0720   61.7380 C   0  0  0  0  0  0  0  0  0  0  0  0
  128.2850  132.8590   62.1450 C   0  0  0  0  0  0  0  0  0  0  0  0
  128.8550  132.2840   60.9740 O   0  0  0  0  0  0  0  0  0  0  0  0
  129.2110  130.9500   60.9770 C   0  0  0  0  0  0  0  0  0  0  0  0
  130.5750  130.6680   60.9280 C   0  0  0  0  0  0  0  0  0  0  0  0
  131.0280  129.3520   60.9250 C   0  0  0  0  0  0  0  0  0  0  0  0
  130.1270  128.2780   60.9720 C   0  0  0  0  0  0  0  0  0  0  0  0
  130.6090  126.8580   60.9640 C   0  0  0  0  0  0  0  0  0  0  0  0
  129.7920  125.8060   60.5200 C   0  0  0  0  0  0  0  0  0  0  0  0
  130.2540  124.4780   60.5020 C   0  0  0  0  0  0  0  0  0  0  0  0
  129.3680  123.4100   59.9200 C   0  0  0  0  0  0  0  0  0  0  0  0
  128.9000  122.5280   60.6400 O   0  0  0  0  0  0  0  0  0  0  0  0
  129.1590  123.4830   58.5900 N   0  0  0  0  0  0  0  0  0  0  0  0
  128.4460  122.4930   57.7770 C   0  0  0  0  0  0  0  0  0  0  0  0
  127.0840  123.0060   57.2550 C   0  0  0  0  0  0  0  0  0  0  0  0
  126.0410  123.2570   58.3380 C   0  0  0  0  0  0  0  0  0  0  0  0
  124.6910  123.3900   57.9950 C   0  0  0  0  0  0  0  0  0  0  0  0
  123.7370  123.5850   58.9900 C   0  0  0  0  0  0  0  0  0  0  0  0
  124.1350  123.6500   60.3240 C   0  0  0  0  0  0  0  0  0  0  0  0
  125.4780  123.5230   60.6720 C   0  0  0  0  0  0  0  0  0  0  0  0
  126.4330  123.3270   59.6770 C   0  0  0  0  0  0  0  0  0  0  0  0
  131.5670  124.2630   60.9890 C   0  0  0  0  0  0  0  0  0  0  0  0
  132.4750  123.1640   61.2190 C   0  0  0  0  0  0  0  0  0  0  0  0
  132.2480  121.6970   61.0580 C   0  0  0  0  0  0  0  0  0  0  0  0
  133.2440  120.8880   60.5030 C   0  0  0  0  0  0  0  0  0  0  0  0
  133.0250  119.5230   60.3380 C   0  0  0  0  0  0  0  0  0  0  0  0
  131.8100  118.9610   60.7320 C   0  0  0  0  0  0  0  0  0  0  0  0
  131.5630  117.4760   60.5360 C   0  0  0  0  0  0  0  0  0  0  0  0
  130.8120  119.7650   61.2850 C   0  0  0  0  0  0  0  0  0  0  0  0
  131.0340  121.1290   61.4510 C   0  0  0  0  0  0  0  0  0  0  0  0
  133.6340  123.6060   61.6520 N   0  0  0  0  0  0  0  0  0  0  0  0
  133.5450  124.9400   61.7830 N   0  0  0  0  0  0  0  0  0  0  0  0
  132.3050  125.3970   61.4060 C   0  0  0  0  0  0  0  0  0  0  0  0
  131.8790  126.6600   61.4150 N   0  0  0  0  0  0  0  0  0  0  0  0
  128.7560  128.5700   61.0190 C   0  0  0  0  0  0  0  0  0  0  0  0
  128.3000  129.8860   61.0240 C   0  0  0  0  0  0  0  0  0  0  0  0
  1  2  1  0
  2  3  1  0
  3  4  1  0
  4  5  2  0
  5  6  1  0
  6  7  2  0
  7  8  1  0
  8  9  2  0
  9 10  1  0
 10 11  1  0
 11 12  2  0
 11 13  1  0
 13 14  1  0
 14 15  1  0
 15 16  1  0
 16 17  2  0
 17 18  1  0
 18 19  2  0
 19 20  1  0
 20 21  2  0
 10 22  2  0
 22 23  1  0
 23 24  1  0
 24 25  2  0
 25 26  1  0
 26 27  2  0
 27 28  1  0
 27 29  1  0
 29 30  2  0
 23 31  2  0
 31 32  1  0
 32 33  1  0
 33 34  2  0
  7 35  1  0
 35 36  2  0
 36  4  1  0
 34  8  1  0
 21 16  1  0
 33 22  1  0
 30 24  1  0
M  END
>  <Binding energies>  (57) 
[-7.88]

>  <Ligand effiencies>  (57) 
[-0.20736842105263156]

>  <Interactions>  (57) 
["V-B:LEU:475:CD2:9230, V-A:TYR:539:CE1:4873, V-A:TYR:539:CD1:4871, V-B:ASP:366:CG:8184, V-A:ALA:541:CB:4890, V-B:PRO:540:C:9853, V-B:TYR:539:CE1:9847, V-B:TYR:539:C:9839, V-B:PRO:540:N:9856, V-B:PRO:540:CA:9855, V-A:LEU:475:CD2:4256, V-B:TYR:539:CD1:9845, V-A:ASP:366:CG:3210, V-A:ILE:369:CG2:3234, H-A:ARG:545:NH2:4926, V-A:SER:385:CA:3404, V-B:PRO:540:CB:9857, V-B:ALA:541:CB:9864, V-B:TYR:539:CZ:9849, V-B:TYR:539:CG:9844, V-B:ASN:362:CB:8147, H-A:ASP:366:OD1:3211, V-B:TYR:539:CA:9841, V-A:LEU:373:CD1:3277, V-B:LEU:363:CA:8156, V-B:LEU:363:CD1:8160, V-A:PRO:482:CG:4324, V-B:ASN:362:C:8143, V-B:LEU:363:CB:8158"]

$$$$
