1a_Ghoteimi_2023
     RDKit          3D

 67 70  0  0  0  0  0  0  0  0999 V2000
  133.0610  117.7590   60.5820 C   0  0  0  0  0  0  0  0  0  0  0  0
  132.5400  119.2000   60.6070 C   0  0  0  0  0  0  0  0  0  0  0  0
  133.6030  120.0780   60.9570 O   0  0  0  0  0  0  0  0  0  0  0  0
  133.3700  121.2160   61.6600 C   0  0  0  0  0  0  0  0  0  0  0  0
  134.1080  121.6210   62.5630 O   0  0  0  0  0  0  0  0  0  0  0  0
  132.1270  121.9370   61.2240 C   0  0  0  0  0  0  0  0  0  0  0  0
  132.1640  122.9850   60.2920 C   0  0  0  0  0  0  0  0  0  0  0  0
  130.9950  123.6370   59.9100 C   0  0  0  0  0  0  0  0  0  0  0  0
  129.7610  123.2480   60.4530 C   0  0  0  0  0  0  0  0  0  0  0  0
  128.5210  123.8390   60.1430 N   0  0  0  0  0  0  0  0  0  0  0  0
  127.3070  123.6490   60.7050 C   0  0  0  0  0  0  0  0  0  0  0  0
  127.0650  122.8960   61.6480 O   0  0  0  0  0  0  0  0  0  0  0  0
  126.1660  124.4620   60.0940 C   0  0  0  0  0  0  0  0  0  0  0  0
  126.7840  125.7550   58.9770 S   0  0  0  0  0  0  0  0  0  0  0  0
  127.6310  126.9340   60.0040 C   0  0  0  0  0  0  0  0  0  0  0  0
  128.5970  126.3910   60.7820 N   0  0  0  0  0  0  0  0  0  0  0  0
  129.3230  127.1870   61.6110 C   0  0  0  0  0  0  0  0  0  0  0  0
  130.3890  126.5140   62.4260 C   0  0  0  0  0  0  0  0  0  0  0  0
  131.6150  126.1360   61.8540 C   0  0  0  0  0  0  0  0  0  0  0  0
  132.6020  125.5130   62.6120 C   0  0  0  0  0  0  0  0  0  0  0  0
  132.3960  125.2460   63.9630 C   0  0  0  0  0  0  0  0  0  0  0  0
  133.4310  124.6270   64.6380 O   0  0  0  0  0  0  0  0  0  0  0  0
  133.8510  125.1490   65.8930 C   0  0  0  0  0  0  0  0  0  0  0  0
  131.1760  125.6130   64.5480 C   0  0  0  0  0  0  0  0  0  0  0  0
  130.1910  126.2360   63.7870 C   0  0  0  0  0  0  0  0  0  0  0  0
  129.0800  128.5650   61.6690 C   0  0  0  0  0  0  0  0  0  0  0  0
  128.0680  129.1450   60.8920 C   0  0  0  0  0  0  0  0  0  0  0  0
  127.8440  130.6160   61.0290 C   0  0  0  0  0  0  0  0  0  0  0  0
  126.6860  131.1110   61.6380 C   0  0  0  0  0  0  0  0  0  0  0  0
  126.4920  132.4830   61.7750 C   0  0  0  0  0  0  0  0  0  0  0  0
  127.4510  133.3850   61.3150 C   0  0  0  0  0  0  0  0  0  0  0  0
  127.1720  134.7250   61.4950 O   0  0  0  0  0  0  0  0  0  0  0  0
  125.8290  135.1790   61.3700 C   0  0  0  0  0  0  0  0  0  0  0  0
  128.6170  132.8920   60.7110 C   0  0  0  0  0  0  0  0  0  0  0  0
  128.8090  131.5190   60.5740 C   0  0  0  0  0  0  0  0  0  0  0  0
  127.3200  128.3110   60.0270 C   0  0  0  0  0  0  0  0  0  0  0  0
  126.2590  128.8630   59.1780 C   0  0  0  0  0  0  0  0  0  0  0  0
  125.4220  129.3000   58.5090 N   0  0  0  0  0  0  0  0  0  0  0  0
  129.7210  122.2090   61.3840 C   0  0  0  0  0  0  0  0  0  0  0  0
  130.8920  121.5580   61.7650 C   0  0  0  0  0  0  0  0  0  0  0  0
  133.1914  117.3983   61.6130 H   0  0  0  0  0  0  0  0  0  0  0  0
  132.3381  117.1168   60.0575 H   0  0  0  0  0  0  0  0  0  0  0  0
  134.0274  117.7276   60.0575 H   0  0  0  0  0  0  0  0  0  0  0  0
  132.1539  119.4685   59.6126 H   0  0  0  0  0  0  0  0  0  0  0  0
  131.7313  119.2867   61.3476 H   0  0  0  0  0  0  0  0  0  0  0  0
  133.1265  123.2946   59.8588 H   0  0  0  0  0  0  0  0  0  0  0  0
  131.0387  124.4593   59.1806 H   0  0  0  0  0  0  0  0  0  0  0  0
  128.5670  124.5300   59.4090 H   0  0  0  0  0  0  0  0  0  0  0  0
  125.5099  123.7851   59.5271 H   0  0  0  0  0  0  0  0  0  0  0  0
  125.6167  124.9502   60.9125 H   0  0  0  0  0  0  0  0  0  0  0  0
  131.7982  126.3360   60.7880 H   0  0  0  0  0  0  0  0  0  0  0  0
  133.5538  125.2288   62.1394 H   0  0  0  0  0  0  0  0  0  0  0  0
  133.3857  124.5707   66.7049 H   0  0  0  0  0  0  0  0  0  0  0  0
  134.9458  125.0769   65.9723 H   0  0  0  0  0  0  0  0  0  0  0  0
  133.5462  126.2030   65.9723 H   0  0  0  0  0  0  0  0  0  0  0  0
  130.9963  125.4076   65.6136 H   0  0  0  0  0  0  0  0  0  0  0  0
  129.2390  126.5158   64.2617 H   0  0  0  0  0  0  0  0  0  0  0  0
  129.6892  129.1982   62.3307 H   0  0  0  0  0  0  0  0  0  0  0  0
  125.9234  130.4116   62.0112 H   0  0  0  0  0  0  0  0  0  0  0  0
  125.5740  132.8588   62.2504 H   0  0  0  0  0  0  0  0  0  0  0  0
  125.3967  135.3251   62.3709 H   0  0  0  0  0  0  0  0  0  0  0  0
  125.8138  136.1322   60.8213 H   0  0  0  0  0  0  0  0  0  0  0  0
  125.2385  134.4305   60.8213 H   0  0  0  0  0  0  0  0  0  0  0  0
  129.3824  133.5918   60.3443 H   0  0  0  0  0  0  0  0  0  0  0  0
  129.7289  131.1419   60.1032 H   0  0  0  0  0  0  0  0  0  0  0  0
  128.7586  121.9023   61.8196 H   0  0  0  0  0  0  0  0  0  0  0  0
  130.8464  120.7387   62.4975 H   0  0  0  0  0  0  0  0  0  0  0  0
  1  2  1  0
  2  3  1  0
  3  4  1  0
  4  5  2  0
  4  6  1  0
  6  7  2  0
  7  8  1  0
  8  9  2  0
  9 10  1  0
 10 11  1  0
 11 12  2  0
 11 13  1  0
 13 14  1  0
 14 15  1  0
 15 16  2  0
 16 17  1  0
 17 18  1  0
 18 19  2  0
 19 20  1  0
 20 21  2  0
 21 22  1  0
 22 23  1  0
 21 24  1  0
 24 25  2  0
 17 26  2  0
 26 27  1  0
 27 28  1  0
 28 29  2  0
 29 30  1  0
 30 31  2  0
 31 32  1  0
 32 33  1  0
 31 34  1  0
 34 35  2  0
 27 36  2  0
 36 37  1  0
 37 38  3  0
  9 39  1  0
 39 40  2  0
 40  6  1  0
 36 15  1  0
 25 18  1  0
 35 28  1  0
  1 41  1  0
  1 42  1  0
  1 43  1  0
  2 44  1  0
  2 45  1  0
  7 46  1  0
  8 47  1  0
 10 48  1  0
 13 49  1  0
 13 50  1  0
 19 51  1  0
 20 52  1  0
 23 53  1  0
 23 54  1  0
 23 55  1  0
 24 56  1  0
 25 57  1  0
 26 58  1  0
 29 59  1  0
 30 60  1  0
 33 61  1  0
 33 62  1  0
 33 63  1  0
 34 64  1  0
 35 65  1  0
 39 66  1  0
 40 67  1  0
M  END
>  <Binding energies>  (1) 
[-7.06]

>  <Ligand effiencies>  (1) 
[-0.1721951219512195]

>  <Interactions>  (1) 
["V-B:LEU:475:CD2:9230, V-B:ASP:366:CB:8183, V-A:TYR:539:CE1:4873, V-A:TYR:539:CD1:4871, V-B:ASP:366:CG:8184, V-A:TYR:539:C:4865, V-B:TYR:539:CE1:9847, H-B:ALA:541:N:9863, V-B:PRO:540:CA:9855, V-A:GLY:453:C:4039, V-A:LEU:475:CD2:4256, V-B:TYR:539:CD1:9845, V-A:GLY:454:CA:4046, V-A:ILE:369:CG2:3234, V-B:GLU:543:CD:9880, V-A:HIS:456:CE1:4066, V-A:TYR:484:CZ:4344, V-A:GLU:543:CD:4906, V-A:ARG:545:CZ:4924, V-A:ARG:545:CG:4920, V-A:SER:385:CA:3404, H-A:GLY:454:N:4047, V-A:ARG:545:CD:4921, V-B:ALA:541:CB:9864, H-A:TYR:484:OH:4345, V-A:SER:385:CB:3406, V-A:LEU:373:CD1:3277"]

$$$$
1a_Grossjean_2025
     RDKit          3D

 45 46  0  0  0  0  0  0  0  0999 V2000
  131.6290  126.3650   73.8340 C   0  0  0  0  0  0  0  0  0  0  0  0
  130.1770  126.0880   73.4360 C   0  0  0  0  0  0  0  0  0  0  0  0
  129.3590  127.1820   73.8310 O   0  0  0  0  0  0  0  0  0  0  0  0
  129.1190  128.2180   72.9850 C   0  0  0  0  0  0  0  0  0  0  0  0
  128.7340  129.3290   73.3630 O   0  0  0  0  0  0  0  0  0  0  0  0
  129.3510  127.8720   71.5420 C   0  0  0  0  0  0  0  0  0  0  0  0
  130.6270  128.0530   70.9930 C   0  0  0  0  0  0  0  0  0  0  0  0
  130.8720  127.7460   69.6580 C   0  0  0  0  0  0  0  0  0  0  0  0
  129.8510  127.2540   68.8450 C   0  0  0  0  0  0  0  0  0  0  0  0
  130.2110  126.9800   67.5110 N   0  0  0  0  0  0  0  0  0  0  0  0
  130.3830  125.7970   66.8840 C   0  0  0  0  0  0  0  0  0  0  0  0
  130.2460  124.6880   67.3990 O   0  0  0  0  0  0  0  0  0  0  0  0
  130.7830  125.8890   65.4090 C   0  0  0  0  0  0  0  0  0  0  0  0
  132.4660  125.2670   65.1150 S   0  0  0  0  0  0  0  0  0  0  0  0
  132.4180  124.2730   63.6410 C   0  0  0  0  0  0  0  0  0  0  0  0
  133.3590  124.6080   62.7230 N   0  0  0  0  0  0  0  0  0  0  0  0
  133.4080  123.9180   61.5600 C   0  0  0  0  0  0  0  0  0  0  0  0
  134.4770  124.3580   60.5770 C   0  0  0  0  0  0  0  0  0  0  0  0
  132.5390  122.8680   61.2710 C   0  0  0  0  0  0  0  0  0  0  0  0
  131.5790  122.5000   62.2200 C   0  0  0  0  0  0  0  0  0  0  0  0
  130.6470  121.3360   61.8870 C   0  0  0  0  0  0  0  0  0  0  0  0
  131.5110  123.2050   63.4430 C   0  0  0  0  0  0  0  0  0  0  0  0
  130.5460  122.8050   64.4720 C   0  0  0  0  0  0  0  0  0  0  0  0
  129.7830  122.4880   65.2820 N   0  0  0  0  0  0  0  0  0  0  0  0
  128.5720  127.0620   69.3890 C   0  0  0  0  0  0  0  0  0  0  0  0
  128.3270  127.3700   70.7240 C   0  0  0  0  0  0  0  0  0  0  0  0
  131.7119  126.3808   74.9308 H   0  0  0  0  0  0  0  0  0  0  0  0
  132.2775  125.5744   73.4286 H   0  0  0  0  0  0  0  0  0  0  0  0
  131.9409  127.3388   73.4286 H   0  0  0  0  0  0  0  0  0  0  0  0
  130.1143  125.9586   72.3454 H   0  0  0  0  0  0  0  0  0  0  0  0
  129.8290  125.1717   73.9352 H   0  0  0  0  0  0  0  0  0  0  0  0
  131.4417  128.4409   71.6221 H   0  0  0  0  0  0  0  0  0  0  0  0
  131.8791  127.8925   69.2405 H   0  0  0  0  0  0  0  0  0  0  0  0
  130.3250  127.8050   66.9400 H   0  0  0  0  0  0  0  0  0  0  0  0
  130.0760  125.2940   64.8122 H   0  0  0  0  0  0  0  0  0  0  0  0
  130.7587  126.9494   65.1176 H   0  0  0  0  0  0  0  0  0  0  0  0
  135.3566  124.7200   61.1295 H   0  0  0  0  0  0  0  0  0  0  0  0
  134.7665  123.5059   59.9444 H   0  0  0  0  0  0  0  0  0  0  0  0
  134.0828  125.1670   59.9444 H   0  0  0  0  0  0  0  0  0  0  0  0
  132.6067  122.3360   60.3106 H   0  0  0  0  0  0  0  0  0  0  0  0
  130.2821  120.8802   62.8192 H   0  0  0  0  0  0  0  0  0  0  0  0
  129.7929  121.7062   61.3010 H   0  0  0  0  0  0  0  0  0  0  0  0
  131.1951  120.5835   61.3010 H   0  0  0  0  0  0  0  0  0  0  0  0
  127.7612  126.6672   68.7591 H   0  0  0  0  0  0  0  0  0  0  0  0
  127.3209  127.2185   71.1421 H   0  0  0  0  0  0  0  0  0  0  0  0
  1  2  1  0
  2  3  1  0
  3  4  1  0
  4  5  2  0
  4  6  1  0
  6  7  2  0
  7  8  1  0
  8  9  2  0
  9 10  1  0
 10 11  1  0
 11 12  2  0
 11 13  1  0
 13 14  1  0
 14 15  1  0
 15 16  2  0
 16 17  1  0
 17 18  1  0
 17 19  2  0
 19 20  1  0
 20 21  1  0
 20 22  2  0
 22 23  1  0
 23 24  3  0
  9 25  1  0
 25 26  2  0
 26  6  1  0
 22 15  1  0
  1 27  1  0
  1 28  1  0
  1 29  1  0
  2 30  1  0
  2 31  1  0
  7 32  1  0
  8 33  1  0
 10 34  1  0
 13 35  1  0
 13 36  1  0
 18 37  1  0
 18 38  1  0
 18 39  1  0
 19 40  1  0
 21 41  1  0
 21 42  1  0
 21 43  1  0
 25 44  1  0
 26 45  1  0
M  END
>  <Binding energies>  (1) 
[-7.43]

>  <Ligand effiencies>  (1) 
[-0.2751851851851852]

>  <Interactions>  (1) 
["V-A:ILE:369:CD1:3236, V-A:LEU:475:CD2:4256, V-A:GLU:543:CG:4905, V-A:ASP:366:CG:3210, V-A:ILE:369:CG2:3234, V-B:HIS:456:CE1:9040, V-B:GLU:543:CD:9880, V-B:GLU:543:CB:9878, V-B:GLU:543:CG:9879, V-A:HIS:456:CE1:4066, H-A:GLU:543:OE2:4908, V-A:ASP:366:CA:3207, V-A:TYR:484:CE2:4343, V-A:TYR:484:CZ:4344, V-A:GLU:543:CD:4906, V-B:GLU:543:C:9874, V-A:ILE:369:CB:3233, V-B:GLY:544:C:9884, H-A:GLY:454:N:4047, H-A:GLU:543:OE1:4907, V-B:ALA:541:CB:9864, V-A:HIS:456:CD2:4065, H-A:HIS:456:NE2:4067, H-B:HIS:456:NE2:9041, V-A:GLY:544:C:4910, H-A:TYR:484:OH:4345, H-A:ARG:545:NE:4922, V-A:GLY:544:CA:4912, V-A:GLU:543:C:4900, V-B:HIS:456:CD2:9039, V-A:LYS:547:CE:4948, V-A:HIS:456:CG:4063, H-B:LYS:547:NZ:9923, V-A:HIS:456:CB:4062, H-A:LYS:547:NZ:4949"]

$$$$
1aa_Ghoteimi_2023
     RDKit          3D

 67 70  0  0  0  0  0  0  0  0999 V2000
  126.0240  129.4200   75.4590 C   0  0  0  0  0  0  0  0  0  0  0  0
  126.4760  128.1520   74.7280 C   0  0  0  0  0  0  0  0  0  0  0  0
  127.8850  128.1910   74.5390 O   0  0  0  0  0  0  0  0  0  0  0  0
  128.4440  128.9850   73.5900 C   0  0  0  0  0  0  0  0  0  0  0  0
  128.7320  130.1710   73.7780 O   0  0  0  0  0  0  0  0  0  0  0  0
  128.6760  128.2780   72.2860 C   0  0  0  0  0  0  0  0  0  0  0  0
  127.6240  127.7040   71.5550 C   0  0  0  0  0  0  0  0  0  0  0  0
  127.8700  127.0540   70.3470 C   0  0  0  0  0  0  0  0  0  0  0  0
  129.1770  126.9700   69.8470 C   0  0  0  0  0  0  0  0  0  0  0  0
  129.5440  126.3400   68.6430 N   0  0  0  0  0  0  0  0  0  0  0  0
  130.4430  126.7070   67.7000 C   0  0  0  0  0  0  0  0  0  0  0  0
  131.1390  127.7200   67.7490 O   0  0  0  0  0  0  0  0  0  0  0  0
  130.6020  125.7830   66.4820 C   0  0  0  0  0  0  0  0  0  0  0  0
  129.8370  126.2770   65.3750 O   0  0  0  0  0  0  0  0  0  0  0  0
  130.2800  126.0820   64.0740 C   0  0  0  0  0  0  0  0  0  0  0  0
  130.3310  127.1630   63.2470 N   0  0  0  0  0  0  0  0  0  0  0  0
  130.7460  127.0100   61.9610 C   0  0  0  0  0  0  0  0  0  0  0  0
  130.7760  128.2500   61.1140 C   0  0  0  0  0  0  0  0  0  0  0  0
  130.8000  129.5250   61.7010 C   0  0  0  0  0  0  0  0  0  0  0  0
  130.8250  130.6750   60.9180 C   0  0  0  0  0  0  0  0  0  0  0  0
  130.8300  130.5890   59.5270 C   0  0  0  0  0  0  0  0  0  0  0  0
  130.8550  131.7840   58.8330 O   0  0  0  0  0  0  0  0  0  0  0  0
  129.6280  132.3650   58.4070 C   0  0  0  0  0  0  0  0  0  0  0  0
  130.8120  129.3230   58.9270 C   0  0  0  0  0  0  0  0  0  0  0  0
  130.7870  128.1740   59.7120 C   0  0  0  0  0  0  0  0  0  0  0  0
  131.1410  125.7550   61.4830 C   0  0  0  0  0  0  0  0  0  0  0  0
  131.1090  124.6290   62.3170 C   0  0  0  0  0  0  0  0  0  0  0  0
  131.5540  123.3210   61.7500 C   0  0  0  0  0  0  0  0  0  0  0  0
  130.6380  122.2750   61.5950 C   0  0  0  0  0  0  0  0  0  0  0  0
  131.0430  121.0560   61.0590 C   0  0  0  0  0  0  0  0  0  0  0  0
  132.3650  120.8590   60.6620 C   0  0  0  0  0  0  0  0  0  0  0  0
  132.6750  119.6170   60.1400 O   0  0  0  0  0  0  0  0  0  0  0  0
  131.9580  118.4750   60.5940 C   0  0  0  0  0  0  0  0  0  0  0  0
  133.2840  121.9080   60.8080 C   0  0  0  0  0  0  0  0  0  0  0  0
  132.8780  123.1270   61.3460 C   0  0  0  0  0  0  0  0  0  0  0  0
  130.6570  124.7980   63.6470 C   0  0  0  0  0  0  0  0  0  0  0  0
  130.5470  123.6730   64.5770 C   0  0  0  0  0  0  0  0  0  0  0  0
  130.4600  122.7850   65.3140 N   0  0  0  0  0  0  0  0  0  0  0  0
  130.2250  127.5380   70.5720 C   0  0  0  0  0  0  0  0  0  0  0  0
  129.9790  128.1860   71.7790 C   0  0  0  0  0  0  0  0  0  0  0  0
  126.0820  129.2573   76.5454 H   0  0  0  0  0  0  0  0  0  0  0  0
  126.6787  130.2582   75.1783 H   0  0  0  0  0  0  0  0  0  0  0  0
  124.9867  129.6550   75.1783 H   0  0  0  0  0  0  0  0  0  0  0  0
  126.2107  127.2687   75.3276 H   0  0  0  0  0  0  0  0  0  0  0  0
  125.9761  128.0946   73.7498 H   0  0  0  0  0  0  0  0  0  0  0  0
  126.5953  127.7679   71.9394 H   0  0  0  0  0  0  0  0  0  0  0  0
  127.0372  126.6061   69.7849 H   0  0  0  0  0  0  0  0  0  0  0  0
  129.0550  125.4730   68.4670 H   0  0  0  0  0  0  0  0  0  0  0  0
  131.6636  125.7384   66.1974 H   0  0  0  0  0  0  0  0  0  0  0  0
  130.2383  124.7792   66.7466 H   0  0  0  0  0  0  0  0  0  0  0  0
  130.7990  129.6164   62.7972 H   0  0  0  0  0  0  0  0  0  0  0  0
  130.8410  131.6626   61.4021 H   0  0  0  0  0  0  0  0  0  0  0  0
  129.0312  132.6476   59.2867 H   0  0  0  0  0  0  0  0  0  0  0  0
  129.8365  133.2600   57.8025 H   0  0  0  0  0  0  0  0  0  0  0  0
  129.0678  131.6365   57.8025 H   0  0  0  0  0  0  0  0  0  0  0  0
  130.8177  129.2368   57.8304 H   0  0  0  0  0  0  0  0  0  0  0  0
  130.7756  127.1878   59.2249 H   0  0  0  0  0  0  0  0  0  0  0  0
  131.4801  125.6514   60.4417 H   0  0  0  0  0  0  0  0  0  0  0  0
  129.5904  122.4169   61.8989 H   0  0  0  0  0  0  0  0  0  0  0  0
  130.3133  120.2404   60.9476 H   0  0  0  0  0  0  0  0  0  0  0  0
  131.9492  118.4610   61.6939 H   0  0  0  0  0  0  0  0  0  0  0  0
  130.9246  118.5181   60.2196 H   0  0  0  0  0  0  0  0  0  0  0  0
  132.4459  117.5630   60.2196 H   0  0  0  0  0  0  0  0  0  0  0  0
  134.3296  121.7677   60.4965 H   0  0  0  0  0  0  0  0  0  0  0  0
  133.6060  123.9445   61.4539 H   0  0  0  0  0  0  0  0  0  0  0  0
  131.2533  127.4732   70.1868 H   0  0  0  0  0  0  0  0  0  0  0  0
  130.8148  128.6298   72.3398 H   0  0  0  0  0  0  0  0  0  0  0  0
  1  2  1  0
  2  3  1  0
  3  4  1  0
  4  5  2  0
  4  6  1  0
  6  7  2  0
  7  8  1  0
  8  9  2  0
  9 10  1  0
 10 11  1  0
 11 12  2  0
 11 13  1  0
 13 14  1  0
 14 15  1  0
 15 16  2  0
 16 17  1  0
 17 18  1  0
 18 19  2  0
 19 20  1  0
 20 21  2  0
 21 22  1  0
 22 23  1  0
 21 24  1  0
 24 25  2  0
 17 26  2  0
 26 27  1  0
 27 28  1  0
 28 29  2  0
 29 30  1  0
 30 31  2  0
 31 32  1  0
 32 33  1  0
 31 34  1  0
 34 35  2  0
 27 36  2  0
 36 37  1  0
 37 38  3  0
  9 39  1  0
 39 40  2  0
 40  6  1  0
 36 15  1  0
 25 18  1  0
 35 28  1  0
  1 41  1  0
  1 42  1  0
  1 43  1  0
  2 44  1  0
  2 45  1  0
  7 46  1  0
  8 47  1  0
 10 48  1  0
 13 49  1  0
 13 50  1  0
 19 51  1  0
 20 52  1  0
 23 53  1  0
 23 54  1  0
 23 55  1  0
 24 56  1  0
 25 57  1  0
 26 58  1  0
 29 59  1  0
 30 60  1  0
 33 61  1  0
 33 62  1  0
 33 63  1  0
 34 64  1  0
 35 65  1  0
 39 66  1  0
 40 67  1  0
M  END
>  <Binding energies>  (1) 
[-6.9]

>  <Ligand effiencies>  (1) 
[-0.16829268292682928]

>  <Interactions>  (1) 
["V-A:TYR:539:CD1:4871, V-A:PRO:540:CA:4881, V-A:PRO:540:N:4882, V-A:TYR:539:C:4865, V-B:TYR:539:CE1:9847, V-A:ILE:369:CD1:3236, V-A:LEU:475:CD2:4256, V-B:TYR:539:CD1:9845, V-A:ASP:366:CG:3210, V-A:ILE:369:CG2:3234, V-B:HIS:456:CE1:9040, V-B:GLU:543:CD:9880, H-A:ARG:545:NH2:4926, V-B:GLU:543:CB:9878, V-B:GLU:543:CG:9879, V-A:HIS:456:CE1:4066, V-A:TYR:484:CE2:4343, V-A:GLU:543:CD:4906, V-B:GLU:543:C:9874, V-B:GLY:544:C:9884, V-A:HIS:456:CD2:4065, V-A:GLY:544:C:4910, H-A:TYR:484:OH:4345, V-A:LEU:373:CD1:3277, V-A:GLY:544:CA:4912, V-A:GLU:543:C:4900, V-B:HIS:456:CD2:9039, V-B:HIS:456:CG:9037, V-A:LYS:547:CE:4948, V-B:GLY:544:CA:9886, H-B:LYS:547:NZ:9923, H-A:LYS:547:NZ:4949, V-B:LYS:547:CE:9922, V-B:HIS:456:CB:9036, V-B:LYS:547:CD:9921, H-B:GLU:543:O:9875"]

$$$$
1b_Ghoteimi_2023
     RDKit          3D

 54 57  0  0  0  0  0  0  0  0999 V2000
  134.0840  124.3780   59.0110 C   0  0  0  0  0  0  0  0  0  0  0  0
  132.8270  124.4630   58.3500 O   0  0  0  0  0  0  0  0  0  0  0  0
  131.9310  125.4440   58.7310 C   0  0  0  0  0  0  0  0  0  0  0  0
  131.5650  126.3690   57.7560 C   0  0  0  0  0  0  0  0  0  0  0  0
  130.6690  127.3930   58.0490 C   0  0  0  0  0  0  0  0  0  0  0  0
  130.1070  127.5200   59.3280 C   0  0  0  0  0  0  0  0  0  0  0  0
  129.1410  128.6290   59.6410 C   0  0  0  0  0  0  0  0  0  0  0  0
  128.3600  128.6530   60.8010 C   0  0  0  0  0  0  0  0  0  0  0  0
  127.4770  129.7120   61.0480 C   0  0  0  0  0  0  0  0  0  0  0  0
  126.6710  129.6680   62.3040 C   0  0  0  0  0  0  0  0  0  0  0  0
  125.3390  130.0900   62.3030 C   0  0  0  0  0  0  0  0  0  0  0  0
  124.5860  130.0600   63.4730 C   0  0  0  0  0  0  0  0  0  0  0  0
  125.1500  129.6110   64.6680 C   0  0  0  0  0  0  0  0  0  0  0  0
  124.3280  129.6160   65.7790 O   0  0  0  0  0  0  0  0  0  0  0  0
  124.8940  129.3710   67.0620 C   0  0  0  0  0  0  0  0  0  0  0  0
  126.4890  129.1940   64.6760 C   0  0  0  0  0  0  0  0  0  0  0  0
  127.2390  129.2260   63.5040 C   0  0  0  0  0  0  0  0  0  0  0  0
  127.4040  130.7630   60.1010 C   0  0  0  0  0  0  0  0  0  0  0  0
  126.5680  131.9390   60.3590 C   0  0  0  0  0  0  0  0  0  0  0  0
  125.9080  132.8680   60.5630 N   0  0  0  0  0  0  0  0  0  0  0  0
  128.2050  130.6670   58.9410 C   0  0  0  0  0  0  0  0  0  0  0  0
  128.2360  131.8870   57.6440 S   0  0  0  0  0  0  0  0  0  0  0  0
  129.9750  132.3630   57.3630 C   0  0  0  0  0  0  0  0  0  0  0  0
  130.9690  131.8410   58.4100 C   0  0  0  0  0  0  0  0  0  0  0  0
  131.9200  131.1310   58.0770 O   0  0  0  0  0  0  0  0  0  0  0  0
  130.7010  132.2220   59.6800 N   0  0  0  0  0  0  0  0  0  0  0  0
  131.4250  131.9030   60.8230 C   0  0  0  0  0  0  0  0  0  0  0  0
  132.7800  131.5770   60.8010 C   0  0  0  0  0  0  0  0  0  0  0  0
  133.1110  131.3330   62.1140 C   0  0  0  0  0  0  0  0  0  0  0  0
  132.0120  131.5050   62.8870 O   0  0  0  0  0  0  0  0  0  0  0  0
  130.9500  131.8670   62.0580 N   0  0  0  0  0  0  0  0  0  0  0  0
  129.0610  129.6370   58.7340 N   0  0  0  0  0  0  0  0  0  0  0  0
  130.4840  126.5840   60.3030 C   0  0  0  0  0  0  0  0  0  0  0  0
  131.3800  125.5600   60.0150 C   0  0  0  0  0  0  0  0  0  0  0  0
  133.9272  124.3886   60.0997 H   0  0  0  0  0  0  0  0  0  0  0  0
  134.5877  123.4437   58.7222 H   0  0  0  0  0  0  0  0  0  0  0  0
  134.7089  125.2359   58.7222 H   0  0  0  0  0  0  0  0  0  0  0  0
  131.9885  126.2894   56.7439 H   0  0  0  0  0  0  0  0  0  0  0  0
  130.3971  128.1147   57.2646 H   0  0  0  0  0  0  0  0  0  0  0  0
  128.4401  127.8310   61.5276 H   0  0  0  0  0  0  0  0  0  0  0  0
  124.8816  130.4491   61.3693 H   0  0  0  0  0  0  0  0  0  0  0  0
  123.5377  130.3929   63.4557 H   0  0  0  0  0  0  0  0  0  0  0  0
  124.1820  129.6792   67.8418 H   0  0  0  0  0  0  0  0  0  0  0  0
  125.1119  128.2980   67.1678 H   0  0  0  0  0  0  0  0  0  0  0  0
  125.8255  129.9465   67.1678 H   0  0  0  0  0  0  0  0  0  0  0  0
  126.9478  128.8406   65.6112 H   0  0  0  0  0  0  0  0  0  0  0  0
  128.2895  128.9003   63.5212 H   0  0  0  0  0  0  0  0  0  0  0  0
  130.2801  131.9751   56.3799 H   0  0  0  0  0  0  0  0  0  0  0  0
  130.0074  133.4605   57.4294 H   0  0  0  0  0  0  0  0  0  0  0  0
  129.8970  132.8140   59.8260 H   0  0  0  0  0  0  0  0  0  0  0  0
  133.4416  131.5259   59.9237 H   0  0  0  0  0  0  0  0  0  0  0  0
  134.1082  131.0445   62.4777 H   0  0  0  0  0  0  0  0  0  0  0  0
  130.0622  126.6617   61.3159 H   0  0  0  0  0  0  0  0  0  0  0  0
  131.6574  124.8384   60.7975 H   0  0  0  0  0  0  0  0  0  0  0  0
  1  2  1  0
  2  3  1  0
  3  4  2  0
  4  5  1  0
  5  6  2  0
  6  7  1  0
  7  8  2  0
  8  9  1  0
  9 10  1  0
 10 11  2  0
 11 12  1  0
 12 13  2  0
 13 14  1  0
 14 15  1  0
 13 16  1  0
 16 17  2  0
  9 18  2  0
 18 19  1  0
 19 20  3  0
 18 21  1  0
 21 22  1  0
 22 23  1  0
 23 24  1  0
 24 25  2  0
 24 26  1  0
 26 27  1  0
 27 28  1  0
 28 29  2  0
 29 30  1  0
 30 31  1  0
 21 32  2  0
  6 33  1  0
 33 34  2  0
 34  3  1  0
 32  7  1  0
 17 10  1  0
 31 27  2  0
  1 35  1  0
  1 36  1  0
  1 37  1  0
  4 38  1  0
  5 39  1  0
  8 40  1  0
 11 41  1  0
 12 42  1  0
 15 43  1  0
 15 44  1  0
 15 45  1  0
 16 46  1  0
 17 47  1  0
 23 48  1  0
 23 49  1  0
 26 50  1  0
 28 51  1  0
 29 52  1  0
 33 53  1  0
 34 54  1  0
M  END
>  <Binding energies>  (1) 
[-6.73]

>  <Ligand effiencies>  (1) 
[-0.1922857142857143]

>  <Interactions>  (1) 
["V-A:TYR:539:CE1:4873, V-A:TYR:539:CD1:4871, V-A:PRO:540:CB:4883, H-A:ALA:541:N:4889, V-A:PRO:540:CA:4881, V-A:PRO:540:N:4882, V-A:TYR:539:C:4865, V-A:ILE:369:CD1:3236, V-A:ASP:366:CG:3210, V-A:ILE:369:CG2:3234, V-B:HIS:456:CE1:9040, H-A:ARG:545:NH2:4926, V-A:PRO:540:C:4879, V-A:ASP:366:CA:3207, V-A:ASP:366:CB:3209, H-B:GLY:454:N:9021, V-A:ILE:369:CB:3233, V-B:ARG:545:CZ:9898, V-B:ARG:545:CG:9894, V-A:ARG:545:CZ:4924, V-B:TYR:484:CZ:9318, H-A:TYR:539:O:4866, H-B:ARG:545:NE:9896, V-B:ARG:545:CD:9895, H-B:TYR:539:OH:9850, H-A:TYR:531:OH:4793, H-B:TYR:484:OH:9319, V-A:ASN:362:CB:3173"]

$$$$
1b_Grossjean_2025
     RDKit          3D

 42 43  0  0  0  0  0  0  0  0999 V2000
  130.4750  126.3080   73.6020 C   0  0  0  0  0  0  0  0  0  0  0  0
  129.3460  127.1560   73.7600 O   0  0  0  0  0  0  0  0  0  0  0  0
  129.1320  128.1980   72.9160 C   0  0  0  0  0  0  0  0  0  0  0  0
  128.7400  129.3080   73.2910 O   0  0  0  0  0  0  0  0  0  0  0  0
  129.4270  127.8700   71.4800 C   0  0  0  0  0  0  0  0  0  0  0  0
  130.6990  128.0650   70.9200 C   0  0  0  0  0  0  0  0  0  0  0  0
  130.9380  127.7520   69.5860 C   0  0  0  0  0  0  0  0  0  0  0  0
  129.9190  127.2380   68.7850 C   0  0  0  0  0  0  0  0  0  0  0  0
  130.2750  126.9590   67.4510 N   0  0  0  0  0  0  0  0  0  0  0  0
  130.4950  125.7750   66.8390 C   0  0  0  0  0  0  0  0  0  0  0  0
  130.4130  124.6680   67.3700 O   0  0  0  0  0  0  0  0  0  0  0  0
  130.8650  125.8630   65.3570 C   0  0  0  0  0  0  0  0  0  0  0  0
  132.5430  125.2440   65.0310 S   0  0  0  0  0  0  0  0  0  0  0  0
  132.4570  124.2140   63.5820 C   0  0  0  0  0  0  0  0  0  0  0  0
  133.3110  124.5850   62.5960 N   0  0  0  0  0  0  0  0  0  0  0  0
  133.3300  123.8690   61.4480 C   0  0  0  0  0  0  0  0  0  0  0  0
  134.3210  124.3330   60.3970 C   0  0  0  0  0  0  0  0  0  0  0  0
  132.4980  122.7720   61.2330 C   0  0  0  0  0  0  0  0  0  0  0  0
  131.5980  122.3960   62.2340 C   0  0  0  0  0  0  0  0  0  0  0  0
  130.6850  121.2000   61.9690 C   0  0  0  0  0  0  0  0  0  0  0  0
  131.5600  123.1290   63.4420 C   0  0  0  0  0  0  0  0  0  0  0  0
  130.5950  122.7800   64.4880 C   0  0  0  0  0  0  0  0  0  0  0  0
  129.8320  122.5020   65.3110 N   0  0  0  0  0  0  0  0  0  0  0  0
  128.6450  127.0390   69.3370 C   0  0  0  0  0  0  0  0  0  0  0  0
  128.4060  127.3530   70.6720 C   0  0  0  0  0  0  0  0  0  0  0  0
  130.8586  126.0199   74.5919 H   0  0  0  0  0  0  0  0  0  0  0  0
  130.1809  125.4057   73.0459 H   0  0  0  0  0  0  0  0  0  0  0  0
  131.2596  126.8419   73.0459 H   0  0  0  0  0  0  0  0  0  0  0  0
  131.5128  128.4683   71.5405 H   0  0  0  0  0  0  0  0  0  0  0  0
  131.9393  127.9113   69.1594 H   0  0  0  0  0  0  0  0  0  0  0  0
  130.3910  127.7820   66.8780 H   0  0  0  0  0  0  0  0  0  0  0  0
  130.1475  125.2645   64.7765 H   0  0  0  0  0  0  0  0  0  0  0  0
  130.8325  126.9224   65.0629 H   0  0  0  0  0  0  0  0  0  0  0  0
  135.2111  124.7498   60.8910 H   0  0  0  0  0  0  0  0  0  0  0  0
  134.6160  123.4794   59.7690 H   0  0  0  0  0  0  0  0  0  0  0  0
  133.8543  125.1062   59.7690 H   0  0  0  0  0  0  0  0  0  0  0  0
  132.5489  122.2099   60.2888 H   0  0  0  0  0  0  0  0  0  0  0  0
  130.3567  120.7700   62.9268 H   0  0  0  0  0  0  0  0  0  0  0  0
  129.8066  121.5294   61.3947 H   0  0  0  0  0  0  0  0  0  0  0  0
  131.2344  120.4395   61.3947 H   0  0  0  0  0  0  0  0  0  0  0  0
  127.8336  126.6343   68.7142 H   0  0  0  0  0  0  0  0  0  0  0  0
  127.4042  127.1934   71.0972 H   0  0  0  0  0  0  0  0  0  0  0  0
  1  2  1  0
  2  3  1  0
  3  4  2  0
  3  5  1  0
  5  6  2  0
  6  7  1  0
  7  8  2  0
  8  9  1  0
  9 10  1  0
 10 11  2  0
 10 12  1  0
 12 13  1  0
 13 14  1  0
 14 15  2  0
 15 16  1  0
 16 17  1  0
 16 18  2  0
 18 19  1  0
 19 20  1  0
 19 21  2  0
 21 22  1  0
 22 23  3  0
  8 24  1  0
 24 25  2  0
 25  5  1  0
 21 14  1  0
  1 26  1  0
  1 27  1  0
  1 28  1  0
  6 29  1  0
  7 30  1  0
  9 31  1  0
 12 32  1  0
 12 33  1  0
 17 34  1  0
 17 35  1  0
 17 36  1  0
 18 37  1  0
 20 38  1  0
 20 39  1  0
 20 40  1  0
 24 41  1  0
 25 42  1  0
M  END
>  <Binding energies>  (1) 
[-7.13]

>  <Ligand effiencies>  (1) 
[-0.2742307692307692]

>  <Interactions>  (1) 
["V-B:TYR:539:CE1:9847, V-A:ILE:369:CD1:3236, V-A:LEU:475:CD2:4256, V-A:GLU:543:CG:4905, V-A:ASP:366:CG:3210, V-A:ILE:369:CG2:3234, V-B:HIS:456:CE1:9040, V-B:GLU:543:CD:9880, V-B:GLU:543:CB:9878, V-B:GLU:543:CG:9879, V-A:HIS:456:CE1:4066, H-A:GLU:543:OE2:4908, V-A:ASP:366:CA:3207, V-A:TYR:484:CE2:4343, V-A:TYR:484:CZ:4344, V-A:GLU:543:CD:4906, V-B:GLU:543:C:9874, V-A:ILE:369:CB:3233, H-A:GLY:454:N:4047, H-A:GLU:543:OE1:4907, V-B:ALA:541:CB:9864, V-A:HIS:456:CD2:4065, H-A:HIS:456:NE2:4067, H-B:HIS:456:NE2:9041, V-A:GLY:544:C:4910, H-A:TYR:484:OH:4345, H-A:ARG:545:NE:4922, V-A:GLY:544:CA:4912, V-A:GLU:543:C:4900, V-B:HIS:456:CD2:9039, V-A:LYS:547:CE:4948, H-B:LYS:547:NZ:9923, H-A:LYS:547:NZ:4949"]

$$$$
1c_Ghoteimi_2023
     RDKit          3D

 54 57  0  0  0  0  0  0  0  0999 V2000
  134.3200  125.1860   67.2610 C   0  0  0  0  0  0  0  0  0  0  0  0
  134.2490  124.7260   65.9160 O   0  0  0  0  0  0  0  0  0  0  0  0
  133.1960  125.1320   65.1180 C   0  0  0  0  0  0  0  0  0  0  0  0
  133.4390  125.1990   63.7490 C   0  0  0  0  0  0  0  0  0  0  0  0
  132.4370  125.6010   62.8700 C   0  0  0  0  0  0  0  0  0  0  0  0
  131.1600  125.9500   63.3360 C   0  0  0  0  0  0  0  0  0  0  0  0
  130.0770  126.3890   62.3930 C   0  0  0  0  0  0  0  0  0  0  0  0
  129.0750  127.2940   62.7600 C   0  0  0  0  0  0  0  0  0  0  0  0
  128.1020  127.6940   61.8370 C   0  0  0  0  0  0  0  0  0  0  0  0
  127.1030  128.7130   62.2770 C   0  0  0  0  0  0  0  0  0  0  0  0
  126.5800  129.6360   61.3670 C   0  0  0  0  0  0  0  0  0  0  0  0
  125.6660  130.5990   61.7830 C   0  0  0  0  0  0  0  0  0  0  0  0
  125.2610  130.6600   63.1160 C   0  0  0  0  0  0  0  0  0  0  0  0
  124.3500  131.6480   63.4390 O   0  0  0  0  0  0  0  0  0  0  0  0
  123.8980  132.5360   62.4220 C   0  0  0  0  0  0  0  0  0  0  0  0
  125.7880  129.7390   64.0350 C   0  0  0  0  0  0  0  0  0  0  0  0
  126.7030  128.7770   63.6150 C   0  0  0  0  0  0  0  0  0  0  0  0
  128.1390  127.1400   60.5360 C   0  0  0  0  0  0  0  0  0  0  0  0
  127.1280  127.4930   59.5330 C   0  0  0  0  0  0  0  0  0  0  0  0
  126.3300  127.7730   58.7430 N   0  0  0  0  0  0  0  0  0  0  0  0
  129.1860  126.2470   60.2280 C   0  0  0  0  0  0  0  0  0  0  0  0
  129.4550  125.6080   58.5890 S   0  0  0  0  0  0  0  0  0  0  0  0
  131.2310  125.8630   58.2740 C   0  0  0  0  0  0  0  0  0  0  0  0
  132.0750  124.6610   58.7140 C   0  0  0  0  0  0  0  0  0  0  0  0
  133.1270  124.4080   58.1250 O   0  0  0  0  0  0  0  0  0  0  0  0
  131.5960  123.9810   59.7790 N   0  0  0  0  0  0  0  0  0  0  0  0
  132.2360  122.9620   60.4670 C   0  0  0  0  0  0  0  0  0  0  0  0
  131.7770  121.7590   60.7380 N   0  0  0  0  0  0  0  0  0  0  0  0
  132.6740  121.0320   61.3750 C   0  0  0  0  0  0  0  0  0  0  0  0
  133.8950  121.6480   61.6320 C   0  0  0  0  0  0  0  0  0  0  0  0
  133.8560  123.2680   61.0030 S   0  0  0  0  0  0  0  0  0  0  0  0
  130.1320  125.8910   61.1300 N   0  0  0  0  0  0  0  0  0  0  0  0
  130.9240  125.8730   64.7170 C   0  0  0  0  0  0  0  0  0  0  0  0
  131.9240  125.4730   65.5990 C   0  0  0  0  0  0  0  0  0  0  0  0
  134.1888  124.3359   67.9467 H   0  0  0  0  0  0  0  0  0  0  0  0
  135.3007  125.6518   67.4379 H   0  0  0  0  0  0  0  0  0  0  0  0
  133.5254  125.9258   67.4379 H   0  0  0  0  0  0  0  0  0  0  0  0
  134.4319  124.9319   63.3581 H   0  0  0  0  0  0  0  0  0  0  0  0
  132.6499  125.6459   61.7917 H   0  0  0  0  0  0  0  0  0  0  0  0
  129.0518  127.6950   63.7840 H   0  0  0  0  0  0  0  0  0  0  0  0
  126.8936  129.6008   60.3132 H   0  0  0  0  0  0  0  0  0  0  0  0
  125.2601  131.3172   61.0554 H   0  0  0  0  0  0  0  0  0  0  0  0
  123.4456  133.4249   62.8859 H   0  0  0  0  0  0  0  0  0  0  0  0
  124.7500  132.8420   61.7972 H   0  0  0  0  0  0  0  0  0  0  0  0
  123.1492  132.0272   61.7972 H   0  0  0  0  0  0  0  0  0  0  0  0
  125.4774  129.7773   65.0895 H   0  0  0  0  0  0  0  0  0  0  0  0
  127.1145  128.0615   64.3421 H   0  0  0  0  0  0  0  0  0  0  0  0
  131.3800  126.0252   57.1963 H   0  0  0  0  0  0  0  0  0  0  0  0
  131.5560  126.7363   58.8586 H   0  0  0  0  0  0  0  0  0  0  0  0
  130.7160  124.2860   60.1670 H   0  0  0  0  0  0  0  0  0  0  0  0
  132.4686  119.9970   61.6857 H   0  0  0  0  0  0  0  0  0  0  0  0
  134.7476  121.1844   62.1498 H   0  0  0  0  0  0  0  0  0  0  0  0
  129.9302  126.1336   65.1101 H   0  0  0  0  0  0  0  0  0  0  0  0
  131.7153  125.4243   66.6779 H   0  0  0  0  0  0  0  0  0  0  0  0
  1  2  1  0
  2  3  1  0
  3  4  2  0
  4  5  1  0
  5  6  2  0
  6  7  1  0
  7  8  2  0
  8  9  1  0
  9 10  1  0
 10 11  2  0
 11 12  1  0
 12 13  2  0
 13 14  1  0
 14 15  1  0
 13 16  1  0
 16 17  2  0
  9 18  2  0
 18 19  1  0
 19 20  3  0
 18 21  1  0
 21 22  1  0
 22 23  1  0
 23 24  1  0
 24 25  2  0
 24 26  1  0
 26 27  1  0
 27 28  2  0
 28 29  1  0
 29 30  2  0
 30 31  1  0
 21 32  2  0
  6 33  1  0
 33 34  2  0
 34  3  1  0
 32  7  1  0
 17 10  1  0
 31 27  1  0
  1 35  1  0
  1 36  1  0
  1 37  1  0
  4 38  1  0
  5 39  1  0
  8 40  1  0
 11 41  1  0
 12 42  1  0
 15 43  1  0
 15 44  1  0
 15 45  1  0
 16 46  1  0
 17 47  1  0
 23 48  1  0
 23 49  1  0
 26 50  1  0
 29 51  1  0
 30 52  1  0
 33 53  1  0
 34 54  1  0
M  END
>  <Binding energies>  (1) 
[-6.0]

>  <Ligand effiencies>  (1) 
[-0.17142857142857143]

>  <Interactions>  (1) 
["V-B:GLY:454:CA:9020, V-B:ILE:369:CD1:8210, V-B:ASP:366:CG:8184, V-B:TYR:539:CE1:9847, V-A:ILE:369:CD1:3236, V-A:LEU:475:CD2:4256, V-A:GLY:454:CA:4046, V-A:ASP:366:CG:3210, V-A:ILE:369:CG2:3234, V-B:GLU:543:CD:9880, V-A:HIS:456:CE1:4066, H-B:GLY:454:N:9021, V-A:TYR:484:CZ:4344, V-B:ARG:545:CZ:9898, V-A:ARG:545:CZ:4924, V-A:ARG:545:CG:4920, H-A:GLY:454:N:4047, V-A:ARG:545:CD:4921, V-B:TYR:539:CZ:9849, V-A:GLY:453:CA:4041, H-A:TYR:484:OH:4345, H-B:TYR:539:OH:9850, V-A:ARG:545:CB:4919, H-B:TYR:531:OH:9767, V-A:GLY:454:C:4044, V-A:ILE:455:C:4049, H-A:ILE:455:N:4052, V-A:TYR:484:CE1:4342"]

$$$$
1c_Grossjean_2025
     RDKit          3D

 40 41  0  0  0  0  0  0  0  0999 V2000
  127.2530  128.9050   75.2310 C   0  0  0  0  0  0  0  0  0  0  0  0
  128.4590  128.2820   74.8020 O   0  0  0  0  0  0  0  0  0  0  0  0
  128.6060  127.9430   73.4710 C   0  0  0  0  0  0  0  0  0  0  0  0
  129.9130  127.8440   72.9950 C   0  0  0  0  0  0  0  0  0  0  0  0
  130.1640  127.5070   71.6680 C   0  0  0  0  0  0  0  0  0  0  0  0
  129.0960  127.2560   70.7950 C   0  0  0  0  0  0  0  0  0  0  0  0
  129.2350  126.9180   69.4340 N   0  0  0  0  0  0  0  0  0  0  0  0
  129.1810  127.7130   68.3440 C   0  0  0  0  0  0  0  0  0  0  0  0
  129.0090  128.9320   68.3560 O   0  0  0  0  0  0  0  0  0  0  0  0
  129.3600  126.9990   67.0030 C   0  0  0  0  0  0  0  0  0  0  0  0
  130.8940  126.0260   66.9530 S   0  0  0  0  0  0  0  0  0  0  0  0
  131.3560  125.7900   65.2490 C   0  0  0  0  0  0  0  0  0  0  0  0
  130.3120  125.8950   64.3880 N   0  0  0  0  0  0  0  0  0  0  0  0
  130.5410  125.7340   63.0640 C   0  0  0  0  0  0  0  0  0  0  0  0
  129.3290  125.8770   62.1630 C   0  0  0  0  0  0  0  0  0  0  0  0
  131.8040  125.4530   62.5480 C   0  0  0  0  0  0  0  0  0  0  0  0
  132.8820  125.3180   63.4280 C   0  0  0  0  0  0  0  0  0  0  0  0
  134.2540  124.9930   62.8410 C   0  0  0  0  0  0  0  0  0  0  0  0
  132.6670  125.4800   64.8170 C   0  0  0  0  0  0  0  0  0  0  0  0
  133.7730  125.2880   65.7580 C   0  0  0  0  0  0  0  0  0  0  0  0
  134.6470  125.1370   66.5010 N   0  0  0  0  0  0  0  0  0  0  0  0
  127.7860  127.3650   71.2650 C   0  0  0  0  0  0  0  0  0  0  0  0
  127.5390  127.7030   72.5920 C   0  0  0  0  0  0  0  0  0  0  0  0
  127.2200  128.9220   76.3304 H   0  0  0  0  0  0  0  0  0  0  0  0
  127.2158  129.9351   74.8471 H   0  0  0  0  0  0  0  0  0  0  0  0
  126.3913  128.3392   74.8471 H   0  0  0  0  0  0  0  0  0  0  0  0
  130.7555  128.0345   73.6762 H   0  0  0  0  0  0  0  0  0  0  0  0
  131.1998  127.4376   71.3044 H   0  0  0  0  0  0  0  0  0  0  0  0
  129.4530  125.9470   69.2670 H   0  0  0  0  0  0  0  0  0  0  0  0
  128.5058  126.3248   66.8422 H   0  0  0  0  0  0  0  0  0  0  0  0
  129.4154  127.7637   66.2143 H   0  0  0  0  0  0  0  0  0  0  0  0
  128.4243  125.9837   62.7796 H   0  0  0  0  0  0  0  0  0  0  0  0
  129.4472  126.7674   61.5280 H   0  0  0  0  0  0  0  0  0  0  0  0
  129.2367  124.9835   61.5280 H   0  0  0  0  0  0  0  0  0  0  0  0
  131.9511  125.3390   61.4639 H   0  0  0  0  0  0  0  0  0  0  0  0
  134.9713  124.8231   63.6575 H   0  0  0  0  0  0  0  0  0  0  0  0
  134.1824  124.0870   62.2214 H   0  0  0  0  0  0  0  0  0  0  0  0
  134.5965  125.8349   62.2214 H   0  0  0  0  0  0  0  0  0  0  0  0
  126.9435  127.1825   70.5818 H   0  0  0  0  0  0  0  0  0  0  0  0
  126.5031  127.7824   72.9534 H   0  0  0  0  0  0  0  0  0  0  0  0
  1  2  1  0
  2  3  1  0
  3  4  2  0
  4  5  1  0
  5  6  2  0
  6  7  1  0
  7  8  1  0
  8  9  2  0
  8 10  1  0
 10 11  1  0
 11 12  1  0
 12 13  2  0
 13 14  1  0
 14 15  1  0
 14 16  2  0
 16 17  1  0
 17 18  1  0
 17 19  2  0
 19 20  1  0
 20 21  3  0
  6 22  1  0
 22 23  2  0
 23  3  1  0
 19 12  1  0
  1 24  1  0
  1 25  1  0
  1 26  1  0
  4 27  1  0
  5 28  1  0
  7 29  1  0
 10 30  1  0
 10 31  1  0
 15 32  1  0
 15 33  1  0
 15 34  1  0
 16 35  1  0
 18 36  1  0
 18 37  1  0
 18 38  1  0
 22 39  1  0
 23 40  1  0
M  END
>  <Binding energies>  (1) 
[-7.2]

>  <Ligand effiencies>  (1) 
[-0.3]

>  <Interactions>  (1) 
["V-A:GLY:453:C:4039, V-A:GLY:454:CA:4046, V-A:GLU:543:CG:4905, V-B:HIS:456:CE1:9040, V-B:GLU:543:CD:9880, V-B:GLU:543:CB:9878, V-B:GLU:543:CG:9879, V-A:HIS:456:CE1:4066, V-A:GLU:543:CD:4906, V-B:GLU:543:C:9874, V-B:GLY:544:C:9884, V-A:ARG:545:CZ:4924, V-A:ARG:545:CG:4920, H-A:GLY:454:N:4047, V-A:ARG:545:CD:4921, V-A:HIS:456:CD2:4065, H-A:HIS:456:NE2:4067, H-B:HIS:456:NE2:9041, V-A:GLY:453:CA:4041, V-A:GLY:544:C:4910, H-A:TYR:484:OH:4345, H-A:ARG:545:NE:4922, V-A:GLY:544:CA:4912, V-B:HIS:456:CD2:9039, V-B:HIS:456:CG:9037, V-A:LYS:547:CE:4948, V-B:GLY:544:CA:9886, H-B:LYS:547:NZ:9923, H-A:LYS:547:NZ:4949, H-B:GLU:543:O:9875, H-A:ILE:455:N:4052"]

$$$$
1d_Ghoteimi_2023
     RDKit          3D

 50 52  0  0  0  0  0  0  0  0999 V2000
  129.5600  133.0030   60.6050 C   0  0  0  0  0  0  0  0  0  0  0  0
  130.2030  132.1460   61.5370 O   0  0  0  0  0  0  0  0  0  0  0  0
  131.4670  131.7260   61.3210 C   0  0  0  0  0  0  0  0  0  0  0  0
  132.4120  131.8280   62.1050 O   0  0  0  0  0  0  0  0  0  0  0  0
  131.6380  131.0830   59.9480 C   0  0  0  0  0  0  0  0  0  0  0  0
  130.0800  130.2400   59.5400 S   0  0  0  0  0  0  0  0  0  0  0  0
  129.5700  129.3550   60.9970 C   0  0  0  0  0  0  0  0  0  0  0  0
  130.3420  128.2790   61.2790 N   0  0  0  0  0  0  0  0  0  0  0  0
  130.0620  127.5110   62.3630 C   0  0  0  0  0  0  0  0  0  0  0  0
  130.9690  126.3400   62.6090 C   0  0  0  0  0  0  0  0  0  0  0  0
  130.9740  125.6680   63.8420 C   0  0  0  0  0  0  0  0  0  0  0  0
  131.8210  124.5880   64.0700 C   0  0  0  0  0  0  0  0  0  0  0  0
  132.6900  124.1450   63.0760 C   0  0  0  0  0  0  0  0  0  0  0  0
  133.4960  123.0680   63.3920 O   0  0  0  0  0  0  0  0  0  0  0  0
  133.6390  122.0100   62.4510 C   0  0  0  0  0  0  0  0  0  0  0  0
  132.6980  124.8060   61.8400 C   0  0  0  0  0  0  0  0  0  0  0  0
  131.8480  125.8860   61.6150 C   0  0  0  0  0  0  0  0  0  0  0  0
  128.9860  127.8250   63.2010 C   0  0  0  0  0  0  0  0  0  0  0  0
  128.1620  128.9230   62.9240 C   0  0  0  0  0  0  0  0  0  0  0  0
  127.0260  129.1980   63.8560 C   0  0  0  0  0  0  0  0  0  0  0  0
  125.7350  129.3870   63.3550 C   0  0  0  0  0  0  0  0  0  0  0  0
  124.6720  129.6430   64.2180 C   0  0  0  0  0  0  0  0  0  0  0  0
  124.8770  129.7090   65.5960 C   0  0  0  0  0  0  0  0  0  0  0  0
  123.7670  129.9740   66.3740 O   0  0  0  0  0  0  0  0  0  0  0  0
  123.7920  129.6420   67.7580 C   0  0  0  0  0  0  0  0  0  0  0  0
  126.1700  129.5060   66.1040 C   0  0  0  0  0  0  0  0  0  0  0  0
  127.2300  129.2500   65.2400 C   0  0  0  0  0  0  0  0  0  0  0  0
  128.4440  129.7050   61.7760 C   0  0  0  0  0  0  0  0  0  0  0  0
  127.5550  130.8020   61.3810 C   0  0  0  0  0  0  0  0  0  0  0  0
  126.8520  131.6670   61.0700 N   0  0  0  0  0  0  0  0  0  0  0  0
  128.9855  133.7687   61.1468 H   0  0  0  0  0  0  0  0  0  0  0  0
  130.3166  133.4911   59.9731 H   0  0  0  0  0  0  0  0  0  0  0  0
  128.8798  132.4130   59.9731 H   0  0  0  0  0  0  0  0  0  0  0  0
  131.8547  131.8559   59.1959 H   0  0  0  0  0  0  0  0  0  0  0  0
  132.4740  130.3681   59.9569 H   0  0  0  0  0  0  0  0  0  0  0  0
  130.2963  126.0013   64.6417 H   0  0  0  0  0  0  0  0  0  0  0  0
  131.8041  124.0790   65.0450 H   0  0  0  0  0  0  0  0  0  0  0  0
  133.7677  121.0578   62.9866 H   0  0  0  0  0  0  0  0  0  0  0  0
  132.7399  121.9569   61.8195 H   0  0  0  0  0  0  0  0  0  0  0  0
  134.5200  122.1975   61.8195 H   0  0  0  0  0  0  0  0  0  0  0  0
  133.3788  124.4701   61.0440 H   0  0  0  0  0  0  0  0  0  0  0  0
  131.8664  126.3927   60.6388 H   0  0  0  0  0  0  0  0  0  0  0  0
  128.7855  127.2032   64.0860 H   0  0  0  0  0  0  0  0  0  0  0  0
  125.5570  129.3332   62.2708 H   0  0  0  0  0  0  0  0  0  0  0  0
  123.6621  129.7944   63.8091 H   0  0  0  0  0  0  0  0  0  0  0  0
  123.7227  130.5620   68.3571 H   0  0  0  0  0  0  0  0  0  0  0  0
  122.9407  128.9863   67.9932 H   0  0  0  0  0  0  0  0  0  0  0  0
  124.7319  129.1212   67.9932 H   0  0  0  0  0  0  0  0  0  0  0  0
  126.3456  129.5495   67.1890 H   0  0  0  0  0  0  0  0  0  0  0  0
  128.2383  129.0869   65.6484 H   0  0  0  0  0  0  0  0  0  0  0  0
  1  2  1  0
  2  3  1  0
  3  4  2  0
  3  5  1  0
  5  6  1  0
  6  7  1  0
  7  8  2  0
  8  9  1  0
  9 10  1  0
 10 11  2  0
 11 12  1  0
 12 13  2  0
 13 14  1  0
 14 15  1  0
 13 16  1  0
 16 17  2  0
  9 18  2  0
 18 19  1  0
 19 20  1  0
 20 21  2  0
 21 22  1  0
 22 23  2  0
 23 24  1  0
 24 25  1  0
 23 26  1  0
 26 27  2  0
 19 28  2  0
 28 29  1  0
 29 30  3  0
 28  7  1  0
 17 10  1  0
 27 20  1  0
  1 31  1  0
  1 32  1  0
  1 33  1  0
  5 34  1  0
  5 35  1  0
 11 36  1  0
 12 37  1  0
 15 38  1  0
 15 39  1  0
 15 40  1  0
 16 41  1  0
 17 42  1  0
 18 43  1  0
 21 44  1  0
 22 45  1  0
 25 46  1  0
 25 47  1  0
 25 48  1  0
 26 49  1  0
 27 50  1  0
M  END
>  <Binding energies>  (1) 
[-5.84]

>  <Ligand effiencies>  (1) 
[-0.19466666666666665]

>  <Interactions>  (1) 
["V-A:PRO:540:CB:4883, H-A:ALA:541:N:4889, V-A:PRO:540:CA:4881, V-A:PRO:540:N:4882, V-A:TYR:539:C:4865, V-A:ILE:369:CD1:3236, V-A:LEU:475:CD2:4256, V-A:GLY:454:CA:4046, V-A:ASP:366:CG:3210, V-B:HIS:456:CE1:9040, V-B:GLU:543:CD:9880, H-A:ARG:545:NH2:4926, V-A:PRO:540:C:4879, H-B:GLY:454:N:9021, V-A:GLU:543:CD:4906, V-B:ARG:545:CZ:9898, V-B:ARG:545:CG:9894, H-A:GLY:454:N:4047, V-B:TYR:484:CZ:9318, H-B:ARG:545:NE:9896, V-B:ARG:545:CD:9895, H-A:TYR:484:OH:4345, H-B:TYR:484:OH:9319, H-B:ILE:455:N:9026, V-B:ARG:545:CB:9893, V-B:ILE:455:C:9023"]

$$$$
1d_Grossjean_2025
     RDKit          3D

 36 37  0  0  0  0  0  0  0  0999 V2000
  129.3120  131.8900   74.5840 C   0  0  0  0  0  0  0  0  0  0  0  0
  128.1480  130.9260   74.7080 C   0  0  0  0  0  0  0  0  0  0  0  0
  127.0250  131.2310   75.4740 C   0  0  0  0  0  0  0  0  0  0  0  0
  125.9770  130.3070   75.5440 C   0  0  0  0  0  0  0  0  0  0  0  0
  124.7500  130.6710   76.3780 C   0  0  0  0  0  0  0  0  0  0  0  0
  126.0860  129.0840   74.8430 C   0  0  0  0  0  0  0  0  0  0  0  0
  124.9820  128.1230   74.8620 C   0  0  0  0  0  0  0  0  0  0  0  0
  124.1070  127.3650   74.8790 N   0  0  0  0  0  0  0  0  0  0  0  0
  127.2730  128.8480   74.1090 C   0  0  0  0  0  0  0  0  0  0  0  0
  127.5790  127.3670   73.1720 S   0  0  0  0  0  0  0  0  0  0  0  0
  129.2910  127.4520   72.5650 C   0  0  0  0  0  0  0  0  0  0  0  0
  130.1970  126.4300   73.2520 C   0  0  0  0  0  0  0  0  0  0  0  0
  129.7910  125.2800   73.4150 O   0  0  0  0  0  0  0  0  0  0  0  0
  131.4160  126.8880   73.6120 N   0  0  0  0  0  0  0  0  0  0  0  0
  132.4710  126.2270   74.2680 C   0  0  0  0  0  0  0  0  0  0  0  0
  132.1110  125.0930   75.0020 C   0  0  0  0  0  0  0  0  0  0  0  0
  133.0780  124.3610   75.6850 C   0  0  0  0  0  0  0  0  0  0  0  0
  134.4120  124.7600   75.6300 C   0  0  0  0  0  0  0  0  0  0  0  0
  134.7850  125.8820   74.8950 C   0  0  0  0  0  0  0  0  0  0  0  0
  133.8200  126.6170   74.2120 C   0  0  0  0  0  0  0  0  0  0  0  0
  128.2750  129.7600   74.0310 N   0  0  0  0  0  0  0  0  0  0  0  0
  129.6588  132.1772   75.5876 H   0  0  0  0  0  0  0  0  0  0  0  0
  130.1337  131.4043   74.0372 H   0  0  0  0  0  0  0  0  0  0  0  0
  128.9879  132.7878   74.0372 H   0  0  0  0  0  0  0  0  0  0  0  0
  126.9632  132.1858   76.0166 H   0  0  0  0  0  0  0  0  0  0  0  0
  124.9983  130.5973   77.4471 H   0  0  0  0  0  0  0  0  0  0  0  0
  124.4395  131.6999   76.1437 H   0  0  0  0  0  0  0  0  0  0  0  0
  123.9286  129.9778   76.1437 H   0  0  0  0  0  0  0  0  0  0  0  0
  129.2934  127.2568   71.4825 H   0  0  0  0  0  0  0  0  0  0  0  0
  129.6807  128.4555   72.7909 H   0  0  0  0  0  0  0  0  0  0  0  0
  131.6210  127.8460   73.3660 H   0  0  0  0  0  0  0  0  0  0  0  0
  131.0579  124.7775   75.0400 H   0  0  0  0  0  0  0  0  0  0  0  0
  132.7906  123.4719   76.2654 H   0  0  0  0  0  0  0  0  0  0  0  0
  135.1765  124.1838   76.1717 H   0  0  0  0  0  0  0  0  0  0  0  0
  135.8410  126.1874   74.8540 H   0  0  0  0  0  0  0  0  0  0  0  0
  134.1132  127.5024   73.6289 H   0  0  0  0  0  0  0  0  0  0  0  0
  1  2  1  0
  2  3  2  0
  3  4  1  0
  4  5  1  0
  4  6  2  0
  6  7  1  0
  7  8  3  0
  6  9  1  0
  9 10  1  0
 10 11  1  0
 11 12  1  0
 12 13  2  0
 12 14  1  0
 14 15  1  0
 15 16  2  0
 16 17  1  0
 17 18  2  0
 18 19  1  0
 19 20  2  0
  9 21  2  0
 21  2  1  0
 20 15  1  0
  1 22  1  0
  1 23  1  0
  1 24  1  0
  3 25  1  0
  5 26  1  0
  5 27  1  0
  5 28  1  0
 11 29  1  0
 11 30  1  0
 14 31  1  0
 16 32  1  0
 17 33  1  0
 18 34  1  0
 19 35  1  0
 20 36  1  0
M  END
>  <Binding energies>  (1) 
[-7.78]

>  <Ligand effiencies>  (1) 
[-0.35363636363636364]

>  <Interactions>  (1) 
["V-A:HIS:456:CD2:4065, H-A:HIS:456:NE2:4067, V-A:GLY:544:C:4910, V-A:LYS:547:CD:4947, V-A:VAL:458:CG2:4084, V-B:HIS:456:CD2:9039, V-B:HIS:456:CG:9037, V-A:HIS:456:CA:4060, V-A:HIS:456:C:4058, V-A:LYS:547:CE:4948, V-A:VAL:457:C:4070, V-A:HIS:456:CG:4063, H-B:LYS:547:NZ:9923, H-A:GLY:544:O:4911, V-A:LYS:471:CD:4216, V-A:HIS:456:CB:4062, H-A:LYS:547:NZ:4949, V-B:LYS:471:CD:9190, V-B:HIS:456:C:9032, V-B:LYS:547:CE:9922, V-B:ASP:473:CG:9211, V-B:HIS:456:CB:9036, V-B:VAL:458:CG2:9058, V-B:HIS:456:CA:9034, V-B:LYS:547:CD:9921, V-B:LYS:471:CG:9189"]

$$$$
1e_Grossjean_2025
     RDKit          3D

 38 39  0  0  0  0  0  0  0  0999 V2000
  134.9760  127.2990   74.7740 C   0  0  0  0  0  0  0  0  0  0  0  0
  133.7350  126.4280   74.7320 C   0  0  0  0  0  0  0  0  0  0  0  0
  133.7360  125.1290   75.2470 C   0  0  0  0  0  0  0  0  0  0  0  0
  132.5580  124.3850   75.1710 C   0  0  0  0  0  0  0  0  0  0  0  0
  131.4210  124.9490   74.5880 C   0  0  0  0  0  0  0  0  0  0  0  0
  131.4870  126.2580   74.0960 C   0  0  0  0  0  0  0  0  0  0  0  0
  130.3150  126.7680   73.5100 N   0  0  0  0  0  0  0  0  0  0  0  0
  130.1530  127.2960   72.2780 C   0  0  0  0  0  0  0  0  0  0  0  0
  131.0480  127.4300   71.4420 O   0  0  0  0  0  0  0  0  0  0  0  0
  128.7400  127.7800   71.9420 C   0  0  0  0  0  0  0  0  0  0  0  0
  127.5380  127.3140   73.2240 S   0  0  0  0  0  0  0  0  0  0  0  0
  127.1140  128.7670   74.1640 C   0  0  0  0  0  0  0  0  0  0  0  0
  128.0970  129.7030   74.1820 N   0  0  0  0  0  0  0  0  0  0  0  0
  127.8910  130.8520   74.8680 C   0  0  0  0  0  0  0  0  0  0  0  0
  129.0300  131.8530   74.8370 C   0  0  0  0  0  0  0  0  0  0  0  0
  126.7140  131.1080   75.5680 C   0  0  0  0  0  0  0  0  0  0  0  0
  125.7050  130.1400   75.5770 C   0  0  0  0  0  0  0  0  0  0  0  0
  124.4310  130.4380   76.3670 C   0  0  0  0  0  0  0  0  0  0  0  0
  125.8990  128.9320   74.8700 C   0  0  0  0  0  0  0  0  0  0  0  0
  124.8760  127.8840   74.9180 C   0  0  0  0  0  0  0  0  0  0  0  0
  124.0660  127.0580   74.9570 N   0  0  0  0  0  0  0  0  0  0  0  0
  132.6390  126.9900   74.1630 N   0  0  0  0  0  0  0  0  0  0  0  0
  135.2525  127.4931   75.8208 H   0  0  0  0  0  0  0  0  0  0  0  0
  135.8037  126.7827   74.2658 H   0  0  0  0  0  0  0  0  0  0  0  0
  134.7718  128.2530   74.2658 H   0  0  0  0  0  0  0  0  0  0  0  0
  134.6430  124.7035   75.7011 H   0  0  0  0  0  0  0  0  0  0  0  0
  132.5250  123.3597   75.5681 H   0  0  0  0  0  0  0  0  0  0  0  0
  130.4868  124.3727   74.5164 H   0  0  0  0  0  0  0  0  0  0  0  0
  129.5100  126.7810   74.1190 H   0  0  0  0  0  0  0  0  0  0  0  0
  128.7528  128.8760   71.8486 H   0  0  0  0  0  0  0  0  0  0  0  0
  128.4329  127.3040   70.9990 H   0  0  0  0  0  0  0  0  0  0  0  0
  129.3213  132.1090   75.8664 H   0  0  0  0  0  0  0  0  0  0  0  0
  129.8903  131.4134   74.3111 H   0  0  0  0  0  0  0  0  0  0  0  0
  128.7045  132.7626   74.3111 H   0  0  0  0  0  0  0  0  0  0  0  0
  126.5803  132.0581   76.1060 H   0  0  0  0  0  0  0  0  0  0  0  0
  124.6473  130.3874   77.4443 H   0  0  0  0  0  0  0  0  0  0  0  0
  124.0689  131.4451   76.1126 H   0  0  0  0  0  0  0  0  0  0  0  0
  123.6598  129.6960   76.1126 H   0  0  0  0  0  0  0  0  0  0  0  0
  1  2  1  0
  2  3  2  0
  3  4  1  0
  4  5  2  0
  5  6  1  0
  6  7  1  0
  7  8  1  0
  8  9  2  0
  8 10  1  0
 10 11  1  0
 11 12  1  0
 12 13  2  0
 13 14  1  0
 14 15  1  0
 14 16  2  0
 16 17  1  0
 17 18  1  0
 17 19  2  0
 19 20  1  0
 20 21  3  0
  6 22  2  0
 22  2  1  0
 19 12  1  0
  1 23  1  0
  1 24  1  0
  1 25  1  0
  3 26  1  0
  4 27  1  0
  5 28  1  0
  7 29  1  0
 10 30  1  0
 10 31  1  0
 15 32  1  0
 15 33  1  0
 15 34  1  0
 16 35  1  0
 18 36  1  0
 18 37  1  0
 18 38  1  0
M  END
>  <Binding energies>  (1) 
[-7.02]

>  <Ligand effiencies>  (1) 
[-0.30521739130434783]

>  <Interactions>  (1) 
["V-B:HIS:456:CE1:9040, V-A:HIS:456:CD2:4065, H-A:HIS:456:NE2:4067, V-A:LYS:547:CD:4947, V-A:VAL:458:CG2:4084, V-B:HIS:456:CD2:9039, V-B:HIS:456:CG:9037, V-A:HIS:456:CA:4060, V-A:HIS:456:C:4058, V-A:LYS:547:CE:4948, V-A:VAL:457:C:4070, V-A:HIS:456:CG:4063, H-B:LYS:547:NZ:9923, V-A:HIS:456:CB:4062, H-A:LYS:547:NZ:4949, V-B:LYS:471:CD:9190, V-B:HIS:456:C:9032, V-B:LYS:547:CE:9922, V-B:ASP:473:CG:9211, V-B:HIS:456:CB:9036, V-B:VAL:458:CG2:9058, V-B:LYS:547:CD:9921, V-A:LYS:547:CG:4946, V-B:LYS:547:CG:9920, V-B:LYS:471:CG:9189, V-A:LYS:547:CB:4945"]

$$$$
1f_Grossjean_2025
     RDKit          3D

 35 36  0  0  0  0  0  0  0  0999 V2000
  128.9970  131.9240   74.8430 C   0  0  0  0  0  0  0  0  0  0  0  0
  127.8730  130.9050   74.8640 C   0  0  0  0  0  0  0  0  0  0  0  0
  126.7090  131.1180   75.5970 C   0  0  0  0  0  0  0  0  0  0  0  0
  125.7120  130.1370   75.5880 C   0  0  0  0  0  0  0  0  0  0  0  0
  124.4510  130.3860   76.4150 C   0  0  0  0  0  0  0  0  0  0  0  0
  125.9060  128.9600   74.8300 C   0  0  0  0  0  0  0  0  0  0  0  0
  124.8980  127.8970   74.8530 C   0  0  0  0  0  0  0  0  0  0  0  0
  124.1000  127.0590   74.8720 N   0  0  0  0  0  0  0  0  0  0  0  0
  127.1080  128.8400   74.0930 C   0  0  0  0  0  0  0  0  0  0  0  0
  127.5270  127.4330   73.0840 S   0  0  0  0  0  0  0  0  0  0  0  0
  129.2990  127.5370   72.6580 C   0  0  0  0  0  0  0  0  0  0  0  0
  130.1940  126.5050   73.3610 C   0  0  0  0  0  0  0  0  0  0  0  0
  129.7530  125.3930   73.6550 O   0  0  0  0  0  0  0  0  0  0  0  0
  131.4440  126.9370   73.6300 N   0  0  0  0  0  0  0  0  0  0  0  0
  132.5150  126.2640   74.2480 C   0  0  0  0  0  0  0  0  0  0  0  0
  133.8650  126.6610   74.2110 C   0  0  0  0  0  0  0  0  0  0  0  0
  134.8280  125.8970   74.8760 C   0  0  0  0  0  0  0  0  0  0  0  0
  134.4180  124.7560   75.5650 C   0  0  0  0  0  0  0  0  0  0  0  0
  133.1240  124.3540   75.6200 N   0  0  0  0  0  0  0  0  0  0  0  0
  132.1990  125.1070   74.9690 C   0  0  0  0  0  0  0  0  0  0  0  0
  128.0790  129.7870   74.1280 N   0  0  0  0  0  0  0  0  0  0  0  0
  129.2793  132.1799   75.8749 H   0  0  0  0  0  0  0  0  0  0  0  0
  129.8666  131.5000   74.3194 H   0  0  0  0  0  0  0  0  0  0  0  0
  128.6601  132.8308   74.3194 H   0  0  0  0  0  0  0  0  0  0  0  0
  126.5752  132.0443   76.1749 H   0  0  0  0  0  0  0  0  0  0  0  0
  124.6990  130.3370   77.4856 H   0  0  0  0  0  0  0  0  0  0  0  0
  124.0472  131.3812   76.1773 H   0  0  0  0  0  0  0  0  0  0  0  0
  123.6992  129.6190   76.1773 H   0  0  0  0  0  0  0  0  0  0  0  0
  129.3986  127.3926   71.5721 H   0  0  0  0  0  0  0  0  0  0  0  0
  129.6411  128.5255   72.9985 H   0  0  0  0  0  0  0  0  0  0  0  0
  131.6510  127.8900   73.3660 H   0  0  0  0  0  0  0  0  0  0  0  0
  134.1603  127.5673   73.6619 H   0  0  0  0  0  0  0  0  0  0  0  0
  135.8881  126.1898   74.8563 H   0  0  0  0  0  0  0  0  0  0  0  0
  135.1777  124.1556   76.0869 H   0  0  0  0  0  0  0  0  0  0  0  0
  131.1464  124.7904   75.0110 H   0  0  0  0  0  0  0  0  0  0  0  0
  1  2  1  0
  2  3  2  0
  3  4  1  0
  4  5  1  0
  4  6  2  0
  6  7  1  0
  7  8  3  0
  6  9  1  0
  9 10  1  0
 10 11  1  0
 11 12  1  0
 12 13  2  0
 12 14  1  0
 14 15  1  0
 15 16  2  0
 16 17  1  0
 17 18  2  0
 18 19  1  0
 19 20  2  0
  9 21  2  0
 21  2  1  0
 20 15  1  0
  1 22  1  0
  1 23  1  0
  1 24  1  0
  3 25  1  0
  5 26  1  0
  5 27  1  0
  5 28  1  0
 11 29  1  0
 11 30  1  0
 14 31  1  0
 16 32  1  0
 17 33  1  0
 18 34  1  0
 20 35  1  0
M  END
>  <Binding energies>  (1) 
[-7.31]

>  <Ligand effiencies>  (1) 
[-0.3322727272727273]

>  <Interactions>  (1) 
["V-A:HIS:456:CD2:4065, V-A:GLY:544:C:4910, V-A:LYS:547:CD:4947, V-A:VAL:458:CG2:4084, V-B:HIS:456:CD2:9039, V-B:HIS:456:CG:9037, V-A:HIS:456:CA:4060, V-A:HIS:456:C:4058, V-A:LYS:547:CE:4948, V-A:VAL:457:C:4070, V-A:HIS:456:CG:4063, H-B:LYS:547:NZ:9923, H-A:GLY:544:O:4911, V-A:LYS:471:CD:4216, V-A:HIS:456:CB:4062, H-A:LYS:547:NZ:4949, V-B:LYS:471:CD:9190, V-B:HIS:456:C:9032, V-B:LYS:547:CE:9922, V-B:ASP:473:CG:9211, V-B:HIS:456:CB:9036, V-B:VAL:458:CG2:9058, V-B:LYS:547:CD:9921, V-B:LYS:547:CG:9920, V-B:LYS:471:CG:9189, V-A:VAL:457:CA:4072"]

$$$$
1g_Grossjean_2025
     RDKit          3D

 39 40  0  0  0  0  0  0  0  0999 V2000
  130.5040  123.8210   64.9820 C   0  0  0  0  0  0  0  0  0  0  0  0
  131.1870  123.7180   63.6310 C   0  0  0  0  0  0  0  0  0  0  0  0
  132.4080  123.0640   63.4790 C   0  0  0  0  0  0  0  0  0  0  0  0
  132.9990  123.0150   62.2120 C   0  0  0  0  0  0  0  0  0  0  0  0
  134.3460  122.3060   62.0730 C   0  0  0  0  0  0  0  0  0  0  0  0
  132.3410  123.6200   61.1180 C   0  0  0  0  0  0  0  0  0  0  0  0
  132.9660  123.6260   59.7930 C   0  0  0  0  0  0  0  0  0  0  0  0
  133.4620  123.6310   58.7470 N   0  0  0  0  0  0  0  0  0  0  0  0
  131.0920  124.2400   61.3600 C   0  0  0  0  0  0  0  0  0  0  0  0
  130.1260  125.0390   60.0990 S   0  0  0  0  0  0  0  0  0  0  0  0
  128.9390  123.8140   59.4700 C   0  0  0  0  0  0  0  0  0  0  0  0
  128.7450  122.6520   60.4460 C   0  0  0  0  0  0  0  0  0  0  0  0
  127.6720  122.5140   61.0360 O   0  0  0  0  0  0  0  0  0  0  0  0
  129.7950  121.8290   60.6070 N   0  0  0  0  0  0  0  0  0  0  0  0
  129.8120  120.6270   61.4410 C   0  0  0  0  0  0  0  0  0  0  0  0
  130.8860  119.6130   61.0600 C   0  0  0  0  0  0  0  0  0  0  0  0
  132.2080  120.0320   60.8790 C   0  0  0  0  0  0  0  0  0  0  0  0
  133.1890  119.1060   60.5330 C   0  0  0  0  0  0  0  0  0  0  0  0
  132.8460  117.7650   60.3730 C   0  0  0  0  0  0  0  0  0  0  0  0
  131.5320  117.3410   60.5570 C   0  0  0  0  0  0  0  0  0  0  0  0
  130.5500  118.2660   60.9020 C   0  0  0  0  0  0  0  0  0  0  0  0
  130.5380  124.3030   62.5970 N   0  0  0  0  0  0  0  0  0  0  0  0
  131.2520  123.7082   65.7806 H   0  0  0  0  0  0  0  0  0  0  0  0
  130.0163  124.8028   65.0724 H   0  0  0  0  0  0  0  0  0  0  0  0
  129.7485  123.0266   65.0724 H   0  0  0  0  0  0  0  0  0  0  0  0
  132.9000  122.5931   64.3428 H   0  0  0  0  0  0  0  0  0  0  0  0
  134.7526  122.0920   63.0725 H   0  0  0  0  0  0  0  0  0  0  0  0
  134.2091  121.3631   61.5233 H   0  0  0  0  0  0  0  0  0  0  0  0
  135.0457  122.9527   61.5233 H   0  0  0  0  0  0  0  0  0  0  0  0
  127.9697  124.3085   59.3091 H   0  0  0  0  0  0  0  0  0  0  0  0
  129.3376  123.4056   58.5296 H   0  0  0  0  0  0  0  0  0  0  0  0
  130.6310  122.0040   60.0670 H   0  0  0  0  0  0  0  0  0  0  0  0
  129.9822  120.9336   62.4836 H   0  0  0  0  0  0  0  0  0  0  0  0
  128.8424  120.1285   61.2945 H   0  0  0  0  0  0  0  0  0  0  0  0
  132.4726  121.0917   61.0098 H   0  0  0  0  0  0  0  0  0  0  0  0
  134.2295  119.4316   60.3867 H   0  0  0  0  0  0  0  0  0  0  0  0
  133.6207  117.0338   60.0986 H   0  0  0  0  0  0  0  0  0  0  0  0
  131.2712  116.2799   60.4303 H   0  0  0  0  0  0  0  0  0  0  0  0
  129.5109  117.9366   61.0500 H   0  0  0  0  0  0  0  0  0  0  0  0
  1  2  1  0
  2  3  2  0
  3  4  1  0
  4  5  1  0
  4  6  2  0
  6  7  1  0
  7  8  3  0
  6  9  1  0
  9 10  1  0
 10 11  1  0
 11 12  1  0
 12 13  2  0
 12 14  1  0
 14 15  1  0
 15 16  1  0
 16 17  2  0
 17 18  1  0
 18 19  2  0
 19 20  1  0
 20 21  2  0
  9 22  2  0
 22  2  1  0
 21 16  1  0
  1 23  1  0
  1 24  1  0
  1 25  1  0
  3 26  1  0
  5 27  1  0
  5 28  1  0
  5 29  1  0
 11 30  1  0
 11 31  1  0
 14 32  1  0
 15 33  1  0
 15 34  1  0
 17 35  1  0
 18 36  1  0
 19 37  1  0
 20 38  1  0
 21 39  1  0
M  END
>  <Binding energies>  (1) 
[-6.54]

>  <Ligand effiencies>  (1) 
[-0.2843478260869565]

>  <Interactions>  (1) 
["V-B:TYR:539:CE1:9847, V-B:TYR:539:C:9839, H-B:ALA:541:N:9863, V-A:ILE:369:CD1:3236, V-B:PRO:540:CA:9855, V-A:GLY:453:C:4039, V-A:LEU:475:CD2:4256, V-B:TYR:539:CD1:9845, V-A:GLY:454:CA:4046, V-A:ILE:369:CG2:3234, V-B:GLU:543:CD:9880, V-B:GLU:543:CB:9878, V-A:TYR:484:CE2:4343, V-A:TYR:484:CZ:4344, V-A:SER:385:CA:3404, V-B:ALA:541:CB:9864, V-B:ALA:541:CA:9862, H-B:TYR:539:OH:9850, V-A:SER:385:CB:3406, V-A:LEU:373:CD1:3277, V-A:PRO:482:CB:4323, H-B:TYR:539:O:9840, V-A:PRO:482:CG:4324, V-B:TYR:539:CB:9843"]

$$$$
1h_Grossjean_2025
     RDKit          3D

 51 52  0  0  0  0  0  0  0  0999 V2000
  124.0910  133.6350   62.1400 C   0  0  0  0  0  0  0  0  0  0  0  0
  123.8070  132.2410   62.1160 O   0  0  0  0  0  0  0  0  0  0  0  0
  124.7720  131.3600   61.6640 C   0  0  0  0  0  0  0  0  0  0  0  0
  125.6190  130.6240   62.5080 C   0  0  0  0  0  0  0  0  0  0  0  0
  126.5810  129.7620   61.9800 C   0  0  0  0  0  0  0  0  0  0  0  0
  127.4790  128.9510   62.9090 C   0  0  0  0  0  0  0  0  0  0  0  0
  128.8740  128.8800   62.4740 N   0  0  0  0  0  0  0  0  0  0  0  0
  129.3570  128.0340   61.5460 C   0  0  0  0  0  0  0  0  0  0  0  0
  128.6610  127.2280   60.9290 O   0  0  0  0  0  0  0  0  0  0  0  0
  130.8600  128.1040   61.2760 C   0  0  0  0  0  0  0  0  0  0  0  0
  131.4610  126.6370   60.3850 S   0  0  0  0  0  0  0  0  0  0  0  0
  131.9970  125.4360   61.5930 C   0  0  0  0  0  0  0  0  0  0  0  0
  131.6210  125.6810   62.8750 N   0  0  0  0  0  0  0  0  0  0  0  0
  131.9900  124.8080   63.8410 C   0  0  0  0  0  0  0  0  0  0  0  0
  131.5300  125.1480   65.2460 C   0  0  0  0  0  0  0  0  0  0  0  0
  132.7430  123.6670   63.5750 C   0  0  0  0  0  0  0  0  0  0  0  0
  133.1380  123.4040   62.2590 C   0  0  0  0  0  0  0  0  0  0  0  0
  133.9610  122.1460   61.9890 C   0  0  0  0  0  0  0  0  0  0  0  0
  132.7630  124.3030   61.2350 C   0  0  0  0  0  0  0  0  0  0  0  0
  133.1640  124.0540   59.8470 C   0  0  0  0  0  0  0  0  0  0  0  0
  133.4820  123.8580   58.7510 N   0  0  0  0  0  0  0  0  0  0  0  0
  126.6780  129.6010   60.5970 C   0  0  0  0  0  0  0  0  0  0  0  0
  125.8400  130.3200   59.7290 C   0  0  0  0  0  0  0  0  0  0  0  0
  125.8820  130.2130   58.3510 O   0  0  0  0  0  0  0  0  0  0  0  0
  125.8770  128.9220   57.7500 C   0  0  0  0  0  0  0  0  0  0  0  0
  124.8980  131.2040   60.2750 C   0  0  0  0  0  0  0  0  0  0  0  0
  124.0680  131.9100   59.4390 O   0  0  0  0  0  0  0  0  0  0  0  0
  123.0690  131.1170   58.8120 C   0  0  0  0  0  0  0  0  0  0  0  0
  124.1607  133.9771   63.1831 H   0  0  0  0  0  0  0  0  0  0  0  0
  125.0460  133.8235   61.6277 H   0  0  0  0  0  0  0  0  0  0  0  0
  123.2859  134.1821   61.6277 H   0  0  0  0  0  0  0  0  0  0  0  0
  125.5231  130.7282   63.5988 H   0  0  0  0  0  0  0  0  0  0  0  0
  127.4508  129.4122   63.9072 H   0  0  0  0  0  0  0  0  0  0  0  0
  127.0919  127.9214   62.9077 H   0  0  0  0  0  0  0  0  0  0  0  0
  129.5180  129.5000   62.9430 H   0  0  0  0  0  0  0  0  0  0  0  0
  131.0709  128.9981   60.6710 H   0  0  0  0  0  0  0  0  0  0  0  0
  131.3777  128.1485   62.2455 H   0  0  0  0  0  0  0  0  0  0  0  0
  132.1913  124.6592   65.9767 H   0  0  0  0  0  0  0  0  0  0  0  0
  131.5664  126.2379   65.3901 H   0  0  0  0  0  0  0  0  0  0  0  0
  130.4987  124.7934   65.3901 H   0  0  0  0  0  0  0  0  0  0  0  0
  133.0233  122.9819   64.3887 H   0  0  0  0  0  0  0  0  0  0  0  0
  134.2589  121.6906   62.9449 H   0  0  0  0  0  0  0  0  0  0  0  0
  133.3568  121.4290   61.4138 H   0  0  0  0  0  0  0  0  0  0  0  0
  134.8600  122.4124   61.4138 H   0  0  0  0  0  0  0  0  0  0  0  0
  127.4196  128.9027   60.1819 H   0  0  0  0  0  0  0  0  0  0  0  0
  125.8740  128.1519   58.5355 H   0  0  0  0  0  0  0  0  0  0  0  0
  124.9784  128.8119   57.1251 H   0  0  0  0  0  0  0  0  0  0  0  0
  126.7747  128.8050   57.1251 H   0  0  0  0  0  0  0  0  0  0  0  0
  122.4529  130.6280   59.5810 H   0  0  0  0  0  0  0  0  0  0  0  0
  122.4320  131.7581   58.1849 H   0  0  0  0  0  0  0  0  0  0  0  0
  123.5488  130.3512   58.1849 H   0  0  0  0  0  0  0  0  0  0  0  0
  1  2  1  0
  2  3  1  0
  3  4  2  0
  4  5  1  0
  5  6  1  0
  6  7  1  0
  7  8  1  0
  8  9  2  0
  8 10  1  0
 10 11  1  0
 11 12  1  0
 12 13  2  0
 13 14  1  0
 14 15  1  0
 14 16  2  0
 16 17  1  0
 17 18  1  0
 17 19  2  0
 19 20  1  0
 20 21  3  0
  5 22  2  0
 22 23  1  0
 23 24  1  0
 24 25  1  0
 23 26  2  0
 26 27  1  0
 27 28  1  0
 26  3  1  0
 19 12  1  0
  1 29  1  0
  1 30  1  0
  1 31  1  0
  4 32  1  0
  6 33  1  0
  6 34  1  0
  7 35  1  0
 10 36  1  0
 10 37  1  0
 15 38  1  0
 15 39  1  0
 15 40  1  0
 16 41  1  0
 18 42  1  0
 18 43  1  0
 18 44  1  0
 22 45  1  0
 25 46  1  0
 25 47  1  0
 25 48  1  0
 28 49  1  0
 28 50  1  0
 28 51  1  0
M  END
>  <Binding energies>  (1) 
[-5.79]

>  <Ligand effiencies>  (1) 
[-0.1996551724137931]

>  <Interactions>  (1) 
["V-B:LEU:475:CD2:9230, V-B:ASP:366:CB:8183, H-A:TYR:539:OH:4876, V-B:ILE:369:CG2:8208, V-A:TYR:539:CE1:4873, V-B:ILE:369:CD1:8210, V-B:ASP:366:CG:8184, V-B:TYR:539:CE1:9847, V-A:ILE:369:CD1:3236, V-A:LEU:475:CD2:4256, V-A:GLY:454:CA:4046, V-A:ASP:366:CG:3210, H-A:ARG:545:NH2:4926, H-A:GLU:543:OE2:4908, H-B:GLY:454:N:9021, V-A:GLU:543:CD:4906, V-B:ILE:369:CB:8207, V-B:ASP:366:CA:8181, H-A:GLU:543:OE1:4907, H-B:TYR:539:OH:9850, V-B:ASP:366:C:8179"]

$$$$
1i_Grossjean_2025
     RDKit          3D

 32 33  0  0  0  0  0  0  0  0999 V2000
  129.2530  122.6640   74.0470 C   0  0  0  0  0  0  0  0  0  0  0  0
  130.3940  123.6490   74.2190 C   0  0  0  0  0  0  0  0  0  0  0  0
  131.5880  123.2820   74.8370 C   0  0  0  0  0  0  0  0  0  0  0  0
  132.6100  124.2300   74.9590 C   0  0  0  0  0  0  0  0  0  0  0  0
  133.9150  123.7990   75.6250 C   0  0  0  0  0  0  0  0  0  0  0  0
  132.4040  125.5360   74.4590 C   0  0  0  0  0  0  0  0  0  0  0  0
  133.4790  126.5290   74.5310 C   0  0  0  0  0  0  0  0  0  0  0  0
  134.3300  127.3120   74.5870 N   0  0  0  0  0  0  0  0  0  0  0  0
  131.1520  125.8270   73.8680 C   0  0  0  0  0  0  0  0  0  0  0  0
  130.7230  127.4150   73.1900 S   0  0  0  0  0  0  0  0  0  0  0  0
  128.9600  127.3660   72.7480 C   0  0  0  0  0  0  0  0  0  0  0  0
  128.1170  128.2780   73.6430 C   0  0  0  0  0  0  0  0  0  0  0  0
  128.6160  129.3110   74.0920 O   0  0  0  0  0  0  0  0  0  0  0  0
  126.8520  127.8630   73.8700 N   0  0  0  0  0  0  0  0  0  0  0  0
  125.8860  128.4930   74.6420 C   0  0  0  0  0  0  0  0  0  0  0  0
  126.1530  129.6080   75.4330 C   0  0  0  0  0  0  0  0  0  0  0  0
  124.9520  129.9220   76.0270 C   0  0  0  0  0  0  0  0  0  0  0  0
  124.0110  129.0390   75.6160 O   0  0  0  0  0  0  0  0  0  0  0  0
  124.6150  128.1370   74.7390 N   0  0  0  0  0  0  0  0  0  0  0  0
  130.1740  124.8950   73.7370 N   0  0  0  0  0  0  0  0  0  0  0  0
  128.8882  122.3491   75.0358 H   0  0  0  0  0  0  0  0  0  0  0  0
  128.4348  123.1442   73.4902 H   0  0  0  0  0  0  0  0  0  0  0  0
  129.6086  121.7845   73.4902 H   0  0  0  0  0  0  0  0  0  0  0  0
  131.7251  122.2613   75.2235 H   0  0  0  0  0  0  0  0  0  0  0  0
  133.7989  123.8374   76.7182 H   0  0  0  0  0  0  0  0  0  0  0  0
  134.1614  122.7718   75.3183 H   0  0  0  0  0  0  0  0  0  0  0  0
  134.7247  124.4774   75.3183 H   0  0  0  0  0  0  0  0  0  0  0  0
  128.8470  127.6912   71.7033 H   0  0  0  0  0  0  0  0  0  0  0  0
  128.6047  126.3340   72.8851 H   0  0  0  0  0  0  0  0  0  0  0  0
  126.5750  126.9790   73.4650 H   0  0  0  0  0  0  0  0  0  0  0  0
  127.1157  130.1256   75.5562 H   0  0  0  0  0  0  0  0  0  0  0  0
  124.7834  130.7563   76.7238 H   0  0  0  0  0  0  0  0  0  0  0  0
  1  2  1  0
  2  3  2  0
  3  4  1  0
  4  5  1  0
  4  6  2  0
  6  7  1  0
  7  8  3  0
  6  9  1  0
  9 10  1  0
 10 11  1  0
 11 12  1  0
 12 13  2  0
 12 14  1  0
 14 15  1  0
 15 16  1  0
 16 17  2  0
 17 18  1  0
 18 19  1  0
  9 20  2  0
 20  2  1  0
 19 15  2  0
  1 21  1  0
  1 22  1  0
  1 23  1  0
  3 24  1  0
  5 25  1  0
  5 26  1  0
  5 27  1  0
 11 28  1  0
 11 29  1  0
 14 30  1  0
 16 31  1  0
 17 32  1  0
M  END
>  <Binding energies>  (1) 
[-7.45]

>  <Ligand effiencies>  (1) 
[-0.3547619047619048]

>  <Interactions>  (1) 
["V-B:GLY:544:C:9884, V-A:HIS:456:CD2:4065, V-A:LYS:547:CD:4947, V-A:VAL:458:CG2:4084, V-B:HIS:456:CD2:9039, V-B:HIS:456:CG:9037, V-A:HIS:456:C:4058, V-A:LYS:547:CE:4948, V-A:HIS:456:CG:4063, H-B:LYS:547:NZ:9923, V-A:LYS:471:CD:4216, V-A:HIS:456:CB:4062, H-A:LYS:547:NZ:4949, V-B:LYS:471:CD:9190, V-B:HIS:456:C:9032, V-B:LYS:547:CE:9922, H-B:GLY:544:O:9885, V-B:HIS:456:CB:9036, V-B:VAL:458:CG2:9058, V-A:ASP:473:CG:4237, V-A:LYS:471:CG:4215, H-B:VAL:457:N:9047"]

$$$$
1j_Grossjean_2025
     RDKit          3D

 32 33  0  0  0  0  0  0  0  0999 V2000
  129.2410  131.9530   74.6450 C   0  0  0  0  0  0  0  0  0  0  0  0
  128.0930  130.9670   74.7620 C   0  0  0  0  0  0  0  0  0  0  0  0
  126.9480  131.2650   75.4970 C   0  0  0  0  0  0  0  0  0  0  0  0
  125.9160  130.3240   75.5580 C   0  0  0  0  0  0  0  0  0  0  0  0
  124.6620  130.6810   76.3570 C   0  0  0  0  0  0  0  0  0  0  0  0
  126.0630  129.0920   74.8810 C   0  0  0  0  0  0  0  0  0  0  0  0
  124.9720  128.1130   74.8880 C   0  0  0  0  0  0  0  0  0  0  0  0
  124.1090  127.3430   74.8950 N   0  0  0  0  0  0  0  0  0  0  0  0
  127.2700  128.8640   74.1800 C   0  0  0  0  0  0  0  0  0  0  0  0
  127.6250  127.3730   73.2760 S   0  0  0  0  0  0  0  0  0  0  0  0
  129.3240  127.5010   72.6430 C   0  0  0  0  0  0  0  0  0  0  0  0
  130.2790  126.5460   73.3620 C   0  0  0  0  0  0  0  0  0  0  0  0
  129.8830  125.4250   73.6840 O   0  0  0  0  0  0  0  0  0  0  0  0
  131.5200  127.0270   73.5910 N   0  0  0  0  0  0  0  0  0  0  0  0
  132.5610  126.3640   74.2270 C   0  0  0  0  0  0  0  0  0  0  0  0
  133.8500  126.6080   74.1330 N   0  0  0  0  0  0  0  0  0  0  0  0
  134.5550  125.7800   74.8790 C   0  0  0  0  0  0  0  0  0  0  0  0
  133.8320  124.8370   75.6030 C   0  0  0  0  0  0  0  0  0  0  0  0
  132.1380  125.0550   75.2830 S   0  0  0  0  0  0  0  0  0  0  0  0
  128.2570  129.7930   74.1090 N   0  0  0  0  0  0  0  0  0  0  0  0
  129.5790  132.2433   75.6507 H   0  0  0  0  0  0  0  0  0  0  0  0
  130.0732  131.4838   74.0997 H   0  0  0  0  0  0  0  0  0  0  0  0
  128.9028  132.8465   74.0997 H   0  0  0  0  0  0  0  0  0  0  0  0
  126.8571  132.2273   76.0221 H   0  0  0  0  0  0  0  0  0  0  0  0
  124.8825  130.6182   77.4328 H   0  0  0  0  0  0  0  0  0  0  0  0
  124.3466  131.7046   76.1065 H   0  0  0  0  0  0  0  0  0  0  0  0
  123.8548  129.9770   76.1065 H   0  0  0  0  0  0  0  0  0  0  0  0
  129.3219  127.2594   71.5699 H   0  0  0  0  0  0  0  0  0  0  0  0
  129.6751  128.5283   72.8199 H   0  0  0  0  0  0  0  0  0  0  0  0
  131.7160  127.9730   73.3000 H   0  0  0  0  0  0  0  0  0  0  0  0
  135.6528  125.8319   74.9262 H   0  0  0  0  0  0  0  0  0  0  0  0
  134.2632  124.0762   76.2703 H   0  0  0  0  0  0  0  0  0  0  0  0
  1  2  1  0
  2  3  2  0
  3  4  1  0
  4  5  1  0
  4  6  2  0
  6  7  1  0
  7  8  3  0
  6  9  1  0
  9 10  1  0
 10 11  1  0
 11 12  1  0
 12 13  2  0
 12 14  1  0
 14 15  1  0
 15 16  2  0
 16 17  1  0
 17 18  2  0
 18 19  1  0
  9 20  2  0
 20  2  1  0
 19 15  1  0
  1 21  1  0
  1 22  1  0
  1 23  1  0
  3 24  1  0
  5 25  1  0
  5 26  1  0
  5 27  1  0
 11 28  1  0
 11 29  1  0
 14 30  1  0
 17 31  1  0
 18 32  1  0
M  END
>  <Binding energies>  (1) 
[-7.47]

>  <Ligand effiencies>  (1) 
[-0.3557142857142857]

>  <Interactions>  (1) 
["V-A:HIS:456:CD2:4065, V-A:GLY:544:C:4910, V-A:VAL:458:CG2:4084, V-B:HIS:456:CD2:9039, V-B:HIS:456:CG:9037, V-A:HIS:456:CA:4060, V-A:HIS:456:C:4058, V-A:LYS:547:CE:4948, V-A:VAL:457:C:4070, V-A:HIS:456:CG:4063, H-B:LYS:547:NZ:9923, H-A:GLY:544:O:4911, V-A:LYS:471:CD:4216, V-A:HIS:456:CB:4062, H-A:LYS:547:NZ:4949, V-B:LYS:471:CD:9190, V-B:HIS:456:C:9032, V-B:LYS:547:CE:9922, V-B:ASP:473:CG:9211, V-B:HIS:456:CB:9036, V-B:VAL:458:CG2:9058, V-B:HIS:456:CA:9034, V-B:LYS:547:CD:9921, V-B:LYS:471:CG:9189"]

$$$$
1k_Grossjean_2025
     RDKit          3D

 50 50  0  0  0  0  0  0  0  0999 V2000
  127.1960  128.6950   74.2600 C   0  0  0  0  0  0  0  0  0  0  0  0
  128.5910  128.8990   74.1010 O   0  0  0  0  0  0  0  0  0  0  0  0
  129.0550  128.6380   72.7830 C   0  0  0  0  0  0  0  0  0  0  0  0
  128.2500  127.4810   72.1770 C   0  0  0  0  0  0  0  0  0  0  0  0
  129.1000  126.6950   71.3510 O   0  0  0  0  0  0  0  0  0  0  0  0
  129.7370  127.4350   70.3180 C   0  0  0  0  0  0  0  0  0  0  0  0
  129.0310  127.1590   68.9840 C   0  0  0  0  0  0  0  0  0  0  0  0
  129.9650  127.2780   67.9190 O   0  0  0  0  0  0  0  0  0  0  0  0
  130.1230  126.0850   67.1620 C   0  0  0  0  0  0  0  0  0  0  0  0
  131.4470  126.1430   66.3770 C   0  0  0  0  0  0  0  0  0  0  0  0
  131.6380  125.0280   65.4490 N   0  0  0  0  0  0  0  0  0  0  0  0
  132.7560  124.7910   64.7420 C   0  0  0  0  0  0  0  0  0  0  0  0
  133.7600  125.5030   64.8110 O   0  0  0  0  0  0  0  0  0  0  0  0
  132.7100  123.5610   63.8210 C   0  0  0  0  0  0  0  0  0  0  0  0
  133.3320  123.8210   62.1230 S   0  0  0  0  0  0  0  0  0  0  0  0
  132.2970  125.0210   61.2960 C   0  0  0  0  0  0  0  0  0  0  0  0
  131.4970  125.7680   62.1010 N   0  0  0  0  0  0  0  0  0  0  0  0
  130.6810  126.6890   61.5380 C   0  0  0  0  0  0  0  0  0  0  0  0
  129.8130  127.4760   62.5000 C   0  0  0  0  0  0  0  0  0  0  0  0
  130.6320  126.9100   60.1630 C   0  0  0  0  0  0  0  0  0  0  0  0
  131.4560  126.1530   59.3250 C   0  0  0  0  0  0  0  0  0  0  0  0
  131.3880  126.4100   57.8210 C   0  0  0  0  0  0  0  0  0  0  0  0
  132.3130  125.1830   59.8920 C   0  0  0  0  0  0  0  0  0  0  0  0
  133.1850  124.3720   59.0370 C   0  0  0  0  0  0  0  0  0  0  0  0
  133.8730  123.7320   58.3600 N   0  0  0  0  0  0  0  0  0  0  0  0
  126.9505  128.6591   75.3316 H   0  0  0  0  0  0  0  0  0  0  0  0
  126.6480  129.5226   73.7858 H   0  0  0  0  0  0  0  0  0  0  0  0
  126.9079  127.7452   73.7858 H   0  0  0  0  0  0  0  0  0  0  0  0
  128.9261  129.5381   72.1640 H   0  0  0  0  0  0  0  0  0  0  0  0
  130.1202  128.3654   72.8166 H   0  0  0  0  0  0  0  0  0  0  0  0
  127.8423  126.8552   72.9846 H   0  0  0  0  0  0  0  0  0  0  0  0
  127.4234  127.8850   71.5741 H   0  0  0  0  0  0  0  0  0  0  0  0
  129.6806  128.5093   70.5477 H   0  0  0  0  0  0  0  0  0  0  0  0
  130.7918  127.1315   70.2453 H   0  0  0  0  0  0  0  0  0  0  0  0
  128.6140  126.1411   68.9938 H   0  0  0  0  0  0  0  0  0  0  0  0
  128.2188  127.8871   68.8419 H   0  0  0  0  0  0  0  0  0  0  0  0
  130.1376  125.2197   67.8410 H   0  0  0  0  0  0  0  0  0  0  0  0
  129.2843  125.9857   66.4572 H   0  0  0  0  0  0  0  0  0  0  0  0
  131.4668  127.0798   65.8008 H   0  0  0  0  0  0  0  0  0  0  0  0
  132.2586  126.0837   67.1171 H   0  0  0  0  0  0  0  0  0  0  0  0
  130.8540  124.4010   65.3380 H   0  0  0  0  0  0  0  0  0  0  0  0
  133.3150  122.7681   64.2851 H   0  0  0  0  0  0  0  0  0  0  0  0
  131.6455  123.3046   63.7151 H   0  0  0  0  0  0  0  0  0  0  0  0
  130.0906  127.2243   63.5342 H   0  0  0  0  0  0  0  0  0  0  0  0
  129.9626  128.5527   62.3319 H   0  0  0  0  0  0  0  0  0  0  0  0
  128.7560  127.2220   62.3319 H   0  0  0  0  0  0  0  0  0  0  0  0
  129.9551  127.6687   59.7433 H   0  0  0  0  0  0  0  0  0  0  0  0
  131.1104  127.4590   57.6405 H   0  0  0  0  0  0  0  0  0  0  0  0
  132.3706  126.2078   57.3697 H   0  0  0  0  0  0  0  0  0  0  0  0
  130.6340  125.7483   57.3697 H   0  0  0  0  0  0  0  0  0  0  0  0
  1  2  1  0
  2  3  1  0
  3  4  1  0
  4  5  1  0
  5  6  1  0
  6  7  1  0
  7  8  1  0
  8  9  1  0
  9 10  1  0
 10 11  1  0
 11 12  1  0
 12 13  2  0
 12 14  1  0
 14 15  1  0
 15 16  1  0
 16 17  2  0
 17 18  1  0
 18 19  1  0
 18 20  2  0
 20 21  1  0
 21 22  1  0
 21 23  2  0
 23 24  1  0
 24 25  3  0
 23 16  1  0
  1 26  1  0
  1 27  1  0
  1 28  1  0
  3 29  1  0
  3 30  1  0
  4 31  1  0
  4 32  1  0
  6 33  1  0
  6 34  1  0
  7 35  1  0
  7 36  1  0
  9 37  1  0
  9 38  1  0
 10 39  1  0
 10 40  1  0
 11 41  1  0
 14 42  1  0
 14 43  1  0
 19 44  1  0
 19 45  1  0
 19 46  1  0
 20 47  1  0
 22 48  1  0
 22 49  1  0
 22 50  1  0
M  END
>  <Binding energies>  (1) 
[-5.87]

>  <Ligand effiencies>  (1) 
[-0.22576923076923078]

>  <Interactions>  (1) 
["V-B:TYR:539:CE1:9847, V-A:GLY:454:CA:4046, H-B:GLU:543:OE1:9881, V-A:ASP:366:CG:3210, V-B:HIS:456:CE1:9040, V-B:GLU:543:CD:9880, H-A:ARG:545:NH2:4926, V-B:GLU:543:CB:9878, V-B:GLU:543:CG:9879, V-A:HIS:456:CE1:4066, V-A:ASP:366:CA:3207, V-A:ASP:366:CB:3209, V-A:TYR:484:CZ:4344, V-A:GLU:543:CD:4906, V-B:GLY:544:C:9884, V-A:ARG:545:CZ:4924, V-A:ARG:545:CG:4920, H-A:GLY:454:N:4047, H-A:HIS:456:NE2:4067, H-A:ARG:545:NH1:4925, H-A:TYR:484:OH:4345, H-A:ARG:545:NE:4922, H-B:TYR:539:OH:9850, V-B:HIS:456:CD2:9039, V-B:HIS:456:CG:9037, V-A:LYS:547:CE:4948, H-A:LYS:547:NZ:4949, V-B:HIS:456:CB:9036"]

$$$$
1l_Grossjean_2025
     RDKit          3D

 30 30  0  0  0  0  0  0  0  0999 V2000
  134.1260  126.6300   74.5070 C   0  0  0  0  0  0  0  0  0  0  0  0
  132.8190  126.1440   74.7770 O   0  0  0  0  0  0  0  0  0  0  0  0
  131.8740  126.9280   74.1160 N   0  0  0  0  0  0  0  0  0  0  0  0
  130.7110  126.3670   73.7340 C   0  0  0  0  0  0  0  0  0  0  0  0
  130.3240  125.2630   74.1260 O   0  0  0  0  0  0  0  0  0  0  0  0
  129.8660  127.2110   72.7700 C   0  0  0  0  0  0  0  0  0  0  0  0
  128.0950  127.3290   73.1960 S   0  0  0  0  0  0  0  0  0  0  0  0
  127.8040  128.9330   73.9220 C   0  0  0  0  0  0  0  0  0  0  0  0
  128.7790  129.8580   73.7200 N   0  0  0  0  0  0  0  0  0  0  0  0
  128.6230  131.0960   74.2450 C   0  0  0  0  0  0  0  0  0  0  0  0
  129.7530  132.0730   73.9760 C   0  0  0  0  0  0  0  0  0  0  0  0
  127.5020  131.4640   74.9840 C   0  0  0  0  0  0  0  0  0  0  0  0
  126.4910  130.5210   75.1980 C   0  0  0  0  0  0  0  0  0  0  0  0
  125.2690  130.9460   76.0110 C   0  0  0  0  0  0  0  0  0  0  0  0
  126.6330  129.2230   74.6600 C   0  0  0  0  0  0  0  0  0  0  0  0
  125.5890  128.2140   74.8680 C   0  0  0  0  0  0  0  0  0  0  0  0
  124.7650  127.4200   75.0330 N   0  0  0  0  0  0  0  0  0  0  0  0
  134.6482  126.8242   75.4555 H   0  0  0  0  0  0  0  0  0  0  0  0
  134.6840  125.8793   73.9282 H   0  0  0  0  0  0  0  0  0  0  0  0
  134.0580  127.5629   73.9282 H   0  0  0  0  0  0  0  0  0  0  0  0
  132.2940  127.7220   73.6540 H   0  0  0  0  0  0  0  0  0  0  0  0
  130.2816  128.2293   72.7542 H   0  0  0  0  0  0  0  0  0  0  0  0
  129.9142  126.7040   71.7950 H   0  0  0  0  0  0  0  0  0  0  0  0
  130.1650  132.4292   74.9317 H   0  0  0  0  0  0  0  0  0  0  0  0
  130.5439  131.5695   73.4007 H   0  0  0  0  0  0  0  0  0  0  0  0
  129.3690  132.9283   73.4007 H   0  0  0  0  0  0  0  0  0  0  0  0
  127.4125  132.4810   75.3935 H   0  0  0  0  0  0  0  0  0  0  0  0
  125.4969  130.8667   77.0842 H   0  0  0  0  0  0  0  0  0  0  0  0
  125.0102  131.9869   75.7670 H   0  0  0  0  0  0  0  0  0  0  0  0
  124.4201  130.2903   75.7670 H   0  0  0  0  0  0  0  0  0  0  0  0
  1  2  1  0
  2  3  1  0
  3  4  1  0
  4  5  2  0
  4  6  1  0
  6  7  1  0
  7  8  1  0
  8  9  2  0
  9 10  1  0
 10 11  1  0
 10 12  2  0
 12 13  1  0
 13 14  1  0
 13 15  2  0
 15 16  1  0
 16 17  3  0
 15  8  1  0
  1 18  1  0
  1 19  1  0
  1 20  1  0
  3 21  1  0
  6 22  1  0
  6 23  1  0
 11 24  1  0
 11 25  1  0
 11 26  1  0
 12 27  1  0
 14 28  1  0
 14 29  1  0
 14 30  1  0
M  END
>  <Binding energies>  (1) 
[-6.52]

>  <Ligand effiencies>  (1) 
[-0.3622222222222222]

>  <Interactions>  (1) 
["V-A:HIS:456:CD2:4065, V-A:GLY:544:C:4910, V-A:GLY:544:CA:4912, V-A:LYS:547:CD:4947, V-A:VAL:458:CG2:4084, V-B:HIS:456:CD2:9039, V-B:HIS:456:CG:9037, V-A:HIS:456:CA:4060, V-A:HIS:456:C:4058, V-A:LYS:547:CE:4948, H-B:LYS:547:NZ:9923, H-A:GLY:544:O:4911, V-A:HIS:456:CB:4062, H-A:LYS:547:NZ:4949, V-B:LYS:471:CD:9190, V-B:HIS:456:C:9032, V-B:LYS:547:CE:9922, V-B:ASP:473:CG:9211, V-B:HIS:456:CB:9036, V-B:LYS:547:CD:9921, V-A:LYS:547:CG:4946"]

$$$$
1m_Grossjean_2025
     RDKit          3D

 35 35  0  0  0  0  0  0  0  0999 V2000
  124.8840  130.4690   76.0030 C   0  0  0  0  0  0  0  0  0  0  0  0
  125.8410  129.7080   76.7260 O   0  0  0  0  0  0  0  0  0  0  0  0
  126.4020  128.6110   76.1770 C   0  0  0  0  0  0  0  0  0  0  0  0
  127.1910  127.8490   76.7430 O   0  0  0  0  0  0  0  0  0  0  0  0
  125.9290  128.4010   74.7230 C   0  0  0  0  0  0  0  0  0  0  0  0
  126.9480  127.7570   73.8800 N   0  0  0  0  0  0  0  0  0  0  0  0
  128.1570  128.2680   73.5790 C   0  0  0  0  0  0  0  0  0  0  0  0
  128.5380  129.3700   73.9790 O   0  0  0  0  0  0  0  0  0  0  0  0
  129.0430  127.3890   72.6880 C   0  0  0  0  0  0  0  0  0  0  0  0
  130.8130  127.3890   73.1360 S   0  0  0  0  0  0  0  0  0  0  0  0
  131.2040  125.7980   73.8330 C   0  0  0  0  0  0  0  0  0  0  0  0
  130.1850  124.9050   73.7520 N   0  0  0  0  0  0  0  0  0  0  0  0
  130.3710  123.6580   74.2450 C   0  0  0  0  0  0  0  0  0  0  0  0
  129.1950  122.7100   74.1010 C   0  0  0  0  0  0  0  0  0  0  0  0
  131.5630  123.2570   74.8440 C   0  0  0  0  0  0  0  0  0  0  0  0
  132.6100  124.1770   74.9570 C   0  0  0  0  0  0  0  0  0  0  0  0
  133.9020  123.7190   75.6320 C   0  0  0  0  0  0  0  0  0  0  0  0
  132.4390  125.4850   74.4500 C   0  0  0  0  0  0  0  0  0  0  0  0
  133.5050  126.4790   74.6020 C   0  0  0  0  0  0  0  0  0  0  0  0
  134.3470  127.2630   74.7220 N   0  0  0  0  0  0  0  0  0  0  0  0
  124.2238  130.9940   76.7091 H   0  0  0  0  0  0  0  0  0  0  0  0
  125.4026  131.2041   75.3700 H   0  0  0  0  0  0  0  0  0  0  0  0
  124.2845  129.7982   75.3700 H   0  0  0  0  0  0  0  0  0  0  0  0
  125.0300  127.7673   74.7338 H   0  0  0  0  0  0  0  0  0  0  0  0
  125.7234  129.3932   74.2948 H   0  0  0  0  0  0  0  0  0  0  0  0
  126.6980  126.8590   73.4920 H   0  0  0  0  0  0  0  0  0  0  0  0
  128.6735  126.3548   72.7510 H   0  0  0  0  0  0  0  0  0  0  0  0
  128.9790  127.8101   71.6738 H   0  0  0  0  0  0  0  0  0  0  0  0
  128.8342  122.4192   75.0986 H   0  0  0  0  0  0  0  0  0  0  0  0
  128.3855  123.2110   73.5500 H   0  0  0  0  0  0  0  0  0  0  0  0
  129.5128  121.8126   73.5500 H   0  0  0  0  0  0  0  0  0  0  0  0
  131.6791  122.2308   75.2229 H   0  0  0  0  0  0  0  0  0  0  0  0
  133.7802  123.7622   76.7244 H   0  0  0  0  0  0  0  0  0  0  0  0
  134.1279  122.6860   75.3288 H   0  0  0  0  0  0  0  0  0  0  0  0
  134.7280  124.3791   75.3288 H   0  0  0  0  0  0  0  0  0  0  0  0
  1  2  1  0
  2  3  1  0
  3  4  2  0
  3  5  1  0
  5  6  1  0
  6  7  1  0
  7  8  2  0
  7  9  1  0
  9 10  1  0
 10 11  1  0
 11 12  2  0
 12 13  1  0
 13 14  1  0
 13 15  2  0
 15 16  1  0
 16 17  1  0
 16 18  2  0
 18 19  1  0
 19 20  3  0
 18 11  1  0
  1 21  1  0
  1 22  1  0
  1 23  1  0
  5 24  1  0
  5 25  1  0
  6 26  1  0
  9 27  1  0
  9 28  1  0
 14 29  1  0
 14 30  1  0
 14 31  1  0
 15 32  1  0
 17 33  1  0
 17 34  1  0
 17 35  1  0
M  END
>  <Binding energies>  (1) 
[-6.98]

>  <Ligand effiencies>  (1) 
[-0.3323809523809524]

>  <Interactions>  (1) 
["V-B:GLY:544:C:9884, V-A:HIS:456:CD2:4065, V-A:LYS:547:CD:4947, V-A:VAL:458:CG2:4084, V-B:HIS:456:CD2:9039, V-B:HIS:456:CG:9037, V-A:HIS:456:C:4058, V-A:LYS:547:CE:4948, V-A:HIS:456:CG:4063, H-B:LYS:547:NZ:9923, V-A:LYS:471:CD:4216, V-A:HIS:456:CB:4062, H-A:LYS:547:NZ:4949, V-B:LYS:471:CD:9190, V-B:HIS:456:C:9032, V-B:LYS:547:CE:9922, H-B:GLY:544:O:9885, V-B:HIS:456:CB:9036, V-B:VAL:458:CG2:9058, V-B:LYS:547:CD:9921, V-A:ASP:473:CG:4237, V-A:LYS:471:CG:4215"]

$$$$
1n_Grossjean_2025
     RDKit          3D

 48 49  0  0  0  0  0  0  0  0999 V2000
  128.1700  132.1900   74.3940 C   0  0  0  0  0  0  0  0  0  0  0  0
  127.6660  130.7700   74.6690 C   0  0  0  0  0  0  0  0  0  0  0  0
  128.5910  129.8290   74.1380 O   0  0  0  0  0  0  0  0  0  0  0  0
  128.2440  128.5280   73.9600 C   0  0  0  0  0  0  0  0  0  0  0  0
  127.7380  127.8320   74.8450 O   0  0  0  0  0  0  0  0  0  0  0  0
  128.5250  128.0240   72.5730 C   0  0  0  0  0  0  0  0  0  0  0  0
  127.5170  127.4770   71.7640 C   0  0  0  0  0  0  0  0  0  0  0  0
  127.8120  127.0160   70.4840 C   0  0  0  0  0  0  0  0  0  0  0  0
  129.1150  127.0840   69.9900 C   0  0  0  0  0  0  0  0  0  0  0  0
  129.3020  126.5850   68.6860 N   0  0  0  0  0  0  0  0  0  0  0  0
  130.1930  126.9520   67.7400 C   0  0  0  0  0  0  0  0  0  0  0  0
  131.0470  127.8300   67.8670 O   0  0  0  0  0  0  0  0  0  0  0  0
  130.1050  126.1860   66.4140 C   0  0  0  0  0  0  0  0  0  0  0  0
  131.2280  125.1400   66.2430 C   0  0  0  0  0  0  0  0  0  0  0  0
  132.6350  125.7010   65.2380 S   0  0  0  0  0  0  0  0  0  0  0  0
  132.4910  124.9400   63.6350 C   0  0  0  0  0  0  0  0  0  0  0  0
  133.3120  123.8730   63.4650 N   0  0  0  0  0  0  0  0  0  0  0  0
  133.2750  123.2050   62.2890 C   0  0  0  0  0  0  0  0  0  0  0  0
  134.2120  122.0180   62.1750 C   0  0  0  0  0  0  0  0  0  0  0  0
  132.4330  123.5720   61.2420 C   0  0  0  0  0  0  0  0  0  0  0  0
  131.5970  124.6830   61.3990 C   0  0  0  0  0  0  0  0  0  0  0  0
  130.6920  125.0740   60.2330 C   0  0  0  0  0  0  0  0  0  0  0  0
  131.6220  125.3990   62.6180 C   0  0  0  0  0  0  0  0  0  0  0  0
  130.7940  126.5950   62.7850 C   0  0  0  0  0  0  0  0  0  0  0  0
  130.1400  127.5410   62.9160 N   0  0  0  0  0  0  0  0  0  0  0  0
  130.1250  127.6400   70.7890 C   0  0  0  0  0  0  0  0  0  0  0  0
  129.8280  128.1030   72.0670 C   0  0  0  0  0  0  0  0  0  0  0  0
  128.3529  132.7054   75.3484 H   0  0  0  0  0  0  0  0  0  0  0  0
  129.1059  132.1418   73.8180 H   0  0  0  0  0  0  0  0  0  0  0  0
  127.4131  132.7426   73.8180 H   0  0  0  0  0  0  0  0  0  0  0  0
  127.5704  130.6183   75.7543 H   0  0  0  0  0  0  0  0  0  0  0  0
  126.6847  130.6297   74.1921 H   0  0  0  0  0  0  0  0  0  0  0  0
  126.4868  127.4121   72.1440 H   0  0  0  0  0  0  0  0  0  0  0  0
  127.0119  126.5950   69.8575 H   0  0  0  0  0  0  0  0  0  0  0  0
  128.6960  125.8130   68.4500 H   0  0  0  0  0  0  0  0  0  0  0  0
  129.1352  125.6685   66.3724 H   0  0  0  0  0  0  0  0  0  0  0  0
  130.2149  126.9208   65.6028 H   0  0  0  0  0  0  0  0  0  0  0  0
  131.6040  124.8734   67.2418 H   0  0  0  0  0  0  0  0  0  0  0  0
  130.7826  124.2877   65.7090 H   0  0  0  0  0  0  0  0  0  0  0  0
  134.4868  121.6698   63.1816 H   0  0  0  0  0  0  0  0  0  0  0  0
  133.7094  121.2051   61.6304 H   0  0  0  0  0  0  0  0  0  0  0  0
  135.1194  122.3181   61.6304 H   0  0  0  0  0  0  0  0  0  0  0  0
  132.4253  122.9964   60.3046 H   0  0  0  0  0  0  0  0  0  0  0  0
  129.7477  125.4820   60.6226 H   0  0  0  0  0  0  0  0  0  0  0  0
  131.1944  125.8353   59.6182 H   0  0  0  0  0  0  0  0  0  0  0  0
  130.4820  124.1864   59.6182 H   0  0  0  0  0  0  0  0  0  0  0  0
  131.1533  127.7101   70.4046 H   0  0  0  0  0  0  0  0  0  0  0  0
  130.6265  128.5363   72.6872 H   0  0  0  0  0  0  0  0  0  0  0  0
  1  2  1  0
  2  3  1  0
  3  4  1  0
  4  5  2  0
  4  6  1  0
  6  7  2  0
  7  8  1  0
  8  9  2  0
  9 10  1  0
 10 11  1  0
 11 12  2  0
 11 13  1  0
 13 14  1  0
 14 15  1  0
 15 16  1  0
 16 17  2  0
 17 18  1  0
 18 19  1  0
 18 20  2  0
 20 21  1  0
 21 22  1  0
 21 23  2  0
 23 24  1  0
 24 25  3  0
  9 26  1  0
 26 27  2  0
 27  6  1  0
 23 16  1  0
  1 28  1  0
  1 29  1  0
  1 30  1  0
  2 31  1  0
  2 32  1  0
  7 33  1  0
  8 34  1  0
 10 35  1  0
 13 36  1  0
 13 37  1  0
 14 38  1  0
 14 39  1  0
 19 40  1  0
 19 41  1  0
 19 42  1  0
 20 43  1  0
 22 44  1  0
 22 45  1  0
 22 46  1  0
 26 47  1  0
 27 48  1  0
M  END
>  <Binding energies>  (1) 
[-7.4]

>  <Ligand effiencies>  (1) 
[-0.2642857142857143]

>  <Interactions>  (1) 
["V-A:ILE:369:CD1:3236, V-A:LEU:475:CD2:4256, V-A:GLY:454:CA:4046, V-A:GLU:543:CG:4905, V-B:HIS:456:CE1:9040, H-B:GLU:543:OE2:9882, V-B:GLU:543:CD:9880, H-A:ARG:545:NH2:4926, V-B:GLU:543:CB:9878, V-B:GLU:543:CG:9879, V-A:HIS:456:CE1:4066, V-A:TYR:484:CE2:4343, V-A:TYR:484:CZ:4344, V-A:GLU:543:CD:4906, V-B:GLU:543:C:9874, V-B:GLY:544:C:9884, V-A:ARG:545:CZ:4924, H-A:GLY:454:N:4047, V-A:GLY:544:C:4910, H-A:TYR:484:OH:4345, H-A:ARG:545:NE:4922, V-A:GLY:544:CA:4912, V-A:GLU:543:C:4900, V-B:HIS:456:CD2:9039, V-B:HIS:456:CG:9037, V-B:GLY:544:CA:9886, H-B:LYS:547:NZ:9923, H-A:LYS:547:NZ:4949, V-B:HIS:456:CB:9036, H-B:GLU:543:O:9875"]

$$$$
1o_Grossjean_2025
     RDKit          3D

 45 46  0  0  0  0  0  0  0  0999 V2000
  128.6230  128.8670   73.3820 C   0  0  0  0  0  0  0  0  0  0  0  0
  129.4410  127.7400   73.6620 O   0  0  0  0  0  0  0  0  0  0  0  0
  129.4840  126.6790   72.8150 C   0  0  0  0  0  0  0  0  0  0  0  0
  129.7560  125.5300   73.1770 O   0  0  0  0  0  0  0  0  0  0  0  0
  129.1640  127.0410   71.3930 C   0  0  0  0  0  0  0  0  0  0  0  0
  127.8560  126.9850   70.8890 C   0  0  0  0  0  0  0  0  0  0  0  0
  127.5930  127.3300   69.5660 C   0  0  0  0  0  0  0  0  0  0  0  0
  128.6270  127.7310   68.7200 C   0  0  0  0  0  0  0  0  0  0  0  0
  128.2480  128.0650   67.4050 N   0  0  0  0  0  0  0  0  0  0  0  0
  127.8870  129.2590   66.8850 C   0  0  0  0  0  0  0  0  0  0  0  0
  127.8700  130.3250   67.5010 O   0  0  0  0  0  0  0  0  0  0  0  0
  127.5040  129.2440   65.3980 C   0  0  0  0  0  0  0  0  0  0  0  0
  126.0240  128.8880   65.1530 C   0  0  0  0  0  0  0  0  0  0  0  0
  124.9130  130.3270   65.1330 S   0  0  0  0  0  0  0  0  0  0  0  0
  125.2130  131.2510   63.6410 C   0  0  0  0  0  0  0  0  0  0  0  0
  124.3810  130.9170   62.6220 N   0  0  0  0  0  0  0  0  0  0  0  0
  124.5100  131.5610   61.4380 C   0  0  0  0  0  0  0  0  0  0  0  0
  123.5360  131.1440   60.3520 C   0  0  0  0  0  0  0  0  0  0  0  0
  125.4700  132.5450   61.2180 C   0  0  0  0  0  0  0  0  0  0  0  0
  126.3500  132.8800   62.2530 C   0  0  0  0  0  0  0  0  0  0  0  0
  127.4040  133.9520   61.9830 C   0  0  0  0  0  0  0  0  0  0  0  0
  126.2380  132.2180   63.4970 C   0  0  0  0  0  0  0  0  0  0  0  0
  127.1870  132.5120   64.5730 C   0  0  0  0  0  0  0  0  0  0  0  0
  127.9380  132.7470   65.4220 N   0  0  0  0  0  0  0  0  0  0  0  0
  129.9370  127.7940   69.2190 C   0  0  0  0  0  0  0  0  0  0  0  0
  130.1980  127.4500   70.5420 C   0  0  0  0  0  0  0  0  0  0  0  0
  128.2918  129.3234   74.3265 H   0  0  0  0  0  0  0  0  0  0  0  0
  129.1988  129.6028   72.8014 H   0  0  0  0  0  0  0  0  0  0  0  0
  127.7450  128.5476   72.8014 H   0  0  0  0  0  0  0  0  0  0  0  0
  127.0319  126.6661   71.5441 H   0  0  0  0  0  0  0  0  0  0  0  0
  126.5620  127.2860   69.1850 H   0  0  0  0  0  0  0  0  0  0  0  0
  128.2770  127.2910   66.7580 H   0  0  0  0  0  0  0  0  0  0  0  0
  127.6973  130.2420   64.9776 H   0  0  0  0  0  0  0  0  0  0  0  0
  128.1110  128.4653   64.9131 H   0  0  0  0  0  0  0  0  0  0  0  0
  125.9469  128.3775   64.1817 H   0  0  0  0  0  0  0  0  0  0  0  0
  125.7060  128.2511   65.9916 H   0  0  0  0  0  0  0  0  0  0  0  0
  122.6182  130.7511   60.8138 H   0  0  0  0  0  0  0  0  0  0  0  0
  123.2883  132.0150   59.7274 H   0  0  0  0  0  0  0  0  0  0  0  0
  123.9953  130.3636   59.7274 H   0  0  0  0  0  0  0  0  0  0  0  0
  125.5358  133.0521   60.2441 H   0  0  0  0  0  0  0  0  0  0  0  0
  127.7855  134.3401   62.9389 H   0  0  0  0  0  0  0  0  0  0  0  0
  128.2332  133.5143   61.4078 H   0  0  0  0  0  0  0  0  0  0  0  0
  126.9523  134.7737   61.4078 H   0  0  0  0  0  0  0  0  0  0  0  0
  130.7593  128.1159   68.5631 H   0  0  0  0  0  0  0  0  0  0  0  0
  131.2285  127.5000   70.9236 H   0  0  0  0  0  0  0  0  0  0  0  0
  1  2  1  0
  2  3  1  0
  3  4  2  0
  3  5  1  0
  5  6  2  0
  6  7  1  0
  7  8  2  0
  8  9  1  0
  9 10  1  0
 10 11  2  0
 10 12  1  0
 12 13  1  0
 13 14  1  0
 14 15  1  0
 15 16  2  0
 16 17  1  0
 17 18  1  0
 17 19  2  0
 19 20  1  0
 20 21  1  0
 20 22  2  0
 22 23  1  0
 23 24  3  0
  8 25  1  0
 25 26  2  0
 26  5  1  0
 22 15  1  0
  1 27  1  0
  1 28  1  0
  1 29  1  0
  6 30  1  0
  7 31  1  0
  9 32  1  0
 12 33  1  0
 12 34  1  0
 13 35  1  0
 13 36  1  0
 18 37  1  0
 18 38  1  0
 18 39  1  0
 19 40  1  0
 21 41  1  0
 21 42  1  0
 21 43  1  0
 25 44  1  0
 26 45  1  0
M  END
>  <Binding energies>  (1) 
[-7.33]

>  <Ligand effiencies>  (1) 
[-0.2714814814814815]

>  <Interactions>  (1) 
["V-B:LEU:475:CD2:9230, V-B:GLY:454:CA:9020, V-B:ILE:369:CG2:8208, V-A:TYR:539:CE1:4873, V-B:ILE:369:CD1:8210, V-A:TYR:539:CD1:4871, V-B:ASP:366:CG:8184, V-A:ALA:541:CB:4890, V-A:GLU:543:CG:4905, H-B:GLU:543:OE1:9881, V-B:HIS:456:CE1:9040, H-B:GLU:543:OE2:9882, V-B:GLU:543:CD:9880, V-B:GLU:543:CG:9879, V-A:HIS:456:CE1:4066, H-A:GLU:543:OE2:4908, H-B:GLY:454:N:9021, V-A:GLU:543:CD:4906, V-B:ILE:369:CB:8207, V-A:GLU:543:CB:4904, V-B:GLU:543:C:9874, V-B:ASP:366:CA:8181, V-B:ARG:545:CZ:9898, V-B:GLY:544:C:9884, V-B:TYR:484:CE2:9317, V-B:TYR:484:CZ:9318, V-A:HIS:456:CD2:4065, H-A:HIS:456:NE2:4067, H-B:HIS:456:NE2:9041, V-A:GLY:544:C:4910, H-B:TYR:484:OH:9319, V-A:GLU:543:C:4900, V-B:HIS:456:CD2:9039, V-B:HIS:456:CG:9037, V-A:LYS:547:CE:4948, V-B:GLY:544:CA:9886, H-B:LYS:547:NZ:9923, H-A:LYS:547:NZ:4949"]

$$$$
1p_Grossjean_2025
     RDKit          3D

 35 36  0  0  0  0  0  0  0  0999 V2000
  128.9290  131.8880   75.1870 C   0  0  0  0  0  0  0  0  0  0  0  0
  127.7980  130.8790   75.1300 C   0  0  0  0  0  0  0  0  0  0  0  0
  126.5790  131.1150   75.7620 C   0  0  0  0  0  0  0  0  0  0  0  0
  125.5750  130.1420   75.6880 C   0  0  0  0  0  0  0  0  0  0  0  0
  124.2530  130.4150   76.4010 C   0  0  0  0  0  0  0  0  0  0  0  0
  125.8190  128.9510   74.9680 C   0  0  0  0  0  0  0  0  0  0  0  0
  124.8040  127.8980   74.9160 C   0  0  0  0  0  0  0  0  0  0  0  0
  123.9990  127.0670   74.8750 N   0  0  0  0  0  0  0  0  0  0  0  0
  127.0790  128.8070   74.3380 C   0  0  0  0  0  0  0  0  0  0  0  0
  127.5450  127.3790   73.3860 S   0  0  0  0  0  0  0  0  0  0  0  0
  128.5020  127.9830   71.9650 C   0  0  0  0  0  0  0  0  0  0  0  0
  129.7950  127.1870   71.7040 C   0  0  0  0  0  0  0  0  0  0  0  0
  130.2760  126.3810   72.9200 C   0  0  0  0  0  0  0  0  0  0  0  0
  129.7140  125.3230   73.2080 O   0  0  0  0  0  0  0  0  0  0  0  0
  131.3240  126.9070   73.5930 N   0  0  0  0  0  0  0  0  0  0  0  0
  131.9490  126.3830   74.7170 C   0  0  0  0  0  0  0  0  0  0  0  0
  133.2490  125.8790   74.7010 C   0  0  0  0  0  0  0  0  0  0  0  0
  133.4900  125.4660   75.9910 C   0  0  0  0  0  0  0  0  0  0  0  0
  132.3920  125.7060   76.7450 O   0  0  0  0  0  0  0  0  0  0  0  0
  131.4210  126.2870   75.9260 N   0  0  0  0  0  0  0  0  0  0  0  0
  128.0530  129.7460   74.4330 N   0  0  0  0  0  0  0  0  0  0  0  0
  129.1733  132.1060   76.2371 H   0  0  0  0  0  0  0  0  0  0  0  0
  129.8149  131.4747   74.6826 H   0  0  0  0  0  0  0  0  0  0  0  0
  128.6191  132.8151   74.6826 H   0  0  0  0  0  0  0  0  0  0  0  0
  126.4078  132.0525   76.3113 H   0  0  0  0  0  0  0  0  0  0  0  0
  124.4098  130.3826   77.4893 H   0  0  0  0  0  0  0  0  0  0  0  0
  123.8799  131.4091   76.1137 H   0  0  0  0  0  0  0  0  0  0  0  0
  123.5167  129.6500   76.1137 H   0  0  0  0  0  0  0  0  0  0  0  0
  127.8685  127.9198   71.0679 H   0  0  0  0  0  0  0  0  0  0  0  0
  128.8021  129.0158   72.1959 H   0  0  0  0  0  0  0  0  0  0  0  0
  129.6121  126.4887   70.8740 H   0  0  0  0  0  0  0  0  0  0  0  0
  130.5825  127.9182   71.4692 H   0  0  0  0  0  0  0  0  0  0  0  0
  131.6970  127.7820   73.2570 H   0  0  0  0  0  0  0  0  0  0  0  0
  133.9341  125.8236   73.8422 H   0  0  0  0  0  0  0  0  0  0  0  0
  134.4253  125.0132   76.3518 H   0  0  0  0  0  0  0  0  0  0  0  0
  1  2  1  0
  2  3  2  0
  3  4  1  0
  4  5  1  0
  4  6  2  0
  6  7  1  0
  7  8  3  0
  6  9  1  0
  9 10  1  0
 10 11  1  0
 11 12  1  0
 12 13  1  0
 13 14  2  0
 13 15  1  0
 15 16  1  0
 16 17  1  0
 17 18  2  0
 18 19  1  0
 19 20  1  0
  9 21  2  0
 21  2  1  0
 20 16  2  0
  1 22  1  0
  1 23  1  0
  1 24  1  0
  3 25  1  0
  5 26  1  0
  5 27  1  0
  5 28  1  0
 11 29  1  0
 11 30  1  0
 12 31  1  0
 12 32  1  0
 15 33  1  0
 17 34  1  0
 18 35  1  0
M  END
>  <Binding energies>  (1) 
[-7.57]

>  <Ligand effiencies>  (1) 
[-0.3440909090909091]

>  <Interactions>  (1) 
["V-B:HIS:456:CE1:9040, V-A:HIS:456:CE1:4066, V-A:HIS:456:CD2:4065, H-A:HIS:456:NE2:4067, V-A:GLY:544:C:4910, V-A:LYS:547:CD:4947, V-A:VAL:458:CG2:4084, V-B:HIS:456:CD2:9039, V-B:HIS:456:CG:9037, V-A:LYS:547:CE:4948, V-A:HIS:456:CG:4063, H-B:LYS:547:NZ:9923, H-A:GLY:544:O:4911, V-A:LYS:471:CD:4216, V-A:HIS:456:CB:4062, H-A:LYS:547:NZ:4949, V-B:LYS:471:CD:9190, V-B:HIS:456:C:9032, V-B:LYS:547:CE:9922, V-B:ASP:473:CG:9211, V-B:HIS:456:CB:9036, V-B:VAL:458:CG2:9058, V-B:LYS:547:CD:9921, V-B:LYS:547:CG:9920, V-B:LYS:471:CG:9189, V-B:LYS:471:CB:9188"]

$$$$
1q_Grossjean_2025
     RDKit          3D

 38 38  0  0  0  0  0  0  0  0999 V2000
  127.0770  131.1170   75.8580 C   0  0  0  0  0  0  0  0  0  0  0  0
  126.4940  129.9580   76.4350 O   0  0  0  0  0  0  0  0  0  0  0  0
  125.3010  129.4920   75.9880 C   0  0  0  0  0  0  0  0  0  0  0  0
  124.2160  130.0610   76.1190 O   0  0  0  0  0  0  0  0  0  0  0  0
  125.3840  128.1160   75.2940 C   0  0  0  0  0  0  0  0  0  0  0  0
  126.2460  128.1230   74.1030 N   0  0  0  0  0  0  0  0  0  0  0  0
  127.5900  128.2090   74.1020 C   0  0  0  0  0  0  0  0  0  0  0  0
  128.2610  128.2910   75.1330 O   0  0  0  0  0  0  0  0  0  0  0  0
  128.2650  128.1840   72.7230 C   0  0  0  0  0  0  0  0  0  0  0  0
  129.2340  127.0040   72.5130 C   0  0  0  0  0  0  0  0  0  0  0  0
  130.8770  127.2720   73.2450 S   0  0  0  0  0  0  0  0  0  0  0  0
  131.3870  125.7730   74.0600 C   0  0  0  0  0  0  0  0  0  0  0  0
  130.4350  124.8050   74.0540 N   0  0  0  0  0  0  0  0  0  0  0  0
  130.7050  123.6200   74.6460 C   0  0  0  0  0  0  0  0  0  0  0  0
  129.5870  122.5950   74.6130 C   0  0  0  0  0  0  0  0  0  0  0  0
  131.9280  123.3450   75.2550 C   0  0  0  0  0  0  0  0  0  0  0  0
  132.9260  124.3250   75.2450 C   0  0  0  0  0  0  0  0  0  0  0  0
  134.2650  123.9930   75.9030 C   0  0  0  0  0  0  0  0  0  0  0  0
  132.6680  125.5710   74.6300 C   0  0  0  0  0  0  0  0  0  0  0  0
  133.7190  126.5870   74.5610 C   0  0  0  0  0  0  0  0  0  0  0  0
  134.5540  127.3870   74.5080 N   0  0  0  0  0  0  0  0  0  0  0  0
  127.4169  131.7928   76.6566 H   0  0  0  0  0  0  0  0  0  0  0  0
  127.9352  130.8245   75.2352 H   0  0  0  0  0  0  0  0  0  0  0  0
  126.3305  131.6316   75.2352 H   0  0  0  0  0  0  0  0  0  0  0  0
  125.7845  127.3852   76.0120 H   0  0  0  0  0  0  0  0  0  0  0  0
  124.3684  127.8533   74.9629 H   0  0  0  0  0  0  0  0  0  0  0  0
  125.7710  128.0850   73.2130 H   0  0  0  0  0  0  0  0  0  0  0  0
  127.4791  128.1252   71.9556 H   0  0  0  0  0  0  0  0  0  0  0  0
  128.8660  129.1024   72.6495 H   0  0  0  0  0  0  0  0  0  0  0  0
  128.7923  126.1059   72.9693 H   0  0  0  0  0  0  0  0  0  0  0  0
  129.3783  126.8942   71.4280 H   0  0  0  0  0  0  0  0  0  0  0  0
  129.3002  122.3320   75.6419 H   0  0  0  0  0  0  0  0  0  0  0  0
  128.7182  123.0169   74.0866 H   0  0  0  0  0  0  0  0  0  0  0  0
  129.9321  121.6929   74.0866 H   0  0  0  0  0  0  0  0  0  0  0  0
  132.1058  122.3720   75.7363 H   0  0  0  0  0  0  0  0  0  0  0  0
  134.1529  124.0208   76.9969 H   0  0  0  0  0  0  0  0  0  0  0  0
  134.5868  122.9879   75.5928 H   0  0  0  0  0  0  0  0  0  0  0  0
  135.0190  124.7314   75.5928 H   0  0  0  0  0  0  0  0  0  0  0  0
  1  2  1  0
  2  3  1  0
  3  4  2  0
  3  5  1  0
  5  6  1  0
  6  7  1  0
  7  8  2  0
  7  9  1  0
  9 10  1  0
 10 11  1  0
 11 12  1  0
 12 13  2  0
 13 14  1  0
 14 15  1  0
 14 16  2  0
 16 17  1  0
 17 18  1  0
 17 19  2  0
 19 20  1  0
 20 21  3  0
 19 12  1  0
  1 22  1  0
  1 23  1  0
  1 24  1  0
  5 25  1  0
  5 26  1  0
  6 27  1  0
  9 28  1  0
  9 29  1  0
 10 30  1  0
 10 31  1  0
 15 32  1  0
 15 33  1  0
 15 34  1  0
 16 35  1  0
 18 36  1  0
 18 37  1  0
 18 38  1  0
M  END
>  <Binding energies>  (1) 
[-6.47]

>  <Ligand effiencies>  (1) 
[-0.29409090909090907]

>  <Interactions>  (1) 
["V-B:HIS:456:CE1:9040, V-B:GLY:544:C:9884, V-A:HIS:456:CD2:4065, V-A:LYS:547:CD:4947, V-A:VAL:458:CG2:4084, V-B:HIS:456:CD2:9039, V-B:HIS:456:CG:9037, V-A:HIS:456:C:4058, V-A:LYS:547:CE:4948, V-A:HIS:456:CG:4063, H-B:LYS:547:NZ:9923, V-A:LYS:471:CD:4216, V-A:HIS:456:CB:4062, H-A:LYS:547:NZ:4949, V-B:LYS:471:CD:9190, V-B:LYS:547:CE:9922, V-B:ASP:473:CG:9211, H-B:GLY:544:O:9885, V-B:HIS:456:CB:9036, V-B:VAL:458:CG2:9058, V-B:LYS:547:CD:9921, V-A:ASP:473:CG:4237, H-B:HIS:456:ND1:9038, V-A:LYS:471:CG:4215"]

$$$$
2a_Ghoteimi_2023
     RDKit          3D

 85 90  0  0  0  0  0  0  0  0999 V2000
  129.7260  121.4800   61.4160 C   0  0  0  0  0  0  0  0  0  0  0  0
  128.6690  122.5830   61.5330 C   0  0  0  0  0  0  0  0  0  0  0  0
  128.8440  123.5180   60.4760 O   0  0  0  0  0  0  0  0  0  0  0  0
  129.3720  124.7470   60.7070 C   0  0  0  0  0  0  0  0  0  0  0  0
  130.5860  124.9720   60.7280 O   0  0  0  0  0  0  0  0  0  0  0  0
  128.3310  125.8080   60.9270 C   0  0  0  0  0  0  0  0  0  0  0  0
  128.1470  126.4190   62.1760 C   0  0  0  0  0  0  0  0  0  0  0  0
  127.1740  127.4000   62.3450 C   0  0  0  0  0  0  0  0  0  0  0  0
  126.3700  127.7940   61.2740 C   0  0  0  0  0  0  0  0  0  0  0  0
  125.4170  128.7900   61.5590 N   0  0  0  0  0  0  0  0  0  0  0  0
  125.1370  129.9340   60.8970 C   0  0  0  0  0  0  0  0  0  0  0  0
  125.7360  130.3420   59.9020 O   0  0  0  0  0  0  0  0  0  0  0  0
  124.0010  130.7720   61.4970 C   0  0  0  0  0  0  0  0  0  0  0  0
  123.7370  130.5160   63.2820 S   0  0  0  0  0  0  0  0  0  0  0  0
  125.3320  130.1030   63.9490 C   0  0  0  0  0  0  0  0  0  0  0  0
  126.3600  130.3520   63.1040 N   0  0  0  0  0  0  0  0  0  0  0  0
  127.6280  130.0690   63.4950 C   0  0  0  0  0  0  0  0  0  0  0  0
  128.7110  130.3600   62.5070 C   0  0  0  0  0  0  0  0  0  0  0  0
  128.9600  131.6660   62.0670 C   0  0  0  0  0  0  0  0  0  0  0  0
  129.9620  131.9300   61.1380 C   0  0  0  0  0  0  0  0  0  0  0  0
  130.7590  130.8990   60.6190 C   0  0  0  0  0  0  0  0  0  0  0  0
  131.7420  131.1750   59.6630 N   0  0  0  0  0  0  0  0  0  0  0  0
  133.1040  131.5890   60.0570 C   0  0  0  0  0  0  0  0  0  0  0  0
  134.1380  131.4980   58.9150 C   0  0  0  0  0  0  0  0  0  0  0  0
  133.6870  132.2370   57.7910 O   0  0  0  0  0  0  0  0  0  0  0  0
  132.4550  131.7330   57.3000 C   0  0  0  0  0  0  0  0  0  0  0  0
  131.3690  131.8310   58.3920 C   0  0  0  0  0  0  0  0  0  0  0  0
  130.4970  129.5900   61.0540 C   0  0  0  0  0  0  0  0  0  0  0  0
  129.4970  129.3270   61.9850 C   0  0  0  0  0  0  0  0  0  0  0  0
  127.8920  129.5390   64.7610 C   0  0  0  0  0  0  0  0  0  0  0  0
  126.8440  129.2740   65.6530 C   0  0  0  0  0  0  0  0  0  0  0  0
  127.1970  128.7020   66.9870 C   0  0  0  0  0  0  0  0  0  0  0  0
  128.3570  129.1180   67.6460 C   0  0  0  0  0  0  0  0  0  0  0  0
  128.7050  128.5770   68.8800 C   0  0  0  0  0  0  0  0  0  0  0  0
  127.9020  127.6050   69.4940 C   0  0  0  0  0  0  0  0  0  0  0  0
  128.2430  127.0350   70.7240 N   0  0  0  0  0  0  0  0  0  0  0  0
  127.6640  127.5900   71.9640 C   0  0  0  0  0  0  0  0  0  0  0  0
  127.8040  126.6480   73.1780 C   0  0  0  0  0  0  0  0  0  0  0  0
  129.1670  126.3010   73.3700 O   0  0  0  0  0  0  0  0  0  0  0  0
  129.7040  125.6380   72.2360 C   0  0  0  0  0  0  0  0  0  0  0  0
  129.6100  126.5510   70.9960 C   0  0  0  0  0  0  0  0  0  0  0  0
  126.7460  127.1830   68.8210 C   0  0  0  0  0  0  0  0  0  0  0  0
  126.3980  127.7240   67.5860 C   0  0  0  0  0  0  0  0  0  0  0  0
  125.5210  129.5680   65.2420 C   0  0  0  0  0  0  0  0  0  0  0  0
  124.3880  129.3660   66.1520 C   0  0  0  0  0  0  0  0  0  0  0  0
  123.4960  129.2030   66.8710 N   0  0  0  0  0  0  0  0  0  0  0  0
  126.5440  127.1810   60.0240 C   0  0  0  0  0  0  0  0  0  0  0  0
  127.5180  126.2010   59.8550 C   0  0  0  0  0  0  0  0  0  0  0  0
  130.0337  121.1589   62.4221 H   0  0  0  0  0  0  0  0  0  0  0  0
  129.3031  120.6232   60.8710 H   0  0  0  0  0  0  0  0  0  0  0  0
  130.6000  121.8660   60.8710 H   0  0  0  0  0  0  0  0  0  0  0  0
  127.6652  122.1380   61.4671 H   0  0  0  0  0  0  0  0  0  0  0  0
  128.7785  123.0962   62.4998 H   0  0  0  0  0  0  0  0  0  0  0  0
  128.7759  126.1209   63.0278 H   0  0  0  0  0  0  0  0  0  0  0  0
  127.0375  127.8687   63.3308 H   0  0  0  0  0  0  0  0  0  0  0  0
  124.8870  128.6230   62.4010 H   0  0  0  0  0  0  0  0  0  0  0  0
  124.2337  131.8345   61.3327 H   0  0  0  0  0  0  0  0  0  0  0  0
  123.0763  130.4523   60.9943 H   0  0  0  0  0  0  0  0  0  0  0  0
  128.3546  132.4954   62.4615 H   0  0  0  0  0  0  0  0  0  0  0  0
  130.1318  132.9646   60.8051 H   0  0  0  0  0  0  0  0  0  0  0  0
  133.0624  132.6317   60.4048 H   0  0  0  0  0  0  0  0  0  0  0  0
  133.4344  130.8952   60.8441 H   0  0  0  0  0  0  0  0  0  0  0  0
  135.0983  131.9092   59.2596 H   0  0  0  0  0  0  0  0  0  0  0  0
  134.2650  130.4441   58.6265 H   0  0  0  0  0  0  0  0  0  0  0  0
  132.1444  132.3215   56.4241 H   0  0  0  0  0  0  0  0  0  0  0  0
  132.5852  130.6785   57.0154 H   0  0  0  0  0  0  0  0  0  0  0  0
  131.1752  132.8947   58.5943 H   0  0  0  0  0  0  0  0  0  0  0  0
  130.4806  131.3073   58.0091 H   0  0  0  0  0  0  0  0  0  0  0  0
  131.0929  128.7576   60.6516 H   0  0  0  0  0  0  0  0  0  0  0  0
  129.3220  128.2924   62.3152 H   0  0  0  0  0  0  0  0  0  0  0  0
  128.9296  129.3284   65.0594 H   0  0  0  0  0  0  0  0  0  0  0  0
  129.0015  129.8808   67.1847 H   0  0  0  0  0  0  0  0  0  0  0  0
  129.6234  128.9168   69.3811 H   0  0  0  0  0  0  0  0  0  0  0  0
  128.1756  128.5359   72.1953 H   0  0  0  0  0  0  0  0  0  0  0  0
  126.5881  127.7335   71.7854 H   0  0  0  0  0  0  0  0  0  0  0  0
  127.4273  127.1558   74.0782 H   0  0  0  0  0  0  0  0  0  0  0  0
  127.2215  125.7332   72.9937 H   0  0  0  0  0  0  0  0  0  0  0  0
  130.7585  125.3887   72.4255 H   0  0  0  0  0  0  0  0  0  0  0  0
  129.1301  124.7180   72.0508 H   0  0  0  0  0  0  0  0  0  0  0  0
  130.2627  127.4221   71.1547 H   0  0  0  0  0  0  0  0  0  0  0  0
  129.9195  125.9506   70.1278 H   0  0  0  0  0  0  0  0  0  0  0  0
  126.1049  126.4133   69.2755 H   0  0  0  0  0  0  0  0  0  0  0  0
  125.4860  127.3786   67.0772 H   0  0  0  0  0  0  0  0  0  0  0  0
  125.9091  127.4756   59.1754 H   0  0  0  0  0  0  0  0  0  0  0  0
  127.6510  125.7301   58.8698 H   0  0  0  0  0  0  0  0  0  0  0  0
  1  2  1  0
  2  3  1  0
  3  4  1  0
  4  5  2  0
  4  6  1  0
  6  7  2  0
  7  8  1  0
  8  9  2  0
  9 10  1  0
 10 11  1  0
 11 12  2  0
 11 13  1  0
 13 14  1  0
 14 15  1  0
 15 16  2  0
 16 17  1  0
 17 18  1  0
 18 19  2  0
 19 20  1  0
 20 21  2  0
 21 22  1  0
 22 23  1  0
 23 24  1  0
 24 25  1  0
 25 26  1  0
 26 27  1  0
 21 28  1  0
 28 29  2  0
 17 30  2  0
 30 31  1  0
 31 32  1  0
 32 33  2  0
 33 34  1  0
 34 35  2  0
 35 36  1  0
 36 37  1  0
 37 38  1  0
 38 39  1  0
 39 40  1  0
 40 41  1  0
 35 42  1  0
 42 43  2  0
 31 44  2  0
 44 45  1  0
 45 46  3  0
  9 47  1  0
 47 48  2  0
 48  6  1  0
 44 15  1  0
 29 18  1  0
 43 32  1  0
 27 22  1  0
 41 36  1  0
  1 49  1  0
  1 50  1  0
  1 51  1  0
  2 52  1  0
  2 53  1  0
  7 54  1  0
  8 55  1  0
 10 56  1  0
 13 57  1  0
 13 58  1  0
 19 59  1  0
 20 60  1  0
 23 61  1  0
 23 62  1  0
 24 63  1  0
 24 64  1  0
 26 65  1  0
 26 66  1  0
 27 67  1  0
 27 68  1  0
 28 69  1  0
 29 70  1  0
 30 71  1  0
 33 72  1  0
 34 73  1  0
 37 74  1  0
 37 75  1  0
 38 76  1  0
 38 77  1  0
 40 78  1  0
 40 79  1  0
 41 80  1  0
 41 81  1  0
 42 82  1  0
 43 83  1  0
 47 84  1  0
 48 85  1  0
M  END
>  <Binding energies>  (1) 
[-2.2]

>  <Ligand effiencies>  (1) 
[-0.04489795918367347]

>  <Interactions>  (1) 
["V-B:ILE:369:CD1:8210, V-B:ASP:366:CG:8184, V-A:PRO:540:CB:4883, V-A:PRO:540:CA:4881, V-A:PRO:540:N:4882, V-A:ALA:541:CB:4890, V-B:TYR:539:CD1:9845, V-A:GLU:543:CG:4905, V-A:ASP:366:CG:3210, V-B:HIS:456:CE1:9040, V-B:GLU:543:CD:9880, V-B:GLU:543:CG:9879, V-A:HIS:456:CE1:4066, V-A:ASP:366:CB:3209, H-B:GLY:454:N:9021, V-A:GLU:543:CD:4906, V-A:GLU:543:CB:4904, V-B:GLU:543:C:9874, V-B:ARG:545:CZ:9898, V-B:ARG:545:CG:9894, V-B:GLY:544:C:9884, V-B:ALA:541:CB:9864, V-A:HIS:456:CD2:4065, H-B:ARG:545:NE:9896, V-B:ARG:545:CD:9895, H-B:ASP:366:OD1:8185, V-A:LEU:363:CA:3182, H-B:TYR:484:OH:9319, H-B:ASP:366:OD2:8186, V-A:GLU:543:C:4900, V-B:HIS:456:CD2:9039, V-B:HIS:456:CG:9037, V-B:GLY:544:CA:9886, V-A:HIS:456:CG:4063, H-B:LYS:547:NZ:9923, V-B:LYS:547:CE:9922, V-A:ASN:362:C:3169, V-A:LEU:363:CB:3184, V-A:LEU:363:CD1:3186, V-B:ARG:545:CA:9891"]

$$$$
2a_Grossjean_2025
     RDKit          3D

 45 46  0  0  0  0  0  0  0  0999 V2000
  131.5660  126.2780   73.8490 C   0  0  0  0  0  0  0  0  0  0  0  0
  130.1560  125.9050   73.3810 C   0  0  0  0  0  0  0  0  0  0  0  0
  129.2480  126.9340   73.7550 O   0  0  0  0  0  0  0  0  0  0  0  0
  129.0470  128.0150   72.9590 C   0  0  0  0  0  0  0  0  0  0  0  0
  128.6590  129.1090   73.3800 O   0  0  0  0  0  0  0  0  0  0  0  0
  129.3670  127.7530   71.5140 C   0  0  0  0  0  0  0  0  0  0  0  0
  128.4000  127.2800   70.6150 C   0  0  0  0  0  0  0  0  0  0  0  0
  128.7290  127.0450   69.2840 C   0  0  0  0  0  0  0  0  0  0  0  0
  130.0270  127.2700   68.8250 C   0  0  0  0  0  0  0  0  0  0  0  0
  130.2500  126.9850   67.4650 N   0  0  0  0  0  0  0  0  0  0  0  0
  130.2850  125.7990   66.8200 C   0  0  0  0  0  0  0  0  0  0  0  0
  130.1440  124.6950   67.3470 O   0  0  0  0  0  0  0  0  0  0  0  0
  130.5250  125.8760   65.3090 C   0  0  0  0  0  0  0  0  0  0  0  0
  132.2820  125.7080   64.8480 S   0  0  0  0  0  0  0  0  0  0  0  0
  132.4140  124.9090   63.2520 C   0  0  0  0  0  0  0  0  0  0  0  0
  133.1550  123.7720   63.2230 N   0  0  0  0  0  0  0  0  0  0  0  0
  133.3080  123.1220   62.0480 C   0  0  0  0  0  0  0  0  0  0  0  0
  134.1720  121.8750   62.0900 C   0  0  0  0  0  0  0  0  0  0  0  0
  132.7290  123.5660   60.8630 C   0  0  0  0  0  0  0  0  0  0  0  0
  131.9510  124.7340   60.8710 C   0  0  0  0  0  0  0  0  0  0  0  0
  131.3160  125.2120   59.5510 C   0  0  0  0  0  0  0  0  0  0  0  0
  131.6240  126.4900   59.3320 F   0  0  0  0  0  0  0  0  0  0  0  0
  131.7690  124.4760   58.5350 F   0  0  0  0  0  0  0  0  0  0  0  0
  129.9840  125.1140   59.5550 F   0  0  0  0  0  0  0  0  0  0  0  0
  131.7850  125.4280   62.0970 C   0  0  0  0  0  0  0  0  0  0  0  0
  130.9860  126.6560   62.1620 C   0  0  0  0  0  0  0  0  0  0  0  0
  130.3550  127.6250   62.2130 N   0  0  0  0  0  0  0  0  0  0  0  0
  130.9970  127.7510   69.7160 C   0  0  0  0  0  0  0  0  0  0  0  0
  130.6660  127.9890   71.0470 C   0  0  0  0  0  0  0  0  0  0  0  0
  131.5972  126.2863   74.9485 H   0  0  0  0  0  0  0  0  0  0  0  0
  132.2864  125.5395   73.4673 H   0  0  0  0  0  0  0  0  0  0  0  0
  131.8270  127.2761   73.4673 H   0  0  0  0  0  0  0  0  0  0  0  0
  130.1505  125.7901   72.2870 H   0  0  0  0  0  0  0  0  0  0  0  0
  129.8515  124.9573   73.8491 H   0  0  0  0  0  0  0  0  0  0  0  0
  127.3740  127.0935   70.9650 H   0  0  0  0  0  0  0  0  0  0  0  0
  127.9598  126.6789   68.5881 H   0  0  0  0  0  0  0  0  0  0  0  0
  130.3550  127.8040   66.8850 H   0  0  0  0  0  0  0  0  0  0  0  0
  129.9579  125.0679   64.8238 H   0  0  0  0  0  0  0  0  0  0  0  0
  130.1948  126.8713   64.9770 H   0  0  0  0  0  0  0  0  0  0  0  0
  134.3644  121.5973   63.1368 H   0  0  0  0  0  0  0  0  0  0  0  0
  133.6507  121.0504   61.5818 H   0  0  0  0  0  0  0  0  0  0  0  0
  135.1272  122.0734   61.5818 H   0  0  0  0  0  0  0  0  0  0  0  0
  132.8798  123.0063   59.9281 H   0  0  0  0  0  0  0  0  0  0  0  0
  132.0213  127.9406   69.3626 H   0  0  0  0  0  0  0  0  0  0  0  0
  131.4329  128.3665   71.7393 H   0  0  0  0  0  0  0  0  0  0  0  0
  1  2  1  0
  2  3  1  0
  3  4  1  0
  4  5  2  0
  4  6  1  0
  6  7  2  0
  7  8  1  0
  8  9  2  0
  9 10  1  0
 10 11  1  0
 11 12  2  0
 11 13  1  0
 13 14  1  0
 14 15  1  0
 15 16  2  0
 16 17  1  0
 17 18  1  0
 17 19  2  0
 19 20  1  0
 20 21  1  0
 21 22  1  0
 21 23  1  0
 21 24  1  0
 20 25  2  0
 25 26  1  0
 26 27  3  0
  9 28  1  0
 28 29  2  0
 29  6  1  0
 25 15  1  0
  1 30  1  0
  1 31  1  0
  1 32  1  0
  2 33  1  0
  2 34  1  0
  7 35  1  0
  8 36  1  0
 10 37  1  0
 13 38  1  0
 13 39  1  0
 18 40  1  0
 18 41  1  0
 18 42  1  0
 19 43  1  0
 28 44  1  0
 29 45  1  0
M  END
>  <Binding energies>  (1) 
[-6.68]

>  <Ligand effiencies>  (1) 
[-0.22266666666666665]

>  <Interactions>  (1) 
["V-B:TYR:539:CE1:9847, V-A:ILE:369:CD1:3236, V-A:LEU:475:CD2:4256, V-A:GLY:454:CA:4046, V-A:GLU:543:CG:4905, V-A:ASP:366:CG:3210, V-A:ILE:369:CG2:3234, V-B:HIS:456:CE1:9040, V-B:GLU:543:CD:9880, H-A:ARG:545:NH2:4926, V-B:GLU:543:CB:9878, V-B:GLU:543:CG:9879, V-A:HIS:456:CE1:4066, H-A:GLU:543:OE2:4908, V-A:ASP:366:CB:3209, V-A:GLU:543:CD:4906, V-B:GLU:543:C:9874, V-A:ARG:545:CZ:4924, H-A:GLY:454:N:4047, H-A:GLU:543:OE1:4907, V-B:TYR:539:CZ:9849, V-A:HIS:456:CD2:4065, H-A:HIS:456:NE2:4067, H-B:HIS:456:NE2:9041, V-A:GLY:544:C:4910, H-A:TYR:484:OH:4345, H-A:ARG:545:NE:4922, V-A:GLY:544:CA:4912, V-A:GLU:543:C:4900, V-B:HIS:456:CD2:9039, V-A:LYS:547:CE:4948, V-A:HIS:456:CG:4063, H-B:LYS:547:NZ:9923, V-A:HIS:456:CB:4062, H-A:LYS:547:NZ:4949, V-B:LYS:547:CE:9922"]

$$$$
2aa_Ghoteimi_2023
     RDKit          3D

 85 90  0  0  0  0  0  0  0  0999 V2000
  130.3100  117.6600   60.5560 C   0  0  0  0  0  0  0  0  0  0  0  0
  131.7790  117.7590   60.9800 C   0  0  0  0  0  0  0  0  0  0  0  0
  132.5070  118.4760   59.9920 O   0  0  0  0  0  0  0  0  0  0  0  0
  133.3840  119.4540   60.3370 C   0  0  0  0  0  0  0  0  0  0  0  0
  134.6060  119.2820   60.3950 O   0  0  0  0  0  0  0  0  0  0  0  0
  132.7210  120.7700   60.6270 C   0  0  0  0  0  0  0  0  0  0  0  0
  133.3870  121.9910   60.4450 C   0  0  0  0  0  0  0  0  0  0  0  0
  132.7450  123.1950   60.7180 C   0  0  0  0  0  0  0  0  0  0  0  0
  131.4300  123.2040   61.1870 C   0  0  0  0  0  0  0  0  0  0  0  0
  130.8760  124.4770   61.4280 N   0  0  0  0  0  0  0  0  0  0  0  0
  130.9180  125.5960   60.6730 C   0  0  0  0  0  0  0  0  0  0  0  0
  131.4580  125.6850   59.5680 O   0  0  0  0  0  0  0  0  0  0  0  0
  130.2010  126.8060   61.2850 C   0  0  0  0  0  0  0  0  0  0  0  0
  129.6520  126.4480   62.5580 O   0  0  0  0  0  0  0  0  0  0  0  0
  129.0970  127.4220   63.3770 C   0  0  0  0  0  0  0  0  0  0  0  0
  129.1520  127.2320   64.7250 N   0  0  0  0  0  0  0  0  0  0  0  0
  128.6230  128.1670   65.5540 C   0  0  0  0  0  0  0  0  0  0  0  0
  128.7150  127.8890   67.0210 C   0  0  0  0  0  0  0  0  0  0  0  0
  127.5660  127.6200   67.7710 C   0  0  0  0  0  0  0  0  0  0  0  0
  127.6470  127.3540   69.1360 C   0  0  0  0  0  0  0  0  0  0  0  0
  128.8840  127.3340   69.7990 C   0  0  0  0  0  0  0  0  0  0  0  0
  128.9820  127.0810   71.1720 N   0  0  0  0  0  0  0  0  0  0  0  0
  130.2940  126.9780   71.8440 C   0  0  0  0  0  0  0  0  0  0  0  0
  130.2240  126.3540   73.2530 C   0  0  0  0  0  0  0  0  0  0  0  0
  129.2980  127.0680   74.0550 O   0  0  0  0  0  0  0  0  0  0  0  0
  127.9920  127.0310   73.4990 C   0  0  0  0  0  0  0  0  0  0  0  0
  127.9960  127.6760   72.0970 C   0  0  0  0  0  0  0  0  0  0  0  0
  130.0310  127.6260   69.0460 C   0  0  0  0  0  0  0  0  0  0  0  0
  129.9490  127.8940   67.6830 C   0  0  0  0  0  0  0  0  0  0  0  0
  128.0060  129.3150   65.0480 C   0  0  0  0  0  0  0  0  0  0  0  0
  127.9260  129.5280   63.6660 C   0  0  0  0  0  0  0  0  0  0  0  0
  127.2320  130.7620   63.1850 C   0  0  0  0  0  0  0  0  0  0  0  0
  125.8380  130.8000   63.1020 C   0  0  0  0  0  0  0  0  0  0  0  0
  125.1870  131.9390   62.6360 C   0  0  0  0  0  0  0  0  0  0  0  0
  125.9120  133.0680   62.2250 C   0  0  0  0  0  0  0  0  0  0  0  0
  125.2790  134.2230   61.7570 N   0  0  0  0  0  0  0  0  0  0  0  0
  125.9730  135.5250   61.7360 C   0  0  0  0  0  0  0  0  0  0  0  0
  125.2600  136.5880   60.8730 C   0  0  0  0  0  0  0  0  0  0  0  0
  123.9150  136.7380   61.3020 O   0  0  0  0  0  0  0  0  0  0  0  0
  123.1920  135.5220   61.1890 C   0  0  0  0  0  0  0  0  0  0  0  0
  123.8490  134.4320   62.0610 C   0  0  0  0  0  0  0  0  0  0  0  0
  127.3100  133.0220   62.3180 C   0  0  0  0  0  0  0  0  0  0  0  0
  127.9620  131.8850   62.7850 C   0  0  0  0  0  0  0  0  0  0  0  0
  128.5010  128.5620   62.8080 C   0  0  0  0  0  0  0  0  0  0  0  0
  128.5090  128.7260   61.3530 C   0  0  0  0  0  0  0  0  0  0  0  0
  128.5150  128.8560   60.2030 N   0  0  0  0  0  0  0  0  0  0  0  0
  130.7550  121.9880   61.3650 C   0  0  0  0  0  0  0  0  0  0  0  0
  131.3990  120.7860   61.0870 C   0  0  0  0  0  0  0  0  0  0  0  0
  129.6721  117.6170   61.4511 H   0  0  0  0  0  0  0  0  0  0  0  0
  130.0412  118.5421   59.9562 H   0  0  0  0  0  0  0  0  0  0  0  0
  130.1620  116.7498   59.9562 H   0  0  0  0  0  0  0  0  0  0  0  0
  131.8486  118.2868   61.9426 H   0  0  0  0  0  0  0  0  0  0  0  0
  132.2002  116.7484   61.0863 H   0  0  0  0  0  0  0  0  0  0  0  0
  134.4258  121.9968   60.0833 H   0  0  0  0  0  0  0  0  0  0  0  0
  133.2768  124.1454   60.5634 H   0  0  0  0  0  0  0  0  0  0  0  0
  130.3370  124.5360   62.2800 H   0  0  0  0  0  0  0  0  0  0  0  0
  130.9188  127.6293   61.4148 H   0  0  0  0  0  0  0  0  0  0  0  0
  129.3894  127.1260   60.6150 H   0  0  0  0  0  0  0  0  0  0  0  0
  126.5837  127.6184   67.2759 H   0  0  0  0  0  0  0  0  0  0  0  0
  126.7259  127.1563   69.7039 H   0  0  0  0  0  0  0  0  0  0  0  0
  130.9546  126.3564   71.2217 H   0  0  0  0  0  0  0  0  0  0  0  0
  130.6731  128.0034   71.9660 H   0  0  0  0  0  0  0  0  0  0  0  0
  129.9021  125.3053   73.1712 H   0  0  0  0  0  0  0  0  0  0  0  0
  131.2189  126.4040   73.7195 H   0  0  0  0  0  0  0  0  0  0  0  0
  127.6603  125.9854   73.4178 H   0  0  0  0  0  0  0  0  0  0  0  0
  127.3060  127.5908   74.1517 H   0  0  0  0  0  0  0  0  0  0  0  0
  126.9940  127.5594   71.6583 H   0  0  0  0  0  0  0  0  0  0  0  0
  128.2761  128.7314   72.2297 H   0  0  0  0  0  0  0  0  0  0  0  0
  131.0127  127.6434   69.5418 H   0  0  0  0  0  0  0  0  0  0  0  0
  130.8667  128.1129   67.1174 H   0  0  0  0  0  0  0  0  0  0  0  0
  127.5803  130.0563   65.7403 H   0  0  0  0  0  0  0  0  0  0  0  0
  125.2495  129.9223   63.4075 H   0  0  0  0  0  0  0  0  0  0  0  0
  124.0881  131.9542   62.5893 H   0  0  0  0  0  0  0  0  0  0  0  0
  126.0393  135.9011   62.7676 H   0  0  0  0  0  0  0  0  0  0  0  0
  126.9640  135.3567   61.2893 H   0  0  0  0  0  0  0  0  0  0  0  0
  125.7839  137.5500   60.9732 H   0  0  0  0  0  0  0  0  0  0  0  0
  125.2702  136.2659   59.8213 H   0  0  0  0  0  0  0  0  0  0  0  0
  122.1567  135.6816   61.5248 H   0  0  0  0  0  0  0  0  0  0  0  0
  123.1985  135.1954   60.1386 H   0  0  0  0  0  0  0  0  0  0  0  0
  123.7561  134.7266   63.1167 H   0  0  0  0  0  0  0  0  0  0  0  0
  123.3291  133.4866   61.8468 H   0  0  0  0  0  0  0  0  0  0  0  0
  127.9013  133.8993   62.0168 H   0  0  0  0  0  0  0  0  0  0  0  0
  129.0605  131.8697   62.8399 H   0  0  0  0  0  0  0  0  0  0  0  0
  129.7155  121.9841   61.7247 H   0  0  0  0  0  0  0  0  0  0  0  0
  130.8624  119.8365   61.2305 H   0  0  0  0  0  0  0  0  0  0  0  0
  1  2  1  0
  2  3  1  0
  3  4  1  0
  4  5  2  0
  4  6  1  0
  6  7  2  0
  7  8  1  0
  8  9  2  0
  9 10  1  0
 10 11  1  0
 11 12  2  0
 11 13  1  0
 13 14  1  0
 14 15  1  0
 15 16  2  0
 16 17  1  0
 17 18  1  0
 18 19  2  0
 19 20  1  0
 20 21  2  0
 21 22  1  0
 22 23  1  0
 23 24  1  0
 24 25  1  0
 25 26  1  0
 26 27  1  0
 21 28  1  0
 28 29  2  0
 17 30  2  0
 30 31  1  0
 31 32  1  0
 32 33  2  0
 33 34  1  0
 34 35  2  0
 35 36  1  0
 36 37  1  0
 37 38  1  0
 38 39  1  0
 39 40  1  0
 40 41  1  0
 35 42  1  0
 42 43  2  0
 31 44  2  0
 44 45  1  0
 45 46  3  0
  9 47  1  0
 47 48  2  0
 48  6  1  0
 44 15  1  0
 29 18  1  0
 43 32  1  0
 27 22  1  0
 41 36  1  0
  1 49  1  0
  1 50  1  0
  1 51  1  0
  2 52  1  0
  2 53  1  0
  7 54  1  0
  8 55  1  0
 10 56  1  0
 13 57  1  0
 13 58  1  0
 19 59  1  0
 20 60  1  0
 23 61  1  0
 23 62  1  0
 24 63  1  0
 24 64  1  0
 26 65  1  0
 26 66  1  0
 27 67  1  0
 27 68  1  0
 28 69  1  0
 29 70  1  0
 30 71  1  0
 33 72  1  0
 34 73  1  0
 37 74  1  0
 37 75  1  0
 38 76  1  0
 38 77  1  0
 40 78  1  0
 40 79  1  0
 41 80  1  0
 41 81  1  0
 42 82  1  0
 43 83  1  0
 47 84  1  0
 48 85  1  0
M  END
>  <Binding energies>  (1) 
[-0.62]

>  <Ligand effiencies>  (1) 
[-0.012653061224489795]

>  <Interactions>  (1) 
["V-B:LEU:475:CD2:9230, V-B:ILE:369:CG2:8208, V-A:TYR:539:CE1:4873, V-B:ILE:369:CD1:8210, V-A:TYR:539:CD1:4871, V-A:ALA:541:CB:4890, V-B:TYR:539:CE1:9847, V-B:TYR:539:C:9839, V-A:ILE:369:CD1:3236, V-A:LEU:475:CD2:4256, V-B:TYR:539:CD1:9845, V-A:GLU:543:CG:4905, H-B:GLU:543:OE1:9881, V-A:ILE:369:CG2:3234, V-B:HIS:456:CE1:9040, V-B:GLU:543:CD:9880, V-B:GLU:543:CG:9879, V-A:HIS:456:CE1:4066, V-A:GLU:543:CD:4906, V-A:GLU:543:CB:4904, V-B:GLU:543:C:9874, V-B:GLY:544:C:9884, V-A:SER:385:CA:3404, V-A:HIS:456:CD2:4065, V-A:LEU:373:CD1:3277, V-B:SER:385:CA:8378, V-B:SER:385:CB:8380, V-B:SER:385:C:8376, V-B:LEU:373:CD1:8251, V-A:PRO:482:CB:4323, V-A:PRO:482:CG:4324, V-B:TYR:539:CB:9843, V-A:GLU:543:C:4900, V-B:HIS:456:CD2:9039, V-B:HIS:456:CG:9037, V-B:GLY:544:CA:9886, V-A:HIS:456:CG:4063, H-B:LYS:547:NZ:9923, H-A:LYS:547:NZ:4949, V-B:LYS:547:CE:9922, H-A:SER:385:N:3405, V-B:VAL:384:C:8368, V-B:VAL:344:CG1:7972, H-B:SER:385:N:8379"]

$$$$
2b_Ghoteimi_2023
     RDKit          3D

 72 77  0  0  0  0  0  0  0  0999 V2000
  130.1960  126.1530   59.2720 N   0  0  0  0  0  0  0  0  0  0  0  0
  130.0520  126.2570   60.4150 C   0  0  0  0  0  0  0  0  0  0  0  0
  129.8740  126.3830   61.8650 C   0  0  0  0  0  0  0  0  0  0  0  0
  130.1630  125.2930   62.7240 C   0  0  0  0  0  0  0  0  0  0  0  0
  130.6600  123.9690   62.2450 C   0  0  0  0  0  0  0  0  0  0  0  0
  132.0030  123.8020   61.9030 C   0  0  0  0  0  0  0  0  0  0  0  0
  132.4710  122.5700   61.4560 C   0  0  0  0  0  0  0  0  0  0  0  0
  131.6040  121.4740   61.3220 C   0  0  0  0  0  0  0  0  0  0  0  0
  132.0520  120.2260   60.8880 N   0  0  0  0  0  0  0  0  0  0  0  0
  133.4750  119.8710   61.0650 C   0  0  0  0  0  0  0  0  0  0  0  0
  133.9110  118.6560   60.2200 C   0  0  0  0  0  0  0  0  0  0  0  0
  133.0700  117.5450   60.4910 O   0  0  0  0  0  0  0  0  0  0  0  0
  131.7140  117.8270   60.1860 C   0  0  0  0  0  0  0  0  0  0  0  0
  131.2200  119.0150   61.0370 C   0  0  0  0  0  0  0  0  0  0  0  0
  130.2570  121.6530   61.6650 C   0  0  0  0  0  0  0  0  0  0  0  0
  129.7890  122.8830   62.1160 C   0  0  0  0  0  0  0  0  0  0  0  0
  129.9820  125.4630   64.1020 C   0  0  0  0  0  0  0  0  0  0  0  0
  129.5550  126.6920   64.6130 C   0  0  0  0  0  0  0  0  0  0  0  0
  129.3740  126.9340   66.0780 C   0  0  0  0  0  0  0  0  0  0  0  0
  129.9040  126.0440   67.0190 C   0  0  0  0  0  0  0  0  0  0  0  0
  129.7530  126.2720   68.3840 C   0  0  0  0  0  0  0  0  0  0  0  0
  129.0560  127.3930   68.8610 C   0  0  0  0  0  0  0  0  0  0  0  0
  128.9230  127.6510   70.2300 N   0  0  0  0  0  0  0  0  0  0  0  0
  127.7650  127.1110   70.9710 C   0  0  0  0  0  0  0  0  0  0  0  0
  127.5410  127.7840   72.3430 C   0  0  0  0  0  0  0  0  0  0  0  0
  128.7250  127.7070   73.1210 O   0  0  0  0  0  0  0  0  0  0  0  0
  129.8070  128.3690   72.4880 C   0  0  0  0  0  0  0  0  0  0  0  0
  130.0990  127.7170   71.1190 C   0  0  0  0  0  0  0  0  0  0  0  0
  128.5340  128.2860   67.9140 C   0  0  0  0  0  0  0  0  0  0  0  0
  128.6870  128.0590   66.5490 C   0  0  0  0  0  0  0  0  0  0  0  0
  129.2790  127.7350   63.7890 N   0  0  0  0  0  0  0  0  0  0  0  0
  129.4150  127.5850   62.4500 C   0  0  0  0  0  0  0  0  0  0  0  0
  129.0070  129.0490   61.5240 S   0  0  0  0  0  0  0  0  0  0  0  0
  127.9920  130.1110   62.5950 C   0  0  0  0  0  0  0  0  0  0  0  0
  126.9060  130.8490   61.8100 C   0  0  0  0  0  0  0  0  0  0  0  0
  126.8190  132.0740   61.9070 O   0  0  0  0  0  0  0  0  0  0  0  0
  126.1030  130.0690   61.0540 N   0  0  0  0  0  0  0  0  0  0  0  0
  125.0550  130.4780   60.2410 C   0  0  0  0  0  0  0  0  0  0  0  0
  123.7950  130.8120   60.7360 C   0  0  0  0  0  0  0  0  0  0  0  0
  123.0560  131.1570   59.6290 C   0  0  0  0  0  0  0  0  0  0  0  0
  123.8310  131.0380   58.5250 O   0  0  0  0  0  0  0  0  0  0  0  0
  125.0980  130.6080   58.9260 N   0  0  0  0  0  0  0  0  0  0  0  0
  132.6971  124.6512   61.9875 H   0  0  0  0  0  0  0  0  0  0  0  0
  133.5354  122.4533   61.2041 H   0  0  0  0  0  0  0  0  0  0  0  0
  134.0893  120.7363   60.7752 H   0  0  0  0  0  0  0  0  0  0  0  0
  133.6138  119.5993   62.1218 H   0  0  0  0  0  0  0  0  0  0  0  0
  133.8424  118.9121   59.1524 H   0  0  0  0  0  0  0  0  0  0  0  0
  134.9479  118.3931   60.4765 H   0  0  0  0  0  0  0  0  0  0  0  0
  131.6253  118.0807   59.1193 H   0  0  0  0  0  0  0  0  0  0  0  0
  131.1009  116.9416   60.4101 H   0  0  0  0  0  0  0  0  0  0  0  0
  130.1913  119.2585   60.7328 H   0  0  0  0  0  0  0  0  0  0  0  0
  131.2785  118.7071   62.0914 H   0  0  0  0  0  0  0  0  0  0  0  0
  129.5588  120.8076   61.5762 H   0  0  0  0  0  0  0  0  0  0  0  0
  128.7261  123.0020   62.3729 H   0  0  0  0  0  0  0  0  0  0  0  0
  130.1770  124.6243   64.7866 H   0  0  0  0  0  0  0  0  0  0  0  0
  130.4476  125.1516   66.6752 H   0  0  0  0  0  0  0  0  0  0  0  0
  130.1878  125.5608   69.1017 H   0  0  0  0  0  0  0  0  0  0  0  0
  126.8621  127.2576   70.3601 H   0  0  0  0  0  0  0  0  0  0  0  0
  127.9719  126.0478   71.1629 H   0  0  0  0  0  0  0  0  0  0  0  0
  127.2730  128.8400   72.1912 H   0  0  0  0  0  0  0  0  0  0  0  0
  126.7278  127.2646   72.8712 H   0  0  0  0  0  0  0  0  0  0  0  0
  129.5490  129.4279   72.3392 H   0  0  0  0  0  0  0  0  0  0  0  0
  130.7009  128.2878   73.1239 H   0  0  0  0  0  0  0  0  0  0  0  0
  130.8824  128.3026   70.6156 H   0  0  0  0  0  0  0  0  0  0  0  0
  130.4109  126.6808   71.3166 H   0  0  0  0  0  0  0  0  0  0  0  0
  127.9942  129.1815   68.2557 H   0  0  0  0  0  0  0  0  0  0  0  0
  128.2616  128.7744   65.8298 H   0  0  0  0  0  0  0  0  0  0  0  0
  127.5122  129.4858   63.3624 H   0  0  0  0  0  0  0  0  0  0  0  0
  128.6525  130.8640   63.0497 H   0  0  0  0  0  0  0  0  0  0  0  0
  126.2910  129.0770   61.0510 H   0  0  0  0  0  0  0  0  0  0  0  0
  123.4639  130.8017   61.7849 H   0  0  0  0  0  0  0  0  0  0  0  0
  122.0040  131.4782   59.6387 H   0  0  0  0  0  0  0  0  0  0  0  0
  1  2  3  0
  2  3  1  0
  3  4  2  0
  4  5  1  0
  5  6  2  0
  6  7  1  0
  7  8  2  0
  8  9  1  0
  9 10  1  0
 10 11  1  0
 11 12  1  0
 12 13  1  0
 13 14  1  0
  8 15  1  0
 15 16  2  0
  4 17  1  0
 17 18  2  0
 18 19  1  0
 19 20  2  0
 20 21  1  0
 21 22  2  0
 22 23  1  0
 23 24  1  0
 24 25  1  0
 25 26  1  0
 26 27  1  0
 27 28  1  0
 22 29  1  0
 29 30  2  0
 18 31  1  0
 31 32  2  0
 32 33  1  0
 33 34  1  0
 34 35  1  0
 35 36  2  0
 35 37  1  0
 37 38  1  0
 38 39  1  0
 39 40  2  0
 40 41  1  0
 41 42  1  0
 32  3  1  0
 42 38  2  0
 16  5  1  0
 30 19  1  0
 14  9  1  0
 28 23  1  0
  6 43  1  0
  7 44  1  0
 10 45  1  0
 10 46  1  0
 11 47  1  0
 11 48  1  0
 13 49  1  0
 13 50  1  0
 14 51  1  0
 14 52  1  0
 15 53  1  0
 16 54  1  0
 17 55  1  0
 20 56  1  0
 21 57  1  0
 24 58  1  0
 24 59  1  0
 25 60  1  0
 25 61  1  0
 27 62  1  0
 27 63  1  0
 28 64  1  0
 28 65  1  0
 29 66  1  0
 30 67  1  0
 34 68  1  0
 34 69  1  0
 37 70  1  0
 39 71  1  0
 40 72  1  0
M  END
>  <Binding energies>  (1) 
[-2.6]

>  <Ligand effiencies>  (1) 
[-0.06046511627906977]

>  <Interactions>  (1) 
["V-B:ASP:366:CB:8183, H-A:TYR:539:OH:4876, V-B:ILE:369:CG2:8208, V-B:ILE:369:CD1:8210, V-B:ASP:366:CG:8184, V-B:TYR:539:CE1:9847, V-A:LEU:475:CD2:4256, V-B:TYR:539:CD1:9845, V-A:GLU:543:CG:4905, V-A:ILE:369:CG2:3234, V-B:HIS:456:CE1:9040, V-B:GLU:543:CD:9880, V-B:GLU:543:CB:9878, V-B:GLU:543:CG:9879, V-A:HIS:456:CE1:4066, V-A:GLU:543:CD:4906, V-B:ILE:369:CG1:8209, V-B:ILE:369:CB:8207, V-A:GLU:543:CB:4904, V-B:GLU:543:C:9874, V-B:ASP:366:CA:8181, V-B:GLY:544:C:9884, V-A:SER:385:CA:3404, V-A:SER:385:C:3402, V-B:ALA:541:CB:9864, V-B:TYR:539:CG:9844, V-A:GLY:544:C:4910, H-B:ASP:366:OD1:8185, V-A:SER:385:CB:3406, V-A:LEU:373:CD1:3277, V-A:VAL:384:C:3394, V-B:ASP:366:C:8179, V-B:TYR:539:CB:9843, V-A:GLY:544:CA:4912, V-A:GLU:543:C:4900, V-B:HIS:456:CD2:9039, V-B:HIS:456:CG:9037, V-A:LYS:547:CE:4948, V-B:GLY:544:CA:9886"]

$$$$
2b_Grossjean_2025
     RDKit          3D

 42 43  0  0  0  0  0  0  0  0999 V2000
  127.5860  130.2870   74.5860 C   0  0  0  0  0  0  0  0  0  0  0  0
  128.6110  129.6770   73.8130 O   0  0  0  0  0  0  0  0  0  0  0  0
  128.6820  128.3280   73.6880 C   0  0  0  0  0  0  0  0  0  0  0  0
  128.6390  127.5520   74.6480 O   0  0  0  0  0  0  0  0  0  0  0  0
  128.8230  127.8710   72.2640 C   0  0  0  0  0  0  0  0  0  0  0  0
  130.0610  127.8730   71.6040 C   0  0  0  0  0  0  0  0  0  0  0  0
  130.1570  127.4450   70.2820 C   0  0  0  0  0  0  0  0  0  0  0  0
  129.0250  127.0020   69.5980 C   0  0  0  0  0  0  0  0  0  0  0  0
  129.2340  126.5980   68.2660 N   0  0  0  0  0  0  0  0  0  0  0  0
  130.3010  126.7950   67.4620 C   0  0  0  0  0  0  0  0  0  0  0  0
  131.3180  127.4200   67.7680 O   0  0  0  0  0  0  0  0  0  0  0  0
  130.1830  126.1900   66.0600 C   0  0  0  0  0  0  0  0  0  0  0  0
  130.4970  124.3950   66.0250 S   0  0  0  0  0  0  0  0  0  0  0  0
  130.9620  123.8890   64.3740 C   0  0  0  0  0  0  0  0  0  0  0  0
  130.0170  123.2080   63.6780 N   0  0  0  0  0  0  0  0  0  0  0  0
  130.3020  122.7900   62.4250 C   0  0  0  0  0  0  0  0  0  0  0  0
  129.1980  122.0260   61.7200 C   0  0  0  0  0  0  0  0  0  0  0  0
  131.5270  123.0360   61.8120 C   0  0  0  0  0  0  0  0  0  0  0  0
  132.5180  123.7440   62.5100 C   0  0  0  0  0  0  0  0  0  0  0  0
  133.8660  124.0120   61.8160 C   0  0  0  0  0  0  0  0  0  0  0  0
  134.7330  123.0420   62.1130 F   0  0  0  0  0  0  0  0  0  0  0  0
  133.7010  124.0530   60.4920 F   0  0  0  0  0  0  0  0  0  0  0  0
  134.4170  125.1700   62.1860 F   0  0  0  0  0  0  0  0  0  0  0  0
  132.2340  124.1830   63.8290 C   0  0  0  0  0  0  0  0  0  0  0  0
  133.2330  124.9220   64.6060 C   0  0  0  0  0  0  0  0  0  0  0  0
  134.0220  125.5050   65.2200 N   0  0  0  0  0  0  0  0  0  0  0  0
  127.7830  127.0040   70.2490 C   0  0  0  0  0  0  0  0  0  0  0  0
  127.6880  127.4330   71.5690 C   0  0  0  0  0  0  0  0  0  0  0  0
  127.8063  130.1559   75.6557 H   0  0  0  0  0  0  0  0  0  0  0  0
  127.5386  131.3604   74.3503 H   0  0  0  0  0  0  0  0  0  0  0  0
  126.6199  129.8168   74.3503 H   0  0  0  0  0  0  0  0  0  0  0  0
  130.9621  128.2149   72.1342 H   0  0  0  0  0  0  0  0  0  0  0  0
  131.1325  127.4564   69.7738 H   0  0  0  0  0  0  0  0  0  0  0  0
  128.4430  126.1330   67.8460 H   0  0  0  0  0  0  0  0  0  0  0  0
  129.1659  126.3746   65.6839 H   0  0  0  0  0  0  0  0  0  0  0  0
  130.9486  126.6685   65.4316 H   0  0  0  0  0  0  0  0  0  0  0  0
  128.5346  121.5669   62.4677 H   0  0  0  0  0  0  0  0  0  0  0  0
  128.6182  122.7170   61.0904 H   0  0  0  0  0  0  0  0  0  0  0  0
  129.6404  121.2399   61.0904 H   0  0  0  0  0  0  0  0  0  0  0  0
  131.7171  122.6787   60.7892 H   0  0  0  0  0  0  0  0  0  0  0  0
  126.8826  126.6659   69.7152 H   0  0  0  0  0  0  0  0  0  0  0  0
  126.7103  127.4283   72.0730 H   0  0  0  0  0  0  0  0  0  0  0  0
  1  2  1  0
  2  3  1  0
  3  4  2  0
  3  5  1  0
  5  6  2  0
  6  7  1  0
  7  8  2  0
  8  9  1  0
  9 10  1  0
 10 11  2  0
 10 12  1  0
 12 13  1  0
 13 14  1  0
 14 15  2  0
 15 16  1  0
 16 17  1  0
 16 18  2  0
 18 19  1  0
 19 20  1  0
 20 21  1  0
 20 22  1  0
 20 23  1  0
 19 24  2  0
 24 25  1  0
 25 26  3  0
  8 27  1  0
 27 28  2  0
 28  5  1  0
 24 14  1  0
  1 29  1  0
  1 30  1  0
  1 31  1  0
  6 32  1  0
  7 33  1  0
  9 34  1  0
 12 35  1  0
 12 36  1  0
 17 37  1  0
 17 38  1  0
 17 39  1  0
 18 40  1  0
 27 41  1  0
 28 42  1  0
M  END
>  <Binding energies>  (1) 
[-6.59]

>  <Ligand effiencies>  (1) 
[-0.22724137931034483]

>  <Interactions>  (1) 
["V-A:ILE:369:CD1:3236, V-A:GLY:453:C:4039, V-A:GLY:454:CA:4046, V-A:GLU:543:CG:4905, V-A:ASP:366:CG:3210, V-B:HIS:456:CE1:9040, H-B:GLU:543:OE2:9882, V-B:GLU:543:CD:9880, V-B:GLU:543:CB:9878, V-B:GLU:543:CG:9879, V-A:HIS:456:CE1:4066, V-A:GLU:543:CD:4906, V-B:GLU:543:C:9874, V-B:GLY:544:C:9884, V-A:ARG:545:CZ:4924, H-A:GLY:454:N:4047, V-B:ALA:541:CB:9864, V-B:ALA:541:CA:9862, V-A:HIS:456:CD2:4065, H-A:ARG:545:NH1:4925, V-A:GLY:453:CA:4041, V-A:GLY:544:C:4910, H-A:TYR:484:OH:4345, H-A:ARG:545:NE:4922, V-A:GLY:544:CA:4912, V-A:GLU:543:C:4900, V-B:HIS:456:CD2:9039, V-B:HIS:456:CG:9037, V-A:LYS:547:CE:4948, V-B:GLY:544:CA:9886, H-B:LYS:547:NZ:9923, H-A:LYS:547:NZ:4949, V-B:HIS:456:CB:9036, H-B:GLU:543:O:9875"]

$$$$
2c_Ghoteimi_2023
     RDKit          3D

 72 77  0  0  0  0  0  0  0  0999 V2000
  130.7670  125.0260   60.3580 N   0  0  0  0  0  0  0  0  0  0  0  0
  130.6520  125.3290   61.4680 C   0  0  0  0  0  0  0  0  0  0  0  0
  130.5010  125.7170   62.8740 C   0  0  0  0  0  0  0  0  0  0  0  0
  129.4920  126.6310   63.2660 C   0  0  0  0  0  0  0  0  0  0  0  0
  128.5280  127.2640   62.3160 C   0  0  0  0  0  0  0  0  0  0  0  0
  127.8150  126.4760   61.4100 C   0  0  0  0  0  0  0  0  0  0  0  0
  126.9120  127.0570   60.5240 C   0  0  0  0  0  0  0  0  0  0  0  0
  126.7060  128.4450   60.5100 C   0  0  0  0  0  0  0  0  0  0  0  0
  125.7900  129.0470   59.6440 N   0  0  0  0  0  0  0  0  0  0  0  0
  125.0190  130.2180   60.1080 C   0  0  0  0  0  0  0  0  0  0  0  0
  123.7960  130.5330   59.2220 C   0  0  0  0  0  0  0  0  0  0  0  0
  124.2030  130.6970   57.8720 O   0  0  0  0  0  0  0  0  0  0  0  0
  124.8200  129.5250   57.3640 C   0  0  0  0  0  0  0  0  0  0  0  0
  126.0700  129.1830   58.2020 C   0  0  0  0  0  0  0  0  0  0  0  0
  127.4290  129.2290   61.4210 C   0  0  0  0  0  0  0  0  0  0  0  0
  128.3310  128.6470   62.3070 C   0  0  0  0  0  0  0  0  0  0  0  0
  129.3860  126.9670   64.6210 C   0  0  0  0  0  0  0  0  0  0  0  0
  130.2420  126.3880   65.5630 C   0  0  0  0  0  0  0  0  0  0  0  0
  130.1590  126.6990   67.0230 C   0  0  0  0  0  0  0  0  0  0  0  0
  131.1800  127.4100   67.6610 C   0  0  0  0  0  0  0  0  0  0  0  0
  131.1050  127.7080   69.0200 C   0  0  0  0  0  0  0  0  0  0  0  0
  130.0090  127.2960   69.7940 C   0  0  0  0  0  0  0  0  0  0  0  0
  129.9070  127.6080   71.1530 N   0  0  0  0  0  0  0  0  0  0  0  0
  128.6450  128.1600   71.6880 C   0  0  0  0  0  0  0  0  0  0  0  0
  128.7930  128.8080   73.0810 C   0  0  0  0  0  0  0  0  0  0  0  0
  129.3630  127.8810   73.9900 O   0  0  0  0  0  0  0  0  0  0  0  0
  130.6520  127.4650   73.5670 C   0  0  0  0  0  0  0  0  0  0  0  0
  130.5620  126.7810   72.1870 C   0  0  0  0  0  0  0  0  0  0  0  0
  128.9820  126.5950   69.1470 C   0  0  0  0  0  0  0  0  0  0  0  0
  129.0570  126.2980   67.7880 C   0  0  0  0  0  0  0  0  0  0  0  0
  131.2060  125.5100   65.1860 N   0  0  0  0  0  0  0  0  0  0  0  0
  131.3490  125.1940   63.8760 C   0  0  0  0  0  0  0  0  0  0  0  0
  132.6660  124.0410   63.5620 S   0  0  0  0  0  0  0  0  0  0  0  0
  132.3950  123.3420   61.9050 C   0  0  0  0  0  0  0  0  0  0  0  0
  132.7030  121.8450   61.8560 C   0  0  0  0  0  0  0  0  0  0  0  0
  133.5860  121.3850   62.5830 O   0  0  0  0  0  0  0  0  0  0  0  0
  131.9600  121.1250   60.9880 N   0  0  0  0  0  0  0  0  0  0  0  0
  132.0320  119.7580   60.7690 C   0  0  0  0  0  0  0  0  0  0  0  0
  131.0390  118.9010   60.6730 N   0  0  0  0  0  0  0  0  0  0  0  0
  131.4740  117.6760   60.4560 C   0  0  0  0  0  0  0  0  0  0  0  0
  132.8540  117.5190   60.3730 C   0  0  0  0  0  0  0  0  0  0  0  0
  133.6130  119.0670   60.5920 S   0  0  0  0  0  0  0  0  0  0  0  0
  127.9682  125.3868   61.3963 H   0  0  0  0  0  0  0  0  0  0  0  0
  126.3518  126.4188   59.8248 H   0  0  0  0  0  0  0  0  0  0  0  0
  124.6673  130.0213   61.1315 H   0  0  0  0  0  0  0  0  0  0  0  0
  125.6890  131.0891   60.0604 H   0  0  0  0  0  0  0  0  0  0  0  0
  123.0760  129.7040   59.2871 H   0  0  0  0  0  0  0  0  0  0  0  0
  123.3265  131.4638   59.5729 H   0  0  0  0  0  0  0  0  0  0  0  0
  124.1081  128.6878   57.4128 H   0  0  0  0  0  0  0  0  0  0  0  0
  125.1205  129.6978   56.3200 H   0  0  0  0  0  0  0  0  0  0  0  0
  126.4854  128.2323   57.8364 H   0  0  0  0  0  0  0  0  0  0  0  0
  126.7768  130.0178   58.0860 H   0  0  0  0  0  0  0  0  0  0  0  0
  127.2811  130.3189   61.4355 H   0  0  0  0  0  0  0  0  0  0  0  0
  128.8941  129.2821   63.0068 H   0  0  0  0  0  0  0  0  0  0  0  0
  128.6246  127.6910   64.9466 H   0  0  0  0  0  0  0  0  0  0  0  0
  132.0552  127.7389   67.0815 H   0  0  0  0  0  0  0  0  0  0  0  0
  131.9188  128.2760   69.4945 H   0  0  0  0  0  0  0  0  0  0  0  0
  128.2751  128.9231   70.9874 H   0  0  0  0  0  0  0  0  0  0  0  0
  127.9464  127.3175   71.7978 H   0  0  0  0  0  0  0  0  0  0  0  0
  129.4449  129.6907   73.0045 H   0  0  0  0  0  0  0  0  0  0  0  0
  127.7998  129.1076   73.4468 H   0  0  0  0  0  0  0  0  0  0  0  0
  131.3122  128.3419   73.4960 H   0  0  0  0  0  0  0  0  0  0  0  0
  131.0572  126.7496   74.2977 H   0  0  0  0  0  0  0  0  0  0  0  0
  131.5822  126.5468   71.8488 H   0  0  0  0  0  0  0  0  0  0  0  0
  129.9438  125.8803   72.3157 H   0  0  0  0  0  0  0  0  0  0  0  0
  128.1013  126.2737   69.7225 H   0  0  0  0  0  0  0  0  0  0  0  0
  128.2387  125.7404   67.3090 H   0  0  0  0  0  0  0  0  0  0  0  0
  131.3435  123.4974   61.6219 H   0  0  0  0  0  0  0  0  0  0  0  0
  133.0753  123.8513   61.2066 H   0  0  0  0  0  0  0  0  0  0  0  0
  131.2580  121.6180   60.4540 H   0  0  0  0  0  0  0  0  0  0  0  0
  130.7849  116.8256   60.3467 H   0  0  0  0  0  0  0  0  0  0  0  0
  133.3796  116.5688   60.1972 H   0  0  0  0  0  0  0  0  0  0  0  0
  1  2  3  0
  2  3  1  0
  3  4  2  0
  4  5  1  0
  5  6  2  0
  6  7  1  0
  7  8  2  0
  8  9  1  0
  9 10  1  0
 10 11  1  0
 11 12  1  0
 12 13  1  0
 13 14  1  0
  8 15  1  0
 15 16  2  0
  4 17  1  0
 17 18  2  0
 18 19  1  0
 19 20  2  0
 20 21  1  0
 21 22  2  0
 22 23  1  0
 23 24  1  0
 24 25  1  0
 25 26  1  0
 26 27  1  0
 27 28  1  0
 22 29  1  0
 29 30  2  0
 18 31  1  0
 31 32  2  0
 32 33  1  0
 33 34  1  0
 34 35  1  0
 35 36  2  0
 35 37  1  0
 37 38  1  0
 38 39  2  0
 39 40  1  0
 40 41  2  0
 41 42  1  0
 32  3  1  0
 42 38  1  0
 16  5  1  0
 30 19  1  0
 14  9  1  0
 28 23  1  0
  6 43  1  0
  7 44  1  0
 10 45  1  0
 10 46  1  0
 11 47  1  0
 11 48  1  0
 13 49  1  0
 13 50  1  0
 14 51  1  0
 14 52  1  0
 15 53  1  0
 16 54  1  0
 17 55  1  0
 20 56  1  0
 21 57  1  0
 24 58  1  0
 24 59  1  0
 25 60  1  0
 25 61  1  0
 27 62  1  0
 27 63  1  0
 28 64  1  0
 28 65  1  0
 29 66  1  0
 30 67  1  0
 34 68  1  0
 34 69  1  0
 37 70  1  0
 40 71  1  0
 41 72  1  0
M  END
>  <Binding energies>  (1) 
[-4.0]

>  <Ligand effiencies>  (1) 
[-0.09302325581395349]

>  <Interactions>  (1) 
["V-B:ASP:366:CB:8183, H-A:TYR:539:OH:4876, V-B:ILE:369:CG2:8208, V-B:ASP:366:CG:8184, V-B:TYR:539:CE1:9847, V-A:LEU:475:CD2:4256, V-B:TYR:539:CD1:9845, V-A:GLU:543:CG:4905, V-A:ILE:369:CG2:3234, V-B:HIS:456:CE1:9040, V-B:GLU:543:CD:9880, V-B:GLU:543:CB:9878, V-B:GLU:543:CG:9879, V-A:HIS:456:CE1:4066, V-A:GLU:543:CD:4906, V-B:ILE:369:CB:8207, V-B:GLU:543:C:9874, V-B:ASP:366:CA:8181, V-A:ARG:545:CG:4920, V-A:SER:385:CA:3404, H-A:GLY:454:N:4047, V-A:SER:385:C:3402, V-B:TYR:531:CZ:9766, V-A:HIS:456:CD2:4065, V-A:GLY:544:C:4910, H-A:TYR:484:OH:4345, V-A:SER:385:CB:3406, V-A:LEU:373:CD1:3277, V-A:PRO:482:CG:4324, V-B:ASP:366:C:8179, V-A:GLU:543:C:4900, V-B:HIS:456:CD2:9039, V-B:HIS:456:CG:9037, V-A:LYS:547:CE:4948, V-A:HIS:456:CG:4063, H-B:LYS:547:NZ:9923, H-A:LYS:547:NZ:4949, V-B:TYR:531:CE1:9764"]

$$$$
2c_Grossjean_2025
     RDKit          3D

 40 41  0  0  0  0  0  0  0  0999 V2000
  131.4380  126.0010   75.0650 C   0  0  0  0  0  0  0  0  0  0  0  0
  130.2210  126.6830   74.7810 O   0  0  0  0  0  0  0  0  0  0  0  0
  129.8320  126.8470   73.4650 C   0  0  0  0  0  0  0  0  0  0  0  0
  130.8320  127.1980   72.5600 C   0  0  0  0  0  0  0  0  0  0  0  0
  130.5370  127.3870   71.2120 C   0  0  0  0  0  0  0  0  0  0  0  0
  129.2200  127.2340   70.7560 C   0  0  0  0  0  0  0  0  0  0  0  0
  128.8290  127.3850   69.4130 N   0  0  0  0  0  0  0  0  0  0  0  0
  129.5750  127.7750   68.3570 C   0  0  0  0  0  0  0  0  0  0  0  0
  130.7550  128.1240   68.4240 O   0  0  0  0  0  0  0  0  0  0  0  0
  128.8320  127.7980   67.0130 C   0  0  0  0  0  0  0  0  0  0  0  0
  127.3170  128.8200   66.9710 S   0  0  0  0  0  0  0  0  0  0  0  0
  126.9080  129.2070   65.2730 C   0  0  0  0  0  0  0  0  0  0  0  0
  127.9120  129.0390   64.3740 N   0  0  0  0  0  0  0  0  0  0  0  0
  127.6780  129.3210   63.0740 C   0  0  0  0  0  0  0  0  0  0  0  0
  128.8530  129.1240   62.1360 C   0  0  0  0  0  0  0  0  0  0  0  0
  126.4430  129.7710   62.6140 C   0  0  0  0  0  0  0  0  0  0  0  0
  125.3900  129.9450   63.5230 C   0  0  0  0  0  0  0  0  0  0  0  0
  124.0280  130.4420   62.9980 C   0  0  0  0  0  0  0  0  0  0  0  0
  124.0260  130.4400   61.6640 F   0  0  0  0  0  0  0  0  0  0  0  0
  123.0510  129.6460   63.4340 F   0  0  0  0  0  0  0  0  0  0  0  0
  123.7440  131.6830   63.3980 F   0  0  0  0  0  0  0  0  0  0  0  0
  125.6230  129.6570   64.8920 C   0  0  0  0  0  0  0  0  0  0  0  0
  124.5580  129.8230   65.8870 C   0  0  0  0  0  0  0  0  0  0  0  0
  123.7180  129.9540   66.6720 N   0  0  0  0  0  0  0  0  0  0  0  0
  128.2180  126.8660   71.6560 C   0  0  0  0  0  0  0  0  0  0  0  0
  128.5170  126.6780   73.0020 C   0  0  0  0  0  0  0  0  0  0  0  0
  131.5710  125.9265   76.1544 H   0  0  0  0  0  0  0  0  0  0  0  0
  131.4026  124.9913   74.6300 H   0  0  0  0  0  0  0  0  0  0  0  0
  132.2807  126.5583   74.6300 H   0  0  0  0  0  0  0  0  0  0  0  0
  131.8654  127.3272   72.9141 H   0  0  0  0  0  0  0  0  0  0  0  0
  131.3364  127.6560   70.5059 H   0  0  0  0  0  0  0  0  0  0  0  0
  127.8450  127.2400   69.2410 H   0  0  0  0  0  0  0  0  0  0  0  0
  129.5233  128.1847   66.2498 H   0  0  0  0  0  0  0  0  0  0  0  0
  128.5047  126.7638   66.8303 H   0  0  0  0  0  0  0  0  0  0  0  0
  129.7698  128.9703   62.7240 H   0  0  0  0  0  0  0  0  0  0  0  0
  128.6723  128.2436   61.5018 H   0  0  0  0  0  0  0  0  0  0  0  0
  128.9693  130.0152   61.5018 H   0  0  0  0  0  0  0  0  0  0  0  0
  126.2949  129.9882   61.5459 H   0  0  0  0  0  0  0  0  0  0  0  0
  127.1872  126.7240   71.2993 H   0  0  0  0  0  0  0  0  0  0  0  0
  127.7203  126.3959   73.7060 H   0  0  0  0  0  0  0  0  0  0  0  0
  1  2  1  0
  2  3  1  0
  3  4  2  0
  4  5  1  0
  5  6  2  0
  6  7  1  0
  7  8  1  0
  8  9  2  0
  8 10  1  0
 10 11  1  0
 11 12  1  0
 12 13  2  0
 13 14  1  0
 14 15  1  0
 14 16  2  0
 16 17  1  0
 17 18  1  0
 18 19  1  0
 18 20  1  0
 18 21  1  0
 17 22  2  0
 22 23  1  0
 23 24  3  0
  6 25  1  0
 25 26  2  0
 26  3  1  0
 22 12  1  0
  1 27  1  0
  1 28  1  0
  1 29  1  0
  4 30  1  0
  5 31  1  0
  7 32  1  0
 10 33  1  0
 10 34  1  0
 15 35  1  0
 15 36  1  0
 15 37  1  0
 16 38  1  0
 25 39  1  0
 26 40  1  0
M  END
>  <Binding energies>  (1) 
[-6.3]

>  <Ligand effiencies>  (1) 
[-0.23333333333333334]

>  <Interactions>  (1) 
["V-B:GLY:454:CA:9020, V-B:GLY:453:C:9013, V-B:ILE:369:CD1:8210, V-B:ASP:366:CG:8184, V-A:GLU:543:CG:4905, V-B:GLY:453:CA:9015, V-B:HIS:456:CE1:9040, V-B:GLU:543:CD:9880, V-B:GLU:543:CG:9879, V-A:HIS:456:CE1:4066, H-B:GLY:454:N:9021, V-A:GLU:543:CD:4906, V-A:GLU:543:CB:4904, V-B:GLU:543:C:9874, V-B:ARG:545:CZ:9898, V-B:ARG:545:CG:9894, V-B:GLY:544:C:9884, V-A:HIS:456:CD2:4065, H-B:ARG:545:NE:9896, V-B:ARG:545:CD:9895, V-A:GLY:544:C:4910, H-B:TYR:484:OH:9319, V-A:GLY:544:CA:4912, V-A:LYS:547:CE:4948, V-B:GLY:544:CA:9886, V-A:HIS:456:CG:4063, H-B:LYS:547:NZ:9923, H-A:LYS:547:NZ:4949, V-B:LYS:547:CE:9922, H-B:ILE:455:N:9026, H-B:GLU:543:O:9875"]

$$$$
2d_Ghoteimi_2023
     RDKit          3D

 68 72  0  0  0  0  0  0  0  0999 V2000
  130.6750  120.9470   61.2610 C   0  0  0  0  0  0  0  0  0  0  0  0
  131.2430  122.2080   61.5820 O   0  0  0  0  0  0  0  0  0  0  0  0
  132.4680  122.5440   61.1270 C   0  0  0  0  0  0  0  0  0  0  0  0
  133.0930  121.9490   60.2440 O   0  0  0  0  0  0  0  0  0  0  0  0
  133.0080  123.7890   61.8470 C   0  0  0  0  0  0  0  0  0  0  0  0
  132.5750  123.7670   63.6200 S   0  0  0  0  0  0  0  0  0  0  0  0
  131.2910  124.9700   63.8980 C   0  0  0  0  0  0  0  0  0  0  0  0
  131.1830  125.3470   65.1960 N   0  0  0  0  0  0  0  0  0  0  0  0
  130.2400  126.2550   65.5550 C   0  0  0  0  0  0  0  0  0  0  0  0
  130.1690  126.6070   67.0050 C   0  0  0  0  0  0  0  0  0  0  0  0
  131.2070  127.3180   67.6180 C   0  0  0  0  0  0  0  0  0  0  0  0
  131.1470  127.6500   68.9690 C   0  0  0  0  0  0  0  0  0  0  0  0
  130.0400  127.2920   69.7540 C   0  0  0  0  0  0  0  0  0  0  0  0
  129.9720  127.6020   71.1170 N   0  0  0  0  0  0  0  0  0  0  0  0
  128.8170  128.3220   71.6890 C   0  0  0  0  0  0  0  0  0  0  0  0
  129.0810  128.8960   73.0960 C   0  0  0  0  0  0  0  0  0  0  0  0
  129.5130  127.8630   73.9670 O   0  0  0  0  0  0  0  0  0  0  0  0
  130.7150  127.2650   73.5100 C   0  0  0  0  0  0  0  0  0  0  0  0
  130.5020  126.6470   72.1110 C   0  0  0  0  0  0  0  0  0  0  0  0
  129.0090  126.5690   69.1390 C   0  0  0  0  0  0  0  0  0  0  0  0
  129.0700  126.2350   67.7890 C   0  0  0  0  0  0  0  0  0  0  0  0
  129.3800  126.8130   64.6060 C   0  0  0  0  0  0  0  0  0  0  0  0
  129.4930  126.4670   63.2540 C   0  0  0  0  0  0  0  0  0  0  0  0
  128.5580  127.1240   62.2920 C   0  0  0  0  0  0  0  0  0  0  0  0
  127.4860  126.4100   61.7550 C   0  0  0  0  0  0  0  0  0  0  0  0
  126.6020  127.0170   60.8680 C   0  0  0  0  0  0  0  0  0  0  0  0
  126.7680  128.3590   60.4900 C   0  0  0  0  0  0  0  0  0  0  0  0
  125.8850  128.9930   59.6100 N   0  0  0  0  0  0  0  0  0  0  0  0
  126.1800  129.0990   58.1680 C   0  0  0  0  0  0  0  0  0  0  0  0
  124.9540  129.4970   57.3180 C   0  0  0  0  0  0  0  0  0  0  0  0
  124.3910  130.7030   57.8110 O   0  0  0  0  0  0  0  0  0  0  0  0
  123.9680  130.5710   59.1590 C   0  0  0  0  0  0  0  0  0  0  0  0
  125.1690  130.2040   60.0570 C   0  0  0  0  0  0  0  0  0  0  0  0
  127.8360  129.0740   61.0480 C   0  0  0  0  0  0  0  0  0  0  0  0
  128.7190  128.4670   61.9360 C   0  0  0  0  0  0  0  0  0  0  0  0
  130.4800  125.5210   62.8800 C   0  0  0  0  0  0  0  0  0  0  0  0
  130.6500  125.1410   61.4740 C   0  0  0  0  0  0  0  0  0  0  0  0
  130.7810  124.8430   60.3630 N   0  0  0  0  0  0  0  0  0  0  0  0
  130.4320  120.4076   62.1883 H   0  0  0  0  0  0  0  0  0  0  0  0
  129.7576  121.0971   60.6730 H   0  0  0  0  0  0  0  0  0  0  0  0
  131.3954  120.3594   60.6730 H   0  0  0  0  0  0  0  0  0  0  0  0
  134.1030  123.8153   61.7455 H   0  0  0  0  0  0  0  0  0  0  0  0
  132.5541  124.6802   61.3890 H   0  0  0  0  0  0  0  0  0  0  0  0
  132.0827  127.6188   67.0241 H   0  0  0  0  0  0  0  0  0  0  0  0
  131.9805  128.2016   69.4283 H   0  0  0  0  0  0  0  0  0  0  0  0
  128.5585  129.1538   71.0172 H   0  0  0  0  0  0  0  0  0  0  0  0
  127.9992  127.5929   71.7868 H   0  0  0  0  0  0  0  0  0  0  0  0
  129.8603  129.6698   73.0336 H   0  0  0  0  0  0  0  0  0  0  0  0
  128.1513  129.3343   73.4880 H   0  0  0  0  0  0  0  0  0  0  0  0
  131.5034  128.0300   73.4535 H   0  0  0  0  0  0  0  0  0  0  0  0
  131.0122  126.4722   74.2122 H   0  0  0  0  0  0  0  0  0  0  0  0
  131.4684  126.2675   71.7477 H   0  0  0  0  0  0  0  0  0  0  0  0
  129.7537  125.8484   72.2218 H   0  0  0  0  0  0  0  0  0  0  0  0
  128.1364  126.2601   69.7333 H   0  0  0  0  0  0  0  0  0  0  0  0
  128.2436  125.6711   67.3318 H   0  0  0  0  0  0  0  0  0  0  0  0
  128.6082  127.5297   64.9233 H   0  0  0  0  0  0  0  0  0  0  0  0
  127.3382  125.3567   62.0357 H   0  0  0  0  0  0  0  0  0  0  0  0
  125.7619  126.4376   60.4575 H   0  0  0  0  0  0  0  0  0  0  0  0
  126.9630  129.8587   58.0274 H   0  0  0  0  0  0  0  0  0  0  0  0
  126.5005  128.1030   57.8285 H   0  0  0  0  0  0  0  0  0  0  0  0
  125.2667  129.6416   56.2733 H   0  0  0  0  0  0  0  0  0  0  0  0
  124.2006  128.6975   57.3753 H   0  0  0  0  0  0  0  0  0  0  0  0
  123.5361  131.5235   59.5000 H   0  0  0  0  0  0  0  0  0  0  0  0
  123.2127  129.7739   59.2235 H   0  0  0  0  0  0  0  0  0  0  0  0
  125.8755  131.0472   60.0567 H   0  0  0  0  0  0  0  0  0  0  0  0
  124.7723  129.9953   61.0615 H   0  0  0  0  0  0  0  0  0  0  0  0
  127.9787  130.1313   60.7801 H   0  0  0  0  0  0  0  0  0  0  0  0
  129.5504  129.0482   62.3614 H   0  0  0  0  0  0  0  0  0  0  0  0
  1  2  1  0
  2  3  1  0
  3  4  2  0
  3  5  1  0
  5  6  1  0
  6  7  1  0
  7  8  2  0
  8  9  1  0
  9 10  1  0
 10 11  2  0
 11 12  1  0
 12 13  2  0
 13 14  1  0
 14 15  1  0
 15 16  1  0
 16 17  1  0
 17 18  1  0
 18 19  1  0
 13 20  1  0
 20 21  2  0
  9 22  2  0
 22 23  1  0
 23 24  1  0
 24 25  2  0
 25 26  1  0
 26 27  2  0
 27 28  1  0
 28 29  1  0
 29 30  1  0
 30 31  1  0
 31 32  1  0
 32 33  1  0
 27 34  1  0
 34 35  2  0
 23 36  2  0
 36 37  1  0
 37 38  3  0
 36  7  1  0
 21 10  1  0
 35 24  1  0
 19 14  1  0
 33 28  1  0
  1 39  1  0
  1 40  1  0
  1 41  1  0
  5 42  1  0
  5 43  1  0
 11 44  1  0
 12 45  1  0
 15 46  1  0
 15 47  1  0
 16 48  1  0
 16 49  1  0
 18 50  1  0
 18 51  1  0
 19 52  1  0
 19 53  1  0
 20 54  1  0
 21 55  1  0
 22 56  1  0
 25 57  1  0
 26 58  1  0
 29 59  1  0
 29 60  1  0
 30 61  1  0
 30 62  1  0
 32 63  1  0
 32 64  1  0
 33 65  1  0
 33 66  1  0
 34 67  1  0
 35 68  1  0
M  END
>  <Binding energies>  (1) 
[-2.69]

>  <Ligand effiencies>  (1) 
[-0.07078947368421053]

>  <Interactions>  (1) 
["V-B:ASP:366:CB:8183, H-A:TYR:539:OH:4876, V-B:ASP:366:CG:8184, V-B:TYR:539:CE1:9847, V-A:LEU:475:CD2:4256, V-B:TYR:539:CD1:9845, V-A:GLU:543:CG:4905, V-B:HIS:456:CE1:9040, V-B:GLU:543:CD:9880, V-B:GLU:543:CB:9878, V-B:GLU:543:CG:9879, V-A:HIS:456:CE1:4066, V-A:GLU:543:CD:4906, V-B:GLU:543:C:9874, V-B:ASP:366:CA:8181, V-A:ARG:545:CG:4920, H-A:GLY:454:N:4047, V-B:ALA:541:CB:9864, V-B:TYR:531:CZ:9766, V-A:HIS:456:CD2:4065, V-A:GLY:544:C:4910, H-A:TYR:484:OH:4345, V-A:GLU:543:C:4900, V-B:HIS:456:CD2:9039, V-A:LYS:547:CE:4948, V-A:HIS:456:CG:4063, H-B:LYS:547:NZ:9923, H-A:LYS:547:NZ:4949, V-B:TYR:531:CE1:9764"]

$$$$
2d_Grossjean_2025
     RDKit          3D

 36 37  0  0  0  0  0  0  0  0999 V2000
  129.4320  125.7950   61.5170 C   0  0  0  0  0  0  0  0  0  0  0  0
  130.4660  125.6820   62.6210 C   0  0  0  0  0  0  0  0  0  0  0  0
  130.1290  125.8700   63.9590 C   0  0  0  0  0  0  0  0  0  0  0  0
  131.1200  125.7500   64.9430 C   0  0  0  0  0  0  0  0  0  0  0  0
  130.7260  125.9510   66.4200 C   0  0  0  0  0  0  0  0  0  0  0  0
  131.6780  126.6320   67.0580 F   0  0  0  0  0  0  0  0  0  0  0  0
  129.5810  126.6330   66.4980 F   0  0  0  0  0  0  0  0  0  0  0  0
  130.5510  124.7990   67.0700 F   0  0  0  0  0  0  0  0  0  0  0  0
  132.4450  125.4460   64.5390 C   0  0  0  0  0  0  0  0  0  0  0  0
  133.5070  125.2640   65.5320 C   0  0  0  0  0  0  0  0  0  0  0  0
  134.3440  125.1200   66.3170 N   0  0  0  0  0  0  0  0  0  0  0  0
  132.7000  125.2970   63.1550 C   0  0  0  0  0  0  0  0  0  0  0  0
  134.3090  124.9460   62.4710 S   0  0  0  0  0  0  0  0  0  0  0  0
  134.1260  123.7020   61.1510 C   0  0  0  0  0  0  0  0  0  0  0  0
  133.5020  122.3930   61.6450 C   0  0  0  0  0  0  0  0  0  0  0  0
  133.4960  122.1510   62.8530 O   0  0  0  0  0  0  0  0  0  0  0  0
  133.0240  121.5750   60.6840 N   0  0  0  0  0  0  0  0  0  0  0  0
  132.3970  120.3210   60.8150 C   0  0  0  0  0  0  0  0  0  0  0  0
  133.1890  119.2080   60.5240 C   0  0  0  0  0  0  0  0  0  0  0  0
  132.6560  117.9240   60.6190 C   0  0  0  0  0  0  0  0  0  0  0  0
  131.3260  117.7560   60.9960 C   0  0  0  0  0  0  0  0  0  0  0  0
  130.5240  118.8590   61.2750 C   0  0  0  0  0  0  0  0  0  0  0  0
  131.0530  120.1420   61.1830 C   0  0  0  0  0  0  0  0  0  0  0  0
  131.7250  125.3950   62.2180 N   0  0  0  0  0  0  0  0  0  0  0  0
  128.4317  125.9043   61.9613 H   0  0  0  0  0  0  0  0  0  0  0  0
  129.6548  126.6741   60.8945 H   0  0  0  0  0  0  0  0  0  0  0  0
  129.4597  124.8885   60.8945 H   0  0  0  0  0  0  0  0  0  0  0  0
  129.0935  126.1107   64.2414 H   0  0  0  0  0  0  0  0  0  0  0  0
  133.4843  124.1203   60.3615 H   0  0  0  0  0  0  0  0  0  0  0  0
  135.1339  123.4663   60.7787 H   0  0  0  0  0  0  0  0  0  0  0  0
  133.1800  121.8660   59.7300 H   0  0  0  0  0  0  0  0  0  0  0  0
  134.2369  119.3454   60.2188 H   0  0  0  0  0  0  0  0  0  0  0  0
  133.2827  117.0476   60.3973 H   0  0  0  0  0  0  0  0  0  0  0  0
  130.9054  116.7426   61.0740 H   0  0  0  0  0  0  0  0  0  0  0  0
  129.4734  118.7161   61.5678 H   0  0  0  0  0  0  0  0  0  0  0  0
  130.4199  121.0154   61.3981 H   0  0  0  0  0  0  0  0  0  0  0  0
  1  2  1  0
  2  3  2  0
  3  4  1  0
  4  5  1  0
  5  6  1  0
  5  7  1  0
  5  8  1  0
  4  9  2  0
  9 10  1  0
 10 11  3  0
  9 12  1  0
 12 13  1  0
 13 14  1  0
 14 15  1  0
 15 16  2  0
 15 17  1  0
 17 18  1  0
 18 19  2  0
 19 20  1  0
 20 21  2  0
 21 22  1  0
 22 23  2  0
 12 24  2  0
 24  2  1  0
 23 18  1  0
  1 25  1  0
  1 26  1  0
  1 27  1  0
  3 28  1  0
 14 29  1  0
 14 30  1  0
 17 31  1  0
 19 32  1  0
 20 33  1  0
 21 34  1  0
 22 35  1  0
 23 36  1  0
M  END
>  <Binding energies>  (1) 
[-6.22]

>  <Ligand effiencies>  (1) 
[-0.2488]

>  <Interactions>  (1) 
["V-B:TYR:539:CE1:9847, V-A:ILE:369:CD1:3236, V-A:LEU:475:CD2:4256, V-B:TYR:539:CD1:9845, V-A:GLY:454:CA:4046, V-A:GLU:543:CG:4905, V-A:ILE:369:CG2:3234, V-B:GLU:543:CD:9880, H-A:ARG:545:NH2:4926, V-B:GLU:543:CB:9878, V-B:GLU:543:CG:9879, V-A:HIS:456:CE1:4066, V-A:TYR:484:CE2:4343, V-A:TYR:484:CZ:4344, V-A:GLU:543:CD:4906, V-A:ARG:545:CZ:4924, V-A:ARG:545:CG:4920, V-A:SER:385:CA:3404, H-A:GLY:454:N:4047, V-A:ARG:545:CD:4921, V-B:ALA:541:CB:9864, H-A:ARG:545:NH1:4925, H-A:TYR:484:OH:4345, H-A:ARG:545:NE:4922, V-A:SER:385:CB:3406, V-A:LEU:373:CD1:3277, V-A:PRO:482:CB:4323, V-A:PRO:482:CG:4324, H-A:ILE:455:N:4052"]

$$$$
2e_Grossjean_2025
     RDKit          3D

 38 39  0  0  0  0  0  0  0  0999 V2000
  124.4580  123.1510   62.1140 C   0  0  0  0  0  0  0  0  0  0  0  0
  125.7410  123.4160   61.3490 C   0  0  0  0  0  0  0  0  0  0  0  0
  125.7260  123.7950   60.0040 C   0  0  0  0  0  0  0  0  0  0  0  0
  126.9450  124.0340   59.3680 C   0  0  0  0  0  0  0  0  0  0  0  0
  128.1370  123.8890   60.0830 C   0  0  0  0  0  0  0  0  0  0  0  0
  128.0800  123.4970   61.4250 C   0  0  0  0  0  0  0  0  0  0  0  0
  129.3050  123.4090   62.1080 N   0  0  0  0  0  0  0  0  0  0  0  0
  130.2340  122.4310   62.0300 C   0  0  0  0  0  0  0  0  0  0  0  0
  130.1820  121.4660   61.2660 O   0  0  0  0  0  0  0  0  0  0  0  0
  131.4040  122.5440   63.0130 C   0  0  0  0  0  0  0  0  0  0  0  0
  132.6890  123.6900   62.4180 S   0  0  0  0  0  0  0  0  0  0  0  0
  131.8190  124.9510   61.5140 C   0  0  0  0  0  0  0  0  0  0  0  0
  130.9960  125.7220   62.2680 N   0  0  0  0  0  0  0  0  0  0  0  0
  130.2630  126.6760   61.6530 C   0  0  0  0  0  0  0  0  0  0  0  0
  129.3650  127.5010   62.5550 C   0  0  0  0  0  0  0  0  0  0  0  0
  130.3130  126.8940   60.2770 C   0  0  0  0  0  0  0  0  0  0  0  0
  131.1510  126.0990   59.4810 C   0  0  0  0  0  0  0  0  0  0  0  0
  131.1800  126.3380   57.9600 C   0  0  0  0  0  0  0  0  0  0  0  0
  130.6870  127.5450   57.6770 F   0  0  0  0  0  0  0  0  0  0  0  0
  132.4330  126.2660   57.5110 F   0  0  0  0  0  0  0  0  0  0  0  0
  130.4580  125.4410   57.2840 F   0  0  0  0  0  0  0  0  0  0  0  0
  131.9310  125.0980   60.1120 C   0  0  0  0  0  0  0  0  0  0  0  0
  132.8050  124.2150   59.3330 C   0  0  0  0  0  0  0  0  0  0  0  0
  133.4930  123.5180   58.7170 N   0  0  0  0  0  0  0  0  0  0  0  0
  126.8910  123.2700   62.0560 N   0  0  0  0  0  0  0  0  0  0  0  0
  124.6601  123.1927   63.1945 H   0  0  0  0  0  0  0  0  0  0  0  0
  123.7102  123.9136   61.8511 H   0  0  0  0  0  0  0  0  0  0  0  0
  124.0735  122.1545   61.8511 H   0  0  0  0  0  0  0  0  0  0  0  0
  124.7762  123.9024   59.4597 H   0  0  0  0  0  0  0  0  0  0  0  0
  126.9675  124.3347   58.3101 H   0  0  0  0  0  0  0  0  0  0  0  0
  129.1056  124.0802   59.5980 H   0  0  0  0  0  0  0  0  0  0  0  0
  129.5220  124.1990   62.6980 H   0  0  0  0  0  0  0  0  0  0  0  0
  131.0226  122.9086   63.9782 H   0  0  0  0  0  0  0  0  0  0  0  0
  131.8589  121.5477   63.1149 H   0  0  0  0  0  0  0  0  0  0  0  0
  129.6021  127.2832   63.6068 H   0  0  0  0  0  0  0  0  0  0  0  0
  129.5285  128.5705   62.3562 H   0  0  0  0  0  0  0  0  0  0  0  0
  128.3132  127.2477   62.3562 H   0  0  0  0  0  0  0  0  0  0  0  0
  129.6997  127.6838   59.8187 H   0  0  0  0  0  0  0  0  0  0  0  0
  1  2  1  0
  2  3  2  0
  3  4  1  0
  4  5  2  0
  5  6  1  0
  6  7  1  0
  7  8  1  0
  8  9  2  0
  8 10  1  0
 10 11  1  0
 11 12  1  0
 12 13  2  0
 13 14  1  0
 14 15  1  0
 14 16  2  0
 16 17  1  0
 17 18  1  0
 18 19  1  0
 18 20  1  0
 18 21  1  0
 17 22  2  0
 22 23  1  0
 23 24  3  0
  6 25  2  0
 25  2  1  0
 22 12  1  0
  1 26  1  0
  1 27  1  0
  1 28  1  0
  3 29  1  0
  4 30  1  0
  5 31  1  0
  7 32  1  0
 10 33  1  0
 10 34  1  0
 15 35  1  0
 15 36  1  0
 15 37  1  0
 16 38  1  0
M  END
>  <Binding energies>  (1) 
[-5.86]

>  <Ligand effiencies>  (1) 
[-0.2253846153846154]

>  <Interactions>  (1) 
["V-B:PRO:540:C:9853, V-B:TYR:539:CE1:9847, H-B:ALA:541:N:9863, V-B:PRO:540:CA:9855, V-A:LEU:475:CD2:4256, H-B:GLU:543:OE1:9881, V-A:ASP:366:CG:3210, H-A:ARG:545:NH2:4926, V-A:ASP:366:CA:3207, V-A:ASP:366:CB:3209, V-A:GLU:543:CD:4906, V-B:PRO:540:CB:9857, V-B:ALA:541:CB:9864, V-B:ASN:362:CB:8147, H-B:TYR:539:OH:9850, V-A:TYR:531:CZ:4792, V-B:ASN:362:CG:8148"]

$$$$
2f_Grossjean_2025
     RDKit          3D

 35 36  0  0  0  0  0  0  0  0999 V2000
  129.4150  125.9810   61.5110 C   0  0  0  0  0  0  0  0  0  0  0  0
  130.4460  125.7790   62.6060 C   0  0  0  0  0  0  0  0  0  0  0  0
  130.1230  125.9430   63.9510 C   0  0  0  0  0  0  0  0  0  0  0  0
  131.1140  125.7530   64.9270 C   0  0  0  0  0  0  0  0  0  0  0  0
  130.7410  125.9500   66.4080 C   0  0  0  0  0  0  0  0  0  0  0  0
  130.5930  124.7660   67.0050 F   0  0  0  0  0  0  0  0  0  0  0  0
  131.7010  126.6320   67.0330 F   0  0  0  0  0  0  0  0  0  0  0  0
  129.6000  126.6240   66.5690 F   0  0  0  0  0  0  0  0  0  0  0  0
  132.4200  125.3910   64.5060 C   0  0  0  0  0  0  0  0  0  0  0  0
  133.5020  125.2370   65.4810 C   0  0  0  0  0  0  0  0  0  0  0  0
  134.3560  125.1150   66.2530 N   0  0  0  0  0  0  0  0  0  0  0  0
  132.6490  125.2220   63.1190 C   0  0  0  0  0  0  0  0  0  0  0  0
  134.2190  124.7590   62.4150 S   0  0  0  0  0  0  0  0  0  0  0  0
  133.9080  123.5480   61.0860 C   0  0  0  0  0  0  0  0  0  0  0  0
  133.2920  122.2190   61.5470 C   0  0  0  0  0  0  0  0  0  0  0  0
  133.0190  122.0310   62.7330 O   0  0  0  0  0  0  0  0  0  0  0  0
  133.1080  121.3150   60.5600 N   0  0  0  0  0  0  0  0  0  0  0  0
  132.5640  120.0180   60.6250 C   0  0  0  0  0  0  0  0  0  0  0  0
  131.2410  119.7040   60.9870 C   0  0  0  0  0  0  0  0  0  0  0  0
  130.8270  118.3710   61.0060 C   0  0  0  0  0  0  0  0  0  0  0  0
  131.7470  117.3820   60.6580 C   0  0  0  0  0  0  0  0  0  0  0  0
  133.0260  117.6580   60.2980 N   0  0  0  0  0  0  0  0  0  0  0  0
  133.4130  118.9590   60.2840 C   0  0  0  0  0  0  0  0  0  0  0  0
  131.6850  125.4310   62.1900 N   0  0  0  0  0  0  0  0  0  0  0  0
  128.4315  126.1737   61.9644 H   0  0  0  0  0  0  0  0  0  0  0  0
  129.7058  126.8393   60.8874 H   0  0  0  0  0  0  0  0  0  0  0  0
  129.3604  125.0765   60.8874 H   0  0  0  0  0  0  0  0  0  0  0  0
  129.0999  126.2191   64.2459 H   0  0  0  0  0  0  0  0  0  0  0  0
  133.2218  124.0079   60.3596 H   0  0  0  0  0  0  0  0  0  0  0  0
  134.8920  123.2989   60.6620 H   0  0  0  0  0  0  0  0  0  0  0  0
  133.4330  121.5830   59.6420 H   0  0  0  0  0  0  0  0  0  0  0  0
  130.5362  120.5053   61.2538 H   0  0  0  0  0  0  0  0  0  0  0  0
  129.7976  118.1063   61.2893 H   0  0  0  0  0  0  0  0  0  0  0  0
  131.4213  116.3315   60.6762 H   0  0  0  0  0  0  0  0  0  0  0  0
  134.4467  119.1929   59.9896 H   0  0  0  0  0  0  0  0  0  0  0  0
  1  2  1  0
  2  3  2  0
  3  4  1  0
  4  5  1  0
  5  6  1  0
  5  7  1  0
  5  8  1  0
  4  9  2  0
  9 10  1  0
 10 11  3  0
  9 12  1  0
 12 13  1  0
 13 14  1  0
 14 15  1  0
 15 16  2  0
 15 17  1  0
 17 18  1  0
 18 19  2  0
 19 20  1  0
 20 21  2  0
 21 22  1  0
 22 23  2  0
 12 24  2  0
 24  2  1  0
 23 18  1  0
  1 25  1  0
  1 26  1  0
  1 27  1  0
  3 28  1  0
 14 29  1  0
 14 30  1  0
 17 31  1  0
 19 32  1  0
 20 33  1  0
 21 34  1  0
 23 35  1  0
M  END
>  <Binding energies>  (1) 
[-5.9]

>  <Ligand effiencies>  (1) 
[-0.23600000000000002]

>  <Interactions>  (1) 
["V-B:TYR:539:CE1:9847, V-A:ILE:369:CD1:3236, V-A:LEU:475:CD2:4256, V-B:TYR:539:CD1:9845, V-A:GLY:454:CA:4046, V-A:GLU:543:CG:4905, V-A:ILE:369:CG2:3234, V-B:GLU:543:CD:9880, H-A:ARG:545:NH2:4926, V-B:GLU:543:CB:9878, V-B:GLU:543:CG:9879, V-A:HIS:456:CE1:4066, V-A:TYR:484:CE2:4343, V-A:TYR:484:CZ:4344, V-A:GLU:543:CD:4906, V-A:ARG:545:CZ:4924, V-A:ARG:545:CG:4920, V-A:SER:385:CA:3404, H-A:GLY:454:N:4047, V-A:ARG:545:CD:4921, H-A:TYR:484:OH:4345, H-A:ARG:545:NE:4922, V-A:SER:385:CB:3406, V-A:LEU:373:CD1:3277, V-A:PRO:482:CB:4323, V-A:PRO:482:CG:4324, H-A:ILE:455:N:4052"]

$$$$
2g_Grossjean_2025
     RDKit          3D

 39 40  0  0  0  0  0  0  0  0999 V2000
  129.7110  126.5330   63.3650 C   0  0  0  0  0  0  0  0  0  0  0  0
  130.6310  125.8430   62.3750 C   0  0  0  0  0  0  0  0  0  0  0  0
  131.9420  125.5110   62.7070 C   0  0  0  0  0  0  0  0  0  0  0  0
  132.7560  124.8800   61.7540 C   0  0  0  0  0  0  0  0  0  0  0  0
  134.2070  124.5280   62.1360 C   0  0  0  0  0  0  0  0  0  0  0  0
  134.5930  125.2440   63.1930 F   0  0  0  0  0  0  0  0  0  0  0  0
  134.2930  123.2320   62.4380 F   0  0  0  0  0  0  0  0  0  0  0  0
  135.0740  124.7710   61.1510 F   0  0  0  0  0  0  0  0  0  0  0  0
  132.2080  124.5920   60.4770 C   0  0  0  0  0  0  0  0  0  0  0  0
  133.0320  123.9860   59.4280 C   0  0  0  0  0  0  0  0  0  0  0  0
  133.6830  123.5080   58.5990 N   0  0  0  0  0  0  0  0  0  0  0  0
  130.8560  124.9390   60.2400 C   0  0  0  0  0  0  0  0  0  0  0  0
  130.0050  124.6290   58.7080 S   0  0  0  0  0  0  0  0  0  0  0  0
  128.3350  124.0190   59.1220 C   0  0  0  0  0  0  0  0  0  0  0  0
  128.3010  122.9170   60.1890 C   0  0  0  0  0  0  0  0  0  0  0  0
  127.2410  122.5490   60.6990 O   0  0  0  0  0  0  0  0  0  0  0  0
  129.4970  122.3980   60.5230 N   0  0  0  0  0  0  0  0  0  0  0  0
  129.7180  121.3350   61.5050 C   0  0  0  0  0  0  0  0  0  0  0  0
  130.8620  120.3880   61.1600 C   0  0  0  0  0  0  0  0  0  0  0  0
  132.1520  120.8940   60.9740 C   0  0  0  0  0  0  0  0  0  0  0  0
  133.2060  120.0270   60.6960 C   0  0  0  0  0  0  0  0  0  0  0  0
  132.9680  118.6570   60.6150 C   0  0  0  0  0  0  0  0  0  0  0  0
  131.6870  118.1450   60.8120 C   0  0  0  0  0  0  0  0  0  0  0  0
  130.6340  119.0110   61.0900 C   0  0  0  0  0  0  0  0  0  0  0  0
  130.0910  125.5690   61.1660 N   0  0  0  0  0  0  0  0  0  0  0  0
  130.0300  126.2938   64.3902 H   0  0  0  0  0  0  0  0  0  0  0  0
  129.7569  127.6212   63.2112 H   0  0  0  0  0  0  0  0  0  0  0  0
  128.6792  126.1842   63.2112 H   0  0  0  0  0  0  0  0  0  0  0  0
  132.3361  125.7414   63.7078 H   0  0  0  0  0  0  0  0  0  0  0  0
  127.7408  124.8691   59.4884 H   0  0  0  0  0  0  0  0  0  0  0  0
  127.9303  123.5727   58.2016 H   0  0  0  0  0  0  0  0  0  0  0  0
  130.3180  122.7360   60.0430 H   0  0  0  0  0  0  0  0  0  0  0  0
  129.9396  121.8034   62.4753 H   0  0  0  0  0  0  0  0  0  0  0  0
  128.8012  120.7273   61.5221 H   0  0  0  0  0  0  0  0  0  0  0  0
  132.3344  121.9763   61.0472 H   0  0  0  0  0  0  0  0  0  0  0  0
  134.2209  120.4221   60.5412 H   0  0  0  0  0  0  0  0  0  0  0  0
  133.7998  117.9722   60.3932 H   0  0  0  0  0  0  0  0  0  0  0  0
  131.5091  117.0614   60.7480 H   0  0  0  0  0  0  0  0  0  0  0  0
  129.6223  118.6118   61.2546 H   0  0  0  0  0  0  0  0  0  0  0  0
  1  2  1  0
  2  3  2  0
  3  4  1  0
  4  5  1  0
  5  6  1  0
  5  7  1  0
  5  8  1  0
  4  9  2  0
  9 10  1  0
 10 11  3  0
  9 12  1  0
 12 13  1  0
 13 14  1  0
 14 15  1  0
 15 16  2  0
 15 17  1  0
 17 18  1  0
 18 19  1  0
 19 20  2  0
 20 21  1  0
 21 22  2  0
 22 23  1  0
 23 24  2  0
 12 25  2  0
 25  2  1  0
 24 19  1  0
  1 26  1  0
  1 27  1  0
  1 28  1  0
  3 29  1  0
 14 30  1  0
 14 31  1  0
 17 32  1  0
 18 33  1  0
 18 34  1  0
 20 35  1  0
 21 36  1  0
 22 37  1  0
 23 38  1  0
 24 39  1  0
M  END
>  <Binding energies>  (1) 
[-5.98]

>  <Ligand effiencies>  (1) 
[-0.23]

>  <Interactions>  (1) 
["V-B:TYR:539:CE1:9847, H-B:ALA:541:N:9863, V-A:ILE:369:CD1:3236, V-B:PRO:540:CA:9855, V-A:GLY:453:C:4039, V-A:LEU:475:CD2:4256, V-B:TYR:539:CD1:9845, V-A:GLY:454:CA:4046, V-A:ASP:366:CG:3210, V-A:ILE:369:CG2:3234, V-B:GLU:543:CD:9880, V-A:ASP:366:CA:3207, V-A:ARG:545:CZ:4924, V-A:SER:385:CA:3404, V-B:ALA:541:CB:9864, V-A:GLY:453:CA:4041, H-B:TYR:539:OH:9850, V-A:SER:385:CB:3406, V-A:LEU:373:CD1:3277, V-A:PRO:482:CB:4323, V-A:PRO:482:CG:4324"]

$$$$
2h_Grossjean_2025
     RDKit          3D

 51 52  0  0  0  0  0  0  0  0999 V2000
  133.0340  119.9810   60.9350 C   0  0  0  0  0  0  0  0  0  0  0  0
  132.0420  120.9620   60.6530 O   0  0  0  0  0  0  0  0  0  0  0  0
  131.6980  121.8800   61.6280 C   0  0  0  0  0  0  0  0  0  0  0  0
  130.4150  121.9850   62.1880 C   0  0  0  0  0  0  0  0  0  0  0  0
  130.1460  122.9310   63.1750 C   0  0  0  0  0  0  0  0  0  0  0  0
  131.1480  123.7920   63.6230 C   0  0  0  0  0  0  0  0  0  0  0  0
  130.8340  124.8080   64.7200 C   0  0  0  0  0  0  0  0  0  0  0  0
  130.5110  126.1410   64.2100 N   0  0  0  0  0  0  0  0  0  0  0  0
  129.8080  126.3880   63.0910 C   0  0  0  0  0  0  0  0  0  0  0  0
  129.4270  125.5020   62.3230 O   0  0  0  0  0  0  0  0  0  0  0  0
  129.4910  127.8650   62.8200 C   0  0  0  0  0  0  0  0  0  0  0  0
  127.9840  128.4920   63.6360 S   0  0  0  0  0  0  0  0  0  0  0  0
  127.6060  130.0600   62.8830 C   0  0  0  0  0  0  0  0  0  0  0  0
  128.5730  130.5100   62.0450 N   0  0  0  0  0  0  0  0  0  0  0  0
  128.3960  131.7020   61.4330 C   0  0  0  0  0  0  0  0  0  0  0  0
  129.5210  132.1450   60.5160 C   0  0  0  0  0  0  0  0  0  0  0  0
  127.2590  132.4840   61.6230 C   0  0  0  0  0  0  0  0  0  0  0  0
  126.2390  132.0260   62.4710 C   0  0  0  0  0  0  0  0  0  0  0  0
  124.9850  132.9010   62.6620 C   0  0  0  0  0  0  0  0  0  0  0  0
  124.7590  133.0930   63.9620 F   0  0  0  0  0  0  0  0  0  0  0  0
  125.1040  134.1040   62.0940 F   0  0  0  0  0  0  0  0  0  0  0  0
  123.9230  132.3040   62.1200 F   0  0  0  0  0  0  0  0  0  0  0  0
  126.4060  130.7730   63.1150 C   0  0  0  0  0  0  0  0  0  0  0  0
  125.3450  130.2230   63.9630 C   0  0  0  0  0  0  0  0  0  0  0  0
  124.5050  129.7890   64.6290 N   0  0  0  0  0  0  0  0  0  0  0  0
  132.4290  123.7150   63.0550 C   0  0  0  0  0  0  0  0  0  0  0  0
  133.4210  124.5620   63.4890 O   0  0  0  0  0  0  0  0  0  0  0  0
  133.8530  125.5060   62.5170 C   0  0  0  0  0  0  0  0  0  0  0  0
  132.7040  122.7470   62.0740 C   0  0  0  0  0  0  0  0  0  0  0  0
  133.9630  122.6560   61.5290 O   0  0  0  0  0  0  0  0  0  0  0  0
  134.0990  123.3010   60.2700 C   0  0  0  0  0  0  0  0  0  0  0  0
  133.1434  119.8728   62.0242 H   0  0  0  0  0  0  0  0  0  0  0  0
  132.7311  119.0174   60.4994 H   0  0  0  0  0  0  0  0  0  0  0  0
  133.9941  120.2947   60.4994 H   0  0  0  0  0  0  0  0  0  0  0  0
  129.6142  121.3138   61.8442 H   0  0  0  0  0  0  0  0  0  0  0  0
  129.1356  122.9994   63.6043 H   0  0  0  0  0  0  0  0  0  0  0  0
  129.9744  124.4397   65.2991 H   0  0  0  0  0  0  0  0  0  0  0  0
  131.7407  124.9091   65.3346 H   0  0  0  0  0  0  0  0  0  0  0  0
  130.7590  126.9180   64.8060 H   0  0  0  0  0  0  0  0  0  0  0  0
  130.3434  128.4666   63.1686 H   0  0  0  0  0  0  0  0  0  0  0  0
  129.3120  127.9477   61.7378 H   0  0  0  0  0  0  0  0  0  0  0  0
  130.3760  132.4817   61.1207 H   0  0  0  0  0  0  0  0  0  0  0  0
  129.8303  131.3015   59.8813 H   0  0  0  0  0  0  0  0  0  0  0  0
  129.1722  132.9729   59.8813 H   0  0  0  0  0  0  0  0  0  0  0  0
  127.1614  133.4533   61.1121 H   0  0  0  0  0  0  0  0  0  0  0  0
  134.2593  126.3939   63.0235 H   0  0  0  0  0  0  0  0  0  0  0  0
  134.6336  125.0534   61.8879 H   0  0  0  0  0  0  0  0  0  0  0  0
  133.0002  125.8009   61.8879 H   0  0  0  0  0  0  0  0  0  0  0  0
  134.3236  124.3664   60.4262 H   0  0  0  0  0  0  0  0  0  0  0  0
  134.9181  122.8326   59.7046 H   0  0  0  0  0  0  0  0  0  0  0  0
  133.1605  123.2032   59.7046 H   0  0  0  0  0  0  0  0  0  0  0  0
  1  2  1  0
  2  3  1  0
  3  4  2  0
  4  5  1  0
  5  6  2  0
  6  7  1  0
  7  8  1  0
  8  9  1  0
  9 10  2  0
  9 11  1  0
 11 12  1  0
 12 13  1  0
 13 14  2  0
 14 15  1  0
 15 16  1  0
 15 17  2  0
 17 18  1  0
 18 19  1  0
 19 20  1  0
 19 21  1  0
 19 22  1  0
 18 23  2  0
 23 24  1  0
 24 25  3  0
  6 26  1  0
 26 27  1  0
 27 28  1  0
 26 29  2  0
 29 30  1  0
 30 31  1  0
 29  3  1  0
 23 13  1  0
  1 32  1  0
  1 33  1  0
  1 34  1  0
  4 35  1  0
  5 36  1  0
  7 37  1  0
  7 38  1  0
  8 39  1  0
 11 40  1  0
 11 41  1  0
 16 42  1  0
 16 43  1  0
 16 44  1  0
 17 45  1  0
 28 46  1  0
 28 47  1  0
 28 48  1  0
 31 49  1  0
 31 50  1  0
 31 51  1  0
M  END
>  <Binding energies>  (1) 
[-5.19]

>  <Ligand effiencies>  (1) 
[-0.1621875]

>  <Interactions>  (1) 
["V-B:LEU:475:CD2:9230, V-B:GLY:454:CA:9020, V-B:ILE:369:CG2:8208, V-B:ILE:369:CD1:8210, V-A:PRO:540:CA:4881, V-B:TYR:539:CE1:9847, V-A:ILE:369:CD1:3236, V-A:LEU:475:CD2:4256, V-B:TYR:539:CD1:9845, V-A:ASP:366:CG:3210, H-B:ARG:545:NH2:9900, V-A:ILE:369:CG2:3234, V-B:GLU:543:CD:9880, H-A:GLU:543:OE2:4908, H-B:GLY:454:N:9021, V-A:GLU:543:CD:4906, V-A:ILE:369:CB:3233, V-B:ARG:545:CZ:9898, V-A:ARG:545:CZ:4924, V-A:SER:385:CA:3404, H-A:GLY:454:N:4047, V-B:ALA:541:CB:9864, V-A:ILE:369:CG1:3235, H-B:ARG:545:NE:9896, V-A:GLY:453:CA:4041, H-B:TYR:484:OH:9319"]

$$$$
2i_Grossjean_2025
     RDKit          3D

 32 33  0  0  0  0  0  0  0  0999 V2000
  129.3850  126.6900   62.9780 C   0  0  0  0  0  0  0  0  0  0  0  0
  130.3670  126.0390   62.0220 C   0  0  0  0  0  0  0  0  0  0  0  0
  131.6000  125.5610   62.4570 C   0  0  0  0  0  0  0  0  0  0  0  0
  132.4730  124.9650   61.5340 C   0  0  0  0  0  0  0  0  0  0  0  0
  133.8340  124.4420   62.0320 C   0  0  0  0  0  0  0  0  0  0  0  0
  133.7690  123.1250   62.2390 F   0  0  0  0  0  0  0  0  0  0  0  0
  134.7800  124.6910   61.1260 F   0  0  0  0  0  0  0  0  0  0  0  0
  134.2170  125.0090   63.1780 F   0  0  0  0  0  0  0  0  0  0  0  0
  132.0640  124.8700   60.1800 C   0  0  0  0  0  0  0  0  0  0  0  0
  132.9360  124.2550   59.1740 C   0  0  0  0  0  0  0  0  0  0  0  0
  133.6240  123.7690   58.3790 N   0  0  0  0  0  0  0  0  0  0  0  0
  130.7960  125.3840   59.8250 C   0  0  0  0  0  0  0  0  0  0  0  0
  130.1800  125.3260   58.1500 S   0  0  0  0  0  0  0  0  0  0  0  0
  129.6230  123.6290   57.8100 C   0  0  0  0  0  0  0  0  0  0  0  0
  128.2800  123.3160   58.4720 C   0  0  0  0  0  0  0  0  0  0  0  0
  127.4440  122.6580   57.8500 O   0  0  0  0  0  0  0  0  0  0  0  0
  128.1030  123.8220   59.7120 N   0  0  0  0  0  0  0  0  0  0  0  0
  126.9750  123.6920   60.5050 C   0  0  0  0  0  0  0  0  0  0  0  0
  125.6290  123.9500   60.2100 C   0  0  0  0  0  0  0  0  0  0  0  0
  124.9520  123.6420   61.3680 C   0  0  0  0  0  0  0  0  0  0  0  0
  125.8380  123.2170   62.3000 O   0  0  0  0  0  0  0  0  0  0  0  0
  127.1150  123.2490   61.7360 N   0  0  0  0  0  0  0  0  0  0  0  0
  129.9660  125.9560   60.7340 N   0  0  0  0  0  0  0  0  0  0  0  0
  129.6923  126.4863   64.0144 H   0  0  0  0  0  0  0  0  0  0  0  0
  129.3716  127.7764   62.8064 H   0  0  0  0  0  0  0  0  0  0  0  0
  128.3791  126.2793   62.8064 H   0  0  0  0  0  0  0  0  0  0  0  0
  131.8875  125.6497   63.5151 H   0  0  0  0  0  0  0  0  0  0  0  0
  129.5196  123.5017   56.7223 H   0  0  0  0  0  0  0  0  0  0  0  0
  130.3722  122.9390   58.2254 H   0  0  0  0  0  0  0  0  0  0  0  0
  128.8490  124.3800   60.1010 H   0  0  0  0  0  0  0  0  0  0  0  0
  125.2073  124.3173   59.2627 H   0  0  0  0  0  0  0  0  0  0  0  0
  123.8650  123.7274   61.5133 H   0  0  0  0  0  0  0  0  0  0  0  0
  1  2  1  0
  2  3  2  0
  3  4  1  0
  4  5  1  0
  5  6  1  0
  5  7  1  0
  5  8  1  0
  4  9  2  0
  9 10  1  0
 10 11  3  0
  9 12  1  0
 12 13  1  0
 13 14  1  0
 14 15  1  0
 15 16  2  0
 15 17  1  0
 17 18  1  0
 18 19  1  0
 19 20  2  0
 20 21  1  0
 21 22  1  0
 12 23  2  0
 23  2  1  0
 22 18  2  0
  1 24  1  0
  1 25  1  0
  1 26  1  0
  3 27  1  0
 14 28  1  0
 14 29  1  0
 17 30  1  0
 19 31  1  0
 20 32  1  0
M  END
>  <Binding energies>  (1) 
[-5.73]

>  <Ligand effiencies>  (1) 
[-0.23875000000000002]

>  <Interactions>  (1) 
["V-B:TYR:539:CE1:9847, H-B:ALA:541:N:9863, V-A:ILE:369:CD1:3236, V-B:PRO:540:CA:9855, V-A:GLY:453:C:4039, V-B:TYR:539:CD1:9845, V-A:GLY:454:CA:4046, V-A:ASP:366:CG:3210, V-B:GLU:543:CD:9880, V-A:ARG:545:CZ:4924, V-B:PRO:540:CB:9857, V-B:TYR:539:CZ:9849, V-A:GLY:453:CA:4041, V-B:ASN:362:CB:8147, H-B:TYR:539:OH:9850, H-B:TYR:539:N:9842"]

$$$$
2j_Grossjean_2025
     RDKit          3D

 32 33  0  0  0  0  0  0  0  0999 V2000
  130.5860  120.8300   61.7170 C   0  0  0  0  0  0  0  0  0  0  0  0
  130.3830  121.9660   60.7320 C   0  0  0  0  0  0  0  0  0  0  0  0
  129.1190  122.2920   60.2440 C   0  0  0  0  0  0  0  0  0  0  0  0
  128.9820  123.3530   59.3380 C   0  0  0  0  0  0  0  0  0  0  0  0
  127.5770  123.7000   58.8090 C   0  0  0  0  0  0  0  0  0  0  0  0
  127.4280  123.2330   57.5690 F   0  0  0  0  0  0  0  0  0  0  0  0
  126.6460  123.1530   59.5920 F   0  0  0  0  0  0  0  0  0  0  0  0
  127.3490  125.0150   58.7730 F   0  0  0  0  0  0  0  0  0  0  0  0
  130.1440  124.0630   58.9460 C   0  0  0  0  0  0  0  0  0  0  0  0
  130.0600  125.1810   58.0010 C   0  0  0  0  0  0  0  0  0  0  0  0
  129.9920  126.0640   57.2560 N   0  0  0  0  0  0  0  0  0  0  0  0
  131.3880  123.6640   59.4910 C   0  0  0  0  0  0  0  0  0  0  0  0
  132.9170  124.4870   59.0700 S   0  0  0  0  0  0  0  0  0  0  0  0
  134.2320  123.8540   60.1660 C   0  0  0  0  0  0  0  0  0  0  0  0
  133.8500  123.7700   61.6510 C   0  0  0  0  0  0  0  0  0  0  0  0
  133.9200  122.7010   62.2600 O   0  0  0  0  0  0  0  0  0  0  0  0
  133.4360  124.9360   62.1950 N   0  0  0  0  0  0  0  0  0  0  0  0
  133.0350  125.1420   63.5090 C   0  0  0  0  0  0  0  0  0  0  0  0
  133.7950  125.2450   64.5770 N   0  0  0  0  0  0  0  0  0  0  0  0
  133.0780  125.4410   65.6670 C   0  0  0  0  0  0  0  0  0  0  0  0
  131.6990  125.5010   65.4930 C   0  0  0  0  0  0  0  0  0  0  0  0
  131.3330  125.2880   63.8060 S   0  0  0  0  0  0  0  0  0  0  0  0
  131.5000  122.6350   60.3690 N   0  0  0  0  0  0  0  0  0  0  0  0
  130.5166  121.2183   62.7439 H   0  0  0  0  0  0  0  0  0  0  0  0
  129.8101  120.0661   61.5606 H   0  0  0  0  0  0  0  0  0  0  0  0
  131.5784  120.3821   61.5606 H   0  0  0  0  0  0  0  0  0  0  0  0
  128.2358  121.7214   60.5671 H   0  0  0  0  0  0  0  0  0  0  0  0
  134.5043  122.8441   59.8254 H   0  0  0  0  0  0  0  0  0  0  0  0
  135.0615  124.5734   60.1006 H   0  0  0  0  0  0  0  0  0  0  0  0
  133.4080  125.7480   61.5960 H   0  0  0  0  0  0  0  0  0  0  0  0
  133.5441  125.5508   66.6573 H   0  0  0  0  0  0  0  0  0  0  0  0
  130.9600  125.6577   66.2926 H   0  0  0  0  0  0  0  0  0  0  0  0
  1  2  1  0
  2  3  2  0
  3  4  1  0
  4  5  1  0
  5  6  1  0
  5  7  1  0
  5  8  1  0
  4  9  2  0
  9 10  1  0
 10 11  3  0
  9 12  1  0
 12 13  1  0
 13 14  1  0
 14 15  1  0
 15 16  2  0
 15 17  1  0
 17 18  1  0
 18 19  2  0
 19 20  1  0
 20 21  2  0
 21 22  1  0
 12 23  2  0
 23  2  1  0
 22 18  1  0
  1 24  1  0
  1 25  1  0
  1 26  1  0
  3 27  1  0
 14 28  1  0
 14 29  1  0
 17 30  1  0
 20 31  1  0
 21 32  1  0
M  END
>  <Binding energies>  (1) 
[-5.52]

>  <Ligand effiencies>  (1) 
[-0.22999999999999998]

>  <Interactions>  (1) 
["V-B:TYR:539:CE1:9847, V-B:TYR:539:C:9839, V-B:PRO:540:N:9856, V-A:ILE:369:CD1:3236, V-B:PRO:540:CA:9855, V-A:LEU:475:CD2:4256, V-B:TYR:539:CD1:9845, V-A:ILE:369:CG2:3234, H-A:ARG:545:NH2:4926, V-A:HIS:456:CE1:4066, V-A:ILE:369:CB:3233, V-A:ARG:545:CZ:4924, V-A:ARG:545:CG:4920, H-A:GLY:454:N:4047, V-A:ARG:545:CD:4921, V-B:PRO:540:CB:9857, V-B:ALA:541:CB:9864, V-B:TYR:539:CZ:9849, V-A:ILE:369:CG1:3235, H-A:ARG:545:NH1:4925, H-A:TYR:484:OH:4345, H-A:ARG:545:NE:4922, H-A:ASP:366:OD1:3211, H-A:ASP:366:OD2:3212, H-B:TYR:539:OH:9850"]

$$$$
2k_Grossjean_2025
     RDKit          3D

 50 50  0  0  0  0  0  0  0  0999 V2000
  123.4860  130.5350   62.5770 C   0  0  0  0  0  0  0  0  0  0  0  0
  123.8920  130.1850   63.8910 O   0  0  0  0  0  0  0  0  0  0  0  0
  125.2400  130.5350   64.1790 C   0  0  0  0  0  0  0  0  0  0  0  0
  126.0570  129.2660   64.4570 C   0  0  0  0  0  0  0  0  0  0  0  0
  125.9810  128.9610   65.8410 O   0  0  0  0  0  0  0  0  0  0  0  0
  126.9800  129.5910   66.6340 C   0  0  0  0  0  0  0  0  0  0  0  0
  128.2430  128.7210   66.6030 C   0  0  0  0  0  0  0  0  0  0  0  0
  128.7300  128.6120   67.9310 O   0  0  0  0  0  0  0  0  0  0  0  0
  128.3150  127.4500   68.6330 C   0  0  0  0  0  0  0  0  0  0  0  0
  129.3880  126.3570   68.4700 C   0  0  0  0  0  0  0  0  0  0  0  0
  130.1410  126.4780   67.2190 N   0  0  0  0  0  0  0  0  0  0  0  0
  130.6460  125.4530   66.5070 C   0  0  0  0  0  0  0  0  0  0  0  0
  130.4990  124.2710   66.8230 O   0  0  0  0  0  0  0  0  0  0  0  0
  131.4520  125.8420   65.2590 C   0  0  0  0  0  0  0  0  0  0  0  0
  130.4930  125.9450   63.7080 S   0  0  0  0  0  0  0  0  0  0  0  0
  130.7610  124.4630   62.7450 C   0  0  0  0  0  0  0  0  0  0  0  0
  129.6430  123.8730   62.2480 N   0  0  0  0  0  0  0  0  0  0  0  0
  129.7700  122.7460   61.5140 C   0  0  0  0  0  0  0  0  0  0  0  0
  128.4750  122.1420   61.0060 C   0  0  0  0  0  0  0  0  0  0  0  0
  131.0050  122.1680   61.2340 C   0  0  0  0  0  0  0  0  0  0  0  0
  132.1740  122.7640   61.7290 C   0  0  0  0  0  0  0  0  0  0  0  0
  133.5330  122.1140   61.4050 C   0  0  0  0  0  0  0  0  0  0  0  0
  134.2630  121.8720   62.4950 F   0  0  0  0  0  0  0  0  0  0  0  0
  133.3450  120.9490   60.7810 F   0  0  0  0  0  0  0  0  0  0  0  0
  134.2460  122.9170   60.6140 F   0  0  0  0  0  0  0  0  0  0  0  0
  132.0550  123.9430   62.5080 C   0  0  0  0  0  0  0  0  0  0  0  0
  133.2440  124.6070   63.0540 C   0  0  0  0  0  0  0  0  0  0  0  0
  134.1820  125.1300   63.4840 N   0  0  0  0  0  0  0  0  0  0  0  0
  122.6538  131.2524   62.6292 H   0  0  0  0  0  0  0  0  0  0  0  0
  124.3312  130.9922   62.0416 H   0  0  0  0  0  0  0  0  0  0  0  0
  123.1583  129.6317   62.0416 H   0  0  0  0  0  0  0  0  0  0  0  0
  125.6716  131.0662   63.3179 H   0  0  0  0  0  0  0  0  0  0  0  0
  125.2655  131.1856   65.0656 H   0  0  0  0  0  0  0  0  0  0  0  0
  125.6484  128.4289   63.8720 H   0  0  0  0  0  0  0  0  0  0  0  0
  127.1062  129.4293   64.1697 H   0  0  0  0  0  0  0  0  0  0  0  0
  127.2050  130.5872   66.2254 H   0  0  0  0  0  0  0  0  0  0  0  0
  126.6249  129.7048   67.6689 H   0  0  0  0  0  0  0  0  0  0  0  0
  127.9995  127.7225   66.2111 H   0  0  0  0  0  0  0  0  0  0  0  0
  129.0047  129.1743   65.9515 H   0  0  0  0  0  0  0  0  0  0  0  0
  128.1900  127.6882   69.6996 H   0  0  0  0  0  0  0  0  0  0  0  0
  127.3562  127.0935   68.2285 H   0  0  0  0  0  0  0  0  0  0  0  0
  130.0924  126.4286   69.3118 H   0  0  0  0  0  0  0  0  0  0  0  0
  128.8700  125.3868   68.4505 H   0  0  0  0  0  0  0  0  0  0  0  0
  130.2940  127.4170   66.8810 H   0  0  0  0  0  0  0  0  0  0  0  0
  131.9076  126.8263   65.4424 H   0  0  0  0  0  0  0  0  0  0  0  0
  132.1858  125.0364   65.1088 H   0  0  0  0  0  0  0  0  0  0  0  0
  127.8471  121.8491   61.8604 H   0  0  0  0  0  0  0  0  0  0  0  0
  127.9397  122.8834   60.3946 H   0  0  0  0  0  0  0  0  0  0  0  0
  128.6990  121.2554   60.3946 H   0  0  0  0  0  0  0  0  0  0  0  0
  131.0635  121.2510   60.6293 H   0  0  0  0  0  0  0  0  0  0  0  0
  1  2  1  0
  2  3  1  0
  3  4  1  0
  4  5  1  0
  5  6  1  0
  6  7  1  0
  7  8  1  0
  8  9  1  0
  9 10  1  0
 10 11  1  0
 11 12  1  0
 12 13  2  0
 12 14  1  0
 14 15  1  0
 15 16  1  0
 16 17  2  0
 17 18  1  0
 18 19  1  0
 18 20  2  0
 20 21  1  0
 21 22  1  0
 22 23  1  0
 22 24  1  0
 22 25  1  0
 21 26  2  0
 26 27  1  0
 27 28  3  0
 26 16  1  0
  1 29  1  0
  1 30  1  0
  1 31  1  0
  3 32  1  0
  3 33  1  0
  4 34  1  0
  4 35  1  0
  6 36  1  0
  6 37  1  0
  7 38  1  0
  7 39  1  0
  9 40  1  0
  9 41  1  0
 10 42  1  0
 10 43  1  0
 11 44  1  0
 14 45  1  0
 14 46  1  0
 19 47  1  0
 19 48  1  0
 19 49  1  0
 20 50  1  0
M  END
>  <Binding energies>  (1) 
[-4.95]

>  <Ligand effiencies>  (1) 
[-0.1706896551724138]

>  <Interactions>  (1) 
["V-B:GLY:453:C:9013, V-B:ILE:369:CD1:8210, V-B:PRO:540:C:9853, V-B:TYR:539:CE1:9847, V-B:TYR:539:C:9839, V-A:ILE:369:CD1:3236, V-B:PRO:540:CA:9855, V-A:GLY:453:C:4039, V-A:LEU:475:CD2:4256, V-B:TYR:539:CD1:9845, V-A:GLY:454:CA:4046, V-A:GLU:543:CG:4905, H-B:ARG:545:NH2:9900, V-A:ILE:369:CG2:3234, V-B:GLY:453:CA:9015, V-B:HIS:456:CE1:9040, H-B:GLU:543:OE2:9882, V-B:GLU:543:CD:9880, H-A:ARG:545:NH2:4926, V-B:GLU:543:CB:9878, V-B:GLU:543:CG:9879, V-A:HIS:456:CE1:4066, H-A:GLU:543:OE2:4908, H-B:GLY:454:N:9021, V-A:GLU:543:CD:4906, V-A:GLU:543:CB:4904, V-B:GLU:543:C:9874, V-A:ILE:369:CB:3233, V-B:ARG:545:CZ:9898, V-A:ARG:545:CZ:4924, H-A:GLY:454:N:4047, V-A:SER:385:C:3402, V-B:ALA:541:CB:9864, V-B:TYR:484:CZ:9318, V-A:ILE:369:CG1:3235, V-B:ALA:541:CA:9862, H-A:HIS:456:NE2:4067, H-B:HIS:456:NE2:9041, H-B:ARG:545:NE:9896, H-B:ARG:545:NH1:9899, H-A:ARG:545:NH1:4925, H-A:TYR:484:OH:4345, H-A:ARG:545:NE:4922, H-B:TYR:484:OH:9319"]

$$$$
3aa_Grossjean_2025
     RDKit          3D

 52 54  0  0  0  0  0  0  0  0999 V2000
  129.2050  124.6310   72.9800 C   0  0  0  0  0  0  0  0  0  0  0  0
  130.0880  125.8300   73.3400 C   0  0  0  0  0  0  0  0  0  0  0  0
  129.2670  126.9260   73.7240 O   0  0  0  0  0  0  0  0  0  0  0  0
  129.1640  128.0300   72.9400 C   0  0  0  0  0  0  0  0  0  0  0  0
  128.8880  129.1510   73.3770 O   0  0  0  0  0  0  0  0  0  0  0  0
  129.4040  127.7490   71.4840 C   0  0  0  0  0  0  0  0  0  0  0  0
  128.3940  127.2520   70.6470 C   0  0  0  0  0  0  0  0  0  0  0  0
  128.6490  127.0070   69.3000 C   0  0  0  0  0  0  0  0  0  0  0  0
  129.9130  127.2580   68.7620 C   0  0  0  0  0  0  0  0  0  0  0  0
  130.0640  126.9800   67.3890 N   0  0  0  0  0  0  0  0  0  0  0  0
  130.2770  125.7990   66.7680 C   0  0  0  0  0  0  0  0  0  0  0  0
  130.4060  124.7100   67.3300 O   0  0  0  0  0  0  0  0  0  0  0  0
  130.3740  125.8630   65.2440 C   0  0  0  0  0  0  0  0  0  0  0  0
  131.7320  124.8330   64.6090 S   0  0  0  0  0  0  0  0  0  0  0  0
  131.2900  124.3500   62.9550 C   0  0  0  0  0  0  0  0  0  0  0  0
  131.5180  123.0410   62.6930 N   0  0  0  0  0  0  0  0  0  0  0  0
  131.2270  122.5400   61.4640 C   0  0  0  0  0  0  0  0  0  0  0  0
  131.4940  121.0800   61.2570 C   0  0  0  0  0  0  0  0  0  0  0  0
  132.7860  120.6270   60.9440 C   0  0  0  0  0  0  0  0  0  0  0  0
  133.0430  119.2720   60.7510 C   0  0  0  0  0  0  0  0  0  0  0  0
  132.0090  118.3500   60.8670 C   0  0  0  0  0  0  0  0  0  0  0  0
  130.7200  118.7730   61.1780 C   0  0  0  0  0  0  0  0  0  0  0  0
  130.4670  120.1280   61.3740 C   0  0  0  0  0  0  0  0  0  0  0  0
  130.6850  123.3550   60.4660 C   0  0  0  0  0  0  0  0  0  0  0  0
  130.4560  124.7180   60.7090 C   0  0  0  0  0  0  0  0  0  0  0  0
  129.8680  125.5860   59.5800 C   0  0  0  0  0  0  0  0  0  0  0  0
  130.6790  126.5820   59.2170 F   0  0  0  0  0  0  0  0  0  0  0  0
  129.6440  124.8410   58.4970 F   0  0  0  0  0  0  0  0  0  0  0  0
  128.7160  126.1290   59.9760 F   0  0  0  0  0  0  0  0  0  0  0  0
  130.7770  125.2400   61.9860 C   0  0  0  0  0  0  0  0  0  0  0  0
  130.6130  126.6670   62.2780 C   0  0  0  0  0  0  0  0  0  0  0  0
  130.4830  127.7940   62.5080 N   0  0  0  0  0  0  0  0  0  0  0  0
  130.9320  127.7420   69.5970 C   0  0  0  0  0  0  0  0  0  0  0  0
  130.6750  127.9840   70.9420 C   0  0  0  0  0  0  0  0  0  0  0  0
  128.8491  124.1478   73.9019 H   0  0  0  0  0  0  0  0  0  0  0  0
  128.3427  124.9747   72.3898 H   0  0  0  0  0  0  0  0  0  0  0  0
  129.7891  123.9095   72.3898 H   0  0  0  0  0  0  0  0  0  0  0  0
  130.7516  125.5591   74.1744 H   0  0  0  0  0  0  0  0  0  0  0  0
  130.6936  126.1142   72.4668 H   0  0  0  0  0  0  0  0  0  0  0  0
  127.3929  127.0543   71.0577 H   0  0  0  0  0  0  0  0  0  0  0  0
  127.8494  126.6131   68.6555 H   0  0  0  0  0  0  0  0  0  0  0  0
  130.0540  127.7980   66.7970 H   0  0  0  0  0  0  0  0  0  0  0  0
  129.4265  125.5088   64.8118 H   0  0  0  0  0  0  0  0  0  0  0  0
  130.5738  126.9062   64.9579 H   0  0  0  0  0  0  0  0  0  0  0  0
  133.6069  121.3531   60.8499 H   0  0  0  0  0  0  0  0  0  0  0  0
  134.0606  118.9324   60.5076 H   0  0  0  0  0  0  0  0  0  0  0  0
  132.2108  117.2798   60.7121 H   0  0  0  0  0  0  0  0  0  0  0  0
  129.9048  118.0400   61.2685 H   0  0  0  0  0  0  0  0  0  0  0  0
  129.4480  120.4583   61.6242 H   0  0  0  0  0  0  0  0  0  0  0  0
  130.4365  122.9254   59.4843 H   0  0  0  0  0  0  0  0  0  0  0  0
  131.9352  127.9301   69.1869 H   0  0  0  0  0  0  0  0  0  0  0  0
  131.4793  128.3646   71.5887 H   0  0  0  0  0  0  0  0  0  0  0  0
  1  2  1  0
  2  3  1  0
  3  4  1  0
  4  5  2  0
  4  6  1  0
  6  7  2  0
  7  8  1  0
  8  9  2  0
  9 10  1  0
 10 11  1  0
 11 12  2  0
 11 13  1  0
 13 14  1  0
 14 15  1  0
 15 16  2  0
 16 17  1  0
 17 18  1  0
 18 19  2  0
 19 20  1  0
 20 21  2  0
 21 22  1  0
 22 23  2  0
 17 24  2  0
 24 25  1  0
 25 26  1  0
 26 27  1  0
 26 28  1  0
 26 29  1  0
 25 30  2  0
 30 31  1  0
 31 32  3  0
  9 33  1  0
 33 34  2  0
 34  6  1  0
 30 15  1  0
 23 18  1  0
  1 35  1  0
  1 36  1  0
  1 37  1  0
  2 38  1  0
  2 39  1  0
  7 40  1  0
  8 41  1  0
 10 42  1  0
 13 43  1  0
 13 44  1  0
 19 45  1  0
 20 46  1  0
 21 47  1  0
 22 48  1  0
 23 49  1  0
 24 50  1  0
 33 51  1  0
 34 52  1  0
M  END
>  <Binding energies>  (1) 
[-7.82]

>  <Ligand effiencies>  (1) 
[-0.22342857142857145]

>  <Interactions>  (1) 
["V-B:TYR:539:CE1:9847, V-A:LEU:475:CD2:4256, V-B:TYR:539:CD1:9845, V-A:GLU:543:CG:4905, V-A:ASP:366:CG:3210, V-A:ILE:369:CG2:3234, V-B:HIS:456:CE1:9040, H-B:GLU:543:OE2:9882, V-B:GLU:543:CD:9880, H-A:ARG:545:NH2:4926, V-B:GLU:543:CB:9878, V-B:GLU:543:CG:9879, V-A:HIS:456:CE1:4066, H-A:GLU:543:OE2:4908, V-A:GLU:543:CD:4906, V-B:GLU:543:C:9874, V-B:GLY:544:C:9884, V-A:SER:385:CA:3404, H-A:GLU:543:OE1:4907, V-B:ALA:541:CB:9864, V-A:HIS:456:CD2:4065, H-A:HIS:456:NE2:4067, H-B:HIS:456:NE2:9041, V-A:GLY:544:C:4910, H-A:TYR:484:OH:4345, V-A:SER:385:CB:3406, V-A:LEU:373:CD1:3277, V-A:PRO:482:CB:4323, V-A:PRO:482:CG:4324, V-A:GLY:544:CA:4912, V-A:GLU:543:C:4900, V-B:HIS:456:CD2:9039, V-B:GLY:544:CA:9886, V-A:HIS:456:CG:4063, H-B:LYS:547:NZ:9923, H-A:LYS:547:NZ:4949, V-B:LYS:547:CE:9922"]

$$$$
3ab_Grossjean_2025
     RDKit          3D

 49 51  0  0  0  0  0  0  0  0999 V2000
  125.0000  123.6290   62.5110 C   0  0  0  0  0  0  0  0  0  0  0  0
  125.8920  124.0750   61.4990 O   0  0  0  0  0  0  0  0  0  0  0  0
  127.2250  123.8310   61.5860 C   0  0  0  0  0  0  0  0  0  0  0  0
  127.7140  122.6990   61.5410 O   0  0  0  0  0  0  0  0  0  0  0  0
  128.0470  125.0780   61.7390 C   0  0  0  0  0  0  0  0  0  0  0  0
  129.4020  125.0350   62.1030 C   0  0  0  0  0  0  0  0  0  0  0  0
  130.1400  126.2080   62.2360 C   0  0  0  0  0  0  0  0  0  0  0  0
  129.5320  127.4520   62.0090 C   0  0  0  0  0  0  0  0  0  0  0  0
  130.1810  128.6970   62.1090 N   0  0  0  0  0  0  0  0  0  0  0  0
  130.5740  129.5500   61.1390 C   0  0  0  0  0  0  0  0  0  0  0  0
  130.4360  129.3700   59.9290 O   0  0  0  0  0  0  0  0  0  0  0  0
  131.2450  130.8350   61.6280 C   0  0  0  0  0  0  0  0  0  0  0  0
  130.0900  132.2380   61.6690 S   0  0  0  0  0  0  0  0  0  0  0  0
  128.4400  131.5740   61.5840 C   0  0  0  0  0  0  0  0  0  0  0  0
  127.9760  131.1250   62.7740 N   0  0  0  0  0  0  0  0  0  0  0  0
  126.7270  130.5970   62.8580 C   0  0  0  0  0  0  0  0  0  0  0  0
  126.2870  130.1250   64.2120 C   0  0  0  0  0  0  0  0  0  0  0  0
  127.2280  129.7100   65.1680 C   0  0  0  0  0  0  0  0  0  0  0  0
  126.8260  129.2720   66.4270 C   0  0  0  0  0  0  0  0  0  0  0  0
  125.4720  129.2410   66.7480 C   0  0  0  0  0  0  0  0  0  0  0  0
  124.5200  129.6430   65.8170 C   0  0  0  0  0  0  0  0  0  0  0  0
  124.9260  130.0810   64.5600 C   0  0  0  0  0  0  0  0  0  0  0  0
  125.9180  130.4910   61.7210 C   0  0  0  0  0  0  0  0  0  0  0  0
  126.3830  130.9310   60.4740 C   0  0  0  0  0  0  0  0  0  0  0  0
  125.4620  130.7910   59.2460 C   0  0  0  0  0  0  0  0  0  0  0  0
  124.5190  131.7340   59.1960 F   0  0  0  0  0  0  0  0  0  0  0  0
  126.1760  130.8810   58.1230 F   0  0  0  0  0  0  0  0  0  0  0  0
  124.8470  129.6080   59.2720 F   0  0  0  0  0  0  0  0  0  0  0  0
  127.6860  131.4830   60.3930 C   0  0  0  0  0  0  0  0  0  0  0  0
  128.2420  131.9060   59.1050 C   0  0  0  0  0  0  0  0  0  0  0  0
  128.6780  132.2390   58.0860 N   0  0  0  0  0  0  0  0  0  0  0  0
  128.1860  127.4980   61.6420 C   0  0  0  0  0  0  0  0  0  0  0  0
  127.4500  126.3250   61.5100 C   0  0  0  0  0  0  0  0  0  0  0  0
  125.4305  123.8443   63.5001 H   0  0  0  0  0  0  0  0  0  0  0  0
  124.0378  124.1521   62.4082 H   0  0  0  0  0  0  0  0  0  0  0  0
  124.8411  122.5454   62.4082 H   0  0  0  0  0  0  0  0  0  0  0  0
  129.8859  124.0641   62.2851 H   0  0  0  0  0  0  0  0  0  0  0  0
  131.2017  126.1594   62.5196 H   0  0  0  0  0  0  0  0  0  0  0  0
  130.4120  128.9640   63.0550 H   0  0  0  0  0  0  0  0  0  0  0  0
  131.6351  130.6672   62.6427 H   0  0  0  0  0  0  0  0  0  0  0  0
  132.0538  131.0830   60.9249 H   0  0  0  0  0  0  0  0  0  0  0  0
  128.2991  129.7313   64.9184 H   0  0  0  0  0  0  0  0  0  0  0  0
  127.5758  128.9516   67.1654 H   0  0  0  0  0  0  0  0  0  0  0  0
  125.1532  128.8969   67.7430 H   0  0  0  0  0  0  0  0  0  0  0  0
  123.4506  129.6148   66.0732 H   0  0  0  0  0  0  0  0  0  0  0  0
  124.1695  130.3979   63.8270 H   0  0  0  0  0  0  0  0  0  0  0  0
  124.9099  130.0593   61.8065 H   0  0  0  0  0  0  0  0  0  0  0  0
  127.7038  128.4690   61.4558 H   0  0  0  0  0  0  0  0  0  0  0  0
  126.3893  126.3767   61.2231 H   0  0  0  0  0  0  0  0  0  0  0  0
  1  2  1  0
  2  3  1  0
  3  4  2  0
  3  5  1  0
  5  6  2  0
  6  7  1  0
  7  8  2  0
  8  9  1  0
  9 10  1  0
 10 11  2  0
 10 12  1  0
 12 13  1  0
 13 14  1  0
 14 15  2  0
 15 16  1  0
 16 17  1  0
 17 18  2  0
 18 19  1  0
 19 20  2  0
 20 21  1  0
 21 22  2  0
 16 23  2  0
 23 24  1  0
 24 25  1  0
 25 26  1  0
 25 27  1  0
 25 28  1  0
 24 29  2  0
 29 30  1  0
 30 31  3  0
  8 32  1  0
 32 33  2  0
 33  5  1  0
 29 14  1  0
 22 17  1  0
  1 34  1  0
  1 35  1  0
  1 36  1  0
  6 37  1  0
  7 38  1  0
  9 39  1  0
 12 40  1  0
 12 41  1  0
 18 42  1  0
 19 43  1  0
 20 44  1  0
 21 45  1  0
 22 46  1  0
 23 47  1  0
 32 48  1  0
 33 49  1  0
M  END
>  <Binding energies>  (1) 
[-6.35]

>  <Ligand effiencies>  (1) 
[-0.18676470588235294]

>  <Interactions>  (1) 
["V-A:TYR:539:CZ:4875, V-B:ASP:366:CB:8183, V-B:GLY:454:CA:9020, V-B:ILE:369:CG2:8208, V-A:TYR:539:CE1:4873, V-A:TYR:539:CD1:4871, V-B:ASP:366:CG:8184, H-A:ALA:541:N:4889, H-B:ALA:541:N:9863, H-B:ARG:545:NH2:9900, V-B:HIS:456:CE1:9040, V-B:GLU:543:CD:9880, H-A:GLU:543:OE2:4908, V-A:GLU:543:CD:4906, V-B:ASP:366:CA:8181, V-B:ARG:545:CZ:9898, V-B:ARG:545:CG:9894, H-A:GLU:543:OE1:4907, V-B:TYR:484:CZ:9318, V-B:ARG:545:CD:9895, V-B:ASN:362:CB:8147"]

$$$$
3ac_Grossjean_2025
     RDKit          3D

 47 49  0  0  0  0  0  0  0  0999 V2000
  127.1200  129.0580   74.7950 C   0  0  0  0  0  0  0  0  0  0  0  0
  128.4050  128.5060   74.5260 O   0  0  0  0  0  0  0  0  0  0  0  0
  128.7230  128.1340   73.2340 C   0  0  0  0  0  0  0  0  0  0  0  0
  127.6610  127.7450   72.4190 C   0  0  0  0  0  0  0  0  0  0  0  0
  127.8830  127.3580   71.1010 C   0  0  0  0  0  0  0  0  0  0  0  0
  129.1790  127.3450   70.5800 C   0  0  0  0  0  0  0  0  0  0  0  0
  129.3020  126.9590   69.2330 N   0  0  0  0  0  0  0  0  0  0  0  0
  129.2730  127.7250   68.1210 C   0  0  0  0  0  0  0  0  0  0  0  0
  129.1720  128.9530   68.1060 O   0  0  0  0  0  0  0  0  0  0  0  0
  129.3820  126.9700   66.7960 C   0  0  0  0  0  0  0  0  0  0  0  0
  130.8270  125.8650   66.7500 S   0  0  0  0  0  0  0  0  0  0  0  0
  131.2050  125.4890   65.0490 C   0  0  0  0  0  0  0  0  0  0  0  0
  130.1080  125.4520   64.2550 N   0  0  0  0  0  0  0  0  0  0  0  0
  130.2400  125.1840   62.9300 C   0  0  0  0  0  0  0  0  0  0  0  0
  128.9760  125.1560   62.1230 C   0  0  0  0  0  0  0  0  0  0  0  0
  128.2870  126.3430   61.8260 C   0  0  0  0  0  0  0  0  0  0  0  0
  127.1170  126.3240   61.0720 C   0  0  0  0  0  0  0  0  0  0  0  0
  126.6160  125.1130   60.6060 C   0  0  0  0  0  0  0  0  0  0  0  0
  127.2760  123.9220   60.8900 C   0  0  0  0  0  0  0  0  0  0  0  0
  128.4460  123.9460   61.6440 C   0  0  0  0  0  0  0  0  0  0  0  0
  131.4960  124.9250   62.3740 C   0  0  0  0  0  0  0  0  0  0  0  0
  132.6450  124.9340   63.1790 C   0  0  0  0  0  0  0  0  0  0  0  0
  134.0090  124.6380   62.5250 C   0  0  0  0  0  0  0  0  0  0  0  0
  133.9740  124.7190   61.1930 F   0  0  0  0  0  0  0  0  0  0  0  0
  134.9250  125.5100   62.9520 F   0  0  0  0  0  0  0  0  0  0  0  0
  134.4060  123.4050   62.8440 F   0  0  0  0  0  0  0  0  0  0  0  0
  132.5020  125.2090   64.5620 C   0  0  0  0  0  0  0  0  0  0  0  0
  133.6610  125.1540   65.4540 C   0  0  0  0  0  0  0  0  0  0  0  0
  134.5780  125.1090   66.1600 N   0  0  0  0  0  0  0  0  0  0  0  0
  130.2530  127.7420   71.3920 C   0  0  0  0  0  0  0  0  0  0  0  0
  130.0260  128.1290   72.7100 C   0  0  0  0  0  0  0  0  0  0  0  0
  126.9692  129.1228   75.8827 H   0  0  0  0  0  0  0  0  0  0  0  0
  127.0537  130.0640   74.3550 H   0  0  0  0  0  0  0  0  0  0  0  0
  126.3447  128.4135   74.3550 H   0  0  0  0  0  0  0  0  0  0  0  0
  126.6374  127.7440   72.8218 H   0  0  0  0  0  0  0  0  0  0  0  0
  127.0346  127.0611   70.4669 H   0  0  0  0  0  0  0  0  0  0  0  0
  129.4840  125.9760   69.0950 H   0  0  0  0  0  0  0  0  0  0  0  0
  128.4718  126.3686   66.6553 H   0  0  0  0  0  0  0  0  0  0  0  0
  129.4998  127.7128   65.9933 H   0  0  0  0  0  0  0  0  0  0  0  0
  128.6779  127.3027   62.1949 H   0  0  0  0  0  0  0  0  0  0  0  0
  126.5907  127.2630   60.8456 H   0  0  0  0  0  0  0  0  0  0  0  0
  125.6921  125.0971   60.0092 H   0  0  0  0  0  0  0  0  0  0  0  0
  126.8756  122.9663   60.5208 H   0  0  0  0  0  0  0  0  0  0  0  0
  128.9642  123.0020   61.8685 H   0  0  0  0  0  0  0  0  0  0  0  0
  131.5841  124.7127   61.2983 H   0  0  0  0  0  0  0  0  0  0  0  0
  131.2755  127.7474   70.9864 H   0  0  0  0  0  0  0  0  0  0  0  0
  130.8718  128.4325   73.3444 H   0  0  0  0  0  0  0  0  0  0  0  0
  1  2  1  0
  2  3  1  0
  3  4  2  0
  4  5  1  0
  5  6  2  0
  6  7  1  0
  7  8  1  0
  8  9  2  0
  8 10  1  0
 10 11  1  0
 11 12  1  0
 12 13  2  0
 13 14  1  0
 14 15  1  0
 15 16  2  0
 16 17  1  0
 17 18  2  0
 18 19  1  0
 19 20  2  0
 14 21  2  0
 21 22  1  0
 22 23  1  0
 23 24  1  0
 23 25  1  0
 23 26  1  0
 22 27  2  0
 27 28  1  0
 28 29  3  0
  6 30  1  0
 30 31  2  0
 31  3  1  0
 27 12  1  0
 20 15  1  0
  1 32  1  0
  1 33  1  0
  1 34  1  0
  4 35  1  0
  5 36  1  0
  7 37  1  0
 10 38  1  0
 10 39  1  0
 16 40  1  0
 17 41  1  0
 18 42  1  0
 19 43  1  0
 20 44  1  0
 21 45  1  0
 30 46  1  0
 31 47  1  0
M  END
>  <Binding energies>  (1) 
[-7.08]

>  <Ligand effiencies>  (1) 
[-0.22125]

>  <Interactions>  (1) 
["V-A:ILE:369:CD1:3236, V-B:PRO:540:CA:9855, V-A:GLY:453:C:4039, V-A:GLY:454:CA:4046, V-A:GLU:543:CG:4905, V-A:ASP:366:CG:3210, V-B:HIS:456:CE1:9040, V-B:GLU:543:CD:9880, V-B:GLU:543:CB:9878, V-B:GLU:543:CG:9879, V-A:HIS:456:CE1:4066, V-A:GLU:543:CD:4906, V-B:GLY:544:C:9884, V-A:ARG:545:CZ:4924, V-A:ARG:545:CG:4920, H-A:GLY:454:N:4047, V-A:ARG:545:CD:4921, H-A:HIS:456:NE2:4067, H-B:HIS:456:NE2:9041, V-A:GLY:453:CA:4041, V-A:GLY:544:C:4910, H-A:TYR:484:OH:4345, H-A:ARG:545:NE:4922, V-A:GLY:544:CA:4912, V-A:GLU:543:C:4900, V-B:HIS:456:CD2:9039, V-B:HIS:456:CG:9037, V-A:LYS:547:CE:4948, V-B:GLY:544:CA:9886, H-B:LYS:547:NZ:9923, H-A:LYS:547:NZ:4949, V-B:HIS:456:CB:9036, H-B:GLU:543:O:9875, H-A:ILE:455:N:4052"]

$$$$
3ad_Grossjean_2025
     RDKit          3D

 43 45  0  0  0  0  0  0  0  0999 V2000
  131.6560  127.2830   74.2060 N   0  0  0  0  0  0  0  0  0  0  0  0
  131.1410  126.2660   74.0090 C   0  0  0  0  0  0  0  0  0  0  0  0
  130.4910  124.9750   73.7620 C   0  0  0  0  0  0  0  0  0  0  0  0
  131.0690  123.7710   74.2330 C   0  0  0  0  0  0  0  0  0  0  0  0
  132.3690  123.7400   75.0590 C   0  0  0  0  0  0  0  0  0  0  0  0
  132.1610  123.4370   76.3420 F   0  0  0  0  0  0  0  0  0  0  0  0
  133.2030  122.8260   74.5600 F   0  0  0  0  0  0  0  0  0  0  0  0
  132.9650  124.9330   75.0230 F   0  0  0  0  0  0  0  0  0  0  0  0
  130.4320  122.5590   73.9300 C   0  0  0  0  0  0  0  0  0  0  0  0
  129.2540  122.5470   73.1750 C   0  0  0  0  0  0  0  0  0  0  0  0
  128.5410  121.2790   72.8100 C   0  0  0  0  0  0  0  0  0  0  0  0
  128.1960  120.3410   73.7950 C   0  0  0  0  0  0  0  0  0  0  0  0
  127.5330  119.1630   73.4630 C   0  0  0  0  0  0  0  0  0  0  0  0
  127.2050  118.9070   72.1350 C   0  0  0  0  0  0  0  0  0  0  0  0
  127.5330  119.8220   71.1400 C   0  0  0  0  0  0  0  0  0  0  0  0
  128.1950  121.0000   71.4770 C   0  0  0  0  0  0  0  0  0  0  0  0
  128.7070  123.7030   72.7210 N   0  0  0  0  0  0  0  0  0  0  0  0
  129.2930  124.8870   73.0190 C   0  0  0  0  0  0  0  0  0  0  0  0
  128.4330  126.2960   72.3530 S   0  0  0  0  0  0  0  0  0  0  0  0
  129.6280  127.6630   72.2600 C   0  0  0  0  0  0  0  0  0  0  0  0
  129.2160  128.8500   73.1330 C   0  0  0  0  0  0  0  0  0  0  0  0
  128.4950  128.6530   74.1110 O   0  0  0  0  0  0  0  0  0  0  0  0
  129.6950  130.0510   72.7410 N   0  0  0  0  0  0  0  0  0  0  0  0
  129.5210  131.3220   73.3180 C   0  0  0  0  0  0  0  0  0  0  0  0
  130.0580  132.3930   72.5980 C   0  0  0  0  0  0  0  0  0  0  0  0
  129.9450  133.6930   73.0820 C   0  0  0  0  0  0  0  0  0  0  0  0
  129.2980  133.9250   74.2920 C   0  0  0  0  0  0  0  0  0  0  0  0
  128.7640  132.8680   75.0230 C   0  0  0  0  0  0  0  0  0  0  0  0
  128.8750  131.5650   74.5430 C   0  0  0  0  0  0  0  0  0  0  0  0
  130.8612  121.6116   74.2882 H   0  0  0  0  0  0  0  0  0  0  0  0
  128.4535  120.5397   74.8458 H   0  0  0  0  0  0  0  0  0  0  0  0
  127.2695  118.4376   74.2468 H   0  0  0  0  0  0  0  0  0  0  0  0
  126.6832  117.9754   71.8706 H   0  0  0  0  0  0  0  0  0  0  0  0
  127.2707  119.6161   70.0918 H   0  0  0  0  0  0  0  0  0  0  0  0
  128.4508  121.7226   70.6881 H   0  0  0  0  0  0  0  0  0  0  0  0
  130.6098  127.2990   72.5971 H   0  0  0  0  0  0  0  0  0  0  0  0
  129.6663  128.0082   71.2163 H   0  0  0  0  0  0  0  0  0  0  0  0
  130.2300  130.0570   71.8850 H   0  0  0  0  0  0  0  0  0  0  0  0
  130.5727  132.2074   71.6437 H   0  0  0  0  0  0  0  0  0  0  0  0
  130.3654  134.5336   72.5104 H   0  0  0  0  0  0  0  0  0  0  0  0
  129.2079  134.9526   74.6739 H   0  0  0  0  0  0  0  0  0  0  0  0
  128.2548  133.0612   75.9787 H   0  0  0  0  0  0  0  0  0  0  0  0
  128.4579  130.7275   75.1214 H   0  0  0  0  0  0  0  0  0  0  0  0
  1  2  3  0
  2  3  1  0
  3  4  2  0
  4  5  1  0
  5  6  1  0
  5  7  1  0
  5  8  1  0
  4  9  1  0
  9 10  2  0
 10 11  1  0
 11 12  2  0
 12 13  1  0
 13 14  2  0
 14 15  1  0
 15 16  2  0
 10 17  1  0
 17 18  2  0
 18 19  1  0
 19 20  1  0
 20 21  1  0
 21 22  2  0
 21 23  1  0
 23 24  1  0
 24 25  2  0
 25 26  1  0
 26 27  2  0
 27 28  1  0
 28 29  2  0
 18  3  1  0
 29 24  1  0
 16 11  1  0
  9 30  1  0
 12 31  1  0
 13 32  1  0
 14 33  1  0
 15 34  1  0
 16 35  1  0
 20 36  1  0
 20 37  1  0
 23 38  1  0
 25 39  1  0
 26 40  1  0
 27 41  1  0
 28 42  1  0
 29 43  1  0
M  END
>  <Binding energies>  (1) 
[-7.33]

>  <Ligand effiencies>  (1) 
[-0.24433333333333335]

>  <Interactions>  (1) 
["V-B:GLU:543:C:9874, V-A:HIS:456:CD2:4065, H-A:HIS:456:NE2:4067, V-A:GLY:544:CA:4912, V-A:GLU:543:C:4900, V-B:HIS:456:CD2:9039, V-A:HIS:456:CA:4060, V-A:HIS:456:C:4058, V-A:LYS:547:CE:4948, V-B:GLY:544:CA:9886, V-A:HIS:456:CG:4063, H-B:LYS:547:NZ:9923, H-A:GLY:544:O:4911, V-A:LYS:471:CD:4216, V-A:HIS:456:CB:4062, H-A:LYS:547:NZ:4949, V-B:LYS:547:CE:9922, V-A:ASP:473:CG:4237, V-B:TYR:484:CB:9312, H-B:GLY:544:N:9887, V-B:VAL:542:CG1:9871, V-A:TYR:484:CG:4339, V-A:TYR:484:CA:4336, V-B:GLU:543:CA:9876, V-B:VAL:542:C:9866, V-A:TYR:484:CB:4338, V-A:TYR:484:CD2:4341, V-A:LYS:471:CE:4217, H-A:GLU:543:O:4901, V-A:ASP:473:CB:4236"]

$$$$
3af_Grossjean_2025
     RDKit          3D

 42 44  0  0  0  0  0  0  0  0999 V2000
  124.1100  130.1090   64.0010 N   0  0  0  0  0  0  0  0  0  0  0  0
  124.9470  130.4200   63.2650 C   0  0  0  0  0  0  0  0  0  0  0  0
  126.0070  130.8160   62.3340 C   0  0  0  0  0  0  0  0  0  0  0  0
  125.9850  132.0880   61.7140 C   0  0  0  0  0  0  0  0  0  0  0  0
  124.8970  133.1400   62.0080 C   0  0  0  0  0  0  0  0  0  0  0  0
  124.7070  133.3360   63.3150 F   0  0  0  0  0  0  0  0  0  0  0  0
  125.2390  134.3110   61.4710 F   0  0  0  0  0  0  0  0  0  0  0  0
  123.7310  132.7500   61.4910 F   0  0  0  0  0  0  0  0  0  0  0  0
  126.9920  132.4010   60.7870 C   0  0  0  0  0  0  0  0  0  0  0  0
  127.9900  131.4680   60.4870 C   0  0  0  0  0  0  0  0  0  0  0  0
  129.0780  131.7420   59.4920 C   0  0  0  0  0  0  0  0  0  0  0  0
  128.7800  132.2990   58.2380 C   0  0  0  0  0  0  0  0  0  0  0  0
  129.7860  132.5580   57.3110 C   0  0  0  0  0  0  0  0  0  0  0  0
  131.1080  132.2630   57.6270 C   0  0  0  0  0  0  0  0  0  0  0  0
  131.4310  131.7140   58.8640 C   0  0  0  0  0  0  0  0  0  0  0  0
  130.4220  131.4570   59.7880 C   0  0  0  0  0  0  0  0  0  0  0  0
  128.0050  130.2480   61.0810 N   0  0  0  0  0  0  0  0  0  0  0  0
  127.0570  129.9310   61.9960 C   0  0  0  0  0  0  0  0  0  0  0  0
  127.2500  128.2960   62.6760 S   0  0  0  0  0  0  0  0  0  0  0  0
  128.9760  128.1130   63.2180 C   0  0  0  0  0  0  0  0  0  0  0  0
  129.5370  126.7340   62.8740 C   0  0  0  0  0  0  0  0  0  0  0  0
  129.0910  126.1330   61.8960 O   0  0  0  0  0  0  0  0  0  0  0  0
  130.4980  126.2760   63.7050 N   0  0  0  0  0  0  0  0  0  0  0  0
  131.2060  125.0590   63.6750 C   0  0  0  0  0  0  0  0  0  0  0  0
  130.6320  123.7740   63.6710 C   0  0  0  0  0  0  0  0  0  0  0  0
  131.4580  122.6490   63.6420 C   0  0  0  0  0  0  0  0  0  0  0  0
  132.8410  122.8340   63.6180 C   0  0  0  0  0  0  0  0  0  0  0  0
  133.4190  124.0610   63.6200 N   0  0  0  0  0  0  0  0  0  0  0  0
  132.6030  125.1450   63.6490 C   0  0  0  0  0  0  0  0  0  0  0  0
  126.9961  133.3845   60.2944 H   0  0  0  0  0  0  0  0  0  0  0  0
  127.7359  132.5343   57.9841 H   0  0  0  0  0  0  0  0  0  0  0  0
  129.5363  132.9942   56.3326 H   0  0  0  0  0  0  0  0  0  0  0  0
  131.9032  132.4650   56.8943 H   0  0  0  0  0  0  0  0  0  0  0  0
  132.4781  131.4843   59.1105 H   0  0  0  0  0  0  0  0  0  0  0  0
  130.6808  131.0239   60.7655 H   0  0  0  0  0  0  0  0  0  0  0  0
  129.5882  128.8802   62.7213 H   0  0  0  0  0  0  0  0  0  0  0  0
  129.0047  128.2301   64.3114 H   0  0  0  0  0  0  0  0  0  0  0  0
  130.7620  126.8900   64.4600 H   0  0  0  0  0  0  0  0  0  0  0  0
  129.5384  123.6568   63.6906 H   0  0  0  0  0  0  0  0  0  0  0  0
  131.0273  121.6368   63.6381 H   0  0  0  0  0  0  0  0  0  0  0  0
  133.4904  121.9464   63.5965 H   0  0  0  0  0  0  0  0  0  0  0  0
  133.0636  126.1439   63.6522 H   0  0  0  0  0  0  0  0  0  0  0  0
  1  2  3  0
  2  3  1  0
  3  4  2  0
  4  5  1  0
  5  6  1  0
  5  7  1  0
  5  8  1  0
  4  9  1  0
  9 10  2  0
 10 11  1  0
 11 12  2  0
 12 13  1  0
 13 14  2  0
 14 15  1  0
 15 16  2  0
 10 17  1  0
 17 18  2  0
 18 19  1  0
 19 20  1  0
 20 21  1  0
 21 22  2  0
 21 23  1  0
 23 24  1  0
 24 25  2  0
 25 26  1  0
 26 27  2  0
 27 28  1  0
 28 29  2  0
 18  3  1  0
 29 24  1  0
 16 11  1  0
  9 30  1  0
 12 31  1  0
 13 32  1  0
 14 33  1  0
 15 34  1  0
 16 35  1  0
 20 36  1  0
 20 37  1  0
 23 38  1  0
 25 39  1  0
 26 40  1  0
 27 41  1  0
 29 42  1  0
M  END
>  <Binding energies>  (1) 
[-6.93]

>  <Ligand effiencies>  (1) 
[-0.23099999999999998]

>  <Interactions>  (1) 
["V-B:LEU:475:CD2:9230, V-A:TYR:539:CZ:4875, V-B:GLY:454:CA:9020, V-B:ILE:369:CG2:8208, V-A:TYR:539:CE1:4873, V-B:ILE:369:CD1:8210, V-A:TYR:539:CD1:4871, V-A:PRO:540:CB:4883, V-A:PRO:540:CD:4885, V-A:PRO:540:CA:4881, V-A:PRO:540:N:4882, V-A:TYR:539:C:4865, V-A:LEU:475:CD2:4256, V-A:GLY:454:CA:4046, H-B:ARG:545:NH2:9900, V-B:GLU:543:CD:9880, H-A:GLU:543:OE2:4908, H-B:GLY:454:N:9021, V-A:GLU:543:CD:4906, V-B:ILE:369:CG1:8209, V-B:ILE:369:CB:8207, V-A:ARG:545:CZ:4924, H-A:GLY:454:N:4047, V-A:TYR:539:CG:4870, H-B:ARG:545:NH1:9899, H-A:TYR:484:OH:4345"]

$$$$
3ag_Grossjean_2025
     RDKit          3D

 46 48  0  0  0  0  0  0  0  0999 V2000
  127.9620  126.5870   62.3100 N   0  0  0  0  0  0  0  0  0  0  0  0
  128.4790  125.5780   62.0770 C   0  0  0  0  0  0  0  0  0  0  0  0
  129.1310  124.2990   61.7800 C   0  0  0  0  0  0  0  0  0  0  0  0
  128.5140  123.3530   60.9260 C   0  0  0  0  0  0  0  0  0  0  0  0
  127.1710  123.6220   60.2190 C   0  0  0  0  0  0  0  0  0  0  0  0
  127.0710  124.8690   59.7560 F   0  0  0  0  0  0  0  0  0  0  0  0
  127.0310  122.7950   59.1830 F   0  0  0  0  0  0  0  0  0  0  0  0
  126.1590  123.4290   61.0660 F   0  0  0  0  0  0  0  0  0  0  0  0
  129.1530  122.1210   60.7160 C   0  0  0  0  0  0  0  0  0  0  0  0
  130.3680  121.8380   61.3500 C   0  0  0  0  0  0  0  0  0  0  0  0
  131.0920  120.5390   61.1630 C   0  0  0  0  0  0  0  0  0  0  0  0
  132.4500  120.5210   60.8090 C   0  0  0  0  0  0  0  0  0  0  0  0
  133.1290  119.3180   60.6340 C   0  0  0  0  0  0  0  0  0  0  0  0
  132.4570  118.1130   60.8110 C   0  0  0  0  0  0  0  0  0  0  0  0
  131.1090  118.1040   61.1590 C   0  0  0  0  0  0  0  0  0  0  0  0
  130.4340  119.3080   61.3320 C   0  0  0  0  0  0  0  0  0  0  0  0
  130.9630  122.7530   62.1580 N   0  0  0  0  0  0  0  0  0  0  0  0
  130.3730  123.9560   62.3590 C   0  0  0  0  0  0  0  0  0  0  0  0
  131.2950  125.0260   63.4420 S   0  0  0  0  0  0  0  0  0  0  0  0
  130.8580  124.5770   65.1480 C   0  0  0  0  0  0  0  0  0  0  0  0
  131.3400  125.6170   66.1610 C   0  0  0  0  0  0  0  0  0  0  0  0
  132.5480  125.7880   66.3380 O   0  0  0  0  0  0  0  0  0  0  0  0
  130.3860  126.3050   66.8110 N   0  0  0  0  0  0  0  0  0  0  0  0
  130.6210  127.3660   67.7900 C   0  0  0  0  0  0  0  0  0  0  0  0
  129.7100  127.2990   69.0100 C   0  0  0  0  0  0  0  0  0  0  0  0
  130.2300  127.5590   70.2810 C   0  0  0  0  0  0  0  0  0  0  0  0
  129.3950  127.5280   71.3940 C   0  0  0  0  0  0  0  0  0  0  0  0
  128.0400  127.2490   71.2320 C   0  0  0  0  0  0  0  0  0  0  0  0
  127.5110  127.0040   69.9670 C   0  0  0  0  0  0  0  0  0  0  0  0
  128.3460  127.0350   68.8530 C   0  0  0  0  0  0  0  0  0  0  0  0
  128.6964  121.3742   60.0497 H   0  0  0  0  0  0  0  0  0  0  0  0
  132.9858  121.4712   60.6677 H   0  0  0  0  0  0  0  0  0  0  0  0
  134.1935  119.3205   60.3567 H   0  0  0  0  0  0  0  0  0  0  0  0
  132.9934  117.1623   60.6753 H   0  0  0  0  0  0  0  0  0  0  0  0
  130.5802  117.1493   61.2965 H   0  0  0  0  0  0  0  0  0  0  0  0
  129.3686  119.2968   61.6054 H   0  0  0  0  0  0  0  0  0  0  0  0
  129.7639  124.4906   65.2224 H   0  0  0  0  0  0  0  0  0  0  0  0
  131.3519  123.6226   65.3830 H   0  0  0  0  0  0  0  0  0  0  0  0
  129.4190  126.1060   66.5970 H   0  0  0  0  0  0  0  0  0  0  0  0
  131.6637  127.2949   68.1330 H   0  0  0  0  0  0  0  0  0  0  0  0
  130.4045  128.3185   67.2841 H   0  0  0  0  0  0  0  0  0  0  0  0
  131.2991  127.7881   70.4016 H   0  0  0  0  0  0  0  0  0  0  0  0
  129.8031  127.7229   72.3967 H   0  0  0  0  0  0  0  0  0  0  0  0
  127.3808  127.2219   72.1122 H   0  0  0  0  0  0  0  0  0  0  0  0
  126.4391  126.7871   69.8486 H   0  0  0  0  0  0  0  0  0  0  0  0
  127.9327  126.8519   67.8502 H   0  0  0  0  0  0  0  0  0  0  0  0
  1  2  3  0
  2  3  1  0
  3  4  2  0
  4  5  1  0
  5  6  1  0
  5  7  1  0
  5  8  1  0
  4  9  1  0
  9 10  2  0
 10 11  1  0
 11 12  2  0
 12 13  1  0
 13 14  2  0
 14 15  1  0
 15 16  2  0
 10 17  1  0
 17 18  2  0
 18 19  1  0
 19 20  1  0
 20 21  1  0
 21 22  2  0
 21 23  1  0
 23 24  1  0
 24 25  1  0
 25 26  2  0
 26 27  1  0
 27 28  2  0
 28 29  1  0
 29 30  2  0
 18  3  1  0
 30 25  1  0
 16 11  1  0
  9 31  1  0
 12 32  1  0
 13 33  1  0
 14 34  1  0
 15 35  1  0
 16 36  1  0
 20 37  1  0
 20 38  1  0
 23 39  1  0
 24 40  1  0
 24 41  1  0
 26 42  1  0
 27 43  1  0
 28 44  1  0
 29 45  1  0
 30 46  1  0
M  END
>  <Binding energies>  (1) 
[-7.59]

>  <Ligand effiencies>  (1) 
[-0.24483870967741936]

>  <Interactions>  (1) 
["V-B:PRO:540:C:9853, V-B:TYR:539:CE1:9847, V-B:TYR:539:C:9839, V-B:PRO:540:N:9856, V-B:PRO:540:CA:9855, V-A:LEU:475:CD2:4256, V-B:TYR:539:CD1:9845, V-A:GLU:543:CG:4905, H-B:GLU:543:OE1:9881, H-B:ARG:545:NH2:9900, V-A:ILE:369:CG2:3234, V-B:HIS:456:CE1:9040, H-B:GLU:543:OE2:9882, V-B:GLU:543:CD:9880, V-B:GLU:543:CB:9878, V-B:GLU:543:CG:9879, V-A:HIS:456:CE1:4066, H-A:GLU:543:OE2:4908, V-A:TYR:484:CZ:4344, V-A:GLU:543:CD:4906, V-B:GLU:543:C:9874, V-B:GLY:544:C:9884, V-A:SER:385:CA:3404, V-B:PRO:540:CB:9857, V-B:ALA:541:CB:9864, V-A:GLY:544:C:4910, H-A:TYR:484:OH:4345, H-A:ARG:545:NE:4922, V-A:SER:385:CB:3406, V-A:LEU:373:CD1:3277, V-A:PRO:482:CB:4323, V-A:PRO:482:CG:4324, V-A:GLU:543:C:4900, V-B:HIS:456:CD2:9039, V-B:GLY:544:CA:9886"]

$$$$
3ai_Grossjean_2025
     RDKit          3D

 39 41  0  0  0  0  0  0  0  0999 V2000
  129.1810  126.3130   62.4340 N   0  0  0  0  0  0  0  0  0  0  0  0
  129.5860  125.2480   62.2300 C   0  0  0  0  0  0  0  0  0  0  0  0
  130.0990  123.8990   61.9730 C   0  0  0  0  0  0  0  0  0  0  0  0
  131.4220  123.5460   62.3360 C   0  0  0  0  0  0  0  0  0  0  0  0
  132.3760  124.5220   63.0520 C   0  0  0  0  0  0  0  0  0  0  0  0
  131.9050  124.9330   64.2320 F   0  0  0  0  0  0  0  0  0  0  0  0
  133.5510  123.9300   63.2720 F   0  0  0  0  0  0  0  0  0  0  0  0
  132.5710  125.6060   62.3020 F   0  0  0  0  0  0  0  0  0  0  0  0
  131.8820  122.2580   62.0250 C   0  0  0  0  0  0  0  0  0  0  0  0
  131.0470  121.3480   61.3680 C   0  0  0  0  0  0  0  0  0  0  0  0
  131.4890  119.9630   61.0010 C   0  0  0  0  0  0  0  0  0  0  0  0
  130.5800  118.8930   61.0180 C   0  0  0  0  0  0  0  0  0  0  0  0
  130.9830  117.6050   60.6750 C   0  0  0  0  0  0  0  0  0  0  0  0
  132.3030  117.3700   60.3070 C   0  0  0  0  0  0  0  0  0  0  0  0
  133.2230  118.4130   60.2790 C   0  0  0  0  0  0  0  0  0  0  0  0
  132.8170  119.7000   60.6230 C   0  0  0  0  0  0  0  0  0  0  0  0
  129.7830  121.6930   61.0140 N   0  0  0  0  0  0  0  0  0  0  0  0
  129.3080  122.9230   61.3250 C   0  0  0  0  0  0  0  0  0  0  0  0
  127.6260  123.1870   60.8030 S   0  0  0  0  0  0  0  0  0  0  0  0
  127.6550  123.6810   59.0470 C   0  0  0  0  0  0  0  0  0  0  0  0
  129.0300  123.5850   58.3690 C   0  0  0  0  0  0  0  0  0  0  0  0
  129.1900  122.8890   57.3640 O   0  0  0  0  0  0  0  0  0  0  0  0
  130.0040  124.3110   58.9630 N   0  0  0  0  0  0  0  0  0  0  0  0
  131.3320  124.4190   58.5700 C   0  0  0  0  0  0  0  0  0  0  0  0
  131.7750  125.3490   57.6300 C   0  0  0  0  0  0  0  0  0  0  0  0
  133.1290  125.1310   57.5210 C   0  0  0  0  0  0  0  0  0  0  0  0
  133.4840  124.1230   58.3530 O   0  0  0  0  0  0  0  0  0  0  0  0
  132.3360  123.6800   59.0120 N   0  0  0  0  0  0  0  0  0  0  0  0
  132.9052  121.9617   62.2993 H   0  0  0  0  0  0  0  0  0  0  0  0
  129.5342  119.0749   61.3065 H   0  0  0  0  0  0  0  0  0  0  0  0
  130.2597  116.7765   60.6951 H   0  0  0  0  0  0  0  0  0  0  0  0
  132.6219  116.3527   60.0362 H   0  0  0  0  0  0  0  0  0  0  0  0
  134.2661  118.2222   59.9866 H   0  0  0  0  0  0  0  0  0  0  0  0
  133.5465  120.5230   60.5985 H   0  0  0  0  0  0  0  0  0  0  0  0
  126.9576  123.0312   58.4980 H   0  0  0  0  0  0  0  0  0  0  0  0
  127.3729  124.7439   59.0216 H   0  0  0  0  0  0  0  0  0  0  0  0
  129.7510  124.8420   59.7840 H   0  0  0  0  0  0  0  0  0  0  0  0
  131.1722  126.0955   57.0920 H   0  0  0  0  0  0  0  0  0  0  0  0
  133.8137  125.6865   56.8633 H   0  0  0  0  0  0  0  0  0  0  0  0
  1  2  3  0
  2  3  1  0
  3  4  2  0
  4  5  1  0
  5  6  1  0
  5  7  1  0
  5  8  1  0
  4  9  1  0
  9 10  2  0
 10 11  1  0
 11 12  2  0
 12 13  1  0
 13 14  2  0
 14 15  1  0
 15 16  2  0
 10 17  1  0
 17 18  2  0
 18 19  1  0
 19 20  1  0
 20 21  1  0
 21 22  2  0
 21 23  1  0
 23 24  1  0
 24 25  1  0
 25 26  2  0
 26 27  1  0
 27 28  1  0
 18  3  1  0
 28 24  2  0
 16 11  1  0
  9 29  1  0
 12 30  1  0
 13 31  1  0
 14 32  1  0
 15 33  1  0
 16 34  1  0
 20 35  1  0
 20 36  1  0
 23 37  1  0
 25 38  1  0
 26 39  1  0
M  END
>  <Binding energies>  (1) 
[-6.78]

>  <Ligand effiencies>  (1) 
[-0.23379310344827586]

>  <Interactions>  (1) 
["V-B:TYR:539:CE1:9847, H-B:ALA:541:N:9863, V-A:GLY:453:C:4039, V-A:LEU:475:CD2:4256, V-B:TYR:539:CD1:9845, V-A:GLY:454:CA:4046, V-A:ASP:366:CG:3210, V-A:ILE:369:CG2:3234, V-B:GLU:543:CD:9880, V-A:ASP:366:CA:3207, V-A:ASP:366:CB:3209, V-A:ARG:545:CZ:4924, V-A:SER:385:CA:3404, V-B:ALA:541:CB:9864, V-B:TYR:539:CZ:9849, V-A:ASP:366:C:3205, H-B:TYR:539:OH:9850, V-A:SER:385:CB:3406, V-A:LEU:373:CD1:3277, V-A:PRO:482:CB:4323, V-A:PRO:482:CG:4324, V-B:TYR:539:CB:9843"]

$$$$
3aj_Grossjean_2025
     RDKit          3D

 39 41  0  0  0  0  0  0  0  0999 V2000
  131.5360  127.4060   61.0000 N   0  0  0  0  0  0  0  0  0  0  0  0
  131.5540  126.2500   61.0450 C   0  0  0  0  0  0  0  0  0  0  0  0
  131.5780  124.7860   61.1050 C   0  0  0  0  0  0  0  0  0  0  0  0
  132.2120  124.1150   62.1790 C   0  0  0  0  0  0  0  0  0  0  0  0
  132.8690  124.8640   63.3550 C   0  0  0  0  0  0  0  0  0  0  0  0
  134.0430  125.4100   63.0300 F   0  0  0  0  0  0  0  0  0  0  0  0
  132.0700  125.8450   63.7740 F   0  0  0  0  0  0  0  0  0  0  0  0
  133.0870  124.0220   64.3660 F   0  0  0  0  0  0  0  0  0  0  0  0
  132.2490  122.7120   62.1650 C   0  0  0  0  0  0  0  0  0  0  0  0
  131.6720  122.0000   61.1080 C   0  0  0  0  0  0  0  0  0  0  0  0
  131.6920  120.5030   61.0390 C   0  0  0  0  0  0  0  0  0  0  0  0
  130.5430  119.7580   61.3430 C   0  0  0  0  0  0  0  0  0  0  0  0
  130.5520  118.3660   61.2760 C   0  0  0  0  0  0  0  0  0  0  0  0
  131.7170  117.7010   60.9050 C   0  0  0  0  0  0  0  0  0  0  0  0
  132.8690  118.4180   60.5970 C   0  0  0  0  0  0  0  0  0  0  0  0
  132.8540  119.8080   60.6630 C   0  0  0  0  0  0  0  0  0  0  0  0
  131.0720  122.6480   60.0770 N   0  0  0  0  0  0  0  0  0  0  0  0
  131.0030  124.0000   60.0790 C   0  0  0  0  0  0  0  0  0  0  0  0
  130.1610  124.6700   58.6620 S   0  0  0  0  0  0  0  0  0  0  0  0
  129.2510  123.3090   57.8560 C   0  0  0  0  0  0  0  0  0  0  0  0
  127.8840  122.9850   58.4770 C   0  0  0  0  0  0  0  0  0  0  0  0
  127.1070  122.2050   57.9220 O   0  0  0  0  0  0  0  0  0  0  0  0
  127.6310  123.6170   59.6450 N   0  0  0  0  0  0  0  0  0  0  0  0
  126.4830  123.5010   60.4180 C   0  0  0  0  0  0  0  0  0  0  0  0
  126.4000  123.3060   61.7170 N   0  0  0  0  0  0  0  0  0  0  0  0
  125.1460  123.2510   62.1200 C   0  0  0  0  0  0  0  0  0  0  0  0
  124.1750  123.4020   61.1340 C   0  0  0  0  0  0  0  0  0  0  0  0
  124.9590  123.6280   59.5990 S   0  0  0  0  0  0  0  0  0  0  0  0
  132.7343  122.1693   62.9896 H   0  0  0  0  0  0  0  0  0  0  0  0
  129.6211  120.2803   61.6387 H   0  0  0  0  0  0  0  0  0  0  0  0
  129.6425  117.7955   61.5153 H   0  0  0  0  0  0  0  0  0  0  0  0
  131.7271  116.6022   60.8550 H   0  0  0  0  0  0  0  0  0  0  0  0
  133.7872  117.8886   60.3027 H   0  0  0  0  0  0  0  0  0  0  0  0
  133.7661  120.3715   60.4170 H   0  0  0  0  0  0  0  0  0  0  0  0
  129.0911  123.5822   56.8025 H   0  0  0  0  0  0  0  0  0  0  0  0
  129.8685  122.4078   57.9845 H   0  0  0  0  0  0  0  0  0  0  0  0
  128.3450  124.2300   60.0080 H   0  0  0  0  0  0  0  0  0  0  0  0
  124.8817  123.0945   63.1763 H   0  0  0  0  0  0  0  0  0  0  0  0
  123.0877  123.3816   61.2994 H   0  0  0  0  0  0  0  0  0  0  0  0
  1  2  3  0
  2  3  1  0
  3  4  2  0
  4  5  1  0
  5  6  1  0
  5  7  1  0
  5  8  1  0
  4  9  1  0
  9 10  2  0
 10 11  1  0
 11 12  2  0
 12 13  1  0
 13 14  2  0
 14 15  1  0
 15 16  2  0
 10 17  1  0
 17 18  2  0
 18 19  1  0
 19 20  1  0
 20 21  1  0
 21 22  2  0
 21 23  1  0
 23 24  1  0
 24 25  2  0
 25 26  1  0
 26 27  2  0
 27 28  1  0
 18  3  1  0
 28 24  1  0
 16 11  1  0
  9 29  1  0
 12 30  1  0
 13 31  1  0
 14 32  1  0
 15 33  1  0
 16 34  1  0
 20 35  1  0
 20 36  1  0
 23 37  1  0
 26 38  1  0
 27 39  1  0
M  END
>  <Binding energies>  (1) 
[-6.99]

>  <Ligand effiencies>  (1) 
[-0.2410344827586207]

>  <Interactions>  (1) 
["V-B:PRO:540:C:9853, V-B:TYR:539:CE1:9847, V-B:TYR:539:C:9839, V-B:PRO:540:N:9856, H-B:ALA:541:N:9863, V-B:PRO:540:CA:9855, V-A:GLY:453:C:4039, V-A:LEU:475:CD2:4256, V-B:TYR:539:CD1:9845, V-A:GLY:454:CA:4046, V-A:ASP:366:CG:3210, V-A:ILE:369:CG2:3234, H-A:ARG:545:NH2:4926, V-A:ARG:545:CZ:4924, V-A:SER:385:CA:3404, V-B:PRO:540:CB:9857, V-B:ALA:541:CB:9864, V-B:TYR:539:CZ:9849, V-A:GLY:453:CA:4041, V-B:ASN:362:CB:8147, V-A:SER:385:CB:3406, V-A:LEU:373:CD1:3277, V-A:PRO:482:CB:4323, V-A:PRO:482:CG:4324, V-B:ASN:362:C:8143, V-B:ALA:541:C:9860, H-B:TYR:539:N:9842"]

$$$$
3ak_Grossjean_2025
     RDKit          3D

 57 58  0  0  0  0  0  0  0  0999 V2000
  131.0850  123.8630   74.5320 C   0  0  0  0  0  0  0  0  0  0  0  0
  130.5060  125.1510   74.3950 O   0  0  0  0  0  0  0  0  0  0  0  0
  131.4010  126.1190   73.8660 C   0  0  0  0  0  0  0  0  0  0  0  0
  130.6550  126.9830   72.8420 C   0  0  0  0  0  0  0  0  0  0  0  0
  129.2590  126.7270   72.9510 O   0  0  0  0  0  0  0  0  0  0  0  0
  128.4870  127.0220   71.7890 C   0  0  0  0  0  0  0  0  0  0  0  0
  129.3360  127.3060   70.5370 C   0  0  0  0  0  0  0  0  0  0  0  0
  128.5220  127.1680   69.3800 O   0  0  0  0  0  0  0  0  0  0  0  0
  129.0010  127.8870   68.2500 C   0  0  0  0  0  0  0  0  0  0  0  0
  130.3540  127.3150   67.7910 C   0  0  0  0  0  0  0  0  0  0  0  0
  130.2300  126.1630   66.8970 N   0  0  0  0  0  0  0  0  0  0  0  0
  131.1900  125.6920   66.0770 C   0  0  0  0  0  0  0  0  0  0  0  0
  132.3130  126.1930   66.0090 O   0  0  0  0  0  0  0  0  0  0  0  0
  130.8740  124.4790   65.1860 C   0  0  0  0  0  0  0  0  0  0  0  0
  131.9460  124.2380   63.7220 S   0  0  0  0  0  0  0  0  0  0  0  0
  131.0360  123.3200   62.4890 C   0  0  0  0  0  0  0  0  0  0  0  0
  131.5230  122.0900   62.1960 N   0  0  0  0  0  0  0  0  0  0  0  0
  130.9040  121.3180   61.2670 C   0  0  0  0  0  0  0  0  0  0  0  0
  131.5100  119.9720   61.0050 C   0  0  0  0  0  0  0  0  0  0  0  0
  132.8550  119.8520   60.6240 C   0  0  0  0  0  0  0  0  0  0  0  0
  133.4250  118.6040   60.3840 C   0  0  0  0  0  0  0  0  0  0  0  0
  132.6530  117.4560   60.5230 C   0  0  0  0  0  0  0  0  0  0  0  0
  131.3190  117.5460   60.9020 C   0  0  0  0  0  0  0  0  0  0  0  0
  130.7530  118.7950   61.1430 C   0  0  0  0  0  0  0  0  0  0  0  0
  129.7510  121.7690   60.6140 C   0  0  0  0  0  0  0  0  0  0  0  0
  129.2250  123.0370   60.9000 C   0  0  0  0  0  0  0  0  0  0  0  0
  127.9560  123.5000   60.1580 C   0  0  0  0  0  0  0  0  0  0  0  0
  128.1870  124.6530   59.5320 F   0  0  0  0  0  0  0  0  0  0  0  0
  127.5930  122.5840   59.2580 F   0  0  0  0  0  0  0  0  0  0  0  0
  126.9180  123.6890   60.9760 F   0  0  0  0  0  0  0  0  0  0  0  0
  129.8820  123.8400   61.8630 C   0  0  0  0  0  0  0  0  0  0  0  0
  129.3770  125.1750   62.2020 C   0  0  0  0  0  0  0  0  0  0  0  0
  128.9800  126.2290   62.4690 N   0  0  0  0  0  0  0  0  0  0  0  0
  131.1936  123.6215   75.5997 H   0  0  0  0  0  0  0  0  0  0  0  0
  130.4360  123.1162   74.0513 H   0  0  0  0  0  0  0  0  0  0  0  0
  132.0743  123.8527   74.0513 H   0  0  0  0  0  0  0  0  0  0  0  0
  131.7788  126.7554   74.6798 H   0  0  0  0  0  0  0  0  0  0  0  0
  132.2483  125.6142   73.3789 H   0  0  0  0  0  0  0  0  0  0  0  0
  130.8520  128.0464   73.0430 H   0  0  0  0  0  0  0  0  0  0  0  0
  131.0002  126.7383   71.8266 H   0  0  0  0  0  0  0  0  0  0  0  0
  127.8345  126.1619   71.5782 H   0  0  0  0  0  0  0  0  0  0  0  0
  127.9178  127.9380   72.0056 H   0  0  0  0  0  0  0  0  0  0  0  0
  129.7341  128.3302   70.5869 H   0  0  0  0  0  0  0  0  0  0  0  0
  130.1725  126.5933   70.4879 H   0  0  0  0  0  0  0  0  0  0  0  0
  128.2732  127.8015   67.4296 H   0  0  0  0  0  0  0  0  0  0  0  0
  129.1329  128.9436   68.5262 H   0  0  0  0  0  0  0  0  0  0  0  0
  130.9054  128.1071   67.2632 H   0  0  0  0  0  0  0  0  0  0  0  0
  130.8803  126.9685   68.6926 H   0  0  0  0  0  0  0  0  0  0  0  0
  129.3410  125.6850   66.9100 H   0  0  0  0  0  0  0  0  0  0  0  0
  130.9531  123.5766   65.8100 H   0  0  0  0  0  0  0  0  0  0  0  0
  129.8687  124.6692   64.7820 H   0  0  0  0  0  0  0  0  0  0  0  0
  133.4691  120.7579   60.5131 H   0  0  0  0  0  0  0  0  0  0  0  0
  134.4810  118.5270   60.0859 H   0  0  0  0  0  0  0  0  0  0  0  0
  133.1012  116.4698   60.3317 H   0  0  0  0  0  0  0  0  0  0  0  0
  130.7130  116.6345   61.0111 H   0  0  0  0  0  0  0  0  0  0  0  0
  129.6977  118.8621   61.4459 H   0  0  0  0  0  0  0  0  0  0  0  0
  129.2549  121.1254   59.8726 H   0  0  0  0  0  0  0  0  0  0  0  0
  1  2  1  0
  2  3  1  0
  3  4  1  0
  4  5  1  0
  5  6  1  0
  6  7  1  0
  7  8  1  0
  8  9  1  0
  9 10  1  0
 10 11  1  0
 11 12  1  0
 12 13  2  0
 12 14  1  0
 14 15  1  0
 15 16  1  0
 16 17  2  0
 17 18  1  0
 18 19  1  0
 19 20  2  0
 20 21  1  0
 21 22  2  0
 22 23  1  0
 23 24  2  0
 18 25  2  0
 25 26  1  0
 26 27  1  0
 27 28  1  0
 27 29  1  0
 27 30  1  0
 26 31  2  0
 31 32  1  0
 32 33  3  0
 31 16  1  0
 24 19  1  0
  1 34  1  0
  1 35  1  0
  1 36  1  0
  3 37  1  0
  3 38  1  0
  4 39  1  0
  4 40  1  0
  6 41  1  0
  6 42  1  0
  7 43  1  0
  7 44  1  0
  9 45  1  0
  9 46  1  0
 10 47  1  0
 10 48  1  0
 11 49  1  0
 14 50  1  0
 14 51  1  0
 20 52  1  0
 21 53  1  0
 22 54  1  0
 23 55  1  0
 24 56  1  0
 25 57  1  0
M  END
>  <Binding energies>  (1) 
[-7.14]

>  <Ligand effiencies>  (1) 
[-0.21]

>  <Interactions>  (1) 
["V-B:TYR:539:CE1:9847, V-B:TYR:539:C:9839, V-B:PRO:540:N:9856, V-B:PRO:540:CA:9855, V-A:LEU:475:CD2:4256, V-B:TYR:539:CD1:9845, V-A:GLU:543:CG:4905, H-B:GLU:543:OE1:9881, V-A:ILE:369:CG2:3234, V-B:HIS:456:CE1:9040, H-B:GLU:543:OE2:9882, V-B:GLU:543:CD:9880, V-B:GLU:543:CB:9878, V-B:GLU:543:CG:9879, V-A:HIS:456:CE1:4066, H-A:GLU:543:OE2:4908, V-A:TYR:484:CZ:4344, V-A:GLU:543:CD:4906, V-B:GLY:544:C:9884, V-A:SER:385:CA:3404, V-A:HIS:456:CD2:4065, H-B:HIS:456:NE2:9041, V-A:GLY:544:C:4910, H-A:TYR:484:OH:4345, H-A:ARG:545:NE:4922, V-A:SER:385:CB:3406, V-A:LEU:373:CD1:3277, V-A:PRO:482:CB:4323, V-A:PRO:482:CG:4324, V-A:LYS:547:CE:4948, V-B:GLY:544:CA:9886, V-A:HIS:456:CG:4063, H-B:LYS:547:NZ:9923, V-A:HIS:456:CB:4062, H-B:GLU:543:O:9875"]

$$$$
3bc_Grossjean_2025
     RDKit          3D

 47 49  0  0  0  0  0  0  0  0999 V2000
  131.4610  125.7990   74.3550 C   0  0  0  0  0  0  0  0  0  0  0  0
  130.1350  126.2610   74.1270 O   0  0  0  0  0  0  0  0  0  0  0  0
  129.7800  126.6910   72.8620 C   0  0  0  0  0  0  0  0  0  0  0  0
  130.8050  127.2110   72.0720 C   0  0  0  0  0  0  0  0  0  0  0  0
  130.5440  127.6700   70.7830 C   0  0  0  0  0  0  0  0  0  0  0  0
  129.2470  127.6220   70.2700 C   0  0  0  0  0  0  0  0  0  0  0  0
  129.0830  128.0960   68.9550 N   0  0  0  0  0  0  0  0  0  0  0  0
  128.1090  127.8150   68.0630 C   0  0  0  0  0  0  0  0  0  0  0  0
  127.1390  127.0880   68.2890 O   0  0  0  0  0  0  0  0  0  0  0  0
  128.2620  128.5140   66.7040 C   0  0  0  0  0  0  0  0  0  0  0  0
  127.5460  130.1900   66.6090 S   0  0  0  0  0  0  0  0  0  0  0  0
  126.8690  130.4000   64.9780 C   0  0  0  0  0  0  0  0  0  0  0  0
  127.8020  130.6670   64.0310 N   0  0  0  0  0  0  0  0  0  0  0  0
  127.4220  130.8480   62.7390 C   0  0  0  0  0  0  0  0  0  0  0  0
  128.5130  131.1600   61.7570 C   0  0  0  0  0  0  0  0  0  0  0  0
  129.6240  130.3130   61.6270 C   0  0  0  0  0  0  0  0  0  0  0  0
  130.6400  130.5960   60.7180 C   0  0  0  0  0  0  0  0  0  0  0  0
  130.5570  131.7350   59.9240 C   0  0  0  0  0  0  0  0  0  0  0  0
  129.4670  132.5930   60.0350 C   0  0  0  0  0  0  0  0  0  0  0  0
  128.4540  132.3060   60.9460 C   0  0  0  0  0  0  0  0  0  0  0  0
  126.0770  130.7640   62.3670 C   0  0  0  0  0  0  0  0  0  0  0  0
  125.1040  130.4670   63.3280 C   0  0  0  0  0  0  0  0  0  0  0  0
  123.6480  130.3690   62.8740 C   0  0  0  0  0  0  0  0  0  0  0  0
  125.4960  130.2670   64.6690 C   0  0  0  0  0  0  0  0  0  0  0  0
  124.5020  129.9070   65.6820 C   0  0  0  0  0  0  0  0  0  0  0  0
  123.7140  129.6240   66.4810 N   0  0  0  0  0  0  0  0  0  0  0  0
  128.2130  127.0880   71.0530 C   0  0  0  0  0  0  0  0  0  0  0  0
  128.4780  126.6300   72.3410 C   0  0  0  0  0  0  0  0  0  0  0  0
  131.6458  125.7346   75.4375 H   0  0  0  0  0  0  0  0  0  0  0  0
  131.5858  124.8044   73.9019 H   0  0  0  0  0  0  0  0  0  0  0  0
  132.1768  126.5007   73.9019 H   0  0  0  0  0  0  0  0  0  0  0  0
  131.8291  127.2591   72.4706 H   0  0  0  0  0  0  0  0  0  0  0  0
  131.3626  128.0715   70.1676 H   0  0  0  0  0  0  0  0  0  0  0  0
  129.7640  128.7860   68.6720 H   0  0  0  0  0  0  0  0  0  0  0  0
  129.3361  128.5893   66.4788 H   0  0  0  0  0  0  0  0  0  0  0  0
  127.7039  127.9015   65.9805 H   0  0  0  0  0  0  0  0  0  0  0  0
  129.6934  129.4112   62.2531 H   0  0  0  0  0  0  0  0  0  0  0  0
  131.5045  129.9218   60.6282 H   0  0  0  0  0  0  0  0  0  0  0  0
  131.3578  131.9589   59.2039 H   0  0  0  0  0  0  0  0  0  0  0  0
  129.4061  133.4935   59.4061 H   0  0  0  0  0  0  0  0  0  0  0  0
  127.5943  132.9868   61.0322 H   0  0  0  0  0  0  0  0  0  0  0  0
  125.7838  130.9312   61.3200 H   0  0  0  0  0  0  0  0  0  0  0  0
  122.9913  130.3248   63.7554 H   0  0  0  0  0  0  0  0  0  0  0  0
  123.3921  131.2519   62.2699 H   0  0  0  0  0  0  0  0  0  0  0  0
  123.5127  129.4597   62.2699 H   0  0  0  0  0  0  0  0  0  0  0  0
  127.1914  127.0310   70.6491 H   0  0  0  0  0  0  0  0  0  0  0  0
  127.6625  126.2181   72.9536 H   0  0  0  0  0  0  0  0  0  0  0  0
  1  2  1  0
  2  3  1  0
  3  4  2  0
  4  5  1  0
  5  6  2  0
  6  7  1  0
  7  8  1  0
  8  9  2  0
  8 10  1  0
 10 11  1  0
 11 12  1  0
 12 13  2  0
 13 14  1  0
 14 15  1  0
 15 16  2  0
 16 17  1  0
 17 18  2  0
 18 19  1  0
 19 20  2  0
 14 21  2  0
 21 22  1  0
 22 23  1  0
 22 24  2  0
 24 25  1  0
 25 26  3  0
  6 27  1  0
 27 28  2  0
 28  3  1  0
 24 12  1  0
 20 15  1  0
  1 29  1  0
  1 30  1  0
  1 31  1  0
  4 32  1  0
  5 33  1  0
  7 34  1  0
 10 35  1  0
 10 36  1  0
 16 37  1  0
 17 38  1  0
 18 39  1  0
 19 40  1  0
 20 41  1  0
 21 42  1  0
 23 43  1  0
 23 44  1  0
 23 45  1  0
 27 46  1  0
 28 47  1  0
M  END
>  <Binding energies>  (1) 
[-8.19]

>  <Ligand effiencies>  (1) 
[-0.2824137931034483]

>  <Interactions>  (1) 
["V-B:GLY:454:CA:9020, V-B:GLY:453:C:9013, V-B:ILE:369:CD1:8210, V-A:PRO:540:CA:4881, V-A:PRO:540:N:4882, V-A:TYR:539:C:4865, V-A:GLU:543:CG:4905, V-B:GLY:453:CA:9015, V-B:HIS:456:CE1:9040, V-B:GLU:543:CD:9880, V-B:GLU:543:CG:9879, V-A:HIS:456:CE1:4066, H-A:GLU:543:OE2:4908, H-B:GLY:454:N:9021, V-A:GLU:543:CD:4906, V-A:GLU:543:CB:4904, V-B:GLU:543:C:9874, V-B:ARG:545:CZ:9898, V-B:GLY:544:C:9884, V-A:HIS:456:CD2:4065, H-B:ARG:545:NE:9896, V-B:ARG:545:CD:9895, V-A:GLY:544:C:4910, H-B:TYR:484:OH:9319, V-A:GLY:544:CA:4912, V-A:GLU:543:C:4900, V-B:GLY:544:CA:9886, V-A:HIS:456:CG:4063, H-B:LYS:547:NZ:9923, V-A:HIS:456:CB:4062, H-A:LYS:547:NZ:4949, V-B:LYS:547:CE:9922, H-B:ILE:455:N:9026, H-A:GLU:543:O:4901"]

$$$$
3bd_Grossjean_2025
     RDKit          3D

 43 45  0  0  0  0  0  0  0  0999 V2000
  124.6620  130.4100   76.4420 C   0  0  0  0  0  0  0  0  0  0  0  0
  125.8940  130.1640   75.5730 C   0  0  0  0  0  0  0  0  0  0  0  0
  126.8790  131.1570   75.5260 C   0  0  0  0  0  0  0  0  0  0  0  0
  128.0210  130.9710   74.7380 C   0  0  0  0  0  0  0  0  0  0  0  0
  129.1170  131.9910   74.6460 C   0  0  0  0  0  0  0  0  0  0  0  0
  129.6960  132.3130   73.4080 C   0  0  0  0  0  0  0  0  0  0  0  0
  130.7140  133.2570   73.3150 C   0  0  0  0  0  0  0  0  0  0  0  0
  131.1700  133.8960   74.4640 C   0  0  0  0  0  0  0  0  0  0  0  0
  130.6160  133.5930   75.7040 C   0  0  0  0  0  0  0  0  0  0  0  0
  129.5980  132.6470   75.7920 C   0  0  0  0  0  0  0  0  0  0  0  0
  128.1960  129.8270   74.0250 N   0  0  0  0  0  0  0  0  0  0  0  0
  127.2500  128.8540   74.0590 C   0  0  0  0  0  0  0  0  0  0  0  0
  127.5920  127.4080   73.0700 S   0  0  0  0  0  0  0  0  0  0  0  0
  129.3260  127.4930   72.5280 C   0  0  0  0  0  0  0  0  0  0  0  0
  130.2090  126.4930   73.2750 C   0  0  0  0  0  0  0  0  0  0  0  0
  129.7510  125.3870   73.5610 O   0  0  0  0  0  0  0  0  0  0  0  0
  131.4520  126.9250   73.5820 N   0  0  0  0  0  0  0  0  0  0  0  0
  132.4930  126.2360   74.2330 C   0  0  0  0  0  0  0  0  0  0  0  0
  132.1170  125.1150   74.9780 C   0  0  0  0  0  0  0  0  0  0  0  0
  133.0760  124.3750   75.6640 C   0  0  0  0  0  0  0  0  0  0  0  0
  134.4130  124.7620   75.6130 C   0  0  0  0  0  0  0  0  0  0  0  0
  134.7980  125.8860   74.8850 C   0  0  0  0  0  0  0  0  0  0  0  0
  133.8410  126.6270   74.1970 C   0  0  0  0  0  0  0  0  0  0  0  0
  126.0710  128.9810   74.8250 C   0  0  0  0  0  0  0  0  0  0  0  0
  125.0570  127.9220   74.8540 C   0  0  0  0  0  0  0  0  0  0  0  0
  124.2570  127.0860   74.8790 N   0  0  0  0  0  0  0  0  0  0  0  0
  124.9448  130.3535   77.5035 H   0  0  0  0  0  0  0  0  0  0  0  0
  124.2529  131.4076   76.2241 H   0  0  0  0  0  0  0  0  0  0  0  0
  123.9011  129.6461   76.2241 H   0  0  0  0  0  0  0  0  0  0  0  0
  126.7560  132.0826   76.1076 H   0  0  0  0  0  0  0  0  0  0  0  0
  129.3390  131.8108   72.4968 H   0  0  0  0  0  0  0  0  0  0  0  0
  131.1566  133.4972   72.3370 H   0  0  0  0  0  0  0  0  0  0  0  0
  131.9727  134.6446   74.3916 H   0  0  0  0  0  0  0  0  0  0  0  0
  130.9805  134.0984   76.6105 H   0  0  0  0  0  0  0  0  0  0  0  0
  129.1634  132.4094   76.7742 H   0  0  0  0  0  0  0  0  0  0  0  0
  129.3728  127.2730   71.4512 H   0  0  0  0  0  0  0  0  0  0  0  0
  129.7004  128.5045   72.7439 H   0  0  0  0  0  0  0  0  0  0  0  0
  131.6580  127.8890   73.3660 H   0  0  0  0  0  0  0  0  0  0  0  0
  131.0593  124.8163   75.0225 H   0  0  0  0  0  0  0  0  0  0  0  0
  132.7792  123.4886   76.2438 H   0  0  0  0  0  0  0  0  0  0  0  0
  135.1715  124.1753   76.1520 H   0  0  0  0  0  0  0  0  0  0  0  0
  135.8555  126.1871   74.8540 H   0  0  0  0  0  0  0  0  0  0  0  0
  134.1407  127.5180   73.6257 H   0  0  0  0  0  0  0  0  0  0  0  0
  1  2  1  0
  2  3  2  0
  3  4  1  0
  4  5  1  0
  5  6  2  0
  6  7  1  0
  7  8  2  0
  8  9  1  0
  9 10  2  0
  4 11  2  0
 11 12  1  0
 12 13  1  0
 13 14  1  0
 14 15  1  0
 15 16  2  0
 15 17  1  0
 17 18  1  0
 18 19  2  0
 19 20  1  0
 20 21  2  0
 21 22  1  0
 22 23  2  0
 12 24  2  0
 24 25  1  0
 25 26  3  0
 24  2  1  0
 10  5  1  0
 23 18  1  0
  1 27  1  0
  1 28  1  0
  1 29  1  0
  3 30  1  0
  6 31  1  0
  7 32  1  0
  8 33  1  0
  9 34  1  0
 10 35  1  0
 14 36  1  0
 14 37  1  0
 17 38  1  0
 19 39  1  0
 20 40  1  0
 21 41  1  0
 22 42  1  0
 23 43  1  0
M  END
>  <Binding energies>  (1) 
[-8.69]

>  <Ligand effiencies>  (1) 
[-0.32185185185185183]

>  <Interactions>  (1) 
["V-A:HIS:456:CD2:4065, V-A:GLY:544:C:4910, V-A:GLY:544:CA:4912, V-A:LYS:547:CD:4947, V-A:VAL:458:CG2:4084, V-B:HIS:456:CD2:9039, V-B:HIS:456:CG:9037, V-A:HIS:456:CA:4060, V-A:HIS:456:C:4058, V-A:LYS:547:CE:4948, V-A:VAL:457:C:4070, V-A:HIS:456:CG:4063, H-B:LYS:547:NZ:9923, H-A:GLY:544:O:4911, V-A:LYS:471:CD:4216, V-A:HIS:456:CB:4062, H-A:LYS:547:NZ:4949, V-B:LYS:471:CD:9190, V-B:HIS:456:C:9032, V-B:LYS:547:CE:9922, V-B:ASP:473:CG:9211, V-B:HIS:456:CB:9036, V-B:VAL:458:CG2:9058, V-B:LYS:547:CD:9921, V-B:LYS:547:CG:9920, V-B:LYS:471:CG:9189, V-A:VAL:457:CA:4072"]

$$$$
3be_Grossjean_2025
     RDKit          3D

 45 47  0  0  0  0  0  0  0  0999 V2000
  127.7870  120.2650   71.6440 C   0  0  0  0  0  0  0  0  0  0  0  0
  128.5190  121.1850   72.6010 C   0  0  0  0  0  0  0  0  0  0  0  0
  129.0650  120.7120   73.7970 C   0  0  0  0  0  0  0  0  0  0  0  0
  129.7220  121.6170   74.6310 C   0  0  0  0  0  0  0  0  0  0  0  0
  129.8180  122.9590   74.2530 C   0  0  0  0  0  0  0  0  0  0  0  0
  129.2520  123.3650   73.0400 C   0  0  0  0  0  0  0  0  0  0  0  0
  129.3730  124.7310   72.7210 N   0  0  0  0  0  0  0  0  0  0  0  0
  130.0860  125.6870   73.3550 C   0  0  0  0  0  0  0  0  0  0  0  0
  130.7690  125.4980   74.3630 O   0  0  0  0  0  0  0  0  0  0  0  0
  129.9960  127.0830   72.7190 C   0  0  0  0  0  0  0  0  0  0  0  0
  128.3050  127.7440   72.5330 S   0  0  0  0  0  0  0  0  0  0  0  0
  128.1810  129.2290   73.5050 C   0  0  0  0  0  0  0  0  0  0  0  0
  129.0630  130.1920   73.1400 N   0  0  0  0  0  0  0  0  0  0  0  0
  129.0770  131.3820   73.7970 C   0  0  0  0  0  0  0  0  0  0  0  0
  130.0930  132.3880   73.3410 C   0  0  0  0  0  0  0  0  0  0  0  0
  129.9310  133.0700   72.1250 C   0  0  0  0  0  0  0  0  0  0  0  0
  130.8700  134.0030   71.6950 C   0  0  0  0  0  0  0  0  0  0  0  0
  131.9890  134.2660   72.4770 C   0  0  0  0  0  0  0  0  0  0  0  0
  132.1750  133.6020   73.6850 C   0  0  0  0  0  0  0  0  0  0  0  0
  131.2330  132.6700   74.1110 C   0  0  0  0  0  0  0  0  0  0  0  0
  128.1920  131.6290   74.8520 C   0  0  0  0  0  0  0  0  0  0  0  0
  127.2590  130.6560   75.2240 C   0  0  0  0  0  0  0  0  0  0  0  0
  126.3010  130.9770   76.3700 C   0  0  0  0  0  0  0  0  0  0  0  0
  127.2340  129.4240   74.5350 C   0  0  0  0  0  0  0  0  0  0  0  0
  126.2300  128.4120   74.8730 C   0  0  0  0  0  0  0  0  0  0  0  0
  125.4360  127.6140   75.1410 N   0  0  0  0  0  0  0  0  0  0  0  0
  128.6050  122.4850   72.2210 N   0  0  0  0  0  0  0  0  0  0  0  0
  127.2023  119.5302   72.2168 H   0  0  0  0  0  0  0  0  0  0  0  0
  127.1109  120.8578   71.0104 H   0  0  0  0  0  0  0  0  0  0  0  0
  128.5166  119.7394   71.0104 H   0  0  0  0  0  0  0  0  0  0  0  0
  128.9788  119.6511   74.0744 H   0  0  0  0  0  0  0  0  0  0  0  0
  130.1617  121.2765   75.5801 H   0  0  0  0  0  0  0  0  0  0  0  0
  130.3313  123.6855   74.9001 H   0  0  0  0  0  0  0  0  0  0  0  0
  128.8270  125.0270   71.9250 H   0  0  0  0  0  0  0  0  0  0  0  0
  130.5671  127.7813   73.3485 H   0  0  0  0  0  0  0  0  0  0  0  0
  130.3979  126.9810   71.7001 H   0  0  0  0  0  0  0  0  0  0  0  0
  129.0481  132.8639   71.5021 H   0  0  0  0  0  0  0  0  0  0  0  0
  130.7273  134.5302   70.7402 H   0  0  0  0  0  0  0  0  0  0  0  0
  132.7316  135.0035   72.1384 H   0  0  0  0  0  0  0  0  0  0  0  0
  133.0620  133.8124   74.3005 H   0  0  0  0  0  0  0  0  0  0  0  0
  131.3840  132.1459   75.0663 H   0  0  0  0  0  0  0  0  0  0  0  0
  128.2300  132.5884   75.3888 H   0  0  0  0  0  0  0  0  0  0  0  0
  126.8087  130.8069   77.3309 H   0  0  0  0  0  0  0  0  0  0  0  0
  125.9876  132.0292   76.3021 H   0  0  0  0  0  0  0  0  0  0  0  0
  125.4169  130.3260   76.3021 H   0  0  0  0  0  0  0  0  0  0  0  0
  1  2  1  0
  2  3  2  0
  3  4  1  0
  4  5  2  0
  5  6  1  0
  6  7  1  0
  7  8  1  0
  8  9  2  0
  8 10  1  0
 10 11  1  0
 11 12  1  0
 12 13  2  0
 13 14  1  0
 14 15  1  0
 15 16  2  0
 16 17  1  0
 17 18  2  0
 18 19  1  0
 19 20  2  0
 14 21  2  0
 21 22  1  0
 22 23  1  0
 22 24  2  0
 24 25  1  0
 25 26  3  0
  6 27  2  0
 27  2  1  0
 24 12  1  0
 20 15  1  0
  1 28  1  0
  1 29  1  0
  1 30  1  0
  3 31  1  0
  4 32  1  0
  5 33  1  0
  7 34  1  0
 10 35  1  0
 10 36  1  0
 16 37  1  0
 17 38  1  0
 18 39  1  0
 19 40  1  0
 20 41  1  0
 21 42  1  0
 23 43  1  0
 23 44  1  0
 23 45  1  0
M  END
>  <Binding energies>  (1) 
[-8.28]

>  <Ligand effiencies>  (1) 
[-0.2957142857142857]

>  <Interactions>  (1) 
["V-B:GLU:543:C:9874, V-A:HIS:456:CD2:4065, H-B:HIS:456:NE2:9041, V-A:GLY:544:CA:4912, V-A:GLU:543:C:4900, V-B:HIS:456:CD2:9039, V-B:HIS:456:CG:9037, V-A:LYS:547:CE:4948, V-B:GLY:544:CA:9886, V-A:HIS:456:CG:4063, H-B:LYS:547:NZ:9923, H-A:LYS:547:NZ:4949, V-B:LYS:471:CD:9190, V-B:LYS:547:CE:9922, V-B:ASP:473:CG:9211, V-B:HIS:456:CB:9036, V-B:LYS:547:CD:9921, V-B:TYR:484:CB:9312, V-B:TYR:484:CG:9313, H-B:GLY:544:N:9887, V-B:GLU:543:CA:9876, V-A:TYR:484:CB:4338, V-A:TYR:484:CD2:4341, V-B:TYR:484:CD2:9315, V-A:GLU:543:CA:4902, V-B:LYS:471:CE:9191, V-A:VAL:542:C:4892, H-B:GLU:543:O:9875"]

$$$$
3bf_Grossjean_2025
     RDKit          3D

 42 44  0  0  0  0  0  0  0  0999 V2000
  125.0550  130.8760   76.1860 C   0  0  0  0  0  0  0  0  0  0  0  0
  126.2470  130.4900   75.3130 C   0  0  0  0  0  0  0  0  0  0  0  0
  127.2450  131.4470   75.1000 C   0  0  0  0  0  0  0  0  0  0  0  0
  128.3620  131.1310   74.3190 C   0  0  0  0  0  0  0  0  0  0  0  0
  129.4760  132.1040   74.0720 C   0  0  0  0  0  0  0  0  0  0  0  0
  130.2130  132.6360   75.1410 C   0  0  0  0  0  0  0  0  0  0  0  0
  131.2480  133.5400   74.9190 C   0  0  0  0  0  0  0  0  0  0  0  0
  131.5600  133.9250   73.6190 C   0  0  0  0  0  0  0  0  0  0  0  0
  130.8450  133.4140   72.5430 C   0  0  0  0  0  0  0  0  0  0  0  0
  129.8090  132.5110   72.7690 C   0  0  0  0  0  0  0  0  0  0  0  0
  128.4950  129.8990   73.7590 N   0  0  0  0  0  0  0  0  0  0  0  0
  127.5240  128.9690   73.9350 C   0  0  0  0  0  0  0  0  0  0  0  0
  127.8650  127.4210   73.1250 S   0  0  0  0  0  0  0  0  0  0  0  0
  129.6410  127.3800   72.7080 C   0  0  0  0  0  0  0  0  0  0  0  0
  130.4570  126.3030   73.4380 C   0  0  0  0  0  0  0  0  0  0  0  0
  129.9640  125.2020   73.6890 O   0  0  0  0  0  0  0  0  0  0  0  0
  131.7250  126.6620   73.7350 N   0  0  0  0  0  0  0  0  0  0  0  0
  132.7190  125.9220   74.4020 C   0  0  0  0  0  0  0  0  0  0  0  0
  132.3400  124.6930   74.9510 C   0  0  0  0  0  0  0  0  0  0  0  0
  133.2840  123.9050   75.6140 C   0  0  0  0  0  0  0  0  0  0  0  0
  134.5950  124.3730   75.7040 C   0  0  0  0  0  0  0  0  0  0  0  0
  134.9940  125.5560   75.1720 N   0  0  0  0  0  0  0  0  0  0  0  0
  134.0650  126.3100   74.5310 C   0  0  0  0  0  0  0  0  0  0  0  0
  126.3800  129.2130   74.7270 C   0  0  0  0  0  0  0  0  0  0  0  0
  125.3710  128.1800   74.9770 C   0  0  0  0  0  0  0  0  0  0  0  0
  124.5730  127.3650   75.1750 N   0  0  0  0  0  0  0  0  0  0  0  0
  125.3328  130.7860   77.2465 H   0  0  0  0  0  0  0  0  0  0  0  0
  124.7635  131.9145   75.9702 H   0  0  0  0  0  0  0  0  0  0  0  0
  124.2101  130.2055   75.9702 H   0  0  0  0  0  0  0  0  0  0  0  0
  127.1515  132.4479   75.5466 H   0  0  0  0  0  0  0  0  0  0  0  0
  129.9691  132.3341   76.1703 H   0  0  0  0  0  0  0  0  0  0  0  0
  131.8166  133.9481   75.7676 H   0  0  0  0  0  0  0  0  0  0  0  0
  132.3781  134.6387   73.4419 H   0  0  0  0  0  0  0  0  0  0  0  0
  131.0960  133.7212   71.5170 H   0  0  0  0  0  0  0  0  0  0  0  0
  129.2432  132.1106   71.9149 H   0  0  0  0  0  0  0  0  0  0  0  0
  129.7330  127.2025   71.6263 H   0  0  0  0  0  0  0  0  0  0  0  0
  130.0536  128.3476   73.0299 H   0  0  0  0  0  0  0  0  0  0  0  0
  132.0280  127.5650   73.3990 H   0  0  0  0  0  0  0  0  0  0  0  0
  131.2997  124.3471   74.8609 H   0  0  0  0  0  0  0  0  0  0  0  0
  133.0001  122.9380   76.0548 H   0  0  0  0  0  0  0  0  0  0  0  0
  135.3385  123.7557   76.2296 H   0  0  0  0  0  0  0  0  0  0  0  0
  134.3791  127.2685   74.0922 H   0  0  0  0  0  0  0  0  0  0  0  0
  1  2  1  0
  2  3  2  0
  3  4  1  0
  4  5  1  0
  5  6  2  0
  6  7  1  0
  7  8  2  0
  8  9  1  0
  9 10  2  0
  4 11  2  0
 11 12  1  0
 12 13  1  0
 13 14  1  0
 14 15  1  0
 15 16  2  0
 15 17  1  0
 17 18  1  0
 18 19  2  0
 19 20  1  0
 20 21  2  0
 21 22  1  0
 22 23  2  0
 12 24  2  0
 24 25  1  0
 25 26  3  0
 24  2  1  0
 10  5  1  0
 23 18  1  0
  1 27  1  0
  1 28  1  0
  1 29  1  0
  3 30  1  0
  6 31  1  0
  7 32  1  0
  8 33  1  0
  9 34  1  0
 10 35  1  0
 14 36  1  0
 14 37  1  0
 17 38  1  0
 19 39  1  0
 20 40  1  0
 21 41  1  0
 23 42  1  0
M  END
>  <Binding energies>  (1) 
[-8.44]

>  <Ligand effiencies>  (1) 
[-0.3125925925925926]

>  <Interactions>  (1) 
["V-A:HIS:456:CD2:4065, H-B:HIS:456:NE2:9041, V-A:GLY:544:C:4910, V-A:GLY:544:CA:4912, V-A:GLU:543:C:4900, V-A:VAL:458:CG2:4084, V-B:HIS:456:CD2:9039, V-B:HIS:456:CG:9037, V-A:HIS:456:CA:4060, V-A:HIS:456:C:4058, V-A:LYS:547:CE:4948, V-A:HIS:456:CG:4063, H-B:LYS:547:NZ:9923, H-A:GLY:544:O:4911, V-A:LYS:471:CD:4216, V-A:HIS:456:CB:4062, H-A:LYS:547:NZ:4949, V-B:LYS:471:CD:9190, V-B:HIS:456:C:9032, V-B:LYS:547:CE:9922, V-B:ASP:473:CG:9211, V-B:HIS:456:CB:9036, V-B:VAL:458:CG2:9058, V-B:LYS:547:CD:9921, V-A:ASP:473:CG:4237, V-B:TYR:484:CB:9312, V-B:LYS:471:CE:9191, V-A:LYS:471:CG:4215, H-A:VAL:457:N:4073, V-B:LYS:471:CG:9189"]

$$$$
3bg_Grossjean_2025
     RDKit          3D

 46 48  0  0  0  0  0  0  0  0999 V2000
  130.6770  131.7690   59.6860 C   0  0  0  0  0  0  0  0  0  0  0  0
  129.5250  131.8600   60.6860 C   0  0  0  0  0  0  0  0  0  0  0  0
  128.6900  132.9800   60.6310 C   0  0  0  0  0  0  0  0  0  0  0  0
  127.6160  133.1000   61.5240 C   0  0  0  0  0  0  0  0  0  0  0  0
  126.6740  134.2710   61.5110 C   0  0  0  0  0  0  0  0  0  0  0  0
  127.1530  135.5880   61.6170 C   0  0  0  0  0  0  0  0  0  0  0  0
  126.2850  136.6760   61.5870 C   0  0  0  0  0  0  0  0  0  0  0  0
  124.9170  136.4640   61.4530 C   0  0  0  0  0  0  0  0  0  0  0  0
  124.4130  135.1730   61.3580 C   0  0  0  0  0  0  0  0  0  0  0  0
  125.2850  134.0880   61.3900 C   0  0  0  0  0  0  0  0  0  0  0  0
  127.3660  132.1240   62.4370 N   0  0  0  0  0  0  0  0  0  0  0  0
  128.1660  131.0290   62.5020 C   0  0  0  0  0  0  0  0  0  0  0  0
  127.7090  129.8080   63.7220 S   0  0  0  0  0  0  0  0  0  0  0  0
  126.4890  130.5570   64.8510 C   0  0  0  0  0  0  0  0  0  0  0  0
  125.0870  130.5900   64.2340 C   0  0  0  0  0  0  0  0  0  0  0  0
  124.1750  129.9410   64.7460 O   0  0  0  0  0  0  0  0  0  0  0  0
  124.9410  131.3320   63.1220 N   0  0  0  0  0  0  0  0  0  0  0  0
  123.7500  131.3620   62.2720 C   0  0  0  0  0  0  0  0  0  0  0  0
  124.0670  130.9520   60.8390 C   0  0  0  0  0  0  0  0  0  0  0  0
  125.3090  130.3870   60.5310 C   0  0  0  0  0  0  0  0  0  0  0  0
  125.6030  130.0210   59.2210 C   0  0  0  0  0  0  0  0  0  0  0  0
  124.6480  130.2090   58.2220 C   0  0  0  0  0  0  0  0  0  0  0  0
  123.4020  130.7520   58.5240 C   0  0  0  0  0  0  0  0  0  0  0  0
  123.1090  131.1190   59.8360 C   0  0  0  0  0  0  0  0  0  0  0  0
  129.2720  130.8560   61.6440 C   0  0  0  0  0  0  0  0  0  0  0  0
  130.1260  129.6680   61.7210 C   0  0  0  0  0  0  0  0  0  0  0  0
  130.8000  128.7300   61.7800 N   0  0  0  0  0  0  0  0  0  0  0  0
  131.6299  131.6937   60.2303 H   0  0  0  0  0  0  0  0  0  0  0  0
  130.5444  130.8785   59.0540 H   0  0  0  0  0  0  0  0  0  0  0  0
  130.6859  132.6692   59.0540 H   0  0  0  0  0  0  0  0  0  0  0  0
  128.8759  133.7679   59.8862 H   0  0  0  0  0  0  0  0  0  0  0  0
  128.2336  135.7623   61.7257 H   0  0  0  0  0  0  0  0  0  0  0  0
  126.6796  137.6995   61.6690 H   0  0  0  0  0  0  0  0  0  0  0  0
  124.2306  137.3230   61.4221 H   0  0  0  0  0  0  0  0  0  0  0  0
  123.3300  135.0087   61.2580 H   0  0  0  0  0  0  0  0  0  0  0  0
  124.8795  133.0679   61.3193 H   0  0  0  0  0  0  0  0  0  0  0  0
  126.4554  129.9686   65.7798 H   0  0  0  0  0  0  0  0  0  0  0  0
  126.7991  131.5934   65.0502 H   0  0  0  0  0  0  0  0  0  0  0  0
  125.7460  131.8270   62.7700 H   0  0  0  0  0  0  0  0  0  0  0  0
  123.0014  130.6689   62.6834 H   0  0  0  0  0  0  0  0  0  0  0  0
  123.3673  132.3932   62.2559 H   0  0  0  0  0  0  0  0  0  0  0  0
  126.0541  130.2318   61.3252 H   0  0  0  0  0  0  0  0  0  0  0  0
  126.5829  129.5860   58.9748 H   0  0  0  0  0  0  0  0  0  0  0  0
  124.8816  129.9254   57.1852 H   0  0  0  0  0  0  0  0  0  0  0  0
  122.6526  130.8906   57.7308 H   0  0  0  0  0  0  0  0  0  0  0  0
  122.1231  131.5403   60.0820 H   0  0  0  0  0  0  0  0  0  0  0  0
  1  2  1  0
  2  3  2  0
  3  4  1  0
  4  5  1  0
  5  6  2  0
  6  7  1  0
  7  8  2  0
  8  9  1  0
  9 10  2  0
  4 11  2  0
 11 12  1  0
 12 13  1  0
 13 14  1  0
 14 15  1  0
 15 16  2  0
 15 17  1  0
 17 18  1  0
 18 19  1  0
 19 20  2  0
 20 21  1  0
 21 22  2  0
 22 23  1  0
 23 24  2  0
 12 25  2  0
 25 26  1  0
 26 27  3  0
 25  2  1  0
 10  5  1  0
 24 19  1  0
  1 28  1  0
  1 29  1  0
  1 30  1  0
  3 31  1  0
  6 32  1  0
  7 33  1  0
  8 34  1  0
  9 35  1  0
 10 36  1  0
 14 37  1  0
 14 38  1  0
 17 39  1  0
 18 40  1  0
 18 41  1  0
 20 42  1  0
 21 43  1  0
 22 44  1  0
 23 45  1  0
 24 46  1  0
M  END
>  <Binding energies>  (1) 
[-7.29]

>  <Ligand effiencies>  (1) 
[-0.26035714285714284]

>  <Interactions>  (1) 
["V-B:LEU:475:CD2:9230, V-A:TYR:539:CZ:4875, V-B:ASP:366:CB:8183, V-B:GLY:454:CA:9020, V-B:ILE:369:CG2:8208, V-A:TYR:539:CE1:4873, V-B:ILE:369:CD1:8210, V-A:TYR:539:CD1:4871, V-B:ASP:366:CG:8184, V-A:PRO:540:CA:4881, V-A:PRO:540:N:4882, V-A:TYR:539:C:4865, V-A:ALA:541:CB:4890, H-B:ARG:545:NH2:9900, H-A:ARG:545:NH2:4926, H-B:GLY:454:N:9021, V-A:GLU:543:CD:4906, V-B:ILE:369:CG1:8209, V-B:ILE:369:CB:8207, V-B:ASP:366:CA:8181, H-B:ARG:545:NE:9896, V-B:PRO:482:CG:9298, V-B:SER:385:CA:8378, V-B:SER:385:CB:8380, V-B:LEU:373:CD1:8251, V-B:ASP:366:C:8179, H-B:TYR:484:OH:9319"]

$$$$
3bk_Grossjean_2025
     RDKit          3D

 57 58  0  0  0  0  0  0  0  0999 V2000
  123.7260  129.7410   63.1470 C   0  0  0  0  0  0  0  0  0  0  0  0
  124.1670  130.3700   64.3400 O   0  0  0  0  0  0  0  0  0  0  0  0
  125.0510  131.4590   64.1120 C   0  0  0  0  0  0  0  0  0  0  0  0
  126.5040  130.9750   64.2230 C   0  0  0  0  0  0  0  0  0  0  0  0
  126.5180  129.6240   64.6620 O   0  0  0  0  0  0  0  0  0  0  0  0
  127.7070  129.2560   65.3490 C   0  0  0  0  0  0  0  0  0  0  0  0
  127.4480  129.2860   66.8600 C   0  0  0  0  0  0  0  0  0  0  0  0
  126.8130  128.0770   67.2540 O   0  0  0  0  0  0  0  0  0  0  0  0
  127.4780  127.3940   68.3080 C   0  0  0  0  0  0  0  0  0  0  0  0
  128.9020  127.9480   68.4580 C   0  0  0  0  0  0  0  0  0  0  0  0
  129.3830  127.8860   69.8390 N   0  0  0  0  0  0  0  0  0  0  0  0
  128.6930  127.3980   70.8840 C   0  0  0  0  0  0  0  0  0  0  0  0
  127.5610  126.9210   70.7930 O   0  0  0  0  0  0  0  0  0  0  0  0
  129.3980  127.4300   72.2420 C   0  0  0  0  0  0  0  0  0  0  0  0
  128.2160  127.3680   73.6260 S   0  0  0  0  0  0  0  0  0  0  0  0
  127.8250  129.0340   74.1310 C   0  0  0  0  0  0  0  0  0  0  0  0
  128.7210  129.9880   73.7740 N   0  0  0  0  0  0  0  0  0  0  0  0
  128.5080  131.2860   74.1190 C   0  0  0  0  0  0  0  0  0  0  0  0
  129.5370  132.2780   73.6660 C   0  0  0  0  0  0  0  0  0  0  0  0
  130.5380  132.7250   74.5430 C   0  0  0  0  0  0  0  0  0  0  0  0
  131.4930  133.6500   74.1290 C   0  0  0  0  0  0  0  0  0  0  0  0
  131.4590  134.1420   72.8290 C   0  0  0  0  0  0  0  0  0  0  0  0
  130.4800  133.7130   71.9380 C   0  0  0  0  0  0  0  0  0  0  0  0
  129.5280  132.7860   72.3560 C   0  0  0  0  0  0  0  0  0  0  0  0
  127.3670  131.6580   74.8380 C   0  0  0  0  0  0  0  0  0  0  0  0
  126.4320  130.6880   75.2160 C   0  0  0  0  0  0  0  0  0  0  0  0
  125.2010  131.1370   76.0000 C   0  0  0  0  0  0  0  0  0  0  0  0
  126.6560  129.3410   74.8600 C   0  0  0  0  0  0  0  0  0  0  0  0
  125.6930  128.3030   75.2410 C   0  0  0  0  0  0  0  0  0  0  0  0
  124.9330  127.4830   75.5420 N   0  0  0  0  0  0  0  0  0  0  0  0
  123.1115  128.8645   63.4002 H   0  0  0  0  0  0  0  0  0  0  0  0
  123.1269  130.4510   62.5580 H   0  0  0  0  0  0  0  0  0  0  0  0
  124.5977  129.4198   62.5580 H   0  0  0  0  0  0  0  0  0  0  0  0
  124.8770  131.8672   63.1055 H   0  0  0  0  0  0  0  0  0  0  0  0
  124.8682  132.2414   64.8633 H   0  0  0  0  0  0  0  0  0  0  0  0
  126.9910  131.0465   63.2393 H   0  0  0  0  0  0  0  0  0  0  0  0
  127.0465  131.6023   64.9456 H   0  0  0  0  0  0  0  0  0  0  0  0
  128.0068  128.2415   65.0475 H   0  0  0  0  0  0  0  0  0  0  0  0
  128.5116  129.9630   65.0985 H   0  0  0  0  0  0  0  0  0  0  0  0
  128.4040  129.3895   67.3943 H   0  0  0  0  0  0  0  0  0  0  0  0
  126.7981  130.1391   67.1046 H   0  0  0  0  0  0  0  0  0  0  0  0
  126.9257  127.5430   69.2475 H   0  0  0  0  0  0  0  0  0  0  0  0
  127.5248  126.3196   68.0769 H   0  0  0  0  0  0  0  0  0  0  0  0
  129.5789  127.3591   67.8216 H   0  0  0  0  0  0  0  0  0  0  0  0
  128.8834  129.0058   68.1568 H   0  0  0  0  0  0  0  0  0  0  0  0
  130.3290  128.2030   69.9920 H   0  0  0  0  0  0  0  0  0  0  0  0
  130.0728  126.5642   72.3123 H   0  0  0  0  0  0  0  0  0  0  0  0
  129.9553  128.3757   72.3133 H   0  0  0  0  0  0  0  0  0  0  0  0
  130.5684  132.3388   75.5725 H   0  0  0  0  0  0  0  0  0  0  0  0
  132.2714  133.9902   74.8278 H   0  0  0  0  0  0  0  0  0  0  0  0
  132.2111  134.8754   72.5026 H   0  0  0  0  0  0  0  0  0  0  0  0
  130.4580  134.1035   70.9099 H   0  0  0  0  0  0  0  0  0  0  0  0
  128.7567  132.4462   71.6491 H   0  0  0  0  0  0  0  0  0  0  0  0
  127.2050  132.7125   75.1060 H   0  0  0  0  0  0  0  0  0  0  0  0
  125.4056  131.0624   77.0782 H   0  0  0  0  0  0  0  0  0  0  0  0
  124.9630  132.1798   75.7433 H   0  0  0  0  0  0  0  0  0  0  0  0
  124.3475  130.4923   75.7433 H   0  0  0  0  0  0  0  0  0  0  0  0
  1  2  1  0
  2  3  1  0
  3  4  1  0
  4  5  1  0
  5  6  1  0
  6  7  1  0
  7  8  1  0
  8  9  1  0
  9 10  1  0
 10 11  1  0
 11 12  1  0
 12 13  2  0
 12 14  1  0
 14 15  1  0
 15 16  1  0
 16 17  2  0
 17 18  1  0
 18 19  1  0
 19 20  2  0
 20 21  1  0
 21 22  2  0
 22 23  1  0
 23 24  2  0
 18 25  2  0
 25 26  1  0
 26 27  1  0
 26 28  2  0
 28 29  1  0
 29 30  3  0
 28 16  1  0
 24 19  1  0
  1 31  1  0
  1 32  1  0
  1 33  1  0
  3 34  1  0
  3 35  1  0
  4 36  1  0
  4 37  1  0
  6 38  1  0
  6 39  1  0
  7 40  1  0
  7 41  1  0
  9 42  1  0
  9 43  1  0
 10 44  1  0
 10 45  1  0
 11 46  1  0
 14 47  1  0
 14 48  1  0
 20 49  1  0
 21 50  1  0
 22 51  1  0
 23 52  1  0
 24 53  1  0
 25 54  1  0
 27 55  1  0
 27 56  1  0
 27 57  1  0
M  END
>  <Binding energies>  (1) 
[-7.05]

>  <Ligand effiencies>  (1) 
[-0.22741935483870968]

>  <Interactions>  (1) 
["V-B:GLY:454:CA:9020, V-B:GLY:453:C:9013, V-A:GLU:543:CG:4905, V-B:GLY:453:CA:9015, V-B:HIS:456:CE1:9040, V-B:GLU:543:CD:9880, V-B:GLU:543:CG:9879, V-A:HIS:456:CE1:4066, H-B:GLY:454:N:9021, V-A:GLU:543:CD:4906, V-A:GLU:543:CB:4904, V-B:ARG:545:CZ:9898, V-B:ARG:545:CG:9894, H-B:HIS:456:NE2:9041, H-B:TYR:484:OH:9319, V-A:GLY:544:CA:4912, V-A:GLU:543:C:4900, V-B:HIS:456:CD2:9039, V-B:HIS:456:CG:9037, V-A:LYS:547:CE:4948, H-B:LYS:547:NZ:9923, H-A:LYS:547:NZ:4949, V-B:LYS:471:CD:9190, V-B:HIS:456:C:9032, V-B:LYS:547:CE:9922, V-B:ASP:473:CG:9211, V-B:HIS:456:CB:9036, V-B:VAL:458:CG2:9058, V-B:LYS:547:CD:9921, V-B:TYR:484:CB:9312, V-B:TYR:484:CG:9313, V-B:TYR:484:CD2:9315, V-A:GLU:543:CA:4902, H-A:GLU:543:O:4901, H-B:ARG:545:N:9892, V-B:ASP:473:CB:9210, V-B:LYS:471:CG:9189"]

$$$$
3ca_Grossjean_2025
     RDKit          3D

 52 54  0  0  0  0  0  0  0  0999 V2000
  129.7480  125.8960   73.0030 C   0  0  0  0  0  0  0  0  0  0  0  0
  130.2920  127.3140   73.2040 C   0  0  0  0  0  0  0  0  0  0  0  0
  129.3890  128.2530   72.6330 O   0  0  0  0  0  0  0  0  0  0  0  0
  128.4070  127.8550   71.7850 C   0  0  0  0  0  0  0  0  0  0  0  0
  127.2180  127.7720   72.1100 O   0  0  0  0  0  0  0  0  0  0  0  0
  128.9080  127.5320   70.4060 C   0  0  0  0  0  0  0  0  0  0  0  0
  128.0170  127.0160   69.4580 C   0  0  0  0  0  0  0  0  0  0  0  0
  128.4510  126.7060   68.1720 C   0  0  0  0  0  0  0  0  0  0  0  0
  129.7860  126.8990   67.8110 C   0  0  0  0  0  0  0  0  0  0  0  0
  130.1190  126.5540   66.4870 N   0  0  0  0  0  0  0  0  0  0  0  0
  130.4750  125.3580   65.9710 C   0  0  0  0  0  0  0  0  0  0  0  0
  130.5540  124.3050   66.6030 O   0  0  0  0  0  0  0  0  0  0  0  0
  130.7740  125.3560   64.4680 C   0  0  0  0  0  0  0  0  0  0  0  0
  132.5500  125.1930   64.0890 S   0  0  0  0  0  0  0  0  0  0  0  0
  132.7760  124.0900   62.7010 C   0  0  0  0  0  0  0  0  0  0  0  0
  133.5300  124.5740   61.6820 N   0  0  0  0  0  0  0  0  0  0  0  0
  133.7600  123.7870   60.6090 C   0  0  0  0  0  0  0  0  0  0  0  0
  134.6260  124.3920   59.5220 C   0  0  0  0  0  0  0  0  0  0  0  0
  133.2390  122.5000   60.4980 C   0  0  0  0  0  0  0  0  0  0  0  0
  132.4420  121.9840   61.5280 C   0  0  0  0  0  0  0  0  0  0  0  0
  131.8950  120.6040   61.3590 C   0  0  0  0  0  0  0  0  0  0  0  0
  132.7140  119.5770   60.8750 C   0  0  0  0  0  0  0  0  0  0  0  0
  132.2100  118.2900   60.7050 C   0  0  0  0  0  0  0  0  0  0  0  0
  130.8780  118.0260   61.0170 C   0  0  0  0  0  0  0  0  0  0  0  0
  130.0480  119.0370   61.4930 C   0  0  0  0  0  0  0  0  0  0  0  0
  130.5560  120.3230   61.6610 C   0  0  0  0  0  0  0  0  0  0  0  0
  132.2080  122.7940   62.6680 C   0  0  0  0  0  0  0  0  0  0  0  0
  131.4240  122.2890   63.8000 C   0  0  0  0  0  0  0  0  0  0  0  0
  130.8050  121.8890   64.6930 N   0  0  0  0  0  0  0  0  0  0  0  0
  130.6840  127.4230   68.7520 C   0  0  0  0  0  0  0  0  0  0  0  0
  130.2470  127.7340   70.0370 C   0  0  0  0  0  0  0  0  0  0  0  0
  129.5691  125.4296   73.9830 H   0  0  0  0  0  0  0  0  0  0  0  0
  128.8036  125.9418   72.4408 H   0  0  0  0  0  0  0  0  0  0  0  0
  130.4807  125.2984   72.4408 H   0  0  0  0  0  0  0  0  0  0  0  0
  130.3999  127.5164   74.2798 H   0  0  0  0  0  0  0  0  0  0  0  0
  131.2728  127.4036   72.7142 H   0  0  0  0  0  0  0  0  0  0  0  0
  126.9640  126.8539   69.7316 H   0  0  0  0  0  0  0  0  0  0  0  0
  127.7379  126.3066   67.4358 H   0  0  0  0  0  0  0  0  0  0  0  0
  130.0270  127.3120   65.8270 H   0  0  0  0  0  0  0  0  0  0  0  0
  130.2392  124.5129   64.0063 H   0  0  0  0  0  0  0  0  0  0  0  0
  130.4420  126.3252   64.0674 H   0  0  0  0  0  0  0  0  0  0  0  0
  135.4452  124.9643   59.9818 H   0  0  0  0  0  0  0  0  0  0  0  0
  135.0450  123.5891   58.8977 H   0  0  0  0  0  0  0  0  0  0  0  0
  134.0163  125.0617   58.8977 H   0  0  0  0  0  0  0  0  0  0  0  0
  133.4522  121.8921   59.6064 H   0  0  0  0  0  0  0  0  0  0  0  0
  133.7646  119.7884   60.6269 H   0  0  0  0  0  0  0  0  0  0  0  0
  132.8595  117.4868   60.3267 H   0  0  0  0  0  0  0  0  0  0  0  0
  130.4787  117.0094   60.8860 H   0  0  0  0  0  0  0  0  0  0  0  0
  128.9968  118.8215   61.7351 H   0  0  0  0  0  0  0  0  0  0  0  0
  129.9009  121.1242   62.0337 H   0  0  0  0  0  0  0  0  0  0  0  0
  131.7355  127.5886   68.4745 H   0  0  0  0  0  0  0  0  0  0  0  0
  130.9583  128.1421   70.7702 H   0  0  0  0  0  0  0  0  0  0  0  0
  1  2  1  0
  2  3  1  0
  3  4  1  0
  4  5  2  0
  4  6  1  0
  6  7  2  0
  7  8  1  0
  8  9  2  0
  9 10  1  0
 10 11  1  0
 11 12  2  0
 11 13  1  0
 13 14  1  0
 14 15  1  0
 15 16  2  0
 16 17  1  0
 17 18  1  0
 17 19  2  0
 19 20  1  0
 20 21  1  0
 21 22  2  0
 22 23  1  0
 23 24  2  0
 24 25  1  0
 25 26  2  0
 20 27  2  0
 27 28  1  0
 28 29  3  0
  9 30  1  0
 30 31  2  0
 31  6  1  0
 27 15  1  0
 26 21  1  0
  1 32  1  0
  1 33  1  0
  1 34  1  0
  2 35  1  0
  2 36  1  0
  7 37  1  0
  8 38  1  0
 10 39  1  0
 13 40  1  0
 13 41  1  0
 18 42  1  0
 18 43  1  0
 18 44  1  0
 19 45  1  0
 22 46  1  0
 23 47  1  0
 24 48  1  0
 25 49  1  0
 26 50  1  0
 30 51  1  0
 31 52  1  0
M  END
>  <Binding energies>  (1) 
[-8.32]

>  <Ligand effiencies>  (1) 
[-0.26]

>  <Interactions>  (1) 
["V-B:TYR:539:CE1:9847, V-B:TYR:539:C:9839, V-A:ILE:369:CD1:3236, V-A:LEU:475:CD2:4256, V-B:TYR:539:CD1:9845, V-A:GLU:543:CG:4905, V-A:ASP:366:CG:3210, V-A:ILE:369:CG2:3234, V-B:HIS:456:CE1:9040, H-B:GLU:543:OE2:9882, V-B:GLU:543:CD:9880, H-A:ARG:545:NH2:4926, V-B:GLU:543:CB:9878, V-B:GLU:543:CG:9879, V-A:HIS:456:CE1:4066, H-A:GLU:543:OE2:4908, V-A:ASP:366:CA:3207, V-A:ASP:366:CB:3209, V-A:GLU:543:CD:4906, V-B:GLU:543:C:9874, V-A:ILE:369:CB:3233, V-A:SER:385:CA:3404, H-A:GLU:543:OE1:4907, V-B:ALA:541:CB:9864, V-A:ILE:369:CG1:3235, V-A:HIS:456:CD2:4065, H-A:HIS:456:NE2:4067, H-B:HIS:456:NE2:9041, V-A:GLY:544:C:4910, H-A:TYR:484:OH:4345, H-A:ARG:545:NE:4922, V-A:LEU:373:CD1:3277, V-A:PRO:482:CB:4323, V-A:PRO:482:CG:4324, V-A:GLU:543:C:4900, V-B:HIS:456:CD2:9039, V-B:HIS:456:CG:9037, V-A:LYS:547:CE:4948, H-A:LYS:547:NZ:4949, V-B:LYS:547:CE:9922"]

$$$$
3cb_Grossjean_2025
     RDKit          3D

 49 51  0  0  0  0  0  0  0  0999 V2000
  127.1860  128.1070   73.5900 C   0  0  0  0  0  0  0  0  0  0  0  0
  127.8390  127.4150   72.5360 O   0  0  0  0  0  0  0  0  0  0  0  0
  129.0390  127.8370   72.0600 C   0  0  0  0  0  0  0  0  0  0  0  0
  129.8950  128.3840   72.7610 O   0  0  0  0  0  0  0  0  0  0  0  0
  129.2200  127.5750   70.5920 C   0  0  0  0  0  0  0  0  0  0  0  0
  130.4590  127.7420   69.9540 C   0  0  0  0  0  0  0  0  0  0  0  0
  130.5930  127.4880   68.5920 C   0  0  0  0  0  0  0  0  0  0  0  0
  129.4970  127.0670   67.8380 C   0  0  0  0  0  0  0  0  0  0  0  0
  129.7470  126.8360   66.4710 N   0  0  0  0  0  0  0  0  0  0  0  0
  130.4540  125.8530   65.8720 C   0  0  0  0  0  0  0  0  0  0  0  0
  131.0170  124.9290   66.4620 O   0  0  0  0  0  0  0  0  0  0  0  0
  130.5030  125.9470   64.3390 C   0  0  0  0  0  0  0  0  0  0  0  0
  131.7800  124.9120   63.5450 S   0  0  0  0  0  0  0  0  0  0  0  0
  130.9500  123.6000   62.6710 C   0  0  0  0  0  0  0  0  0  0  0  0
  129.6370  123.8490   62.4450 N   0  0  0  0  0  0  0  0  0  0  0  0
  128.9060  122.9210   61.7880 C   0  0  0  0  0  0  0  0  0  0  0  0
  127.4480  123.2720   61.5600 C   0  0  0  0  0  0  0  0  0  0  0  0
  129.4460  121.7190   61.3400 C   0  0  0  0  0  0  0  0  0  0  0  0
  130.7970  121.4340   61.5770 C   0  0  0  0  0  0  0  0  0  0  0  0
  131.3290  120.1280   61.0810 C   0  0  0  0  0  0  0  0  0  0  0  0
  130.5070  118.9940   61.0650 C   0  0  0  0  0  0  0  0  0  0  0  0
  130.9900  117.7750   60.5940 C   0  0  0  0  0  0  0  0  0  0  0  0
  132.3000  117.6860   60.1340 C   0  0  0  0  0  0  0  0  0  0  0  0
  133.1290  118.8040   60.1360 C   0  0  0  0  0  0  0  0  0  0  0  0
  132.6430  120.0220   60.6050 C   0  0  0  0  0  0  0  0  0  0  0  0
  131.5760  122.3920   62.2770 C   0  0  0  0  0  0  0  0  0  0  0  0
  132.9690  122.1060   62.6340 C   0  0  0  0  0  0  0  0  0  0  0  0
  134.0690  121.8810   62.9150 N   0  0  0  0  0  0  0  0  0  0  0  0
  128.2560  126.8920   68.4700 C   0  0  0  0  0  0  0  0  0  0  0  0
  128.1230  127.1460   69.8320 C   0  0  0  0  0  0  0  0  0  0  0  0
  127.5457  127.7258   74.5571 H   0  0  0  0  0  0  0  0  0  0  0  0
  127.4064  129.1821   73.5147 H   0  0  0  0  0  0  0  0  0  0  0  0
  126.1000  127.9492   73.5147 H   0  0  0  0  0  0  0  0  0  0  0  0
  131.3312  128.0763   70.5350 H   0  0  0  0  0  0  0  0  0  0  0  0
  131.5710  127.6203   68.1061 H   0  0  0  0  0  0  0  0  0  0  0  0
  129.3020  127.5000   65.8540 H   0  0  0  0  0  0  0  0  0  0  0  0
  129.5222  125.6404   63.9465 H   0  0  0  0  0  0  0  0  0  0  0  0
  130.7606  126.9899   64.1023 H   0  0  0  0  0  0  0  0  0  0  0  0
  126.9440  123.3933   62.5302 H   0  0  0  0  0  0  0  0  0  0  0  0
  127.3816  124.2118   60.9922 H   0  0  0  0  0  0  0  0  0  0  0  0
  126.9611  122.4654   60.9922 H   0  0  0  0  0  0  0  0  0  0  0  0
  128.8149  120.9961   60.8023 H   0  0  0  0  0  0  0  0  0  0  0  0
  129.4710  119.0665   61.4275 H   0  0  0  0  0  0  0  0  0  0  0  0
  130.3394  116.8881   60.5859 H   0  0  0  0  0  0  0  0  0  0  0  0
  132.6840  116.7234   59.7654 H   0  0  0  0  0  0  0  0  0  0  0  0
  134.1630  118.7260   59.7689 H   0  0  0  0  0  0  0  0  0  0  0  0
  133.2954  120.9076   60.6018 H   0  0  0  0  0  0  0  0  0  0  0  0
  127.3865  126.5533   67.8875 H   0  0  0  0  0  0  0  0  0  0  0  0
  127.1457  127.0085   70.3177 H   0  0  0  0  0  0  0  0  0  0  0  0
  1  2  1  0
  2  3  1  0
  3  4  2  0
  3  5  1  0
  5  6  2  0
  6  7  1  0
  7  8  2  0
  8  9  1  0
  9 10  1  0
 10 11  2  0
 10 12  1  0
 12 13  1  0
 13 14  1  0
 14 15  2  0
 15 16  1  0
 16 17  1  0
 16 18  2  0
 18 19  1  0
 19 20  1  0
 20 21  2  0
 21 22  1  0
 22 23  2  0
 23 24  1  0
 24 25  2  0
 19 26  2  0
 26 27  1  0
 27 28  3  0
  8 29  1  0
 29 30  2  0
 30  5  1  0
 26 14  1  0
 25 20  1  0
  1 31  1  0
  1 32  1  0
  1 33  1  0
  6 34  1  0
  7 35  1  0
  9 36  1  0
 12 37  1  0
 12 38  1  0
 17 39  1  0
 17 40  1  0
 17 41  1  0
 18 42  1  0
 21 43  1  0
 22 44  1  0
 23 45  1  0
 24 46  1  0
 25 47  1  0
 29 48  1  0
 30 49  1  0
M  END
>  <Binding energies>  (1) 
[-7.77]

>  <Ligand effiencies>  (1) 
[-0.25064516129032255]

>  <Interactions>  (1) 
["V-B:PRO:540:C:9853, V-B:TYR:539:CE1:9847, V-B:PRO:540:CA:9855, V-A:LEU:475:CD2:4256, V-B:TYR:539:CD1:9845, V-A:GLY:454:CA:4046, V-A:GLU:543:CG:4905, H-B:GLU:543:OE1:9881, V-A:ILE:369:CG2:3234, V-B:HIS:456:CE1:9040, H-B:GLU:543:OE2:9882, V-B:GLU:543:CD:9880, V-B:GLU:543:CB:9878, V-B:GLU:543:CG:9879, V-A:HIS:456:CE1:4066, H-A:GLU:543:OE2:4908, V-A:GLU:543:CD:4906, V-B:GLU:543:C:9874, V-B:GLY:544:C:9884, V-A:SER:385:CA:3404, H-A:GLY:454:N:4047, H-A:GLU:543:OE1:4907, V-B:ALA:541:CB:9864, H-A:HIS:456:NE2:4067, V-A:GLY:544:C:4910, H-A:TYR:484:OH:4345, V-A:SER:385:CB:3406, V-A:LEU:373:CD1:3277, V-A:PRO:482:CB:4323, V-A:PRO:482:CG:4324, V-B:TYR:539:CB:9843, V-A:GLU:543:C:4900, V-B:HIS:456:CD2:9039, V-B:HIS:456:CG:9037, H-A:LYS:547:NZ:4949, V-B:LYS:547:CE:9922, V-B:HIS:456:CB:9036"]

$$$$
3ce_Grossjean_2025
     RDKit          3D

 45 47  0  0  0  0  0  0  0  0999 V2000
  128.2770  122.5510   58.1550 C   0  0  0  0  0  0  0  0  0  0  0  0
  127.7240  123.2570   59.3780 C   0  0  0  0  0  0  0  0  0  0  0  0
  126.3520  123.2970   59.6420 C   0  0  0  0  0  0  0  0  0  0  0  0
  125.9160  123.9550   60.7910 C   0  0  0  0  0  0  0  0  0  0  0  0
  126.8500  124.5540   61.6400 C   0  0  0  0  0  0  0  0  0  0  0  0
  128.2080  124.4860   61.3120 C   0  0  0  0  0  0  0  0  0  0  0  0
  129.1030  125.0880   62.2130 N   0  0  0  0  0  0  0  0  0  0  0  0
  130.2640  125.7220   61.9380 C   0  0  0  0  0  0  0  0  0  0  0  0
  130.7330  125.8820   60.8100 O   0  0  0  0  0  0  0  0  0  0  0  0
  131.0180  126.2760   63.1470 C   0  0  0  0  0  0  0  0  0  0  0  0
  132.3250  125.1450   63.7090 S   0  0  0  0  0  0  0  0  0  0  0  0
  132.5810  124.0000   62.3730 C   0  0  0  0  0  0  0  0  0  0  0  0
  133.2900  124.5120   61.3380 N   0  0  0  0  0  0  0  0  0  0  0  0
  133.5540  123.7140   60.2770 C   0  0  0  0  0  0  0  0  0  0  0  0
  134.3620  124.3450   59.1610 C   0  0  0  0  0  0  0  0  0  0  0  0
  133.1130  122.3950   60.2040 C   0  0  0  0  0  0  0  0  0  0  0  0
  132.3560  121.8560   61.2530 C   0  0  0  0  0  0  0  0  0  0  0  0
  131.8850  120.4450   61.1180 C   0  0  0  0  0  0  0  0  0  0  0  0
  130.5570  120.1160   61.4130 C   0  0  0  0  0  0  0  0  0  0  0  0
  130.1120  118.8020   61.2950 C   0  0  0  0  0  0  0  0  0  0  0  0
  130.9970  117.8080   60.8870 C   0  0  0  0  0  0  0  0  0  0  0  0
  132.3240  118.1170   60.5980 C   0  0  0  0  0  0  0  0  0  0  0  0
  132.7660  119.4320   60.7170 C   0  0  0  0  0  0  0  0  0  0  0  0
  132.0820  122.6760   62.3770 C   0  0  0  0  0  0  0  0  0  0  0  0
  131.3070  122.1630   63.5110 C   0  0  0  0  0  0  0  0  0  0  0  0
  130.6970  121.7560   64.4060 N   0  0  0  0  0  0  0  0  0  0  0  0
  128.6430  123.8350   60.1930 N   0  0  0  0  0  0  0  0  0  0  0  0
  128.9264  121.7219   58.4726 H   0  0  0  0  0  0  0  0  0  0  0  0
  127.4458  122.1557   57.5527 H   0  0  0  0  0  0  0  0  0  0  0  0
  128.8599  123.2633   57.5527 H   0  0  0  0  0  0  0  0  0  0  0  0
  125.6332  122.8205   58.9592 H   0  0  0  0  0  0  0  0  0  0  0  0
  124.8428  124.0023   61.0278 H   0  0  0  0  0  0  0  0  0  0  0  0
  126.5220  125.0717   62.5534 H   0  0  0  0  0  0  0  0  0  0  0  0
  128.7850  125.1190   63.1700 H   0  0  0  0  0  0  0  0  0  0  0  0
  131.4748  127.2378   62.8708 H   0  0  0  0  0  0  0  0  0  0  0  0
  130.2982  126.3999   63.9695 H   0  0  0  0  0  0  0  0  0  0  0  0
  135.1594  124.9678   59.5926 H   0  0  0  0  0  0  0  0  0  0  0  0
  134.8093  123.5548   58.5402 H   0  0  0  0  0  0  0  0  0  0  0  0
  133.7037  124.9705   58.5402 H   0  0  0  0  0  0  0  0  0  0  0  0
  133.3579  121.7787   59.3264 H   0  0  0  0  0  0  0  0  0  0  0  0
  129.8598  120.9013   61.7405 H   0  0  0  0  0  0  0  0  0  0  0  0
  129.0657  118.5505   61.5232 H   0  0  0  0  0  0  0  0  0  0  0  0
  130.6455  116.7700   60.7921 H   0  0  0  0  0  0  0  0  0  0  0  0
  133.0188  117.3267   60.2776 H   0  0  0  0  0  0  0  0  0  0  0  0
  133.8149  119.6775   60.4945 H   0  0  0  0  0  0  0  0  0  0  0  0
  1  2  1  0
  2  3  2  0
  3  4  1  0
  4  5  2  0
  5  6  1  0
  6  7  1  0
  7  8  1  0
  8  9  2  0
  8 10  1  0
 10 11  1  0
 11 12  1  0
 12 13  2  0
 13 14  1  0
 14 15  1  0
 14 16  2  0
 16 17  1  0
 17 18  1  0
 18 19  2  0
 19 20  1  0
 20 21  2  0
 21 22  1  0
 22 23  2  0
 17 24  2  0
 24 25  1  0
 25 26  3  0
  6 27  2  0
 27  2  1  0
 24 12  1  0
 23 18  1  0
  1 28  1  0
  1 29  1  0
  1 30  1  0
  3 31  1  0
  4 32  1  0
  5 33  1  0
  7 34  1  0
 10 35  1  0
 10 36  1  0
 15 37  1  0
 15 38  1  0
 15 39  1  0
 16 40  1  0
 19 41  1  0
 20 42  1  0
 21 43  1  0
 22 44  1  0
 23 45  1  0
M  END
>  <Binding energies>  (1) 
[-7.66]

>  <Ligand effiencies>  (1) 
[-0.2735714285714286]

>  <Interactions>  (1) 
["V-B:TYR:539:CE1:9847, V-B:TYR:539:C:9839, V-B:PRO:540:N:9856, V-A:ILE:369:CD1:3236, V-B:PRO:540:CA:9855, V-A:LEU:475:CD2:4256, V-B:TYR:539:CD1:9845, H-B:GLU:543:OE1:9881, V-A:ASP:366:CG:3210, V-A:ILE:369:CG2:3234, H-B:GLU:543:OE2:9882, V-B:GLU:543:CD:9880, H-A:ARG:545:NH2:4926, V-A:ASP:366:CA:3207, V-A:ASP:366:CB:3209, V-A:ILE:369:CB:3233, V-A:ARG:545:CZ:4924, V-A:SER:385:CA:3404, V-B:PRO:540:CB:9857, V-B:ALA:541:CB:9864, V-B:TYR:539:CG:9844, V-A:ASP:366:C:3205, H-A:TYR:484:OH:4345, V-A:SER:385:CB:3406, V-A:LEU:373:CD1:3277, V-A:PRO:482:CB:4323, V-A:PRO:482:CG:4324"]

$$$$
3ch_Grossjean_2025
     RDKit          3D

 55 57  0  0  0  0  0  0  0  0999 V2000
  124.6110  129.6100   66.3980 C   0  0  0  0  0  0  0  0  0  0  0  0
  124.1960  129.9870   65.0890 O   0  0  0  0  0  0  0  0  0  0  0  0
  125.1130  129.9770   64.0530 C   0  0  0  0  0  0  0  0  0  0  0  0
  126.3190  129.2590   64.0790 C   0  0  0  0  0  0  0  0  0  0  0  0
  127.1980  129.2890   62.9860 C   0  0  0  0  0  0  0  0  0  0  0  0
  128.4230  128.5990   62.9170 N   0  0  0  0  0  0  0  0  0  0  0  0
  128.6640  127.2880   62.6980 C   0  0  0  0  0  0  0  0  0  0  0  0
  127.8070  126.4280   62.4990 O   0  0  0  0  0  0  0  0  0  0  0  0
  130.1380  126.8860   62.6630 C   0  0  0  0  0  0  0  0  0  0  0  0
  130.4510  125.3430   63.5710 S   0  0  0  0  0  0  0  0  0  0  0  0
  130.0700  124.0200   62.4440 C   0  0  0  0  0  0  0  0  0  0  0  0
  128.9550  124.2340   61.7020 N   0  0  0  0  0  0  0  0  0  0  0  0
  128.5740  123.2840   60.8190 C   0  0  0  0  0  0  0  0  0  0  0  0
  127.3170  123.5850   60.0260 C   0  0  0  0  0  0  0  0  0  0  0  0
  129.2800  122.0960   60.6440 C   0  0  0  0  0  0  0  0  0  0  0  0
  130.4390  121.8590   61.3970 C   0  0  0  0  0  0  0  0  0  0  0  0
  131.1580  120.5660   61.1830 C   0  0  0  0  0  0  0  0  0  0  0  0
  132.5040  120.5650   60.7990 C   0  0  0  0  0  0  0  0  0  0  0  0
  133.1780  119.3640   60.5900 C   0  0  0  0  0  0  0  0  0  0  0  0
  132.5040  118.1570   60.7600 C   0  0  0  0  0  0  0  0  0  0  0  0
  131.1640  118.1410   61.1340 C   0  0  0  0  0  0  0  0  0  0  0  0
  130.4930  119.3440   61.3420 C   0  0  0  0  0  0  0  0  0  0  0  0
  130.8620  122.8560   62.3130 C   0  0  0  0  0  0  0  0  0  0  0  0
  132.1170  122.7040   63.0560 C   0  0  0  0  0  0  0  0  0  0  0  0
  133.1060  122.5840   63.6450 N   0  0  0  0  0  0  0  0  0  0  0  0
  126.8690  130.0620   61.8710 C   0  0  0  0  0  0  0  0  0  0  0  0
  125.6700  130.7900   61.8230 C   0  0  0  0  0  0  0  0  0  0  0  0
  125.2820  131.5690   60.7450 O   0  0  0  0  0  0  0  0  0  0  0  0
  124.2870  131.0810   59.8510 C   0  0  0  0  0  0  0  0  0  0  0  0
  124.8020  130.7420   62.9210 C   0  0  0  0  0  0  0  0  0  0  0  0
  123.6170  131.4370   62.8790 O   0  0  0  0  0  0  0  0  0  0  0  0
  123.7740  132.8480   62.8400 C   0  0  0  0  0  0  0  0  0  0  0  0
  124.0122  130.1539   67.1434 H   0  0  0  0  0  0  0  0  0  0  0  0
  124.4668  128.5276   66.5309 H   0  0  0  0  0  0  0  0  0  0  0  0
  125.6746  129.8572   66.5309 H   0  0  0  0  0  0  0  0  0  0  0  0
  126.5782  128.6651   64.9679 H   0  0  0  0  0  0  0  0  0  0  0  0
  129.2360  129.1910   63.0070 H   0  0  0  0  0  0  0  0  0  0  0  0
  130.4428  126.7483   61.6151 H   0  0  0  0  0  0  0  0  0  0  0  0
  130.7176  127.6859   63.1469 H   0  0  0  0  0  0  0  0  0  0  0  0
  126.4856  123.7841   60.7182 H   0  0  0  0  0  0  0  0  0  0  0  0
  127.4859  124.4681   59.3923 H   0  0  0  0  0  0  0  0  0  0  0  0
  127.0676  122.7212   59.3923 H   0  0  0  0  0  0  0  0  0  0  0  0
  128.9299  121.3471   59.9183 H   0  0  0  0  0  0  0  0  0  0  0  0
  133.0333  121.5194   60.6613 H   0  0  0  0  0  0  0  0  0  0  0  0
  134.2369  119.3688   60.2923 H   0  0  0  0  0  0  0  0  0  0  0  0
  133.0359  117.2080   60.5971 H   0  0  0  0  0  0  0  0  0  0  0  0
  130.6375  117.1841   61.2647 H   0  0  0  0  0  0  0  0  0  0  0  0
  129.4324  119.3339   61.6335 H   0  0  0  0  0  0  0  0  0  0  0  0
  127.5605  130.1011   61.0164 H   0  0  0  0  0  0  0  0  0  0  0  0
  123.4461  130.6686   60.4280 H   0  0  0  0  0  0  0  0  0  0  0  0
  123.9276  131.9051   59.2172 H   0  0  0  0  0  0  0  0  0  0  0  0
  124.7186  130.2923   59.2172 H   0  0  0  0  0  0  0  0  0  0  0  0
  123.8177  133.2406   63.8666 H   0  0  0  0  0  0  0  0  0  0  0  0
  124.7056  133.0988   62.3116 H   0  0  0  0  0  0  0  0  0  0  0  0
  122.9203  133.2975   62.3116 H   0  0  0  0  0  0  0  0  0  0  0  0
  1  2  1  0
  2  3  1  0
  3  4  2  0
  4  5  1  0
  5  6  1  0
  6  7  1  0
  7  8  2  0
  7  9  1  0
  9 10  1  0
 10 11  1  0
 11 12  2  0
 12 13  1  0
 13 14  1  0
 13 15  2  0
 15 16  1  0
 16 17  1  0
 17 18  2  0
 18 19  1  0
 19 20  2  0
 20 21  1  0
 21 22  2  0
 16 23  2  0
 23 24  1  0
 24 25  3  0
  5 26  2  0
 26 27  1  0
 27 28  1  0
 28 29  1  0
 27 30  2  0
 30 31  1  0
 31 32  1  0
 30  3  1  0
 23 11  1  0
 22 17  1  0
  1 33  1  0
  1 34  1  0
  1 35  1  0
  4 36  1  0
  6 37  1  0
  9 38  1  0
  9 39  1  0
 14 40  1  0
 14 41  1  0
 14 42  1  0
 15 43  1  0
 18 44  1  0
 19 45  1  0
 20 46  1  0
 21 47  1  0
 22 48  1  0
 26 49  1  0
 29 50  1  0
 29 51  1  0
 29 52  1  0
 32 53  1  0
 32 54  1  0
 32 55  1  0
M  END
>  <Binding energies>  (1) 
[-7.62]

>  <Ligand effiencies>  (1) 
[-0.23090909090909092]

>  <Interactions>  (1) 
["V-B:LEU:475:CD2:9230, V-B:GLY:454:CA:9020, V-B:ILE:369:CG2:8208, V-A:TYR:539:CE1:4873, V-B:ILE:369:CD1:8210, V-B:ASP:366:CG:8184, V-B:TYR:539:CE1:9847, V-B:TYR:539:C:9839, V-B:PRO:540:CA:9855, V-A:LEU:475:CD2:4256, V-B:TYR:539:CD1:9845, H-B:ARG:545:NH2:9900, V-A:ILE:369:CG2:3234, V-B:HIS:456:CE1:9040, V-B:GLU:543:CD:9880, H-A:GLU:543:OE2:4908, H-B:GLY:454:N:9021, V-A:GLU:543:CD:4906, V-B:ARG:545:CZ:9898, V-B:ARG:545:CG:9894, V-A:SER:385:CA:3404, H-A:GLY:454:N:4047, H-A:GLU:543:OE1:4907, V-B:ALA:541:CB:9864, H-B:ARG:545:NE:9896, V-B:ARG:545:CD:9895, H-A:TYR:484:OH:4345, V-A:SER:385:CB:3406, V-A:LEU:373:CD1:3277, V-A:PRO:482:CB:4323, V-A:PRO:482:CG:4324, H-B:TYR:484:OH:9319"]

$$$$
3ci_Grossjean_2025
     RDKit          3D

 39 41  0  0  0  0  0  0  0  0999 V2000
  134.6070  124.3680   59.2070 C   0  0  0  0  0  0  0  0  0  0  0  0
  133.7870  123.7710   60.3350 C   0  0  0  0  0  0  0  0  0  0  0  0
  133.2510  122.4900   60.2500 C   0  0  0  0  0  0  0  0  0  0  0  0
  132.5130  121.9750   61.3260 C   0  0  0  0  0  0  0  0  0  0  0  0
  131.9700  120.5890   61.1960 C   0  0  0  0  0  0  0  0  0  0  0  0
  130.6350  120.3100   61.5160 C   0  0  0  0  0  0  0  0  0  0  0  0
  130.1360  119.0150   61.4020 C   0  0  0  0  0  0  0  0  0  0  0  0
  130.9740  117.9900   60.9730 C   0  0  0  0  0  0  0  0  0  0  0  0
  132.3060  118.2490   60.6600 C   0  0  0  0  0  0  0  0  0  0  0  0
  132.8020  119.5450   60.7750 C   0  0  0  0  0  0  0  0  0  0  0  0
  132.3290  122.7930   62.4690 C   0  0  0  0  0  0  0  0  0  0  0  0
  131.5300  122.3250   63.6070 C   0  0  0  0  0  0  0  0  0  0  0  0
  130.9000  121.9540   64.5050 N   0  0  0  0  0  0  0  0  0  0  0  0
  132.9130  124.0830   62.4750 C   0  0  0  0  0  0  0  0  0  0  0  0
  132.7620  125.1890   63.8720 S   0  0  0  0  0  0  0  0  0  0  0  0
  131.0530  125.8170   63.9690 C   0  0  0  0  0  0  0  0  0  0  0  0
  130.1890  125.4160   62.7680 C   0  0  0  0  0  0  0  0  0  0  0  0
  130.0810  126.1940   61.8170 O   0  0  0  0  0  0  0  0  0  0  0  0
  129.5840  124.2110   62.8570 N   0  0  0  0  0  0  0  0  0  0  0  0
  128.7770  123.6030   61.9050 C   0  0  0  0  0  0  0  0  0  0  0  0
  129.2260  123.2740   60.6260 C   0  0  0  0  0  0  0  0  0  0  0  0
  128.1400  122.7020   60.0020 C   0  0  0  0  0  0  0  0  0  0  0  0
  127.0930  122.6870   60.8620 O   0  0  0  0  0  0  0  0  0  0  0  0
  127.5090  123.2620   62.0640 N   0  0  0  0  0  0  0  0  0  0  0  0
  133.6220  124.5600   61.4200 N   0  0  0  0  0  0  0  0  0  0  0  0
  135.4286  124.9662   59.6278 H   0  0  0  0  0  0  0  0  0  0  0  0
  135.0221  123.5593   58.5876 H   0  0  0  0  0  0  0  0  0  0  0  0
  133.9649  125.0114   58.5876 H   0  0  0  0  0  0  0  0  0  0  0  0
  133.4050  121.8847   59.3445 H   0  0  0  0  0  0  0  0  0  0  0  0
  129.9756  121.1204   61.8601 H   0  0  0  0  0  0  0  0  0  0  0  0
  129.0853  118.8033   61.6496 H   0  0  0  0  0  0  0  0  0  0  0  0
  130.5809  116.9668   60.8804 H   0  0  0  0  0  0  0  0  0  0  0  0
  132.9632  117.4336   60.3235 H   0  0  0  0  0  0  0  0  0  0  0  0
  133.8554  119.7499   60.5332 H   0  0  0  0  0  0  0  0  0  0  0  0
  130.5866  125.4195   64.8825 H   0  0  0  0  0  0  0  0  0  0  0  0
  131.1102  126.9155   63.9761 H   0  0  0  0  0  0  0  0  0  0  0  0
  129.7490  123.6720   63.6930 H   0  0  0  0  0  0  0  0  0  0  0  0
  130.2299  123.4363   60.2068 H   0  0  0  0  0  0  0  0  0  0  0  0
  128.1248  122.3188   58.9710 H   0  0  0  0  0  0  0  0  0  0  0  0
  1  2  1  0
  2  3  2  0
  3  4  1  0
  4  5  1  0
  5  6  2  0
  6  7  1  0
  7  8  2  0
  8  9  1  0
  9 10  2  0
  4 11  2  0
 11 12  1  0
 12 13  3  0
 11 14  1  0
 14 15  1  0
 15 16  1  0
 16 17  1  0
 17 18  2  0
 17 19  1  0
 19 20  1  0
 20 21  1  0
 21 22  2  0
 22 23  1  0
 23 24  1  0
 14 25  2  0
 25  2  1  0
 10  5  1  0
 24 20  2  0
  1 26  1  0
  1 27  1  0
  1 28  1  0
  3 29  1  0
  6 30  1  0
  7 31  1  0
  8 32  1  0
  9 33  1  0
 10 34  1  0
 16 35  1  0
 16 36  1  0
 19 37  1  0
 21 38  1  0
 22 39  1  0
M  END
>  <Binding energies>  (1) 
[-7.32]

>  <Ligand effiencies>  (1) 
[-0.28153846153846157]

>  <Interactions>  (1) 
["V-B:TYR:539:CE1:9847, V-B:TYR:539:C:9839, V-B:PRO:540:N:9856, H-B:ALA:541:N:9863, V-A:ILE:369:CD1:3236, V-B:PRO:540:CA:9855, V-A:LEU:475:CD2:4256, V-B:TYR:539:CD1:9845, H-B:GLU:543:OE1:9881, V-A:ASP:366:CG:3210, V-A:ILE:369:CG2:3234, V-B:GLU:543:CD:9880, H-A:ARG:545:NH2:4926, V-A:ASP:366:CA:3207, V-A:ASP:366:CB:3209, V-A:ILE:369:CB:3233, V-A:SER:385:CA:3404, V-B:ALA:541:CB:9864, V-A:ILE:369:CG1:3235, V-A:ASP:366:C:3205, H-A:TYR:484:OH:4345, H-A:ARG:545:NE:4922, V-A:SER:385:CB:3406, V-A:LEU:373:CD1:3277, V-A:PRO:482:CB:4323, V-A:PRO:482:CG:4324"]

$$$$
3cj_Grossjean_2025
     RDKit          3D

 39 41  0  0  0  0  0  0  0  0999 V2000
  134.5840  124.3410   59.2720 C   0  0  0  0  0  0  0  0  0  0  0  0
  133.7120  123.7490   60.3610 C   0  0  0  0  0  0  0  0  0  0  0  0
  133.1810  122.4660   60.2530 C   0  0  0  0  0  0  0  0  0  0  0  0
  132.3980  121.9500   61.2950 C   0  0  0  0  0  0  0  0  0  0  0  0
  131.9040  120.5480   61.1640 C   0  0  0  0  0  0  0  0  0  0  0  0
  130.5780  120.2290   61.4780 C   0  0  0  0  0  0  0  0  0  0  0  0
  130.1220  118.9180   61.3690 C   0  0  0  0  0  0  0  0  0  0  0  0
  130.9950  117.9180   60.9500 C   0  0  0  0  0  0  0  0  0  0  0  0
  132.3190  118.2180   60.6430 C   0  0  0  0  0  0  0  0  0  0  0  0
  132.7730  119.5300   60.7530 C   0  0  0  0  0  0  0  0  0  0  0  0
  132.1440  122.7740   62.4190 C   0  0  0  0  0  0  0  0  0  0  0  0
  131.3080  122.3020   63.5280 C   0  0  0  0  0  0  0  0  0  0  0  0
  130.6500  121.9280   64.4030 N   0  0  0  0  0  0  0  0  0  0  0  0
  132.7260  124.0610   62.4470 C   0  0  0  0  0  0  0  0  0  0  0  0
  132.5990  125.1440   63.8540 S   0  0  0  0  0  0  0  0  0  0  0  0
  130.8350  125.5900   63.9410 C   0  0  0  0  0  0  0  0  0  0  0  0
  130.1150  125.3320   62.6140 C   0  0  0  0  0  0  0  0  0  0  0  0
  130.2560  126.1260   61.6820 O   0  0  0  0  0  0  0  0  0  0  0  0
  129.3880  124.1950   62.5620 N   0  0  0  0  0  0  0  0  0  0  0  0
  128.7570  123.6670   61.4480 C   0  0  0  0  0  0  0  0  0  0  0  0
  127.4990  123.3010   61.3290 N   0  0  0  0  0  0  0  0  0  0  0  0
  127.2340  122.8690   60.1120 C   0  0  0  0  0  0  0  0  0  0  0  0
  128.2940  122.8780   59.2100 C   0  0  0  0  0  0  0  0  0  0  0  0
  129.7120  123.4860   60.0110 S   0  0  0  0  0  0  0  0  0  0  0  0
  133.5040  124.5350   61.4410 N   0  0  0  0  0  0  0  0  0  0  0  0
  135.4115  124.9028   59.7298 H   0  0  0  0  0  0  0  0  0  0  0  0
  134.9912  123.5319   58.6479 H   0  0  0  0  0  0  0  0  0  0  0  0
  133.9822  125.0180   58.6479 H   0  0  0  0  0  0  0  0  0  0  0  0
  133.3749  121.8609   59.3551 H   0  0  0  0  0  0  0  0  0  0  0  0
  129.8910  121.0199   61.8134 H   0  0  0  0  0  0  0  0  0  0  0  0
  129.0775  118.6738   61.6127 H   0  0  0  0  0  0  0  0  0  0  0  0
  130.6355  116.8822   60.8608 H   0  0  0  0  0  0  0  0  0  0  0  0
  133.0039  117.4222   60.3149 H   0  0  0  0  0  0  0  0  0  0  0  0
  133.8204  119.7679   60.5156 H   0  0  0  0  0  0  0  0  0  0  0  0
  130.3550  124.9906   64.7286 H   0  0  0  0  0  0  0  0  0  0  0  0
  130.7655  126.6650   64.1634 H   0  0  0  0  0  0  0  0  0  0  0  0
  129.3670  123.6200   63.3920 H   0  0  0  0  0  0  0  0  0  0  0  0
  126.2308  122.5207   59.8253 H   0  0  0  0  0  0  0  0  0  0  0  0
  128.2428  122.5530   58.1603 H   0  0  0  0  0  0  0  0  0  0  0  0
  1  2  1  0
  2  3  2  0
  3  4  1  0
  4  5  1  0
  5  6  2  0
  6  7  1  0
  7  8  2  0
  8  9  1  0
  9 10  2  0
  4 11  2  0
 11 12  1  0
 12 13  3  0
 11 14  1  0
 14 15  1  0
 15 16  1  0
 16 17  1  0
 17 18  2  0
 17 19  1  0
 19 20  1  0
 20 21  2  0
 21 22  1  0
 22 23  2  0
 23 24  1  0
 14 25  2  0
 25  2  1  0
 10  5  1  0
 24 20  1  0
  1 26  1  0
  1 27  1  0
  1 28  1  0
  3 29  1  0
  6 30  1  0
  7 31  1  0
  8 32  1  0
  9 33  1  0
 10 34  1  0
 16 35  1  0
 16 36  1  0
 19 37  1  0
 22 38  1  0
 23 39  1  0
M  END
>  <Binding energies>  (1) 
[-7.05]

>  <Ligand effiencies>  (1) 
[-0.27115384615384613]

>  <Interactions>  (1) 
["V-B:PRO:540:C:9853, V-B:TYR:539:CE1:9847, V-B:TYR:539:C:9839, V-B:PRO:540:N:9856, H-B:ALA:541:N:9863, V-A:ILE:369:CD1:3236, V-B:PRO:540:CA:9855, V-A:LEU:475:CD2:4256, V-B:TYR:539:CD1:9845, H-B:GLU:543:OE1:9881, V-A:ASP:366:CG:3210, V-A:ILE:369:CG2:3234, V-B:GLU:543:CD:9880, H-A:ARG:545:NH2:4926, V-A:ASP:366:CA:3207, V-A:ASP:366:CB:3209, V-A:ILE:369:CB:3233, V-A:SER:385:CA:3404, V-B:PRO:540:CB:9857, V-B:ALA:541:CB:9864, V-A:ILE:369:CG1:3235, V-A:ASP:366:C:3205, H-A:TYR:484:OH:4345, V-A:SER:385:CB:3406, V-A:LEU:373:CD1:3277, V-A:PRO:482:CB:4323, V-A:PRO:482:CG:4324"]

$$$$
3ck_Grossjean_2025
     RDKit          3D

 57 58  0  0  0  0  0  0  0  0999 V2000
  127.1520  130.4960   75.2080 C   0  0  0  0  0  0  0  0  0  0  0  0
  127.9110  129.3510   74.8520 O   0  0  0  0  0  0  0  0  0  0  0  0
  127.2150  128.4540   73.9980 C   0  0  0  0  0  0  0  0  0  0  0  0
  128.1670  127.9340   72.9140 C   0  0  0  0  0  0  0  0  0  0  0  0
  129.4820  128.4090   73.1750 O   0  0  0  0  0  0  0  0  0  0  0  0
  130.4170  128.1120   72.1470 C   0  0  0  0  0  0  0  0  0  0  0  0
  129.7550  127.1870   71.1180 C   0  0  0  0  0  0  0  0  0  0  0  0
  129.8920  127.7750   69.8330 O   0  0  0  0  0  0  0  0  0  0  0  0
  129.3600  127.0050   68.7660 C   0  0  0  0  0  0  0  0  0  0  0  0
  127.9630  127.5360   68.3940 C   0  0  0  0  0  0  0  0  0  0  0  0
  127.9820  128.5760   67.3600 N   0  0  0  0  0  0  0  0  0  0  0  0
  126.9290  128.9650   66.6190 C   0  0  0  0  0  0  0  0  0  0  0  0
  125.7980  128.4930   66.7520 O   0  0  0  0  0  0  0  0  0  0  0  0
  127.2200  130.0580   65.5790 C   0  0  0  0  0  0  0  0  0  0  0  0
  127.2750  129.4930   63.8430 S   0  0  0  0  0  0  0  0  0  0  0  0
  127.6860  130.8770   62.7900 C   0  0  0  0  0  0  0  0  0  0  0  0
  128.8620  130.7740   62.1210 N   0  0  0  0  0  0  0  0  0  0  0  0
  129.2390  131.7870   61.3090 C   0  0  0  0  0  0  0  0  0  0  0  0
  130.5650  131.6020   60.5970 C   0  0  0  0  0  0  0  0  0  0  0  0
  128.4680  132.9330   61.1320 C   0  0  0  0  0  0  0  0  0  0  0  0
  127.2530  133.0640   61.8180 C   0  0  0  0  0  0  0  0  0  0  0  0
  126.4720  134.3200   61.6160 C   0  0  0  0  0  0  0  0  0  0  0  0
  127.1060  135.5650   61.7020 C   0  0  0  0  0  0  0  0  0  0  0  0
  126.3810  136.7420   61.5250 C   0  0  0  0  0  0  0  0  0  0  0  0
  125.0160  136.6770   61.2660 C   0  0  0  0  0  0  0  0  0  0  0  0
  124.3680  135.4460   61.1850 C   0  0  0  0  0  0  0  0  0  0  0  0
  125.0950  134.2720   61.3630 C   0  0  0  0  0  0  0  0  0  0  0  0
  126.8400  132.0020   62.6640 C   0  0  0  0  0  0  0  0  0  0  0  0
  125.5580  132.0660   63.3750 C   0  0  0  0  0  0  0  0  0  0  0  0
  124.5460  132.1160   63.9350 N   0  0  0  0  0  0  0  0  0  0  0  0
  127.0996  130.5750   76.3039 H   0  0  0  0  0  0  0  0  0  0  0  0
  127.6326  131.3965   74.7980 H   0  0  0  0  0  0  0  0  0  0  0  0
  126.1354  130.4040   74.7980 H   0  0  0  0  0  0  0  0  0  0  0  0
  126.8345  127.6073   74.5882 H   0  0  0  0  0  0  0  0  0  0  0  0
  126.3731  128.9796   73.5238 H   0  0  0  0  0  0  0  0  0  0  0  0
  128.1657  126.8340   72.9209 H   0  0  0  0  0  0  0  0  0  0  0  0
  127.8346  128.2932   71.9289 H   0  0  0  0  0  0  0  0  0  0  0  0
  130.7322  129.0441   71.6553 H   0  0  0  0  0  0  0  0  0  0  0  0
  131.2977  127.6148   72.5796 H   0  0  0  0  0  0  0  0  0  0  0  0
  130.2480  126.2037   71.1310 H   0  0  0  0  0  0  0  0  0  0  0  0
  128.6905  127.0525   71.3605 H   0  0  0  0  0  0  0  0  0  0  0  0
  130.0249  127.0802   67.8929 H   0  0  0  0  0  0  0  0  0  0  0  0
  129.2805  125.9532   69.0780 H   0  0  0  0  0  0  0  0  0  0  0  0
  127.3578  126.6936   68.0278 H   0  0  0  0  0  0  0  0  0  0  0  0
  127.5416  127.9934   69.3013 H   0  0  0  0  0  0  0  0  0  0  0  0
  128.8720  129.0240   67.2000 H   0  0  0  0  0  0  0  0  0  0  0  0
  126.4342  130.8233   65.6621 H   0  0  0  0  0  0  0  0  0  0  0  0
  128.2285  130.4331   65.8077 H   0  0  0  0  0  0  0  0  0  0  0  0
  131.3679  131.4900   61.3405 H   0  0  0  0  0  0  0  0  0  0  0  0
  130.5204  130.7014   59.9670 H   0  0  0  0  0  0  0  0  0  0  0  0
  130.7686  132.4804   59.9670 H   0  0  0  0  0  0  0  0  0  0  0  0
  128.8108  133.7313   60.4573 H   0  0  0  0  0  0  0  0  0  0  0  0
  128.1848  135.6148   61.9109 H   0  0  0  0  0  0  0  0  0  0  0  0
  126.8856  137.7173   61.5898 H   0  0  0  0  0  0  0  0  0  0  0  0
  124.4431  137.6052   61.1239 H   0  0  0  0  0  0  0  0  0  0  0  0
  123.2879  135.4020   60.9815 H   0  0  0  0  0  0  0  0  0  0  0  0
  124.5843  133.2995   61.3045 H   0  0  0  0  0  0  0  0  0  0  0  0
  1  2  1  0
  2  3  1  0
  3  4  1  0
  4  5  1  0
  5  6  1  0
  6  7  1  0
  7  8  1  0
  8  9  1  0
  9 10  1  0
 10 11  1  0
 11 12  1  0
 12 13  2  0
 12 14  1  0
 14 15  1  0
 15 16  1  0
 16 17  2  0
 17 18  1  0
 18 19  1  0
 18 20  2  0
 20 21  1  0
 21 22  1  0
 22 23  2  0
 23 24  1  0
 24 25  2  0
 25 26  1  0
 26 27  2  0
 21 28  2  0
 28 29  1  0
 29 30  3  0
 28 16  1  0
 27 22  1  0
  1 31  1  0
  1 32  1  0
  1 33  1  0
  3 34  1  0
  3 35  1  0
  4 36  1  0
  4 37  1  0
  6 38  1  0
  6 39  1  0
  7 40  1  0
  7 41  1  0
  9 42  1  0
  9 43  1  0
 10 44  1  0
 10 45  1  0
 11 46  1  0
 14 47  1  0
 14 48  1  0
 19 49  1  0
 19 50  1  0
 19 51  1  0
 20 52  1  0
 23 53  1  0
 24 54  1  0
 25 55  1  0
 26 56  1  0
 27 57  1  0
M  END
>  <Binding energies>  (1) 
[-7.42]

>  <Ligand effiencies>  (1) 
[-0.23935483870967741]

>  <Interactions>  (1) 
["V-B:LEU:475:CD2:9230, V-B:ILE:369:CG2:8208, V-A:TYR:539:CE1:4873, V-A:TYR:539:CD1:4871, V-A:PRO:540:CA:4881, V-A:ALA:541:CB:4890, V-A:GLU:543:CG:4905, V-B:HIS:456:CE1:9040, H-B:GLU:543:OE2:9882, V-B:GLU:543:CD:9880, V-B:GLU:543:CG:9879, V-A:HIS:456:CE1:4066, H-A:GLU:543:OE2:4908, H-B:GLY:454:N:9021, V-A:GLU:543:CD:4906, V-A:GLU:543:CB:4904, H-A:GLU:543:OE1:4907, V-A:HIS:456:CD2:4065, H-A:HIS:456:NE2:4067, H-B:ARG:545:NE:9896, V-A:GLY:544:C:4910, V-B:PRO:482:CG:9298, V-B:PRO:482:CB:9297, V-B:SER:385:CA:8378, V-B:SER:385:CB:8380, V-B:LEU:373:CD1:8251, H-B:TYR:484:OH:9319, V-A:GLY:544:CA:4912, V-B:HIS:456:CD2:9039, V-B:HIS:456:CG:9037, V-A:LYS:547:CE:4948, H-A:LYS:547:NZ:4949, V-B:LYS:547:CE:9922, V-B:HIS:456:CB:9036, H-A:GLU:543:O:4901"]

$$$$
4aa_Grossjean_2025
     RDKit          3D

 45 47  0  0  0  0  0  0  0  0999 V2000
  129.8270  125.9810   72.9970 C   0  0  0  0  0  0  0  0  0  0  0  0
  130.5410  127.3350   73.0440 C   0  0  0  0  0  0  0  0  0  0  0  0
  129.6580  128.3500   72.5830 O   0  0  0  0  0  0  0  0  0  0  0  0
  128.5580  128.0420   71.8490 C   0  0  0  0  0  0  0  0  0  0  0  0
  127.4070  128.0850   72.2970 O   0  0  0  0  0  0  0  0  0  0  0  0
  128.8790  127.6400   70.4390 C   0  0  0  0  0  0  0  0  0  0  0  0
  130.1970  127.7560   69.9780 C   0  0  0  0  0  0  0  0  0  0  0  0
  130.5250  127.3960   68.6740 C   0  0  0  0  0  0  0  0  0  0  0  0
  129.5470  126.9040   67.8080 C   0  0  0  0  0  0  0  0  0  0  0  0
  129.9870  126.5780   66.5100 N   0  0  0  0  0  0  0  0  0  0  0  0
  130.5160  125.4260   66.0310 C   0  0  0  0  0  0  0  0  0  0  0  0
  130.7470  124.4320   66.7190 O   0  0  0  0  0  0  0  0  0  0  0  0
  130.8340  125.4330   64.6020 C   0  0  0  0  0  0  0  0  0  0  0  0
  132.1100  124.3890   63.9690 S   0  0  0  0  0  0  0  0  0  0  0  0
  131.8770  125.0060   62.3500 C   0  0  0  0  0  0  0  0  0  0  0  0
  132.6040  124.5750   61.3180 N   0  0  0  0  0  0  0  0  0  0  0  0
  132.3260  125.1380   60.1170 C   0  0  0  0  0  0  0  0  0  0  0  0
  133.1680  124.6370   58.9580 C   0  0  0  0  0  0  0  0  0  0  0  0
  131.3460  126.1100   59.9250 C   0  0  0  0  0  0  0  0  0  0  0  0
  130.5840  126.5590   61.0090 C   0  0  0  0  0  0  0  0  0  0  0  0
  129.5260  127.6210   60.7490 C   0  0  0  0  0  0  0  0  0  0  0  0
  130.8490  125.9950   62.2860 C   0  0  0  0  0  0  0  0  0  0  0  0
  130.2740  126.2220   63.5850 C   0  0  0  0  0  0  0  0  0  0  0  0
  129.2670  127.1310   63.7900 N   0  0  0  0  0  0  0  0  0  0  0  0
  128.2240  126.7890   68.2590 C   0  0  0  0  0  0  0  0  0  0  0  0
  127.8960  127.1540   69.5630 C   0  0  0  0  0  0  0  0  0  0  0  0
  129.6412  125.6287   74.0223 H   0  0  0  0  0  0  0  0  0  0  0  0
  128.8690  126.0898   72.4674 H   0  0  0  0  0  0  0  0  0  0  0  0
  130.4579  125.2520   72.4674 H   0  0  0  0  0  0  0  0  0  0  0  0
  130.8444  127.5543   74.0783 H   0  0  0  0  0  0  0  0  0  0  0  0
  131.4326  127.3031   72.4006 H   0  0  0  0  0  0  0  0  0  0  0  0
  130.9792  128.1348   70.6523 H   0  0  0  0  0  0  0  0  0  0  0  0
  131.5624  127.5000   68.3234 H   0  0  0  0  0  0  0  0  0  0  0  0
  129.9030  127.3330   65.8450 H   0  0  0  0  0  0  0  0  0  0  0  0
  134.0521  124.1110   59.3475 H   0  0  0  0  0  0  0  0  0  0  0  0
  132.5719  123.9466   58.3432 H   0  0  0  0  0  0  0  0  0  0  0  0
  133.4904  125.4903   58.3432 H   0  0  0  0  0  0  0  0  0  0  0  0
  131.1716  126.5243   58.9210 H   0  0  0  0  0  0  0  0  0  0  0  0
  129.1459  128.0025   61.7082 H   0  0  0  0  0  0  0  0  0  0  0  0
  129.9698  128.4480   60.1754 H   0  0  0  0  0  0  0  0  0  0  0  0
  128.6973  127.1803   60.1754 H   0  0  0  0  0  0  0  0  0  0  0  0
  128.2930  126.8640   63.7600 H   0  0  0  0  0  0  0  0  0  0  0  0
  129.4660  128.1040   63.9770 H   0  0  0  0  0  0  0  0  0  0  0  0
  127.4441  126.4100   67.5822 H   0  0  0  0  0  0  0  0  0  0  0  0
  126.8562  127.0603   69.9094 H   0  0  0  0  0  0  0  0  0  0  0  0
  1  2  1  0
  2  3  1  0
  3  4  1  0
  4  5  2  0
  4  6  1  0
  6  7  2  0
  7  8  1  0
  8  9  2  0
  9 10  1  0
 10 11  1  0
 11 12  2  0
 11 13  1  0
 13 14  1  0
 14 15  1  0
 15 16  2  0
 16 17  1  0
 17 18  1  0
 17 19  2  0
 19 20  1  0
 20 21  1  0
 20 22  2  0
 22 23  1  0
 23 24  1  0
  9 25  1  0
 25 26  2  0
 26  6  1  0
 23 13  2  0
 22 15  1  0
  1 27  1  0
  1 28  1  0
  1 29  1  0
  2 30  1  0
  2 31  1  0
  7 32  1  0
  8 33  1  0
 10 34  1  0
 18 35  1  0
 18 36  1  0
 18 37  1  0
 19 38  1  0
 21 39  1  0
 21 40  1  0
 21 41  1  0
 24 42  1  0
 24 43  1  0
 25 44  1  0
 26 45  1  0
M  END
>  <Binding energies>  (1) 
[-6.29]

>  <Ligand effiencies>  (1) 
[-0.21689655172413794]

>  <Interactions>  (1) 
["V-B:TYR:539:CE1:9847, V-A:GLU:543:CG:4905, H-B:GLU:543:OE1:9881, V-A:ASP:366:CG:3210, V-B:HIS:456:CE1:9040, H-B:GLU:543:OE2:9882, V-B:GLU:543:CD:9880, V-B:GLU:543:CB:9878, V-B:GLU:543:CG:9879, V-A:HIS:456:CE1:4066, H-A:GLU:543:OE2:4908, V-A:ASP:366:CA:3207, V-A:ASP:366:CB:3209, V-A:GLU:543:CD:4906, V-B:GLU:543:C:9874, V-B:GLY:544:C:9884, H-A:GLU:543:OE1:4907, V-A:HIS:456:CD2:4065, H-A:HIS:456:NE2:4067, H-B:HIS:456:NE2:9041, V-A:GLY:544:C:4910, H-A:TYR:484:OH:4345, V-A:GLU:543:C:4900, V-B:HIS:456:CD2:9039, V-B:HIS:456:CG:9037, V-A:LYS:547:CE:4948, H-A:LYS:547:NZ:4949, V-B:LYS:547:CE:9922"]

$$$$
4ab_Grossjean_2025
     RDKit          3D

 42 44  0  0  0  0  0  0  0  0999 V2000
  130.5910  127.2150   73.1400 C   0  0  0  0  0  0  0  0  0  0  0  0
  129.7340  128.2550   72.6910 O   0  0  0  0  0  0  0  0  0  0  0  0
  128.6270  127.9790   71.9550 C   0  0  0  0  0  0  0  0  0  0  0  0
  127.4780  128.0460   72.4020 O   0  0  0  0  0  0  0  0  0  0  0  0
  128.9400  127.5770   70.5420 C   0  0  0  0  0  0  0  0  0  0  0  0
  130.2440  127.7470   70.0560 C   0  0  0  0  0  0  0  0  0  0  0  0
  130.5650  127.3860   68.7510 C   0  0  0  0  0  0  0  0  0  0  0  0
  129.5960  126.8400   67.9090 C   0  0  0  0  0  0  0  0  0  0  0  0
  130.0290  126.5180   66.6080 N   0  0  0  0  0  0  0  0  0  0  0  0
  130.4410  125.3340   66.0930 C   0  0  0  0  0  0  0  0  0  0  0  0
  130.5450  124.2930   66.7440 O   0  0  0  0  0  0  0  0  0  0  0  0
  130.7950  125.3610   64.6730 C   0  0  0  0  0  0  0  0  0  0  0  0
  132.0520  124.2900   64.0480 S   0  0  0  0  0  0  0  0  0  0  0  0
  131.8780  124.9480   62.4370 C   0  0  0  0  0  0  0  0  0  0  0  0
  132.6170  124.5170   61.4140 N   0  0  0  0  0  0  0  0  0  0  0  0
  132.3860  125.1120   60.2190 C   0  0  0  0  0  0  0  0  0  0  0  0
  133.2410  124.6110   59.0700 C   0  0  0  0  0  0  0  0  0  0  0  0
  131.4400  126.1160   60.0230 C   0  0  0  0  0  0  0  0  0  0  0  0
  130.6660  126.5670   61.0990 C   0  0  0  0  0  0  0  0  0  0  0  0
  129.6480  127.6660   60.8360 C   0  0  0  0  0  0  0  0  0  0  0  0
  130.8830  125.9690   62.3700 C   0  0  0  0  0  0  0  0  0  0  0  0
  130.2860  126.1880   63.6600 C   0  0  0  0  0  0  0  0  0  0  0  0
  129.3040  127.1260   63.8620 N   0  0  0  0  0  0  0  0  0  0  0  0
  128.2870  126.6700   68.3850 C   0  0  0  0  0  0  0  0  0  0  0  0
  127.9670  127.0350   69.6900 C   0  0  0  0  0  0  0  0  0  0  0  0
  130.6037  127.1995   74.2398 H   0  0  0  0  0  0  0  0  0  0  0  0
  130.2233  126.2489   72.7639 H   0  0  0  0  0  0  0  0  0  0  0  0
  131.6096  127.3912   72.7639 H   0  0  0  0  0  0  0  0  0  0  0  0
  131.0198  128.1692   70.7117 H   0  0  0  0  0  0  0  0  0  0  0  0
  131.5904  127.5322   68.3806 H   0  0  0  0  0  0  0  0  0  0  0  0
  130.0420  127.3010   65.9730 H   0  0  0  0  0  0  0  0  0  0  0  0
  134.1252  124.0929   59.4697 H   0  0  0  0  0  0  0  0  0  0  0  0
  132.6548  123.9135   58.4537 H   0  0  0  0  0  0  0  0  0  0  0  0
  133.5629  125.4634   58.4537 H   0  0  0  0  0  0  0  0  0  0  0  0
  131.3013  126.5540   59.0235 H   0  0  0  0  0  0  0  0  0  0  0  0
  129.2807  128.0625   61.7941 H   0  0  0  0  0  0  0  0  0  0  0  0
  130.1224  128.4755   60.2619 H   0  0  0  0  0  0  0  0  0  0  0  0
  128.8046  127.2548   60.2619 H   0  0  0  0  0  0  0  0  0  0  0  0
  129.5180  128.1040   63.9860 H   0  0  0  0  0  0  0  0  0  0  0  0
  128.3280  126.8630   63.8980 H   0  0  0  0  0  0  0  0  0  0  0  0
  127.5132  126.2481   67.7268 H   0  0  0  0  0  0  0  0  0  0  0  0
  126.9392  126.8966   70.0568 H   0  0  0  0  0  0  0  0  0  0  0  0
  1  2  1  0
  2  3  1  0
  3  4  2  0
  3  5  1  0
  5  6  2  0
  6  7  1  0
  7  8  2  0
  8  9  1  0
  9 10  1  0
 10 11  2  0
 10 12  1  0
 12 13  1  0
 13 14  1  0
 14 15  2  0
 15 16  1  0
 16 17  1  0
 16 18  2  0
 18 19  1  0
 19 20  1  0
 19 21  2  0
 21 22  1  0
 22 23  1  0
  8 24  1  0
 24 25  2  0
 25  5  1  0
 22 12  2  0
 21 14  1  0
  1 26  1  0
  1 27  1  0
  1 28  1  0
  6 29  1  0
  7 30  1  0
  9 31  1  0
 17 32  1  0
 17 33  1  0
 17 34  1  0
 18 35  1  0
 20 36  1  0
 20 37  1  0
 20 38  1  0
 23 39  1  0
 23 40  1  0
 24 41  1  0
 25 42  1  0
M  END
>  <Binding energies>  (1) 
[-6.22]

>  <Ligand effiencies>  (1) 
[-0.22214285714285714]

>  <Interactions>  (1) 
["V-B:TYR:539:CE1:9847, V-A:GLU:543:CG:4905, H-B:GLU:543:OE1:9881, V-A:ASP:366:CG:3210, V-B:HIS:456:CE1:9040, H-B:GLU:543:OE2:9882, V-B:GLU:543:CD:9880, V-B:GLU:543:CB:9878, V-B:GLU:543:CG:9879, V-A:HIS:456:CE1:4066, H-A:GLU:543:OE2:4908, V-A:ASP:366:CA:3207, V-A:ASP:366:CB:3209, V-A:GLU:543:CD:4906, V-B:GLU:543:C:9874, V-B:GLY:544:C:9884, H-A:GLU:543:OE1:4907, V-A:HIS:456:CD2:4065, H-A:HIS:456:NE2:4067, H-B:HIS:456:NE2:9041, V-A:GLY:544:C:4910, H-A:TYR:484:OH:4345, V-A:GLU:543:C:4900, V-B:HIS:456:CD2:9039, V-A:LYS:547:CE:4948, H-A:LYS:547:NZ:4949"]

$$$$
4ac_Grossjean_2025
     RDKit          3D

 40 42  0  0  0  0  0  0  0  0999 V2000
  129.4340  128.6630   72.6040 C   0  0  0  0  0  0  0  0  0  0  0  0
  128.4500  127.9780   71.8350 O   0  0  0  0  0  0  0  0  0  0  0  0
  128.7540  127.5900   70.5450 C   0  0  0  0  0  0  0  0  0  0  0  0
  130.0800  127.7480   70.1430 C   0  0  0  0  0  0  0  0  0  0  0  0
  130.4800  127.3830   68.8600 C   0  0  0  0  0  0  0  0  0  0  0  0
  129.5570  126.8460   67.9630 C   0  0  0  0  0  0  0  0  0  0  0  0
  130.0490  126.5190   66.6850 N   0  0  0  0  0  0  0  0  0  0  0  0
  130.4800  125.3250   66.2120 C   0  0  0  0  0  0  0  0  0  0  0  0
  130.5380  124.2960   66.8880 O   0  0  0  0  0  0  0  0  0  0  0  0
  130.8990  125.3200   64.8080 C   0  0  0  0  0  0  0  0  0  0  0  0
  132.1920  124.2500   64.2670 S   0  0  0  0  0  0  0  0  0  0  0  0
  132.0580  124.8400   62.6250 C   0  0  0  0  0  0  0  0  0  0  0  0
  132.8360  124.3800   61.6440 N   0  0  0  0  0  0  0  0  0  0  0  0
  132.6300  124.9210   60.4190 C   0  0  0  0  0  0  0  0  0  0  0  0
  133.5240  124.3840   59.3170 C   0  0  0  0  0  0  0  0  0  0  0  0
  131.6760  125.9030   60.1550 C   0  0  0  0  0  0  0  0  0  0  0  0
  130.8620  126.3830   61.1870 C   0  0  0  0  0  0  0  0  0  0  0  0
  129.8360  127.4530   60.8490 C   0  0  0  0  0  0  0  0  0  0  0  0
  131.0480  125.8370   62.4860 C   0  0  0  0  0  0  0  0  0  0  0  0
  130.4000  126.0910   63.7450 C   0  0  0  0  0  0  0  0  0  0  0  0
  129.3900  127.0090   63.8760 N   0  0  0  0  0  0  0  0  0  0  0  0
  128.2180  126.6950   68.3540 C   0  0  0  0  0  0  0  0  0  0  0  0
  127.8220  127.0610   69.6380 C   0  0  0  0  0  0  0  0  0  0  0  0
  129.2278  128.5194   73.6749 H   0  0  0  0  0  0  0  0  0  0  0  0
  130.4302  128.2622   72.3655 H   0  0  0  0  0  0  0  0  0  0  0  0
  129.4039  129.7364   72.3655 H   0  0  0  0  0  0  0  0  0  0  0  0
  130.8166  128.1647   70.8457 H   0  0  0  0  0  0  0  0  0  0  0  0
  131.5275  127.5187   68.5530 H   0  0  0  0  0  0  0  0  0  0  0  0
  130.1150  127.3010   66.0490 H   0  0  0  0  0  0  0  0  0  0  0  0
  134.3858  123.8664   59.7635 H   0  0  0  0  0  0  0  0  0  0  0  0
  132.9547  123.6782   58.6943 H   0  0  0  0  0  0  0  0  0  0  0  0
  133.8797  125.2181   58.6943 H   0  0  0  0  0  0  0  0  0  0  0  0
  131.5633  126.3004   59.1355 H   0  0  0  0  0  0  0  0  0  0  0  0
  129.4290  127.8774   61.7786 H   0  0  0  0  0  0  0  0  0  0  0  0
  130.3166  128.2494   60.2619 H   0  0  0  0  0  0  0  0  0  0  0  0
  129.0201  127.0062   60.2619 H   0  0  0  0  0  0  0  0  0  0  0  0
  129.5750  127.9960   63.9790 H   0  0  0  0  0  0  0  0  0  0  0  0
  128.4190  126.7250   63.8720 H   0  0  0  0  0  0  0  0  0  0  0  0
  127.4810  126.2875   67.6463 H   0  0  0  0  0  0  0  0  0  0  0  0
  126.7728  126.9349   69.9434 H   0  0  0  0  0  0  0  0  0  0  0  0
  1  2  1  0
  2  3  1  0
  3  4  2  0
  4  5  1  0
  5  6  2  0
  6  7  1  0
  7  8  1  0
  8  9  2  0
  8 10  1  0
 10 11  1  0
 11 12  1  0
 12 13  2  0
 13 14  1  0
 14 15  1  0
 14 16  2  0
 16 17  1  0
 17 18  1  0
 17 19  2  0
 19 20  1  0
 20 21  1  0
  6 22  1  0
 22 23  2  0
 23  3  1  0
 20 10  2  0
 19 12  1  0
  1 24  1  0
  1 25  1  0
  1 26  1  0
  4 27  1  0
  5 28  1  0
  7 29  1  0
 15 30  1  0
 15 31  1  0
 15 32  1  0
 16 33  1  0
 18 34  1  0
 18 35  1  0
 18 36  1  0
 21 37  1  0
 21 38  1  0
 22 39  1  0
 23 40  1  0
M  END
>  <Binding energies>  (1) 
[-5.85]

>  <Ligand effiencies>  (1) 
[-0.22499999999999998]

>  <Interactions>  (1) 
["V-A:GLU:543:CG:4905, H-B:GLU:543:OE1:9881, V-A:ASP:366:CG:3210, V-A:ILE:369:CG2:3234, V-B:HIS:456:CE1:9040, H-B:GLU:543:OE2:9882, V-B:GLU:543:CD:9880, V-B:GLU:543:CB:9878, V-B:GLU:543:CG:9879, V-A:HIS:456:CE1:4066, H-A:GLU:543:OE2:4908, V-A:ASP:366:CA:3207, V-A:ASP:366:CB:3209, V-A:GLU:543:CD:4906, V-B:GLU:543:C:9874, V-B:GLY:544:C:9884, H-A:GLU:543:OE1:4907, H-A:HIS:456:NE2:4067, H-B:HIS:456:NE2:9041, V-A:GLY:544:C:4910, H-A:TYR:484:OH:4345, V-A:GLY:544:CA:4912, V-A:GLU:543:C:4900, V-B:HIS:456:CD2:9039, V-A:LYS:547:CE:4948"]

$$$$
4ad_Grossjean_2025
     RDKit          3D

 36 38  0  0  0  0  0  0  0  0999 V2000
  125.9910  117.2560   71.2880 C   0  0  0  0  0  0  0  0  0  0  0  0
  126.7240  118.1660   72.2560 C   0  0  0  0  0  0  0  0  0  0  0  0
  126.8340  117.8390   73.6060 C   0  0  0  0  0  0  0  0  0  0  0  0
  127.5130  118.6960   74.4810 C   0  0  0  0  0  0  0  0  0  0  0  0
  127.6050  118.2970   75.9460 C   0  0  0  0  0  0  0  0  0  0  0  0
  128.0730  119.8860   73.9420 C   0  0  0  0  0  0  0  0  0  0  0  0
  128.8170  120.9630   74.5370 C   0  0  0  0  0  0  0  0  0  0  0  0
  129.1300  120.9850   75.8730 N   0  0  0  0  0  0  0  0  0  0  0  0
  129.1860  121.9710   73.6310 C   0  0  0  0  0  0  0  0  0  0  0  0
  129.9260  123.2060   73.8940 C   0  0  0  0  0  0  0  0  0  0  0  0
  129.4020  124.3050   73.7020 O   0  0  0  0  0  0  0  0  0  0  0  0
  131.1880  123.0380   74.3610 N   0  0  0  0  0  0  0  0  0  0  0  0
  132.1650  124.0050   74.6680 C   0  0  0  0  0  0  0  0  0  0  0  0
  131.8840  125.3110   74.2530 C   0  0  0  0  0  0  0  0  0  0  0  0
  132.7830  126.3400   74.5190 C   0  0  0  0  0  0  0  0  0  0  0  0
  133.9620  126.0660   75.2080 C   0  0  0  0  0  0  0  0  0  0  0  0
  134.2470  124.7730   75.6380 C   0  0  0  0  0  0  0  0  0  0  0  0
  133.3500  123.7410   75.3730 C   0  0  0  0  0  0  0  0  0  0  0  0
  128.6170  121.6010   72.0030 S   0  0  0  0  0  0  0  0  0  0  0  0
  127.8900  120.1060   72.5430 C   0  0  0  0  0  0  0  0  0  0  0  0
  127.2440  119.2910   71.7080 N   0  0  0  0  0  0  0  0  0  0  0  0
  125.3988  116.5209   71.8527 H   0  0  0  0  0  0  0  0  0  0  0  0
  125.3219  117.8571   70.6548 H   0  0  0  0  0  0  0  0  0  0  0  0
  126.7208  116.7303   70.6548 H   0  0  0  0  0  0  0  0  0  0  0  0
  126.3875  116.9077   73.9845 H   0  0  0  0  0  0  0  0  0  0  0  0
  127.4028  119.1741   76.5783 H   0  0  0  0  0  0  0  0  0  0  0  0
  126.8642  117.5124   76.1596 H   0  0  0  0  0  0  0  0  0  0  0  0
  128.6146  117.9160   76.1596 H   0  0  0  0  0  0  0  0  0  0  0  0
  128.6120  120.4470   76.5520 H   0  0  0  0  0  0  0  0  0  0  0  0
  129.8990  121.5410   76.2230 H   0  0  0  0  0  0  0  0  0  0  0  0
  131.4760  122.0860   74.5330 H   0  0  0  0  0  0  0  0  0  0  0  0
  130.9492  125.5257   73.7145 H   0  0  0  0  0  0  0  0  0  0  0  0
  132.5632  127.3652   74.1864 H   0  0  0  0  0  0  0  0  0  0  0  0
  134.6743  126.8785   75.4142 H   0  0  0  0  0  0  0  0  0  0  0  0
  135.1784  124.5669   76.1857 H   0  0  0  0  0  0  0  0  0  0  0  0
  133.5700  122.7193   75.7160 H   0  0  0  0  0  0  0  0  0  0  0  0
  1  2  1  0
  2  3  2  0
  3  4  1  0
  4  5  1  0
  4  6  2  0
  6  7  1  0
  7  8  1  0
  7  9  2  0
  9 10  1  0
 10 11  2  0
 10 12  1  0
 12 13  1  0
 13 14  2  0
 14 15  1  0
 15 16  2  0
 16 17  1  0
 17 18  2  0
  9 19  1  0
 19 20  1  0
 20 21  2  0
 21  2  1  0
 20  6  1  0
 18 13  1  0
  1 22  1  0
  1 23  1  0
  1 24  1  0
  3 25  1  0
  5 26  1  0
  5 27  1  0
  5 28  1  0
  8 29  1  0
  8 30  1  0
 12 31  1  0
 14 32  1  0
 15 33  1  0
 16 34  1  0
 17 35  1  0
 18 36  1  0
M  END
>  <Binding energies>  (1) 
[-6.2]

>  <Ligand effiencies>  (1) 
[-0.25833333333333336]

>  <Interactions>  (1) 
["V-B:GLU:543:C:9874, V-A:HIS:456:CD2:4065, V-A:LYS:547:CD:4947, V-A:VAL:458:CG2:4084, V-A:HIS:456:C:4058, V-A:LYS:547:CE:4948, V-B:GLY:544:CA:9886, V-A:HIS:456:CG:4063, H-B:LYS:547:NZ:9923, V-A:LYS:471:CD:4216, V-A:HIS:456:CB:4062, V-B:LYS:547:CE:9922, V-A:ASP:473:CG:4237, V-B:VAL:542:CG1:9871, V-A:TYR:484:CG:4339, V-B:GLU:543:CA:9876, V-A:TYR:484:CB:4338, V-A:TYR:484:CD2:4341, H-A:ASP:473:OD2:4239, V-A:SER:483:CA:4328, V-A:SER:483:CB:4330, H-A:TYR:484:N:4337"]

$$$$
4ae_Grossjean_2025
     RDKit          3D

 38 40  0  0  0  0  0  0  0  0999 V2000
  123.3900  130.9840   62.4940 C   0  0  0  0  0  0  0  0  0  0  0  0
  124.7150  130.7260   63.1830 C   0  0  0  0  0  0  0  0  0  0  0  0
  125.2640  131.6450   64.0810 C   0  0  0  0  0  0  0  0  0  0  0  0
  126.4920  131.3440   64.6710 C   0  0  0  0  0  0  0  0  0  0  0  0
  127.1340  130.1450   64.3540 C   0  0  0  0  0  0  0  0  0  0  0  0
  126.5250  129.2650   63.4530 C   0  0  0  0  0  0  0  0  0  0  0  0
  127.2290  128.0850   63.1580 N   0  0  0  0  0  0  0  0  0  0  0  0
  127.5160  127.5490   61.9450 C   0  0  0  0  0  0  0  0  0  0  0  0
  127.1710  128.0520   60.8740 O   0  0  0  0  0  0  0  0  0  0  0  0
  128.2780  126.2990   61.9750 C   0  0  0  0  0  0  0  0  0  0  0  0
  127.7300  124.8990   61.0530 S   0  0  0  0  0  0  0  0  0  0  0  0
  129.0640  123.9310   61.6370 C   0  0  0  0  0  0  0  0  0  0  0  0
  129.2240  122.6590   61.2740 N   0  0  0  0  0  0  0  0  0  0  0  0
  130.2950  122.0190   61.8020 C   0  0  0  0  0  0  0  0  0  0  0  0
  130.4550  120.5700   61.3810 C   0  0  0  0  0  0  0  0  0  0  0  0
  131.2030  122.6180   62.6740 C   0  0  0  0  0  0  0  0  0  0  0  0
  131.0320  123.9550   63.0520 C   0  0  0  0  0  0  0  0  0  0  0  0
  132.0470  124.5630   64.0090 C   0  0  0  0  0  0  0  0  0  0  0  0
  129.9180  124.6580   62.5200 C   0  0  0  0  0  0  0  0  0  0  0  0
  129.4490  126.0070   62.6950 C   0  0  0  0  0  0  0  0  0  0  0  0
  130.0980  126.9110   63.4960 N   0  0  0  0  0  0  0  0  0  0  0  0
  125.3270  129.5570   62.8660 N   0  0  0  0  0  0  0  0  0  0  0  0
  122.6066  131.1365   63.2510 H   0  0  0  0  0  0  0  0  0  0  0  0
  123.4725  131.8830   61.8654 H   0  0  0  0  0  0  0  0  0  0  0  0
  123.1292  130.1198   61.8654 H   0  0  0  0  0  0  0  0  0  0  0  0
  124.7406  132.5833   64.3171 H   0  0  0  0  0  0  0  0  0  0  0  0
  126.9516  132.0468   65.3815 H   0  0  0  0  0  0  0  0  0  0  0  0
  128.1052  129.8959   64.8065 H   0  0  0  0  0  0  0  0  0  0  0  0
  127.5120  127.5480   63.9640 H   0  0  0  0  0  0  0  0  0  0  0  0
  130.5252  119.9339   62.2756 H   0  0  0  0  0  0  0  0  0  0  0  0
  129.5852  120.2643   60.7811 H   0  0  0  0  0  0  0  0  0  0  0  0
  131.3706  120.4614   60.7811 H   0  0  0  0  0  0  0  0  0  0  0  0
  132.0535  122.0402   63.0649 H   0  0  0  0  0  0  0  0  0  0  0  0
  131.7321  124.3743   65.0459 H   0  0  0  0  0  0  0  0  0  0  0  0
  133.0329  124.1066   63.8364 H   0  0  0  0  0  0  0  0  0  0  0  0
  132.1098  125.6476   63.8364 H   0  0  0  0  0  0  0  0  0  0  0  0
  130.1680  127.8880   63.2510 H   0  0  0  0  0  0  0  0  0  0  0  0
  130.5290  126.6270   64.3650 H   0  0  0  0  0  0  0  0  0  0  0  0
  1  2  1  0
  2  3  2  0
  3  4  1  0
  4  5  2  0
  5  6  1  0
  6  7  1  0
  7  8  1  0
  8  9  2  0
  8 10  1  0
 10 11  1  0
 11 12  1  0
 12 13  2  0
 13 14  1  0
 14 15  1  0
 14 16  2  0
 16 17  1  0
 17 18  1  0
 17 19  2  0
 19 20  1  0
 20 21  1  0
  6 22  2  0
 22  2  1  0
 20 10  2  0
 19 12  1  0
  1 23  1  0
  1 24  1  0
  1 25  1  0
  3 26  1  0
  4 27  1  0
  5 28  1  0
  7 29  1  0
 15 30  1  0
 15 31  1  0
 15 32  1  0
 16 33  1  0
 18 34  1  0
 18 35  1  0
 18 36  1  0
 21 37  1  0
 21 38  1  0
M  END
>  <Binding energies>  (1) 
[-5.98]

>  <Ligand effiencies>  (1) 
[-0.23920000000000002]

>  <Interactions>  (1) 
["V-B:GLY:454:CA:9020, V-B:GLY:453:C:9013, V-B:ILE:369:CD1:8210, V-B:TYR:539:CE1:9847, V-A:LEU:475:CD2:4256, V-B:TYR:539:CD1:9845, H-B:GLU:543:OE1:9881, H-B:ARG:545:NH2:9900, V-B:GLY:453:CA:9015, H-B:GLU:543:OE2:9882, V-B:GLU:543:CD:9880, H-A:GLU:543:OE2:4908, V-A:GLU:543:CD:4906, V-B:ARG:545:CZ:9898, H-A:GLU:543:OE1:4907, V-B:ALA:541:CB:9864, V-B:TYR:484:CZ:9318"]

$$$$
4af_Grossjean_2025
     RDKit          3D

 35 37  0  0  0  0  0  0  0  0999 V2000
  125.9490  117.2730   71.5040 C   0  0  0  0  0  0  0  0  0  0  0  0
  126.8000  118.1420   72.4120 C   0  0  0  0  0  0  0  0  0  0  0  0
  127.1630  117.7080   73.6860 C   0  0  0  0  0  0  0  0  0  0  0  0
  127.9470  118.5270   74.5070 C   0  0  0  0  0  0  0  0  0  0  0  0
  128.3160  118.0120   75.8890 C   0  0  0  0  0  0  0  0  0  0  0  0
  128.3460  119.7920   73.9950 C   0  0  0  0  0  0  0  0  0  0  0  0
  129.1320  120.8600   74.5540 C   0  0  0  0  0  0  0  0  0  0  0  0
  129.6700  120.7900   75.8140 N   0  0  0  0  0  0  0  0  0  0  0  0
  129.2900  121.9600   73.6970 C   0  0  0  0  0  0  0  0  0  0  0  0
  129.9950  123.2180   73.9490 C   0  0  0  0  0  0  0  0  0  0  0  0
  129.4400  124.2990   73.7490 O   0  0  0  0  0  0  0  0  0  0  0  0
  131.2590  123.0900   74.4220 N   0  0  0  0  0  0  0  0  0  0  0  0
  132.2100  124.0850   74.7170 C   0  0  0  0  0  0  0  0  0  0  0  0
  133.4320  123.8740   75.3820 C   0  0  0  0  0  0  0  0  0  0  0  0
  134.2790  124.9550   75.6290 C   0  0  0  0  0  0  0  0  0  0  0  0
  133.8830  126.2260   75.2090 C   0  0  0  0  0  0  0  0  0  0  0  0
  132.7070  126.4560   74.5730 N   0  0  0  0  0  0  0  0  0  0  0  0
  131.8940  125.3960   74.3410 C   0  0  0  0  0  0  0  0  0  0  0  0
  128.4580  121.6970   72.1620 S   0  0  0  0  0  0  0  0  0  0  0  0
  127.9090  120.1180   72.6770 C   0  0  0  0  0  0  0  0  0  0  0  0
  127.1630  119.3400   71.8910 N   0  0  0  0  0  0  0  0  0  0  0  0
  125.3093  116.6198   72.1157 H   0  0  0  0  0  0  0  0  0  0  0  0
  125.3188  117.9131   70.8691 H   0  0  0  0  0  0  0  0  0  0  0  0
  126.6022  116.6563   70.8691 H   0  0  0  0  0  0  0  0  0  0  0  0
  126.8335  116.7222   74.0461 H   0  0  0  0  0  0  0  0  0  0  0  0
  127.8559  118.6541   76.6545 H   0  0  0  0  0  0  0  0  0  0  0  0
  127.9495  116.9815   76.0062 H   0  0  0  0  0  0  0  0  0  0  0  0
  129.4096  118.0277   76.0062 H   0  0  0  0  0  0  0  0  0  0  0  0
  129.0950  120.8260   76.6440 H   0  0  0  0  0  0  0  0  0  0  0  0
  130.6670  120.6960   75.9530 H   0  0  0  0  0  0  0  0  0  0  0  0
  131.5750  122.1470   74.5960 H   0  0  0  0  0  0  0  0  0  0  0  0
  133.7180  122.8623   75.7054 H   0  0  0  0  0  0  0  0  0  0  0  0
  135.2397  124.8086   76.1444 H   0  0  0  0  0  0  0  0  0  0  0  0
  134.5528  127.0770   75.4019 H   0  0  0  0  0  0  0  0  0  0  0  0
  130.9362  125.5755   73.8307 H   0  0  0  0  0  0  0  0  0  0  0  0
  1  2  1  0
  2  3  2  0
  3  4  1  0
  4  5  1  0
  4  6  2  0
  6  7  1  0
  7  8  1  0
  7  9  2  0
  9 10  1  0
 10 11  2  0
 10 12  1  0
 12 13  1  0
 13 14  2  0
 14 15  1  0
 15 16  2  0
 16 17  1  0
 17 18  2  0
  9 19  1  0
 19 20  1  0
 20 21  2  0
 21  2  1  0
 20  6  1  0
 18 13  1  0
  1 22  1  0
  1 23  1  0
  1 24  1  0
  3 25  1  0
  5 26  1  0
  5 27  1  0
  5 28  1  0
  8 29  1  0
  8 30  1  0
 12 31  1  0
 14 32  1  0
 15 33  1  0
 16 34  1  0
 18 35  1  0
M  END
>  <Binding energies>  (1) 
[-6.44]

>  <Ligand effiencies>  (1) 
[-0.26833333333333337]

>  <Interactions>  (1) 
["V-B:GLU:543:C:9874, V-A:HIS:456:CD2:4065, V-A:LYS:547:CD:4947, V-A:VAL:458:CG2:4084, V-A:HIS:456:C:4058, V-B:GLY:544:CA:9886, V-A:HIS:456:CG:4063, H-B:LYS:547:NZ:9923, V-A:LYS:471:CD:4216, V-A:HIS:456:CB:4062, V-B:LYS:547:CE:9922, V-A:ASP:473:CG:4237, V-B:VAL:542:CG1:9871, V-A:TYR:484:CG:4339, V-B:GLU:543:CA:9876, V-A:TYR:484:CB:4338, V-A:TYR:484:CD2:4341, H-A:ASP:473:OD2:4239, V-A:SER:483:CB:4330, H-A:TYR:484:N:4337"]

$$$$
4ag_Grossjean_2025
     RDKit          3D

 39 41  0  0  0  0  0  0  0  0999 V2000
  134.2640  123.8670   60.0000 C   0  0  0  0  0  0  0  0  0  0  0  0
  133.2580  124.4330   60.9850 C   0  0  0  0  0  0  0  0  0  0  0  0
  132.0260  124.9200   60.5520 C   0  0  0  0  0  0  0  0  0  0  0  0
  131.1130  125.4370   61.4770 C   0  0  0  0  0  0  0  0  0  0  0  0
  129.7810  125.9560   60.9550 C   0  0  0  0  0  0  0  0  0  0  0  0
  131.4880  125.4430   62.8470 C   0  0  0  0  0  0  0  0  0  0  0  0
  130.8120  125.8880   64.0350 C   0  0  0  0  0  0  0  0  0  0  0  0
  129.5530  126.4350   64.0020 N   0  0  0  0  0  0  0  0  0  0  0  0
  131.5550  125.7140   65.2120 C   0  0  0  0  0  0  0  0  0  0  0  0
  131.1730  126.0420   66.5850 C   0  0  0  0  0  0  0  0  0  0  0  0
  130.4570  125.2900   67.2500 O   0  0  0  0  0  0  0  0  0  0  0  0
  131.6330  127.2170   67.0650 N   0  0  0  0  0  0  0  0  0  0  0  0
  131.3980  127.7320   68.4130 C   0  0  0  0  0  0  0  0  0  0  0  0
  129.9980  127.4520   68.9480 C   0  0  0  0  0  0  0  0  0  0  0  0
  129.7970  127.2960   70.3220 C   0  0  0  0  0  0  0  0  0  0  0  0
  128.5150  127.0650   70.8150 C   0  0  0  0  0  0  0  0  0  0  0  0
  127.4370  127.0020   69.9340 C   0  0  0  0  0  0  0  0  0  0  0  0
  127.6290  127.1720   68.5650 C   0  0  0  0  0  0  0  0  0  0  0  0
  128.9100  127.4040   68.0720 C   0  0  0  0  0  0  0  0  0  0  0  0
  133.1210  124.9760   64.8770 S   0  0  0  0  0  0  0  0  0  0  0  0
  132.7770  124.9160   63.1620 C   0  0  0  0  0  0  0  0  0  0  0  0
  133.6490  124.4210   62.2830 N   0  0  0  0  0  0  0  0  0  0  0  0
  135.0938  123.4001   60.5509 H   0  0  0  0  0  0  0  0  0  0  0  0
  133.7733  123.1125   59.3675 H   0  0  0  0  0  0  0  0  0  0  0  0
  134.6541  124.6780   59.3675 H   0  0  0  0  0  0  0  0  0  0  0  0
  131.7715  124.8978   59.4821 H   0  0  0  0  0  0  0  0  0  0  0  0
  129.1286  126.2102   61.8034 H   0  0  0  0  0  0  0  0  0  0  0  0
  129.9519  126.8533   60.3421 H   0  0  0  0  0  0  0  0  0  0  0  0
  129.2997  125.1796   60.3421 H   0  0  0  0  0  0  0  0  0  0  0  0
  128.7590  125.9230   63.6470 H   0  0  0  0  0  0  0  0  0  0  0  0
  129.3790  127.3720   64.3390 H   0  0  0  0  0  0  0  0  0  0  0  0
  132.2600  127.7560   66.4860 H   0  0  0  0  0  0  0  0  0  0  0  0
  132.1275  127.2676   69.0928 H   0  0  0  0  0  0  0  0  0  0  0  0
  131.5057  128.8254   68.3594 H   0  0  0  0  0  0  0  0  0  0  0  0
  130.6504  127.3556   71.0135 H   0  0  0  0  0  0  0  0  0  0  0  0
  128.3541  126.9329   71.8951 H   0  0  0  0  0  0  0  0  0  0  0  0
  126.4251  126.8163   70.3234 H   0  0  0  0  0  0  0  0  0  0  0  0
  126.7724  127.1232   67.8766 H   0  0  0  0  0  0  0  0  0  0  0  0
  129.0660  127.5496   66.9929 H   0  0  0  0  0  0  0  0  0  0  0  0
  1  2  1  0
  2  3  2  0
  3  4  1  0
  4  5  1  0
  4  6  2  0
  6  7  1  0
  7  8  1  0
  7  9  2  0
  9 10  1  0
 10 11  2  0
 10 12  1  0
 12 13  1  0
 13 14  1  0
 14 15  2  0
 15 16  1  0
 16 17  2  0
 17 18  1  0
 18 19  2  0
  9 20  1  0
 20 21  1  0
 21 22  2  0
 22  2  1  0
 21  6  1  0
 19 14  1  0
  1 23  1  0
  1 24  1  0
  1 25  1  0
  3 26  1  0
  5 27  1  0
  5 28  1  0
  5 29  1  0
  8 30  1  0
  8 31  1  0
 12 32  1  0
 13 33  1  0
 13 34  1  0
 15 35  1  0
 16 36  1  0
 17 37  1  0
 18 38  1  0
 19 39  1  0
M  END
>  <Binding energies>  (1) 
[-6.12]

>  <Ligand effiencies>  (1) 
[-0.24480000000000002]

>  <Interactions>  (1) 
["V-A:ILE:369:CD1:3236, V-A:GLY:454:CA:4046, V-A:GLU:543:CG:4905, H-B:GLU:543:OE1:9881, V-A:ASP:366:CG:3210, V-A:ILE:369:CG2:3234, V-B:HIS:456:CE1:9040, H-B:GLU:543:OE2:9882, V-B:GLU:543:CD:9880, V-B:GLU:543:CB:9878, V-B:GLU:543:CG:9879, V-A:HIS:456:CE1:4066, H-A:GLU:543:OE2:4908, V-A:GLU:543:CD:4906, V-B:GLU:543:C:9874, V-A:ILE:369:CB:3233, V-B:GLY:544:C:9884, V-A:ARG:545:CZ:4924, V-A:ARG:545:CG:4920, H-A:GLY:454:N:4047, V-A:ARG:545:CD:4921, H-A:GLU:543:OE1:4907, V-A:ILE:369:CG1:3235, V-A:HIS:456:CD2:4065, H-A:HIS:456:NE2:4067, H-A:TYR:484:OH:4345, V-A:GLU:543:C:4900, V-B:GLY:544:CA:9886"]

$$$$
4ah_Grossjean_2025
     RDKit          3D

 51 53  0  0  0  0  0  0  0  0999 V2000
  126.0190  128.6380   58.2670 C   0  0  0  0  0  0  0  0  0  0  0  0
  126.0910  130.0190   58.6000 O   0  0  0  0  0  0  0  0  0  0  0  0
  125.9540  130.4070   59.9220 C   0  0  0  0  0  0  0  0  0  0  0  0
  126.7440  129.9110   60.9700 C   0  0  0  0  0  0  0  0  0  0  0  0
  126.5480  130.3470   62.2810 C   0  0  0  0  0  0  0  0  0  0  0  0
  127.4470  129.8310   63.4000 C   0  0  0  0  0  0  0  0  0  0  0  0
  128.4820  128.9060   62.9390 N   0  0  0  0  0  0  0  0  0  0  0  0
  128.2600  127.6860   62.4080 C   0  0  0  0  0  0  0  0  0  0  0  0
  127.1300  127.2070   62.2920 O   0  0  0  0  0  0  0  0  0  0  0  0
  129.4490  126.9340   62.0100 C   0  0  0  0  0  0  0  0  0  0  0  0
  129.8590  126.7610   60.3020 S   0  0  0  0  0  0  0  0  0  0  0  0
  131.2540  125.7790   60.6910 C   0  0  0  0  0  0  0  0  0  0  0  0
  132.0590  125.2920   59.7470 N   0  0  0  0  0  0  0  0  0  0  0  0
  133.1050  124.5480   60.1810 C   0  0  0  0  0  0  0  0  0  0  0  0
  134.0070  124.0020   59.0910 C   0  0  0  0  0  0  0  0  0  0  0  0
  133.3620  124.2830   61.5250 C   0  0  0  0  0  0  0  0  0  0  0  0
  132.5140  124.7930   62.5140 C   0  0  0  0  0  0  0  0  0  0  0  0
  132.8350  124.4760   63.9670 C   0  0  0  0  0  0  0  0  0  0  0  0
  131.4040  125.5770   62.0960 C   0  0  0  0  0  0  0  0  0  0  0  0
  130.3540  126.2370   62.8250 C   0  0  0  0  0  0  0  0  0  0  0  0
  130.2660  126.1870   64.1930 N   0  0  0  0  0  0  0  0  0  0  0  0
  125.5740  131.3100   62.5480 C   0  0  0  0  0  0  0  0  0  0  0  0
  124.7660  131.8200   61.5200 C   0  0  0  0  0  0  0  0  0  0  0  0
  123.7730  132.7630   61.7150 O   0  0  0  0  0  0  0  0  0  0  0  0
  124.1190  134.1440   61.7520 C   0  0  0  0  0  0  0  0  0  0  0  0
  124.9620  131.3560   60.2120 C   0  0  0  0  0  0  0  0  0  0  0  0
  124.1900  131.8600   59.1930 O   0  0  0  0  0  0  0  0  0  0  0  0
  123.0310  131.0890   58.9090 C   0  0  0  0  0  0  0  0  0  0  0  0
  125.9878  128.0395   59.1894 H   0  0  0  0  0  0  0  0  0  0  0  0
  125.1098  128.4500   57.6770 H   0  0  0  0  0  0  0  0  0  0  0  0
  126.9037  128.3565   57.6770 H   0  0  0  0  0  0  0  0  0  0  0  0
  127.5275  129.1693   60.7556 H   0  0  0  0  0  0  0  0  0  0  0  0
  127.9375  130.6922   63.8773 H   0  0  0  0  0  0  0  0  0  0  0  0
  126.8053  129.2751   64.0994 H   0  0  0  0  0  0  0  0  0  0  0  0
  129.4250  129.2660   62.9270 H   0  0  0  0  0  0  0  0  0  0  0  0
  134.8628  123.4840   59.5485 H   0  0  0  0  0  0  0  0  0  0  0  0
  133.4412  123.2946   58.4669 H   0  0  0  0  0  0  0  0  0  0  0  0
  134.3713  124.8313   58.4669 H   0  0  0  0  0  0  0  0  0  0  0  0
  134.2321  123.6725   61.8083 H   0  0  0  0  0  0  0  0  0  0  0  0
  132.2076  125.0956   64.6247 H   0  0  0  0  0  0  0  0  0  0  0  0
  132.6336  123.4126   64.1634 H   0  0  0  0  0  0  0  0  0  0  0  0
  133.8958  124.6907   64.1634 H   0  0  0  0  0  0  0  0  0  0  0  0
  130.7600  126.8390   64.7840 H   0  0  0  0  0  0  0  0  0  0  0  0
  129.7020  125.4870   64.6560 H   0  0  0  0  0  0  0  0  0  0  0  0
  125.4378  131.6739   63.5771 H   0  0  0  0  0  0  0  0  0  0  0  0
  124.2015  134.4734   62.7983 H   0  0  0  0  0  0  0  0  0  0  0  0
  125.0826  134.2943   61.2432 H   0  0  0  0  0  0  0  0  0  0  0  0
  123.3401  134.7309   61.2432 H   0  0  0  0  0  0  0  0  0  0  0  0
  122.5593  130.7752   59.8519 H   0  0  0  0  0  0  0  0  0  0  0  0
  122.3207  131.6952   58.3276 H   0  0  0  0  0  0  0  0  0  0  0  0
  123.3156  130.1996   58.3276 H   0  0  0  0  0  0  0  0  0  0  0  0
  1  2  1  0
  2  3  1  0
  3  4  2  0
  4  5  1  0
  5  6  1  0
  6  7  1  0
  7  8  1  0
  8  9  2  0
  8 10  1  0
 10 11  1  0
 11 12  1  0
 12 13  2  0
 13 14  1  0
 14 15  1  0
 14 16  2  0
 16 17  1  0
 17 18  1  0
 17 19  2  0
 19 20  1  0
 20 21  1  0
  5 22  2  0
 22 23  1  0
 23 24  1  0
 24 25  1  0
 23 26  2  0
 26 27  1  0
 27 28  1  0
 26  3  1  0
 20 10  2  0
 19 12  1  0
  1 29  1  0
  1 30  1  0
  1 31  1  0
  4 32  1  0
  6 33  1  0
  6 34  1  0
  7 35  1  0
 15 36  1  0
 15 37  1  0
 15 38  1  0
 16 39  1  0
 18 40  1  0
 18 41  1  0
 18 42  1  0
 21 43  1  0
 21 44  1  0
 22 45  1  0
 25 46  1  0
 25 47  1  0
 25 48  1  0
 28 49  1  0
 28 50  1  0
 28 51  1  0
M  END
>  <Binding energies>  (1) 
[-5.59]

>  <Ligand effiencies>  (1) 
[-0.1803225806451613]

>  <Interactions>  (1) 
["V-B:LEU:475:CD2:9230, V-B:ASP:366:CB:8183, H-A:TYR:539:OH:4876, V-B:ILE:369:CG2:8208, V-A:TYR:539:CE1:4873, V-B:ILE:369:CD1:8210, V-B:ASP:366:CG:8184, V-B:TYR:539:CE1:9847, V-A:ILE:369:CD1:3236, V-A:GLY:454:CA:4046, H-B:GLU:543:OE1:9881, V-A:ASP:366:CG:3210, H-B:ARG:545:NH2:9900, V-A:ILE:369:CG2:3234, H-B:GLU:543:OE2:9882, V-B:GLU:543:CD:9880, H-A:GLU:543:OE2:4908, V-A:ASP:366:CA:3207, V-A:ASP:366:CB:3209, V-A:GLU:543:CD:4906, V-B:ILE:369:CG1:8209, V-B:ILE:369:CB:8207, V-A:ILE:369:CB:3233, V-B:ASP:366:CA:8181, H-A:GLU:543:OE1:4907, V-B:ASP:366:C:8179"]

$$$$
4ai_Grossjean_2025
     RDKit          3D

 32 34  0  0  0  0  0  0  0  0999 V2000
  126.2710  117.6260   71.3000 C   0  0  0  0  0  0  0  0  0  0  0  0
  127.0820  118.4730   72.2640 C   0  0  0  0  0  0  0  0  0  0  0  0
  127.3310  118.0380   73.5650 C   0  0  0  0  0  0  0  0  0  0  0  0
  128.0870  118.8320   74.4350 C   0  0  0  0  0  0  0  0  0  0  0  0
  128.3340  118.3140   75.8440 C   0  0  0  0  0  0  0  0  0  0  0  0
  128.5780  120.0720   73.9440 C   0  0  0  0  0  0  0  0  0  0  0  0
  129.3690  121.1090   74.5500 C   0  0  0  0  0  0  0  0  0  0  0  0
  129.8040  121.0340   75.8490 N   0  0  0  0  0  0  0  0  0  0  0  0
  129.6510  122.1860   73.6940 C   0  0  0  0  0  0  0  0  0  0  0  0
  130.4120  123.4030   73.9810 C   0  0  0  0  0  0  0  0  0  0  0  0
  129.9260  124.5150   73.7650 O   0  0  0  0  0  0  0  0  0  0  0  0
  131.6490  123.2050   74.5030 N   0  0  0  0  0  0  0  0  0  0  0  0
  132.5730  124.1730   74.8750 C   0  0  0  0  0  0  0  0  0  0  0  0
  132.3550  125.5400   74.7050 C   0  0  0  0  0  0  0  0  0  0  0  0
  133.4910  126.1470   75.1880 C   0  0  0  0  0  0  0  0  0  0  0  0
  134.3480  125.1960   75.6280 O   0  0  0  0  0  0  0  0  0  0  0  0
  133.7550  123.9490   75.4260 N   0  0  0  0  0  0  0  0  0  0  0  0
  128.9140  121.9470   72.1080 S   0  0  0  0  0  0  0  0  0  0  0  0
  128.2530  120.4020   72.5940 C   0  0  0  0  0  0  0  0  0  0  0  0
  127.5320  119.6490   71.7630 N   0  0  0  0  0  0  0  0  0  0  0  0
  125.6196  116.9457   71.8683 H   0  0  0  0  0  0  0  0  0  0  0  0
  125.6541  118.2804   70.6666 H   0  0  0  0  0  0  0  0  0  0  0  0
  126.9516  117.0381   70.6666 H   0  0  0  0  0  0  0  0  0  0  0  0
  126.9335  117.0712   73.9075 H   0  0  0  0  0  0  0  0  0  0  0  0
  127.9801  119.0561   76.5748 H   0  0  0  0  0  0  0  0  0  0  0  0
  127.7895  117.3691   75.9880 H   0  0  0  0  0  0  0  0  0  0  0  0
  129.4109  118.1422   75.9880 H   0  0  0  0  0  0  0  0  0  0  0  0
  129.1620  121.0300   76.6280 H   0  0  0  0  0  0  0  0  0  0  0  0
  130.7900  120.9850   76.0700 H   0  0  0  0  0  0  0  0  0  0  0  0
  131.9380  122.2500   74.6500 H   0  0  0  0  0  0  0  0  0  0  0  0
  131.4666  126.0275   74.2771 H   0  0  0  0  0  0  0  0  0  0  0  0
  133.6737  127.2314   75.2127 H   0  0  0  0  0  0  0  0  0  0  0  0
  1  2  1  0
  2  3  2  0
  3  4  1  0
  4  5  1  0
  4  6  2  0
  6  7  1  0
  7  8  1  0
  7  9  2  0
  9 10  1  0
 10 11  2  0
 10 12  1  0
 12 13  1  0
 13 14  1  0
 14 15  2  0
 15 16  1  0
 16 17  1  0
  9 18  1  0
 18 19  1  0
 19 20  2  0
 20  2  1  0
 19  6  1  0
 17 13  2  0
  1 21  1  0
  1 22  1  0
  1 23  1  0
  3 24  1  0
  5 25  1  0
  5 26  1  0
  5 27  1  0
  8 28  1  0
  8 29  1  0
 12 30  1  0
 14 31  1  0
 15 32  1  0
M  END
>  <Binding energies>  (1) 
[-6.2]

>  <Ligand effiencies>  (1) 
[-0.26956521739130435]

>  <Interactions>  (1) 
["V-B:GLU:543:C:9874, V-A:HIS:456:CD2:4065, V-A:LYS:547:CD:4947, V-A:VAL:458:CG2:4084, V-B:GLY:544:CA:9886, V-A:HIS:456:CG:4063, H-B:LYS:547:NZ:9923, V-A:HIS:456:CB:4062, V-A:ASP:473:CG:4237, V-B:VAL:542:CG1:9871, V-A:TYR:484:CG:4339, V-B:GLU:543:CA:9876, V-A:TYR:484:CB:4338, V-A:TYR:484:CD2:4341, H-A:ASP:473:OD2:4239, V-A:SER:483:CA:4328, V-A:SER:483:CB:4330, H-A:TYR:484:N:4337"]

$$$$
4aj_Grossjean_2025
     RDKit          3D

 32 34  0  0  0  0  0  0  0  0999 V2000
  126.0250  117.4550   71.4950 C   0  0  0  0  0  0  0  0  0  0  0  0
  126.8900  118.2970   72.4160 C   0  0  0  0  0  0  0  0  0  0  0  0
  127.2230  117.8510   73.6930 C   0  0  0  0  0  0  0  0  0  0  0  0
  128.0170  118.6460   74.5270 C   0  0  0  0  0  0  0  0  0  0  0  0
  128.3520  118.1160   75.9130 C   0  0  0  0  0  0  0  0  0  0  0  0
  128.4600  119.8990   74.0240 C   0  0  0  0  0  0  0  0  0  0  0  0
  129.2690  120.9420   74.5970 C   0  0  0  0  0  0  0  0  0  0  0  0
  129.7820  120.8580   75.8660 N   0  0  0  0  0  0  0  0  0  0  0  0
  129.4810  122.0330   73.7400 C   0  0  0  0  0  0  0  0  0  0  0  0
  130.2380  123.2600   73.9970 C   0  0  0  0  0  0  0  0  0  0  0  0
  129.7500  124.3650   73.7490 O   0  0  0  0  0  0  0  0  0  0  0  0
  131.4730  123.0810   74.5270 N   0  0  0  0  0  0  0  0  0  0  0  0
  132.3830  124.0710   74.8730 C   0  0  0  0  0  0  0  0  0  0  0  0
  133.5660  123.9220   75.4280 N   0  0  0  0  0  0  0  0  0  0  0  0
  134.1650  125.0820   75.6140 C   0  0  0  0  0  0  0  0  0  0  0  0
  133.4600  126.2110   75.2040 C   0  0  0  0  0  0  0  0  0  0  0  0
  131.9320  125.7120   74.5400 S   0  0  0  0  0  0  0  0  0  0  0  0
  128.6620  121.7980   72.1940 S   0  0  0  0  0  0  0  0  0  0  0  0
  128.0530  120.2380   72.6990 C   0  0  0  0  0  0  0  0  0  0  0  0
  127.2960  119.4840   71.9020 N   0  0  0  0  0  0  0  0  0  0  0  0
  125.3653  116.8129   72.0971 H   0  0  0  0  0  0  0  0  0  0  0  0
  125.4150  118.1146   70.8603 H   0  0  0  0  0  0  0  0  0  0  0  0
  126.6680  116.8275   70.8603 H   0  0  0  0  0  0  0  0  0  0  0  0
  126.8617  116.8737   74.0458 H   0  0  0  0  0  0  0  0  0  0  0  0
  127.9279  118.7870   76.6745 H   0  0  0  0  0  0  0  0  0  0  0  0
  127.9260  117.1090   76.0333 H   0  0  0  0  0  0  0  0  0  0  0  0
  129.4444  118.0688   76.0333 H   0  0  0  0  0  0  0  0  0  0  0  0
  130.7720  120.9400   76.0470 H   0  0  0  0  0  0  0  0  0  0  0  0
  129.1830  120.7080   76.6660 H   0  0  0  0  0  0  0  0  0  0  0  0
  131.7710  122.1320   74.6960 H   0  0  0  0  0  0  0  0  0  0  0  0
  135.1647  125.1538   76.0672 H   0  0  0  0  0  0  0  0  0  0  0  0
  133.8124  127.2497   75.2867 H   0  0  0  0  0  0  0  0  0  0  0  0
  1  2  1  0
  2  3  2  0
  3  4  1  0
  4  5  1  0
  4  6  2  0
  6  7  1  0
  7  8  1  0
  7  9  2  0
  9 10  1  0
 10 11  2  0
 10 12  1  0
 12 13  1  0
 13 14  2  0
 14 15  1  0
 15 16  2  0
 16 17  1  0
  9 18  1  0
 18 19  1  0
 19 20  2  0
 20  2  1  0
 19  6  1  0
 17 13  1  0
  1 21  1  0
  1 22  1  0
  1 23  1  0
  3 24  1  0
  5 25  1  0
  5 26  1  0
  5 27  1  0
  8 28  1  0
  8 29  1  0
 12 30  1  0
 15 31  1  0
 16 32  1  0
M  END
>  <Binding energies>  (1) 
[-6.42]

>  <Ligand effiencies>  (1) 
[-0.2791304347826087]

>  <Interactions>  (1) 
["V-B:GLU:543:C:9874, V-A:HIS:456:CD2:4065, V-A:LYS:547:CD:4947, V-A:VAL:458:CG2:4084, V-A:HIS:456:C:4058, V-A:LYS:547:CE:4948, V-B:GLY:544:CA:9886, V-A:HIS:456:CG:4063, H-B:LYS:547:NZ:9923, V-A:LYS:471:CD:4216, V-A:HIS:456:CB:4062, V-B:LYS:547:CE:9922, V-A:ASP:473:CG:4237, V-B:VAL:542:CG1:9871, V-A:TYR:484:CG:4339, V-B:GLU:543:CA:9876, V-A:TYR:484:CB:4338, V-A:TYR:484:CD2:4341, H-A:ASP:473:OD2:4239, V-A:SER:483:CB:4330, H-A:TYR:484:N:4337"]

$$$$
4ak_Grossjean_2025
     RDKit          3D

 50 51  0  0  0  0  0  0  0  0999 V2000
  131.3450  124.1000   74.7470 C   0  0  0  0  0  0  0  0  0  0  0  0
  130.6900  125.3320   74.4910 O   0  0  0  0  0  0  0  0  0  0  0  0
  131.4640  126.2340   73.7100 C   0  0  0  0  0  0  0  0  0  0  0  0
  130.5460  126.9910   72.7420 C   0  0  0  0  0  0  0  0  0  0  0  0
  129.1990  126.8720   73.1810 O   0  0  0  0  0  0  0  0  0  0  0  0
  128.2740  126.6180   72.1320 C   0  0  0  0  0  0  0  0  0  0  0  0
  128.9040  127.0180   70.7920 C   0  0  0  0  0  0  0  0  0  0  0  0
  127.8790  127.4110   69.8900 O   0  0  0  0  0  0  0  0  0  0  0  0
  128.0710  126.9410   68.5620 C   0  0  0  0  0  0  0  0  0  0  0  0
  128.9320  127.9520   67.7830 C   0  0  0  0  0  0  0  0  0  0  0  0
  128.2170  128.6120   66.6910 N   0  0  0  0  0  0  0  0  0  0  0  0
  127.7340  129.8710   66.7230 C   0  0  0  0  0  0  0  0  0  0  0  0
  127.8750  130.6080   67.7000 O   0  0  0  0  0  0  0  0  0  0  0  0
  127.0340  130.3210   65.5210 C   0  0  0  0  0  0  0  0  0  0  0  0
  125.6910  129.3830   64.8690 S   0  0  0  0  0  0  0  0  0  0  0  0
  125.4560  130.5340   63.5730 C   0  0  0  0  0  0  0  0  0  0  0  0
  124.5070  130.3730   62.6500 N   0  0  0  0  0  0  0  0  0  0  0  0
  124.4330  131.3370   61.6990 C   0  0  0  0  0  0  0  0  0  0  0  0
  123.3450  131.1360   60.6590 C   0  0  0  0  0  0  0  0  0  0  0  0
  125.2760  132.4450   61.6510 C   0  0  0  0  0  0  0  0  0  0  0  0
  126.2710  132.6110   62.6210 C   0  0  0  0  0  0  0  0  0  0  0  0
  127.1690  133.8340   62.5240 C   0  0  0  0  0  0  0  0  0  0  0  0
  126.3800  131.6200   63.6340 C   0  0  0  0  0  0  0  0  0  0  0  0
  127.2650  131.4770   64.7590 C   0  0  0  0  0  0  0  0  0  0  0  0
  128.2430  132.3950   65.0440 N   0  0  0  0  0  0  0  0  0  0  0  0
  131.4264  123.9468   75.8332 H   0  0  0  0  0  0  0  0  0  0  0  0
  130.7652  123.2773   74.3031 H   0  0  0  0  0  0  0  0  0  0  0  0
  132.3513  124.1206   74.3031 H   0  0  0  0  0  0  0  0  0  0  0  0
  131.9696  126.9518   74.3727 H   0  0  0  0  0  0  0  0  0  0  0  0
  132.2156  125.6708   73.1373 H   0  0  0  0  0  0  0  0  0  0  0  0
  130.8323  128.0528   72.7187 H   0  0  0  0  0  0  0  0  0  0  0  0
  130.6434  126.5646   71.7327 H   0  0  0  0  0  0  0  0  0  0  0  0
  128.0230  125.5472   72.1148 H   0  0  0  0  0  0  0  0  0  0  0  0
  127.3585  127.2047   72.2982 H   0  0  0  0  0  0  0  0  0  0  0  0
  129.5978  127.8572   70.9481 H   0  0  0  0  0  0  0  0  0  0  0  0
  129.4548  126.1626   70.3738 H   0  0  0  0  0  0  0  0  0  0  0  0
  128.5811  125.9668   68.5873 H   0  0  0  0  0  0  0  0  0  0  0  0
  127.0954  126.8294   68.0663 H   0  0  0  0  0  0  0  0  0  0  0  0
  129.2832  128.7229   68.4846 H   0  0  0  0  0  0  0  0  0  0  0  0
  129.7614  127.3882   67.3310 H   0  0  0  0  0  0  0  0  0  0  0  0
  128.0720  128.0620   65.8560 H   0  0  0  0  0  0  0  0  0  0  0  0
  122.3838  130.9584   61.1635 H   0  0  0  0  0  0  0  0  0  0  0  0
  123.2684  132.0352   60.0300 H   0  0  0  0  0  0  0  0  0  0  0  0
  123.5947  130.2688   60.0300 H   0  0  0  0  0  0  0  0  0  0  0  0
  125.1595  133.1900   60.8501 H   0  0  0  0  0  0  0  0  0  0  0  0
  127.4247  134.1823   63.5356 H   0  0  0  0  0  0  0  0  0  0  0  0
  128.0899  133.5707   61.9831 H   0  0  0  0  0  0  0  0  0  0  0  0
  126.6420  134.6339   61.9831 H   0  0  0  0  0  0  0  0  0  0  0  0
  128.0470  133.2400   65.5630 H   0  0  0  0  0  0  0  0  0  0  0  0
  129.1980  132.2550   64.7450 H   0  0  0  0  0  0  0  0  0  0  0  0
  1  2  1  0
  2  3  1  0
  3  4  1  0
  4  5  1  0
  5  6  1  0
  6  7  1  0
  7  8  1  0
  8  9  1  0
  9 10  1  0
 10 11  1  0
 11 12  1  0
 12 13  2  0
 12 14  1  0
 14 15  1  0
 15 16  1  0
 16 17  2  0
 17 18  1  0
 18 19  1  0
 18 20  2  0
 20 21  1  0
 21 22  1  0
 21 23  2  0
 23 24  1  0
 24 25  1  0
 24 14  2  0
 23 16  1  0
  1 26  1  0
  1 27  1  0
  1 28  1  0
  3 29  1  0
  3 30  1  0
  4 31  1  0
  4 32  1  0
  6 33  1  0
  6 34  1  0
  7 35  1  0
  7 36  1  0
  9 37  1  0
  9 38  1  0
 10 39  1  0
 10 40  1  0
 11 41  1  0
 19 42  1  0
 19 43  1  0
 19 44  1  0
 20 45  1  0
 22 46  1  0
 22 47  1  0
 22 48  1  0
 25 49  1  0
 25 50  1  0
M  END
>  <Binding energies>  (1) 
[-6.06]

>  <Ligand effiencies>  (1) 
[-0.21642857142857141]

>  <Interactions>  (1) 
["V-B:LEU:475:CD2:9230, V-B:ILE:369:CG2:8208, V-A:TYR:539:CE1:4873, V-B:ILE:369:CD1:8210, V-B:ASP:366:CG:8184, V-A:ALA:541:CB:4890, V-A:GLU:543:CG:4905, V-B:HIS:456:CE1:9040, H-B:GLU:543:OE2:9882, V-B:GLU:543:CD:9880, V-B:GLU:543:CB:9878, V-B:GLU:543:CG:9879, V-A:HIS:456:CE1:4066, H-A:GLU:543:OE2:4908, V-A:GLU:543:CD:4906, V-B:ILE:369:CG1:8209, V-B:ILE:369:CB:8207, V-A:GLU:543:CB:4904, V-B:GLU:543:C:9874, V-B:ASP:366:CA:8181, V-B:ARG:545:CZ:9898, V-B:GLY:544:C:9884, V-B:TYR:484:CE2:9317, H-A:GLU:543:OE1:4907, V-B:TYR:484:CZ:9318, V-A:HIS:456:CD2:4065, H-B:HIS:456:NE2:9041, H-B:TYR:484:OH:9319, V-A:LYS:547:CE:4948, V-B:GLY:544:CA:9886, V-A:HIS:456:CG:4063, H-B:LYS:547:NZ:9923, V-A:HIS:456:CB:4062, V-B:LYS:547:CE:9922"]

$$$$
4al_Grossjean_2025
     RDKit          3D

 28 29  0  0  0  0  0  0  0  0999 V2000
  132.0040  126.1370   57.6510 C   0  0  0  0  0  0  0  0  0  0  0  0
  132.0510  124.7820   58.0710 O   0  0  0  0  0  0  0  0  0  0  0  0
  133.0790  124.3230   58.8310 C   0  0  0  0  0  0  0  0  0  0  0  0
  134.0500  123.7090   58.3810 O   0  0  0  0  0  0  0  0  0  0  0  0
  132.9180  124.6360   60.2670 C   0  0  0  0  0  0  0  0  0  0  0  0
  134.2550  124.3590   61.3860 S   0  0  0  0  0  0  0  0  0  0  0  0
  133.3030  124.9380   62.7330 C   0  0  0  0  0  0  0  0  0  0  0  0
  133.7910  124.9850   63.9730 N   0  0  0  0  0  0  0  0  0  0  0  0
  132.9500  125.4550   64.9280 C   0  0  0  0  0  0  0  0  0  0  0  0
  133.5250  125.4990   66.3310 C   0  0  0  0  0  0  0  0  0  0  0  0
  131.6460  125.8740   64.6720 C   0  0  0  0  0  0  0  0  0  0  0  0
  131.1360  125.8240   63.3700 C   0  0  0  0  0  0  0  0  0  0  0  0
  129.7080  126.2920   63.1410 C   0  0  0  0  0  0  0  0  0  0  0  0
  131.9900  125.3370   62.3440 C   0  0  0  0  0  0  0  0  0  0  0  0
  131.7990  125.1530   60.9310 C   0  0  0  0  0  0  0  0  0  0  0  0
  130.6220  125.4600   60.2990 N   0  0  0  0  0  0  0  0  0  0  0  0
  131.9812  126.7937   58.5332 H   0  0  0  0  0  0  0  0  0  0  0  0
  132.8948  126.3648   57.0472 H   0  0  0  0  0  0  0  0  0  0  0  0
  131.0996  126.3026   57.0472 H   0  0  0  0  0  0  0  0  0  0  0  0
  132.7076  125.4364   67.0644 H   0  0  0  0  0  0  0  0  0  0  0  0
  134.2107  124.6507   66.4730 H   0  0  0  0  0  0  0  0  0  0  0  0
  134.0737  126.4418   66.4730 H   0  0  0  0  0  0  0  0  0  0  0  0
  131.0167  126.2446   65.4946 H   0  0  0  0  0  0  0  0  0  0  0  0
  129.2151  126.4535   64.1110 H   0  0  0  0  0  0  0  0  0  0  0  0
  129.7175  127.2340   62.5731 H   0  0  0  0  0  0  0  0  0  0  0  0
  129.1581  125.5271   62.5731 H   0  0  0  0  0  0  0  0  0  0  0  0
  130.3820  125.0720   59.3980 H   0  0  0  0  0  0  0  0  0  0  0  0
  129.9490  126.0900   60.7170 H   0  0  0  0  0  0  0  0  0  0  0  0
  1  2  1  0
  2  3  1  0
  3  4  2  0
  3  5  1  0
  5  6  1  0
  6  7  1  0
  7  8  2  0
  8  9  1  0
  9 10  1  0
  9 11  2  0
 11 12  1  0
 12 13  1  0
 12 14  2  0
 14 15  1  0
 15 16  1  0
 15  5  2  0
 14  7  1  0
  1 17  1  0
  1 18  1  0
  1 19  1  0
 10 20  1  0
 10 21  1  0
 10 22  1  0
 11 23  1  0
 13 24  1  0
 13 25  1  0
 13 26  1  0
 16 27  1  0
 16 28  1  0
M  END
>  <Binding energies>  (1) 
[-4.82]

>  <Ligand effiencies>  (1) 
[-0.2677777777777778]

>  <Interactions>  (1) 
["V-B:TYR:539:CE1:9847, V-A:ILE:369:CD1:3236, V-A:ASP:366:CG:3210, V-B:GLU:543:CD:9880, H-A:ARG:545:NH2:4926, V-A:HIS:456:CE1:4066, V-A:ASP:366:CB:3209, V-A:TYR:484:CZ:4344, V-A:ARG:545:CZ:4924, V-A:ARG:545:CG:4920, H-A:GLY:454:N:4047, V-A:ARG:545:CD:4921, V-B:TYR:539:CZ:9849, H-A:ARG:545:NE:4922, H-B:TYR:539:OH:9850"]

$$$$
4ba_Grossjean_2025
     RDKit          3D

 44 46  0  0  0  0  0  0  0  0999 V2000
  131.3980  126.5380   73.6590 C   0  0  0  0  0  0  0  0  0  0  0  0
  130.8950  127.2630   72.3970 C   0  0  0  0  0  0  0  0  0  0  0  0
  129.6780  126.6110   71.7090 C   0  0  0  0  0  0  0  0  0  0  0  0
  129.0750  125.6980   72.2790 O   0  0  0  0  0  0  0  0  0  0  0  0
  129.2780  127.1320   70.3600 C   0  0  0  0  0  0  0  0  0  0  0  0
  127.9480  127.0040   69.9400 C   0  0  0  0  0  0  0  0  0  0  0  0
  127.5490  127.4760   68.6930 C   0  0  0  0  0  0  0  0  0  0  0  0
  128.4690  128.0900   67.8420 C   0  0  0  0  0  0  0  0  0  0  0  0
  127.9610  128.5230   66.6020 N   0  0  0  0  0  0  0  0  0  0  0  0
  127.5490  129.7540   66.2100 C   0  0  0  0  0  0  0  0  0  0  0  0
  127.5160  130.7400   66.9480 O   0  0  0  0  0  0  0  0  0  0  0  0
  127.1030  129.8500   64.8180 C   0  0  0  0  0  0  0  0  0  0  0  0
  125.8410  130.9940   64.3690 S   0  0  0  0  0  0  0  0  0  0  0  0
  125.8840  130.4600   62.7050 C   0  0  0  0  0  0  0  0  0  0  0  0
  125.0840  130.9940   61.7840 N   0  0  0  0  0  0  0  0  0  0  0  0
  125.2080  130.4990   60.5310 C   0  0  0  0  0  0  0  0  0  0  0  0
  124.2800  131.1150   59.4990 C   0  0  0  0  0  0  0  0  0  0  0  0
  126.1080  129.4970   60.1800 C   0  0  0  0  0  0  0  0  0  0  0  0
  126.9550  128.9300   61.1460 C   0  0  0  0  0  0  0  0  0  0  0  0
  127.9300  127.8320   60.7120 C   0  0  0  0  0  0  0  0  0  0  0  0
  129.2050  128.1340   60.9680 F   0  0  0  0  0  0  0  0  0  0  0  0
  127.6520  126.6980   61.3570 F   0  0  0  0  0  0  0  0  0  0  0  0
  127.8240  127.6280   59.3990 F   0  0  0  0  0  0  0  0  0  0  0  0
  126.8440  129.4260   62.4800 C   0  0  0  0  0  0  0  0  0  0  0  0
  127.5190  129.0920   63.7110 C   0  0  0  0  0  0  0  0  0  0  0  0
  128.4840  128.1200   63.7850 N   0  0  0  0  0  0  0  0  0  0  0  0
  129.8050  128.2170   68.2520 C   0  0  0  0  0  0  0  0  0  0  0  0
  130.2020  127.7430   69.5000 C   0  0  0  0  0  0  0  0  0  0  0  0
  131.0333  127.0637   74.5538 H   0  0  0  0  0  0  0  0  0  0  0  0
  131.0221  125.5042   73.6624 H   0  0  0  0  0  0  0  0  0  0  0  0
  132.4980  126.5282   73.6624 H   0  0  0  0  0  0  0  0  0  0  0  0
  130.6168  128.2886   72.6813 H   0  0  0  0  0  0  0  0  0  0  0  0
  131.7186  127.2183   71.6693 H   0  0  0  0  0  0  0  0  0  0  0  0
  127.2115  126.5256   70.6023 H   0  0  0  0  0  0  0  0  0  0  0  0
  126.5016  127.3644   68.3761 H   0  0  0  0  0  0  0  0  0  0  0  0
  127.8850  127.7920   65.9110 H   0  0  0  0  0  0  0  0  0  0  0  0
  123.4687  131.6536   60.0105 H   0  0  0  0  0  0  0  0  0  0  0  0
  124.8462  131.8171   58.8694 H   0  0  0  0  0  0  0  0  0  0  0  0
  123.8528  130.3206   58.8694 H   0  0  0  0  0  0  0  0  0  0  0  0
  126.1562  129.1467   59.1384 H   0  0  0  0  0  0  0  0  0  0  0  0
  129.4690  128.3400   63.7520 H   0  0  0  0  0  0  0  0  0  0  0  0
  128.2400  127.1430   63.8680 H   0  0  0  0  0  0  0  0  0  0  0  0
  130.5405  128.6921   67.5861 H   0  0  0  0  0  0  0  0  0  0  0  0
  131.2508  127.8490   69.8143 H   0  0  0  0  0  0  0  0  0  0  0  0
  1  2  1  0
  2  3  1  0
  3  4  2  0
  3  5  1  0
  5  6  2  0
  6  7  1  0
  7  8  2  0
  8  9  1  0
  9 10  1  0
 10 11  2  0
 10 12  1  0
 12 13  1  0
 13 14  1  0
 14 15  2  0
 15 16  1  0
 16 17  1  0
 16 18  2  0
 18 19  1  0
 19 20  1  0
 20 21  1  0
 20 22  1  0
 20 23  1  0
 19 24  2  0
 24 25  1  0
 25 26  1  0
  8 27  1  0
 27 28  2  0
 28  5  1  0
 25 12  2  0
 24 14  1  0
  1 29  1  0
  1 30  1  0
  1 31  1  0
  2 32  1  0
  2 33  1  0
  6 34  1  0
  7 35  1  0
  9 36  1  0
 17 37  1  0
 17 38  1  0
 17 39  1  0
 18 40  1  0
 26 41  1  0
 26 42  1  0
 27 43  1  0
 28 44  1  0
M  END
>  <Binding energies>  (1) 
[-6.41]

>  <Ligand effiencies>  (1) 
[-0.2067741935483871]

>  <Interactions>  (1) 
["V-A:TYR:539:CZ:4875, V-B:ILE:369:CG2:8208, V-A:TYR:539:CE1:4873, V-B:ASP:366:CG:8184, V-A:GLU:543:CG:4905, H-B:GLU:543:OE1:9881, V-B:HIS:456:CE1:9040, H-B:GLU:543:OE2:9882, V-B:GLU:543:CD:9880, V-B:GLU:543:CG:9879, V-A:HIS:456:CE1:4066, H-A:GLU:543:OE2:4908, V-A:GLU:543:CD:4906, V-A:GLU:543:CB:4904, V-B:GLU:543:C:9874, V-B:GLY:544:C:9884, H-A:GLU:543:OE1:4907, V-A:HIS:456:CD2:4065, H-A:HIS:456:NE2:4067, H-B:HIS:456:NE2:9041, V-A:GLY:544:C:4910, H-B:TYR:484:OH:9319, V-A:GLY:544:CA:4912, V-A:GLU:543:C:4900, V-A:LYS:547:CE:4948, V-A:HIS:456:CG:4063"]

$$$$
4bb_Grossjean_2025
     RDKit          3D

 41 43  0  0  0  0  0  0  0  0999 V2000
  128.7920  125.8590   72.4590 C   0  0  0  0  0  0  0  0  0  0  0  0
  129.8090  126.6250   71.6100 C   0  0  0  0  0  0  0  0  0  0  0  0
  130.9380  126.8000   72.0730 O   0  0  0  0  0  0  0  0  0  0  0  0
  129.3750  127.1320   70.2670 C   0  0  0  0  0  0  0  0  0  0  0  0
  128.0350  127.0020   69.8840 C   0  0  0  0  0  0  0  0  0  0  0  0
  127.6060  127.4630   68.6420 C   0  0  0  0  0  0  0  0  0  0  0  0
  128.5060  128.0700   67.7640 C   0  0  0  0  0  0  0  0  0  0  0  0
  127.9670  128.4970   66.5340 N   0  0  0  0  0  0  0  0  0  0  0  0
  127.5230  129.7200   66.1560 C   0  0  0  0  0  0  0  0  0  0  0  0
  127.4980  130.7050   66.8930 O   0  0  0  0  0  0  0  0  0  0  0  0
  127.0280  129.8060   64.7790 C   0  0  0  0  0  0  0  0  0  0  0  0
  125.7310  130.9270   64.3720 S   0  0  0  0  0  0  0  0  0  0  0  0
  125.7330  130.3970   62.7060 C   0  0  0  0  0  0  0  0  0  0  0  0
  124.9000  130.9210   61.8080 N   0  0  0  0  0  0  0  0  0  0  0  0
  124.9950  130.4300   60.5510 C   0  0  0  0  0  0  0  0  0  0  0  0
  124.0380  131.0420   59.5440 C   0  0  0  0  0  0  0  0  0  0  0  0
  125.8930  129.4350   60.1740 C   0  0  0  0  0  0  0  0  0  0  0  0
  126.7730  128.8790   61.1150 C   0  0  0  0  0  0  0  0  0  0  0  0
  127.7440  127.7870   60.6530 C   0  0  0  0  0  0  0  0  0  0  0  0
  127.5760  126.6310   61.3000 F   0  0  0  0  0  0  0  0  0  0  0  0
  127.5670  127.5470   59.3540 F   0  0  0  0  0  0  0  0  0  0  0  0
  129.0000  128.1820   60.8610 F   0  0  0  0  0  0  0  0  0  0  0  0
  126.6990  129.3750   62.4520 C   0  0  0  0  0  0  0  0  0  0  0  0
  127.4210  129.0560   63.6580 C   0  0  0  0  0  0  0  0  0  0  0  0
  128.4090  128.1060   63.7000 N   0  0  0  0  0  0  0  0  0  0  0  0
  129.8530  128.1970   68.1390 C   0  0  0  0  0  0  0  0  0  0  0  0
  130.2790  127.7330   69.3800 C   0  0  0  0  0  0  0  0  0  0  0  0
  129.0079  126.0216   73.5253 H   0  0  0  0  0  0  0  0  0  0  0  0
  127.7782  126.2198   72.2310 H   0  0  0  0  0  0  0  0  0  0  0  0
  128.8589  124.7850   72.2310 H   0  0  0  0  0  0  0  0  0  0  0  0
  127.3149  126.5318   70.5698 H   0  0  0  0  0  0  0  0  0  0  0  0
  126.5515  127.3482   68.3508 H   0  0  0  0  0  0  0  0  0  0  0  0
  127.8850  127.7640   65.8450 H   0  0  0  0  0  0  0  0  0  0  0  0
  123.2273  131.5605   60.0768 H   0  0  0  0  0  0  0  0  0  0  0  0
  124.5805  131.7612   58.9127 H   0  0  0  0  0  0  0  0  0  0  0  0
  123.6128  130.2478   58.9127 H   0  0  0  0  0  0  0  0  0  0  0  0
  125.9127  129.0826   59.1322 H   0  0  0  0  0  0  0  0  0  0  0  0
  128.2010  127.1170   63.7050 H   0  0  0  0  0  0  0  0  0  0  0  0
  129.3860  128.3640   63.7290 H   0  0  0  0  0  0  0  0  0  0  0  0
  130.5729  128.6640   67.4508 H   0  0  0  0  0  0  0  0  0  0  0  0
  131.3354  127.8389   69.6677 H   0  0  0  0  0  0  0  0  0  0  0  0
  1  2  1  0
  2  3  2  0
  2  4  1  0
  4  5  2  0
  5  6  1  0
  6  7  2  0
  7  8  1  0
  8  9  1  0
  9 10  2  0
  9 11  1  0
 11 12  1  0
 12 13  1  0
 13 14  2  0
 14 15  1  0
 15 16  1  0
 15 17  2  0
 17 18  1  0
 18 19  1  0
 19 20  1  0
 19 21  1  0
 19 22  1  0
 18 23  2  0
 23 24  1  0
 24 25  1  0
  7 26  1  0
 26 27  2  0
 27  4  1  0
 24 11  2  0
 23 13  1  0
  1 28  1  0
  1 29  1  0
  1 30  1  0
  5 31  1  0
  6 32  1  0
  8 33  1  0
 16 34  1  0
 16 35  1  0
 16 36  1  0
 17 37  1  0
 25 38  1  0
 25 39  1  0
 26 40  1  0
 27 41  1  0
M  END
>  <Binding energies>  (1) 
[-6.24]

>  <Ligand effiencies>  (1) 
[-0.20800000000000002]

>  <Interactions>  (1) 
["V-B:ASP:366:CB:8183, V-B:ILE:369:CG2:8208, V-A:TYR:539:CE1:4873, V-B:ASP:366:CG:8184, V-A:GLU:543:CG:4905, H-B:GLU:543:OE1:9881, V-B:HIS:456:CE1:9040, H-B:GLU:543:OE2:9882, V-B:GLU:543:CD:9880, V-B:GLU:543:CG:9879, V-A:HIS:456:CE1:4066, H-A:GLU:543:OE2:4908, V-A:GLU:543:CD:4906, V-B:ILE:369:CB:8207, V-A:GLU:543:CB:4904, V-B:GLU:543:C:9874, V-B:ASP:366:CA:8181, V-B:GLY:544:C:9884, H-A:GLU:543:OE1:4907, V-A:HIS:456:CD2:4065, H-A:HIS:456:NE2:4067, H-B:HIS:456:NE2:9041, H-B:TYR:484:OH:9319, V-A:GLU:543:C:4900, V-B:GLY:544:CA:9886, V-B:LYS:547:CE:9922"]

$$$$
4bc_Grossjean_2025
     RDKit          3D

 40 42  0  0  0  0  0  0  0  0999 V2000
  133.8810  121.6090   61.9700 C   0  0  0  0  0  0  0  0  0  0  0  0
  133.4970  122.1950   63.2090 O   0  0  0  0  0  0  0  0  0  0  0  0
  132.7110  123.3310   63.2020 C   0  0  0  0  0  0  0  0  0  0  0  0
  133.0560  124.3200   62.2820 C   0  0  0  0  0  0  0  0  0  0  0  0
  132.3230  125.5010   62.2020 C   0  0  0  0  0  0  0  0  0  0  0  0
  131.2240  125.7050   63.0390 C   0  0  0  0  0  0  0  0  0  0  0  0
  130.5540  126.9330   62.8970 N   0  0  0  0  0  0  0  0  0  0  0  0
  130.0880  127.5310   61.7730 C   0  0  0  0  0  0  0  0  0  0  0  0
  130.2260  127.0660   60.6410 O   0  0  0  0  0  0  0  0  0  0  0  0
  129.3940  128.8050   61.9790 C   0  0  0  0  0  0  0  0  0  0  0  0
  129.9090  130.2470   61.1070 S   0  0  0  0  0  0  0  0  0  0  0  0
  128.6690  131.2110   61.8750 C   0  0  0  0  0  0  0  0  0  0  0  0
  128.5290  132.5080   61.6030 N   0  0  0  0  0  0  0  0  0  0  0  0
  127.5350  133.1480   62.2600 C   0  0  0  0  0  0  0  0  0  0  0  0
  127.3880  134.6230   61.9320 C   0  0  0  0  0  0  0  0  0  0  0  0
  126.6870  132.5290   63.1760 C   0  0  0  0  0  0  0  0  0  0  0  0
  126.8310  131.1630   63.4660 C   0  0  0  0  0  0  0  0  0  0  0  0
  125.8750  130.5270   64.4830 C   0  0  0  0  0  0  0  0  0  0  0  0
  125.2870  129.4210   64.0240 F   0  0  0  0  0  0  0  0  0  0  0  0
  126.5470  130.1960   65.5850 F   0  0  0  0  0  0  0  0  0  0  0  0
  124.9110  131.3910   64.7980 F   0  0  0  0  0  0  0  0  0  0  0  0
  127.8690  130.4570   62.7880 C   0  0  0  0  0  0  0  0  0  0  0  0
  128.3070  129.0830   62.8230 C   0  0  0  0  0  0  0  0  0  0  0  0
  127.7090  128.1360   63.6150 N   0  0  0  0  0  0  0  0  0  0  0  0
  130.8790  124.7200   63.9770 C   0  0  0  0  0  0  0  0  0  0  0  0
  131.6150  123.5410   64.0550 C   0  0  0  0  0  0  0  0  0  0  0  0
  134.4747  120.7030   62.1613 H   0  0  0  0  0  0  0  0  0  0  0  0
  132.9813  121.3433   61.3956 H   0  0  0  0  0  0  0  0  0  0  0  0
  134.4837  122.3279   61.3956 H   0  0  0  0  0  0  0  0  0  0  0  0
  133.9154  124.1658   61.6130 H   0  0  0  0  0  0  0  0  0  0  0  0
  132.6107  126.2763   61.4767 H   0  0  0  0  0  0  0  0  0  0  0  0
  130.4370  127.4470   63.7580 H   0  0  0  0  0  0  0  0  0  0  0  0
  127.3303  135.2022   62.8654 H   0  0  0  0  0  0  0  0  0  0  0  0
  128.2573  134.9568   61.3465 H   0  0  0  0  0  0  0  0  0  0  0  0
  126.4699  134.7787   61.3465 H   0  0  0  0  0  0  0  0  0  0  0  0
  125.9002  133.1140   63.6748 H   0  0  0  0  0  0  0  0  0  0  0  0
  127.8350  127.1470   63.4540 H   0  0  0  0  0  0  0  0  0  0  0  0
  127.1200  128.3990   64.3930 H   0  0  0  0  0  0  0  0  0  0  0  0
  130.0253  124.8798   64.6520 H   0  0  0  0  0  0  0  0  0  0  0  0
  131.3368  122.7698   64.7884 H   0  0  0  0  0  0  0  0  0  0  0  0
  1  2  1  0
  2  3  1  0
  3  4  2  0
  4  5  1  0
  5  6  2  0
  6  7  1  0
  7  8  1  0
  8  9  2  0
  8 10  1  0
 10 11  1  0
 11 12  1  0
 12 13  2  0
 13 14  1  0
 14 15  1  0
 14 16  2  0
 16 17  1  0
 17 18  1  0
 18 19  1  0
 18 20  1  0
 18 21  1  0
 17 22  2  0
 22 23  1  0
 23 24  1  0
  6 25  1  0
 25 26  2  0
 26  3  1  0
 23 10  2  0
 22 12  1  0
  1 27  1  0
  1 28  1  0
  1 29  1  0
  4 30  1  0
  5 31  1  0
  7 32  1  0
 15 33  1  0
 15 34  1  0
 15 35  1  0
 16 36  1  0
 24 37  1  0
 24 38  1  0
 25 39  1  0
 26 40  1  0
M  END
>  <Binding energies>  (1) 
[-5.47]

>  <Ligand effiencies>  (1) 
[-0.1886206896551724]

>  <Interactions>  (1) 
["V-B:LEU:475:CD2:9230, V-B:GLY:454:CA:9020, V-A:TYR:539:CD1:4871, V-A:ALA:541:CB:4890, V-A:ILE:369:CD1:3236, V-A:LEU:475:CD2:4256, V-A:GLY:454:CA:4046, H-B:GLU:543:OE1:9881, V-A:ILE:369:CG2:3234, H-B:GLU:543:OE2:9882, V-B:GLU:543:CD:9880, H-A:GLU:543:OE2:4908, V-A:GLU:543:CD:4906, V-B:ARG:545:CZ:9898, V-A:ARG:545:CZ:4924, H-A:GLY:454:N:4047, H-A:GLU:543:OE1:4907, V-B:TYR:484:CZ:9318"]

$$$$
4bd_Grossjean_2025
     RDKit          3D

 36 38  0  0  0  0  0  0  0  0999 V2000
  130.4640  120.6380   61.4030 C   0  0  0  0  0  0  0  0  0  0  0  0
  130.3030  122.0870   61.8260 C   0  0  0  0  0  0  0  0  0  0  0  0
  131.2050  122.6840   62.7030 C   0  0  0  0  0  0  0  0  0  0  0  0
  131.0420  124.0240   63.0870 C   0  0  0  0  0  0  0  0  0  0  0  0
  132.0580  124.6370   64.0570 C   0  0  0  0  0  0  0  0  0  0  0  0
  132.6380  125.7400   63.5770 F   0  0  0  0  0  0  0  0  0  0  0  0
  131.4530  124.9690   65.1960 F   0  0  0  0  0  0  0  0  0  0  0  0
  133.0260  123.7570   64.3110 F   0  0  0  0  0  0  0  0  0  0  0  0
  129.9280  124.7290   62.5420 C   0  0  0  0  0  0  0  0  0  0  0  0
  129.4480  126.0800   62.6990 C   0  0  0  0  0  0  0  0  0  0  0  0
  130.0810  127.0010   63.4940 N   0  0  0  0  0  0  0  0  0  0  0  0
  128.2810  126.3640   61.9700 C   0  0  0  0  0  0  0  0  0  0  0  0
  127.5230  127.6170   61.9130 C   0  0  0  0  0  0  0  0  0  0  0  0
  127.2500  128.1380   60.8300 O   0  0  0  0  0  0  0  0  0  0  0  0
  127.1490  128.1260   63.1130 N   0  0  0  0  0  0  0  0  0  0  0  0
  126.4580  129.3170   63.4040 C   0  0  0  0  0  0  0  0  0  0  0  0
  127.1290  130.2290   64.2250 C   0  0  0  0  0  0  0  0  0  0  0  0
  126.5320  131.4410   64.5620 C   0  0  0  0  0  0  0  0  0  0  0  0
  125.2660  131.7470   64.0710 C   0  0  0  0  0  0  0  0  0  0  0  0
  124.5940  130.8540   63.2410 C   0  0  0  0  0  0  0  0  0  0  0  0
  125.1870  129.6400   62.9020 C   0  0  0  0  0  0  0  0  0  0  0  0
  127.7440  124.9580   61.0550 S   0  0  0  0  0  0  0  0  0  0  0  0
  129.0770  124.0000   61.6550 C   0  0  0  0  0  0  0  0  0  0  0  0
  129.2370  122.7280   61.2930 N   0  0  0  0  0  0  0  0  0  0  0  0
  130.5348  120.0008   62.2968 H   0  0  0  0  0  0  0  0  0  0  0  0
  129.5943  120.3324   60.8028 H   0  0  0  0  0  0  0  0  0  0  0  0
  131.3796  120.5308   60.8028 H   0  0  0  0  0  0  0  0  0  0  0  0
  132.0507  122.1016   63.0973 H   0  0  0  0  0  0  0  0  0  0  0  0
  130.1250  127.9800   63.2480 H   0  0  0  0  0  0  0  0  0  0  0  0
  130.5230  126.7310   64.3620 H   0  0  0  0  0  0  0  0  0  0  0  0
  127.3810  127.5700   63.9230 H   0  0  0  0  0  0  0  0  0  0  0  0
  128.1323  129.9879   64.6060 H   0  0  0  0  0  0  0  0  0  0  0  0
  127.0587  132.1537   65.2136 H   0  0  0  0  0  0  0  0  0  0  0  0
  124.7925  132.7025   64.3411 H   0  0  0  0  0  0  0  0  0  0  0  0
  123.5961  131.1067   62.8534 H   0  0  0  0  0  0  0  0  0  0  0  0
  124.6603  128.9352   62.2418 H   0  0  0  0  0  0  0  0  0  0  0  0
  1  2  1  0
  2  3  2  0
  3  4  1  0
  4  5  1  0
  5  6  1  0
  5  7  1  0
  5  8  1  0
  4  9  2  0
  9 10  1  0
 10 11  1  0
 10 12  2  0
 12 13  1  0
 13 14  2  0
 13 15  1  0
 15 16  1  0
 16 17  2  0
 17 18  1  0
 18 19  2  0
 19 20  1  0
 20 21  2  0
 12 22  1  0
 22 23  1  0
 23 24  2  0
 24  2  1  0
 23  9  1  0
 21 16  1  0
  1 25  1  0
  1 26  1  0
  1 27  1  0
  3 28  1  0
 11 29  1  0
 11 30  1  0
 15 31  1  0
 17 32  1  0
 18 33  1  0
 19 34  1  0
 20 35  1  0
 21 36  1  0
M  END
>  <Binding energies>  (1) 
[-5.58]

>  <Ligand effiencies>  (1) 
[-0.20666666666666667]

>  <Interactions>  (1) 
["V-B:GLY:454:CA:9020, V-B:TYR:539:CE1:9847, V-A:LEU:475:CD2:4256, V-B:TYR:539:CD1:9845, V-A:GLY:454:CA:4046, H-B:GLU:543:OE1:9881, H-B:GLU:543:OE2:9882, V-B:GLU:543:CD:9880, H-A:GLU:543:OE2:4908, V-A:TYR:484:CZ:4344, V-A:GLU:543:CD:4906, V-B:ARG:545:CZ:9898, V-A:ARG:545:CZ:4924, H-A:GLU:543:OE1:4907, V-B:ALA:541:CB:9864"]

$$$$
4be_Grossjean_2025
     RDKit          3D

 38 40  0  0  0  0  0  0  0  0999 V2000
  123.3990  130.8560   62.5040 C   0  0  0  0  0  0  0  0  0  0  0  0
  124.7280  130.6280   63.1990 C   0  0  0  0  0  0  0  0  0  0  0  0
  125.2440  131.5520   64.1100 C   0  0  0  0  0  0  0  0  0  0  0  0
  126.4740  131.2780   64.7100 C   0  0  0  0  0  0  0  0  0  0  0  0
  127.1510  130.1000   64.3860 C   0  0  0  0  0  0  0  0  0  0  0  0
  126.5740  129.2140   63.4690 C   0  0  0  0  0  0  0  0  0  0  0  0
  127.3100  128.0500   63.1820 N   0  0  0  0  0  0  0  0  0  0  0  0
  127.6720  127.5470   61.9750 C   0  0  0  0  0  0  0  0  0  0  0  0
  127.3940  128.0800   60.8990 O   0  0  0  0  0  0  0  0  0  0  0  0
  128.4170  126.2860   62.0170 C   0  0  0  0  0  0  0  0  0  0  0  0
  127.8300  124.8810   61.1290 S   0  0  0  0  0  0  0  0  0  0  0  0
  129.1620  123.9050   61.7020 C   0  0  0  0  0  0  0  0  0  0  0  0
  129.2920  122.6290   61.3450 N   0  0  0  0  0  0  0  0  0  0  0  0
  130.3640  121.9770   61.8510 C   0  0  0  0  0  0  0  0  0  0  0  0
  130.4930  120.5230   61.4350 C   0  0  0  0  0  0  0  0  0  0  0  0
  131.3010  122.5670   62.6950 C   0  0  0  0  0  0  0  0  0  0  0  0
  131.1700  123.9120   63.0740 C   0  0  0  0  0  0  0  0  0  0  0  0
  132.2290  124.5180   64.0020 C   0  0  0  0  0  0  0  0  0  0  0  0
  131.7130  125.0040   65.1340 F   0  0  0  0  0  0  0  0  0  0  0  0
  133.1210  123.5870   64.3380 F   0  0  0  0  0  0  0  0  0  0  0  0
  132.8510  125.5210   63.3830 F   0  0  0  0  0  0  0  0  0  0  0  0
  130.0470  124.6270   62.5610 C   0  0  0  0  0  0  0  0  0  0  0  0
  129.5880  125.9840   62.7300 C   0  0  0  0  0  0  0  0  0  0  0  0
  130.2450  126.8970   63.5150 N   0  0  0  0  0  0  0  0  0  0  0  0
  125.3740  129.4780   62.8750 N   0  0  0  0  0  0  0  0  0  0  0  0
  122.6095  130.9914   63.2579 H   0  0  0  0  0  0  0  0  0  0  0  0
  123.4638  131.7562   61.8751 H   0  0  0  0  0  0  0  0  0  0  0  0
  123.1601  129.9857   61.8751 H   0  0  0  0  0  0  0  0  0  0  0  0
  124.6940  132.4741   64.3491 H   0  0  0  0  0  0  0  0  0  0  0  0
  126.9072  131.9848   65.4330 H   0  0  0  0  0  0  0  0  0  0  0  0
  128.1242  129.8718   64.8452 H   0  0  0  0  0  0  0  0  0  0  0  0
  127.5620  127.5010   63.9910 H   0  0  0  0  0  0  0  0  0  0  0  0
  130.5493  119.8886   62.3319 H   0  0  0  0  0  0  0  0  0  0  0  0
  129.6170  120.2339   60.8358 H   0  0  0  0  0  0  0  0  0  0  0  0
  131.4062  120.3927   60.8358 H   0  0  0  0  0  0  0  0  0  0  0  0
  132.1499  121.9748   63.0674 H   0  0  0  0  0  0  0  0  0  0  0  0
  130.7200  126.6280   64.3640 H   0  0  0  0  0  0  0  0  0  0  0  0
  130.2690  127.8770   63.2710 H   0  0  0  0  0  0  0  0  0  0  0  0
  1  2  1  0
  2  3  2  0
  3  4  1  0
  4  5  2  0
  5  6  1  0
  6  7  1  0
  7  8  1  0
  8  9  2  0
  8 10  1  0
 10 11  1  0
 11 12  1  0
 12 13  2  0
 13 14  1  0
 14 15  1  0
 14 16  2  0
 16 17  1  0
 17 18  1  0
 18 19  1  0
 18 20  1  0
 18 21  1  0
 17 22  2  0
 22 23  1  0
 23 24  1  0
  6 25  2  0
 25  2  1  0
 23 10  2  0
 22 12  1  0
  1 26  1  0
  1 27  1  0
  1 28  1  0
  3 29  1  0
  4 30  1  0
  5 31  1  0
  7 32  1  0
 15 33  1  0
 15 34  1  0
 15 35  1  0
 16 36  1  0
 24 37  1  0
 24 38  1  0
M  END
>  <Binding energies>  (1) 
[-5.81]

>  <Ligand effiencies>  (1) 
[-0.2075]

>  <Interactions>  (1) 
["V-B:GLY:454:CA:9020, V-B:GLY:453:C:9013, V-B:ILE:369:CD1:8210, V-A:LEU:475:CD2:4256, V-B:TYR:539:CD1:9845, V-A:GLY:454:CA:4046, H-B:GLU:543:OE1:9881, H-B:ARG:545:NH2:9900, V-B:GLY:453:CA:9015, H-B:GLU:543:OE2:9882, V-B:GLU:543:CD:9880, H-A:GLU:543:OE2:4908, V-A:TYR:484:CZ:4344, V-A:GLU:543:CD:4906, V-B:ARG:545:CZ:9898, V-A:ARG:545:CZ:4924, H-A:GLU:543:OE1:4907, V-B:ALA:541:CB:9864, V-B:TYR:484:CZ:9318"]

$$$$
4bf_Grossjean_2025
     RDKit          3D

 35 37  0  0  0  0  0  0  0  0999 V2000
  130.4800  120.6200   61.3870 C   0  0  0  0  0  0  0  0  0  0  0  0
  130.3320  122.0680   61.8210 C   0  0  0  0  0  0  0  0  0  0  0  0
  131.2590  122.6590   62.6750 C   0  0  0  0  0  0  0  0  0  0  0  0
  131.1080  123.9970   63.0710 C   0  0  0  0  0  0  0  0  0  0  0  0
  132.1530  124.6040   64.0140 C   0  0  0  0  0  0  0  0  0  0  0  0
  132.7600  125.6770   63.5000 F   0  0  0  0  0  0  0  0  0  0  0  0
  131.5690  124.9820   65.1510 F   0  0  0  0  0  0  0  0  0  0  0  0
  133.0980  123.7020   64.2820 F   0  0  0  0  0  0  0  0  0  0  0  0
  129.9780  124.7040   62.5640 C   0  0  0  0  0  0  0  0  0  0  0  0
  129.5030  126.0540   62.7450 C   0  0  0  0  0  0  0  0  0  0  0  0
  130.1570  126.9690   63.5290 N   0  0  0  0  0  0  0  0  0  0  0  0
  128.3190  126.3450   62.0470 C   0  0  0  0  0  0  0  0  0  0  0  0
  127.5510  127.5940   62.0310 C   0  0  0  0  0  0  0  0  0  0  0  0
  127.0930  128.0350   60.9760 O   0  0  0  0  0  0  0  0  0  0  0  0
  127.3860  128.1890   63.2370 N   0  0  0  0  0  0  0  0  0  0  0  0
  126.7510  129.4040   63.5580 C   0  0  0  0  0  0  0  0  0  0  0  0
  127.2000  130.6820   63.1800 C   0  0  0  0  0  0  0  0  0  0  0  0
  126.4830  131.8130   63.5790 C   0  0  0  0  0  0  0  0  0  0  0  0
  125.3340  131.6370   64.3510 C   0  0  0  0  0  0  0  0  0  0  0  0
  124.8840  130.4160   64.7340 N   0  0  0  0  0  0  0  0  0  0  0  0
  125.5920  129.3270   64.3390 C   0  0  0  0  0  0  0  0  0  0  0  0
  127.7530  124.9430   61.1410 S   0  0  0  0  0  0  0  0  0  0  0  0
  129.1020  123.9810   61.6960 C   0  0  0  0  0  0  0  0  0  0  0  0
  129.2510  122.7110   61.3220 N   0  0  0  0  0  0  0  0  0  0  0  0
  130.5459  119.9756   62.2761 H   0  0  0  0  0  0  0  0  0  0  0  0
  129.6072  120.3265   60.7853 H   0  0  0  0  0  0  0  0  0  0  0  0
  131.3942  120.5092   60.7853 H   0  0  0  0  0  0  0  0  0  0  0  0
  132.1151  122.0737   63.0417 H   0  0  0  0  0  0  0  0  0  0  0  0
  130.1840  127.9510   63.2950 H   0  0  0  0  0  0  0  0  0  0  0  0
  130.6360  126.6900   64.3740 H   0  0  0  0  0  0  0  0  0  0  0  0
  127.7610  127.6930   64.0320 H   0  0  0  0  0  0  0  0  0  0  0  0
  128.1111  130.7907   62.5733 H   0  0  0  0  0  0  0  0  0  0  0  0
  126.8172  132.8206   63.2907 H   0  0  0  0  0  0  0  0  0  0  0  0
  124.7683  132.5275   64.6627 H   0  0  0  0  0  0  0  0  0  0  0  0
  125.2366  128.3331   64.6486 H   0  0  0  0  0  0  0  0  0  0  0  0
  1  2  1  0
  2  3  2  0
  3  4  1  0
  4  5  1  0
  5  6  1  0
  5  7  1  0
  5  8  1  0
  4  9  2  0
  9 10  1  0
 10 11  1  0
 10 12  2  0
 12 13  1  0
 13 14  2  0
 13 15  1  0
 15 16  1  0
 16 17  2  0
 17 18  1  0
 18 19  2  0
 19 20  1  0
 20 21  2  0
 12 22  1  0
 22 23  1  0
 23 24  2  0
 24  2  1  0
 23  9  1  0
 21 16  1  0
  1 25  1  0
  1 26  1  0
  1 27  1  0
  3 28  1  0
 11 29  1  0
 11 30  1  0
 15 31  1  0
 17 32  1  0
 18 33  1  0
 19 34  1  0
 21 35  1  0
M  END
>  <Binding energies>  (1) 
[-5.76]

>  <Ligand effiencies>  (1) 
[-0.21333333333333332]

>  <Interactions>  (1) 
["V-B:GLY:454:CA:9020, V-B:TYR:539:CE1:9847, V-A:LEU:475:CD2:4256, V-B:TYR:539:CD1:9845, V-A:GLY:454:CA:4046, H-B:GLU:543:OE1:9881, H-B:ARG:545:NH2:9900, H-B:GLU:543:OE2:9882, V-B:GLU:543:CD:9880, H-A:GLU:543:OE2:4908, H-B:GLY:454:N:9021, V-A:GLU:543:CD:4906, V-B:ARG:545:CZ:9898, V-A:ARG:545:CZ:4924, H-A:GLU:543:OE1:4907, V-B:ALA:541:CB:9864, H-B:TYR:484:OH:9319"]

$$$$
4bg_Grossjean_2025
     RDKit          3D

 39 41  0  0  0  0  0  0  0  0999 V2000
  133.8970  124.0460   59.0280 C   0  0  0  0  0  0  0  0  0  0  0  0
  132.9470  124.6530   60.0440 C   0  0  0  0  0  0  0  0  0  0  0  0
  133.0350  124.3250   61.3940 C   0  0  0  0  0  0  0  0  0  0  0  0
  132.1450  124.8890   62.3230 C   0  0  0  0  0  0  0  0  0  0  0  0
  132.2800  124.4970   63.7970 C   0  0  0  0  0  0  0  0  0  0  0  0
  131.1220  124.1220   64.3460 F   0  0  0  0  0  0  0  0  0  0  0  0
  133.1280  123.4750   63.9160 F   0  0  0  0  0  0  0  0  0  0  0  0
  132.7370  125.5330   64.5010 F   0  0  0  0  0  0  0  0  0  0  0  0
  131.1690  125.8000   61.8190 C   0  0  0  0  0  0  0  0  0  0  0  0
  130.1120  126.5530   62.4500 C   0  0  0  0  0  0  0  0  0  0  0  0
  129.8520  126.4850   63.7950 N   0  0  0  0  0  0  0  0  0  0  0  0
  129.3830  127.3630   61.5670 C   0  0  0  0  0  0  0  0  0  0  0  0
  128.2370  128.2260   61.8560 C   0  0  0  0  0  0  0  0  0  0  0  0
  127.1180  127.9810   61.4040 O   0  0  0  0  0  0  0  0  0  0  0  0
  128.4780  129.2730   62.6730 N   0  0  0  0  0  0  0  0  0  0  0  0
  127.4920  130.2710   63.0850 C   0  0  0  0  0  0  0  0  0  0  0  0
  126.7050  129.8750   64.3270 C   0  0  0  0  0  0  0  0  0  0  0  0
  127.3770  129.4700   65.4840 C   0  0  0  0  0  0  0  0  0  0  0  0
  126.6560  129.1450   66.6290 C   0  0  0  0  0  0  0  0  0  0  0  0
  125.2660  129.2400   66.6210 C   0  0  0  0  0  0  0  0  0  0  0  0
  124.5900  129.6590   65.4780 C   0  0  0  0  0  0  0  0  0  0  0  0
  125.3110  129.9830   64.3300 C   0  0  0  0  0  0  0  0  0  0  0  0
  129.9600  127.1900   59.9120 S   0  0  0  0  0  0  0  0  0  0  0  0
  131.1920  126.0570   60.4140 C   0  0  0  0  0  0  0  0  0  0  0  0
  132.0370  125.5160   59.5370 N   0  0  0  0  0  0  0  0  0  0  0  0
  134.7116  123.5255   59.5529 H   0  0  0  0  0  0  0  0  0  0  0  0
  133.3504  123.3294   58.3973 H   0  0  0  0  0  0  0  0  0  0  0  0
  134.3176  124.8431   58.3973 H   0  0  0  0  0  0  0  0  0  0  0  0
  133.8067  123.6194   61.7356 H   0  0  0  0  0  0  0  0  0  0  0  0
  129.3700  125.7000   64.2080 H   0  0  0  0  0  0  0  0  0  0  0  0
  130.1300  127.2290   64.4210 H   0  0  0  0  0  0  0  0  0  0  0  0
  129.4340  129.4580   62.9400 H   0  0  0  0  0  0  0  0  0  0  0  0
  128.0182  131.2143   63.2930 H   0  0  0  0  0  0  0  0  0  0  0  0
  126.7683  130.3678   62.2622 H   0  0  0  0  0  0  0  0  0  0  0  0
  128.4753  129.4082   65.4893 H   0  0  0  0  0  0  0  0  0  0  0  0
  127.1815  128.8143   67.5370 H   0  0  0  0  0  0  0  0  0  0  0  0
  124.6971  128.9815   67.5263 H   0  0  0  0  0  0  0  0  0  0  0  0
  123.4926  129.7339   65.4811 H   0  0  0  0  0  0  0  0  0  0  0  0
  124.7835  130.3235   63.4268 H   0  0  0  0  0  0  0  0  0  0  0  0
  1  2  1  0
  2  3  2  0
  3  4  1  0
  4  5  1  0
  5  6  1  0
  5  7  1  0
  5  8  1  0
  4  9  2  0
  9 10  1  0
 10 11  1  0
 10 12  2  0
 12 13  1  0
 13 14  2  0
 13 15  1  0
 15 16  1  0
 16 17  1  0
 17 18  2  0
 18 19  1  0
 19 20  2  0
 20 21  1  0
 21 22  2  0
 12 23  1  0
 23 24  1  0
 24 25  2  0
 25  2  1  0
 24  9  1  0
 22 17  1  0
  1 26  1  0
  1 27  1  0
  1 28  1  0
  3 29  1  0
 11 30  1  0
 11 31  1  0
 15 32  1  0
 16 33  1  0
 16 34  1  0
 18 35  1  0
 19 36  1  0
 20 37  1  0
 21 38  1  0
 22 39  1  0
M  END
>  <Binding energies>  (1) 
[-5.64]

>  <Ligand effiencies>  (1) 
[-0.20142857142857143]

>  <Interactions>  (1) 
["V-B:GLY:454:CA:9020, V-B:TYR:539:CE1:9847, V-A:ILE:369:CD1:3236, V-A:GLY:454:CA:4046, H-B:GLU:543:OE1:9881, V-A:ASP:366:CG:3210, H-B:ARG:545:NH2:9900, V-A:ILE:369:CG2:3234, V-B:HIS:456:CE1:9040, H-B:GLU:543:OE2:9882, V-B:GLU:543:CD:9880, H-A:GLU:543:OE2:4908, V-A:ASP:366:CA:3207, V-A:ASP:366:CB:3209, V-A:GLU:543:CD:4906, V-A:ILE:369:CB:3233, V-B:ARG:545:CZ:9898, V-B:ARG:545:CG:9894, V-A:ARG:545:CZ:4924, H-A:GLU:543:OE1:4907, V-B:ARG:545:CD:9895"]

$$$$
4bh_Grossjean_2025
     RDKit          3D

 51 53  0  0  0  0  0  0  0  0999 V2000
  126.2450  128.4440   58.3690 C   0  0  0  0  0  0  0  0  0  0  0  0
  125.7160  129.7140   58.7320 O   0  0  0  0  0  0  0  0  0  0  0  0
  125.5900  130.0400   60.0700 C   0  0  0  0  0  0  0  0  0  0  0  0
  126.2260  129.3440   61.1090 C   0  0  0  0  0  0  0  0  0  0  0  0
  126.0520  129.7280   62.4400 C   0  0  0  0  0  0  0  0  0  0  0  0
  126.7870  128.9880   63.5510 C   0  0  0  0  0  0  0  0  0  0  0  0
  127.8720  128.1350   63.0670 N   0  0  0  0  0  0  0  0  0  0  0  0
  128.9070  128.5440   62.3040 C   0  0  0  0  0  0  0  0  0  0  0  0
  129.0150  129.7030   61.9000 O   0  0  0  0  0  0  0  0  0  0  0  0
  129.8830  127.5160   61.9400 C   0  0  0  0  0  0  0  0  0  0  0  0
  130.5010  127.4300   60.2940 S   0  0  0  0  0  0  0  0  0  0  0  0
  131.4720  126.0310   60.6850 C   0  0  0  0  0  0  0  0  0  0  0  0
  132.2460  125.4440   59.7730 N   0  0  0  0  0  0  0  0  0  0  0  0
  132.9530  124.3710   60.1950 C   0  0  0  0  0  0  0  0  0  0  0  0
  133.8260  123.7160   59.1390 C   0  0  0  0  0  0  0  0  0  0  0  0
  132.9070  123.8750   61.4950 C   0  0  0  0  0  0  0  0  0  0  0  0
  132.0930  124.4880   62.4610 C   0  0  0  0  0  0  0  0  0  0  0  0
  132.0770  123.9090   63.8800 C   0  0  0  0  0  0  0  0  0  0  0  0
  130.8480  123.6250   64.3160 F   0  0  0  0  0  0  0  0  0  0  0  0
  132.7840  122.7800   63.9140 F   0  0  0  0  0  0  0  0  0  0  0  0
  132.6100  124.7870   64.7300 F   0  0  0  0  0  0  0  0  0  0  0  0
  131.3320  125.6210   62.0480 C   0  0  0  0  0  0  0  0  0  0  0  0
  130.4040  126.4840   62.7370 C   0  0  0  0  0  0  0  0  0  0  0  0
  130.0690  126.3140   64.0550 N   0  0  0  0  0  0  0  0  0  0  0  0
  125.2580  130.8370   62.7370 C   0  0  0  0  0  0  0  0  0  0  0  0
  124.6040  131.5480   61.7180 C   0  0  0  0  0  0  0  0  0  0  0  0
  123.7930  132.6460   61.9410 O   0  0  0  0  0  0  0  0  0  0  0  0
  124.3210  133.9540   61.7500 C   0  0  0  0  0  0  0  0  0  0  0  0
  124.7740  131.1350   60.3890 C   0  0  0  0  0  0  0  0  0  0  0  0
  124.1540  131.8340   59.3790 O   0  0  0  0  0  0  0  0  0  0  0  0
  123.0920  131.1260   58.7560 C   0  0  0  0  0  0  0  0  0  0  0  0
  126.4831  127.8725   59.2782 H   0  0  0  0  0  0  0  0  0  0  0  0
  125.5014  127.8935   57.7741 H   0  0  0  0  0  0  0  0  0  0  0  0
  127.1596  128.5842   57.7741 H   0  0  0  0  0  0  0  0  0  0  0  0
  126.8702  128.4845   60.8718 H   0  0  0  0  0  0  0  0  0  0  0  0
  127.2107  129.7309   64.2428 H   0  0  0  0  0  0  0  0  0  0  0  0
  126.0537  128.3308   64.0414 H   0  0  0  0  0  0  0  0  0  0  0  0
  127.8920  127.1930   63.4310 H   0  0  0  0  0  0  0  0  0  0  0  0
  134.6136  123.1251   59.6294 H   0  0  0  0  0  0  0  0  0  0  0  0
  133.2093  123.0558   58.5114 H   0  0  0  0  0  0  0  0  0  0  0  0
  134.2874  124.4927   58.5114 H   0  0  0  0  0  0  0  0  0  0  0  0
  133.5120  122.9975   61.7670 H   0  0  0  0  0  0  0  0  0  0  0  0
  129.3730  125.6410   64.3470 H   0  0  0  0  0  0  0  0  0  0  0  0
  130.5040  126.8630   64.7830 H   0  0  0  0  0  0  0  0  0  0  0  0
  125.1432  131.1581   63.7828 H   0  0  0  0  0  0  0  0  0  0  0  0
  124.5091  134.4200   62.7285 H   0  0  0  0  0  0  0  0  0  0  0  0
  125.2638  133.8902   61.1869 H   0  0  0  0  0  0  0  0  0  0  0  0
  123.5981  134.5626   61.1869 H   0  0  0  0  0  0  0  0  0  0  0  0
  122.4393  130.6909   59.5272 H   0  0  0  0  0  0  0  0  0  0  0  0
  122.5089  131.8167   58.1292 H   0  0  0  0  0  0  0  0  0  0  0  0
  123.5053  130.3221   58.1292 H   0  0  0  0  0  0  0  0  0  0  0  0
  1  2  1  0
  2  3  1  0
  3  4  2  0
  4  5  1  0
  5  6  1  0
  6  7  1  0
  7  8  1  0
  8  9  2  0
  8 10  1  0
 10 11  1  0
 11 12  1  0
 12 13  2  0
 13 14  1  0
 14 15  1  0
 14 16  2  0
 16 17  1  0
 17 18  1  0
 18 19  1  0
 18 20  1  0
 18 21  1  0
 17 22  2  0
 22 23  1  0
 23 24  1  0
  5 25  2  0
 25 26  1  0
 26 27  1  0
 27 28  1  0
 26 29  2  0
 29 30  1  0
 30 31  1  0
 29  3  1  0
 23 10  2  0
 22 12  1  0
  1 32  1  0
  1 33  1  0
  1 34  1  0
  4 35  1  0
  6 36  1  0
  6 37  1  0
  7 38  1  0
 15 39  1  0
 15 40  1  0
 15 41  1  0
 16 42  1  0
 24 43  1  0
 24 44  1  0
 25 45  1  0
 28 46  1  0
 28 47  1  0
 28 48  1  0
 31 49  1  0
 31 50  1  0
 31 51  1  0
M  END
>  <Binding energies>  (1) 
[-5.33]

>  <Ligand effiencies>  (1) 
[-0.15676470588235294]

>  <Interactions>  (1) 
["V-B:LEU:475:CD2:9230, V-B:ASP:366:CB:8183, H-A:TYR:539:OH:4876, V-B:ILE:369:CG2:8208, V-A:TYR:539:CE1:4873, V-B:ILE:369:CD1:8210, V-B:ASP:366:CG:8184, V-B:TYR:539:CE1:9847, V-A:ILE:369:CD1:3236, V-A:LEU:475:CD2:4256, V-A:GLY:454:CA:4046, H-B:GLU:543:OE1:9881, V-A:ASP:366:CG:3210, V-A:ILE:369:CG2:3234, H-B:GLU:543:OE2:9882, V-B:GLU:543:CD:9880, H-A:GLU:543:OE2:4908, V-A:GLU:543:CD:4906, V-B:ILE:369:CB:8207, V-A:ILE:369:CB:3233, V-B:ASP:366:CA:8181, V-B:ARG:545:CZ:9898, V-B:ASP:366:C:8179"]

$$$$
4bi_Grossjean_2025
     RDKit          3D

 32 34  0  0  0  0  0  0  0  0999 V2000
  134.4900  124.0830   59.4420 C   0  0  0  0  0  0  0  0  0  0  0  0
  133.5040  123.8220   60.5670 C   0  0  0  0  0  0  0  0  0  0  0  0
  132.5950  122.7700   60.4940 C   0  0  0  0  0  0  0  0  0  0  0  0
  131.6910  122.5380   61.5440 C   0  0  0  0  0  0  0  0  0  0  0  0
  130.7140  121.3640   61.4230 C   0  0  0  0  0  0  0  0  0  0  0  0
  131.1630  120.3920   60.6250 F   0  0  0  0  0  0  0  0  0  0  0  0
  130.5020  120.8270   62.6240 F   0  0  0  0  0  0  0  0  0  0  0  0
  129.5550  121.7900   60.9200 F   0  0  0  0  0  0  0  0  0  0  0  0
  131.7510  123.4210   62.6630 C   0  0  0  0  0  0  0  0  0  0  0  0
  131.0020  123.4980   63.8930 C   0  0  0  0  0  0  0  0  0  0  0  0
  129.9900  122.6250   64.2010 N   0  0  0  0  0  0  0  0  0  0  0  0
  131.4060  124.5380   64.7480 C   0  0  0  0  0  0  0  0  0  0  0  0
  130.8600  124.9090   66.0560 C   0  0  0  0  0  0  0  0  0  0  0  0
  130.4940  124.0430   66.8540 O   0  0  0  0  0  0  0  0  0  0  0  0
  130.8120  126.2400   66.3100 N   0  0  0  0  0  0  0  0  0  0  0  0
  130.3570  126.8650   67.4640 C   0  0  0  0  0  0  0  0  0  0  0  0
  129.0650  126.7000   67.9610 C   0  0  0  0  0  0  0  0  0  0  0  0
  129.0160  127.4740   69.0980 C   0  0  0  0  0  0  0  0  0  0  0  0
  130.2170  128.0740   69.2760 O   0  0  0  0  0  0  0  0  0  0  0  0
  131.0580  127.6800   68.2340 N   0  0  0  0  0  0  0  0  0  0  0  0
  132.7180  125.4740   64.0360 S   0  0  0  0  0  0  0  0  0  0  0  0
  132.7310  124.4600   62.6120 C   0  0  0  0  0  0  0  0  0  0  0  0
  133.5870  124.6740   61.6140 N   0  0  0  0  0  0  0  0  0  0  0  0
  135.4708  124.3426   59.8669 H   0  0  0  0  0  0  0  0  0  0  0  0
  134.5865  123.1795   58.8221 H   0  0  0  0  0  0  0  0  0  0  0  0
  134.1269  124.9160   58.8221 H   0  0  0  0  0  0  0  0  0  0  0  0
  132.5846  122.1167   59.6091 H   0  0  0  0  0  0  0  0  0  0  0  0
  129.0170  122.8910   64.1340 H   0  0  0  0  0  0  0  0  0  0  0  0
  130.1830  121.6830   64.5120 H   0  0  0  0  0  0  0  0  0  0  0  0
  131.1510  126.8580   65.5880 H   0  0  0  0  0  0  0  0  0  0  0  0
  128.2587  126.0841   67.5361 H   0  0  0  0  0  0  0  0  0  0  0  0
  128.1420  127.5871   69.7562 H   0  0  0  0  0  0  0  0  0  0  0  0
  1  2  1  0
  2  3  2  0
  3  4  1  0
  4  5  1  0
  5  6  1  0
  5  7  1  0
  5  8  1  0
  4  9  2  0
  9 10  1  0
 10 11  1  0
 10 12  2  0
 12 13  1  0
 13 14  2  0
 13 15  1  0
 15 16  1  0
 16 17  1  0
 17 18  2  0
 18 19  1  0
 19 20  1  0
 12 21  1  0
 21 22  1  0
 22 23  2  0
 23  2  1  0
 22  9  1  0
 20 16  2  0
  1 24  1  0
  1 25  1  0
  1 26  1  0
  3 27  1  0
 11 28  1  0
 11 29  1  0
 15 30  1  0
 17 31  1  0
 18 32  1  0
M  END
>  <Binding energies>  (1) 
[-5.69]

>  <Ligand effiencies>  (1) 
[-0.21884615384615386]

>  <Interactions>  (1) 
["V-B:TYR:539:CE1:9847, V-A:ILE:369:CD1:3236, V-A:LEU:475:CD2:4256, V-B:TYR:539:CD1:9845, V-A:GLU:543:CG:4905, H-B:GLU:543:OE1:9881, V-A:ASP:366:CG:3210, V-A:ILE:369:CG2:3234, V-B:HIS:456:CE1:9040, V-B:GLU:543:CD:9880, V-B:GLU:543:CB:9878, V-B:GLU:543:CG:9879, V-A:HIS:456:CE1:4066, H-A:GLU:543:OE2:4908, V-A:ASP:366:CA:3207, V-A:ASP:366:CB:3209, V-A:TYR:484:CE2:4343, V-A:TYR:484:CZ:4344, V-A:GLU:543:CD:4906, V-A:ILE:369:CB:3233, V-A:ARG:545:CZ:4924, V-B:ALA:541:CB:9864, V-A:ILE:369:CG1:3235, V-B:TYR:539:CG:9844, H-A:HIS:456:NE2:4067, H-A:TYR:484:OH:4345"]

$$$$
4bj_Grossjean_2025
     RDKit          3D

 32 34  0  0  0  0  0  0  0  0999 V2000
  126.2170  117.6100   71.1740 C   0  0  0  0  0  0  0  0  0  0  0  0
  126.9570  118.4720   72.1810 C   0  0  0  0  0  0  0  0  0  0  0  0
  127.0140  118.1160   73.5260 C   0  0  0  0  0  0  0  0  0  0  0  0
  127.6960  118.9260   74.4470 C   0  0  0  0  0  0  0  0  0  0  0  0
  127.7300  118.4950   75.9180 C   0  0  0  0  0  0  0  0  0  0  0  0
  127.1280  117.3230   76.1310 F   0  0  0  0  0  0  0  0  0  0  0  0
  128.9930  118.3760   76.3240 F   0  0  0  0  0  0  0  0  0  0  0  0
  127.1080  119.4050   76.6670 F   0  0  0  0  0  0  0  0  0  0  0  0
  128.3170  120.1070   73.9420 C   0  0  0  0  0  0  0  0  0  0  0  0
  129.0820  121.1590   74.5680 C   0  0  0  0  0  0  0  0  0  0  0  0
  129.3540  121.1770   75.9130 N   0  0  0  0  0  0  0  0  0  0  0  0
  129.5270  122.1510   73.6800 C   0  0  0  0  0  0  0  0  0  0  0  0
  130.3110  123.3530   73.9730 C   0  0  0  0  0  0  0  0  0  0  0  0
  129.8400  124.4760   73.7780 O   0  0  0  0  0  0  0  0  0  0  0  0
  131.5510  123.1330   74.4750 N   0  0  0  0  0  0  0  0  0  0  0  0
  132.4840  124.0920   74.8440 C   0  0  0  0  0  0  0  0  0  0  0  0
  133.6540  123.9040   75.4140 N   0  0  0  0  0  0  0  0  0  0  0  0
  134.2830  125.0440   75.6180 C   0  0  0  0  0  0  0  0  0  0  0  0
  133.6180  126.1960   75.2100 C   0  0  0  0  0  0  0  0  0  0  0  0
  132.0830  125.7500   74.5250 S   0  0  0  0  0  0  0  0  0  0  0  0
  128.9890  121.8230   72.0350 S   0  0  0  0  0  0  0  0  0  0  0  0
  128.1870  120.3550   72.5410 C   0  0  0  0  0  0  0  0  0  0  0  0
  127.5360  119.5840   71.6710 N   0  0  0  0  0  0  0  0  0  0  0  0
  125.5902  116.8798   71.7069 H   0  0  0  0  0  0  0  0  0  0  0  0
  125.5808  118.2478   70.5427 H   0  0  0  0  0  0  0  0  0  0  0  0
  126.9438  117.0778   70.5427 H   0  0  0  0  0  0  0  0  0  0  0  0
  126.5214  117.1941   73.8687 H   0  0  0  0  0  0  0  0  0  0  0  0
  130.2920  121.0740   76.2710 H   0  0  0  0  0  0  0  0  0  0  0  0
  128.6170  121.2910   76.5950 H   0  0  0  0  0  0  0  0  0  0  0  0
  131.8350  122.1730   74.6040 H   0  0  0  0  0  0  0  0  0  0  0  0
  135.2783  125.0826   76.0848 H   0  0  0  0  0  0  0  0  0  0  0  0
  134.0011  127.2227   75.3053 H   0  0  0  0  0  0  0  0  0  0  0  0
  1  2  1  0
  2  3  2  0
  3  4  1  0
  4  5  1  0
  5  6  1  0
  5  7  1  0
  5  8  1  0
  4  9  2  0
  9 10  1  0
 10 11  1  0
 10 12  2  0
 12 13  1  0
 13 14  2  0
 13 15  1  0
 15 16  1  0
 16 17  2  0
 17 18  1  0
 18 19  2  0
 19 20  1  0
 12 21  1  0
 21 22  1  0
 22 23  2  0
 23  2  1  0
 22  9  1  0
 20 16  1  0
  1 24  1  0
  1 25  1  0
  1 26  1  0
  3 27  1  0
 11 28  1  0
 11 29  1  0
 15 30  1  0
 18 31  1  0
 19 32  1  0
M  END
>  <Binding energies>  (1) 
[-5.66]

>  <Ligand effiencies>  (1) 
[-0.21769230769230768]

>  <Interactions>  (1) 
["V-B:GLU:543:C:9874, V-A:HIS:456:CD2:4065, V-A:LYS:547:CD:4947, V-A:VAL:458:CG2:4084, V-A:HIS:456:C:4058, V-B:GLY:544:CA:9886, V-A:HIS:456:CG:4063, H-B:LYS:547:NZ:9923, V-A:LYS:471:CD:4216, V-A:HIS:456:CB:4062, V-B:LYS:547:CE:9922, V-A:ASP:473:CG:4237, V-B:VAL:542:CG1:9871, V-A:TYR:484:CG:4339, V-B:GLU:543:CA:9876, V-A:TYR:484:CB:4338, V-A:TYR:484:CD2:4341, H-A:ASP:473:OD2:4239, V-A:SER:483:CA:4328, V-A:SER:483:CB:4330, V-B:VAL:542:CB:9870, H-A:TYR:484:N:4337"]

$$$$
4bk_Grossjean_2025
     RDKit          3D

 50 51  0  0  0  0  0  0  0  0999 V2000
  127.5320  130.7090   74.9180 C   0  0  0  0  0  0  0  0  0  0  0  0
  128.1500  129.4670   74.6180 O   0  0  0  0  0  0  0  0  0  0  0  0
  127.2590  128.5130   74.0560 C   0  0  0  0  0  0  0  0  0  0  0  0
  127.9680  127.7530   72.9270 C   0  0  0  0  0  0  0  0  0  0  0  0
  129.3030  127.4660   73.3170 O   0  0  0  0  0  0  0  0  0  0  0  0
  130.0800  126.8540   72.2970 C   0  0  0  0  0  0  0  0  0  0  0  0
  130.1020  127.7610   71.0590 C   0  0  0  0  0  0  0  0  0  0  0  0
  129.5340  127.0650   69.9580 O   0  0  0  0  0  0  0  0  0  0  0  0
  130.1540  127.3580   68.7110 C   0  0  0  0  0  0  0  0  0  0  0  0
  129.2000  126.9780   67.5660 C   0  0  0  0  0  0  0  0  0  0  0  0
  129.8770  126.4020   66.4030 N   0  0  0  0  0  0  0  0  0  0  0  0
  130.4880  125.2000   66.3730 C   0  0  0  0  0  0  0  0  0  0  0  0
  130.5120  124.4470   67.3490 O   0  0  0  0  0  0  0  0  0  0  0  0
  131.1170  124.8280   65.1050 C   0  0  0  0  0  0  0  0  0  0  0  0
  132.4580  125.7800   64.4720 S   0  0  0  0  0  0  0  0  0  0  0  0
  132.6080  124.7270   63.0860 C   0  0  0  0  0  0  0  0  0  0  0  0
  133.5290  124.9400   62.1470 N   0  0  0  0  0  0  0  0  0  0  0  0
  133.5490  124.0560   61.1220 C   0  0  0  0  0  0  0  0  0  0  0  0
  134.6070  124.3180   60.0650 C   0  0  0  0  0  0  0  0  0  0  0  0
  132.6790  122.9750   61.0150 C   0  0  0  0  0  0  0  0  0  0  0  0
  131.7050  122.7450   62.0000 C   0  0  0  0  0  0  0  0  0  0  0  0
  130.7670  121.5440   61.8370 C   0  0  0  0  0  0  0  0  0  0  0  0
  130.5120  120.9210   62.9900 F   0  0  0  0  0  0  0  0  0  0  0  0
  129.6010  121.9480   61.3340 F   0  0  0  0  0  0  0  0  0  0  0  0
  131.3160  120.6510   61.0150 F   0  0  0  0  0  0  0  0  0  0  0  0
  131.6570  123.6580   63.0960 C   0  0  0  0  0  0  0  0  0  0  0  0
  130.8220  123.7420   64.2680 C   0  0  0  0  0  0  0  0  0  0  0  0
  129.8250  122.8390   64.5340 N   0  0  0  0  0  0  0  0  0  0  0  0
  127.4700  130.8336   76.0092 H   0  0  0  0  0  0  0  0  0  0  0  0
  128.1276  131.5281   74.4887 H   0  0  0  0  0  0  0  0  0  0  0  0
  126.5194  130.7279   74.4887 H   0  0  0  0  0  0  0  0  0  0  0  0
  126.9438  127.8026   74.8345 H   0  0  0  0  0  0  0  0  0  0  0  0
  126.3761  129.0298   73.6517 H   0  0  0  0  0  0  0  0  0  0  0  0
  127.4341  126.8124   72.7262 H   0  0  0  0  0  0  0  0  0  0  0  0
  127.9760  128.3708   72.0169 H   0  0  0  0  0  0  0  0  0  0  0  0
  131.1075  126.7027   72.6594 H   0  0  0  0  0  0  0  0  0  0  0  0
  129.6385  125.8819   72.0323 H   0  0  0  0  0  0  0  0  0  0  0  0
  129.5177  128.6711   71.2596 H   0  0  0  0  0  0  0  0  0  0  0  0
  131.1399  128.0392   70.8238 H   0  0  0  0  0  0  0  0  0  0  0  0
  130.3819  128.4328   68.6577 H   0  0  0  0  0  0  0  0  0  0  0  0
  131.0867  126.7820   68.6194 H   0  0  0  0  0  0  0  0  0  0  0  0
  128.4765  126.2420   67.9465 H   0  0  0  0  0  0  0  0  0  0  0  0
  128.7160  127.9066   67.2291 H   0  0  0  0  0  0  0  0  0  0  0  0
  129.8920  126.9710   65.5700 H   0  0  0  0  0  0  0  0  0  0  0  0
  135.5633  124.5548   60.5542 H   0  0  0  0  0  0  0  0  0  0  0  0
  134.7280  123.4227   59.4375 H   0  0  0  0  0  0  0  0  0  0  0  0
  134.2962  125.1663   59.4375 H   0  0  0  0  0  0  0  0  0  0  0  0
  132.7549  122.2961   60.1529 H   0  0  0  0  0  0  0  0  0  0  0  0
  129.9580  122.0680   65.1740 H   0  0  0  0  0  0  0  0  0  0  0  0
  128.9150  122.9180   64.1010 H   0  0  0  0  0  0  0  0  0  0  0  0
  1  2  1  0
  2  3  1  0
  3  4  1  0
  4  5  1  0
  5  6  1  0
  6  7  1  0
  7  8  1  0
  8  9  1  0
  9 10  1  0
 10 11  1  0
 11 12  1  0
 12 13  2  0
 12 14  1  0
 14 15  1  0
 15 16  1  0
 16 17  2  0
 17 18  1  0
 18 19  1  0
 18 20  2  0
 20 21  1  0
 21 22  1  0
 22 23  1  0
 22 24  1  0
 22 25  1  0
 21 26  2  0
 26 27  1  0
 27 28  1  0
 27 14  2  0
 26 16  1  0
  1 29  1  0
  1 30  1  0
  1 31  1  0
  3 32  1  0
  3 33  1  0
  4 34  1  0
  4 35  1  0
  6 36  1  0
  6 37  1  0
  7 38  1  0
  7 39  1  0
  9 40  1  0
  9 41  1  0
 10 42  1  0
 10 43  1  0
 11 44  1  0
 19 45  1  0
 19 46  1  0
 19 47  1  0
 20 48  1  0
 28 49  1  0
 28 50  1  0
M  END
>  <Binding energies>  (1) 
[-5.46]

>  <Ligand effiencies>  (1) 
[-0.1761290322580645]

>  <Interactions>  (1) 
["V-B:TYR:539:CE1:9847, V-A:ILE:369:CD1:3236, V-A:LEU:475:CD2:4256, V-B:TYR:539:CD1:9845, V-A:GLU:543:CG:4905, H-B:GLU:543:OE1:9881, V-A:ASP:366:CG:3210, V-A:ILE:369:CG2:3234, H-B:GLU:543:OE2:9882, V-B:GLU:543:CD:9880, H-A:ARG:545:NH2:4926, V-B:GLU:543:CB:9878, V-B:GLU:543:CG:9879, V-A:HIS:456:CE1:4066, H-A:GLU:543:OE2:4908, V-A:ASP:366:CA:3207, V-A:ASP:366:CB:3209, V-A:TYR:484:CE2:4343, V-A:TYR:484:CZ:4344, V-A:GLU:543:CD:4906, V-A:ILE:369:CB:3233, V-B:GLY:544:C:9884, V-A:ARG:545:CZ:4924, V-B:ALA:541:CB:9864, V-A:ILE:369:CG1:3235, V-A:HIS:456:CD2:4065, H-A:HIS:456:NE2:4067, V-A:GLY:544:C:4910, H-A:TYR:484:OH:4345, V-A:GLY:544:CA:4912, V-A:GLU:543:C:4900, V-B:HIS:456:CD2:9039, V-B:HIS:456:CG:9037, H-B:LYS:547:NZ:9923, H-A:LYS:547:NZ:4949, V-B:LYS:547:CE:9922, V-B:HIS:456:CB:9036, V-A:LEU:475:CG:4254"]

$$$$
4ca_Grossjean_2025
     RDKit          3D

 52 55  0  0  0  0  0  0  0  0999 V2000
  124.5760  136.0880   61.3930 C   0  0  0  0  0  0  0  0  0  0  0  0
  124.5650  134.5690   61.2000 C   0  0  0  0  0  0  0  0  0  0  0  0
  124.8790  133.9330   62.4330 O   0  0  0  0  0  0  0  0  0  0  0  0
  124.1920  132.8400   62.8540 C   0  0  0  0  0  0  0  0  0  0  0  0
  123.0110  132.8760   63.2120 O   0  0  0  0  0  0  0  0  0  0  0  0
  125.0110  131.5820   62.8370 C   0  0  0  0  0  0  0  0  0  0  0  0
  125.5430  131.1280   61.6230 C   0  0  0  0  0  0  0  0  0  0  0  0
  126.3100  129.9680   61.5760 C   0  0  0  0  0  0  0  0  0  0  0  0
  126.5560  129.2350   62.7370 C   0  0  0  0  0  0  0  0  0  0  0  0
  127.3520  128.0830   62.5760 N   0  0  0  0  0  0  0  0  0  0  0  0
  127.6580  127.3830   61.4560 C   0  0  0  0  0  0  0  0  0  0  0  0
  127.2970  127.7010   60.3220 O   0  0  0  0  0  0  0  0  0  0  0  0
  128.4870  126.1950   61.6690 C   0  0  0  0  0  0  0  0  0  0  0  0
  128.3100  124.7910   60.6190 S   0  0  0  0  0  0  0  0  0  0  0  0
  129.5840  123.9430   61.4620 C   0  0  0  0  0  0  0  0  0  0  0  0
  129.9570  122.7170   61.1030 N   0  0  0  0  0  0  0  0  0  0  0  0
  130.9660  122.1430   61.8080 C   0  0  0  0  0  0  0  0  0  0  0  0
  131.3700  120.7640   61.3730 C   0  0  0  0  0  0  0  0  0  0  0  0
  130.4500  119.7040   61.3980 C   0  0  0  0  0  0  0  0  0  0  0  0
  130.8200  118.4210   61.0010 C   0  0  0  0  0  0  0  0  0  0  0  0
  132.1210  118.1800   60.5730 C   0  0  0  0  0  0  0  0  0  0  0  0
  133.0540  119.2110   60.5410 C   0  0  0  0  0  0  0  0  0  0  0  0
  132.6800  120.4920   60.9390 C   0  0  0  0  0  0  0  0  0  0  0  0
  131.5790  122.7940   62.8840 C   0  0  0  0  0  0  0  0  0  0  0  0
  131.1910  124.0850   63.2730 C   0  0  0  0  0  0  0  0  0  0  0  0
  131.9080  124.7410   64.4580 C   0  0  0  0  0  0  0  0  0  0  0  0
  131.1810  124.7390   65.5770 F   0  0  0  0  0  0  0  0  0  0  0  0
  133.0410  124.0890   64.7180 F   0  0  0  0  0  0  0  0  0  0  0  0
  132.1880  126.0120   64.1690 F   0  0  0  0  0  0  0  0  0  0  0  0
  130.1450  124.7030   62.5290 C   0  0  0  0  0  0  0  0  0  0  0  0
  129.4990  125.9900   62.6220 C   0  0  0  0  0  0  0  0  0  0  0  0
  129.8450  126.9260   63.5630 N   0  0  0  0  0  0  0  0  0  0  0  0
  126.0330  129.6840   63.9580 C   0  0  0  0  0  0  0  0  0  0  0  0
  125.2680  130.8460   64.0040 C   0  0  0  0  0  0  0  0  0  0  0  0
  124.5777  136.3210   62.4680 H   0  0  0  0  0  0  0  0  0  0  0  0
  125.4772  136.5106   60.9248 H   0  0  0  0  0  0  0  0  0  0  0  0
  123.6810  136.5236   60.9248 H   0  0  0  0  0  0  0  0  0  0  0  0
  123.5671  134.2489   60.8658 H   0  0  0  0  0  0  0  0  0  0  0  0
  125.3120  134.2898   60.4423 H   0  0  0  0  0  0  0  0  0  0  0  0
  125.3527  131.6935   60.6989 H   0  0  0  0  0  0  0  0  0  0  0  0
  126.7254  129.6265   60.6164 H   0  0  0  0  0  0  0  0  0  0  0  0
  127.7610  127.7420   63.4330 H   0  0  0  0  0  0  0  0  0  0  0  0
  129.4200  119.8895   61.7366 H   0  0  0  0  0  0  0  0  0  0  0  0
  130.0861  117.6020   61.0260 H   0  0  0  0  0  0  0  0  0  0  0  0
  132.4140  117.1677   60.2578 H   0  0  0  0  0  0  0  0  0  0  0  0
  134.0823  119.0155   60.2029 H   0  0  0  0  0  0  0  0  0  0  0  0
  133.4212  121.3044   60.9136 H   0  0  0  0  0  0  0  0  0  0  0  0
  132.3816  122.2833   63.4363 H   0  0  0  0  0  0  0  0  0  0  0  0
  129.2140  127.1950   64.3060 H   0  0  0  0  0  0  0  0  0  0  0  0
  130.7480  127.3800   63.5480 H   0  0  0  0  0  0  0  0  0  0  0  0
  126.2274  129.1174   64.8806 H   0  0  0  0  0  0  0  0  0  0  0  0
  124.8604  131.1912   64.9656 H   0  0  0  0  0  0  0  0  0  0  0  0
  1  2  1  0
  2  3  1  0
  3  4  1  0
  4  5  2  0
  4  6  1  0
  6  7  2  0
  7  8  1  0
  8  9  2  0
  9 10  1  0
 10 11  1  0
 11 12  2  0
 11 13  1  0
 13 14  1  0
 14 15  1  0
 15 16  2  0
 16 17  1  0
 17 18  1  0
 18 19  2  0
 19 20  1  0
 20 21  2  0
 21 22  1  0
 22 23  2  0
 17 24  2  0
 24 25  1  0
 25 26  1  0
 26 27  1  0
 26 28  1  0
 26 29  1  0
 25 30  2  0
 30 31  1  0
 31 32  1  0
  9 33  1  0
 33 34  2  0
 34  6  1  0
 31 13  2  0
 30 15  1  0
 23 18  1  0
  1 35  1  0
  1 36  1  0
  1 37  1  0
  2 38  1  0
  2 39  1  0
  7 40  1  0
  8 41  1  0
 10 42  1  0
 19 43  1  0
 20 44  1  0
 21 45  1  0
 22 46  1  0
 23 47  1  0
 24 48  1  0
 32 49  1  0
 32 50  1  0
 33 51  1  0
 34 52  1  0
M  END
>  <Binding energies>  (1) 
[-7.4]

>  <Ligand effiencies>  (1) 
[-0.2]

>  <Interactions>  (1) 
["V-B:LEU:475:CD2:9230, V-B:GLY:454:CA:9020, V-B:ILE:369:CG2:8208, V-A:TYR:539:CE1:4873, V-B:ILE:369:CD1:8210, V-A:TYR:539:CD1:4871, V-B:TYR:539:CE1:9847, V-A:LEU:475:CD2:4256, V-B:TYR:539:CD1:9845, V-A:GLY:454:CA:4046, H-B:GLU:543:OE1:9881, V-A:ILE:369:CG2:3234, H-B:GLU:543:OE2:9882, V-B:GLU:543:CD:9880, V-B:GLU:543:CB:9878, H-A:GLU:543:OE2:4908, V-A:TYR:484:CE2:4343, H-B:GLY:454:N:9021, V-A:TYR:484:CZ:4344, V-A:GLU:543:CD:4906, V-B:ARG:545:CZ:9898, V-A:ARG:545:CZ:4924, V-A:SER:385:CA:3404, H-A:GLU:543:OE1:4907, V-B:ALA:541:CB:9864, V-A:SER:385:CB:3406, V-A:LEU:373:CD1:3277, V-B:SER:385:CA:8378, V-B:SER:385:CB:8380, V-B:LEU:373:CD1:8251, V-A:PRO:482:CB:4323, V-A:PRO:482:CG:4324"]

$$$$
4cb_Grossjean_2025
     RDKit          3D

 49 52  0  0  0  0  0  0  0  0999 V2000
  124.2040  135.0340   61.4630 C   0  0  0  0  0  0  0  0  0  0  0  0
  124.8600  134.0090   62.1970 O   0  0  0  0  0  0  0  0  0  0  0  0
  124.1850  132.9080   62.6160 C   0  0  0  0  0  0  0  0  0  0  0  0
  122.9970  132.9240   62.9520 O   0  0  0  0  0  0  0  0  0  0  0  0
  125.0280  131.6650   62.6300 C   0  0  0  0  0  0  0  0  0  0  0  0
  125.1520  130.9090   61.4570 C   0  0  0  0  0  0  0  0  0  0  0  0
  125.9320  129.7560   61.4370 C   0  0  0  0  0  0  0  0  0  0  0  0
  126.5990  129.3330   62.5870 C   0  0  0  0  0  0  0  0  0  0  0  0
  127.3710  128.1630   62.4490 N   0  0  0  0  0  0  0  0  0  0  0  0
  127.5800  127.3780   61.3640 C   0  0  0  0  0  0  0  0  0  0  0  0
  127.1280  127.6130   60.2420 O   0  0  0  0  0  0  0  0  0  0  0  0
  128.4180  126.1990   61.5970 C   0  0  0  0  0  0  0  0  0  0  0  0
  128.3020  124.8030   60.5280 S   0  0  0  0  0  0  0  0  0  0  0  0
  129.5550  123.9640   61.4120 C   0  0  0  0  0  0  0  0  0  0  0  0
  129.9590  122.7460   61.0590 N   0  0  0  0  0  0  0  0  0  0  0  0
  130.9460  122.1790   61.8000 C   0  0  0  0  0  0  0  0  0  0  0  0
  131.3840  120.8080   61.3740 C   0  0  0  0  0  0  0  0  0  0  0  0
  130.4840  119.7300   61.3860 C   0  0  0  0  0  0  0  0  0  0  0  0
  130.8850  118.4550   60.9950 C   0  0  0  0  0  0  0  0  0  0  0  0
  132.1960  118.2390   60.5850 C   0  0  0  0  0  0  0  0  0  0  0  0
  133.1090  119.2890   60.5660 C   0  0  0  0  0  0  0  0  0  0  0  0
  132.7040  120.5610   60.9590 C   0  0  0  0  0  0  0  0  0  0  0  0
  131.5060  122.8290   62.9060 C   0  0  0  0  0  0  0  0  0  0  0  0
  131.0840  124.1110   63.2890 C   0  0  0  0  0  0  0  0  0  0  0  0
  131.7420  124.7660   64.5100 C   0  0  0  0  0  0  0  0  0  0  0  0
  131.9900  126.0660   64.3350 F   0  0  0  0  0  0  0  0  0  0  0  0
  130.9400  124.6520   65.5680 F   0  0  0  0  0  0  0  0  0  0  0  0
  132.9040  124.1690   64.7720 F   0  0  0  0  0  0  0  0  0  0  0  0
  130.0610  124.7220   62.5080 C   0  0  0  0  0  0  0  0  0  0  0  0
  129.3950  126.0000   62.5870 C   0  0  0  0  0  0  0  0  0  0  0  0
  129.6940  126.9330   63.5460 N   0  0  0  0  0  0  0  0  0  0  0  0
  126.4830  130.0860   63.7650 C   0  0  0  0  0  0  0  0  0  0  0  0
  125.7040  131.2380   63.7830 C   0  0  0  0  0  0  0  0  0  0  0  0
  123.7460  135.7496   62.1617 H   0  0  0  0  0  0  0  0  0  0  0  0
  124.9356  135.5570   60.8296 H   0  0  0  0  0  0  0  0  0  0  0  0
  123.4226  134.5887   60.8296 H   0  0  0  0  0  0  0  0  0  0  0  0
  124.6286  131.2292   60.5440 H   0  0  0  0  0  0  0  0  0  0  0  0
  126.0230  129.1744   60.5078 H   0  0  0  0  0  0  0  0  0  0  0  0
  127.8450  127.8810   63.2940 H   0  0  0  0  0  0  0  0  0  0  0  0
  129.4457  119.8954   61.7094 H   0  0  0  0  0  0  0  0  0  0  0  0
  130.1671  117.6217   61.0104 H   0  0  0  0  0  0  0  0  0  0  0  0
  132.5131  117.2327   60.2740 H   0  0  0  0  0  0  0  0  0  0  0  0
  134.1456  119.1144   60.2420 H   0  0  0  0  0  0  0  0  0  0  0  0
  133.4296  121.3876   60.9446 H   0  0  0  0  0  0  0  0  0  0  0  0
  132.2926  122.3246   63.4864 H   0  0  0  0  0  0  0  0  0  0  0  0
  129.1260  127.0490   64.3730 H   0  0  0  0  0  0  0  0  0  0  0  0
  130.4990  127.5380   63.4600 H   0  0  0  0  0  0  0  0  0  0  0  0
  127.0091  129.7647   64.6760 H   0  0  0  0  0  0  0  0  0  0  0  0
  125.6168  131.8210   64.7117 H   0  0  0  0  0  0  0  0  0  0  0  0
  1  2  1  0
  2  3  1  0
  3  4  2  0
  3  5  1  0
  5  6  2  0
  6  7  1  0
  7  8  2  0
  8  9  1  0
  9 10  1  0
 10 11  2  0
 10 12  1  0
 12 13  1  0
 13 14  1  0
 14 15  2  0
 15 16  1  0
 16 17  1  0
 17 18  2  0
 18 19  1  0
 19 20  2  0
 20 21  1  0
 21 22  2  0
 16 23  2  0
 23 24  1  0
 24 25  1  0
 25 26  1  0
 25 27  1  0
 25 28  1  0
 24 29  2  0
 29 30  1  0
 30 31  1  0
  8 32  1  0
 32 33  2  0
 33  5  1  0
 30 12  2  0
 29 14  1  0
 22 17  1  0
  1 34  1  0
  1 35  1  0
  1 36  1  0
  6 37  1  0
  7 38  1  0
  9 39  1  0
 18 40  1  0
 19 41  1  0
 20 42  1  0
 21 43  1  0
 22 44  1  0
 23 45  1  0
 31 46  1  0
 31 47  1  0
 32 48  1  0
 33 49  1  0
M  END
>  <Binding energies>  (1) 
[-7.08]

>  <Ligand effiencies>  (1) 
[-0.19666666666666666]

>  <Interactions>  (1) 
["V-B:LEU:475:CD2:9230, V-B:GLY:454:CA:9020, V-B:ILE:369:CG2:8208, V-A:TYR:539:CE1:4873, V-B:ILE:369:CD1:8210, V-B:ASP:366:CG:8184, V-B:TYR:539:CE1:9847, V-A:LEU:475:CD2:4256, V-B:TYR:539:CD1:9845, V-A:GLY:454:CA:4046, H-B:GLU:543:OE1:9881, V-A:ILE:369:CG2:3234, H-B:GLU:543:OE2:9882, V-B:GLU:543:CD:9880, V-B:GLU:543:CB:9878, H-A:GLU:543:OE2:4908, V-A:TYR:484:CE2:4343, H-B:GLY:454:N:9021, V-A:TYR:484:CZ:4344, V-A:GLU:543:CD:4906, V-A:ARG:545:CZ:4924, V-A:SER:385:CA:3404, H-A:GLU:543:OE1:4907, V-B:ALA:541:CB:9864, V-A:SER:385:CB:3406, V-A:LEU:373:CD1:3277, V-B:SER:385:CA:8378, V-B:SER:385:C:8376, V-A:PRO:482:CB:4323, V-A:PRO:482:CG:4324"]

$$$$
4cc_Grossjean_2025
     RDKit          3D

 47 50  0  0  0  0  0  0  0  0999 V2000
  124.0540  133.3290   62.3550 C   0  0  0  0  0  0  0  0  0  0  0  0
  123.8300  132.2270   63.2280 O   0  0  0  0  0  0  0  0  0  0  0  0
  124.7190  131.1700   63.2220 C   0  0  0  0  0  0  0  0  0  0  0  0
  124.8070  130.4370   62.0390 C   0  0  0  0  0  0  0  0  0  0  0  0
  125.6770  129.3550   61.9370 C   0  0  0  0  0  0  0  0  0  0  0  0
  126.4670  128.9840   63.0270 C   0  0  0  0  0  0  0  0  0  0  0  0
  127.3270  127.8880   62.8250 N   0  0  0  0  0  0  0  0  0  0  0  0
  127.7500  127.3330   61.6640 C   0  0  0  0  0  0  0  0  0  0  0  0
  127.4530  127.7610   60.5480 O   0  0  0  0  0  0  0  0  0  0  0  0
  128.6130  126.1560   61.8070 C   0  0  0  0  0  0  0  0  0  0  0  0
  128.3530  124.7370   60.7950 S   0  0  0  0  0  0  0  0  0  0  0  0
  129.6920  123.9010   61.5450 C   0  0  0  0  0  0  0  0  0  0  0  0
  130.0360  122.6690   61.1770 N   0  0  0  0  0  0  0  0  0  0  0  0
  131.0970  122.1050   61.8100 C   0  0  0  0  0  0  0  0  0  0  0  0
  131.4590  120.7140   61.3770 C   0  0  0  0  0  0  0  0  0  0  0  0
  130.5040  119.6840   61.3960 C   0  0  0  0  0  0  0  0  0  0  0  0
  130.8330  118.3910   60.9980 C   0  0  0  0  0  0  0  0  0  0  0  0
  132.1260  118.1080   60.5740 C   0  0  0  0  0  0  0  0  0  0  0  0
  133.0930  119.1080   60.5490 C   0  0  0  0  0  0  0  0  0  0  0  0
  132.7600  120.4000   60.9490 C   0  0  0  0  0  0  0  0  0  0  0  0
  131.7970  122.7740   62.8190 C   0  0  0  0  0  0  0  0  0  0  0  0
  131.4420  124.0730   63.2160 C   0  0  0  0  0  0  0  0  0  0  0  0
  132.2560  124.7500   64.3240 C   0  0  0  0  0  0  0  0  0  0  0  0
  131.5290  125.0390   65.4070 F   0  0  0  0  0  0  0  0  0  0  0  0
  133.2450  123.9450   64.7120 F   0  0  0  0  0  0  0  0  0  0  0  0
  132.7710  125.8930   63.8720 F   0  0  0  0  0  0  0  0  0  0  0  0
  130.3360  124.6780   62.5530 C   0  0  0  0  0  0  0  0  0  0  0  0
  129.6930  125.9630   62.6830 C   0  0  0  0  0  0  0  0  0  0  0  0
  130.1080  126.9110   63.5850 N   0  0  0  0  0  0  0  0  0  0  0  0
  126.3940  129.7230   64.2170 C   0  0  0  0  0  0  0  0  0  0  0  0
  125.5230  130.8050   64.3130 C   0  0  0  0  0  0  0  0  0  0  0  0
  124.2384  134.2361   62.9494 H   0  0  0  0  0  0  0  0  0  0  0  0
  124.9285  133.1223   61.7205 H   0  0  0  0  0  0  0  0  0  0  0  0
  123.1682  133.4801   61.7205 H   0  0  0  0  0  0  0  0  0  0  0  0
  124.1826  130.7166   61.1776 H   0  0  0  0  0  0  0  0  0  0  0  0
  125.7423  128.7907   60.9950 H   0  0  0  0  0  0  0  0  0  0  0  0
  127.6950  127.4840   63.6730 H   0  0  0  0  0  0  0  0  0  0  0  0
  129.4793  119.9026   61.7309 H   0  0  0  0  0  0  0  0  0  0  0  0
  130.0725  117.5965   61.0190 H   0  0  0  0  0  0  0  0  0  0  0  0
  132.3863  117.0875   60.2564 H   0  0  0  0  0  0  0  0  0  0  0  0
  134.1158  118.8794   60.2149 H   0  0  0  0  0  0  0  0  0  0  0  0
  133.5280  121.1873   60.9295 H   0  0  0  0  0  0  0  0  0  0  0  0
  132.6429  122.2723   63.3116 H   0  0  0  0  0  0  0  0  0  0  0  0
  130.3920  126.6670   64.5230 H   0  0  0  0  0  0  0  0  0  0  0  0
  130.1390  127.8900   63.3390 H   0  0  0  0  0  0  0  0  0  0  0  0
  127.0252  129.4476   65.0748 H   0  0  0  0  0  0  0  0  0  0  0  0
  125.4646  131.3777   65.2503 H   0  0  0  0  0  0  0  0  0  0  0  0
  1  2  1  0
  2  3  1  0
  3  4  2  0
  4  5  1  0
  5  6  2  0
  6  7  1  0
  7  8  1  0
  8  9  2  0
  8 10  1  0
 10 11  1  0
 11 12  1  0
 12 13  2  0
 13 14  1  0
 14 15  1  0
 15 16  2  0
 16 17  1  0
 17 18  2  0
 18 19  1  0
 19 20  2  0
 14 21  2  0
 21 22  1  0
 22 23  1  0
 23 24  1  0
 23 25  1  0
 23 26  1  0
 22 27  2  0
 27 28  1  0
 28 29  1  0
  6 30  1  0
 30 31  2  0
 31  3  1  0
 28 10  2  0
 27 12  1  0
 20 15  1  0
  1 32  1  0
  1 33  1  0
  1 34  1  0
  4 35  1  0
  5 36  1  0
  7 37  1  0
 16 38  1  0
 17 39  1  0
 18 40  1  0
 19 41  1  0
 20 42  1  0
 21 43  1  0
 29 44  1  0
 29 45  1  0
 30 46  1  0
 31 47  1  0
M  END
>  <Binding energies>  (1) 
[-7.44]

>  <Ligand effiencies>  (1) 
[-0.21882352941176472]

>  <Interactions>  (1) 
["V-B:LEU:475:CD2:9230, V-B:GLY:454:CA:9020, V-B:ILE:369:CG2:8208, V-B:ILE:369:CD1:8210, V-B:ASP:366:CG:8184, V-B:TYR:539:CE1:9847, V-A:GLY:453:C:4039, V-A:LEU:475:CD2:4256, V-B:TYR:539:CD1:9845, V-A:GLY:454:CA:4046, H-B:GLU:543:OE1:9881, V-A:ILE:369:CG2:3234, H-B:GLU:543:OE2:9882, V-B:GLU:543:CD:9880, H-A:GLU:543:OE2:4908, H-B:GLY:454:N:9021, V-A:TYR:484:CZ:4344, V-A:GLU:543:CD:4906, V-B:ARG:545:CZ:9898, V-A:ARG:545:CZ:4924, V-A:SER:385:CA:3404, H-A:GLU:543:OE1:4907, V-B:ALA:541:CB:9864, V-A:SER:385:CB:3406, V-A:LEU:373:CD1:3277, V-A:PRO:482:CB:4323, V-A:PRO:482:CG:4324"]

$$$$
4cd_Grossjean_2025
     RDKit          3D

 43 46  0  0  0  0  0  0  0  0999 V2000
  130.1110  126.8730   63.6270 N   0  0  0  0  0  0  0  0  0  0  0  0
  129.6840  125.9310   62.7250 C   0  0  0  0  0  0  0  0  0  0  0  0
  128.5910  126.1290   61.8660 C   0  0  0  0  0  0  0  0  0  0  0  0
  127.7110  127.2970   61.7610 C   0  0  0  0  0  0  0  0  0  0  0  0
  127.3510  127.7150   60.6600 O   0  0  0  0  0  0  0  0  0  0  0  0
  127.3370  127.8500   62.9400 N   0  0  0  0  0  0  0  0  0  0  0  0
  126.5530  128.9930   63.1860 C   0  0  0  0  0  0  0  0  0  0  0  0
  126.7560  129.6210   64.4180 C   0  0  0  0  0  0  0  0  0  0  0  0
  126.0370  130.7660   64.7490 C   0  0  0  0  0  0  0  0  0  0  0  0
  125.1190  131.2900   63.8430 C   0  0  0  0  0  0  0  0  0  0  0  0
  124.9160  130.6820   62.6070 C   0  0  0  0  0  0  0  0  0  0  0  0
  125.6330  129.5350   62.2720 C   0  0  0  0  0  0  0  0  0  0  0  0
  128.3290  124.7230   60.8370 S   0  0  0  0  0  0  0  0  0  0  0  0
  129.6730  123.8800   61.5690 C   0  0  0  0  0  0  0  0  0  0  0  0
  130.0140  122.6510   61.1870 N   0  0  0  0  0  0  0  0  0  0  0  0
  131.0650  122.0720   61.8240 C   0  0  0  0  0  0  0  0  0  0  0  0
  131.4240  120.6860   61.3740 C   0  0  0  0  0  0  0  0  0  0  0  0
  132.7260  120.3840   60.9430 C   0  0  0  0  0  0  0  0  0  0  0  0
  133.0660  119.1000   60.5250 C   0  0  0  0  0  0  0  0  0  0  0  0
  132.1040  118.0960   60.5330 C   0  0  0  0  0  0  0  0  0  0  0  0
  130.8080  118.3660   60.9570 C   0  0  0  0  0  0  0  0  0  0  0  0
  130.4730  119.6500   61.3770 C   0  0  0  0  0  0  0  0  0  0  0  0
  131.7800  122.7360   62.8250 C   0  0  0  0  0  0  0  0  0  0  0  0
  131.4310  124.0340   63.2320 C   0  0  0  0  0  0  0  0  0  0  0  0
  132.2560  124.7020   64.3390 C   0  0  0  0  0  0  0  0  0  0  0  0
  133.2840  123.9560   64.7490 F   0  0  0  0  0  0  0  0  0  0  0  0
  132.7520  125.8580   63.8970 F   0  0  0  0  0  0  0  0  0  0  0  0
  131.4830  124.9320   65.4000 F   0  0  0  0  0  0  0  0  0  0  0  0
  130.3230  124.6460   62.5800 C   0  0  0  0  0  0  0  0  0  0  0  0
  129.7630  127.8210   63.6140 H   0  0  0  0  0  0  0  0  0  0  0  0
  130.7900  126.6480   64.3410 H   0  0  0  0  0  0  0  0  0  0  0  0
  127.6500  127.3740   63.7740 H   0  0  0  0  0  0  0  0  0  0  0  0
  127.4870  129.2087   65.1290 H   0  0  0  0  0  0  0  0  0  0  0  0
  126.1934  131.2546   65.7220 H   0  0  0  0  0  0  0  0  0  0  0  0
  124.5486  132.1930   64.1061 H   0  0  0  0  0  0  0  0  0  0  0  0
  124.1912  131.1061   61.8965 H   0  0  0  0  0  0  0  0  0  0  0  0
  125.4793  129.0548   61.2944 H   0  0  0  0  0  0  0  0  0  0  0  0
  133.4902  121.1752   60.9355 H   0  0  0  0  0  0  0  0  0  0  0  0
  134.0906  118.8810   60.1901 H   0  0  0  0  0  0  0  0  0  0  0  0
  132.3703  117.0815   60.2016 H   0  0  0  0  0  0  0  0  0  0  0  0
  130.0505  117.5684   60.9606 H   0  0  0  0  0  0  0  0  0  0  0  0
  129.4477  119.8578   61.7168 H   0  0  0  0  0  0  0  0  0  0  0  0
  132.6327  122.2319   63.3033 H   0  0  0  0  0  0  0  0  0  0  0  0
  1  2  1  0
  2  3  2  0
  3  4  1  0
  4  5  2  0
  4  6  1  0
  6  7  1  0
  7  8  2  0
  8  9  1  0
  9 10  2  0
 10 11  1  0
 11 12  2  0
  3 13  1  0
 13 14  1  0
 14 15  2  0
 15 16  1  0
 16 17  1  0
 17 18  2  0
 18 19  1  0
 19 20  2  0
 20 21  1  0
 21 22  2  0
 16 23  2  0
 23 24  1  0
 24 25  1  0
 25 26  1  0
 25 27  1  0
 25 28  1  0
 24 29  2  0
 29  2  1  0
 12  7  1  0
 29 14  1  0
 22 17  1  0
  1 30  1  0
  1 31  1  0
  6 32  1  0
  8 33  1  0
  9 34  1  0
 10 35  1  0
 11 36  1  0
 12 37  1  0
 18 38  1  0
 19 39  1  0
 20 40  1  0
 21 41  1  0
 22 42  1  0
 23 43  1  0
M  END
>  <Binding energies>  (1) 
[-7.55]

>  <Ligand effiencies>  (1) 
[-0.2359375]

>  <Interactions>  (1) 
["V-B:GLY:454:CA:9020, V-B:TYR:539:CE1:9847, V-A:GLY:453:C:4039, V-A:LEU:475:CD2:4256, V-B:TYR:539:CD1:9845, V-A:GLY:454:CA:4046, H-B:GLU:543:OE1:9881, V-A:ILE:369:CG2:3234, H-B:GLU:543:OE2:9882, V-B:GLU:543:CD:9880, H-A:GLU:543:OE2:4908, V-A:TYR:484:CZ:4344, V-A:GLU:543:CD:4906, V-B:ARG:545:CZ:9898, V-A:ARG:545:CZ:4924, V-A:SER:385:CA:3404, H-A:GLU:543:OE1:4907, V-B:ALA:541:CB:9864, V-A:SER:385:CB:3406, V-A:LEU:373:CD1:3277, V-A:PRO:482:CB:4323, V-A:PRO:482:CG:4324"]

$$$$
4ce_Grossjean_2025
     RDKit          3D

 45 48  0  0  0  0  0  0  0  0999 V2000
  124.1270  131.0900   61.2110 C   0  0  0  0  0  0  0  0  0  0  0  0
  124.9420  130.5630   62.3770 C   0  0  0  0  0  0  0  0  0  0  0  0
  124.8610  131.1430   63.6460 C   0  0  0  0  0  0  0  0  0  0  0  0
  125.6340  130.6010   64.6740 C   0  0  0  0  0  0  0  0  0  0  0  0
  126.4580  129.5050   64.4120 C   0  0  0  0  0  0  0  0  0  0  0  0
  126.4960  128.9760   63.1160 C   0  0  0  0  0  0  0  0  0  0  0  0
  127.3260  127.8580   62.9220 N   0  0  0  0  0  0  0  0  0  0  0  0
  127.7120  127.2790   61.7560 C   0  0  0  0  0  0  0  0  0  0  0  0
  127.3780  127.6920   60.6440 O   0  0  0  0  0  0  0  0  0  0  0  0
  128.5730  126.1030   61.8930 C   0  0  0  0  0  0  0  0  0  0  0  0
  128.2980  124.6820   60.8880 S   0  0  0  0  0  0  0  0  0  0  0  0
  129.6660  123.8590   61.6000 C   0  0  0  0  0  0  0  0  0  0  0  0
  130.0120  122.6320   61.2190 N   0  0  0  0  0  0  0  0  0  0  0  0
  131.1000  122.0800   61.8180 C   0  0  0  0  0  0  0  0  0  0  0  0
  131.4670  120.6980   61.3630 C   0  0  0  0  0  0  0  0  0  0  0  0
  130.5170  119.6630   61.3780 C   0  0  0  0  0  0  0  0  0  0  0  0
  130.8530  118.3770   60.9640 C   0  0  0  0  0  0  0  0  0  0  0  0
  132.1450  118.1080   60.5260 C   0  0  0  0  0  0  0  0  0  0  0  0
  133.1040  119.1140   60.5030 C   0  0  0  0  0  0  0  0  0  0  0  0
  132.7660  120.3990   60.9200 C   0  0  0  0  0  0  0  0  0  0  0  0
  131.8200  122.7530   62.8110 C   0  0  0  0  0  0  0  0  0  0  0  0
  131.4590  124.0460   63.2230 C   0  0  0  0  0  0  0  0  0  0  0  0
  132.2930  124.7270   64.3140 C   0  0  0  0  0  0  0  0  0  0  0  0
  131.5830  125.0320   65.4020 F   0  0  0  0  0  0  0  0  0  0  0  0
  133.2820  123.9180   64.6960 F   0  0  0  0  0  0  0  0  0  0  0  0
  132.8100  125.8610   63.8440 F   0  0  0  0  0  0  0  0  0  0  0  0
  130.3300  124.6410   62.5900 C   0  0  0  0  0  0  0  0  0  0  0  0
  129.6810  125.9210   62.7380 C   0  0  0  0  0  0  0  0  0  0  0  0
  130.1120  126.8730   63.6250 N   0  0  0  0  0  0  0  0  0  0  0  0
  125.7390  129.4980   62.1070 N   0  0  0  0  0  0  0  0  0  0  0  0
  123.2607  131.6502   61.5927 H   0  0  0  0  0  0  0  0  0  0  0  0
  124.7524  131.7552   60.5974 H   0  0  0  0  0  0  0  0  0  0  0  0
  123.7770  130.2468   60.5974 H   0  0  0  0  0  0  0  0  0  0  0  0
  124.2039  132.0058   63.8301 H   0  0  0  0  0  0  0  0  0  0  0  0
  125.5942  131.0347   65.6841 H   0  0  0  0  0  0  0  0  0  0  0  0
  127.0691  129.0630   65.2127 H   0  0  0  0  0  0  0  0  0  0  0  0
  127.7110  127.4660   63.7680 H   0  0  0  0  0  0  0  0  0  0  0  0
  129.4932  119.8718   61.7218 H   0  0  0  0  0  0  0  0  0  0  0  0
  130.0989  117.5764   60.9833 H   0  0  0  0  0  0  0  0  0  0  0  0
  132.4098  117.0928   60.1956 H   0  0  0  0  0  0  0  0  0  0  0  0
  134.1252  118.8961   60.1570 H   0  0  0  0  0  0  0  0  0  0  0  0
  133.5280  121.1921   60.9022 H   0  0  0  0  0  0  0  0  0  0  0  0
  132.6854  122.2599   63.2779 H   0  0  0  0  0  0  0  0  0  0  0  0
  129.7770  127.8260   63.5920 H   0  0  0  0  0  0  0  0  0  0  0  0
  130.7850  126.6530   64.3460 H   0  0  0  0  0  0  0  0  0  0  0  0
  1  2  1  0
  2  3  2  0
  3  4  1  0
  4  5  2  0
  5  6  1  0
  6  7  1  0
  7  8  1  0
  8  9  2  0
  8 10  1  0
 10 11  1  0
 11 12  1  0
 12 13  2  0
 13 14  1  0
 14 15  1  0
 15 16  2  0
 16 17  1  0
 17 18  2  0
 18 19  1  0
 19 20  2  0
 14 21  2  0
 21 22  1  0
 22 23  1  0
 23 24  1  0
 23 25  1  0
 23 26  1  0
 22 27  2  0
 27 28  1  0
 28 29  1  0
  6 30  2  0
 30  2  1  0
 28 10  2  0
 27 12  1  0
 20 15  1  0
  1 31  1  0
  1 32  1  0
  1 33  1  0
  3 34  1  0
  4 35  1  0
  5 36  1  0
  7 37  1  0
 16 38  1  0
 17 39  1  0
 18 40  1  0
 19 41  1  0
 20 42  1  0
 21 43  1  0
 29 44  1  0
 29 45  1  0
M  END
>  <Binding energies>  (1) 
[-7.73]

>  <Ligand effiencies>  (1) 
[-0.23424242424242425]

>  <Interactions>  (1) 
["V-B:GLY:454:CA:9020, V-B:ILE:369:CD1:8210, V-B:TYR:539:CE1:9847, V-A:GLY:453:C:4039, V-A:LEU:475:CD2:4256, V-B:TYR:539:CD1:9845, V-A:GLY:454:CA:4046, H-B:GLU:543:OE1:9881, H-B:ARG:545:NH2:9900, V-A:ILE:369:CG2:3234, H-B:GLU:543:OE2:9882, V-B:GLU:543:CD:9880, H-A:GLU:543:OE2:4908, V-A:TYR:484:CZ:4344, V-A:GLU:543:CD:4906, V-B:ARG:545:CZ:9898, V-A:ARG:545:CZ:4924, V-A:SER:385:CA:3404, H-A:GLU:543:OE1:4907, V-B:ALA:541:CB:9864, V-A:SER:385:CB:3406, V-A:LEU:373:CD1:3277, V-A:PRO:482:CB:4323, V-A:PRO:482:CG:4324"]

$$$$
4cf_Grossjean_2025
     RDKit          3D

 42 45  0  0  0  0  0  0  0  0999 V2000
  129.7920  127.0090   63.7550 N   0  0  0  0  0  0  0  0  0  0  0  0
  129.4060  126.0770   62.8250 C   0  0  0  0  0  0  0  0  0  0  0  0
  128.3330  126.2710   61.9400 C   0  0  0  0  0  0  0  0  0  0  0  0
  127.4230  127.4170   61.8440 C   0  0  0  0  0  0  0  0  0  0  0  0
  126.8980  127.7120   60.7700 O   0  0  0  0  0  0  0  0  0  0  0  0
  127.2110  128.0880   63.0020 N   0  0  0  0  0  0  0  0  0  0  0  0
  126.4460  129.2450   63.2420 C   0  0  0  0  0  0  0  0  0  0  0  0
  126.4300  130.3970   62.4310 C   0  0  0  0  0  0  0  0  0  0  0  0
  125.6330  131.4850   62.7940 C   0  0  0  0  0  0  0  0  0  0  0  0
  124.8720  131.3980   63.9600 C   0  0  0  0  0  0  0  0  0  0  0  0
  124.8750  130.3030   64.7620 N   0  0  0  0  0  0  0  0  0  0  0  0
  125.6560  129.2530   64.3970 C   0  0  0  0  0  0  0  0  0  0  0  0
  128.1210  124.8790   60.8820 S   0  0  0  0  0  0  0  0  0  0  0  0
  129.4610  124.0460   61.6340 C   0  0  0  0  0  0  0  0  0  0  0  0
  129.8300  122.8280   61.2440 N   0  0  0  0  0  0  0  0  0  0  0  0
  130.8730  122.2550   61.9000 C   0  0  0  0  0  0  0  0  0  0  0  0
  131.2610  120.8790   61.4440 C   0  0  0  0  0  0  0  0  0  0  0  0
  132.5670  120.6110   61.0060 C   0  0  0  0  0  0  0  0  0  0  0  0
  132.9360  119.3370   60.5810 C   0  0  0  0  0  0  0  0  0  0  0  0
  132.0000  118.3090   60.5920 C   0  0  0  0  0  0  0  0  0  0  0  0
  130.6990  118.5460   61.0240 C   0  0  0  0  0  0  0  0  0  0  0  0
  130.3350  119.8210   61.4480 C   0  0  0  0  0  0  0  0  0  0  0  0
  131.5540  122.9170   62.9260 C   0  0  0  0  0  0  0  0  0  0  0  0
  131.1760  124.2030   63.3420 C   0  0  0  0  0  0  0  0  0  0  0  0
  131.9630  124.8690   64.4770 C   0  0  0  0  0  0  0  0  0  0  0  0
  132.3050  126.1310   64.2080 F   0  0  0  0  0  0  0  0  0  0  0  0
  131.2280  124.8830   65.5880 F   0  0  0  0  0  0  0  0  0  0  0  0
  133.0890  124.1910   64.7030 F   0  0  0  0  0  0  0  0  0  0  0  0
  130.0720  124.8070   62.6730 C   0  0  0  0  0  0  0  0  0  0  0  0
  129.7360  128.0010   63.5720 H   0  0  0  0  0  0  0  0  0  0  0  0
  130.1460  126.7320   64.6610 H   0  0  0  0  0  0  0  0  0  0  0  0
  127.6610  127.7100   63.8240 H   0  0  0  0  0  0  0  0  0  0  0  0
  127.0414  130.4393   61.5176 H   0  0  0  0  0  0  0  0  0  0  0  0
  125.6059  132.3924   62.1729 H   0  0  0  0  0  0  0  0  0  0  0  0
  124.2419  132.2545   64.2418 H   0  0  0  0  0  0  0  0  0  0  0  0
  125.6680  128.3628   65.0430 H   0  0  0  0  0  0  0  0  0  0  0  0
  133.3117  121.4206   60.9982 H   0  0  0  0  0  0  0  0  0  0  0  0
  133.9634  119.1450   60.2382 H   0  0  0  0  0  0  0  0  0  0  0  0
  132.2899  117.3021   60.2571 H   0  0  0  0  0  0  0  0  0  0  0  0
  129.9615  117.7299   61.0305 H   0  0  0  0  0  0  0  0  0  0  0  0
  129.3062  120.0037   61.7918 H   0  0  0  0  0  0  0  0  0  0  0  0
  132.4034  122.4198   63.4172 H   0  0  0  0  0  0  0  0  0  0  0  0
  1  2  1  0
  2  3  2  0
  3  4  1  0
  4  5  2  0
  4  6  1  0
  6  7  1  0
  7  8  2  0
  8  9  1  0
  9 10  2  0
 10 11  1  0
 11 12  2  0
  3 13  1  0
 13 14  1  0
 14 15  2  0
 15 16  1  0
 16 17  1  0
 17 18  2  0
 18 19  1  0
 19 20  2  0
 20 21  1  0
 21 22  2  0
 16 23  2  0
 23 24  1  0
 24 25  1  0
 25 26  1  0
 25 27  1  0
 25 28  1  0
 24 29  2  0
 29  2  1  0
 12  7  1  0
 29 14  1  0
 22 17  1  0
  1 30  1  0
  1 31  1  0
  6 32  1  0
  8 33  1  0
  9 34  1  0
 10 35  1  0
 12 36  1  0
 18 37  1  0
 19 38  1  0
 20 39  1  0
 21 40  1  0
 22 41  1  0
 23 42  1  0
M  END
>  <Binding energies>  (1) 
[-7.51]

>  <Ligand effiencies>  (1) 
[-0.2346875]

>  <Interactions>  (1) 
["V-B:GLY:454:CA:9020, V-B:TYR:539:CE1:9847, V-A:LEU:475:CD2:4256, V-B:TYR:539:CD1:9845, V-A:GLY:454:CA:4046, H-B:GLU:543:OE1:9881, H-B:ARG:545:NH2:9900, V-A:ILE:369:CG2:3234, H-B:GLU:543:OE2:9882, V-B:GLU:543:CD:9880, V-A:HIS:456:CE1:4066, H-A:GLU:543:OE2:4908, H-B:GLY:454:N:9021, V-A:TYR:484:CZ:4344, V-A:GLU:543:CD:4906, V-B:ARG:545:CZ:9898, V-A:ARG:545:CZ:4924, V-A:SER:385:CA:3404, H-A:GLU:543:OE1:4907, V-B:ALA:541:CB:9864, V-A:LEU:373:CD1:3277, V-A:PRO:482:CB:4323, V-A:PRO:482:CG:4324, H-B:TYR:484:OH:9319"]

$$$$
4cg_Grossjean_2025
     RDKit          3D

 46 49  0  0  0  0  0  0  0  0999 V2000
  129.6550  126.8610   63.6270 N   0  0  0  0  0  0  0  0  0  0  0  0
  129.3850  125.9070   62.6800 C   0  0  0  0  0  0  0  0  0  0  0  0
  128.3520  126.0290   61.7400 C   0  0  0  0  0  0  0  0  0  0  0  0
  127.4280  127.1450   61.5400 C   0  0  0  0  0  0  0  0  0  0  0  0
  126.9970  127.4300   60.4200 O   0  0  0  0  0  0  0  0  0  0  0  0
  127.1140  127.8590   62.6420 N   0  0  0  0  0  0  0  0  0  0  0  0
  126.1980  128.9970   62.6820 C   0  0  0  0  0  0  0  0  0  0  0  0
  126.6870  130.1380   63.5660 C   0  0  0  0  0  0  0  0  0  0  0  0
  127.0230  129.8880   64.8990 C   0  0  0  0  0  0  0  0  0  0  0  0
  127.5000  130.9220   65.7020 C   0  0  0  0  0  0  0  0  0  0  0  0
  127.6480  132.1990   65.1660 C   0  0  0  0  0  0  0  0  0  0  0  0
  127.3290  132.4510   63.8330 C   0  0  0  0  0  0  0  0  0  0  0  0
  126.8540  131.4180   63.0300 C   0  0  0  0  0  0  0  0  0  0  0  0
  128.2970  124.6370   60.6620 S   0  0  0  0  0  0  0  0  0  0  0  0
  129.6420  123.8900   61.4910 C   0  0  0  0  0  0  0  0  0  0  0  0
  130.1180  122.7070   61.1150 N   0  0  0  0  0  0  0  0  0  0  0  0
  131.1690  122.2070   61.8150 C   0  0  0  0  0  0  0  0  0  0  0  0
  131.6830  120.8680   61.3670 C   0  0  0  0  0  0  0  0  0  0  0  0
  130.8330  119.7510   61.3110 C   0  0  0  0  0  0  0  0  0  0  0  0
  131.3040  118.5090   60.8970 C   0  0  0  0  0  0  0  0  0  0  0  0
  132.6390  118.3630   60.5330 C   0  0  0  0  0  0  0  0  0  0  0  0
  133.5030  119.4510   60.5810 C   0  0  0  0  0  0  0  0  0  0  0  0
  133.0280  120.6920   60.9960 C   0  0  0  0  0  0  0  0  0  0  0  0
  131.7230  122.8910   62.9040 C   0  0  0  0  0  0  0  0  0  0  0  0
  131.2280  124.1400   63.3100 C   0  0  0  0  0  0  0  0  0  0  0  0
  131.8820  124.8340   64.5100 C   0  0  0  0  0  0  0  0  0  0  0  0
  131.1450  124.7640   65.6210 F   0  0  0  0  0  0  0  0  0  0  0  0
  133.0580  124.2650   64.7750 F   0  0  0  0  0  0  0  0  0  0  0  0
  132.0690  126.1240   64.2370 F   0  0  0  0  0  0  0  0  0  0  0  0
  130.1360  124.6800   62.5710 C   0  0  0  0  0  0  0  0  0  0  0  0
  129.0140  127.0620   64.3820 H   0  0  0  0  0  0  0  0  0  0  0  0
  130.5140  127.3930   63.6070 H   0  0  0  0  0  0  0  0  0  0  0  0
  127.4450  127.5240   63.5350 H   0  0  0  0  0  0  0  0  0  0  0  0
  126.0717  129.3789   61.6582 H   0  0  0  0  0  0  0  0  0  0  0  0
  125.2516  128.6366   63.1116 H   0  0  0  0  0  0  0  0  0  0  0  0
  126.9110  128.8756   65.3142 H   0  0  0  0  0  0  0  0  0  0  0  0
  127.7584  130.7307   66.7540 H   0  0  0  0  0  0  0  0  0  0  0  0
  128.0203  133.0165   65.8009 H   0  0  0  0  0  0  0  0  0  0  0  0
  127.4521  133.4619   63.4172 H   0  0  0  0  0  0  0  0  0  0  0  0
  126.6103  131.6089   61.9745 H   0  0  0  0  0  0  0  0  0  0  0  0
  129.7771  119.8601   61.5994 H   0  0  0  0  0  0  0  0  0  0  0  0
  130.6235  117.6457   60.8576 H   0  0  0  0  0  0  0  0  0  0  0  0
  133.0127  117.3816   60.2056 H   0  0  0  0  0  0  0  0  0  0  0  0
  134.5577  119.3318   60.2922 H   0  0  0  0  0  0  0  0  0  0  0  0
  133.7162  121.5493   61.0344 H   0  0  0  0  0  0  0  0  0  0  0  0
  132.5633  122.4403   63.4525 H   0  0  0  0  0  0  0  0  0  0  0  0
  1  2  1  0
  2  3  2  0
  3  4  1  0
  4  5  2  0
  4  6  1  0
  6  7  1  0
  7  8  1  0
  8  9  2  0
  9 10  1  0
 10 11  2  0
 11 12  1  0
 12 13  2  0
  3 14  1  0
 14 15  1  0
 15 16  2  0
 16 17  1  0
 17 18  1  0
 18 19  2  0
 19 20  1  0
 20 21  2  0
 21 22  1  0
 22 23  2  0
 17 24  2  0
 24 25  1  0
 25 26  1  0
 26 27  1  0
 26 28  1  0
 26 29  1  0
 25 30  2  0
 30  2  1  0
 13  8  1  0
 30 15  1  0
 23 18  1  0
  1 31  1  0
  1 32  1  0
  6 33  1  0
  7 34  1  0
  7 35  1  0
  9 36  1  0
 10 37  1  0
 11 38  1  0
 12 39  1  0
 13 40  1  0
 19 41  1  0
 20 42  1  0
 21 43  1  0
 22 44  1  0
 23 45  1  0
 24 46  1  0
M  END
>  <Binding energies>  (1) 
[-7.21]

>  <Ligand effiencies>  (1) 
[-0.21848484848484848]

>  <Interactions>  (1) 
["V-B:LEU:475:CD2:9230, V-A:ALA:541:CB:4890, V-B:TYR:539:CE1:9847, V-A:LEU:475:CD2:4256, V-B:TYR:539:CD1:9845, V-A:GLY:454:CA:4046, V-A:GLU:543:CG:4905, H-B:GLU:543:OE1:9881, V-A:ILE:369:CG2:3234, H-B:GLU:543:OE2:9882, V-B:GLU:543:CD:9880, V-B:GLU:543:CB:9878, V-A:HIS:456:CE1:4066, H-A:GLU:543:OE2:4908, V-A:TYR:484:CE2:4343, V-A:TYR:484:CZ:4344, V-A:GLU:543:CD:4906, V-A:GLU:543:CB:4904, V-B:ARG:545:CZ:9898, V-A:ARG:545:CZ:4924, V-A:SER:385:CA:3404, V-A:SER:385:C:3402, V-B:TYR:484:CE2:9317, H-A:GLU:543:OE1:4907, V-B:ALA:541:CB:9864, V-B:TYR:484:CZ:9318, V-A:SER:385:CB:3406, V-A:LEU:373:CD1:3277, V-A:PRO:482:CG:4324"]

$$$$
4ch_Grossjean_2025
     RDKit          3D

 58 61  0  0  0  0  0  0  0  0999 V2000
  124.3270  133.7180   61.8060 C   0  0  0  0  0  0  0  0  0  0  0  0
  125.5110  133.3740   61.0940 O   0  0  0  0  0  0  0  0  0  0  0  0
  126.3530  132.4040   61.6070 C   0  0  0  0  0  0  0  0  0  0  0  0
  125.9070  131.2010   62.1770 C   0  0  0  0  0  0  0  0  0  0  0  0
  126.8160  130.2650   62.6750 C   0  0  0  0  0  0  0  0  0  0  0  0
  126.3120  128.9770   63.3150 C   0  0  0  0  0  0  0  0  0  0  0  0
  127.2060  127.8310   63.1420 N   0  0  0  0  0  0  0  0  0  0  0  0
  127.4870  127.2250   61.9700 C   0  0  0  0  0  0  0  0  0  0  0  0
  127.0200  127.6100   60.8960 O   0  0  0  0  0  0  0  0  0  0  0  0
  128.4140  126.0940   62.0380 C   0  0  0  0  0  0  0  0  0  0  0  0
  128.1040  124.6410   61.0930 S   0  0  0  0  0  0  0  0  0  0  0  0
  129.5680  123.8930   61.6840 C   0  0  0  0  0  0  0  0  0  0  0  0
  129.9230  122.6670   61.3060 N   0  0  0  0  0  0  0  0  0  0  0  0
  131.0810  122.1700   61.8140 C   0  0  0  0  0  0  0  0  0  0  0  0
  131.4500  120.7830   61.3730 C   0  0  0  0  0  0  0  0  0  0  0  0
  130.5020  119.7460   61.3930 C   0  0  0  0  0  0  0  0  0  0  0  0
  130.8380  118.4570   60.9860 C   0  0  0  0  0  0  0  0  0  0  0  0
  132.1310  118.1860   60.5530 C   0  0  0  0  0  0  0  0  0  0  0  0
  133.0900  119.1920   60.5260 C   0  0  0  0  0  0  0  0  0  0  0  0
  132.7510  120.4790   60.9360 C   0  0  0  0  0  0  0  0  0  0  0  0
  131.8670  122.9000   62.7110 C   0  0  0  0  0  0  0  0  0  0  0  0
  131.5020  124.1930   63.1180 C   0  0  0  0  0  0  0  0  0  0  0  0
  132.4090  124.9370   64.1040 C   0  0  0  0  0  0  0  0  0  0  0  0
  133.2630  124.1320   64.7400 F   0  0  0  0  0  0  0  0  0  0  0  0
  133.1290  125.8500   63.4550 F   0  0  0  0  0  0  0  0  0  0  0  0
  131.6670  125.5420   65.0320 F   0  0  0  0  0  0  0  0  0  0  0  0
  130.2960  124.7290   62.5820 C   0  0  0  0  0  0  0  0  0  0  0  0
  129.6150  125.9890   62.7560 C   0  0  0  0  0  0  0  0  0  0  0  0
  130.0980  126.9900   63.5610 N   0  0  0  0  0  0  0  0  0  0  0  0
  128.1830  130.5370   62.6210 C   0  0  0  0  0  0  0  0  0  0  0  0
  128.6570  131.7340   62.0580 C   0  0  0  0  0  0  0  0  0  0  0  0
  129.9960  132.0670   61.9700 O   0  0  0  0  0  0  0  0  0  0  0  0
  130.9450  131.0650   61.6230 C   0  0  0  0  0  0  0  0  0  0  0  0
  127.7310  132.6560   61.5480 C   0  0  0  0  0  0  0  0  0  0  0  0
  128.1800  133.8370   61.0090 O   0  0  0  0  0  0  0  0  0  0  0  0
  127.8170  134.9900   61.7560 C   0  0  0  0  0  0  0  0  0  0  0  0
  124.5201  133.6619   62.8875 H   0  0  0  0  0  0  0  0  0  0  0  0
  124.0237  134.7414   61.5403 H   0  0  0  0  0  0  0  0  0  0  0  0
  123.5225  133.0165   61.5403 H   0  0  0  0  0  0  0  0  0  0  0  0
  124.8282  130.9931   62.2320 H   0  0  0  0  0  0  0  0  0  0  0  0
  126.1837  129.1547   64.3929 H   0  0  0  0  0  0  0  0  0  0  0  0
  125.3689  128.7211   62.8099 H   0  0  0  0  0  0  0  0  0  0  0  0
  127.5810  127.4290   63.9890 H   0  0  0  0  0  0  0  0  0  0  0  0
  129.4779  119.9556   61.7356 H   0  0  0  0  0  0  0  0  0  0  0  0
  130.0835  117.6568   61.0071 H   0  0  0  0  0  0  0  0  0  0  0  0
  132.3970  117.1688   60.2296 H   0  0  0  0  0  0  0  0  0  0  0  0
  134.1117  118.9725   60.1825 H   0  0  0  0  0  0  0  0  0  0  0  0
  133.5141  121.2710   60.9176 H   0  0  0  0  0  0  0  0  0  0  0  0
  132.7906  122.4517   63.1060 H   0  0  0  0  0  0  0  0  0  0  0  0
  130.1220  127.9540   63.2590 H   0  0  0  0  0  0  0  0  0  0  0  0
  130.4420  126.7950   64.4910 H   0  0  0  0  0  0  0  0  0  0  0  0
  128.8988  129.8055   63.0241 H   0  0  0  0  0  0  0  0  0  0  0  0
  131.3634  130.6232   62.5394 H   0  0  0  0  0  0  0  0  0  0  0  0
  130.4505  130.2810   61.0307 H   0  0  0  0  0  0  0  0  0  0  0  0
  131.7547  131.5162   61.0307 H   0  0  0  0  0  0  0  0  0  0  0  0
  127.8871  134.7675   62.8310 H   0  0  0  0  0  0  0  0  0  0  0  0
  128.4982  135.8172   61.5076 H   0  0  0  0  0  0  0  0  0  0  0  0
  126.7848  135.2778   61.5076 H   0  0  0  0  0  0  0  0  0  0  0  0
  1  2  1  0
  2  3  1  0
  3  4  2  0
  4  5  1  0
  5  6  1  0
  6  7  1  0
  7  8  1  0
  8  9  2  0
  8 10  1  0
 10 11  1  0
 11 12  1  0
 12 13  2  0
 13 14  1  0
 14 15  1  0
 15 16  2  0
 16 17  1  0
 17 18  2  0
 18 19  1  0
 19 20  2  0
 14 21  2  0
 21 22  1  0
 22 23  1  0
 23 24  1  0
 23 25  1  0
 23 26  1  0
 22 27  2  0
 27 28  1  0
 28 29  1  0
  5 30  2  0
 30 31  1  0
 31 32  1  0
 32 33  1  0
 31 34  2  0
 34 35  1  0
 35 36  1  0
 34  3  1  0
 28 10  2  0
 27 12  1  0
 20 15  1  0
  1 37  1  0
  1 38  1  0
  1 39  1  0
  4 40  1  0
  6 41  1  0
  6 42  1  0
  7 43  1  0
 16 44  1  0
 17 45  1  0
 18 46  1  0
 19 47  1  0
 20 48  1  0
 21 49  1  0
 29 50  1  0
 29 51  1  0
 30 52  1  0
 33 53  1  0
 33 54  1  0
 33 55  1  0
 36 56  1  0
 36 57  1  0
 36 58  1  0
M  END
>  <Binding energies>  (1) 
[-7.08]

>  <Ligand effiencies>  (1) 
[-0.18153846153846154]

>  <Interactions>  (1) 
["V-B:LEU:475:CD2:9230, V-B:ILE:369:CG2:8208, V-A:TYR:539:CE1:4873, V-B:ILE:369:CD1:8210, V-A:TYR:539:CD1:4871, H-A:ALA:541:N:4889, V-A:TYR:539:C:4865, V-A:ALA:541:CB:4890, V-B:TYR:539:CE1:9847, V-A:GLY:453:C:4039, V-A:LEU:475:CD2:4256, V-B:TYR:539:CD1:9845, V-A:GLY:454:CA:4046, H-B:GLU:543:OE1:9881, H-B:ARG:545:NH2:9900, V-A:ILE:369:CG2:3234, H-B:GLU:543:OE2:9882, V-B:GLU:543:CD:9880, H-A:GLU:543:OE2:4908, V-A:TYR:484:CZ:4344, V-A:GLU:543:CD:4906, V-B:ARG:545:CZ:9898, V-A:ARG:545:CZ:4924, V-A:SER:385:CA:3404, H-A:GLU:543:OE1:4907, V-B:ALA:541:CB:9864, V-A:SER:385:CB:3406, V-A:LEU:373:CD1:3277, V-A:PRO:482:CB:4323, V-A:PRO:482:CG:4324"]

$$$$
4ci_Grossjean_2025
     RDKit          3D

 39 42  0  0  0  0  0  0  0  0999 V2000
  130.0070  127.0240   63.6160 N   0  0  0  0  0  0  0  0  0  0  0  0
  129.5200  126.0290   62.8090 C   0  0  0  0  0  0  0  0  0  0  0  0
  128.3160  126.1370   62.0940 C   0  0  0  0  0  0  0  0  0  0  0  0
  127.3820  127.2660   62.0440 C   0  0  0  0  0  0  0  0  0  0  0  0
  126.8410  127.5880   60.9840 O   0  0  0  0  0  0  0  0  0  0  0  0
  127.1830  127.9110   63.2210 N   0  0  0  0  0  0  0  0  0  0  0  0
  126.3610  129.0060   63.4570 C   0  0  0  0  0  0  0  0  0  0  0  0
  126.2540  130.0830   62.5780 C   0  0  0  0  0  0  0  0  0  0  0  0
  125.3550  130.9400   63.1690 C   0  0  0  0  0  0  0  0  0  0  0  0
  124.9410  130.4060   64.3430 O   0  0  0  0  0  0  0  0  0  0  0  0
  125.5860  129.1810   64.5140 N   0  0  0  0  0  0  0  0  0  0  0  0
  128.0000  124.6810   61.1540 S   0  0  0  0  0  0  0  0  0  0  0  0
  129.4720  123.9360   61.7300 C   0  0  0  0  0  0  0  0  0  0  0  0
  129.8300  122.7130   61.3440 N   0  0  0  0  0  0  0  0  0  0  0  0
  130.9930  122.2180   61.8410 C   0  0  0  0  0  0  0  0  0  0  0  0
  131.3660  120.8350   61.3910 C   0  0  0  0  0  0  0  0  0  0  0  0
  132.6690  120.5480   60.9490 C   0  0  0  0  0  0  0  0  0  0  0  0
  133.0220  119.2670   60.5310 C   0  0  0  0  0  0  0  0  0  0  0  0
  132.0720  118.2510   60.5490 C   0  0  0  0  0  0  0  0  0  0  0  0
  130.7750  118.5070   60.9770 C   0  0  0  0  0  0  0  0  0  0  0  0
  130.4260  119.7890   61.3920 C   0  0  0  0  0  0  0  0  0  0  0  0
  131.7810  122.9470   62.7370 C   0  0  0  0  0  0  0  0  0  0  0  0
  131.4140  124.2380   63.1510 C   0  0  0  0  0  0  0  0  0  0  0  0
  132.3260  124.9800   64.1350 C   0  0  0  0  0  0  0  0  0  0  0  0
  131.6510  125.6420   65.0770 F   0  0  0  0  0  0  0  0  0  0  0  0
  133.1230  124.1090   64.7530 F   0  0  0  0  0  0  0  0  0  0  0  0
  133.0710  125.8690   63.4770 F   0  0  0  0  0  0  0  0  0  0  0  0
  130.2030  124.7710   62.6250 C   0  0  0  0  0  0  0  0  0  0  0  0
  130.5940  127.7650   63.2570 H   0  0  0  0  0  0  0  0  0  0  0  0
  129.7880  127.0560   64.6020 H   0  0  0  0  0  0  0  0  0  0  0  0
  127.6860  127.5670   64.0250 H   0  0  0  0  0  0  0  0  0  0  0  0
  126.7758  130.2181   61.6191 H   0  0  0  0  0  0  0  0  0  0  0  0
  125.0252  131.9042   62.7548 H   0  0  0  0  0  0  0  0  0  0  0  0
  133.4230  121.3488   60.9329 H   0  0  0  0  0  0  0  0  0  0  0  0
  134.0466  119.0599   60.1885 H   0  0  0  0  0  0  0  0  0  0  0  0
  132.3494  117.2380   60.2222 H   0  0  0  0  0  0  0  0  0  0  0  0
  130.0274  117.7001   60.9878 H   0  0  0  0  0  0  0  0  0  0  0  0
  129.3971  119.9874   61.7266 H   0  0  0  0  0  0  0  0  0  0  0  0
  132.7078  122.5000   63.1258 H   0  0  0  0  0  0  0  0  0  0  0  0
  1  2  1  0
  2  3  2  0
  3  4  1  0
  4  5  2  0
  4  6  1  0
  6  7  1  0
  7  8  1  0
  8  9  2  0
  9 10  1  0
 10 11  1  0
  3 12  1  0
 12 13  1  0
 13 14  2  0
 14 15  1  0
 15 16  1  0
 16 17  2  0
 17 18  1  0
 18 19  2  0
 19 20  1  0
 20 21  2  0
 15 22  2  0
 22 23  1  0
 23 24  1  0
 24 25  1  0
 24 26  1  0
 24 27  1  0
 23 28  2  0
 28  2  1  0
 11  7  2  0
 28 13  1  0
 21 16  1  0
  1 29  1  0
  1 30  1  0
  6 31  1  0
  8 32  1  0
  9 33  1  0
 17 34  1  0
 18 35  1  0
 19 36  1  0
 20 37  1  0
 21 38  1  0
 22 39  1  0
M  END
>  <Binding energies>  (1) 
[-7.11]

>  <Ligand effiencies>  (1) 
[-0.22935483870967743]

>  <Interactions>  (1) 
["V-B:TYR:539:CE1:9847, V-A:LEU:475:CD2:4256, V-B:TYR:539:CD1:9845, V-A:GLY:454:CA:4046, H-B:GLU:543:OE1:9881, H-B:ARG:545:NH2:9900, V-A:ILE:369:CG2:3234, H-B:GLU:543:OE2:9882, V-B:GLU:543:CD:9880, H-A:GLU:543:OE2:4908, H-B:GLY:454:N:9021, V-A:TYR:484:CZ:4344, V-A:GLU:543:CD:4906, V-B:ARG:545:CZ:9898, V-A:ARG:545:CZ:4924, V-A:SER:385:CA:3404, H-A:GLU:543:OE1:4907, V-B:ALA:541:CB:9864, H-B:ARG:545:NE:9896, V-A:SER:385:CB:3406, V-A:LEU:373:CD1:3277, V-A:PRO:482:CB:4323, V-A:PRO:482:CG:4324, H-B:TYR:484:OH:9319"]

$$$$
4cj_Grossjean_2025
     RDKit          3D

 39 42  0  0  0  0  0  0  0  0999 V2000
  130.1190  126.9560   63.6240 N   0  0  0  0  0  0  0  0  0  0  0  0
  129.6380  125.9780   62.7920 C   0  0  0  0  0  0  0  0  0  0  0  0
  128.4690  126.1240   62.0280 C   0  0  0  0  0  0  0  0  0  0  0  0
  127.5680  127.2770   61.9490 C   0  0  0  0  0  0  0  0  0  0  0  0
  127.0990  127.6380   60.8660 O   0  0  0  0  0  0  0  0  0  0  0  0
  127.3110  127.8980   63.1270 N   0  0  0  0  0  0  0  0  0  0  0  0
  126.4970  129.0040   63.3260 C   0  0  0  0  0  0  0  0  0  0  0  0
  125.7870  129.6550   62.4290 N   0  0  0  0  0  0  0  0  0  0  0  0
  125.1260  130.6600   62.9700 C   0  0  0  0  0  0  0  0  0  0  0  0
  125.2940  130.8400   64.3400 C   0  0  0  0  0  0  0  0  0  0  0  0
  126.3780  129.6210   64.9430 S   0  0  0  0  0  0  0  0  0  0  0  0
  128.1520  124.6830   61.0650 S   0  0  0  0  0  0  0  0  0  0  0  0
  129.5820  123.8970   61.6920 C   0  0  0  0  0  0  0  0  0  0  0  0
  129.9260  122.6710   61.3060 N   0  0  0  0  0  0  0  0  0  0  0  0
  131.0570  122.1440   61.8400 C   0  0  0  0  0  0  0  0  0  0  0  0
  131.4230  120.7640   61.3740 C   0  0  0  0  0  0  0  0  0  0  0  0
  132.7200  120.4810   60.9170 C   0  0  0  0  0  0  0  0  0  0  0  0
  133.0650  119.2050   60.4770 C   0  0  0  0  0  0  0  0  0  0  0  0
  132.1110  118.1910   60.4860 C   0  0  0  0  0  0  0  0  0  0  0  0
  130.8190  118.4460   60.9320 C   0  0  0  0  0  0  0  0  0  0  0  0
  130.4800  119.7220   61.3710 C   0  0  0  0  0  0  0  0  0  0  0  0
  131.8250  122.8420   62.7790 C   0  0  0  0  0  0  0  0  0  0  0  0
  131.4710  124.1350   63.1950 C   0  0  0  0  0  0  0  0  0  0  0  0
  132.3590  124.8450   64.2240 C   0  0  0  0  0  0  0  0  0  0  0  0
  131.6750  125.3230   65.2650 F   0  0  0  0  0  0  0  0  0  0  0  0
  133.2660  123.9910   64.6990 F   0  0  0  0  0  0  0  0  0  0  0  0
  132.9820  125.8740   63.6490 F   0  0  0  0  0  0  0  0  0  0  0  0
  130.2960  124.7050   62.6250 C   0  0  0  0  0  0  0  0  0  0  0  0
  130.8600  126.7770   64.2880 H   0  0  0  0  0  0  0  0  0  0  0  0
  129.7500  127.8970   63.5970 H   0  0  0  0  0  0  0  0  0  0  0  0
  127.7610  127.5300   63.9520 H   0  0  0  0  0  0  0  0  0  0  0  0
  124.4786  131.3186   62.3724 H   0  0  0  0  0  0  0  0  0  0  0  0
  124.8179  131.6265   64.9439 H   0  0  0  0  0  0  0  0  0  0  0  0
  133.4761  121.2798   60.9062 H   0  0  0  0  0  0  0  0  0  0  0  0
  134.0864  118.9996   60.1241 H   0  0  0  0  0  0  0  0  0  0  0  0
  132.3808  117.1828   60.1384 H   0  0  0  0  0  0  0  0  0  0  0  0
  130.0680  117.6423   60.9377 H   0  0  0  0  0  0  0  0  0  0  0  0
  129.4561  119.9186   61.7218 H   0  0  0  0  0  0  0  0  0  0  0  0
  132.7241  122.3678   63.1995 H   0  0  0  0  0  0  0  0  0  0  0  0
  1  2  1  0
  2  3  2  0
  3  4  1  0
  4  5  2  0
  4  6  1  0
  6  7  1  0
  7  8  2  0
  8  9  1  0
  9 10  2  0
 10 11  1  0
  3 12  1  0
 12 13  1  0
 13 14  2  0
 14 15  1  0
 15 16  1  0
 16 17  2  0
 17 18  1  0
 18 19  2  0
 19 20  1  0
 20 21  2  0
 15 22  2  0
 22 23  1  0
 23 24  1  0
 24 25  1  0
 24 26  1  0
 24 27  1  0
 23 28  2  0
 28  2  1  0
 11  7  1  0
 28 13  1  0
 21 16  1  0
  1 29  1  0
  1 30  1  0
  6 31  1  0
  9 32  1  0
 10 33  1  0
 17 34  1  0
 18 35  1  0
 19 36  1  0
 20 37  1  0
 21 38  1  0
 22 39  1  0
M  END
>  <Binding energies>  (1) 
[-7.01]

>  <Ligand effiencies>  (1) 
[-0.22612903225806452]

>  <Interactions>  (1) 
["V-B:GLY:454:CA:9020, V-B:TYR:539:CE1:9847, V-A:GLY:453:C:4039, V-A:LEU:475:CD2:4256, V-B:TYR:539:CD1:9845, V-A:GLY:454:CA:4046, H-B:GLU:543:OE1:9881, H-B:ARG:545:NH2:9900, V-A:ILE:369:CG2:3234, H-B:GLU:543:OE2:9882, V-B:GLU:543:CD:9880, H-A:GLU:543:OE2:4908, V-A:TYR:484:CZ:4344, V-A:GLU:543:CD:4906, V-B:ARG:545:CZ:9898, V-A:ARG:545:CZ:4924, V-A:SER:385:CA:3404, H-A:GLU:543:OE1:4907, V-B:ALA:541:CB:9864, V-A:SER:385:CB:3406, V-A:LEU:373:CD1:3277, V-A:PRO:482:CB:4323, V-A:PRO:482:CG:4324"]

$$$$
4ck_Grossjean_2025
     RDKit          3D

 57 59  0  0  0  0  0  0  0  0999 V2000
  126.0080  124.3700   61.6680 C   0  0  0  0  0  0  0  0  0  0  0  0
  126.7160  123.1410   61.6990 O   0  0  0  0  0  0  0  0  0  0  0  0
  128.1080  123.2840   61.4520 C   0  0  0  0  0  0  0  0  0  0  0  0
  128.6820  121.9290   61.0210 C   0  0  0  0  0  0  0  0  0  0  0  0
  130.0670  122.0790   60.7420 O   0  0  0  0  0  0  0  0  0  0  0  0
  130.5860  123.3490   61.1150 C   0  0  0  0  0  0  0  0  0  0  0  0
  131.4360  123.1920   62.3820 C   0  0  0  0  0  0  0  0  0  0  0  0
  130.7780  123.8460   63.4580 O   0  0  0  0  0  0  0  0  0  0  0  0
  131.4340  125.0280   63.9010 C   0  0  0  0  0  0  0  0  0  0  0  0
  131.6780  125.9600   62.7040 C   0  0  0  0  0  0  0  0  0  0  0  0
  130.7770  127.1130   62.7120 N   0  0  0  0  0  0  0  0  0  0  0  0
  130.2910  127.7440   61.6230 C   0  0  0  0  0  0  0  0  0  0  0  0
  130.5470  127.3790   60.4730 O   0  0  0  0  0  0  0  0  0  0  0  0
  129.4240  128.8930   61.8830 C   0  0  0  0  0  0  0  0  0  0  0  0
  129.4970  130.3100   60.8390 S   0  0  0  0  0  0  0  0  0  0  0  0
  128.2180  131.0910   61.7380 C   0  0  0  0  0  0  0  0  0  0  0  0
  127.7760  132.3020   61.4080 N   0  0  0  0  0  0  0  0  0  0  0  0
  126.7790  132.8290   62.1660 C   0  0  0  0  0  0  0  0  0  0  0  0
  126.2910  134.1890   61.7560 C   0  0  0  0  0  0  0  0  0  0  0  0
  127.1580  135.2940   61.7520 C   0  0  0  0  0  0  0  0  0  0  0  0
  126.7100  136.5580   61.3750 C   0  0  0  0  0  0  0  0  0  0  0  0
  125.3840  136.7350   60.9950 C   0  0  0  0  0  0  0  0  0  0  0  0
  124.5050  135.6570   60.9850 C   0  0  0  0  0  0  0  0  0  0  0  0
  124.9570  134.3950   61.3620 C   0  0  0  0  0  0  0  0  0  0  0  0
  126.2260  132.1340   63.2460 C   0  0  0  0  0  0  0  0  0  0  0  0
  126.6850  130.8570   63.6040 C   0  0  0  0  0  0  0  0  0  0  0  0
  126.0370  130.1530   64.8020 C   0  0  0  0  0  0  0  0  0  0  0  0
  125.7920  128.8610   64.5800 F   0  0  0  0  0  0  0  0  0  0  0  0
  126.8420  130.2310   65.8610 F   0  0  0  0  0  0  0  0  0  0  0  0
  124.8730  130.7360   65.0900 F   0  0  0  0  0  0  0  0  0  0  0  0
  127.7320  130.2960   62.8170 C   0  0  0  0  0  0  0  0  0  0  0  0
  128.4370  129.0380   62.8700 C   0  0  0  0  0  0  0  0  0  0  0  0
  128.1660  128.0730   63.8070 N   0  0  0  0  0  0  0  0  0  0  0  0
  125.8137  124.7073   62.6968 H   0  0  0  0  0  0  0  0  0  0  0  0
  126.6089  125.1262   61.1416 H   0  0  0  0  0  0  0  0  0  0  0  0
  125.0524  124.2295   61.1416 H   0  0  0  0  0  0  0  0  0  0  0  0
  128.2664  124.0225   60.6523 H   0  0  0  0  0  0  0  0  0  0  0  0
  128.6137  123.6271   62.3666 H   0  0  0  0  0  0  0  0  0  0  0  0
  128.5464  121.1970   61.8308 H   0  0  0  0  0  0  0  0  0  0  0  0
  128.1587  121.5740   60.1209 H   0  0  0  0  0  0  0  0  0  0  0  0
  131.2094  123.7458   60.3002 H   0  0  0  0  0  0  0  0  0  0  0  0
  129.7569  124.0454   61.3092 H   0  0  0  0  0  0  0  0  0  0  0  0
  131.5565  122.1241   62.6165 H   0  0  0  0  0  0  0  0  0  0  0  0
  132.4289  123.6384   62.2240 H   0  0  0  0  0  0  0  0  0  0  0  0
  130.8035  125.5410   64.6421 H   0  0  0  0  0  0  0  0  0  0  0  0
  132.3977  124.7616   64.3596 H   0  0  0  0  0  0  0  0  0  0  0  0
  132.7164  126.3210   62.7413 H   0  0  0  0  0  0  0  0  0  0  0  0
  131.4875  125.3874   61.7843 H   0  0  0  0  0  0  0  0  0  0  0  0
  130.4520  127.4150   63.6190 H   0  0  0  0  0  0  0  0  0  0  0  0
  128.2078  135.1591   62.0514 H   0  0  0  0  0  0  0  0  0  0  0  0
  127.4024  137.4128   61.3779 H   0  0  0  0  0  0  0  0  0  0  0  0
  125.0282  137.7334   60.7006 H   0  0  0  0  0  0  0  0  0  0  0  0
  123.4577  135.8007   60.6807 H   0  0  0  0  0  0  0  0  0  0  0  0
  124.2588  133.5450   61.3514 H   0  0  0  0  0  0  0  0  0  0  0  0
  125.4149  132.5975   63.8267 H   0  0  0  0  0  0  0  0  0  0  0  0
  127.8780  128.3050   64.7470 H   0  0  0  0  0  0  0  0  0  0  0  0
  128.2420  127.0890   63.5850 H   0  0  0  0  0  0  0  0  0  0  0  0
  1  2  1  0
  2  3  1  0
  3  4  1  0
  4  5  1  0
  5  6  1  0
  6  7  1  0
  7  8  1  0
  8  9  1  0
  9 10  1  0
 10 11  1  0
 11 12  1  0
 12 13  2  0
 12 14  1  0
 14 15  1  0
 15 16  1  0
 16 17  2  0
 17 18  1  0
 18 19  1  0
 19 20  2  0
 20 21  1  0
 21 22  2  0
 22 23  1  0
 23 24  2  0
 18 25  2  0
 25 26  1  0
 26 27  1  0
 27 28  1  0
 27 29  1  0
 27 30  1  0
 26 31  2  0
 31 32  1  0
 32 33  1  0
 32 14  2  0
 31 16  1  0
 24 19  1  0
  1 34  1  0
  1 35  1  0
  1 36  1  0
  3 37  1  0
  3 38  1  0
  4 39  1  0
  4 40  1  0
  6 41  1  0
  6 42  1  0
  7 43  1  0
  7 44  1  0
  9 45  1  0
  9 46  1  0
 10 47  1  0
 10 48  1  0
 11 49  1  0
 20 50  1  0
 21 51  1  0
 22 52  1  0
 23 53  1  0
 24 54  1  0
 25 55  1  0
 33 56  1  0
 33 57  1  0
M  END
>  <Binding energies>  (1) 
[-6.02]

>  <Ligand effiencies>  (1) 
[-0.16722222222222222]

>  <Interactions>  (1) 
["V-B:LEU:475:CD2:9230, V-B:GLY:454:CA:9020, V-B:ILE:369:CG2:8208, V-A:TYR:539:CE1:4873, V-A:TYR:539:CD1:4871, V-A:ALA:541:CB:4890, V-B:PRO:540:C:9853, V-B:TYR:539:C:9839, H-B:ALA:541:N:9863, V-B:PRO:540:CA:9855, H-B:GLU:543:OE1:9881, V-B:HIS:456:CE1:9040, H-B:GLU:543:OE2:9882, V-B:GLU:543:CD:9880, H-A:GLU:543:OE2:4908, V-A:GLU:543:CD:4906, V-B:ARG:545:CZ:9898, V-A:ARG:545:CZ:4924, V-B:TYR:484:CE2:9317, H-A:GLU:543:OE1:4907, V-B:ALA:541:CB:9864, V-B:TYR:484:CZ:9318, V-B:ALA:541:CA:9862, V-B:PRO:482:CG:9298, V-B:PRO:482:CB:9297, V-B:SER:385:CA:8378, V-B:LEU:373:CD1:8251"]

$$$$
4dd_Grossjean_2025
     RDKit          3D

 43 46  0  0  0  0  0  0  0  0999 V2000
  132.3660  124.7150   64.2310 C   0  0  0  0  0  0  0  0  0  0  0  0
  131.5080  124.0240   63.1810 C   0  0  0  0  0  0  0  0  0  0  0  0
  131.8650  122.7290   62.7860 C   0  0  0  0  0  0  0  0  0  0  0  0
  131.1170  122.0390   61.8240 C   0  0  0  0  0  0  0  0  0  0  0  0
  131.4780  120.6530   61.3770 C   0  0  0  0  0  0  0  0  0  0  0  0
  132.7830  120.3510   60.9550 C   0  0  0  0  0  0  0  0  0  0  0  0
  133.1260  119.0660   60.5420 C   0  0  0  0  0  0  0  0  0  0  0  0
  132.1650  118.0620   60.5430 C   0  0  0  0  0  0  0  0  0  0  0  0
  130.8650  118.3320   60.9580 C   0  0  0  0  0  0  0  0  0  0  0  0
  130.5270  119.6180   61.3720 C   0  0  0  0  0  0  0  0  0  0  0  0
  130.0270  122.5940   61.2270 N   0  0  0  0  0  0  0  0  0  0  0  0
  129.6830  123.8240   61.6070 C   0  0  0  0  0  0  0  0  0  0  0  0
  128.2940  124.6490   60.9350 S   0  0  0  0  0  0  0  0  0  0  0  0
  128.5930  126.0690   61.9400 C   0  0  0  0  0  0  0  0  0  0  0  0
  127.7000  127.2280   61.8690 C   0  0  0  0  0  0  0  0  0  0  0  0
  127.2340  127.5960   60.7900 O   0  0  0  0  0  0  0  0  0  0  0  0
  127.4370  127.8310   63.0540 N   0  0  0  0  0  0  0  0  0  0  0  0
  126.6740  128.9810   63.3240 C   0  0  0  0  0  0  0  0  0  0  0  0
  127.0950  129.7530   64.4110 C   0  0  0  0  0  0  0  0  0  0  0  0
  126.4140  130.9190   64.7510 C   0  0  0  0  0  0  0  0  0  0  0  0
  125.3140  131.3190   63.9980 C   0  0  0  0  0  0  0  0  0  0  0  0
  124.8910  130.5670   62.9050 C   0  0  0  0  0  0  0  0  0  0  0  0
  125.5700  129.4010   62.5630 C   0  0  0  0  0  0  0  0  0  0  0  0
  129.7270  125.8880   62.7460 C   0  0  0  0  0  0  0  0  0  0  0  0
  130.1980  126.8320   63.6250 N   0  0  0  0  0  0  0  0  0  0  0  0
  130.3670  124.6100   62.5770 C   0  0  0  0  0  0  0  0  0  0  0  0
  132.0154  124.4327   65.2347 H   0  0  0  0  0  0  0  0  0  0  0  0
  133.4147  124.4064   64.1086 H   0  0  0  0  0  0  0  0  0  0  0  0
  132.2880  125.8054   64.1086 H   0  0  0  0  0  0  0  0  0  0  0  0
  132.7448  122.2472   63.2374 H   0  0  0  0  0  0  0  0  0  0  0  0
  133.5469  121.1425   60.9506 H   0  0  0  0  0  0  0  0  0  0  0  0
  134.1535  118.8465   60.2163 H   0  0  0  0  0  0  0  0  0  0  0  0
  132.4340  117.0475   60.2136 H   0  0  0  0  0  0  0  0  0  0  0  0
  130.1080  117.5339   60.9591 H   0  0  0  0  0  0  0  0  0  0  0  0
  129.4983  119.8273   61.7007 H   0  0  0  0  0  0  0  0  0  0  0  0
  127.8300  127.3910   63.8730 H   0  0  0  0  0  0  0  0  0  0  0  0
  127.9685  129.4377   65.0005 H   0  0  0  0  0  0  0  0  0  0  0  0
  126.7438  131.5210   65.6105 H   0  0  0  0  0  0  0  0  0  0  0  0
  124.7736  132.2380   64.2689 H   0  0  0  0  0  0  0  0  0  0  0  0
  124.0228  130.8934   62.3136 H   0  0  0  0  0  0  0  0  0  0  0  0
  125.2421  128.8080   61.6965 H   0  0  0  0  0  0  0  0  0  0  0  0
  129.8520  127.7810   63.6240 H   0  0  0  0  0  0  0  0  0  0  0  0
  130.9070  126.6050   64.3070 H   0  0  0  0  0  0  0  0  0  0  0  0
  1  2  1  0
  2  3  2  0
  3  4  1  0
  4  5  1  0
  5  6  2  0
  6  7  1  0
  7  8  2  0
  8  9  1  0
  9 10  2  0
  4 11  2  0
 11 12  1  0
 12 13  1  0
 13 14  1  0
 14 15  1  0
 15 16  2  0
 15 17  1  0
 17 18  1  0
 18 19  2  0
 19 20  1  0
 20 21  2  0
 21 22  1  0
 22 23  2  0
 14 24  2  0
 24 25  1  0
 24 26  1  0
 26  2  1  0
 10  5  1  0
 26 12  2  0
 23 18  1  0
  1 27  1  0
  1 28  1  0
  1 29  1  0
  3 30  1  0
  6 31  1  0
  7 32  1  0
  8 33  1  0
  9 34  1  0
 10 35  1  0
 17 36  1  0
 19 37  1  0
 20 38  1  0
 21 39  1  0
 22 40  1  0
 23 41  1  0
 25 42  1  0
 25 43  1  0
M  END
>  <Binding energies>  (1) 
[-7.87]

>  <Ligand effiencies>  (1) 
[-0.2713793103448276]

>  <Interactions>  (1) 
["V-B:GLY:454:CA:9020, V-B:TYR:539:CE1:9847, V-A:LEU:475:CD2:4256, V-B:TYR:539:CD1:9845, H-B:GLU:543:OE1:9881, V-A:ILE:369:CG2:3234, H-B:GLU:543:OE2:9882, V-B:GLU:543:CD:9880, H-A:GLU:543:OE2:4908, V-A:GLU:543:CD:4906, V-B:ARG:545:CZ:9898, V-A:SER:385:CA:3404, H-A:GLU:543:OE1:4907, V-B:ALA:541:CB:9864, V-A:SER:385:CB:3406, V-A:LEU:373:CD1:3277, V-A:PRO:482:CB:4323, V-A:PRO:482:CG:4324"]

$$$$
4dg_Grossjean_2025
     RDKit          3D

 46 49  0  0  0  0  0  0  0  0999 V2000
  133.0250  124.6290   63.8870 C   0  0  0  0  0  0  0  0  0  0  0  0
  131.9890  123.9310   63.0190 C   0  0  0  0  0  0  0  0  0  0  0  0
  132.2520  122.6210   62.6010 C   0  0  0  0  0  0  0  0  0  0  0  0
  131.3390  121.9250   61.8000 C   0  0  0  0  0  0  0  0  0  0  0  0
  131.5920  120.5170   61.3380 C   0  0  0  0  0  0  0  0  0  0  0  0
  132.8550  120.1330   60.8590 C   0  0  0  0  0  0  0  0  0  0  0  0
  133.0940  118.8310   60.4250 C   0  0  0  0  0  0  0  0  0  0  0  0
  132.0710  117.8910   60.4650 C   0  0  0  0  0  0  0  0  0  0  0  0
  130.8080  118.2450   60.9310 C   0  0  0  0  0  0  0  0  0  0  0  0
  130.5740  119.5480   61.3620 C   0  0  0  0  0  0  0  0  0  0  0  0
  130.1580  122.4770   61.4110 N   0  0  0  0  0  0  0  0  0  0  0  0
  129.9060  123.7240   61.8070 C   0  0  0  0  0  0  0  0  0  0  0  0
  128.4300  124.5540   61.3720 S   0  0  0  0  0  0  0  0  0  0  0  0
  128.9280  125.9950   62.2570 C   0  0  0  0  0  0  0  0  0  0  0  0
  128.0800  127.1860   62.2600 C   0  0  0  0  0  0  0  0  0  0  0  0
  127.0370  127.2320   61.6050 O   0  0  0  0  0  0  0  0  0  0  0  0
  128.5310  128.2290   62.9860 N   0  0  0  0  0  0  0  0  0  0  0  0
  127.8400  129.5080   63.1510 C   0  0  0  0  0  0  0  0  0  0  0  0
  126.8160  129.5020   64.2800 C   0  0  0  0  0  0  0  0  0  0  0  0
  125.4590  129.6620   63.9870 C   0  0  0  0  0  0  0  0  0  0  0  0
  124.5180  129.6260   65.0120 C   0  0  0  0  0  0  0  0  0  0  0  0
  124.9350  129.4180   66.3250 C   0  0  0  0  0  0  0  0  0  0  0  0
  126.2850  129.2400   66.6220 C   0  0  0  0  0  0  0  0  0  0  0  0
  127.2260  129.2750   65.5970 C   0  0  0  0  0  0  0  0  0  0  0  0
  130.1920  125.8230   62.8420 C   0  0  0  0  0  0  0  0  0  0  0  0
  130.8300  126.7890   63.5780 N   0  0  0  0  0  0  0  0  0  0  0  0
  130.7680  124.5260   62.6090 C   0  0  0  0  0  0  0  0  0  0  0  0
  132.7839  124.4666   64.9479 H   0  0  0  0  0  0  0  0  0  0  0  0
  134.0220  124.2177   63.6704 H   0  0  0  0  0  0  0  0  0  0  0  0
  133.0183  125.7074   63.6704 H   0  0  0  0  0  0  0  0  0  0  0  0
  133.1889  122.1320   62.9062 H   0  0  0  0  0  0  0  0  0  0  0  0
  133.6688  120.8723   60.8260 H   0  0  0  0  0  0  0  0  0  0  0  0
  134.0892  118.5478   60.0518 H   0  0  0  0  0  0  0  0  0  0  0  0
  132.2605  116.8617   60.1266 H   0  0  0  0  0  0  0  0  0  0  0  0
  129.9995  117.4996   60.9586 H   0  0  0  0  0  0  0  0  0  0  0  0
  129.5741  119.8243   61.7280 H   0  0  0  0  0  0  0  0  0  0  0  0
  129.3510  128.0920   63.5580 H   0  0  0  0  0  0  0  0  0  0  0  0
  128.5896  130.2842   63.3644 H   0  0  0  0  0  0  0  0  0  0  0  0
  127.2925  129.7039   62.2173 H   0  0  0  0  0  0  0  0  0  0  0  0
  125.1348  129.8163   62.9472 H   0  0  0  0  0  0  0  0  0  0  0  0
  123.4499  129.7612   64.7864 H   0  0  0  0  0  0  0  0  0  0  0  0
  124.1914  129.3940   67.1352 H   0  0  0  0  0  0  0  0  0  0  0  0
  126.6052  129.0727   67.6610 H   0  0  0  0  0  0  0  0  0  0  0  0
  128.2919  129.1241   65.8232 H   0  0  0  0  0  0  0  0  0  0  0  0
  130.8920  127.7460   63.2640 H   0  0  0  0  0  0  0  0  0  0  0  0
  131.2570  126.5720   64.4680 H   0  0  0  0  0  0  0  0  0  0  0  0
  1  2  1  0
  2  3  2  0
  3  4  1  0
  4  5  1  0
  5  6  2  0
  6  7  1  0
  7  8  2  0
  8  9  1  0
  9 10  2  0
  4 11  2  0
 11 12  1  0
 12 13  1  0
 13 14  1  0
 14 15  1  0
 15 16  2  0
 15 17  1  0
 17 18  1  0
 18 19  1  0
 19 20  2  0
 20 21  1  0
 21 22  2  0
 22 23  1  0
 23 24  2  0
 14 25  2  0
 25 26  1  0
 25 27  1  0
 27  2  1  0
 10  5  1  0
 27 12  2  0
 24 19  1  0
  1 28  1  0
  1 29  1  0
  1 30  1  0
  3 31  1  0
  6 32  1  0
  7 33  1  0
  8 34  1  0
  9 35  1  0
 10 36  1  0
 17 37  1  0
 18 38  1  0
 18 39  1  0
 20 40  1  0
 21 41  1  0
 22 42  1  0
 23 43  1  0
 24 44  1  0
 26 45  1  0
 26 46  1  0
M  END
>  <Binding energies>  (1) 
[-7.85]

>  <Ligand effiencies>  (1) 
[-0.26166666666666666]

>  <Interactions>  (1) 
["V-B:TYR:539:CE1:9847, V-A:LEU:475:CD2:4256, V-B:TYR:539:CD1:9845, V-A:GLY:454:CA:4046, H-B:ARG:545:NH2:9900, V-A:ILE:369:CG2:3234, V-B:GLY:453:CA:9015, V-B:HIS:456:CE1:9040, H-B:GLU:543:OE2:9882, V-B:GLU:543:CD:9880, H-A:GLU:543:OE2:4908, V-A:GLU:543:CD:4906, V-B:ARG:545:CZ:9898, V-B:ARG:545:CG:9894, V-A:ARG:545:CZ:4924, V-A:SER:385:CA:3404, H-A:GLU:543:OE1:4907, V-B:ALA:541:CB:9864, V-B:ARG:545:CD:9895, V-A:SER:385:CB:3406, V-A:LEU:373:CD1:3277, V-A:PRO:482:CB:4323, V-A:PRO:482:CG:4324"]

$$$$
4dj_Grossjean_2025
     RDKit          3D

 39 42  0  0  0  0  0  0  0  0999 V2000
  132.4810  124.7510   64.1260 C   0  0  0  0  0  0  0  0  0  0  0  0
  131.5700  124.0440   63.1330 C   0  0  0  0  0  0  0  0  0  0  0  0
  131.9100  122.7460   62.7330 C   0  0  0  0  0  0  0  0  0  0  0  0
  131.1150  122.0420   61.8210 C   0  0  0  0  0  0  0  0  0  0  0  0
  131.4520  120.6470   61.3780 C   0  0  0  0  0  0  0  0  0  0  0  0
  132.7460  120.3250   60.9360 C   0  0  0  0  0  0  0  0  0  0  0  0
  133.0650  119.0340   60.5240 C   0  0  0  0  0  0  0  0  0  0  0  0
  132.0890  118.0420   60.5440 C   0  0  0  0  0  0  0  0  0  0  0  0
  130.7990  118.3340   60.9730 C   0  0  0  0  0  0  0  0  0  0  0  0
  130.4850  119.6260   61.3850 C   0  0  0  0  0  0  0  0  0  0  0  0
  129.9760  122.5750   61.3000 N   0  0  0  0  0  0  0  0  0  0  0  0
  129.6510  123.8110   61.6790 C   0  0  0  0  0  0  0  0  0  0  0  0
  128.2190  124.6190   61.0810 S   0  0  0  0  0  0  0  0  0  0  0  0
  128.5760  126.0590   62.0380 C   0  0  0  0  0  0  0  0  0  0  0  0
  127.6900  127.2220   61.9810 C   0  0  0  0  0  0  0  0  0  0  0  0
  127.2320  127.6140   60.9040 O   0  0  0  0  0  0  0  0  0  0  0  0
  127.4310  127.8180   63.1710 N   0  0  0  0  0  0  0  0  0  0  0  0
  126.6310  128.9300   63.3920 C   0  0  0  0  0  0  0  0  0  0  0  0
  125.8000  129.5070   62.5510 N   0  0  0  0  0  0  0  0  0  0  0  0
  125.2000  130.5460   63.0980 C   0  0  0  0  0  0  0  0  0  0  0  0
  125.5420  130.8310   64.4160 C   0  0  0  0  0  0  0  0  0  0  0  0
  126.7160  129.6680   64.9590 S   0  0  0  0  0  0  0  0  0  0  0  0
  129.7590  125.8960   62.7750 C   0  0  0  0  0  0  0  0  0  0  0  0
  130.2790  126.8570   63.6050 N   0  0  0  0  0  0  0  0  0  0  0  0
  130.3910  124.6180   62.5900 C   0  0  0  0  0  0  0  0  0  0  0  0
  132.1659  124.5064   65.1511 H   0  0  0  0  0  0  0  0  0  0  0  0
  133.5185  124.4193   63.9723 H   0  0  0  0  0  0  0  0  0  0  0  0
  132.4172  125.8383   63.9723 H   0  0  0  0  0  0  0  0  0  0  0  0
  132.8150  122.2726   63.1414 H   0  0  0  0  0  0  0  0  0  0  0  0
  133.5202  121.1061   60.9151 H   0  0  0  0  0  0  0  0  0  0  0  0
  134.0844  118.7989   60.1840 H   0  0  0  0  0  0  0  0  0  0  0  0
  132.3395  117.0215   60.2187 H   0  0  0  0  0  0  0  0  0  0  0  0
  130.0301  117.5475   60.9867 H   0  0  0  0  0  0  0  0  0  0  0  0
  129.4626  119.8523   61.7219 H   0  0  0  0  0  0  0  0  0  0  0  0
  127.8650  127.4200   63.9920 H   0  0  0  0  0  0  0  0  0  0  0  0
  124.4698  131.1535   62.5432 H   0  0  0  0  0  0  0  0  0  0  0  0
  125.1359  131.6578   65.0173 H   0  0  0  0  0  0  0  0  0  0  0  0
  130.8850  126.6250   64.3770 H   0  0  0  0  0  0  0  0  0  0  0  0
  130.0710  127.8370   63.4670 H   0  0  0  0  0  0  0  0  0  0  0  0
  1  2  1  0
  2  3  2  0
  3  4  1  0
  4  5  1  0
  5  6  2  0
  6  7  1  0
  7  8  2  0
  8  9  1  0
  9 10  2  0
  4 11  2  0
 11 12  1  0
 12 13  1  0
 13 14  1  0
 14 15  1  0
 15 16  2  0
 15 17  1  0
 17 18  1  0
 18 19  2  0
 19 20  1  0
 20 21  2  0
 21 22  1  0
 14 23  2  0
 23 24  1  0
 23 25  1  0
 25  2  1  0
 10  5  1  0
 25 12  2  0
 22 18  1  0
  1 26  1  0
  1 27  1  0
  1 28  1  0
  3 29  1  0
  6 30  1  0
  7 31  1  0
  8 32  1  0
  9 33  1  0
 10 34  1  0
 17 35  1  0
 20 36  1  0
 21 37  1  0
 24 38  1  0
 24 39  1  0
M  END
>  <Binding energies>  (1) 
[-7.37]

>  <Ligand effiencies>  (1) 
[-0.26321428571428573]

>  <Interactions>  (1) 
["V-B:TYR:539:CE1:9847, V-A:LEU:475:CD2:4256, V-B:TYR:539:CD1:9845, H-B:GLU:543:OE1:9881, H-B:ARG:545:NH2:9900, V-A:ILE:369:CG2:3234, H-B:GLU:543:OE2:9882, V-B:GLU:543:CD:9880, H-A:GLU:543:OE2:4908, V-A:GLU:543:CD:4906, V-B:ARG:545:CZ:9898, V-A:SER:385:CA:3404, H-A:GLU:543:OE1:4907, V-B:ALA:541:CB:9864, V-A:SER:385:CB:3406, V-A:LEU:373:CD1:3277, V-A:PRO:482:CB:4323, V-A:PRO:482:CG:4324"]

$$$$
4ea_Grossjean_2025
     RDKit          3D

 52 55  0  0  0  0  0  0  0  0999 V2000
  124.5500  136.1690   61.0540 C   0  0  0  0  0  0  0  0  0  0  0  0
  125.3670  134.9130   61.3690 C   0  0  0  0  0  0  0  0  0  0  0  0
  124.5430  133.7640   61.2250 O   0  0  0  0  0  0  0  0  0  0  0  0
  124.2140  132.9970   62.2960 C   0  0  0  0  0  0  0  0  0  0  0  0
  123.3990  133.3450   63.1560 O   0  0  0  0  0  0  0  0  0  0  0  0
  124.9420  131.6840   62.3310 C   0  0  0  0  0  0  0  0  0  0  0  0
  125.4270  131.1400   61.1350 C   0  0  0  0  0  0  0  0  0  0  0  0
  126.1050  129.9250   61.1330 C   0  0  0  0  0  0  0  0  0  0  0  0
  126.3130  129.2290   62.3240 C   0  0  0  0  0  0  0  0  0  0  0  0
  127.0110  128.0120   62.2010 N   0  0  0  0  0  0  0  0  0  0  0  0
  127.1520  127.1830   61.1370 C   0  0  0  0  0  0  0  0  0  0  0  0
  126.6520  127.3850   60.0300 O   0  0  0  0  0  0  0  0  0  0  0  0
  127.9620  125.9870   61.3810 C   0  0  0  0  0  0  0  0  0  0  0  0
  127.7400  124.5410   60.3930 S   0  0  0  0  0  0  0  0  0  0  0  0
  128.9830  123.6860   61.2760 C   0  0  0  0  0  0  0  0  0  0  0  0
  129.3190  122.4290   60.9820 N   0  0  0  0  0  0  0  0  0  0  0  0
  130.2990  121.8810   61.7430 C   0  0  0  0  0  0  0  0  0  0  0  0
  130.6660  120.4510   61.3920 C   0  0  0  0  0  0  0  0  0  0  0  0
  130.9430  122.5530   62.7790 C   0  0  0  0  0  0  0  0  0  0  0  0
  130.5880  123.8720   63.0830 C   0  0  0  0  0  0  0  0  0  0  0  0
  131.2820  124.5730   64.1870 C   0  0  0  0  0  0  0  0  0  0  0  0
  130.5680  124.9840   65.3180 C   0  0  0  0  0  0  0  0  0  0  0  0
  131.2200  125.6410   66.3570 C   0  0  0  0  0  0  0  0  0  0  0  0
  132.5870  125.8910   66.2640 C   0  0  0  0  0  0  0  0  0  0  0  0
  133.3070  125.4900   65.1410 C   0  0  0  0  0  0  0  0  0  0  0  0
  132.6530  124.8330   64.1030 C   0  0  0  0  0  0  0  0  0  0  0  0
  129.5640  124.4830   62.3090 C   0  0  0  0  0  0  0  0  0  0  0  0
  128.9630  125.7910   62.3460 C   0  0  0  0  0  0  0  0  0  0  0  0
  129.3470  126.7470   63.2510 N   0  0  0  0  0  0  0  0  0  0  0  0
  125.8310  129.7660   63.5280 C   0  0  0  0  0  0  0  0  0  0  0  0
  125.1530  130.9820   63.5270 C   0  0  0  0  0  0  0  0  0  0  0  0
  124.2380  136.6486   61.9935 H   0  0  0  0  0  0  0  0  0  0  0  0
  125.1654  136.8701   60.4711 H   0  0  0  0  0  0  0  0  0  0  0  0
  123.6596  135.8906   60.4711 H   0  0  0  0  0  0  0  0  0  0  0  0
  126.2168  134.8444   60.6739 H   0  0  0  0  0  0  0  0  0  0  0  0
  125.7419  134.9686   62.4017 H   0  0  0  0  0  0  0  0  0  0  0  0
  125.2705  131.6783   60.1885 H   0  0  0  0  0  0  0  0  0  0  0  0
  126.4797  129.5103   60.1856 H   0  0  0  0  0  0  0  0  0  0  0  0
  127.4770  127.7200   63.0480 H   0  0  0  0  0  0  0  0  0  0  0  0
  130.8143  119.8731   62.3162 H   0  0  0  0  0  0  0  0  0  0  0  0
  129.8549  119.9984   60.8027 H   0  0  0  0  0  0  0  0  0  0  0  0
  131.5948  120.4449   60.8027 H   0  0  0  0  0  0  0  0  0  0  0  0
  131.7300  122.0474   63.3578 H   0  0  0  0  0  0  0  0  0  0  0  0
  129.4879  124.7871   65.3860 H   0  0  0  0  0  0  0  0  0  0  0  0
  130.6587  125.9613   67.2472 H   0  0  0  0  0  0  0  0  0  0  0  0
  133.1030  126.4101   67.0852 H   0  0  0  0  0  0  0  0  0  0  0  0
  134.3864  125.6915   65.0750 H   0  0  0  0  0  0  0  0  0  0  0  0
  133.2170  124.5171   63.2130 H   0  0  0  0  0  0  0  0  0  0  0  0
  130.2560  127.1850   63.2110 H   0  0  0  0  0  0  0  0  0  0  0  0
  128.7290  127.0470   63.9940 H   0  0  0  0  0  0  0  0  0  0  0  0
  125.9891  129.2257   64.4730 H   0  0  0  0  0  0  0  0  0  0  0  0
  124.7787  131.3968   64.4745 H   0  0  0  0  0  0  0  0  0  0  0  0
  1  2  1  0
  2  3  1  0
  3  4  1  0
  4  5  2  0
  4  6  1  0
  6  7  2  0
  7  8  1  0
  8  9  2  0
  9 10  1  0
 10 11  1  0
 11 12  2  0
 11 13  1  0
 13 14  1  0
 14 15  1  0
 15 16  2  0
 16 17  1  0
 17 18  1  0
 17 19  2  0
 19 20  1  0
 20 21  1  0
 21 22  2  0
 22 23  1  0
 23 24  2  0
 24 25  1  0
 25 26  2  0
 20 27  2  0
 27 28  1  0
 28 29  1  0
  9 30  1  0
 30 31  2  0
 31  6  1  0
 28 13  2  0
 27 15  1  0
 26 21  1  0
  1 32  1  0
  1 33  1  0
  1 34  1  0
  2 35  1  0
  2 36  1  0
  7 37  1  0
  8 38  1  0
 10 39  1  0
 18 40  1  0
 18 41  1  0
 18 42  1  0
 19 43  1  0
 22 44  1  0
 23 45  1  0
 24 46  1  0
 25 47  1  0
 26 48  1  0
 29 49  1  0
 29 50  1  0
 30 51  1  0
 31 52  1  0
M  END
>  <Binding energies>  (1) 
[-7.02]

>  <Ligand effiencies>  (1) 
[-0.2064705882352941]

>  <Interactions>  (1) 
["V-B:LEU:475:CD2:9230, V-B:GLY:454:CA:9020, V-B:ILE:369:CG2:8208, V-A:TYR:539:CE1:4873, V-B:ILE:369:CD1:8210, V-A:TYR:539:CD1:4871, V-B:TYR:539:CE1:9847, V-A:LEU:475:CD2:4256, V-B:TYR:539:CD1:9845, H-B:GLU:543:OE1:9881, H-B:GLU:543:OE2:9882, V-B:GLU:543:CD:9880, V-B:GLU:543:CB:9878, V-A:HIS:456:CE1:4066, H-A:GLU:543:OE2:4908, H-B:GLY:454:N:9021, V-B:ARG:545:CZ:9898, V-A:ARG:545:CZ:4924, V-A:ARG:545:CG:4920, V-A:ARG:545:CD:4921, H-A:GLU:543:OE1:4907, V-B:ALA:541:CB:9864, V-B:SER:385:CA:8378, V-B:SER:385:CB:8380, V-B:LEU:373:CD1:8251"]

$$$$
4eb_Grossjean_2025
     RDKit          3D

 49 52  0  0  0  0  0  0  0  0999 V2000
  124.1940  135.2990   61.4050 C   0  0  0  0  0  0  0  0  0  0  0  0
  124.8940  134.1010   61.7060 O   0  0  0  0  0  0  0  0  0  0  0  0
  124.3650  133.1740   62.5460 C   0  0  0  0  0  0  0  0  0  0  0  0
  123.3540  133.3710   63.2250 O   0  0  0  0  0  0  0  0  0  0  0  0
  125.1330  131.8830   62.5650 C   0  0  0  0  0  0  0  0  0  0  0  0
  125.1270  131.0680   61.4260 C   0  0  0  0  0  0  0  0  0  0  0  0
  125.8290  129.8660   61.4120 C   0  0  0  0  0  0  0  0  0  0  0  0
  126.5500  129.4550   62.5340 C   0  0  0  0  0  0  0  0  0  0  0  0
  127.2210  128.2230   62.4060 N   0  0  0  0  0  0  0  0  0  0  0  0
  127.4410  127.4520   61.3130 C   0  0  0  0  0  0  0  0  0  0  0  0
  127.0590  127.7340   60.1770 O   0  0  0  0  0  0  0  0  0  0  0  0
  128.1880  126.2160   61.5600 C   0  0  0  0  0  0  0  0  0  0  0  0
  127.9040  124.7880   60.5630 S   0  0  0  0  0  0  0  0  0  0  0  0
  129.0940  123.8680   61.4550 C   0  0  0  0  0  0  0  0  0  0  0  0
  129.3700  122.5970   61.1590 N   0  0  0  0  0  0  0  0  0  0  0  0
  130.3120  121.9980   61.9260 C   0  0  0  0  0  0  0  0  0  0  0  0
  130.6100  120.5520   61.5720 C   0  0  0  0  0  0  0  0  0  0  0  0
  130.9790  122.6310   62.9720 C   0  0  0  0  0  0  0  0  0  0  0  0
  130.6860  123.9650   63.2790 C   0  0  0  0  0  0  0  0  0  0  0  0
  131.4030  124.6260   64.3940 C   0  0  0  0  0  0  0  0  0  0  0  0
  130.7040  125.0400   65.5320 C   0  0  0  0  0  0  0  0  0  0  0  0
  131.3770  125.6600   66.5810 C   0  0  0  0  0  0  0  0  0  0  0  0
  132.7520  125.8680   66.4910 C   0  0  0  0  0  0  0  0  0  0  0  0
  133.4570  125.4620   65.3600 C   0  0  0  0  0  0  0  0  0  0  0  0
  132.7820  124.8430   64.3120 C   0  0  0  0  0  0  0  0  0  0  0  0
  129.7030  124.6300   62.4970 C   0  0  0  0  0  0  0  0  0  0  0  0
  129.1670  125.9660   62.5340 C   0  0  0  0  0  0  0  0  0  0  0  0
  129.5890  126.8990   63.4480 N   0  0  0  0  0  0  0  0  0  0  0  0
  126.5610  130.2650   63.6800 C   0  0  0  0  0  0  0  0  0  0  0  0
  125.8590  131.4660   63.6920 C   0  0  0  0  0  0  0  0  0  0  0  0
  123.9023  135.7982   62.3408 H   0  0  0  0  0  0  0  0  0  0  0  0
  124.8442  135.9666   60.8205 H   0  0  0  0  0  0  0  0  0  0  0  0
  123.2932  135.0604   60.8205 H   0  0  0  0  0  0  0  0  0  0  0  0
  124.5628  131.3804   60.5349 H   0  0  0  0  0  0  0  0  0  0  0  0
  125.8153  129.2359   60.5105 H   0  0  0  0  0  0  0  0  0  0  0  0
  127.5930  127.8670   63.2740 H   0  0  0  0  0  0  0  0  0  0  0  0
  130.7308  119.9659   62.4950 H   0  0  0  0  0  0  0  0  0  0  0  0
  129.7779  120.1399   60.9823 H   0  0  0  0  0  0  0  0  0  0  0  0
  131.5372  120.5025   60.9823 H   0  0  0  0  0  0  0  0  0  0  0  0
  131.7342  122.0840   63.5555 H   0  0  0  0  0  0  0  0  0  0  0  0
  129.6185  124.8752   65.5986 H   0  0  0  0  0  0  0  0  0  0  0  0
  130.8263  125.9841   67.4764 H   0  0  0  0  0  0  0  0  0  0  0  0
  133.2851  126.3568   67.3198 H   0  0  0  0  0  0  0  0  0  0  0  0
  134.5422  125.6299   65.2956 H   0  0  0  0  0  0  0  0  0  0  0  0
  133.3350  124.5235   63.4164 H   0  0  0  0  0  0  0  0  0  0  0  0
  130.4020  127.4750   63.2820 H   0  0  0  0  0  0  0  0  0  0  0  0
  129.0990  127.0410   64.3210 H   0  0  0  0  0  0  0  0  0  0  0  0
  127.1255  129.9498   64.5700 H   0  0  0  0  0  0  0  0  0  0  0  0
  125.8729  132.0955   64.5940 H   0  0  0  0  0  0  0  0  0  0  0  0
  1  2  1  0
  2  3  1  0
  3  4  2  0
  3  5  1  0
  5  6  2  0
  6  7  1  0
  7  8  2  0
  8  9  1  0
  9 10  1  0
 10 11  2  0
 10 12  1  0
 12 13  1  0
 13 14  1  0
 14 15  2  0
 15 16  1  0
 16 17  1  0
 16 18  2  0
 18 19  1  0
 19 20  1  0
 20 21  2  0
 21 22  1  0
 22 23  2  0
 23 24  1  0
 24 25  2  0
 19 26  2  0
 26 27  1  0
 27 28  1  0
  8 29  1  0
 29 30  2  0
 30  5  1  0
 27 12  2  0
 26 14  1  0
 25 20  1  0
  1 31  1  0
  1 32  1  0
  1 33  1  0
  6 34  1  0
  7 35  1  0
  9 36  1  0
 17 37  1  0
 17 38  1  0
 17 39  1  0
 18 40  1  0
 21 41  1  0
 22 42  1  0
 23 43  1  0
 24 44  1  0
 25 45  1  0
 28 46  1  0
 28 47  1  0
 29 48  1  0
 30 49  1  0
M  END
>  <Binding energies>  (1) 
[-6.72]

>  <Ligand effiencies>  (1) 
[-0.20363636363636362]

>  <Interactions>  (1) 
["V-B:LEU:475:CD2:9230, V-B:GLY:454:CA:9020, V-B:ILE:369:CG2:8208, V-A:TYR:539:CE1:4873, V-B:ILE:369:CD1:8210, V-A:TYR:539:CD1:4871, V-B:ASP:366:CG:8184, V-A:LEU:475:CD2:4256, V-B:TYR:539:CD1:9845, H-B:GLU:543:OE1:9881, H-B:GLU:543:OE2:9882, V-B:GLU:543:CD:9880, V-B:GLU:543:CB:9878, V-A:HIS:456:CE1:4066, H-A:GLU:543:OE2:4908, H-B:GLY:454:N:9021, V-A:TYR:484:CZ:4344, V-A:GLU:543:CD:4906, V-A:ARG:545:CZ:4924, V-A:ARG:545:CG:4920, V-A:ARG:545:CD:4921, H-A:GLU:543:OE1:4907, V-B:ALA:541:CB:9864, V-B:SER:385:CA:8378, V-B:SER:385:CB:8380, V-B:SER:385:C:8376, V-B:LEU:373:CD1:8251"]

$$$$
8a_Ghoteimi_2023
     RDKit          3D

 67 71  0  0  0  0  0  0  0  0999 V2000
  129.3390  132.1360   73.5210 C   0  0  0  0  0  0  0  0  0  0  0  0
  129.3950  130.8140   72.7500 C   0  0  0  0  0  0  0  0  0  0  0  0
  129.5130  129.7360   73.6690 O   0  0  0  0  0  0  0  0  0  0  0  0
  128.8170  128.5820   73.4890 C   0  0  0  0  0  0  0  0  0  0  0  0
  128.1520  128.0450   74.3800 O   0  0  0  0  0  0  0  0  0  0  0  0
  128.9430  128.0230   72.1020 C   0  0  0  0  0  0  0  0  0  0  0  0
  130.1940  128.0320   71.4720 C   0  0  0  0  0  0  0  0  0  0  0  0
  130.3440  127.5230   70.1860 C   0  0  0  0  0  0  0  0  0  0  0  0
  129.2480  126.9950   69.5010 C   0  0  0  0  0  0  0  0  0  0  0  0
  129.5170  126.5120   68.2040 N   0  0  0  0  0  0  0  0  0  0  0  0
  129.3720  127.1130   66.9980 C   0  0  0  0  0  0  0  0  0  0  0  0
  128.9470  128.2580   66.8390 O   0  0  0  0  0  0  0  0  0  0  0  0
  129.7670  126.3000   65.8440 C   0  0  0  0  0  0  0  0  0  0  0  0
  130.5920  124.7600   66.0790 S   0  0  0  0  0  0  0  0  0  0  0  0
  130.6950  124.4970   64.3540 C   0  0  0  0  0  0  0  0  0  0  0  0
  131.2860  123.4170   63.8440 N   0  0  0  0  0  0  0  0  0  0  0  0
  131.3160  123.3120   62.4890 C   0  0  0  0  0  0  0  0  0  0  0  0
  132.0030  122.1030   61.9390 C   0  0  0  0  0  0  0  0  0  0  0  0
  131.2680  120.9980   61.4840 C   0  0  0  0  0  0  0  0  0  0  0  0
  131.9130  119.8710   60.9840 C   0  0  0  0  0  0  0  0  0  0  0  0
  133.3040  119.8190   60.9220 C   0  0  0  0  0  0  0  0  0  0  0  0
  133.8570  118.6600   60.4130 O   0  0  0  0  0  0  0  0  0  0  0  0
  133.0550  117.4870   60.3310 C   0  0  0  0  0  0  0  0  0  0  0  0
  134.0480  120.9210   61.3680 C   0  0  0  0  0  0  0  0  0  0  0  0
  133.4000  122.0470   61.8710 C   0  0  0  0  0  0  0  0  0  0  0  0
  130.7520  124.2780   61.6530 C   0  0  0  0  0  0  0  0  0  0  0  0
  130.1150  125.4050   62.1840 C   0  0  0  0  0  0  0  0  0  0  0  0
  129.5030  126.3850   61.2510 C   0  0  0  0  0  0  0  0  0  0  0  0
  130.2990  127.3390   60.6130 C   0  0  0  0  0  0  0  0  0  0  0  0
  129.7330  128.2470   59.7220 C   0  0  0  0  0  0  0  0  0  0  0  0
  128.3650  128.2130   59.4490 C   0  0  0  0  0  0  0  0  0  0  0  0
  127.8920  129.1510   58.5520 O   0  0  0  0  0  0  0  0  0  0  0  0
  126.4890  129.3620   58.4440 C   0  0  0  0  0  0  0  0  0  0  0  0
  127.5650  127.2500   60.0830 C   0  0  0  0  0  0  0  0  0  0  0  0
  128.1350  126.3420   60.9730 C   0  0  0  0  0  0  0  0  0  0  0  0
  130.0910  125.5470   63.6010 C   0  0  0  0  0  0  0  0  0  0  0  0
  129.5860  126.5730   64.4780 C   0  0  0  0  0  0  0  0  0  0  0  0
  128.9960  127.7210   64.0080 N   0  0  0  0  0  0  0  0  0  0  0  0
  127.9920  126.9770   70.1260 C   0  0  0  0  0  0  0  0  0  0  0  0
  127.8440  127.4870   71.4130 C   0  0  0  0  0  0  0  0  0  0  0  0
  129.3477  131.9309   74.6017 H   0  0  0  0  0  0  0  0  0  0  0  0
  130.2119  132.7514   73.2576 H   0  0  0  0  0  0  0  0  0  0  0  0
  128.4172  132.6753   73.2576 H   0  0  0  0  0  0  0  0  0  0  0  0
  128.4745  130.6941   72.1599 H   0  0  0  0  0  0  0  0  0  0  0  0
  130.2640  130.8186   72.0755 H   0  0  0  0  0  0  0  0  0  0  0  0
  131.0663  128.4456   71.9992 H   0  0  0  0  0  0  0  0  0  0  0  0
  131.3333  127.5366   69.7054 H   0  0  0  0  0  0  0  0  0  0  0  0
  129.8860  125.5730   68.1840 H   0  0  0  0  0  0  0  0  0  0  0  0
  130.1690  121.0228   61.5230 H   0  0  0  0  0  0  0  0  0  0  0  0
  131.3194  119.0134   60.6345 H   0  0  0  0  0  0  0  0  0  0  0  0
  132.8147  117.1355   61.3452 H   0  0  0  0  0  0  0  0  0  0  0  0
  132.1238  117.7164   59.7922 H   0  0  0  0  0  0  0  0  0  0  0  0
  133.6067  116.7026   59.7922 H   0  0  0  0  0  0  0  0  0  0  0  0
  135.1467  120.8962   61.3205 H   0  0  0  0  0  0  0  0  0  0  0  0
  133.9946  122.9042   62.2197 H   0  0  0  0  0  0  0  0  0  0  0  0
  130.8093  124.1512   60.5618 H   0  0  0  0  0  0  0  0  0  0  0  0
  131.3796  127.3732   60.8157 H   0  0  0  0  0  0  0  0  0  0  0  0
  130.3693  128.9970   59.2294 H   0  0  0  0  0  0  0  0  0  0  0  0
  126.0496  129.4281   59.4503 H   0  0  0  0  0  0  0  0  0  0  0  0
  126.2999  130.2987   57.8991 H   0  0  0  0  0  0  0  0  0  0  0  0
  126.0328  128.5224   57.8991 H   0  0  0  0  0  0  0  0  0  0  0  0
  126.4852  127.2119   59.8768 H   0  0  0  0  0  0  0  0  0  0  0  0
  127.5026  125.5854   61.4605 H   0  0  0  0  0  0  0  0  0  0  0  0
  127.9910  127.8130   63.9580 H   0  0  0  0  0  0  0  0  0  0  0  0
  129.5440  128.5110   63.7010 H   0  0  0  0  0  0  0  0  0  0  0  0
  127.1222  126.5590   69.5980 H   0  0  0  0  0  0  0  0  0  0  0  0
  126.8553  127.4697   71.8949 H   0  0  0  0  0  0  0  0  0  0  0  0
  1  2  1  0
  2  3  1  0
  3  4  1  0
  4  5  2  0
  4  6  1  0
  6  7  2  0
  7  8  1  0
  8  9  2  0
  9 10  1  0
 10 11  1  0
 11 12  2  0
 11 13  1  0
 13 14  1  0
 14 15  1  0
 15 16  2  0
 16 17  1  0
 17 18  1  0
 18 19  2  0
 19 20  1  0
 20 21  2  0
 21 22  1  0
 22 23  1  0
 21 24  1  0
 24 25  2  0
 17 26  2  0
 26 27  1  0
 27 28  1  0
 28 29  2  0
 29 30  1  0
 30 31  2  0
 31 32  1  0
 32 33  1  0
 31 34  1  0
 34 35  2  0
 27 36  2  0
 36 37  1  0
 37 38  1  0
  9 39  1  0
 39 40  2  0
 40  6  1  0
 37 13  2  0
 36 15  1  0
 25 18  1  0
 35 28  1  0
  1 41  1  0
  1 42  1  0
  1 43  1  0
  2 44  1  0
  2 45  1  0
  7 46  1  0
  8 47  1  0
 10 48  1  0
 19 49  1  0
 20 50  1  0
 23 51  1  0
 23 52  1  0
 23 53  1  0
 24 54  1  0
 25 55  1  0
 26 56  1  0
 29 57  1  0
 30 58  1  0
 33 59  1  0
 33 60  1  0
 33 61  1  0
 34 62  1  0
 35 63  1  0
 38 64  1  0
 38 65  1  0
 39 66  1  0
 40 67  1  0
M  END
>  <Binding energies>  (1) 
[-5.08]

>  <Ligand effiencies>  (1) 
[-0.11813953488372093]

>  <Interactions>  (1) 
["V-B:TYR:539:CE1:9847, V-A:ILE:369:CD1:3236, V-A:LEU:475:CD2:4256, V-B:TYR:539:CD1:9845, V-A:GLY:454:CA:4046, V-A:GLU:543:CG:4905, H-B:GLU:543:OE1:9881, V-A:ILE:369:CG2:3234, V-B:HIS:456:CE1:9040, H-B:GLU:543:OE2:9882, V-B:GLU:543:CD:9880, V-B:GLU:543:CB:9878, V-B:GLU:543:CG:9879, V-A:HIS:456:CE1:4066, H-A:GLU:543:OE2:4908, V-A:TYR:484:CE2:4343, V-A:TYR:484:CZ:4344, V-A:GLU:543:CD:4906, V-B:GLU:543:C:9874, V-B:GLY:544:C:9884, V-A:SER:385:CA:3404, V-A:SER:385:C:3402, H-A:GLU:543:OE1:4907, V-A:GLY:544:C:4910, H-A:TYR:484:OH:4345, V-A:SER:385:CB:3406, V-A:LEU:373:CD1:3277, V-A:GLY:544:CA:4912, V-A:GLU:543:C:4900, V-B:HIS:456:CD2:9039, V-B:HIS:456:CG:9037, V-A:LYS:547:CE:4948, V-B:GLY:544:CA:9886, H-B:LYS:547:NZ:9923, H-A:LYS:547:NZ:4949, H-B:GLU:543:O:9875"]

$$$$
8b_Ghoteimi_2023
     RDKit          3D

 54 58  0  0  0  0  0  0  0  0999 V2000
  128.4410  133.7400   61.6800 C   0  0  0  0  0  0  0  0  0  0  0  0
  129.7390  133.1590   61.7560 O   0  0  0  0  0  0  0  0  0  0  0  0
  129.8810  131.7990   61.5590 C   0  0  0  0  0  0  0  0  0  0  0  0
  128.7300  131.0260   61.7020 C   0  0  0  0  0  0  0  0  0  0  0  0
  128.7780  129.6470   61.5240 C   0  0  0  0  0  0  0  0  0  0  0  0
  129.9810  129.0030   61.1980 C   0  0  0  0  0  0  0  0  0  0  0  0
  130.0380  127.5210   61.0080 C   0  0  0  0  0  0  0  0  0  0  0  0
  128.9840  126.8120   60.4220 C   0  0  0  0  0  0  0  0  0  0  0  0
  129.0620  125.4260   60.2550 C   0  0  0  0  0  0  0  0  0  0  0  0
  127.9240  124.7040   59.6400 C   0  0  0  0  0  0  0  0  0  0  0  0
  127.9260  124.4230   58.2730 C   0  0  0  0  0  0  0  0  0  0  0  0
  126.8600  123.7360   57.6990 C   0  0  0  0  0  0  0  0  0  0  0  0
  125.7790  123.3230   58.4790 C   0  0  0  0  0  0  0  0  0  0  0  0
  124.7680  122.6460   57.8240 O   0  0  0  0  0  0  0  0  0  0  0  0
  123.4230  123.0830   57.9840 C   0  0  0  0  0  0  0  0  0  0  0  0
  125.7780  123.6100   59.8520 C   0  0  0  0  0  0  0  0  0  0  0  0
  126.8450  124.2970   60.4260 C   0  0  0  0  0  0  0  0  0  0  0  0
  130.2430  124.7660   60.6890 C   0  0  0  0  0  0  0  0  0  0  0  0
  130.6560  123.3870   60.6660 C   0  0  0  0  0  0  0  0  0  0  0  0
  129.8620  122.3920   60.1550 N   0  0  0  0  0  0  0  0  0  0  0  0
  131.9310  123.1660   61.2080 C   0  0  0  0  0  0  0  0  0  0  0  0
  132.6590  121.9020   61.3390 C   0  0  0  0  0  0  0  0  0  0  0  0
  133.6860  121.8350   62.0200 O   0  0  0  0  0  0  0  0  0  0  0  0
  132.1250  120.8500   60.6690 N   0  0  0  0  0  0  0  0  0  0  0  0
  132.6010  119.5470   60.6230 C   0  0  0  0  0  0  0  0  0  0  0  0
  131.8150  118.4380   60.9310 C   0  0  0  0  0  0  0  0  0  0  0  0
  132.6470  117.3530   60.7700 C   0  0  0  0  0  0  0  0  0  0  0  0
  133.8700  117.7870   60.3820 O   0  0  0  0  0  0  0  0  0  0  0  0
  133.8280  119.1790   60.2910 N   0  0  0  0  0  0  0  0  0  0  0  0
  132.6580  124.6750   61.7620 S   0  0  0  0  0  0  0  0  0  0  0  0
  131.2530  125.5890   61.2650 C   0  0  0  0  0  0  0  0  0  0  0  0
  131.1780  126.9100   61.4280 N   0  0  0  0  0  0  0  0  0  0  0  0
  131.1330  129.7870   61.0540 C   0  0  0  0  0  0  0  0  0  0  0  0
  131.0890  131.1670   61.2320 C   0  0  0  0  0  0  0  0  0  0  0  0
  128.0563  133.9122   62.6960 H   0  0  0  0  0  0  0  0  0  0  0  0
  128.4990  134.6981   61.1426 H   0  0  0  0  0  0  0  0  0  0  0  0
  127.7651  133.0585   61.1426 H   0  0  0  0  0  0  0  0  0  0  0  0
  127.7760  131.5102   61.9577 H   0  0  0  0  0  0  0  0  0  0  0  0
  127.8595  129.0531   61.6406 H   0  0  0  0  0  0  0  0  0  0  0  0
  128.0845  127.3505   60.0891 H   0  0  0  0  0  0  0  0  0  0  0  0
  128.7718  124.7451   57.6477 H   0  0  0  0  0  0  0  0  0  0  0  0
  126.8698  123.5167   56.6211 H   0  0  0  0  0  0  0  0  0  0  0  0
  123.1874  123.1596   59.0557 H   0  0  0  0  0  0  0  0  0  0  0  0
  123.2986  124.0678   57.5100 H   0  0  0  0  0  0  0  0  0  0  0  0
  122.7435  122.3594   57.5100 H   0  0  0  0  0  0  0  0  0  0  0  0
  124.9313  123.2913   60.4778 H   0  0  0  0  0  0  0  0  0  0  0  0
  126.8372  124.5197   61.5032 H   0  0  0  0  0  0  0  0  0  0  0  0
  129.5420  122.4140   59.1970 H   0  0  0  0  0  0  0  0  0  0  0  0
  129.5670  121.6060   60.7170 H   0  0  0  0  0  0  0  0  0  0  0  0
  131.2810  121.0230   60.1430 H   0  0  0  0  0  0  0  0  0  0  0  0
  130.7583  118.4311   61.2366 H   0  0  0  0  0  0  0  0  0  0  0  0
  132.3640  116.3023   60.9307 H   0  0  0  0  0  0  0  0  0  0  0  0
  132.0874  129.3046   60.7962 H   0  0  0  0  0  0  0  0  0  0  0  0
  132.0056  131.7639   61.1156 H   0  0  0  0  0  0  0  0  0  0  0  0
  1  2  1  0
  2  3  1  0
  3  4  2  0
  4  5  1  0
  5  6  2  0
  6  7  1  0
  7  8  2  0
  8  9  1  0
  9 10  1  0
 10 11  2  0
 11 12  1  0
 12 13  2  0
 13 14  1  0
 14 15  1  0
 13 16  1  0
 16 17  2  0
  9 18  2  0
 18 19  1  0
 19 20  1  0
 19 21  2  0
 21 22  1  0
 22 23  2  0
 22 24  1  0
 24 25  1  0
 25 26  1  0
 26 27  2  0
 27 28  1  0
 28 29  1  0
 21 30  1  0
 30 31  1  0
 31 32  2  0
  6 33  1  0
 33 34  2  0
 34  3  1  0
 32  7  1  0
 17 10  1  0
 31 18  1  0
 29 25  2  0
  1 35  1  0
  1 36  1  0
  1 37  1  0
  4 38  1  0
  5 39  1  0
  8 40  1  0
 11 41  1  0
 12 42  1  0
 15 43  1  0
 15 44  1  0
 15 45  1  0
 16 46  1  0
 17 47  1  0
 20 48  1  0
 20 49  1  0
 24 50  1  0
 26 51  1  0
 27 52  1  0
 33 53  1  0
 34 54  1  0
M  END
>  <Binding energies>  (1) 
[-5.21]

>  <Ligand effiencies>  (1) 
[-0.14081081081081082]

>  <Interactions>  (1) 
["V-A:TYR:539:CD1:4871, H-A:ALA:541:N:4889, V-A:PRO:540:CA:4881, V-A:ALA:541:CB:4890, V-B:TYR:539:CE1:9847, V-B:PRO:540:N:9856, V-B:PRO:540:CA:9855, V-A:LEU:475:CD2:4256, V-B:TYR:539:CD1:9845, H-A:ARG:545:NH2:4926, V-A:PRO:540:C:4879, V-A:SER:385:CA:3404, V-B:PRO:540:CD:9859, V-B:PRO:540:CB:9857, V-B:PRO:540:CG:9858, V-A:SER:385:CB:3406, V-A:LEU:373:CD1:3277, V-B:LEU:363:CA:8156, V-B:LEU:363:CD1:8160, H-B:TYR:539:O:9840, V-A:ALA:541:CA:4888, V-B:LEU:363:CB:8158, H-A:SER:385:N:3405, V-B:LEU:363:CG:8159"]

$$$$
8c_Ghoteimi_2023
     RDKit          3D

 54 58  0  0  0  0  0  0  0  0999 V2000
  133.7460  117.2780   60.0580 C   0  0  0  0  0  0  0  0  0  0  0  0
  132.3670  117.3740   60.3960 O   0  0  0  0  0  0  0  0  0  0  0  0
  131.8460  118.6020   60.7570 C   0  0  0  0  0  0  0  0  0  0  0  0
  132.6910  119.7020   60.6230 C   0  0  0  0  0  0  0  0  0  0  0  0
  132.2520  120.9770   60.9650 C   0  0  0  0  0  0  0  0  0  0  0  0
  130.9540  121.1860   61.4510 C   0  0  0  0  0  0  0  0  0  0  0  0
  130.4770  122.5540   61.8250 C   0  0  0  0  0  0  0  0  0  0  0  0
  130.9560  123.2190   62.9570 C   0  0  0  0  0  0  0  0  0  0  0  0
  130.4960  124.4990   63.2830 C   0  0  0  0  0  0  0  0  0  0  0  0
  131.0170  125.1710   64.4940 C   0  0  0  0  0  0  0  0  0  0  0  0
  130.1390  125.6240   65.4810 C   0  0  0  0  0  0  0  0  0  0  0  0
  130.6310  126.2470   66.6240 C   0  0  0  0  0  0  0  0  0  0  0  0
  132.0040  126.4300   66.7960 C   0  0  0  0  0  0  0  0  0  0  0  0
  132.4020  127.0560   67.9620 O   0  0  0  0  0  0  0  0  0  0  0  0
  131.6270  128.1370   68.4700 C   0  0  0  0  0  0  0  0  0  0  0  0
  132.8850  125.9790   65.8020 C   0  0  0  0  0  0  0  0  0  0  0  0
  132.3920  125.3540   64.6590 C   0  0  0  0  0  0  0  0  0  0  0  0
  129.5350  125.1010   62.4270 C   0  0  0  0  0  0  0  0  0  0  0  0
  128.8640  126.3730   62.4560 C   0  0  0  0  0  0  0  0  0  0  0  0
  129.0890  127.3010   63.4420 N   0  0  0  0  0  0  0  0  0  0  0  0
  127.9700  126.5690   61.3910 C   0  0  0  0  0  0  0  0  0  0  0  0
  127.1310  127.7360   61.1080 C   0  0  0  0  0  0  0  0  0  0  0  0
  126.8220  128.0230   59.9490 O   0  0  0  0  0  0  0  0  0  0  0  0
  126.7410  128.4490   62.1930 N   0  0  0  0  0  0  0  0  0  0  0  0
  125.9470  129.5870   62.2020 C   0  0  0  0  0  0  0  0  0  0  0  0
  125.6940  130.3870   63.2150 N   0  0  0  0  0  0  0  0  0  0  0  0
  124.8980  131.3770   62.8640 C   0  0  0  0  0  0  0  0  0  0  0  0
  124.4850  131.3940   61.5360 C   0  0  0  0  0  0  0  0  0  0  0  0
  125.1830  130.0310   60.7110 S   0  0  0  0  0  0  0  0  0  0  0  0
  127.9420  125.1700   60.3170 S   0  0  0  0  0  0  0  0  0  0  0  0
  129.1220  124.3340   61.2990 C   0  0  0  0  0  0  0  0  0  0  0  0
  129.5590  123.1130   60.9890 N   0  0  0  0  0  0  0  0  0  0  0  0
  130.1080  120.0760   61.5810 C   0  0  0  0  0  0  0  0  0  0  0  0
  130.5440  118.7990   61.2410 C   0  0  0  0  0  0  0  0  0  0  0  0
  134.3470  117.2362   60.9783 H   0  0  0  0  0  0  0  0  0  0  0  0
  133.9161  116.3658   59.4672 H   0  0  0  0  0  0  0  0  0  0  0  0
  134.0408  118.1578   59.4672 H   0  0  0  0  0  0  0  0  0  0  0  0
  133.7138  119.5609   60.2436 H   0  0  0  0  0  0  0  0  0  0  0  0
  132.9332  121.8333   60.8524 H   0  0  0  0  0  0  0  0  0  0  0  0
  131.7035  122.7301   63.5991 H   0  0  0  0  0  0  0  0  0  0  0  0
  129.0548  125.4879   65.3545 H   0  0  0  0  0  0  0  0  0  0  0  0
  129.9325  126.5979   67.3979 H   0  0  0  0  0  0  0  0  0  0  0  0
  131.6430  128.1147   69.5697 H   0  0  0  0  0  0  0  0  0  0  0  0
  132.0496  129.0891   68.1164 H   0  0  0  0  0  0  0  0  0  0  0  0
  130.5897  128.0424   68.1164 H   0  0  0  0  0  0  0  0  0  0  0  0
  133.9690  126.1194   65.9256 H   0  0  0  0  0  0  0  0  0  0  0  0
  133.0883  125.0031   63.8831 H   0  0  0  0  0  0  0  0  0  0  0  0
  129.7650  128.0430   63.3220 H   0  0  0  0  0  0  0  0  0  0  0  0
  128.5920  127.2740   64.3200 H   0  0  0  0  0  0  0  0  0  0  0  0
  127.0510  128.1230   63.0970 H   0  0  0  0  0  0  0  0  0  0  0  0
  124.5781  132.1470   63.5814 H   0  0  0  0  0  0  0  0  0  0  0  0
  123.8244  132.1469   61.0814 H   0  0  0  0  0  0  0  0  0  0  0  0
  129.0840  120.2165   61.9575 H   0  0  0  0  0  0  0  0  0  0  0  0
  129.8651  117.9406   61.3522 H   0  0  0  0  0  0  0  0  0  0  0  0
  1  2  1  0
  2  3  1  0
  3  4  2  0
  4  5  1  0
  5  6  2  0
  6  7  1  0
  7  8  2  0
  8  9  1  0
  9 10  1  0
 10 11  2  0
 11 12  1  0
 12 13  2  0
 13 14  1  0
 14 15  1  0
 13 16  1  0
 16 17  2  0
  9 18  2  0
 18 19  1  0
 19 20  1  0
 19 21  2  0
 21 22  1  0
 22 23  2  0
 22 24  1  0
 24 25  1  0
 25 26  2  0
 26 27  1  0
 27 28  2  0
 28 29  1  0
 21 30  1  0
 30 31  1  0
 31 32  2  0
  6 33  1  0
 33 34  2  0
 34  3  1  0
 32  7  1  0
 17 10  1  0
 31 18  1  0
 29 25  1  0
  1 35  1  0
  1 36  1  0
  1 37  1  0
  4 38  1  0
  5 39  1  0
  8 40  1  0
 11 41  1  0
 12 42  1  0
 15 43  1  0
 15 44  1  0
 15 45  1  0
 16 46  1  0
 17 47  1  0
 20 48  1  0
 20 49  1  0
 24 50  1  0
 27 51  1  0
 28 52  1  0
 33 53  1  0
 34 54  1  0
M  END
>  <Binding energies>  (1) 
[-5.0]

>  <Ligand effiencies>  (1) 
[-0.13513513513513514]

>  <Interactions>  (1) 
["V-B:ILE:369:CD1:8210, V-B:ASP:366:CG:8184, V-B:TYR:539:CE1:9847, V-A:LEU:475:CD2:4256, V-B:TYR:539:CD1:9845, V-A:GLU:543:CG:4905, H-B:GLU:543:OE1:9881, V-A:ILE:369:CG2:3234, H-B:GLU:543:OE2:9882, V-B:GLU:543:CD:9880, V-B:GLU:543:CB:9878, V-B:GLU:543:CG:9879, V-A:HIS:456:CE1:4066, H-A:GLU:543:OE2:4908, V-A:GLU:543:CD:4906, V-A:GLU:543:CB:4904, V-A:ARG:545:CZ:4924, V-A:ARG:545:CG:4920, V-A:SER:385:CA:3404, V-A:ARG:545:CD:4921, H-A:GLU:543:OE1:4907, V-B:ALA:541:CB:9864, H-A:HIS:456:NE2:4067, V-A:GLY:544:C:4910, H-A:ARG:545:NE:4922, V-A:SER:385:CB:3406, V-A:LEU:373:CD1:3277, V-A:PRO:482:CB:4323, V-A:VAL:384:C:3394, V-A:PRO:482:CG:4324, V-A:GLU:543:C:4900, V-A:ARG:545:CA:4917"]

$$$$
8d_Ghoteimi_2023
     RDKit          3D

 50 53  0  0  0  0  0  0  0  0999 V2000
  129.3990  132.6120   57.5020 C   0  0  0  0  0  0  0  0  0  0  0  0
  129.8410  132.9970   58.7970 O   0  0  0  0  0  0  0  0  0  0  0  0
  129.0270  132.8700   59.8770 C   0  0  0  0  0  0  0  0  0  0  0  0
  128.2290  133.7350   60.2460 O   0  0  0  0  0  0  0  0  0  0  0  0
  129.1930  131.5760   60.5740 C   0  0  0  0  0  0  0  0  0  0  0  0
  130.5170  130.4980   60.1250 S   0  0  0  0  0  0  0  0  0  0  0  0
  130.0170  129.3230   61.3190 C   0  0  0  0  0  0  0  0  0  0  0  0
  130.6720  128.1750   61.4940 N   0  0  0  0  0  0  0  0  0  0  0  0
  130.2000  127.3330   62.4520 C   0  0  0  0  0  0  0  0  0  0  0  0
  130.9500  126.0500   62.6250 C   0  0  0  0  0  0  0  0  0  0  0  0
  130.8560  125.3090   63.8110 C   0  0  0  0  0  0  0  0  0  0  0  0
  131.5570  124.1170   63.9670 C   0  0  0  0  0  0  0  0  0  0  0  0
  132.3710  123.6350   62.9440 C   0  0  0  0  0  0  0  0  0  0  0  0
  133.0280  122.4440   63.1860 O   0  0  0  0  0  0  0  0  0  0  0  0
  133.8280  121.8700   62.1570 C   0  0  0  0  0  0  0  0  0  0  0  0
  132.4720  124.3660   61.7520 C   0  0  0  0  0  0  0  0  0  0  0  0
  131.7680  125.5580   61.5990 C   0  0  0  0  0  0  0  0  0  0  0  0
  129.0740  127.6350   63.2230 C   0  0  0  0  0  0  0  0  0  0  0  0
  128.3880  128.8410   63.0410 C   0  0  0  0  0  0  0  0  0  0  0  0
  127.2030  129.1360   63.8790 C   0  0  0  0  0  0  0  0  0  0  0  0
  125.9560  129.3380   63.2860 C   0  0  0  0  0  0  0  0  0  0  0  0
  124.8440  129.6250   64.0730 C   0  0  0  0  0  0  0  0  0  0  0  0
  124.9610  129.7100   65.4610 C   0  0  0  0  0  0  0  0  0  0  0  0
  123.8060  129.9990   66.1610 O   0  0  0  0  0  0  0  0  0  0  0  0
  123.7430  129.7040   67.5510 C   0  0  0  0  0  0  0  0  0  0  0  0
  126.2160  129.5020   66.0560 C   0  0  0  0  0  0  0  0  0  0  0  0
  127.3270  129.2160   65.2670 C   0  0  0  0  0  0  0  0  0  0  0  0
  128.8660  129.7370   62.0490 C   0  0  0  0  0  0  0  0  0  0  0  0
  128.4170  131.0270   61.6010 C   0  0  0  0  0  0  0  0  0  0  0  0
  127.3210  131.6540   62.1360 N   0  0  0  0  0  0  0  0  0  0  0  0
  128.5725  131.8921   57.5956 H   0  0  0  0  0  0  0  0  0  0  0  0
  129.0513  133.5002   56.9541 H   0  0  0  0  0  0  0  0  0  0  0  0
  130.2311  132.1457   56.9541 H   0  0  0  0  0  0  0  0  0  0  0  0
  130.2192  125.6748   64.6300 H   0  0  0  0  0  0  0  0  0  0  0  0
  131.4677  123.5506   64.9057 H   0  0  0  0  0  0  0  0  0  0  0  0
  134.6428  121.2854   62.6091 H   0  0  0  0  0  0  0  0  0  0  0  0
  133.2060  121.2109   61.5336 H   0  0  0  0  0  0  0  0  0  0  0  0
  134.2531  122.6704   61.5336 H   0  0  0  0  0  0  0  0  0  0  0  0
  133.1093  123.9970   60.9349 H   0  0  0  0  0  0  0  0  0  0  0  0
  131.8554  126.1218   60.6585 H   0  0  0  0  0  0  0  0  0  0  0  0
  128.7238  126.9179   63.9800 H   0  0  0  0  0  0  0  0  0  0  0  0
  125.8513  129.2702   62.1931 H   0  0  0  0  0  0  0  0  0  0  0  0
  123.8655  129.7860   63.5970 H   0  0  0  0  0  0  0  0  0  0  0  0
  123.9384  130.6191   68.1293 H   0  0  0  0  0  0  0  0  0  0  0  0
  122.7426  129.3200   67.7994 H   0  0  0  0  0  0  0  0  0  0  0  0
  124.4993  128.9448   67.7994 H   0  0  0  0  0  0  0  0  0  0  0  0
  126.3216  129.5652   67.1491 H   0  0  0  0  0  0  0  0  0  0  0  0
  128.3067  129.0524   65.7396 H   0  0  0  0  0  0  0  0  0  0  0  0
  126.8600  131.2990   62.9620 H   0  0  0  0  0  0  0  0  0  0  0  0
  126.9390  132.4960   61.7270 H   0  0  0  0  0  0  0  0  0  0  0  0
  1  2  1  0
  2  3  1  0
  3  4  2  0
  3  5  1  0
  5  6  1  0
  6  7  1  0
  7  8  2  0
  8  9  1  0
  9 10  1  0
 10 11  2  0
 11 12  1  0
 12 13  2  0
 13 14  1  0
 14 15  1  0
 13 16  1  0
 16 17  2  0
  9 18  2  0
 18 19  1  0
 19 20  1  0
 20 21  2  0
 21 22  1  0
 22 23  2  0
 23 24  1  0
 24 25  1  0
 23 26  1  0
 26 27  2  0
 19 28  2  0
 28 29  1  0
 29 30  1  0
 29  5  2  0
 28  7  1  0
 17 10  1  0
 27 20  1  0
  1 31  1  0
  1 32  1  0
  1 33  1  0
 11 34  1  0
 12 35  1  0
 15 36  1  0
 15 37  1  0
 15 38  1  0
 16 39  1  0
 17 40  1  0
 18 41  1  0
 21 42  1  0
 22 43  1  0
 25 44  1  0
 25 45  1  0
 25 46  1  0
 26 47  1  0
 27 48  1  0
 30 49  1  0
 30 50  1  0
M  END
>  <Binding energies>  (1) 
[-4.86]

>  <Ligand effiencies>  (1) 
[-0.151875]

>  <Interactions>  (1) 
["V-B:GLY:454:CA:9020, V-A:TYR:539:CE1:4873, V-A:TYR:539:CD1:4871, V-A:PRO:540:CA:4881, V-A:PRO:540:N:4882, V-A:TYR:539:C:4865, V-A:ILE:369:CD1:3236, V-A:LEU:475:CD2:4256, V-A:GLY:454:CA:4046, V-B:HIS:456:CE1:9040, V-B:GLU:543:CD:9880, H-A:ARG:545:NH2:4926, H-B:GLY:454:N:9021, V-A:GLU:543:CD:4906, V-B:ARG:545:CZ:9898, V-B:ARG:545:CG:9894, H-A:GLY:454:N:4047, V-B:TYR:484:CZ:9318, V-A:TYR:539:CG:4870, H-B:ARG:545:NE:9896, V-B:ARG:545:CD:9895, H-A:TYR:484:OH:4345, H-B:TYR:484:OH:9319, H-B:ILE:455:N:9026, V-B:ARG:545:CB:9893, V-B:ILE:455:C:9023, V-B:GLY:454:C:9018"]

$$$$
9a_Ghoteimi_2023
     RDKit          3D

 85 91  0  0  0  0  0  0  0  0999 V2000
  130.6690  117.4850   60.6100 C   0  0  0  0  0  0  0  0  0  0  0  0
  132.1540  117.5210   60.9830 C   0  0  0  0  0  0  0  0  0  0  0  0
  132.8940  118.1160   59.9230 O   0  0  0  0  0  0  0  0  0  0  0  0
  133.8220  119.0760   60.1690 C   0  0  0  0  0  0  0  0  0  0  0  0
  135.0170  118.9590   59.8760 O   0  0  0  0  0  0  0  0  0  0  0  0
  133.2540  120.2930   60.8400 C   0  0  0  0  0  0  0  0  0  0  0  0
  131.8690  120.5040   60.8180 C   0  0  0  0  0  0  0  0  0  0  0  0
  131.3130  121.6230   61.4300 C   0  0  0  0  0  0  0  0  0  0  0  0
  132.1260  122.5540   62.0760 C   0  0  0  0  0  0  0  0  0  0  0  0
  131.4540  123.6470   62.6580 N   0  0  0  0  0  0  0  0  0  0  0  0
  131.1050  123.8780   63.9480 C   0  0  0  0  0  0  0  0  0  0  0  0
  131.3430  123.1060   64.8780 O   0  0  0  0  0  0  0  0  0  0  0  0
  130.4090  125.1450   64.1910 C   0  0  0  0  0  0  0  0  0  0  0  0
  129.9070  126.1590   62.8380 S   0  0  0  0  0  0  0  0  0  0  0  0
  129.2110  127.3400   63.9220 C   0  0  0  0  0  0  0  0  0  0  0  0
  128.6030  128.4340   63.4660 N   0  0  0  0  0  0  0  0  0  0  0  0
  128.0850  129.2840   64.3930 C   0  0  0  0  0  0  0  0  0  0  0  0
  127.3980  130.4990   63.8580 C   0  0  0  0  0  0  0  0  0  0  0  0
  126.0020  130.5470   63.7740 C   0  0  0  0  0  0  0  0  0  0  0  0
  125.3540  131.6750   63.2780 C   0  0  0  0  0  0  0  0  0  0  0  0
  126.0780  132.8030   62.8600 C   0  0  0  0  0  0  0  0  0  0  0  0
  125.4410  133.9360   62.3430 N   0  0  0  0  0  0  0  0  0  0  0  0
  126.2070  135.0340   61.7180 C   0  0  0  0  0  0  0  0  0  0  0  0
  125.3970  136.3350   61.5390 C   0  0  0  0  0  0  0  0  0  0  0  0
  124.2060  136.0710   60.8170 O   0  0  0  0  0  0  0  0  0  0  0  0
  123.3830  135.1350   61.4960 C   0  0  0  0  0  0  0  0  0  0  0  0
  124.1340  133.7990   61.6670 C   0  0  0  0  0  0  0  0  0  0  0  0
  127.4770  132.7440   62.9330 C   0  0  0  0  0  0  0  0  0  0  0  0
  128.1240  131.6150   63.4260 C   0  0  0  0  0  0  0  0  0  0  0  0
  128.2010  129.0510   65.7650 C   0  0  0  0  0  0  0  0  0  0  0  0
  128.8560  127.9130   66.2480 C   0  0  0  0  0  0  0  0  0  0  0  0
  128.9830  127.7330   67.7170 C   0  0  0  0  0  0  0  0  0  0  0  0
  127.8840  127.3350   68.4830 C   0  0  0  0  0  0  0  0  0  0  0  0
  128.0080  127.1540   69.8560 C   0  0  0  0  0  0  0  0  0  0  0  0
  129.2400  127.3470   70.5010 C   0  0  0  0  0  0  0  0  0  0  0  0
  129.3860  127.1810   71.8800 N   0  0  0  0  0  0  0  0  0  0  0  0
  128.6740  128.0960   72.7940 C   0  0  0  0  0  0  0  0  0  0  0  0
  128.6110  127.5810   74.2480 C   0  0  0  0  0  0  0  0  0  0  0  0
  129.9200  127.3080   74.7230 O   0  0  0  0  0  0  0  0  0  0  0  0
  130.5680  126.3200   73.9380 C   0  0  0  0  0  0  0  0  0  0  0  0
  130.6830  126.8010   72.4750 C   0  0  0  0  0  0  0  0  0  0  0  0
  130.3370  127.7430   69.7220 C   0  0  0  0  0  0  0  0  0  0  0  0
  130.2120  127.9290   68.3490 C   0  0  0  0  0  0  0  0  0  0  0  0
  129.3750  126.9910   65.2950 C   0  0  0  0  0  0  0  0  0  0  0  0
  130.0420  125.7190   65.4180 C   0  0  0  0  0  0  0  0  0  0  0  0
  130.2790  125.1250   66.6310 N   0  0  0  0  0  0  0  0  0  0  0  0
  133.5140  122.3500   62.1060 C   0  0  0  0  0  0  0  0  0  0  0  0
  134.0700  121.2300   61.4930 C   0  0  0  0  0  0  0  0  0  0  0  0
  130.0610  117.4703   61.5266 H   0  0  0  0  0  0  0  0  0  0  0  0
  130.4180  118.3773   60.0178 H   0  0  0  0  0  0  0  0  0  0  0  0
  130.4615  116.5816   60.0178 H   0  0  0  0  0  0  0  0  0  0  0  0
  132.2875  118.1125   61.9008 H   0  0  0  0  0  0  0  0  0  0  0  0
  132.5149  116.4958   61.1524 H   0  0  0  0  0  0  0  0  0  0  0  0
  131.2152  119.7782   60.3122 H   0  0  0  0  0  0  0  0  0  0  0  0
  130.2238  121.7745   61.4041 H   0  0  0  0  0  0  0  0  0  0  0  0
  131.1990  124.3690   62.0000 H   0  0  0  0  0  0  0  0  0  0  0  0
  125.4085  129.6817   64.1044 H   0  0  0  0  0  0  0  0  0  0  0  0
  124.2560  131.6826   63.2125 H   0  0  0  0  0  0  0  0  0  0  0  0
  127.0792  135.2529   62.3515 H   0  0  0  0  0  0  0  0  0  0  0  0
  126.4925  134.6933   60.7118 H   0  0  0  0  0  0  0  0  0  0  0  0
  125.1404  136.7429   62.5278 H   0  0  0  0  0  0  0  0  0  0  0  0
  126.0033  137.0630   60.9801 H   0  0  0  0  0  0  0  0  0  0  0  0
  123.1186  135.5337   62.4865 H   0  0  0  0  0  0  0  0  0  0  0  0
  122.4699  134.9632   60.9072 H   0  0  0  0  0  0  0  0  0  0  0  0
  123.5048  133.1202   62.2614 H   0  0  0  0  0  0  0  0  0  0  0  0
  124.3328  133.4098   60.6575 H   0  0  0  0  0  0  0  0  0  0  0  0
  128.0730  133.6045   62.5949 H   0  0  0  0  0  0  0  0  0  0  0  0
  129.2227  131.5993   63.4770 H   0  0  0  0  0  0  0  0  0  0  0  0
  127.7714  129.7722   66.4758 H   0  0  0  0  0  0  0  0  0  0  0  0
  126.9128  127.1635   67.9957 H   0  0  0  0  0  0  0  0  0  0  0  0
  127.1284  126.8554   70.4452 H   0  0  0  0  0  0  0  0  0  0  0  0
  129.1919  129.0665   72.7896 H   0  0  0  0  0  0  0  0  0  0  0  0
  127.6384  128.1768   72.4321 H   0  0  0  0  0  0  0  0  0  0  0  0
  128.1443  128.3462   74.8856 H   0  0  0  0  0  0  0  0  0  0  0  0
  128.0156  126.6565   74.2783 H   0  0  0  0  0  0  0  0  0  0  0  0
  131.5747  126.1364   74.3415 H   0  0  0  0  0  0  0  0  0  0  0  0
  129.9795  125.3911   73.9680 H   0  0  0  0  0  0  0  0  0  0  0  0
  131.3495  127.6757   72.4467 H   0  0  0  0  0  0  0  0  0  0  0  0
  131.0769  125.9596   71.8861 H   0  0  0  0  0  0  0  0  0  0  0  0
  131.3116  127.9091   70.2043 H   0  0  0  0  0  0  0  0  0  0  0  0
  131.0880  128.2327   67.7571 H   0  0  0  0  0  0  0  0  0  0  0  0
  130.8850  124.3210   66.7220 H   0  0  0  0  0  0  0  0  0  0  0  0
  129.8530  125.4720   67.4790 H   0  0  0  0  0  0  0  0  0  0  0  0
  134.1645  123.0765   62.6150 H   0  0  0  0  0  0  0  0  0  0  0  0
  135.1591  121.0782   61.5208 H   0  0  0  0  0  0  0  0  0  0  0  0
  1  2  1  0
  2  3  1  0
  3  4  1  0
  4  5  2  0
  4  6  1  0
  6  7  2  0
  7  8  1  0
  8  9  2  0
  9 10  1  0
 10 11  1  0
 11 12  2  0
 11 13  1  0
 13 14  1  0
 14 15  1  0
 15 16  2  0
 16 17  1  0
 17 18  1  0
 18 19  2  0
 19 20  1  0
 20 21  2  0
 21 22  1  0
 22 23  1  0
 23 24  1  0
 24 25  1  0
 25 26  1  0
 26 27  1  0
 21 28  1  0
 28 29  2  0
 17 30  2  0
 30 31  1  0
 31 32  1  0
 32 33  2  0
 33 34  1  0
 34 35  2  0
 35 36  1  0
 36 37  1  0
 37 38  1  0
 38 39  1  0
 39 40  1  0
 40 41  1  0
 35 42  1  0
 42 43  2  0
 31 44  2  0
 44 45  1  0
 45 46  1  0
  9 47  1  0
 47 48  2  0
 48  6  1  0
 45 13  2  0
 44 15  1  0
 29 18  1  0
 43 32  1  0
 27 22  1  0
 41 36  1  0
  1 49  1  0
  1 50  1  0
  1 51  1  0
  2 52  1  0
  2 53  1  0
  7 54  1  0
  8 55  1  0
 10 56  1  0
 19 57  1  0
 20 58  1  0
 23 59  1  0
 23 60  1  0
 24 61  1  0
 24 62  1  0
 26 63  1  0
 26 64  1  0
 27 65  1  0
 27 66  1  0
 28 67  1  0
 29 68  1  0
 30 69  1  0
 33 70  1  0
 34 71  1  0
 37 72  1  0
 37 73  1  0
 38 74  1  0
 38 75  1  0
 40 76  1  0
 40 77  1  0
 41 78  1  0
 41 79  1  0
 42 80  1  0
 43 81  1  0
 46 82  1  0
 46 83  1  0
 47 84  1  0
 48 85  1  0
M  END
>  <Binding energies>  (1) 
[1.13]

>  <Ligand effiencies>  (1) 
[0.022156862745098038]

>  <Interactions>  (1) 
["V-B:LEU:475:CD2:9230, V-B:ILE:369:CG2:8208, V-A:TYR:539:CE1:4873, V-B:ILE:369:CD1:8210, V-A:TYR:539:CD1:4871, V-A:ALA:541:CB:4890, V-B:TYR:539:CE1:9847, V-A:ILE:369:CD1:3236, V-A:LEU:475:CD2:4256, V-B:TYR:539:CD1:9845, V-A:GLY:454:CA:4046, V-A:GLU:543:CG:4905, V-A:ILE:369:CG2:3234, V-B:HIS:456:CE1:9040, H-B:GLU:543:OE2:9882, V-B:GLU:543:CD:9880, V-B:GLU:543:CB:9878, V-B:GLU:543:CG:9879, V-A:HIS:456:CE1:4066, V-A:TYR:484:CE2:4343, V-A:TYR:484:CZ:4344, V-A:GLU:543:CD:4906, V-A:GLU:543:CB:4904, V-B:GLU:543:C:9874, V-B:GLY:544:C:9884, V-A:SER:385:CA:3404, V-A:SER:385:C:3402, V-A:HIS:456:CD2:4065, V-A:GLY:544:C:4910, H-A:TYR:484:OH:4345, V-A:SER:385:CB:3406, V-A:LEU:373:CD1:3277, V-B:SER:385:CA:8378, V-B:SER:385:CB:8380, V-B:SER:385:C:8376, V-B:LEU:373:CD1:8251, V-A:PRO:482:CB:4323, V-A:PRO:482:CG:4324, V-B:TYR:539:CB:9843, V-A:GLU:543:C:4900, V-B:HIS:456:CD2:9039, V-A:HIS:456:CG:4063, H-B:LYS:547:NZ:9923, H-A:LYS:547:NZ:4949, V-B:LYS:547:CE:9922, H-B:GLU:543:O:9875, H-A:SER:385:N:3405"]

$$$$
9b_Ghoteimi_2023
     RDKit          3D

 72 78  0  0  0  0  0  0  0  0999 V2000
  127.5540  129.9730   66.8940 N   0  0  0  0  0  0  0  0  0  0  0  0
  127.8680  129.5330   65.6330 C   0  0  0  0  0  0  0  0  0  0  0  0
  127.4910  130.2090   64.4620 C   0  0  0  0  0  0  0  0  0  0  0  0
  126.7510  131.4670   64.3310 C   0  0  0  0  0  0  0  0  0  0  0  0
  126.7580  132.2990   65.2410 O   0  0  0  0  0  0  0  0  0  0  0  0
  126.0770  131.6270   63.1650 N   0  0  0  0  0  0  0  0  0  0  0  0
  125.2900  132.7070   62.7830 C   0  0  0  0  0  0  0  0  0  0  0  0
  125.6850  133.6310   61.8170 C   0  0  0  0  0  0  0  0  0  0  0  0
  124.6430  134.5250   61.7300 C   0  0  0  0  0  0  0  0  0  0  0  0
  123.6710  134.1570   62.5990 O   0  0  0  0  0  0  0  0  0  0  0  0
  124.0930  133.0040   63.2610 N   0  0  0  0  0  0  0  0  0  0  0  0
  128.0340  129.3440   63.0240 S   0  0  0  0  0  0  0  0  0  0  0  0
  128.7420  128.0780   63.9980 C   0  0  0  0  0  0  0  0  0  0  0  0
  129.3380  127.0230   63.4450 N   0  0  0  0  0  0  0  0  0  0  0  0
  129.8410  126.0860   64.2900 C   0  0  0  0  0  0  0  0  0  0  0  0
  130.4850  124.9020   63.6430 C   0  0  0  0  0  0  0  0  0  0  0  0
  130.4490  124.7260   62.2550 C   0  0  0  0  0  0  0  0  0  0  0  0
  131.0370  123.6150   61.6600 C   0  0  0  0  0  0  0  0  0  0  0  0
  131.6730  122.6310   62.4320 C   0  0  0  0  0  0  0  0  0  0  0  0
  132.2720  121.5090   61.8480 N   0  0  0  0  0  0  0  0  0  0  0  0
  133.6300  121.5760   61.2710 C   0  0  0  0  0  0  0  0  0  0  0  0
  134.2570  120.1940   60.9930 C   0  0  0  0  0  0  0  0  0  0  0  0
  133.3940  119.4270   60.1700 O   0  0  0  0  0  0  0  0  0  0  0  0
  132.1380  119.2120   60.7920 C   0  0  0  0  0  0  0  0  0  0  0  0
  131.4450  120.5630   61.0700 C   0  0  0  0  0  0  0  0  0  0  0  0
  131.7240  122.8220   63.8200 C   0  0  0  0  0  0  0  0  0  0  0  0
  131.1390  123.9360   64.4160 C   0  0  0  0  0  0  0  0  0  0  0  0
  129.7720  126.2190   65.6790 C   0  0  0  0  0  0  0  0  0  0  0  0
  129.1650  127.3360   66.2640 C   0  0  0  0  0  0  0  0  0  0  0  0
  129.1440  127.4450   67.7450 C   0  0  0  0  0  0  0  0  0  0  0  0
  127.9510  127.2690   68.4480 C   0  0  0  0  0  0  0  0  0  0  0  0
  127.9310  127.3510   69.8360 C   0  0  0  0  0  0  0  0  0  0  0  0
  129.1040  127.6120   70.5620 C   0  0  0  0  0  0  0  0  0  0  0  0
  129.1100  127.6830   71.9570 N   0  0  0  0  0  0  0  0  0  0  0  0
  127.8830  128.0980   72.6640 C   0  0  0  0  0  0  0  0  0  0  0  0
  128.1370  128.5160   74.1280 C   0  0  0  0  0  0  0  0  0  0  0  0
  128.7870  127.4650   74.8270 O   0  0  0  0  0  0  0  0  0  0  0  0
  130.0380  127.1390   74.2390 C   0  0  0  0  0  0  0  0  0  0  0  0
  129.8340  126.6910   72.7760 C   0  0  0  0  0  0  0  0  0  0  0  0
  130.3000  127.7690   69.8460 C   0  0  0  0  0  0  0  0  0  0  0  0
  130.3200  127.6870   68.4560 C   0  0  0  0  0  0  0  0  0  0  0  0
  128.6000  128.3140   65.3980 C   0  0  0  0  0  0  0  0  0  0  0  0
  127.7800  129.4340   67.7180 H   0  0  0  0  0  0  0  0  0  0  0  0
  127.0850  130.8560   67.0420 H   0  0  0  0  0  0  0  0  0  0  0  0
  126.1500  130.8830   62.4870 H   0  0  0  0  0  0  0  0  0  0  0  0
  126.6261  133.6428   61.2476 H   0  0  0  0  0  0  0  0  0  0  0  0
  124.6051  135.3983   61.0622 H   0  0  0  0  0  0  0  0  0  0  0  0
  129.9486  125.4769   61.6259 H   0  0  0  0  0  0  0  0  0  0  0  0
  131.0029  123.5059   60.5660 H   0  0  0  0  0  0  0  0  0  0  0  0
  133.5768  122.1300   60.3222 H   0  0  0  0  0  0  0  0  0  0  0  0
  134.2697  122.0746   62.0141 H   0  0  0  0  0  0  0  0  0  0  0  0
  135.2226  120.3279   60.4834 H   0  0  0  0  0  0  0  0  0  0  0  0
  134.4086  119.6676   61.9469 H   0  0  0  0  0  0  0  0  0  0  0  0
  131.5025  118.6069   60.1287 H   0  0  0  0  0  0  0  0  0  0  0  0
  132.2939  118.6848   61.7448 H   0  0  0  0  0  0  0  0  0  0  0  0
  131.1976  121.0307   60.1056 H   0  0  0  0  0  0  0  0  0  0  0  0
  130.5519  120.3464   61.6745 H   0  0  0  0  0  0  0  0  0  0  0  0
  132.2352  122.0786   64.4492 H   0  0  0  0  0  0  0  0  0  0  0  0
  131.1915  124.0583   65.5079 H   0  0  0  0  0  0  0  0  0  0  0  0
  130.2004  125.4354   66.3212 H   0  0  0  0  0  0  0  0  0  0  0  0
  127.0196  127.0639   67.8999 H   0  0  0  0  0  0  0  0  0  0  0  0
  126.9817  127.2092   70.3733 H   0  0  0  0  0  0  0  0  0  0  0  0
  127.4424  128.9516   72.1281 H   0  0  0  0  0  0  0  0  0  0  0  0
  127.2078  127.2299   72.6842 H   0  0  0  0  0  0  0  0  0  0  0  0
  128.7731  129.4132   74.1456 H   0  0  0  0  0  0  0  0  0  0  0  0
  127.1742  128.7319   74.6142 H   0  0  0  0  0  0  0  0  0  0  0  0
  130.6922  128.0231   74.2612 H   0  0  0  0  0  0  0  0  0  0  0  0
  130.5003  126.3179   74.8065 H   0  0  0  0  0  0  0  0  0  0  0  0
  130.8213  126.5180   72.3229 H   0  0  0  0  0  0  0  0  0  0  0  0
  129.2219  125.7773   72.7975 H   0  0  0  0  0  0  0  0  0  0  0  0
  131.2364  127.9598   70.3908 H   0  0  0  0  0  0  0  0  0  0  0  0
  131.2693  127.8139   67.9149 H   0  0  0  0  0  0  0  0  0  0  0  0
  1  2  1  0
  2  3  2  0
  3  4  1  0
  4  5  2  0
  4  6  1  0
  6  7  1  0
  7  8  1  0
  8  9  2  0
  9 10  1  0
 10 11  1  0
  3 12  1  0
 12 13  1  0
 13 14  2  0
 14 15  1  0
 15 16  1  0
 16 17  2  0
 17 18  1  0
 18 19  2  0
 19 20  1  0
 20 21  1  0
 21 22  1  0
 22 23  1  0
 23 24  1  0
 24 25  1  0
 19 26  1  0
 26 27  2  0
 15 28  2  0
 28 29  1  0
 29 30  1  0
 30 31  2  0
 31 32  1  0
 32 33  2  0
 33 34  1  0
 34 35  1  0
 35 36  1  0
 36 37  1  0
 37 38  1  0
 38 39  1  0
 33 40  1  0
 40 41  2  0
 29 42  2  0
 42  2  1  0
 11  7  2  0
 42 13  1  0
 27 16  1  0
 41 30  1  0
 25 20  1  0
 39 34  1  0
  1 43  1  0
  1 44  1  0
  6 45  1  0
  8 46  1  0
  9 47  1  0
 17 48  1  0
 18 49  1  0
 21 50  1  0
 21 51  1  0
 22 52  1  0
 22 53  1  0
 24 54  1  0
 24 55  1  0
 25 56  1  0
 25 57  1  0
 26 58  1  0
 27 59  1  0
 28 60  1  0
 31 61  1  0
 32 62  1  0
 35 63  1  0
 35 64  1  0
 36 65  1  0
 36 66  1  0
 38 67  1  0
 38 68  1  0
 39 69  1  0
 39 70  1  0
 40 71  1  0
 41 72  1  0
M  END
>  <Binding energies>  (1) 
[-0.43]

>  <Ligand effiencies>  (1) 
[-0.009555555555555555]

>  <Interactions>  (1) 
["V-B:LEU:475:CD2:9230, V-B:ILE:369:CG2:8208, V-A:TYR:539:CE1:4873, V-A:TYR:539:CD1:4871, V-B:TYR:539:CE1:9847, V-A:ILE:369:CD1:3236, V-A:LEU:475:CD2:4256, V-B:TYR:539:CD1:9845, V-A:GLU:543:CG:4905, V-A:ILE:369:CG2:3234, V-B:HIS:456:CE1:9040, V-B:GLU:543:CD:9880, V-B:GLU:543:CB:9878, V-B:GLU:543:CG:9879, V-A:HIS:456:CE1:4066, H-B:GLY:454:N:9021, V-A:GLU:543:CD:4906, V-A:GLU:543:CB:4904, V-B:GLU:543:C:9874, V-B:GLY:544:C:9884, V-A:SER:385:CA:3404, V-A:SER:385:C:3402, V-B:TYR:484:CE2:9317, V-B:TYR:484:CZ:9318, V-A:HIS:456:CD2:4065, V-A:GLY:544:C:4910, V-A:SER:385:CB:3406, H-B:TYR:484:OH:9319, V-A:GLU:543:C:4900, V-B:HIS:456:CD2:9039, V-B:HIS:456:CG:9037, V-A:LYS:547:CE:4948, H-B:LYS:547:NZ:9923, H-A:LYS:547:NZ:4949, H-A:GLU:543:O:4901"]

$$$$
9c_Ghoteimi_2023
     RDKit          3D

 72 78  0  0  0  0  0  0  0  0999 V2000
  130.4350  124.6820   60.8860 N   0  0  0  0  0  0  0  0  0  0  0  0
  130.9530  124.3850   62.1220 C   0  0  0  0  0  0  0  0  0  0  0  0
  131.8390  123.3220   62.3540 C   0  0  0  0  0  0  0  0  0  0  0  0
  132.3910  122.3660   61.3900 C   0  0  0  0  0  0  0  0  0  0  0  0
  132.7910  122.7420   60.2860 O   0  0  0  0  0  0  0  0  0  0  0  0
  132.4160  121.0740   61.8010 N   0  0  0  0  0  0  0  0  0  0  0  0
  132.8710  119.9780   61.0820 C   0  0  0  0  0  0  0  0  0  0  0  0
  134.0820  119.7620   60.6170 N   0  0  0  0  0  0  0  0  0  0  0  0
  134.1560  118.6130   59.9730 C   0  0  0  0  0  0  0  0  0  0  0  0
  132.9820  117.8680   59.9050 C   0  0  0  0  0  0  0  0  0  0  0  0
  131.7190  118.7280   60.7340 S   0  0  0  0  0  0  0  0  0  0  0  0
  132.2750  123.2170   64.0590 S   0  0  0  0  0  0  0  0  0  0  0  0
  131.2570  124.5810   64.4510 C   0  0  0  0  0  0  0  0  0  0  0  0
  131.1280  125.0190   65.7020 N   0  0  0  0  0  0  0  0  0  0  0  0
  130.2980  126.0760   65.9030 C   0  0  0  0  0  0  0  0  0  0  0  0
  130.1540  126.5330   67.3190 C   0  0  0  0  0  0  0  0  0  0  0  0
  131.1810  127.2350   67.9610 C   0  0  0  0  0  0  0  0  0  0  0  0
  131.0470  127.6500   69.2820 C   0  0  0  0  0  0  0  0  0  0  0  0
  129.8820  127.3670   70.0150 C   0  0  0  0  0  0  0  0  0  0  0  0
  129.7290  127.7830   71.3430 N   0  0  0  0  0  0  0  0  0  0  0  0
  130.2720  126.9910   72.4650 C   0  0  0  0  0  0  0  0  0  0  0  0
  130.3210  127.7580   73.8030 C   0  0  0  0  0  0  0  0  0  0  0  0
  129.0340  128.2670   74.1170 O   0  0  0  0  0  0  0  0  0  0  0  0
  128.5750  129.1660   73.1210 C   0  0  0  0  0  0  0  0  0  0  0  0
  128.4750  128.4450   71.7600 C   0  0  0  0  0  0  0  0  0  0  0  0
  128.8500  126.6800   69.3610 C   0  0  0  0  0  0  0  0  0  0  0  0
  128.9840  126.2690   68.0380 C   0  0  0  0  0  0  0  0  0  0  0  0
  129.6250  126.7070   64.8540 C   0  0  0  0  0  0  0  0  0  0  0  0
  129.7760  126.2640   63.5350 C   0  0  0  0  0  0  0  0  0  0  0  0
  129.0650  126.9870   62.4510 C   0  0  0  0  0  0  0  0  0  0  0  0
  127.6720  126.9510   62.3760 C   0  0  0  0  0  0  0  0  0  0  0  0
  127.0000  127.6420   61.3700 C   0  0  0  0  0  0  0  0  0  0  0  0
  127.7050  128.3860   60.4130 C   0  0  0  0  0  0  0  0  0  0  0  0
  127.0510  129.0970   59.4010 N   0  0  0  0  0  0  0  0  0  0  0  0
  125.6330  129.4640   59.5810 C   0  0  0  0  0  0  0  0  0  0  0  0
  124.9410  129.8820   58.2660 C   0  0  0  0  0  0  0  0  0  0  0  0
  125.6600  130.9430   57.6550 O   0  0  0  0  0  0  0  0  0  0  0  0
  126.9930  130.5650   57.3490 C   0  0  0  0  0  0  0  0  0  0  0  0
  127.7380  130.1580   58.6400 C   0  0  0  0  0  0  0  0  0  0  0  0
  129.1040  128.4330   60.5110 C   0  0  0  0  0  0  0  0  0  0  0  0
  129.7750  127.7420   61.5160 C   0  0  0  0  0  0  0  0  0  0  0  0
  130.6130  125.1350   63.3050 C   0  0  0  0  0  0  0  0  0  0  0  0
  129.5960  125.2350   60.7780 H   0  0  0  0  0  0  0  0  0  0  0  0
  130.8760  124.3540   60.0390 H   0  0  0  0  0  0  0  0  0  0  0  0
  132.0720  120.8760   62.7300 H   0  0  0  0  0  0  0  0  0  0  0  0
  135.0931  118.2632   59.5153 H   0  0  0  0  0  0  0  0  0  0  0  0
  132.8714  116.8932   59.4074 H   0  0  0  0  0  0  0  0  0  0  0  0
  132.1074  127.4618   67.4130 H   0  0  0  0  0  0  0  0  0  0  0  0
  131.8655  128.2082   69.7600 H   0  0  0  0  0  0  0  0  0  0  0  0
  129.6401  126.1006   72.5987 H   0  0  0  0  0  0  0  0  0  0  0  0
  131.3097  126.7358   72.2041 H   0  0  0  0  0  0  0  0  0  0  0  0
  130.6483  127.0765   74.6020 H   0  0  0  0  0  0  0  0  0  0  0  0
  131.0290  128.5951   73.7141 H   0  0  0  0  0  0  0  0  0  0  0  0
  127.5828  129.5471   73.4044 H   0  0  0  0  0  0  0  0  0  0  0  0
  129.2863  130.0006   73.0345 H   0  0  0  0  0  0  0  0  0  0  0  0
  127.6860  127.6817   71.8289 H   0  0  0  0  0  0  0  0  0  0  0  0
  128.2518  129.2137   71.0055 H   0  0  0  0  0  0  0  0  0  0  0  0
  127.9179  126.4619   69.9028 H   0  0  0  0  0  0  0  0  0  0  0  0
  128.1583  125.7292   67.5513 H   0  0  0  0  0  0  0  0  0  0  0  0
  128.9680  127.5630   65.0674 H   0  0  0  0  0  0  0  0  0  0  0  0
  127.1002  126.3727   63.1167 H   0  0  0  0  0  0  0  0  0  0  0  0
  125.9016  127.6034   61.3258 H   0  0  0  0  0  0  0  0  0  0  0  0
  125.0979  128.5979   59.9976 H   0  0  0  0  0  0  0  0  0  0  0  0
  125.6033  130.3320   60.2560 H   0  0  0  0  0  0  0  0  0  0  0  0
  124.9095  129.0216   57.5814 H   0  0  0  0  0  0  0  0  0  0  0  0
  123.9179  130.2198   58.4878 H   0  0  0  0  0  0  0  0  0  0  0  0
  126.9792  129.7134   56.6528 H   0  0  0  0  0  0  0  0  0  0  0  0
  127.5123  131.4174   56.8866 H   0  0  0  0  0  0  0  0  0  0  0  0
  128.7404  129.7975   58.3657 H   0  0  0  0  0  0  0  0  0  0  0  0
  127.7795  131.0473   59.2861 H   0  0  0  0  0  0  0  0  0  0  0  0
  129.6788  129.0244   59.7831 H   0  0  0  0  0  0  0  0  0  0  0  0
  130.8724  127.7913   61.5737 H   0  0  0  0  0  0  0  0  0  0  0  0
  1  2  1  0
  2  3  2  0
  3  4  1  0
  4  5  2  0
  4  6  1  0
  6  7  1  0
  7  8  2  0
  8  9  1  0
  9 10  2  0
 10 11  1  0
  3 12  1  0
 12 13  1  0
 13 14  2  0
 14 15  1  0
 15 16  1  0
 16 17  2  0
 17 18  1  0
 18 19  2  0
 19 20  1  0
 20 21  1  0
 21 22  1  0
 22 23  1  0
 23 24  1  0
 24 25  1  0
 19 26  1  0
 26 27  2  0
 15 28  2  0
 28 29  1  0
 29 30  1  0
 30 31  2  0
 31 32  1  0
 32 33  2  0
 33 34  1  0
 34 35  1  0
 35 36  1  0
 36 37  1  0
 37 38  1  0
 38 39  1  0
 33 40  1  0
 40 41  2  0
 29 42  2  0
 42  2  1  0
 11  7  1  0
 42 13  1  0
 27 16  1  0
 41 30  1  0
 25 20  1  0
 39 34  1  0
  1 43  1  0
  1 44  1  0
  6 45  1  0
  9 46  1  0
 10 47  1  0
 17 48  1  0
 18 49  1  0
 21 50  1  0
 21 51  1  0
 22 52  1  0
 22 53  1  0
 24 54  1  0
 24 55  1  0
 25 56  1  0
 25 57  1  0
 26 58  1  0
 27 59  1  0
 28 60  1  0
 31 61  1  0
 32 62  1  0
 35 63  1  0
 35 64  1  0
 36 65  1  0
 36 66  1  0
 38 67  1  0
 38 68  1  0
 39 69  1  0
 39 70  1  0
 40 71  1  0
 41 72  1  0
M  END
>  <Binding energies>  (1) 
[-0.38]

>  <Ligand effiencies>  (1) 
[-0.008444444444444445]

>  <Interactions>  (1) 
["V-A:TYR:539:CZ:4875, V-B:ASP:366:CB:8183, H-A:TYR:539:OH:4876, V-A:TYR:539:CE1:4873, V-B:ASP:366:CG:8184, V-B:TYR:539:CE1:9847, V-A:LEU:475:CD2:4256, V-B:TYR:539:CD1:9845, V-A:GLY:454:CA:4046, V-A:GLU:543:CG:4905, V-A:ILE:369:CG2:3234, V-B:HIS:456:CE1:9040, V-B:GLU:543:CD:9880, V-B:GLU:543:CB:9878, V-B:GLU:543:CG:9879, V-A:HIS:456:CE1:4066, V-A:TYR:484:CZ:4344, V-A:GLU:543:CD:4906, V-B:GLU:543:C:9874, V-B:ASP:366:CA:8181, V-A:ARG:545:CG:4920, V-A:SER:385:CA:3404, V-A:SER:385:C:3402, V-A:HIS:456:CD2:4065, V-A:GLY:544:C:4910, H-A:TYR:484:OH:4345, V-A:SER:385:CB:3406, V-A:LEU:373:CD1:3277, V-A:VAL:384:C:3394, V-A:GLU:543:C:4900, V-B:HIS:456:CD2:9039, V-B:HIS:456:CG:9037, V-A:LYS:547:CE:4948, H-B:LYS:547:NZ:9923, H-A:LYS:547:NZ:4949, V-B:GLU:543:CA:9876, V-A:LEU:373:CG:3276"]

$$$$
9d_Ghoteimi_2023
     RDKit          3D

 68 73  0  0  0  0  0  0  0  0999 V2000
  133.6690  122.2040   60.2650 C   0  0  0  0  0  0  0  0  0  0  0  0
  134.2610  123.3880   59.7510 O   0  0  0  0  0  0  0  0  0  0  0  0
  134.6820  124.3740   60.5860 C   0  0  0  0  0  0  0  0  0  0  0  0
  135.7770  124.9350   60.4930 O   0  0  0  0  0  0  0  0  0  0  0  0
  133.6890  124.7080   61.6300 C   0  0  0  0  0  0  0  0  0  0  0  0
  134.2310  125.1180   63.2580 S   0  0  0  0  0  0  0  0  0  0  0  0
  132.5850  125.3790   63.7830 C   0  0  0  0  0  0  0  0  0  0  0  0
  132.3030  125.7750   65.0230 N   0  0  0  0  0  0  0  0  0  0  0  0
  130.9920  125.9670   65.3270 C   0  0  0  0  0  0  0  0  0  0  0  0
  130.7010  126.4360   66.7170 C   0  0  0  0  0  0  0  0  0  0  0  0
  129.5680  125.9790   67.3970 C   0  0  0  0  0  0  0  0  0  0  0  0
  129.2870  126.4120   68.6900 C   0  0  0  0  0  0  0  0  0  0  0  0
  130.1380  127.3090   69.3560 C   0  0  0  0  0  0  0  0  0  0  0  0
  129.8590  127.7660   70.6490 N   0  0  0  0  0  0  0  0  0  0  0  0
  128.5050  127.6590   71.2270 C   0  0  0  0  0  0  0  0  0  0  0  0
  128.2980  128.5110   72.4960 C   0  0  0  0  0  0  0  0  0  0  0  0
  129.2880  128.1950   73.4600 O   0  0  0  0  0  0  0  0  0  0  0  0
  130.5930  128.4600   72.9700 C   0  0  0  0  0  0  0  0  0  0  0  0
  130.8720  127.6070   71.7140 C   0  0  0  0  0  0  0  0  0  0  0  0
  131.2640  127.7750   68.6630 C   0  0  0  0  0  0  0  0  0  0  0  0
  131.5430  127.3450   67.3680 C   0  0  0  0  0  0  0  0  0  0  0  0
  129.9700  125.7300   64.4040 C   0  0  0  0  0  0  0  0  0  0  0  0
  130.2600  125.2950   63.1060 C   0  0  0  0  0  0  0  0  0  0  0  0
  129.1340  125.0320   62.1720 C   0  0  0  0  0  0  0  0  0  0  0  0
  128.8970  123.7450   61.6850 C   0  0  0  0  0  0  0  0  0  0  0  0
  127.8290  123.5000   60.8250 C   0  0  0  0  0  0  0  0  0  0  0  0
  126.9600  124.5340   60.4440 C   0  0  0  0  0  0  0  0  0  0  0  0
  125.8880  124.3160   59.5760 N   0  0  0  0  0  0  0  0  0  0  0  0
  124.6970  123.5990   60.0720 C   0  0  0  0  0  0  0  0  0  0  0  0
  123.4610  123.7680   59.1620 C   0  0  0  0  0  0  0  0  0  0  0  0
  123.7760  123.3700   57.8360 O   0  0  0  0  0  0  0  0  0  0  0  0
  124.8330  124.1470   57.2920 C   0  0  0  0  0  0  0  0  0  0  0  0
  126.1030  123.9830   58.1540 C   0  0  0  0  0  0  0  0  0  0  0  0
  127.2080  125.8220   60.9380 C   0  0  0  0  0  0  0  0  0  0  0  0
  128.2770  126.0670   61.7960 C   0  0  0  0  0  0  0  0  0  0  0  0
  131.6290  125.1280   62.7540 C   0  0  0  0  0  0  0  0  0  0  0  0
  132.2940  124.7660   61.5290 C   0  0  0  0  0  0  0  0  0  0  0  0
  131.6200  124.5200   60.3610 N   0  0  0  0  0  0  0  0  0  0  0  0
  133.6840  122.2340   61.3645 H   0  0  0  0  0  0  0  0  0  0  0  0
  132.6289  122.1321   59.9143 H   0  0  0  0  0  0  0  0  0  0  0  0
  134.2355  121.3287   59.9143 H   0  0  0  0  0  0  0  0  0  0  0  0
  128.8894  125.2676   66.9036 H   0  0  0  0  0  0  0  0  0  0  0  0
  128.3832  126.0453   69.1986 H   0  0  0  0  0  0  0  0  0  0  0  0
  127.7779  127.9849   70.4686 H   0  0  0  0  0  0  0  0  0  0  0  0
  128.3657  126.6084   71.5216 H   0  0  0  0  0  0  0  0  0  0  0  0
  128.3713  129.5770   72.2348 H   0  0  0  0  0  0  0  0  0  0  0  0
  127.3042  128.2968   72.9161 H   0  0  0  0  0  0  0  0  0  0  0  0
  130.6749  129.5260   72.7113 H   0  0  0  0  0  0  0  0  0  0  0  0
  131.3279  128.2059   73.7480 H   0  0  0  0  0  0  0  0  0  0  0  0
  131.8517  127.8982   71.3073 H   0  0  0  0  0  0  0  0  0  0  0  0
  130.8439  126.5534   72.0289 H   0  0  0  0  0  0  0  0  0  0  0  0
  131.9394  128.4932   69.1508 H   0  0  0  0  0  0  0  0  0  0  0  0
  132.4363  127.7245   66.8503 H   0  0  0  0  0  0  0  0  0  0  0  0
  128.9229  125.8876   64.7019 H   0  0  0  0  0  0  0  0  0  0  0  0
  129.5587  122.9183   61.9828 H   0  0  0  0  0  0  0  0  0  0  0  0
  127.6646  122.4830   60.4395 H   0  0  0  0  0  0  0  0  0  0  0  0
  124.9372  122.5277   60.1397 H   0  0  0  0  0  0  0  0  0  0  0  0
  124.4420  124.0286   61.0520 H   0  0  0  0  0  0  0  0  0  0  0  0
  122.6394  123.1443   59.5440 H   0  0  0  0  0  0  0  0  0  0  0  0
  123.1567  124.8251   59.1590 H   0  0  0  0  0  0  0  0  0  0  0  0
  125.0426  123.8103   56.2660 H   0  0  0  0  0  0  0  0  0  0  0  0
  124.5361  125.2061   57.2824 H   0  0  0  0  0  0  0  0  0  0  0  0
  126.4386  122.9376   58.0867 H   0  0  0  0  0  0  0  0  0  0  0  0
  126.8553  124.6845   57.7642 H   0  0  0  0  0  0  0  0  0  0  0  0
  126.5484  126.6516   60.6435 H   0  0  0  0  0  0  0  0  0  0  0  0
  128.4471  127.0836   62.1801 H   0  0  0  0  0  0  0  0  0  0  0  0
  132.0500  124.0240   59.5930 H   0  0  0  0  0  0  0  0  0  0  0  0
  130.6650  124.8240   60.2290 H   0  0  0  0  0  0  0  0  0  0  0  0
  1  2  1  0
  2  3  1  0
  3  4  2  0
  3  5  1  0
  5  6  1  0
  6  7  1  0
  7  8  2  0
  8  9  1  0
  9 10  1  0
 10 11  2  0
 11 12  1  0
 12 13  2  0
 13 14  1  0
 14 15  1  0
 15 16  1  0
 16 17  1  0
 17 18  1  0
 18 19  1  0
 13 20  1  0
 20 21  2  0
  9 22  2  0
 22 23  1  0
 23 24  1  0
 24 25  2  0
 25 26  1  0
 26 27  2  0
 27 28  1  0
 28 29  1  0
 29 30  1  0
 30 31  1  0
 31 32  1  0
 32 33  1  0
 27 34  1  0
 34 35  2  0
 23 36  2  0
 36 37  1  0
 37 38  1  0
 37  5  2  0
 36  7  1  0
 21 10  1  0
 35 24  1  0
 19 14  1  0
 33 28  1  0
  1 39  1  0
  1 40  1  0
  1 41  1  0
 11 42  1  0
 12 43  1  0
 15 44  1  0
 15 45  1  0
 16 46  1  0
 16 47  1  0
 18 48  1  0
 18 49  1  0
 19 50  1  0
 19 51  1  0
 20 52  1  0
 21 53  1  0
 22 54  1  0
 25 55  1  0
 26 56  1  0
 29 57  1  0
 29 58  1  0
 30 59  1  0
 30 60  1  0
 32 61  1  0
 32 62  1  0
 33 63  1  0
 33 64  1  0
 34 65  1  0
 35 66  1  0
 38 67  1  0
 38 68  1  0
M  END
>  <Binding energies>  (1) 
[-3.23]

>  <Ligand effiencies>  (1) 
[-0.08075]

>  <Interactions>  (1) 
["V-B:ASP:366:CB:8183, V-B:ASP:366:CG:8184, V-B:TYR:539:CE1:9847, V-A:ILE:369:CD1:3236, V-B:PRO:540:CA:9855, V-A:GLY:453:C:4039, V-A:GLY:454:CA:4046, V-A:GLU:543:CG:4905, V-A:ASP:366:CG:3210, V-A:ILE:369:CG2:3234, V-B:HIS:456:CE1:9040, V-B:GLU:543:CD:9880, H-A:ARG:545:NH2:4926, V-B:GLU:543:CB:9878, V-B:GLU:543:CG:9879, V-A:HIS:456:CE1:4066, V-A:ASP:366:CA:3207, V-A:GLU:543:CD:4906, V-B:GLU:543:C:9874, V-A:ILE:369:CB:3233, V-A:ARG:545:CZ:4924, V-A:ARG:545:CG:4920, V-A:ARG:545:CD:4921, V-B:PRO:540:CB:9857, V-B:TYR:531:CE2:9765, V-B:TYR:531:CZ:9766, V-A:ILE:369:CG1:3235, V-A:HIS:456:CD2:4065, V-A:GLY:453:CA:4041, V-A:GLY:544:C:4910, H-A:TYR:484:OH:4345, H-A:ARG:545:NE:4922, V-B:LEU:363:CA:8156, V-B:LEU:363:CD1:8160, V-B:ASN:362:C:8143, V-A:GLY:544:CA:4912, V-A:GLU:543:C:4900, V-B:HIS:456:CD2:9039, V-B:HIS:456:CG:9037, V-A:LYS:547:CE:4948, H-A:LYS:547:NZ:4949, V-B:LEU:363:CB:8158, H-A:ASP:366:N:3208"]

$$$$
RR10_Rahimova_2017
     RDKit          3D

 66 70  0  0  0  0  0  0  0  0999 V2000
  134.7000  134.2080   72.2740 C   0  0  0  0  0  0  0  0  0  0  0  0
  133.3240  134.7930   72.6370 C   0  0  1  0  0  0  0  0  0  0  0  0
  132.1970  134.2040   71.7560 C   0  0  0  0  0  0  0  0  0  0  0  0
  130.8300  134.8310   72.1140 C   0  0  0  0  0  0  0  0  0  0  0  0
  130.4670  134.6270   73.6070 C   0  0  1  0  0  0  0  0  0  0  0  0
  130.2050  133.2100   73.8910 N   0  0  0  0  0  0  0  0  0  0  0  0
  128.9930  132.6250   73.8850 C   0  0  0  0  0  0  0  0  0  0  0  0
  127.9550  133.2320   73.6120 O   0  0  0  0  0  0  0  0  0  0  0  0
  128.9440  131.1280   74.2570 C   0  0  1  0  0  0  0  0  0  0  0  0
  127.6010  130.8180   74.9670 C   0  0  0  0  0  0  0  0  0  0  0  0
  127.5080  129.3010   75.2580 C   0  0  0  0  0  0  0  0  0  0  0  0
  127.7670  128.4390   74.0010 C   0  0  0  0  0  0  0  0  0  0  0  0
  129.0400  128.8410   73.3420 N   0  0  0  0  0  0  0  0  0  0  0  0
  129.5900  127.7350   72.0730 S   0  0  0  0  0  0  0  0  0  0  0  0
  130.8860  128.2150   71.5790 O   0  0  0  0  0  0  0  0  0  0  0  0
  128.4740  127.5280   71.1400 O   0  0  0  0  0  0  0  0  0  0  0  0
  129.9010  126.1810   72.9110 C   0  0  0  0  0  0  0  0  0  0  0  0
  130.9990  126.0760   73.7720 C   0  0  0  0  0  0  0  0  0  0  0  0
  131.2980  124.8920   74.4540 C   0  0  0  0  0  0  0  0  0  0  0  0
  130.4400  123.8120   74.2340 C   0  0  0  0  0  0  0  0  0  0  0  0
  130.3990  122.5190   74.6980 N   0  0  0  0  0  0  0  0  0  0  0  0
  129.3080  121.8970   74.1280 C   0  0  0  0  0  0  0  0  0  0  0  0
  128.9370  120.4650   74.3890 C   0  0  0  0  0  0  0  0  0  0  0  0
  127.9030  119.8560   73.6640 C   0  0  0  0  0  0  0  0  0  0  0  0
  127.5610  118.5280   73.9020 C   0  0  0  0  0  0  0  0  0  0  0  0
  128.2510  117.8000   74.8690 C   0  0  0  0  0  0  0  0  0  0  0  0
  129.2800  118.3900   75.5970 C   0  0  0  0  0  0  0  0  0  0  0  0
  129.6220  119.7190   75.3570 C   0  0  0  0  0  0  0  0  0  0  0  0
  128.6410  122.7040   73.3340 N   0  0  0  0  0  0  0  0  0  0  0  0
  129.3170  123.8950   73.3760 C   0  0  0  0  0  0  0  0  0  0  0  0
  129.0410  125.0960   72.7070 C   0  0  0  0  0  0  0  0  0  0  0  0
  129.0860  130.2780   72.9700 C   0  0  0  0  0  0  0  0  0  0  0  0
  131.6140  135.2070   74.4780 C   0  0  0  0  0  0  0  0  0  0  0  0
  132.9810  134.5780   74.1290 C   0  0  0  0  0  0  0  0  0  0  0  0
  135.2531  133.9729   73.1953 H   0  0  0  0  0  0  0  0  0  0  0  0
  134.5639  133.2899   71.6836 H   0  0  0  0  0  0  0  0  0  0  0  0
  135.2667  134.9430   71.6836 H   0  0  0  0  0  0  0  0  0  0  0  0
  133.3914  135.8741   72.4452 H   0  0  0  0  0  0  0  0  0  0  0  0
  132.4216  134.4100   70.6991 H   0  0  0  0  0  0  0  0  0  0  0  0
  132.1430  133.1198   71.9339 H   0  0  0  0  0  0  0  0  0  0  0  0
  130.8686  135.9098   71.9027 H   0  0  0  0  0  0  0  0  0  0  0  0
  130.0598  134.3323   71.5073 H   0  0  0  0  0  0  0  0  0  0  0  0
  129.5386  135.1640   73.8511 H   0  0  0  0  0  0  0  0  0  0  0  0
  130.9920  132.6750   74.2270 H   0  0  0  0  0  0  0  0  0  0  0  0
  129.7703  130.8818   74.9401 H   0  0  0  0  0  0  0  0  0  0  0  0
  127.5493  131.3765   75.9133 H   0  0  0  0  0  0  0  0  0  0  0  0
  126.7656  131.1181   74.3173 H   0  0  0  0  0  0  0  0  0  0  0  0
  128.2550  129.0423   76.0229 H   0  0  0  0  0  0  0  0  0  0  0  0
  126.4851  129.0894   75.6029 H   0  0  0  0  0  0  0  0  0  0  0  0
  127.8309  127.3810   74.2953 H   0  0  0  0  0  0  0  0  0  0  0  0
  126.9389  128.5881   73.2925 H   0  0  0  0  0  0  0  0  0  0  0  0
  131.6476  126.9525   73.9171 H   0  0  0  0  0  0  0  0  0  0  0  0
  132.1636  124.8154   75.1284 H   0  0  0  0  0  0  0  0  0  0  0  0
  131.0310  122.0570   75.3370 H   0  0  0  0  0  0  0  0  0  0  0  0
  127.3581  120.4319   72.9015 H   0  0  0  0  0  0  0  0  0  0  0  0
  126.7496  118.0553   73.3292 H   0  0  0  0  0  0  0  0  0  0  0  0
  127.9804  116.7508   75.0585 H   0  0  0  0  0  0  0  0  0  0  0  0
  129.8210  117.8094   76.3587 H   0  0  0  0  0  0  0  0  0  0  0  0
  130.4356  120.1859   75.9316 H   0  0  0  0  0  0  0  0  0  0  0  0
  128.1712  125.1831   72.0393 H   0  0  0  0  0  0  0  0  0  0  0  0
  130.0453  130.5035   72.4813 H   0  0  0  0  0  0  0  0  0  0  0  0
  128.2670  130.5117   72.2738 H   0  0  0  0  0  0  0  0  0  0  0  0
  131.6705  136.2931   74.3133 H   0  0  0  0  0  0  0  0  0  0  0  0
  131.3921  134.9749   75.5301 H   0  0  0  0  0  0  0  0  0  0  0  0
  133.7608  135.0451   74.7485 H   0  0  0  0  0  0  0  0  0  0  0  0
  132.9300  133.4968   74.3250 H   0  0  0  0  0  0  0  0  0  0  0  0
  1  2  1  0
  2  3  1  0
  3  4  1  0
  4  5  1  0
  5  6  1  0
  6  7  1  0
  7  8  2  0
  7  9  1  0
  9 10  1  0
 10 11  1  0
 11 12  1  0
 12 13  1  0
 13 14  1  0
 14 15  2  0
 14 16  2  0
 14 17  1  0
 17 18  2  0
 18 19  1  0
 19 20  2  0
 20 21  1  0
 21 22  1  0
 22 23  1  0
 23 24  2  0
 24 25  1  0
 25 26  2  0
 26 27  1  0
 27 28  2  0
 22 29  2  0
 29 30  1  0
 30 31  2  0
 13 32  1  0
  5 33  1  0
 33 34  1  0
 34  2  1  0
 32  9  1  0
 31 17  1  0
 30 20  1  0
 28 23  1  0
  1 35  1  0
  1 36  1  0
  1 37  1  0
  2 38  1  1
  3 39  1  0
  3 40  1  0
  4 41  1  0
  4 42  1  0
  5 43  1  1
  6 44  1  0
  9 45  1  1
 10 46  1  0
 10 47  1  0
 11 48  1  0
 11 49  1  0
 12 50  1  0
 12 51  1  0
 18 52  1  0
 19 53  1  0
 21 54  1  0
 24 55  1  0
 25 56  1  0
 26 57  1  0
 27 58  1  0
 28 59  1  0
 31 60  1  0
 32 61  1  0
 32 62  1  0
 33 63  1  0
 33 64  1  0
 34 65  1  0
 34 66  1  0
M  END
>  <Binding energies>  (1) 
[-8.55]

>  <Ligand effiencies>  (1) 
[-0.23750000000000002]

>  <Interactions>  (1) 
["V-B:GLU:543:C:9874, V-A:HIS:456:CD2:4065, H-B:HIS:456:NE2:9041, V-A:GLY:544:CA:4912, V-A:GLU:543:C:4900, V-B:HIS:456:CD2:9039, V-B:HIS:456:CG:9037, V-A:LYS:547:CE:4948, V-B:GLY:544:CA:9886, V-A:HIS:456:CG:4063, V-A:HIS:456:CB:4062, H-A:LYS:547:NZ:4949, V-B:LYS:547:CE:9922, V-B:HIS:456:CB:9036, V-B:TYR:484:CB:9312, V-A:TYR:484:CB:4338, H-A:ASP:473:OD2:4239, V-A:VAL:542:CG1:4897, V-A:GLU:543:CA:4902, V-B:TYR:484:CA:9310, H-A:GLY:544:N:4913, V-A:VAL:542:C:4892"]

$$$$
RR11_Rahimova_2017
     RDKit          3D

 55 60  0  0  0  0  0  0  0  0999 V2000
  123.4220  133.8010   61.4170 N   0  0  0  0  0  0  0  0  0  0  0  0
  124.0430  132.9230   62.3030 C   0  0  0  0  0  0  0  0  0  0  0  0
  125.1270  133.3570   63.0640 C   0  0  0  0  0  0  0  0  0  0  0  0
  125.7440  132.4800   63.9510 C   0  0  0  0  0  0  0  0  0  0  0  0
  125.2860  131.1630   64.0860 C   0  0  0  0  0  0  0  0  0  0  0  0
  125.9500  130.2210   65.0460 C   0  0  0  0  0  0  0  0  0  0  0  0
  127.2510  130.0580   65.1480 N   0  0  0  0  0  0  0  0  0  0  0  0
  127.4230  129.1290   66.1400 C   0  0  0  0  0  0  0  0  0  0  0  0
  128.6110  128.5960   66.6590 C   0  0  0  0  0  0  0  0  0  0  0  0
  128.5240  127.6610   67.6970 C   0  0  0  0  0  0  0  0  0  0  0  0
  129.7970  127.0610   68.2770 C   0  0  0  0  0  0  0  0  0  0  0  0
  130.6600  126.3730   67.2280 C   0  0  0  0  0  0  0  0  0  0  0  0
  131.9760  126.8050   67.0270 C   0  0  0  0  0  0  0  0  0  0  0  0
  132.8090  126.2000   66.0840 C   0  0  0  0  0  0  0  0  0  0  0  0
  132.2940  125.1330   65.3360 C   0  0  0  0  0  0  0  0  0  0  0  0
  132.8980  124.3870   64.3570 N   0  0  0  0  0  0  0  0  0  0  0  0
  131.9890  123.5170   63.9730 C   0  0  0  0  0  0  0  0  0  0  0  0
  132.1970  122.4920   62.8950 C   0  0  0  0  0  0  0  0  0  0  0  0
  131.1040  121.8240   62.3290 C   0  0  0  0  0  0  0  0  0  0  0  0
  131.2970  120.8660   61.3370 C   0  0  0  0  0  0  0  0  0  0  0  0
  132.5880  120.5680   60.9050 C   0  0  0  0  0  0  0  0  0  0  0  0
  132.7830  119.6050   59.9160 N   0  0  0  0  0  0  0  0  0  0  0  0
  133.6840  121.2270   61.4560 C   0  0  0  0  0  0  0  0  0  0  0  0
  133.4890  122.1850   62.4470 C   0  0  0  0  0  0  0  0  0  0  0  0
  130.8090  123.6610   64.6700 N   0  0  0  0  0  0  0  0  0  0  0  0
  130.9660  124.6980   65.5590 C   0  0  0  0  0  0  0  0  0  0  0  0
  130.1290  125.2960   66.5050 C   0  0  0  0  0  0  0  0  0  0  0  0
  127.2780  127.2510   68.1850 C   0  0  0  0  0  0  0  0  0  0  0  0
  126.0760  127.7590   67.6860 C   0  0  0  0  0  0  0  0  0  0  0  0
  126.1780  128.7040   66.6620 C   0  0  0  0  0  0  0  0  0  0  0  0
  125.2580  129.4230   65.9340 N   0  0  0  0  0  0  0  0  0  0  0  0
  124.1960  130.7400   63.3130 C   0  0  0  0  0  0  0  0  0  0  0  0
  123.5760  131.6150   62.4260 C   0  0  0  0  0  0  0  0  0  0  0  0
  122.5990  134.3070   61.7140 H   0  0  0  0  0  0  0  0  0  0  0  0
  123.8240  133.9520   60.5040 H   0  0  0  0  0  0  0  0  0  0  0  0
  125.4936  134.3893   62.9638 H   0  0  0  0  0  0  0  0  0  0  0  0
  126.5990  132.8240   64.5515 H   0  0  0  0  0  0  0  0  0  0  0  0
  129.5884  128.9051   66.2601 H   0  0  0  0  0  0  0  0  0  0  0  0
  130.3847  127.8666   68.7414 H   0  0  0  0  0  0  0  0  0  0  0  0
  129.4975  126.2975   69.0101 H   0  0  0  0  0  0  0  0  0  0  0  0
  132.3635  127.6418   67.6267 H   0  0  0  0  0  0  0  0  0  0  0  0
  133.8404  126.5511   65.9325 H   0  0  0  0  0  0  0  0  0  0  0  0
  130.0849  122.0579   62.6708 H   0  0  0  0  0  0  0  0  0  0  0  0
  130.4336  120.3464   60.8960 H   0  0  0  0  0  0  0  0  0  0  0  0
  133.6730  119.5550   59.4390 H   0  0  0  0  0  0  0  0  0  0  0  0
  132.0460  118.9460   59.7120 H   0  0  0  0  0  0  0  0  0  0  0  0
  134.7009  120.9912   61.1092 H   0  0  0  0  0  0  0  0  0  0  0  0
  134.3554  122.7049   62.8817 H   0  0  0  0  0  0  0  0  0  0  0  0
  129.9960  123.0830   64.5120 H   0  0  0  0  0  0  0  0  0  0  0  0
  129.1025  124.9386   66.6741 H   0  0  0  0  0  0  0  0  0  0  0  0
  127.2439  126.5022   68.9900 H   0  0  0  0  0  0  0  0  0  0  0  0
  125.1016  127.4325   68.0783 H   0  0  0  0  0  0  0  0  0  0  0  0
  124.2520  129.4090   66.0010 H   0  0  0  0  0  0  0  0  0  0  0  0
  123.8276  129.7079   63.4082 H   0  0  0  0  0  0  0  0  0  0  0  0
  122.7202  131.2758   61.8239 H   0  0  0  0  0  0  0  0  0  0  0  0
  1  2  1  0
  2  3  2  0
  3  4  1  0
  4  5  2  0
  5  6  1  0
  6  7  2  0
  7  8  1  0
  8  9  2  0
  9 10  1  0
 10 11  1  0
 11 12  1  0
 12 13  2  0
 13 14  1  0
 14 15  2  0
 15 16  1  0
 16 17  2  0
 17 18  1  0
 18 19  2  0
 19 20  1  0
 20 21  2  0
 21 22  1  0
 21 23  1  0
 23 24  2  0
 17 25  1  0
 25 26  1  0
 26 27  2  0
 10 28  2  0
 28 29  1  0
 29 30  2  0
 30 31  1  0
  5 32  1  0
 32 33  2  0
 33  2  1  0
 31  6  1  0
 30  8  1  0
 27 12  1  0
 26 15  1  0
 24 18  1  0
  1 34  1  0
  1 35  1  0
  3 36  1  0
  4 37  1  0
  9 38  1  0
 11 39  1  0
 11 40  1  0
 13 41  1  0
 14 42  1  0
 19 43  1  0
 20 44  1  0
 22 45  1  0
 22 46  1  0
 23 47  1  0
 24 48  1  0
 25 49  1  0
 27 50  1  0
 28 51  1  0
 29 52  1  0
 31 53  1  0
 32 54  1  0
 33 55  1  0
M  END
>  <Binding energies>  (1) 
[-5.57]

>  <Ligand effiencies>  (1) 
[-0.14282051282051283]

>  <Interactions>  (1) 
["V-B:LEU:475:CD2:9230, V-B:GLY:454:CA:9020, V-B:ILE:369:CG2:8208, V-B:GLY:453:C:9013, V-B:ILE:369:CD1:8210, V-B:TYR:539:CE1:9847, V-A:ILE:369:CD1:3236, V-A:LEU:475:CD2:4256, V-B:TYR:539:CD1:9845, V-A:GLY:454:CA:4046, V-A:GLU:543:CG:4905, H-B:GLU:543:OE1:9881, V-A:ILE:369:CG2:3234, V-B:GLY:453:CA:9015, V-B:HIS:456:CE1:9040, V-B:GLU:543:CD:9880, V-B:GLU:543:CB:9878, V-B:GLU:543:CG:9879, V-A:HIS:456:CE1:4066, V-A:TYR:484:CE2:4343, V-A:TYR:484:CZ:4344, V-A:GLU:543:CD:4906, V-B:ILE:369:CG1:8209, V-B:ILE:369:CB:8207, V-A:GLU:543:CB:4904, V-B:GLU:543:C:9874, V-B:ARG:545:CZ:9898, V-B:ARG:545:CG:9894, V-A:ARG:545:CZ:4924, V-A:ARG:545:CG:4920, H-A:GLY:454:N:4047, V-A:ARG:545:CD:4921, V-B:ALA:541:CB:9864, V-B:ARG:545:CD:9895, H-A:TYR:484:OH:4345, V-A:LEU:373:CD1:3277, V-B:SER:385:C:8376, H-B:TYR:484:OH:9319, H-B:SER:385:O:8377, V-B:ARG:545:CB:9893, H-A:VAL:384:O:3395"]

$$$$
RR11_Rahimova_2017-again1
     RDKit          3D

 56 61  0  0  0  0  0  0  0  0999 V2000
  123.0720  131.5140   58.4400 N   0  0  0  0  0  0  0  0  0  0  0  0
  124.0970  130.5700   58.4830 C   0  0  0  0  0  0  0  0  0  0  0  0
  124.7830  130.3430   59.6740 C   0  0  0  0  0  0  0  0  0  0  0  0
  125.8090  129.4010   59.7150 C   0  0  0  0  0  0  0  0  0  0  0  0
  126.1570  128.6810   58.5650 C   0  0  0  0  0  0  0  0  0  0  0  0
  127.2680  127.6720   58.6070 C   0  0  0  0  0  0  0  0  0  0  0  0
  127.3260  126.5990   57.8510 N   0  0  0  0  0  0  0  0  0  0  0  0
  128.4770  125.9550   58.2230 C   0  0  0  0  0  0  0  0  0  0  0  0
  129.0190  124.7570   57.7400 C   0  0  0  0  0  0  0  0  0  0  0  0
  130.2120  124.3000   58.3020 C   0  0  0  0  0  0  0  0  0  0  0  0
  130.8590  125.0050   59.3230 C   0  0  0  0  0  0  0  0  0  0  0  0
  132.1550  124.4590   59.9050 C   0  0  0  0  0  0  0  0  0  0  0  0
  132.2140  124.5790   61.4210 C   0  0  0  0  0  0  0  0  0  0  0  0
  133.1510  123.8260   62.1380 C   0  0  0  0  0  0  0  0  0  0  0  0
  133.2510  123.8920   63.5300 C   0  0  0  0  0  0  0  0  0  0  0  0
  132.3650  124.7570   64.1810 C   0  0  0  0  0  0  0  0  0  0  0  0
  132.1820  125.0550   65.5250 N   0  0  0  0  0  0  0  0  0  0  0  0
  131.1690  125.9750   65.6700 C   0  0  0  0  0  0  0  0  0  0  0  0
  130.6500  126.5440   66.9510 C   0  0  0  0  0  0  0  0  0  0  0  0
  129.3650  126.2120   67.3960 C   0  0  0  0  0  0  0  0  0  0  0  0
  128.8790  126.7320   68.5930 C   0  0  0  0  0  0  0  0  0  0  0  0
  129.6770  127.5880   69.3510 C   0  0  0  0  0  0  0  0  0  0  0  0
  129.1910  128.1050   70.5510 N   0  0  0  0  0  0  0  0  0  0  0  0
  130.9580  127.9260   68.9150 C   0  0  0  0  0  0  0  0  0  0  0  0
  131.4430  127.4050   67.7190 C   0  0  0  0  0  0  0  0  0  0  0  0
  130.7200  126.2610   64.4020 N   0  0  0  0  0  0  0  0  0  0  0  0
  131.4320  125.5260   63.4660 C   0  0  0  0  0  0  0  0  0  0  0  0
  131.3420  125.4610   62.0730 C   0  0  0  0  0  0  0  0  0  0  0  0
  130.3480  126.2180   59.8060 C   0  0  0  0  0  0  0  0  0  0  0  0
  129.1510  126.6650   59.2450 C   0  0  0  0  0  0  0  0  0  0  0  0
  128.3490  127.7630   59.4590 N   0  0  0  0  0  0  0  0  0  0  0  0
  125.4580  128.9180   57.3740 C   0  0  0  0  0  0  0  0  0  0  0  0
  124.4320  129.8590   57.3330 C   0  0  0  0  0  0  0  0  0  0  0  0
  122.9800  132.1800   59.1930 H   0  0  0  0  0  0  0  0  0  0  0  0
  122.4110  131.4940   57.6780 H   0  0  0  0  0  0  0  0  0  0  0  0
  124.5153  130.9062   60.5802 H   0  0  0  0  0  0  0  0  0  0  0  0
  126.3490  129.2217   60.6564 H   0  0  0  0  0  0  0  0  0  0  0  0
  128.5182  124.1921   56.9399 H   0  0  0  0  0  0  0  0  0  0  0  0
  130.6544  123.3628   57.9333 H   0  0  0  0  0  0  0  0  0  0  0  0
  132.2434  123.3970   59.6323 H   0  0  0  0  0  0  0  0  0  0  0  0
  132.9821  125.0551   59.4919 H   0  0  0  0  0  0  0  0  0  0  0  0
  133.8314  123.1600   61.5871 H   0  0  0  0  0  0  0  0  0  0  0  0
  133.9887  123.2944   64.0856 H   0  0  0  0  0  0  0  0  0  0  0  0
  132.6860  124.6740   66.3130 H   0  0  0  0  0  0  0  0  0  0  0  0
  128.7359  125.5370   66.7972 H   0  0  0  0  0  0  0  0  0  0  0  0
  127.8688  126.4683   68.9394 H   0  0  0  0  0  0  0  0  0  0  0  0
  128.3270  127.7480   70.9330 H   0  0  0  0  0  0  0  0  0  0  0  0
  129.6930  128.8500   71.0110 H   0  0  0  0  0  0  0  0  0  0  0  0
  131.5837  128.6030   69.5152 H   0  0  0  0  0  0  0  0  0  0  0  0
  132.4537  127.6709   67.3757 H   0  0  0  0  0  0  0  0  0  0  0  0
  129.9720  126.9160   64.2310 H   0  0  0  0  0  0  0  0  0  0  0  0
  130.6198  126.0741   61.5140 H   0  0  0  0  0  0  0  0  0  0  0  0
  130.8660  126.7901   60.5898 H   0  0  0  0  0  0  0  0  0  0  0  0
  128.4770  128.5190   60.1150 H   0  0  0  0  0  0  0  0  0  0  0  0
  125.7214  128.3570   56.4652 H   0  0  0  0  0  0  0  0  0  0  0  0
  123.8875  130.0403   56.3946 H   0  0  0  0  0  0  0  0  0  0  0  0
  1  2  1  0
  2  3  2  0
  3  4  1  0
  4  5  2  0
  5  6  1  0
  6  7  2  0
  7  8  1  0
  8  9  2  0
  9 10  1  0
 10 11  2  0
 11 12  1  0
 12 13  1  0
 13 14  2  0
 14 15  1  0
 15 16  2  0
 16 17  1  0
 17 18  1  0
 18 19  1  0
 19 20  2  0
 20 21  1  0
 21 22  2  0
 22 23  1  0
 22 24  1  0
 24 25  2  0
 18 26  2  0
 26 27  1  0
 27 28  2  0
 11 29  1  0
 29 30  2  0
 30 31  1  0
  5 32  1  0
 32 33  2  0
 33  2  1  0
 31  6  1  0
 30  8  1  0
 28 13  1  0
 27 16  1  0
 25 19  1  0
  1 34  1  0
  1 35  1  0
  3 36  1  0
  4 37  1  0
  9 38  1  0
 10 39  1  0
 12 40  1  0
 12 41  1  0
 14 42  1  0
 15 43  1  0
 17 44  1  0
 20 45  1  0
 21 46  1  0
 23 47  1  0
 23 48  1  0
 24 49  1  0
 25 50  1  0
 26 51  1  0
 28 52  1  0
 29 53  1  0
 31 54  1  0
 32 55  1  0
 33 56  1  0
M  CHG  1  26   1
M  END
>  <Binding energies>  (1) 
[-6.85]

>  <Ligand effiencies>  (1) 
[-0.17124999999999999]

>  <Interactions>  (1) 
["V-A:TYR:539:CZ:4875, V-B:ASP:366:CB:8183, H-A:TYR:539:OH:4876, V-B:ILE:369:CG2:8208, V-A:TYR:539:CE1:4873, V-B:ASP:366:CG:8184, V-B:TYR:539:CE1:9847, V-A:GLY:454:CA:4046, V-A:GLU:543:CG:4905, H-B:GLU:543:OE1:9881, V-B:HIS:456:CE1:9040, H-B:GLU:543:OE2:9882, V-B:GLU:543:CD:9880, V-B:GLU:543:CB:9878, V-B:GLU:543:CG:9879, V-A:HIS:456:CE1:4066, H-A:GLU:543:OE2:4908, V-A:TYR:484:CZ:4344, V-A:GLU:543:CD:4906, V-B:ILE:369:CB:8207, V-A:GLU:543:CB:4904, V-B:GLU:543:C:9874, V-B:ASP:366:CA:8181, V-A:ARG:545:CG:4920, H-A:GLU:543:OE1:4907, V-B:TYR:539:CZ:9849, V-B:TYR:531:CZ:9766, V-A:GLY:544:C:4910, H-A:TYR:484:OH:4345, H-B:TYR:531:OH:9767, V-B:ASP:366:C:8179, V-A:GLU:543:C:4900, V-B:HIS:456:CD2:9039, H-B:ASP:366:O:8180, H-B:GLU:543:O:9875, H-A:GLU:543:O:4901, V-B:ASN:370:CB:8216, V-B:ILE:369:CA:8205, V-B:TYR:531:CE1:9764, V-B:ILE:369:C:8203"]

$$$$
RR11_Rahimova_2017-again2
     RDKit          3D

 57 62  0  0  0  0  0  0  0  0999 V2000
  133.8940  120.3930   60.8600 N   0  0  0  0  0  0  0  0  0  0  0  0
  133.2700  121.6200   60.6390 C   0  0  0  0  0  0  0  0  0  0  0  0
  134.0380  122.7500   60.3660 C   0  0  0  0  0  0  0  0  0  0  0  0
  133.4140  123.9760   60.1510 C   0  0  0  0  0  0  0  0  0  0  0  0
  132.0180  124.0780   60.2070 C   0  0  0  0  0  0  0  0  0  0  0  0
  131.3490  125.3960   59.9870 C   0  0  0  0  0  0  0  0  0  0  0  0
  130.3520  125.9520   60.7560 N   0  0  0  0  0  0  0  0  0  0  0  0
  129.9980  127.1950   60.2500 C   0  0  0  0  0  0  0  0  0  0  0  0
  129.0600  128.1400   60.6760 C   0  0  0  0  0  0  0  0  0  0  0  0
  128.9680  129.3230   59.9330 C   0  0  0  0  0  0  0  0  0  0  0  0
  127.9680  130.3920   60.3520 C   0  0  0  0  0  0  0  0  0  0  0  0
  127.7130  130.4060   61.8530 C   0  0  0  0  0  0  0  0  0  0  0  0
  127.0350  131.4870   62.4290 C   0  0  0  0  0  0  0  0  0  0  0  0
  126.7730  131.5550   63.7990 C   0  0  0  0  0  0  0  0  0  0  0  0
  127.2190  130.4840   64.5770 C   0  0  0  0  0  0  0  0  0  0  0  0
  127.1390  130.2350   65.9400 N   0  0  0  0  0  0  0  0  0  0  0  0
  127.7350  129.0310   66.2370 C   0  0  0  0  0  0  0  0  0  0  0  0
  127.8770  128.4090   67.5890 C   0  0  0  0  0  0  0  0  0  0  0  0
  128.9910  128.6960   68.3850 C   0  0  0  0  0  0  0  0  0  0  0  0
  129.1180  128.1250   69.6490 C   0  0  0  0  0  0  0  0  0  0  0  0
  128.1300  127.2640   70.1220 C   0  0  0  0  0  0  0  0  0  0  0  0
  128.2540  126.6960   71.3890 N   0  0  0  0  0  0  0  0  0  0  0  0
  127.0180  126.9670   69.3350 C   0  0  0  0  0  0  0  0  0  0  0  0
  126.8910  127.5400   68.0730 C   0  0  0  0  0  0  0  0  0  0  0  0
  128.1850  128.5170   65.0440 N   0  0  0  0  0  0  0  0  0  0  0  0
  127.8870  129.3890   64.0050 C   0  0  0  0  0  0  0  0  0  0  0  0
  128.1420  129.3220   62.6320 C   0  0  0  0  0  0  0  0  0  0  0  0
  129.7620  129.5300   58.7990 C   0  0  0  0  0  0  0  0  0  0  0  0
  130.6960  128.5870   58.3640 C   0  0  0  0  0  0  0  0  0  0  0  0
  130.8000  127.4150   59.1180 C   0  0  0  0  0  0  0  0  0  0  0  0
  131.6140  126.2980   58.9830 N   0  0  0  0  0  0  0  0  0  0  0  0
  131.2560  122.9350   60.4790 C   0  0  0  0  0  0  0  0  0  0  0  0
  131.8800  121.7090   60.6940 C   0  0  0  0  0  0  0  0  0  0  0  0
  133.4900  119.5520   60.4730 H   0  0  0  0  0  0  0  0  0  0  0  0
  134.7060  120.3490   61.4590 H   0  0  0  0  0  0  0  0  0  0  0  0
  135.1344  122.6738   60.3204 H   0  0  0  0  0  0  0  0  0  0  0  0
  134.0200  124.8685   59.9362 H   0  0  0  0  0  0  0  0  0  0  0  0
  129.9720  125.4870   61.5660 H   0  0  0  0  0  0  0  0  0  0  0  0
  128.4231  127.9621   61.5551 H   0  0  0  0  0  0  0  0  0  0  0  0
  128.3591  131.3756   60.0528 H   0  0  0  0  0  0  0  0  0  0  0  0
  127.0129  130.1644   59.8561 H   0  0  0  0  0  0  0  0  0  0  0  0
  126.6977  132.3096   61.7813 H   0  0  0  0  0  0  0  0  0  0  0  0
  126.2418  132.4096   64.2434 H   0  0  0  0  0  0  0  0  0  0  0  0
  126.7230  130.8210   66.6490 H   0  0  0  0  0  0  0  0  0  0  0  0
  129.7705  129.3760   68.0108 H   0  0  0  0  0  0  0  0  0  0  0  0
  129.9955  128.3531   70.2718 H   0  0  0  0  0  0  0  0  0  0  0  0
  128.2670  127.2920   72.2030 H   0  0  0  0  0  0  0  0  0  0  0  0
  128.3950  125.7000   71.4750 H   0  0  0  0  0  0  0  0  0  0  0  0
  126.2435  126.2820   69.7104 H   0  0  0  0  0  0  0  0  0  0  0  0
  126.0122  127.3093   67.4529 H   0  0  0  0  0  0  0  0  0  0  0  0
  128.6660  127.6310   64.9840 H   0  0  0  0  0  0  0  0  0  0  0  0
  128.6555  128.4587   62.1836 H   0  0  0  0  0  0  0  0  0  0  0  0
  129.6467  130.4656   58.2321 H   0  0  0  0  0  0  0  0  0  0  0  0
  131.3181  128.7582   57.4731 H   0  0  0  0  0  0  0  0  0  0  0  0
  132.3130  126.1280   58.2750 H   0  0  0  0  0  0  0  0  0  0  0  0
  130.1592  123.0061   60.5230 H   0  0  0  0  0  0  0  0  0  0  0  0
  131.2779  120.8133   60.9066 H   0  0  0  0  0  0  0  0  0  0  0  0
  1  2  1  0
  2  3  2  0
  3  4  1  0
  4  5  2  0
  5  6  1  0
  6  7  1  0
  7  8  1  0
  8  9  2  0
  9 10  1  0
 10 11  1  0
 11 12  1  0
 12 13  2  0
 13 14  1  0
 14 15  2  0
 15 16  1  0
 16 17  1  0
 17 18  1  0
 18 19  2  0
 19 20  1  0
 20 21  2  0
 21 22  1  0
 21 23  1  0
 23 24  2  0
 17 25  2  0
 25 26  1  0
 26 27  2  0
 10 28  2  0
 28 29  1  0
 29 30  2  0
 30 31  1  0
  5 32  1  0
 32 33  2  0
 33  2  1  0
 31  6  2  0
 30  8  1  0
 27 12  1  0
 26 15  1  0
 24 18  1  0
  1 34  1  0
  1 35  1  0
  3 36  1  0
  4 37  1  0
  7 38  1  0
  9 39  1  0
 11 40  1  0
 11 41  1  0
 13 42  1  0
 14 43  1  0
 16 44  1  0
 19 45  1  0
 20 46  1  0
 22 47  1  0
 22 48  1  0
 23 49  1  0
 24 50  1  0
 25 51  1  0
 27 52  1  0
 28 53  1  0
 29 54  1  0
 31 55  1  0
 32 56  1  0
 33 57  1  0
M  CHG  2  25   1  31   1
M  END
>  <Binding energies>  (1) 
[-6.65]

>  <Ligand effiencies>  (1) 
[-0.16219512195121952]

>  <Interactions>  (1) 
["V-B:TYR:539:CE1:9847, V-A:ILE:369:CD1:3236, V-A:LEU:475:CD2:4256, V-B:TYR:539:CD1:9845, V-A:GLU:543:CG:4905, H-B:GLU:543:OE1:9881, V-A:ASP:366:CG:3210, V-A:ILE:369:CG2:3234, V-B:HIS:456:CE1:9040, H-B:GLU:543:OE2:9882, V-B:GLU:543:CD:9880, V-B:GLU:543:CG:9879, H-A:GLU:543:OE2:4908, V-A:ASP:366:CB:3209, V-A:GLU:543:CD:4906, V-A:GLU:543:CB:4904, V-B:GLU:543:C:9874, V-A:ILE:369:CB:3233, V-B:ARG:545:CG:9894, V-B:GLY:544:C:9884, V-A:SER:385:CA:3404, V-A:SER:385:C:3402, V-B:TYR:484:CE2:9317, H-A:GLU:543:OE1:4907, V-B:TYR:484:CZ:9318, V-A:ILE:369:CG1:3235, H-A:ASP:366:OD1:3211, H-A:ASP:366:OD2:3212, H-B:TYR:484:OH:9319, V-A:GLU:543:C:4900, V-B:GLY:544:CA:9886, H-B:GLY:544:O:9885, H-B:GLU:543:O:9875, H-A:SER:385:O:3403"]

$$$$
RR12_Rahimova_2017
     RDKit          3D

 51 53  0  0  0  0  0  0  0  0999 V2000
  130.1640  133.3500   72.4400 C   0  0  0  0  0  0  0  0  0  0  0  0
  128.9830  132.4880   72.9030 C   0  0  0  0  0  0  0  0  0  0  0  0
  129.3720  131.4980   74.0160 C   0  0  0  0  0  0  0  0  0  0  0  0
  128.5100  130.3200   73.9870 N   0  0  0  0  0  0  0  0  0  0  0  0
  128.7410  129.1210   73.3310 C   0  0  0  0  0  0  0  0  0  0  0  0
  129.9590  128.8500   72.4650 C   0  0  0  0  0  0  0  0  0  0  0  0
  129.8940  127.4750   71.7740 C   0  0  0  0  0  0  0  0  0  0  0  0
  128.6650  127.3270   70.8570 C   0  0  0  0  0  0  0  0  0  0  0  0
  128.9940  126.9290   69.4890 N   0  0  0  0  0  0  0  0  0  0  0  0
  128.9540  127.7420   68.4180 C   0  0  0  0  0  0  0  0  0  0  0  0
  128.6270  128.9290   68.4830 O   0  0  0  0  0  0  0  0  0  0  0  0
  129.3520  127.1010   67.0830 C   0  0  0  0  0  0  0  0  0  0  0  0
  130.1370  125.9330   67.3300 O   0  0  0  0  0  0  0  0  0  0  0  0
  131.0120  125.4870   66.3570 C   0  0  0  0  0  0  0  0  0  0  0  0
  130.4940  124.5890   65.4220 C   0  0  0  0  0  0  0  0  0  0  0  0
  131.2990  124.0870   64.4020 C   0  0  0  0  0  0  0  0  0  0  0  0
  132.6290  124.4860   64.3150 C   0  0  0  0  0  0  0  0  0  0  0  0
  133.1630  125.3800   65.2410 C   0  0  0  0  0  0  0  0  0  0  0  0
  132.3580  125.8800   66.2610 C   0  0  0  0  0  0  0  0  0  0  0  0
  127.7920  128.2370   73.5150 N   0  0  0  0  0  0  0  0  0  0  0  0
  126.8970  128.8500   74.3460 C   0  0  0  0  0  0  0  0  0  0  0  0
  125.6970  128.3500   74.8750 C   0  0  0  0  0  0  0  0  0  0  0  0
  124.9540  129.1790   75.7160 C   0  0  0  0  0  0  0  0  0  0  0  0
  125.3850  130.4680   76.0280 C   0  0  0  0  0  0  0  0  0  0  0  0
  126.5730  130.9950   75.5170 C   0  0  0  0  0  0  0  0  0  0  0  0
  127.3180  130.1630   74.6720 C   0  0  0  0  0  0  0  0  0  0  0  0
  130.6992  133.7407   73.3180 H   0  0  0  0  0  0  0  0  0  0  0  0
  130.8494  132.7383   71.8350 H   0  0  0  0  0  0  0  0  0  0  0  0
  129.7904  134.1893   71.8350 H   0  0  0  0  0  0  0  0  0  0  0  0
  128.1908  133.1504   73.2820 H   0  0  0  0  0  0  0  0  0  0  0  0
  128.6414  131.8996   72.0386 H   0  0  0  0  0  0  0  0  0  0  0  0
  130.4163  131.1843   73.8708 H   0  0  0  0  0  0  0  0  0  0  0  0
  129.2538  131.9973   74.9890 H   0  0  0  0  0  0  0  0  0  0  0  0
  130.0242  129.6307   71.6928 H   0  0  0  0  0  0  0  0  0  0  0  0
  130.8434  128.8552   73.1191 H   0  0  0  0  0  0  0  0  0  0  0  0
  130.8027  127.3423   71.1685 H   0  0  0  0  0  0  0  0  0  0  0  0
  129.8143  126.7112   72.5616 H   0  0  0  0  0  0  0  0  0  0  0  0
  127.9995  126.5653   71.2893 H   0  0  0  0  0  0  0  0  0  0  0  0
  128.1889  128.3168   70.7970 H   0  0  0  0  0  0  0  0  0  0  0  0
  129.2750  125.9680   69.3580 H   0  0  0  0  0  0  0  0  0  0  0  0
  128.4456  126.8223   66.5256 H   0  0  0  0  0  0  0  0  0  0  0  0
  129.9397  127.8193   66.4925 H   0  0  0  0  0  0  0  0  0  0  0  0
  129.4419  124.2754   65.4913 H   0  0  0  0  0  0  0  0  0  0  0  0
  130.8852  123.3787   63.6691 H   0  0  0  0  0  0  0  0  0  0  0  0
  133.2646  124.0923   63.5082 H   0  0  0  0  0  0  0  0  0  0  0  0
  134.2160  125.6893   65.1664 H   0  0  0  0  0  0  0  0  0  0  0  0
  132.7768  126.5850   66.9942 H   0  0  0  0  0  0  0  0  0  0  0  0
  125.3522  127.3337   74.6335 H   0  0  0  0  0  0  0  0  0  0  0  0
  124.0096  128.8085   76.1413 H   0  0  0  0  0  0  0  0  0  0  0  0
  124.7706  131.0885   76.6969 H   0  0  0  0  0  0  0  0  0  0  0  0
  126.9070  132.0131   75.7659 H   0  0  0  0  0  0  0  0  0  0  0  0
  1  2  1  0
  2  3  1  0
  3  4  1  0
  4  5  1  0
  5  6  1  0
  6  7  1  0
  7  8  1  0
  8  9  1  0
  9 10  1  0
 10 11  2  0
 10 12  1  0
 12 13  1  0
 13 14  1  0
 14 15  2  0
 15 16  1  0
 16 17  2  0
 17 18  1  0
 18 19  2  0
  5 20  2  0
 20 21  1  0
 21 22  2  0
 22 23  1  0
 23 24  2  0
 24 25  1  0
 25 26  2  0
 26  4  1  0
 19 14  1  0
 26 21  1  0
  1 27  1  0
  1 28  1  0
  1 29  1  0
  2 30  1  0
  2 31  1  0
  3 32  1  0
  3 33  1  0
  6 34  1  0
  6 35  1  0
  7 36  1  0
  7 37  1  0
  8 38  1  0
  8 39  1  0
  9 40  1  0
 12 41  1  0
 12 42  1  0
 15 43  1  0
 16 44  1  0
 17 45  1  0
 18 46  1  0
 19 47  1  0
 22 48  1  0
 23 49  1  0
 24 50  1  0
 25 51  1  0
M  END
>  <Binding energies>  (1) 
[-7.03]

>  <Ligand effiencies>  (1) 
[-0.26037037037037036]

>  <Interactions>  (1) 
["V-A:GLY:454:CA:4046, V-A:GLU:543:CG:4905, V-B:HIS:456:CE1:9040, V-B:GLU:543:CD:9880, V-B:GLU:543:CB:9878, V-B:GLU:543:CG:9879, V-A:HIS:456:CE1:4066, V-A:TYR:484:CE2:4343, V-A:TYR:484:CZ:4344, V-A:GLU:543:CD:4906, V-B:GLU:543:C:9874, V-A:ARG:545:CZ:4924, V-A:ARG:545:CG:4920, V-A:ARG:545:CD:4921, H-A:HIS:456:NE2:4067, H-B:HIS:456:NE2:9041, V-A:GLY:544:C:4910, V-A:GLY:544:CA:4912, V-A:GLU:543:C:4900, V-B:HIS:456:CD2:9039, V-B:HIS:456:CG:9037, V-A:LYS:547:CE:4948, V-B:LYS:471:CD:9190, V-B:HIS:456:C:9032, V-B:LYS:547:CE:9922, V-B:ASP:473:CG:9211, V-B:HIS:456:CB:9036, V-B:VAL:458:CG2:9058, V-B:LYS:547:CD:9921, V-B:TYR:484:CB:9312, V-B:TYR:484:CG:9313, H-B:GLU:543:O:9875"]

$$$$
RR13_Rahimova_2017
     RDKit          3D

 84 90  0  0  0  0  0  0  0  0999 V2000
  131.9210  125.3530   59.2280 Cl  0  0  0  0  0  0  0  0  0  0  0  0
  132.0050  125.1240   60.9420 C   0  0  0  0  0  0  0  0  0  0  0  0
  133.2310  124.7370   61.4880 C   0  0  0  0  0  0  0  0  0  0  0  0
  133.3580  124.5160   62.8570 C   0  0  0  0  0  0  0  0  0  0  0  0
  132.2550  124.6790   63.6910 C   0  0  0  0  0  0  0  0  0  0  0  0
  131.0280  125.0650   63.1540 C   0  0  0  0  0  0  0  0  0  0  0  0
  130.8830  125.3040   61.7780 C   0  0  0  0  0  0  0  0  0  0  0  0
  129.5070  125.7070   61.2050 C   0  0  1  0  0  0  0  0  0  0  0  0
  128.4910  124.5640   61.3530 C   0  0  0  0  0  0  0  0  0  0  0  0
  127.2530  124.6640   61.7840 N   0  0  0  0  0  0  0  0  0  0  0  0
  126.7380  123.3720   61.7700 N   0  0  0  0  0  0  0  0  0  0  0  0
  127.7020  122.4820   61.3380 N   0  0  0  0  0  0  0  0  0  0  0  0
  128.7820  123.2380   61.1110 N   0  0  0  0  0  0  0  0  0  0  0  0
  130.0080  122.6380   60.5980 C   0  0  0  0  0  0  0  0  0  0  0  0
  130.8040  121.9870   61.7450 C   0  0  0  0  0  0  0  0  0  0  0  0
  131.3660  120.6290   61.3550 C   0  0  0  0  0  0  0  0  0  0  0  0
  132.7060  120.5110   60.9750 C   0  0  0  0  0  0  0  0  0  0  0  0
  133.2170  119.2680   60.6110 C   0  0  0  0  0  0  0  0  0  0  0  0
  132.3880  118.1480   60.6300 C   0  0  0  0  0  0  0  0  0  0  0  0
  131.0520  118.2590   61.0070 C   0  0  0  0  0  0  0  0  0  0  0  0
  130.5390  119.5020   61.3700 C   0  0  0  0  0  0  0  0  0  0  0  0
  128.9960  126.9900   61.7430 N   0  0  0  0  0  0  0  0  0  0  0  0
  128.7440  126.8790   63.1920 C   0  0  0  0  0  0  0  0  0  0  0  0
  128.3390  128.2490   63.7850 C   0  0  0  0  0  0  0  0  0  0  0  0
  127.0980  128.7370   63.1610 N   0  0  0  0  0  0  0  0  0  0  0  0
  126.6260  130.0090   63.7570 C   0  0  1  0  0  0  0  0  0  0  0  0
  125.9620  130.9990   62.7750 C   0  0  0  0  0  0  0  0  0  0  0  0
  124.6620  130.6990   62.3460 C   0  0  0  0  0  0  0  0  0  0  0  0
  123.9780  131.5440   61.4730 C   0  0  0  0  0  0  0  0  0  0  0  0
  124.5900  132.7050   61.0100 C   0  0  0  0  0  0  0  0  0  0  0  0
  125.8860  133.0130   61.4100 C   0  0  0  0  0  0  0  0  0  0  0  0
  126.5820  132.1710   62.2820 C   0  0  0  0  0  0  0  0  0  0  0  0
  128.2140  132.6050   62.6660 Cl  0  0  0  0  0  0  0  0  0  0  0  0
  125.7330  129.8040   64.9820 C   0  0  0  0  0  0  0  0  0  0  0  0
  124.4280  129.9510   65.0070 N   0  0  0  0  0  0  0  0  0  0  0  0
  124.0340  129.6500   66.3060 N   0  0  0  0  0  0  0  0  0  0  0  0
  125.1320  129.3020   67.0650 N   0  0  0  0  0  0  0  0  0  0  0  0
  126.1670  129.3830   66.2210 N   0  0  0  0  0  0  0  0  0  0  0  0
  127.5180  129.0980   66.6930 C   0  0  0  0  0  0  0  0  0  0  0  0
  127.5330  127.8080   67.5330 C   0  0  0  0  0  0  0  0  0  0  0  0
  128.6740  127.7920   68.5390 C   0  0  0  0  0  0  0  0  0  0  0  0
  128.4240  127.4590   69.8730 C   0  0  0  0  0  0  0  0  0  0  0  0
  129.4700  127.4360   70.7910 C   0  0  0  0  0  0  0  0  0  0  0  0
  130.7630  127.7480   70.3730 C   0  0  0  0  0  0  0  0  0  0  0  0
  131.0180  128.0800   69.0430 C   0  0  0  0  0  0  0  0  0  0  0  0
  129.9730  128.1020   68.1240 C   0  0  0  0  0  0  0  0  0  0  0  0
  127.3550  128.8520   61.7140 C   0  0  0  0  0  0  0  0  0  0  0  0
  127.7500  127.4770   61.1250 C   0  0  0  0  0  0  0  0  0  0  0  0
  134.1035  124.6057   60.8311 H   0  0  0  0  0  0  0  0  0  0  0  0
  134.3278  124.2132   63.2787 H   0  0  0  0  0  0  0  0  0  0  0  0
  132.3518  124.5033   64.7726 H   0  0  0  0  0  0  0  0  0  0  0  0
  130.1596  125.1843   63.8186 H   0  0  0  0  0  0  0  0  0  0  0  0
  129.6557  125.8873   60.1301 H   0  0  0  0  0  0  0  0  0  0  0  0
  129.7523  121.8708   59.8524 H   0  0  0  0  0  0  0  0  0  0  0  0
  130.6242  123.4226   60.1346 H   0  0  0  0  0  0  0  0  0  0  0  0
  131.6378  122.6502   62.0187 H   0  0  0  0  0  0  0  0  0  0  0  0
  130.1170  121.8380   62.5911 H   0  0  0  0  0  0  0  0  0  0  0  0
  133.3557  121.3986   60.9636 H   0  0  0  0  0  0  0  0  0  0  0  0
  134.2704  119.1705   60.3098 H   0  0  0  0  0  0  0  0  0  0  0  0
  132.7931  117.1661   60.3442 H   0  0  0  0  0  0  0  0  0  0  0  0
  130.4051  117.3694   61.0181 H   0  0  0  0  0  0  0  0  0  0  0  0
  129.4844  119.5968   61.6681 H   0  0  0  0  0  0  0  0  0  0  0  0
  127.9313  126.1576   63.3626 H   0  0  0  0  0  0  0  0  0  0  0  0
  129.6666  126.5397   63.6856 H   0  0  0  0  0  0  0  0  0  0  0  0
  128.1810  128.1416   64.8683 H   0  0  0  0  0  0  0  0  0  0  0  0
  129.1436  128.9727   63.5878 H   0  0  0  0  0  0  0  0  0  0  0  0
  127.5651  130.4837   64.0775 H   0  0  0  0  0  0  0  0  0  0  0  0
  124.1729  129.7811   62.7042 H   0  0  0  0  0  0  0  0  0  0  0  0
  122.9565  131.2935   61.1508 H   0  0  0  0  0  0  0  0  0  0  0  0
  124.0494  133.3783   60.3285 H   0  0  0  0  0  0  0  0  0  0  0  0
  126.3681  133.9284   61.0364 H   0  0  0  0  0  0  0  0  0  0  0  0
  128.1856  128.9745   65.8275 H   0  0  0  0  0  0  0  0  0  0  0  0
  127.8608  129.9350   67.3190 H   0  0  0  0  0  0  0  0  0  0  0  0
  126.5800  127.7278   68.0766 H   0  0  0  0  0  0  0  0  0  0  0  0
  127.6747  126.9596   66.8474 H   0  0  0  0  0  0  0  0  0  0  0  0
  127.4015  127.2153   70.1972 H   0  0  0  0  0  0  0  0  0  0  0  0
  129.2774  127.1729   71.8415 H   0  0  0  0  0  0  0  0  0  0  0  0
  131.5893  127.7321   71.0989 H   0  0  0  0  0  0  0  0  0  0  0  0
  132.0413  128.3236   68.7213 H   0  0  0  0  0  0  0  0  0  0  0  0
  130.1684  128.3627   67.0734 H   0  0  0  0  0  0  0  0  0  0  0  0
  126.4454  129.2135   61.2120 H   0  0  0  0  0  0  0  0  0  0  0  0
  128.1819  129.5595   61.5538 H   0  0  0  0  0  0  0  0  0  0  0  0
  126.9433  126.7548   61.3190 H   0  0  0  0  0  0  0  0  0  0  0  0
  127.9088  127.5860   60.0420 H   0  0  0  0  0  0  0  0  0  0  0  0
  1  2  1  0
  2  3  2  0
  3  4  1  0
  4  5  2  0
  5  6  1  0
  6  7  2  0
  7  8  1  0
  8  9  1  0
  9 10  2  0
 10 11  1  0
 11 12  2  0
 12 13  1  0
 13 14  1  0
 14 15  1  0
 15 16  1  0
 16 17  2  0
 17 18  1  0
 18 19  2  0
 19 20  1  0
 20 21  2  0
  8 22  1  0
 22 23  1  0
 23 24  1  0
 24 25  1  0
 25 26  1  0
 26 27  1  0
 27 28  2  0
 28 29  1  0
 29 30  2  0
 30 31  1  0
 31 32  2  0
 32 33  1  0
 26 34  1  0
 34 35  2  0
 35 36  1  0
 36 37  2  0
 37 38  1  0
 38 39  1  0
 39 40  1  0
 40 41  1  0
 41 42  2  0
 42 43  1  0
 43 44  2  0
 44 45  1  0
 45 46  2  0
 25 47  1  0
 47 48  1  0
  7  2  1  0
 13  9  1  0
 21 16  1  0
 48 22  1  0
 32 27  1  0
 38 34  1  0
 46 41  1  0
  3 49  1  0
  4 50  1  0
  5 51  1  0
  6 52  1  0
  8 53  1  6
 14 54  1  0
 14 55  1  0
 15 56  1  0
 15 57  1  0
 17 58  1  0
 18 59  1  0
 19 60  1  0
 20 61  1  0
 21 62  1  0
 23 63  1  0
 23 64  1  0
 24 65  1  0
 24 66  1  0
 26 67  1  1
 28 68  1  0
 29 69  1  0
 30 70  1  0
 31 71  1  0
 39 72  1  0
 39 73  1  0
 40 74  1  0
 40 75  1  0
 42 76  1  0
 43 77  1  0
 44 78  1  0
 45 79  1  0
 46 80  1  0
 47 81  1  0
 47 82  1  0
 48 83  1  0
 48 84  1  0
M  END
>  <Binding energies>  (1) 
[-13.37]

>  <Ligand effiencies>  (1) 
[-0.27854166666666663]

>  <Interactions>  (1) 
["V-B:ILE:369:CG2:8208, V-A:TYR:539:CE1:4873, V-B:ILE:369:CD1:8210, V-A:TYR:539:CD1:4871, V-A:ALA:541:CB:4890, V-B:TYR:539:CE1:9847, H-B:ALA:541:N:9863, V-A:LEU:475:CD2:4256, V-B:TYR:539:CD1:9845, V-A:GLU:543:CG:4905, V-A:ASP:366:CG:3210, H-B:ARG:545:NH2:9900, V-A:ILE:369:CG2:3234, V-B:HIS:456:CE1:9040, V-B:GLU:543:CD:9880, V-B:GLU:543:CG:9879, V-A:HIS:456:CE1:4066, H-B:GLY:454:N:9021, V-A:GLU:543:CD:4906, V-A:GLU:543:CB:4904, V-B:ARG:545:CZ:9898, V-A:ARG:545:CG:4920, V-A:SER:385:CA:3404, V-B:ALA:541:CB:9864, H-B:ARG:545:NE:9896, V-A:GLY:544:C:4910, V-A:SER:385:CB:3406, V-A:LEU:373:CD1:3277, V-A:PRO:482:CB:4323, V-A:PRO:482:CG:4324, H-B:TYR:484:OH:9319, V-A:GLY:544:CA:4912, V-A:GLU:543:C:4900"]

$$$$
RR14_Rahimova_2017
     RDKit          3D

 76 80  0  0  0  0  0  0  0  0999 V2000
  126.6770  129.3350   66.2430 C   0  0  0  0  0  0  0  0  0  0  0  0
  125.3780  129.5320   65.6950 O   0  0  0  0  0  0  0  0  0  0  0  0
  125.2330  130.3320   64.5780 C   0  0  0  0  0  0  0  0  0  0  0  0
  124.2390  129.9620   63.6720 C   0  0  0  0  0  0  0  0  0  0  0  0
  124.0360  130.6940   62.5060 C   0  0  0  0  0  0  0  0  0  0  0  0
  124.8340  131.8070   62.2320 C   0  0  0  0  0  0  0  0  0  0  0  0
  124.6580  132.5720   60.9260 C   0  0  0  0  0  0  0  0  0  0  0  0
  124.5530  131.7010   59.7550 N   0  0  0  0  0  0  0  0  0  0  0  0
  123.3700  131.5090   59.1590 N   0  0  0  0  0  0  0  0  0  0  0  0
  123.6350  130.6260   58.1310 N   0  0  0  0  0  0  0  0  0  0  0  0
  124.9850  130.2880   58.1260 N   0  0  0  0  0  0  0  0  0  0  0  0
  125.5200  130.9480   59.1250 C   0  0  0  0  0  0  0  0  0  0  0  0
  126.9850  130.8800   59.5360 C   0  0  0  0  0  0  0  0  0  0  0  0
  127.7530  129.9210   58.7250 N   0  0  0  0  0  0  0  0  0  0  0  0
  128.4890  130.5850   57.6410 C   0  0  0  0  0  0  0  0  0  0  0  0
  129.4640  131.6740   58.1390 C   0  0  0  0  0  0  0  0  0  0  0  0
  130.9250  131.1920   58.2540 C   0  0  0  0  0  0  0  0  0  0  0  0
  131.3720  131.0160   59.6400 N   0  0  0  0  0  0  0  0  0  0  0  0
  130.4050  131.6190   60.5670 C   0  0  0  0  0  0  0  0  0  0  0  0
  130.8710  131.4970   62.0340 C   0  0  0  0  0  0  0  0  0  0  0  0
  132.1760  132.0480   62.1800 O   0  0  0  0  0  0  0  0  0  0  0  0
  133.1350  131.3870   61.3620 C   0  0  0  0  0  0  0  0  0  0  0  0
  132.7380  131.5070   59.8750 C   0  0  0  0  0  0  0  0  0  0  0  0
  128.6730  129.1590   59.5810 C   0  0  0  0  0  0  0  0  0  0  0  0
  128.2230  127.7510   59.9630 C   0  0  0  0  0  0  0  0  0  0  0  0
  128.9770  126.6670   59.6560 C   0  0  0  0  0  0  0  0  0  0  0  0
  128.5460  125.2920   59.9790 C   0  0  0  0  0  0  0  0  0  0  0  0
  129.3110  124.1480   59.6930 C   0  0  0  0  0  0  0  0  0  0  0  0
  130.6710  124.2470   59.0150 C   0  0  0  0  0  0  0  0  0  0  0  0
  128.8110  122.8910   60.0430 C   0  0  0  0  0  0  0  0  0  0  0  0
  127.5710  122.7670   60.6670 C   0  0  0  0  0  0  0  0  0  0  0  0
  126.8030  123.8980   60.9580 C   0  0  0  0  0  0  0  0  0  0  0  0
  125.4530  123.7290   61.6430 C   0  0  0  0  0  0  0  0  0  0  0  0
  127.2960  125.1660   60.6110 C   0  0  0  0  0  0  0  0  0  0  0  0
  126.5550  126.3360   60.8820 N   0  0  0  0  0  0  0  0  0  0  0  0
  126.9110  127.6150   60.6040 C   0  0  0  0  0  0  0  0  0  0  0  0
  126.1560  128.5470   60.8830 O   0  0  0  0  0  0  0  0  0  0  0  0
  125.8110  132.2030   63.1470 C   0  0  0  0  0  0  0  0  0  0  0  0
  126.0140  131.4690   64.3120 C   0  0  0  0  0  0  0  0  0  0  0  0
  126.6169  129.3441   67.3413 H   0  0  0  0  0  0  0  0  0  0  0  0
  127.0743  128.3663   65.9056 H   0  0  0  0  0  0  0  0  0  0  0  0
  127.3436  130.1423   65.9056 H   0  0  0  0  0  0  0  0  0  0  0  0
  123.6102  129.0840   63.8810 H   0  0  0  0  0  0  0  0  0  0  0  0
  123.2469  130.3960   61.8000 H   0  0  0  0  0  0  0  0  0  0  0  0
  123.7410  133.1755   60.9957 H   0  0  0  0  0  0  0  0  0  0  0  0
  125.5545  133.1947   60.7897 H   0  0  0  0  0  0  0  0  0  0  0  0
  127.4313  131.8785   59.4186 H   0  0  0  0  0  0  0  0  0  0  0  0
  127.0239  130.5407   60.5816 H   0  0  0  0  0  0  0  0  0  0  0  0
  129.0656  129.8244   57.0941 H   0  0  0  0  0  0  0  0  0  0  0  0
  127.7455  131.0828   57.0011 H   0  0  0  0  0  0  0  0  0  0  0  0
  129.4311  132.5182   57.4345 H   0  0  0  0  0  0  0  0  0  0  0  0
  129.1387  131.9589   59.1504 H   0  0  0  0  0  0  0  0  0  0  0  0
  131.0162  130.2276   57.7329 H   0  0  0  0  0  0  0  0  0  0  0  0
  131.5602  131.9690   57.8037 H   0  0  0  0  0  0  0  0  0  0  0  0
  130.2874  132.6838   60.3173 H   0  0  0  0  0  0  0  0  0  0  0  0
  129.4498  131.0833   60.4640 H   0  0  0  0  0  0  0  0  0  0  0  0
  130.1711  132.0418   62.6846 H   0  0  0  0  0  0  0  0  0  0  0  0
  130.8950  130.4343   62.3171 H   0  0  0  0  0  0  0  0  0  0  0  0
  134.1219  131.8486   61.5133 H   0  0  0  0  0  0  0  0  0  0  0  0
  133.1723  130.3233   61.6396 H   0  0  0  0  0  0  0  0  0  0  0  0
  132.7946  132.5636   59.5742 H   0  0  0  0  0  0  0  0  0  0  0  0
  133.4319  130.8930   59.2822 H   0  0  0  0  0  0  0  0  0  0  0  0
  129.6326  129.0729   59.0502 H   0  0  0  0  0  0  0  0  0  0  0  0
  128.7291  129.7184   60.5265 H   0  0  0  0  0  0  0  0  0  0  0  0
  129.9419  126.8166   59.1495 H   0  0  0  0  0  0  0  0  0  0  0  0
  131.4590  124.3044   59.7804 H   0  0  0  0  0  0  0  0  0  0  0  0
  130.8334  123.3583   58.3874 H   0  0  0  0  0  0  0  0  0  0  0  0
  130.7030  125.1499   58.3874 H   0  0  0  0  0  0  0  0  0  0  0  0
  129.4024  121.9898   59.8237 H   0  0  0  0  0  0  0  0  0  0  0  0
  127.1929  121.7689   60.9332 H   0  0  0  0  0  0  0  0  0  0  0  0
  125.5908  123.7463   62.7342 H   0  0  0  0  0  0  0  0  0  0  0  0
  124.7851  124.5505   61.3447 H   0  0  0  0  0  0  0  0  0  0  0  0
  125.0082  122.7682   61.3447 H   0  0  0  0  0  0  0  0  0  0  0  0
  125.6550  126.2380   61.3250 H   0  0  0  0  0  0  0  0  0  0  0  0
  126.4211  133.0962   62.9471 H   0  0  0  0  0  0  0  0  0  0  0  0
  126.7893  131.7805   65.0275 H   0  0  0  0  0  0  0  0  0  0  0  0
  1  2  1  0
  2  3  1  0
  3  4  2  0
  4  5  1  0
  5  6  2  0
  6  7  1  0
  7  8  1  0
  8  9  1  0
  9 10  2  0
 10 11  1  0
 11 12  2  0
 12 13  1  0
 13 14  1  0
 14 15  1  0
 15 16  1  0
 16 17  1  0
 17 18  1  0
 18 19  1  0
 19 20  1  0
 20 21  1  0
 21 22  1  0
 22 23  1  0
 14 24  1  0
 24 25  1  0
 25 26  2  0
 26 27  1  0
 27 28  2  0
 28 29  1  0
 28 30  1  0
 30 31  2  0
 31 32  1  0
 32 33  1  0
 32 34  2  0
 34 35  1  0
 35 36  1  0
 36 37  2  0
  6 38  1  0
 38 39  2  0
 39  3  1  0
 12  8  1  0
 23 18  1  0
 36 25  1  0
 34 27  1  0
  1 40  1  0
  1 41  1  0
  1 42  1  0
  4 43  1  0
  5 44  1  0
  7 45  1  0
  7 46  1  0
 13 47  1  0
 13 48  1  0
 15 49  1  0
 15 50  1  0
 16 51  1  0
 16 52  1  0
 17 53  1  0
 17 54  1  0
 19 55  1  0
 19 56  1  0
 20 57  1  0
 20 58  1  0
 22 59  1  0
 22 60  1  0
 23 61  1  0
 23 62  1  0
 24 63  1  0
 24 64  1  0
 26 65  1  0
 29 66  1  0
 29 67  1  0
 29 68  1  0
 30 69  1  0
 31 70  1  0
 33 71  1  0
 33 72  1  0
 33 73  1  0
 35 74  1  0
 38 75  1  0
 39 76  1  0
M  END
>  <Binding energies>  (1) 
[-9.03]

>  <Ligand effiencies>  (1) 
[-0.22574999999999998]

>  <Interactions>  (1) 
["V-B:LEU:475:CD2:9230, V-A:TYR:539:CZ:4875, H-A:TYR:539:OH:4876, V-B:ILE:369:CG2:8208, V-B:GLY:453:C:9013, V-A:TYR:539:CE1:4873, V-B:ILE:369:CD1:8210, V-B:ASP:366:CG:8184, V-A:PRO:540:CB:4883, H-A:ALA:541:N:4889, V-A:PRO:540:CA:4881, V-B:PRO:540:C:9853, V-B:TYR:539:CE1:9847, V-B:TYR:539:C:9839, V-B:PRO:540:N:9856, V-B:PRO:540:CA:9855, V-B:TYR:539:CD1:9845, V-A:ASP:366:CG:3210, H-B:ARG:545:NH2:9900, V-B:GLY:453:CA:9015, V-B:HIS:456:CE1:9040, V-A:GLU:543:CD:4906, V-B:ARG:545:CZ:9898, V-B:PRO:540:CB:9857, V-B:TYR:539:CZ:9849, H-B:ARG:545:NE:9896, H-B:ASP:366:OD1:8185, H-B:TYR:484:OH:9319, V-A:ASN:362:CB:3173, H-B:ASP:366:OD2:8186"]

$$$$
RR15_Rahimova_2017
     RDKit          3D

 85 89  0  0  0  0  0  0  0  0999 V2000
  131.6780  126.2310   74.9020 C   0  0  0  0  0  0  0  0  0  0  0  0
  130.4690  126.9480   74.6760 O   0  0  0  0  0  0  0  0  0  0  0  0
  129.9820  127.0750   73.3860 C   0  0  0  0  0  0  0  0  0  0  0  0
  130.7780  126.9350   72.2380 C   0  0  0  0  0  0  0  0  0  0  0  0
  130.2250  127.0780   70.9680 C   0  0  0  0  0  0  0  0  0  0  0  0
  128.8660  127.3660   70.8070 C   0  0  0  0  0  0  0  0  0  0  0  0
  128.2710  127.5270   69.4350 C   0  0  0  0  0  0  0  0  0  0  0  0
  127.1140  126.9830   69.0830 N   0  0  0  0  0  0  0  0  0  0  0  0
  126.9090  127.3400   67.7670 N   0  0  0  0  0  0  0  0  0  0  0  0
  127.9630  128.1050   67.4800 N   0  0  0  0  0  0  0  0  0  0  0  0
  128.2350  128.5720   66.1220 C   0  0  0  0  0  0  0  0  0  0  0  0
  127.7270  130.0020   65.8140 C   0  0  0  0  0  0  0  0  0  0  0  0
  127.6380  130.8030   66.7470 O   0  0  0  0  0  0  0  0  0  0  0  0
  127.4220  130.3500   64.5260 N   0  0  0  0  0  0  0  0  0  0  0  0
  127.5370  131.7460   64.0590 C   0  0  0  0  0  0  0  0  0  0  0  0
  128.0760  131.8730   62.6180 C   0  0  0  0  0  0  0  0  0  0  0  0
  129.5740  132.2470   62.5160 C   0  0  0  0  0  0  0  0  0  0  0  0
  130.0510  132.4020   61.1390 N   0  0  0  0  0  0  0  0  0  0  0  0
  131.0110  131.3660   60.7300 C   0  0  0  0  0  0  0  0  0  0  0  0
  131.4160  131.5230   59.2480 C   0  0  0  0  0  0  0  0  0  0  0  0
  130.2570  131.5410   58.4220 O   0  0  0  0  0  0  0  0  0  0  0  0
  129.3730  132.6080   58.7480 C   0  0  0  0  0  0  0  0  0  0  0  0
  128.9100  132.4770   60.2160 C   0  0  0  0  0  0  0  0  0  0  0  0
  127.1420  129.3510   63.4490 C   0  0  2  0  0  0  0  0  0  0  0  0
  128.4230  128.7640   62.7770 C   0  0  0  0  0  0  0  0  0  0  0  0
  128.9610  129.3340   61.8280 O   0  0  0  0  0  0  0  0  0  0  0  0
  128.9040  127.6360   63.3290 N   0  0  0  0  0  0  0  0  0  0  0  0
  130.1390  126.9660   62.9380 C   0  0  0  0  0  0  0  0  0  0  0  0
  130.3510  125.6720   63.7460 C   0  0  2  0  0  0  0  0  0  0  0  0
  130.5570  125.8650   65.2590 C   0  0  0  0  0  0  0  0  0  0  0  0
  132.0470  125.7290   65.4580 C   0  0  0  0  0  0  0  0  0  0  0  0
  132.4000  124.7060   64.3920 C   0  0  0  0  0  0  0  0  0  0  0  0
  131.5930  125.1170   63.2930 O   0  0  0  0  0  0  0  0  0  0  0  0
  126.0320  129.8470   62.5300 C   0  0  0  0  0  0  0  0  0  0  0  0
  124.8370  130.2840   63.1140 C   0  0  0  0  0  0  0  0  0  0  0  0
  123.7890  130.7470   62.3250 C   0  0  0  0  0  0  0  0  0  0  0  0
  123.9290  130.7780   60.9400 C   0  0  0  0  0  0  0  0  0  0  0  0
  122.9110  131.2290   60.1720 F   0  0  0  0  0  0  0  0  0  0  0  0
  125.1100  130.3480   60.3400 C   0  0  0  0  0  0  0  0  0  0  0  0
  126.1570  129.8840   61.1310 C   0  0  0  0  0  0  0  0  0  0  0  0
  128.8540  128.2160   68.4720 N   0  0  0  0  0  0  0  0  0  0  0  0
  128.0740  127.5040   71.9550 C   0  0  0  0  0  0  0  0  0  0  0  0
  128.6160  127.3590   73.2430 C   0  0  0  0  0  0  0  0  0  0  0  0
  127.8750  127.4820   74.4060 O   0  0  0  0  0  0  0  0  0  0  0  0
  126.6500  128.2060   74.3850 C   0  0  0  0  0  0  0  0  0  0  0  0
  131.8478  126.1303   75.9841 H   0  0  0  0  0  0  0  0  0  0  0  0
  131.6020  125.2318   74.4482 H   0  0  0  0  0  0  0  0  0  0  0  0
  132.5183  126.7769   74.4482 H   0  0  0  0  0  0  0  0  0  0  0  0
  131.8496  126.7100   72.3428 H   0  0  0  0  0  0  0  0  0  0  0  0
  130.8649  126.9630   70.0807 H   0  0  0  0  0  0  0  0  0  0  0  0
  129.3237  128.5543   65.9655 H   0  0  0  0  0  0  0  0  0  0  0  0
  127.6889  127.8969   65.4468 H   0  0  0  0  0  0  0  0  0  0  0  0
  126.5403  132.2095   64.0996 H   0  0  0  0  0  0  0  0  0  0  0  0
  128.2592  132.2486   64.7191 H   0  0  0  0  0  0  0  0  0  0  0  0
  127.9291  130.9077   62.1114 H   0  0  0  0  0  0  0  0  0  0  0  0
  127.5184  132.6979   62.1505 H   0  0  0  0  0  0  0  0  0  0  0  0
  129.7314  133.1975   63.0469 H   0  0  0  0  0  0  0  0  0  0  0  0
  130.1430  131.4176   62.9614 H   0  0  0  0  0  0  0  0  0  0  0  0
  131.9114  131.4455   61.3569 H   0  0  0  0  0  0  0  0  0  0  0  0
  130.5324  130.3835   60.8548 H   0  0  0  0  0  0  0  0  0  0  0  0
  131.9683  132.4656   59.1200 H   0  0  0  0  0  0  0  0  0  0  0  0
  132.0514  130.6735   58.9572 H   0  0  0  0  0  0  0  0  0  0  0  0
  129.8942  133.5674   58.6141 H   0  0  0  0  0  0  0  0  0  0  0  0
  128.4953  132.5663   58.0862 H   0  0  0  0  0  0  0  0  0  0  0  0
  128.2973  133.3526   60.4764 H   0  0  0  0  0  0  0  0  0  0  0  0
  128.3288  131.5480   60.3116 H   0  0  0  0  0  0  0  0  0  0  0  0
  126.7303  128.4413   63.9105 H   0  0  0  0  0  0  0  0  0  0  0  0
  128.4200  127.2440   64.1240 H   0  0  0  0  0  0  0  0  0  0  0  0
  130.0885  126.7165   61.8679 H   0  0  0  0  0  0  0  0  0  0  0  0
  130.9816  127.6440   63.1390 H   0  0  0  0  0  0  0  0  0  0  0  0
  129.4459  125.0649   63.5965 H   0  0  0  0  0  0  0  0  0  0  0  0
  130.2119  126.8607   65.5745 H   0  0  0  0  0  0  0  0  0  0  0  0
  129.9873  125.1368   65.8549 H   0  0  0  0  0  0  0  0  0  0  0  0
  132.5647  126.6842   65.2860 H   0  0  0  0  0  0  0  0  0  0  0  0
  132.3395  125.4356   66.4770 H   0  0  0  0  0  0  0  0  0  0  0  0
  133.4694  124.7489   64.1382 H   0  0  0  0  0  0  0  0  0  0  0  0
  132.2202  123.6667   64.7042 H   0  0  0  0  0  0  0  0  0  0  0  0
  124.7256  130.2610   64.2081 H   0  0  0  0  0  0  0  0  0  0  0  0
  122.8536  131.0872   62.7933 H   0  0  0  0  0  0  0  0  0  0  0  0
  125.2149  130.3750   59.2453 H   0  0  0  0  0  0  0  0  0  0  0  0
  127.0896  129.5436   60.6572 H   0  0  0  0  0  0  0  0  0  0  0  0
  127.0033  127.7311   71.8450 H   0  0  0  0  0  0  0  0  0  0  0  0
  126.3212  128.4003   75.4166 H   0  0  0  0  0  0  0  0  0  0  0  0
  126.7979  129.1618   73.8611 H   0  0  0  0  0  0  0  0  0  0  0  0
  125.8840  127.6154   73.8611 H   0  0  0  0  0  0  0  0  0  0  0  0
  1  2  1  0
  2  3  1  0
  3  4  2  0
  4  5  1  0
  5  6  2  0
  6  7  1  0
  7  8  1  0
  8  9  2  0
  9 10  1  0
 10 11  1  0
 11 12  1  0
 12 13  2  0
 12 14  1  0
 14 15  1  0
 15 16  1  0
 16 17  1  0
 17 18  1  0
 18 19  1  0
 19 20  1  0
 20 21  1  0
 21 22  1  0
 22 23  1  0
 14 24  1  0
 24 25  1  0
 25 26  2  0
 25 27  1  0
 27 28  1  0
 28 29  1  0
 29 30  1  0
 30 31  1  0
 31 32  1  0
 32 33  1  0
 24 34  1  0
 34 35  2  0
 35 36  1  0
 36 37  2  0
 37 38  1  0
 37 39  1  0
 39 40  2  0
 10 41  1  0
  6 42  1  0
 42 43  2  0
 43 44  1  0
 44 45  1  0
 43  3  1  0
 41  7  2  0
 23 18  1  0
 33 29  1  0
 40 34  1  0
  1 46  1  0
  1 47  1  0
  1 48  1  0
  4 49  1  0
  5 50  1  0
 11 51  1  0
 11 52  1  0
 15 53  1  0
 15 54  1  0
 16 55  1  0
 16 56  1  0
 17 57  1  0
 17 58  1  0
 19 59  1  0
 19 60  1  0
 20 61  1  0
 20 62  1  0
 22 63  1  0
 22 64  1  0
 23 65  1  0
 23 66  1  0
 24 67  1  1
 27 68  1  0
 28 69  1  0
 28 70  1  0
 29 71  1  1
 30 72  1  0
 30 73  1  0
 31 74  1  0
 31 75  1  0
 32 76  1  0
 32 77  1  0
 35 78  1  0
 36 79  1  0
 39 80  1  0
 40 81  1  0
 42 82  1  0
 45 83  1  0
 45 84  1  0
 45 85  1  0
M  END
>  <Binding energies>  (1) 
[-8.75]

>  <Ligand effiencies>  (1) 
[-0.19021739130434784]

>  <Interactions>  (1) 
["V-B:ILE:369:CG2:8208, V-A:TYR:539:CE1:4873, V-B:ILE:369:CD1:8210, V-A:TYR:539:CD1:4871, V-B:ASP:366:CG:8184, V-A:PRO:540:CB:4883, H-A:ALA:541:N:4889, V-A:PRO:540:CA:4881, V-A:PRO:540:N:4882, V-A:TYR:539:C:4865, V-A:ALA:541:CB:4890, V-A:GLU:543:CG:4905, H-B:GLU:543:OE1:9881, V-B:HIS:456:CE1:9040, H-B:GLU:543:OE2:9882, V-B:GLU:543:CD:9880, V-B:GLU:543:CG:9879, V-A:HIS:456:CE1:4066, H-A:GLU:543:OE2:4908, V-A:GLU:543:CD:4906, V-B:ILE:369:CG1:8209, V-B:ILE:369:CB:8207, V-A:GLU:543:CB:4904, V-B:ASP:366:CA:8181, V-B:ARG:545:CZ:9898, V-B:GLY:544:C:9884, V-A:ARG:545:CZ:4924, V-A:HIS:456:CD2:4065, H-B:HIS:456:NE2:9041, V-A:GLY:544:C:4910, H-B:TYR:484:OH:9319, V-B:HIS:456:CD2:9039, V-B:HIS:456:CG:9037, V-A:LYS:547:CE:4948, V-A:HIS:456:CG:4063, H-B:LYS:547:NZ:9923, H-A:LYS:547:NZ:4949, V-B:LYS:547:CE:9922, V-B:HIS:456:CB:9036, V-A:ALA:541:CA:4888, H-B:ARG:545:N:9892"]

$$$$
RR16_Rahimova_2017
     RDKit          3D

 80 85  0  0  0  0  0  0  0  0999 V2000
  124.1920  133.7770   63.3840 O   0  0  0  0  0  0  0  0  0  0  0  0
  124.3940  132.4030   62.9100 S   0  0  0  0  0  0  0  0  0  0  0  0
  123.4380  131.7760   61.9890 O   0  0  0  0  0  0  0  0  0  0  0  0
  124.5450  131.3670   64.3310 N   0  0  0  0  0  0  0  0  0  0  0  0
  124.4300  129.8940   64.2150 C   0  0  0  0  0  0  0  0  0  0  0  0
  125.2230  129.4180   62.9700 C   0  0  0  0  0  0  0  0  0  0  0  0
  126.5710  128.7140   63.2180 C   0  0  0  0  0  0  0  0  0  0  0  0
  127.5790  129.5570   64.0190 C   0  0  0  0  0  0  0  0  0  0  0  0
  127.4690  129.4560   65.5460 C   0  0  0  0  0  0  0  0  0  0  0  0
  126.1280  129.8650   66.1860 C   0  0  0  0  0  0  0  0  0  0  0  0
  124.8540  129.2620   65.5620 C   0  0  0  0  0  0  0  0  0  0  0  0
  126.0100  132.3500   62.1470 C   0  0  0  0  0  0  0  0  0  0  0  0
  126.1340  132.1510   60.7700 C   0  0  0  0  0  0  0  0  0  0  0  0
  127.3960  131.9890   60.2070 C   0  0  0  0  0  0  0  0  0  0  0  0
  128.5290  132.0290   61.0230 C   0  0  0  0  0  0  0  0  0  0  0  0
  130.1420  131.6810   60.3250 S   0  0  0  0  0  0  0  0  0  0  0  0
  131.1110  132.5530   61.0030 O   0  0  0  0  0  0  0  0  0  0  0  0
  130.0070  131.7200   58.8640 O   0  0  0  0  0  0  0  0  0  0  0  0
  130.4710  130.0050   60.8060 N   0  0  0  0  0  0  0  0  0  0  0  0
  129.6040  129.4970   61.9000 C   0  0  0  0  0  0  0  0  0  0  0  0
  130.1580  128.1700   62.4560 C   0  0  0  0  0  0  0  0  0  0  0  0
  130.3890  127.1280   61.3340 C   0  0  0  0  0  0  0  0  0  0  0  0
  130.9830  125.8190   61.8600 C   0  0  0  0  0  0  0  0  0  0  0  0
  131.9430  125.8510   62.8810 C   0  0  0  0  0  0  0  0  0  0  0  0
  132.5050  124.6820   63.3960 C   0  0  0  0  0  0  0  0  0  0  0  0
  133.4390  124.7330   64.3980 O   0  0  0  0  0  0  0  0  0  0  0  0
  132.0830  123.4540   62.8640 C   0  0  0  0  0  0  0  0  0  0  0  0
  132.4360  122.1730   63.1750 N   0  0  0  0  0  0  0  0  0  0  0  0
  131.7000  121.3320   62.3700 N   0  0  0  0  0  0  0  0  0  0  0  0
  130.9420  122.0850   61.5490 N   0  0  0  0  0  0  0  0  0  0  0  0
  129.9930  121.4520   60.6420 C   0  0  0  0  0  0  0  0  0  0  0  0
  128.8050  122.3470   60.3170 C   0  0  0  0  0  0  0  0  0  0  0  0
  128.5970  122.7870   59.0050 C   0  0  0  0  0  0  0  0  0  0  0  0
  127.4970  123.5900   58.6990 C   0  0  0  0  0  0  0  0  0  0  0  0
  126.5990  123.9550   59.7030 C   0  0  0  0  0  0  0  0  0  0  0  0
  126.8000  123.5180   61.0120 C   0  0  0  0  0  0  0  0  0  0  0  0
  125.6850  123.9600   62.2540 Cl  0  0  0  0  0  0  0  0  0  0  0  0
  127.9030  122.7180   61.3190 C   0  0  0  0  0  0  0  0  0  0  0  0
  131.1200  123.4300   61.8270 C   0  0  0  0  0  0  0  0  0  0  0  0
  130.5590  124.6010   61.3080 C   0  0  0  0  0  0  0  0  0  0  0  0
  131.1890  127.7150   60.1420 C   0  0  0  0  0  0  0  0  0  0  0  0
  130.6080  129.0610   59.6660 C   0  0  0  0  0  0  0  0  0  0  0  0
  128.4070  132.2700   62.3930 C   0  0  0  0  0  0  0  0  0  0  0  0
  127.1450  132.4270   62.9560 C   0  0  0  0  0  0  0  0  0  0  0  0
  125.1090  131.7220   65.1080 H   0  0  0  0  0  0  0  0  0  0  0  0
  123.3965  129.5605   64.0399 H   0  0  0  0  0  0  0  0  0  0  0  0
  124.5806  128.7167   62.4172 H   0  0  0  0  0  0  0  0  0  0  0  0
  125.4813  130.3407   62.4297 H   0  0  0  0  0  0  0  0  0  0  0  0
  126.3787  127.7844   63.7737 H   0  0  0  0  0  0  0  0  0  0  0  0
  127.0214  128.5319   62.2311 H   0  0  0  0  0  0  0  0  0  0  0  0
  128.5911  129.2361   63.7315 H   0  0  0  0  0  0  0  0  0  0  0  0
  127.3550  130.6052   63.7719 H   0  0  0  0  0  0  0  0  0  0  0  0
  127.6616  128.4090   65.8227 H   0  0  0  0  0  0  0  0  0  0  0  0
  128.1993  130.1831   65.9307 H   0  0  0  0  0  0  0  0  0  0  0  0
  126.1569  129.5632   67.2434 H   0  0  0  0  0  0  0  0  0  0  0  0
  126.0466  130.9496   66.0215 H   0  0  0  0  0  0  0  0  0  0  0  0
  125.0290  128.1887   65.3964 H   0  0  0  0  0  0  0  0  0  0  0  0
  124.0367  129.4642   66.2699 H   0  0  0  0  0  0  0  0  0  0  0  0
  125.2375  132.1225   60.1333 H   0  0  0  0  0  0  0  0  0  0  0  0
  127.5011  131.8301   59.1236 H   0  0  0  0  0  0  0  0  0  0  0  0
  129.5682  130.2416   62.7089 H   0  0  0  0  0  0  0  0  0  0  0  0
  128.5940  129.3216   61.5012 H   0  0  0  0  0  0  0  0  0  0  0  0
  131.1151  128.3675   62.9610 H   0  0  0  0  0  0  0  0  0  0  0  0
  129.4181  127.7581   63.1580 H   0  0  0  0  0  0  0  0  0  0  0  0
  129.3952  126.8697   60.9395 H   0  0  0  0  0  0  0  0  0  0  0  0
  132.2616  126.8226   63.2867 H   0  0  0  0  0  0  0  0  0  0  0  0
  133.2530  124.1300   65.1210 H   0  0  0  0  0  0  0  0  0  0  0  0
  130.5134  121.2038   59.7052 H   0  0  0  0  0  0  0  0  0  0  0  0
  129.6046  120.5525   61.1420 H   0  0  0  0  0  0  0  0  0  0  0  0
  129.3029  122.4991   58.2120 H   0  0  0  0  0  0  0  0  0  0  0  0
  127.3380  123.9350   57.6667 H   0  0  0  0  0  0  0  0  0  0  0  0
  125.7322  124.5877   59.4617 H   0  0  0  0  0  0  0  0  0  0  0  0
  128.0627  122.3785   62.3530 H   0  0  0  0  0  0  0  0  0  0  0  0
  129.8146  124.5684   60.4988 H   0  0  0  0  0  0  0  0  0  0  0  0
  132.2321  127.8690   60.4554 H   0  0  0  0  0  0  0  0  0  0  0  0
  131.1267  127.0025   59.3062 H   0  0  0  0  0  0  0  0  0  0  0  0
  131.2801  129.4987   58.9132 H   0  0  0  0  0  0  0  0  0  0  0  0
  129.6132  128.8836   59.2314 H   0  0  0  0  0  0  0  0  0  0  0  0
  129.3054  132.3354   63.0244 H   0  0  0  0  0  0  0  0  0  0  0  0
  127.0415  132.6113   64.0355 H   0  0  0  0  0  0  0  0  0  0  0  0
  1  2  2  0
  2  3  2  0
  2  4  1  0
  4  5  1  0
  5  6  1  0
  6  7  1  0
  7  8  1  0
  8  9  1  0
  9 10  1  0
 10 11  1  0
  2 12  1  0
 12 13  2  0
 13 14  1  0
 14 15  2  0
 15 16  1  0
 16 17  2  0
 16 18  2  0
 16 19  1  0
 19 20  1  0
 20 21  1  0
 21 22  1  0
 22 23  1  0
 23 24  2  0
 24 25  1  0
 25 26  1  0
 25 27  2  0
 27 28  1  0
 28 29  2  0
 29 30  1  0
 30 31  1  0
 31 32  1  0
 32 33  2  0
 33 34  1  0
 34 35  2  0
 35 36  1  0
 36 37  1  0
 36 38  2  0
 30 39  1  0
 39 40  2  0
 22 41  1  0
 41 42  1  0
 15 43  1  0
 43 44  2  0
 11  5  1  0
 44 12  1  0
 42 19  1  0
 40 23  1  0
 39 27  1  0
 38 32  1  0
  4 45  1  0
  5 46  1  0
  6 47  1  0
  6 48  1  0
  7 49  1  0
  7 50  1  0
  8 51  1  0
  8 52  1  0
  9 53  1  0
  9 54  1  0
 10 55  1  0
 10 56  1  0
 11 57  1  0
 11 58  1  0
 13 59  1  0
 14 60  1  0
 20 61  1  0
 20 62  1  0
 21 63  1  0
 21 64  1  0
 22 65  1  0
 24 66  1  0
 26 67  1  0
 31 68  1  0
 31 69  1  0
 33 70  1  0
 34 71  1  0
 35 72  1  0
 38 73  1  0
 40 74  1  0
 41 75  1  0
 41 76  1  0
 42 77  1  0
 42 78  1  0
 43 79  1  0
 44 80  1  0
M  END
>  <Binding energies>  (1) 
[-7.27]

>  <Ligand effiencies>  (1) 
[-0.15145833333333333]

>  <Interactions>  (1) 
["V-B:LEU:475:CD2:9230, V-B:GLY:454:CA:9020, V-B:GLY:453:C:9013, V-A:TYR:539:CE1:4873, V-A:TYR:539:CD1:4871, H-A:ALA:541:N:4889, V-A:PRO:540:CA:4881, V-A:ALA:541:CB:4890, V-B:PRO:540:C:9853, V-B:TYR:539:CE1:9847, V-B:TYR:539:C:9839, V-B:PRO:540:CA:9855, V-A:LEU:475:CD2:4256, V-B:TYR:539:CD1:9845, V-A:ASP:366:CG:3210, V-B:GLY:453:CA:9015, V-B:HIS:456:CE1:9040, V-B:GLU:543:CD:9880, H-B:GLY:454:N:9021, V-A:GLU:543:CD:4906, V-A:GLU:543:CB:4904, V-B:ARG:545:CZ:9898, V-B:ARG:545:CG:9894, V-A:ARG:545:CZ:4924, H-A:GLY:454:N:4047, V-B:ALA:541:CB:9864, V-B:TYR:484:CZ:9318, V-B:ALA:541:CA:9862, V-B:ARG:545:CD:9895, H-A:TYR:484:OH:4345, H-B:TYR:484:OH:9319"]

$$$$
RR17_Rahimova_2017
     RDKit          3D

 63 66  0  0  0  0  0  0  0  0999 V2000
  129.2580  127.3490   69.0600 C   0  0  0  0  0  0  0  0  0  0  0  0
  128.8120  127.7650   67.6550 C   0  0  0  0  0  0  0  0  0  0  0  0
  127.4400  128.1470   67.7050 O   0  0  0  0  0  0  0  0  0  0  0  0
  126.8980  128.8690   66.6580 C   0  0  0  0  0  0  0  0  0  0  0  0
  125.5070  128.9370   66.6020 C   0  0  0  0  0  0  0  0  0  0  0  0
  124.8720  129.6400   65.5830 C   0  0  0  0  0  0  0  0  0  0  0  0
  125.6200  130.2920   64.5920 C   0  0  0  0  0  0  0  0  0  0  0  0
  124.9070  131.0440   63.5060 C   0  0  0  0  0  0  0  0  0  0  0  0
  123.7600  130.7600   63.1480 O   0  0  0  0  0  0  0  0  0  0  0  0
  125.6800  132.1970   62.8270 C   0  0  0  0  0  0  0  0  0  0  0  0
  124.6790  133.0390   61.5500 S   0  0  0  0  0  0  0  0  0  0  0  0
  124.7930  131.8510   60.2410 C   0  0  0  0  0  0  0  0  0  0  0  0
  123.7900  131.4280   59.5090 N   0  0  0  0  0  0  0  0  0  0  0  0
  124.2890  130.5120   58.5920 N   0  0  0  0  0  0  0  0  0  0  0  0
  125.5780  130.4190   58.8020 C   0  0  0  0  0  0  0  0  0  0  0  0
  126.5210  129.5290   58.0050 C   0  0  0  0  0  0  0  0  0  0  0  0
  127.4760  128.7940   58.8300 N   0  0  0  0  0  0  0  0  0  0  0  0
  127.1960  127.5550   59.4340 C   0  0  0  0  0  0  0  0  0  0  0  0
  127.0130  126.4570   58.5930 C   0  0  0  0  0  0  0  0  0  0  0  0
  126.7270  125.2030   59.1240 C   0  0  0  0  0  0  0  0  0  0  0  0
  126.6240  125.0310   60.5070 C   0  0  0  0  0  0  0  0  0  0  0  0
  126.3030  123.6480   61.0740 C   0  0  0  0  0  0  0  0  0  0  0  0
  126.3280  123.6310   62.4090 F   0  0  0  0  0  0  0  0  0  0  0  0
  125.0920  123.2540   60.6800 F   0  0  0  0  0  0  0  0  0  0  0  0
  127.2040  122.7730   60.6270 F   0  0  0  0  0  0  0  0  0  0  0  0
  126.8150  126.1290   61.3530 C   0  0  0  0  0  0  0  0  0  0  0  0
  127.1020  127.3820   60.8210 C   0  0  0  0  0  0  0  0  0  0  0  0
  125.9630  131.2350   59.8450 N   0  0  0  0  0  0  0  0  0  0  0  0
  127.2550  131.4200   60.3610 C   0  0  0  0  0  0  0  0  0  0  0  0
  128.0130  132.5120   59.9400 C   0  0  0  0  0  0  0  0  0  0  0  0
  129.2960  132.6930   60.4500 C   0  0  0  0  0  0  0  0  0  0  0  0
  129.8230  131.7830   61.3800 C   0  0  0  0  0  0  0  0  0  0  0  0
  131.0830  131.8830   61.9380 O   0  0  0  0  0  0  0  0  0  0  0  0
  132.1500  131.1180   61.3860 C   0  0  0  0  0  0  0  0  0  0  0  0
  129.0500  130.6940   61.7880 C   0  0  0  0  0  0  0  0  0  0  0  0
  127.7660  130.5070   61.2830 C   0  0  0  0  0  0  0  0  0  0  0  0
  127.0200  130.2240   64.6500 C   0  0  0  0  0  0  0  0  0  0  0  0
  127.6540  129.5200   65.6710 C   0  0  0  0  0  0  0  0  0  0  0  0
  128.6691  127.8983   69.8093 H   0  0  0  0  0  0  0  0  0  0  0  0
  129.1000  126.2682   69.1899 H   0  0  0  0  0  0  0  0  0  0  0  0
  130.3252  127.5818   69.1899 H   0  0  0  0  0  0  0  0  0  0  0  0
  129.4202  128.6141   67.3099 H   0  0  0  0  0  0  0  0  0  0  0  0
  128.9417  126.9250   66.9568 H   0  0  0  0  0  0  0  0  0  0  0  0
  124.9055  128.4300   67.3708 H   0  0  0  0  0  0  0  0  0  0  0  0
  123.7733  129.6848   65.5544 H   0  0  0  0  0  0  0  0  0  0  0  0
  125.9669  132.9315   63.5940 H   0  0  0  0  0  0  0  0  0  0  0  0
  126.5648  131.7673   62.3345 H   0  0  0  0  0  0  0  0  0  0  0  0
  125.9181  128.8019   57.4413 H   0  0  0  0  0  0  0  0  0  0  0  0
  127.1065  130.1894   57.3485 H   0  0  0  0  0  0  0  0  0  0  0  0
  128.2950  129.2930   59.1460 H   0  0  0  0  0  0  0  0  0  0  0  0
  127.0953  126.5834   57.5034 H   0  0  0  0  0  0  0  0  0  0  0  0
  126.5814  124.3439   58.4526 H   0  0  0  0  0  0  0  0  0  0  0  0
  126.7379  126.0010   62.4428 H   0  0  0  0  0  0  0  0  0  0  0  0
  127.2557  128.2401   61.4919 H   0  0  0  0  0  0  0  0  0  0  0  0
  127.6007  133.2249   59.2107 H   0  0  0  0  0  0  0  0  0  0  0  0
  129.8992  133.5527   60.1228 H   0  0  0  0  0  0  0  0  0  0  0  0
  132.7514  130.6868   62.1999 H   0  0  0  0  0  0  0  0  0  0  0  0
  131.7380  130.3082   60.7659 H   0  0  0  0  0  0  0  0  0  0  0  0
  132.7847  131.7681   60.7659 H   0  0  0  0  0  0  0  0  0  0  0  0
  129.4593  129.9772   62.5151 H   0  0  0  0  0  0  0  0  0  0  0  0
  127.1608  129.6478   61.6080 H   0  0  0  0  0  0  0  0  0  0  0  0
  127.6226  130.7313   63.8821 H   0  0  0  0  0  0  0  0  0  0  0  0
  128.7525  129.4741   65.7039 H   0  0  0  0  0  0  0  0  0  0  0  0
  1  2  1  0
  2  3  1  0
  3  4  1  0
  4  5  2  0
  5  6  1  0
  6  7  2  0
  7  8  1  0
  8  9  2  0
  8 10  1  0
 10 11  1  0
 11 12  1  0
 12 13  2  0
 13 14  1  0
 14 15  2  0
 15 16  1  0
 16 17  1  0
 17 18  1  0
 18 19  2  0
 19 20  1  0
 20 21  2  0
 21 22  1  0
 22 23  1  0
 22 24  1  0
 22 25  1  0
 21 26  1  0
 26 27  2  0
 15 28  1  0
 28 29  1  0
 29 30  2  0
 30 31  1  0
 31 32  2  0
 32 33  1  0
 33 34  1  0
 32 35  1  0
 35 36  2  0
  7 37  1  0
 37 38  2  0
 38  4  1  0
 28 12  1  0
 36 29  1  0
 27 18  1  0
  1 39  1  0
  1 40  1  0
  1 41  1  0
  2 42  1  0
  2 43  1  0
  5 44  1  0
  6 45  1  0
 10 46  1  0
 10 47  1  0
 16 48  1  0
 16 49  1  0
 17 50  1  0
 19 51  1  0
 20 52  1  0
 26 53  1  0
 27 54  1  0
 30 55  1  0
 31 56  1  0
 34 57  1  0
 34 58  1  0
 34 59  1  0
 35 60  1  0
 36 61  1  0
 37 62  1  0
 38 63  1  0
M  END
>  <Binding energies>  (1) 
[-7.77]

>  <Ligand effiencies>  (1) 
[-0.1992307692307692]

>  <Interactions>  (1) 
["V-B:LEU:475:CD2:9230, V-A:TYR:539:CZ:4875, H-A:TYR:539:OH:4876, V-B:GLY:454:CA:9020, V-B:ILE:369:CG2:8208, V-A:TYR:539:CE1:4873, V-A:TYR:539:CD1:4871, V-B:ASP:366:CG:8184, H-A:ALA:541:N:4889, V-A:PRO:540:CA:4881, V-A:PRO:540:N:4882, V-A:TYR:539:C:4865, V-B:PRO:540:C:9853, V-B:TYR:539:C:9839, V-B:PRO:540:N:9856, V-B:PRO:540:CA:9855, V-A:GLU:543:CG:4905, V-B:HIS:456:CE1:9040, V-B:GLU:543:CD:9880, V-B:GLU:543:CG:9879, V-A:HIS:456:CE1:4066, H-B:GLY:454:N:9021, V-A:GLU:543:CD:4906, V-A:GLU:543:CB:4904, V-B:ARG:545:CZ:9898, V-B:ARG:545:CG:9894, V-B:PRO:540:CB:9857, H-B:HIS:456:NE2:9041, V-B:ARG:545:CD:9895"]

$$$$
RR18_Rahimova_2017
     RDKit          3D

 56 61  0  0  0  0  0  0  0  0999 V2000
  128.1600  122.5930   58.4590 C   0  0  0  0  0  0  0  0  0  0  0  0
  127.8760  123.6420   59.5050 C   0  0  0  0  0  0  0  0  0  0  0  0
  126.7610  124.3940   59.8400 C   0  0  0  0  0  0  0  0  0  0  0  0
  127.1310  125.2040   60.9140 C   0  0  0  0  0  0  0  0  0  0  0  0
  128.4560  124.9190   61.1950 C   0  0  0  0  0  0  0  0  0  0  0  0
  129.4520  125.4320   62.2320 C   0  0  1  0  0  0  0  0  0  0  0  0
  130.8120  124.6770   62.1420 C   0  0  0  0  0  0  0  0  0  0  0  0
  130.8860  123.2510   62.4480 C   0  0  0  0  0  0  0  0  0  0  0  0
  130.8320  122.8310   63.6050 O   0  0  0  0  0  0  0  0  0  0  0  0
  131.0010  122.4560   61.3590 N   0  0  0  0  0  0  0  0  0  0  0  0
  131.1180  121.0530   61.2610 C   0  0  0  0  0  0  0  0  0  0  0  0
  130.0490  120.1680   61.4940 C   0  0  0  0  0  0  0  0  0  0  0  0
  130.2330  118.7910   61.3870 C   0  0  0  0  0  0  0  0  0  0  0  0
  131.4820  118.2760   61.0560 C   0  0  0  0  0  0  0  0  0  0  0  0
  132.5520  119.1390   60.8340 C   0  0  0  0  0  0  0  0  0  0  0  0
  132.3830  120.5240   60.9360 C   0  0  0  0  0  0  0  0  0  0  0  0
  133.5890  121.4260   60.6880 C   0  0  0  0  0  0  0  0  0  0  0  0
  131.8960  125.3490   61.6760 C   0  0  0  0  0  0  0  0  0  0  0  0
  131.9200  126.6800   61.3870 N   0  0  0  0  0  0  0  0  0  0  0  0
  130.8870  127.3980   61.6340 C   0  0  0  0  0  0  0  0  0  0  0  0
  130.8210  129.1350   61.4590 S   0  0  0  0  0  0  0  0  0  0  0  0
  129.1250  129.1820   62.0360 C   0  0  0  0  0  0  0  0  0  0  0  0
  128.3270  130.2950   62.1860 C   0  0  0  0  0  0  0  0  0  0  0  0
  128.8720  131.6380   61.9410 C   0  0  0  0  0  0  0  0  0  0  0  0
  129.9950  131.9810   61.5720 O   0  0  0  0  0  0  0  0  0  0  0  0
  127.9030  132.5180   62.2130 N   0  0  0  0  0  0  0  0  0  0  0  0
  126.7360  131.9240   62.5880 C   0  0  0  0  0  0  0  0  0  0  0  0
  125.5320  132.5410   62.9250 C   0  0  0  0  0  0  0  0  0  0  0  0
  124.4370  131.7470   63.2520 C   0  0  0  0  0  0  0  0  0  0  0  0
  124.5610  130.3580   63.2270 C   0  0  0  0  0  0  0  0  0  0  0  0
  125.7780  129.7630   62.8860 C   0  0  0  0  0  0  0  0  0  0  0  0
  126.9030  130.5500   62.5760 C   0  0  0  0  0  0  0  0  0  0  0  0
  128.7150  127.8110   62.3440 C   0  0  0  0  0  0  0  0  0  0  0  0
  127.6370  127.4600   62.8120 O   0  0  0  0  0  0  0  0  0  0  0  0
  129.6980  126.9100   62.0720 N   0  0  0  0  0  0  0  0  0  0  0  0
  128.9030  123.9670   60.3320 O   0  0  0  0  0  0  0  0  0  0  0  0
  128.4170  121.6438   58.9519 H   0  0  0  0  0  0  0  0  0  0  0  0
  127.2681  122.4504   57.8311 H   0  0  0  0  0  0  0  0  0  0  0  0
  129.0020  122.9198   57.8311 H   0  0  0  0  0  0  0  0  0  0  0  0
  125.7752  124.3590   59.3533 H   0  0  0  0  0  0  0  0  0  0  0  0
  126.4919  125.9303   61.4374 H   0  0  0  0  0  0  0  0  0  0  0  0
  129.0031  125.2445   63.2186 H   0  0  0  0  0  0  0  0  0  0  0  0
  130.9480  122.9240   60.4670 H   0  0  0  0  0  0  0  0  0  0  0  0
  129.0597  120.5667   61.7629 H   0  0  0  0  0  0  0  0  0  0  0  0
  129.3882  118.1093   61.5648 H   0  0  0  0  0  0  0  0  0  0  0  0
  131.6242  117.1887   60.9697 H   0  0  0  0  0  0  0  0  0  0  0  0
  133.5392  118.7280   60.5761 H   0  0  0  0  0  0  0  0  0  0  0  0
  134.0137  121.7436   61.6517 H   0  0  0  0  0  0  0  0  0  0  0  0
  134.3492  120.8730   60.1168 H   0  0  0  0  0  0  0  0  0  0  0  0
  133.2733  122.3115   60.1168 H   0  0  0  0  0  0  0  0  0  0  0  0
  132.8225  124.7768   61.5205 H   0  0  0  0  0  0  0  0  0  0  0  0
  128.0240  133.5160   62.1270 H   0  0  0  0  0  0  0  0  0  0  0  0
  125.4490  133.6378   62.9323 H   0  0  0  0  0  0  0  0  0  0  0  0
  123.4793  132.2121   63.5286 H   0  0  0  0  0  0  0  0  0  0  0  0
  123.6953  129.7273   63.4773 H   0  0  0  0  0  0  0  0  0  0  0  0
  125.8581  128.6662   62.8594 H   0  0  0  0  0  0  0  0  0  0  0  0
  1  2  1  0
  2  3  2  0
  3  4  1  0
  4  5  2  0
  5  6  1  0
  6  7  1  0
  7  8  1  0
  8  9  2  0
  8 10  1  0
 10 11  1  0
 11 12  2  0
 12 13  1  0
 13 14  2  0
 14 15  1  0
 15 16  2  0
 16 17  1  0
  7 18  2  0
 18 19  1  0
 19 20  2  0
 20 21  1  0
 21 22  1  0
 22 23  2  0
 23 24  1  0
 24 25  2  0
 24 26  1  0
 26 27  1  0
 27 28  2  0
 28 29  1  0
 29 30  2  0
 30 31  1  0
 31 32  2  0
 22 33  1  0
 33 34  2  0
 33 35  1  0
  5 36  1  0
 36  2  1  0
 35  6  1  0
 16 11  1  0
 35 20  1  0
 32 23  1  0
 32 27  1  0
  1 37  1  0
  1 38  1  0
  1 39  1  0
  3 40  1  0
  4 41  1  0
  6 42  1  1
 10 43  1  0
 12 44  1  0
 13 45  1  0
 14 46  1  0
 15 47  1  0
 17 48  1  0
 17 49  1  0
 17 50  1  0
 18 51  1  0
 26 52  1  0
 28 53  1  0
 29 54  1  0
 30 55  1  0
 31 56  1  0
M  END
>  <Binding energies>  (1) 
[-7.92]

>  <Ligand effiencies>  (1) 
[-0.20842105263157895]

>  <Interactions>  (1) 
["V-B:LEU:475:CD2:9230, V-B:GLY:454:CA:9020, H-A:ALA:541:N:4889, V-A:ALA:541:CB:4890, V-B:TYR:539:CE1:9847, V-B:TYR:539:C:9839, V-B:PRO:540:N:9856, V-A:ILE:369:CD1:3236, V-B:PRO:540:CA:9855, V-A:LEU:475:CD2:4256, V-B:TYR:539:CD1:9845, H-B:ARG:545:NH2:9900, V-A:ILE:369:CG2:3234, V-B:GLU:543:CD:9880, H-A:ARG:545:NH2:4926, V-A:GLU:543:CD:4906, V-B:ARG:545:CZ:9898, V-A:SER:385:CA:3404, V-B:ALA:541:CB:9864, H-A:TYR:539:O:4866, H-A:TYR:484:OH:4345, V-A:LEU:373:CD1:3277, V-A:PRO:482:CB:4323, V-A:PRO:482:CG:4324"]

$$$$
RR19_Rahimova_2017
     RDKit          3D

 72 77  0  0  0  0  0  0  0  0999 V2000
  129.2430  123.1980   60.0230 O   0  0  0  0  0  0  0  0  0  0  0  0
  129.5750  123.8360   61.0270 C   0  0  0  0  0  0  0  0  0  0  0  0
  129.0740  125.0370   61.4100 N   0  0  0  0  0  0  0  0  0  0  0  0
  127.9880  125.7720   61.0000 C   0  0  0  0  0  0  0  0  0  0  0  0
  126.7530  125.2210   59.9810 S   0  0  0  0  0  0  0  0  0  0  0  0
  128.0710  127.0250   61.5540 N   0  0  0  0  0  0  0  0  0  0  0  0
  127.2140  128.0760   61.5950 C   0  0  0  0  0  0  0  0  0  0  0  0
  126.0260  128.0650   61.2640 O   0  0  0  0  0  0  0  0  0  0  0  0
  127.8590  129.3940   62.0920 C   0  0  2  0  0  0  0  0  0  0  0  0
  126.8640  130.4110   62.7220 C   0  0  0  0  0  0  0  0  0  0  0  0
  126.3720  130.0570   64.1170 C   0  0  0  0  0  0  0  0  0  0  0  0
  124.9920  130.0290   64.4130 C   0  0  0  0  0  0  0  0  0  0  0  0
  124.5590  129.6270   65.6690 C   0  0  0  0  0  0  0  0  0  0  0  0
  125.4790  129.2340   66.6350 C   0  0  0  0  0  0  0  0  0  0  0  0
  126.8380  129.2280   66.3480 C   0  0  0  0  0  0  0  0  0  0  0  0
  127.2910  129.6240   65.0970 C   0  0  0  0  0  0  0  0  0  0  0  0
  128.6870  130.0260   61.0290 N   0  0  0  0  0  0  0  0  0  0  0  0
  128.2500  131.1250   60.3490 C   0  0  0  0  0  0  0  0  0  0  0  0
  127.1690  131.7030   60.4800 O   0  0  0  0  0  0  0  0  0  0  0  0
  129.3510  131.4810   59.4210 C   0  0  0  0  0  0  0  0  0  0  0  0
  129.4600  132.5090   58.4830 C   0  0  0  0  0  0  0  0  0  0  0  0
  130.6400  132.6120   57.7380 C   0  0  0  0  0  0  0  0  0  0  0  0
  131.6840  131.6990   57.9380 C   0  0  0  0  0  0  0  0  0  0  0  0
  131.5550  130.6770   58.8840 C   0  0  0  0  0  0  0  0  0  0  0  0
  130.3700  130.5900   59.6160 C   0  0  0  0  0  0  0  0  0  0  0  0
  129.9490  129.6390   60.6750 C   0  0  0  0  0  0  0  0  0  0  0  0
  130.6060  128.7070   61.1410 O   0  0  0  0  0  0  0  0  0  0  0  0
  130.6720  123.2670   61.9670 C   0  0  2  0  0  0  0  0  0  0  0  0
  131.8700  124.2330   62.1930 C   0  0  0  0  0  0  0  0  0  0  0  0
  131.9180  124.8410   63.5840 C   0  0  0  0  0  0  0  0  0  0  0  0
  130.7230  125.0520   64.3050 C   0  0  0  0  0  0  0  0  0  0  0  0
  130.7760  125.5120   65.6150 C   0  0  0  0  0  0  0  0  0  0  0  0
  132.0000  125.7400   66.2290 C   0  0  0  0  0  0  0  0  0  0  0  0
  133.1850  125.4990   65.5440 C   0  0  0  0  0  0  0  0  0  0  0  0
  133.1540  125.0400   64.2340 C   0  0  0  0  0  0  0  0  0  0  0  0
  131.1350  121.9040   61.5790 N   0  0  0  0  0  0  0  0  0  0  0  0
  130.2620  120.8710   61.4130 C   0  0  0  0  0  0  0  0  0  0  0  0
  129.0400  120.8950   61.5640 O   0  0  0  0  0  0  0  0  0  0  0  0
  131.0970  119.7120   61.0100 C   0  0  0  0  0  0  0  0  0  0  0  0
  130.7480  118.3930   60.7130 C   0  0  0  0  0  0  0  0  0  0  0  0
  131.7610  117.4980   60.3520 C   0  0  0  0  0  0  0  0  0  0  0  0
  133.0940  117.9270   60.2910 C   0  0  0  0  0  0  0  0  0  0  0  0
  133.4230  119.2540   60.5900 C   0  0  0  0  0  0  0  0  0  0  0  0
  132.3980  120.1310   60.9500 C   0  0  0  0  0  0  0  0  0  0  0  0
  132.4320  121.5680   61.3130 C   0  0  0  0  0  0  0  0  0  0  0  0
  133.4190  122.3020   61.3630 O   0  0  0  0  0  0  0  0  0  0  0  0
  129.5370  125.4230   62.2200 H   0  0  0  0  0  0  0  0  0  0  0  0
  128.9840  127.2420   61.9260 H   0  0  0  0  0  0  0  0  0  0  0  0
  128.5164  129.0945   62.9215 H   0  0  0  0  0  0  0  0  0  0  0  0
  127.3654  131.3886   62.7760 H   0  0  0  0  0  0  0  0  0  0  0  0
  125.9744  130.4082   62.0750 H   0  0  0  0  0  0  0  0  0  0  0  0
  124.2595  130.3259   63.6479 H   0  0  0  0  0  0  0  0  0  0  0  0
  123.4838  129.6192   65.9012 H   0  0  0  0  0  0  0  0  0  0  0  0
  125.1287  128.9264   67.6313 H   0  0  0  0  0  0  0  0  0  0  0  0
  127.5584  128.9081   67.1153 H   0  0  0  0  0  0  0  0  0  0  0  0
  128.3669  129.6003   64.8692 H   0  0  0  0  0  0  0  0  0  0  0  0
  128.6364  133.2225   58.3328 H   0  0  0  0  0  0  0  0  0  0  0  0
  130.7485  133.4132   56.9921 H   0  0  0  0  0  0  0  0  0  0  0  0
  132.6087  131.7864   57.3486 H   0  0  0  0  0  0  0  0  0  0  0  0
  132.3703  129.9570   59.0476 H   0  0  0  0  0  0  0  0  0  0  0  0
  130.1670  123.1681   62.9392 H   0  0  0  0  0  0  0  0  0  0  0  0
  132.8022  123.6729   62.0277 H   0  0  0  0  0  0  0  0  0  0  0  0
  131.7458  125.0658   61.4852 H   0  0  0  0  0  0  0  0  0  0  0  0
  129.7509  124.8525   63.8303 H   0  0  0  0  0  0  0  0  0  0  0  0
  129.8434  125.6964   66.1684 H   0  0  0  0  0  0  0  0  0  0  0  0
  132.0321  126.1134   67.2632 H   0  0  0  0  0  0  0  0  0  0  0  0
  134.1507  125.6725   66.0414 H   0  0  0  0  0  0  0  0  0  0  0  0
  134.0942  124.8313   63.7025 H   0  0  0  0  0  0  0  0  0  0  0  0
  129.6993  118.0647   60.7618 H   0  0  0  0  0  0  0  0  0  0  0  0
  131.5103  116.4535   60.1151 H   0  0  0  0  0  0  0  0  0  0  0  0
  133.8851  117.2175   60.0068 H   0  0  0  0  0  0  0  0  0  0  0  0
  134.4665  119.5986   60.5424 H   0  0  0  0  0  0  0  0  0  0  0  0
  1  2  2  0
  2  3  1  0
  3  4  1  0
  4  5  2  0
  4  6  1  0
  6  7  1  0
  7  8  2  0
  7  9  1  0
  9 10  1  0
 10 11  1  0
 11 12  2  0
 12 13  1  0
 13 14  2  0
 14 15  1  0
 15 16  2  0
  9 17  1  0
 17 18  1  0
 18 19  2  0
 18 20  1  0
 20 21  2  0
 21 22  1  0
 22 23  2  0
 23 24  1  0
 24 25  2  0
 25 26  1  0
 26 27  2  0
  2 28  1  0
 28 29  1  0
 29 30  1  0
 30 31  2  0
 31 32  1  0
 32 33  2  0
 33 34  1  0
 34 35  2  0
 28 36  1  0
 36 37  1  0
 37 38  2  0
 37 39  1  0
 39 40  2  0
 40 41  1  0
 41 42  2  0
 42 43  1  0
 43 44  2  0
 44 45  1  0
 45 46  2  0
 16 11  1  0
 26 17  1  0
 35 30  1  0
 45 36  1  0
 25 20  1  0
 44 39  1  0
  3 47  1  0
  6 48  1  0
  9 49  1  1
 10 50  1  0
 10 51  1  0
 12 52  1  0
 13 53  1  0
 14 54  1  0
 15 55  1  0
 16 56  1  0
 21 57  1  0
 22 58  1  0
 23 59  1  0
 24 60  1  0
 28 61  1  1
 29 62  1  0
 29 63  1  0
 31 64  1  0
 32 65  1  0
 33 66  1  0
 34 67  1  0
 35 68  1  0
 40 69  1  0
 41 70  1  0
 42 71  1  0
 43 72  1  0
M  END
>  <Binding energies>  (1) 
[-11.15]

>  <Ligand effiencies>  (1) 
[-0.23229166666666667]

>  <Interactions>  (1) 
["V-B:GLY:454:CA:9020, V-A:TYR:539:CE1:4873, V-A:TYR:539:CD1:4871, V-A:PRO:540:CB:4883, V-A:PRO:540:CD:4885, V-A:PRO:540:CA:4881, V-A:PRO:540:N:4882, V-A:TYR:539:C:4865, V-B:TYR:539:CE1:9847, H-B:ALA:541:N:9863, V-A:LEU:475:CD2:4256, V-B:TYR:539:CD1:9845, H-B:GLU:543:OE1:9881, H-B:ARG:545:NH2:9900, V-A:ILE:369:CG2:3234, V-B:HIS:456:CE1:9040, V-B:GLU:543:CD:9880, H-A:ARG:545:NH2:4926, V-B:GLU:543:CB:9878, V-A:HIS:456:CE1:4066, V-A:GLU:543:CD:4906, V-B:ARG:545:CZ:9898, V-B:ARG:545:CG:9894, V-A:ARG:545:CZ:4924, V-A:ARG:545:CG:4920, V-A:SER:385:CA:3404, V-A:SER:385:C:3402, V-A:ARG:545:CD:4921, V-B:ALA:541:CB:9864, V-B:TYR:539:CG:9844, V-B:ARG:545:CD:9895, V-A:SER:385:CB:3406, V-A:LEU:373:CD1:3277, V-A:PRO:482:CB:4323, V-A:PRO:482:CG:4324, V-B:TYR:539:CB:9843"]

$$$$
RR19_Rahimova_2017-again1
     RDKit          3D

 71 76  0  0  0  0  0  0  0  0999 V2000
  129.1430  129.6730   59.6290 O   0  0  0  0  0  0  0  0  0  0  0  0
  129.1200  129.0370   60.6850 C   0  0  0  0  0  0  0  0  0  0  0  0
  129.7110  127.8380   60.9010 N   0  0  0  0  0  0  0  0  0  0  0  0
  130.5700  127.0790   60.1560 C   0  0  0  0  0  0  0  0  0  0  0  0
  131.1420  127.3070   58.5920 S   0  0  0  0  0  0  0  0  0  0  0  0
  130.9960  126.0470   60.9730 N   0  0  0  0  0  0  0  0  0  0  0  0
  131.0410  124.7770   60.7300 C   0  0  0  0  0  0  0  0  0  0  0  0
  130.7980  124.1460   59.6820 O   0  0  0  0  0  0  0  0  0  0  0  0
  131.4510  123.8760   61.9420 C   0  0  2  0  0  0  0  0  0  0  0  0
  132.6220  124.5160   62.7600 C   0  0  0  0  0  0  0  0  0  0  0  0
  132.2170  125.0560   64.1300 C   0  0  0  0  0  0  0  0  0  0  0  0
  133.1990  125.3560   65.0780 C   0  0  0  0  0  0  0  0  0  0  0  0
  132.8320  125.8620   66.3220 C   0  0  0  0  0  0  0  0  0  0  0  0
  131.4840  126.0640   66.6150 C   0  0  0  0  0  0  0  0  0  0  0  0
  130.5000  125.7620   65.6760 C   0  0  0  0  0  0  0  0  0  0  0  0
  130.8670  125.2550   64.4320 C   0  0  0  0  0  0  0  0  0  0  0  0
  131.6610  122.4360   61.5760 N   0  0  0  0  0  0  0  0  0  0  0  0
  130.6340  121.5390   61.5880 C   0  0  0  0  0  0  0  0  0  0  0  0
  129.4590  121.7520   61.8920 O   0  0  0  0  0  0  0  0  0  0  0  0
  131.2320  120.2500   61.1580 C   0  0  0  0  0  0  0  0  0  0  0  0
  130.6600  118.9870   60.9900 C   0  0  0  0  0  0  0  0  0  0  0  0
  131.4770  117.9340   60.5680 C   0  0  0  0  0  0  0  0  0  0  0  0
  132.8390  118.1510   60.3170 C   0  0  0  0  0  0  0  0  0  0  0  0
  133.3920  119.4230   60.4900 C   0  0  0  0  0  0  0  0  0  0  0  0
  132.5610  120.4610   60.9150 C   0  0  0  0  0  0  0  0  0  0  0  0
  132.8520  121.8900   61.1800 C   0  0  0  0  0  0  0  0  0  0  0  0
  133.9360  122.4600   61.0670 O   0  0  0  0  0  0  0  0  0  0  0  0
  128.3560  129.6120   61.9140 C   0  0  2  0  0  0  0  0  0  0  0  0
  127.2440  128.6690   62.4580 C   0  0  0  0  0  0  0  0  0  0  0  0
  126.8710  128.9260   63.9070 C   0  0  0  0  0  0  0  0  0  0  0  0
  127.8720  128.9550   64.9010 C   0  0  0  0  0  0  0  0  0  0  0  0
  127.5440  129.2880   66.2090 C   0  0  0  0  0  0  0  0  0  0  0  0
  126.2360  129.6210   66.5390 C   0  0  0  0  0  0  0  0  0  0  0  0
  125.2470  129.6330   65.5640 C   0  0  0  0  0  0  0  0  0  0  0  0
  125.5550  129.3040   64.2500 C   0  0  0  0  0  0  0  0  0  0  0  0
  127.8620  131.0100   61.7240 N   0  0  0  0  0  0  0  0  0  0  0  0
  126.5480  131.2770   61.4810 C   0  0  0  0  0  0  0  0  0  0  0  0
  125.6400  130.4630   61.3080 O   0  0  0  0  0  0  0  0  0  0  0  0
  126.4390  132.7560   61.4780 C   0  0  0  0  0  0  0  0  0  0  0  0
  125.3360  133.5920   61.2930 C   0  0  0  0  0  0  0  0  0  0  0  0
  125.5250  134.9760   61.3640 C   0  0  0  0  0  0  0  0  0  0  0  0
  126.7990  135.5030   61.6130 C   0  0  0  0  0  0  0  0  0  0  0  0
  127.8940  134.6500   61.7920 C   0  0  0  0  0  0  0  0  0  0  0  0
  127.6830  133.2720   61.7210 C   0  0  0  0  0  0  0  0  0  0  0  0
  128.6200  132.1340   61.8940 C   0  0  0  0  0  0  0  0  0  0  0  0
  129.8230  132.1940   62.1480 O   0  0  0  0  0  0  0  0  0  0  0  0
  129.5580  127.4690   61.8270 H   0  0  0  0  0  0  0  0  0  0  0  0
  130.5891  123.8416   62.6246 H   0  0  0  0  0  0  0  0  0  0  0  0
  133.3966  123.7492   62.9083 H   0  0  0  0  0  0  0  0  0  0  0  0
  132.9763  125.3784   62.1763 H   0  0  0  0  0  0  0  0  0  0  0  0
  134.2608  125.1925   64.8415 H   0  0  0  0  0  0  0  0  0  0  0  0
  133.6020  126.1013   67.0702 H   0  0  0  0  0  0  0  0  0  0  0  0
  131.1945  126.4658   67.5972 H   0  0  0  0  0  0  0  0  0  0  0  0
  129.4387  125.9232   65.9160 H   0  0  0  0  0  0  0  0  0  0  0  0
  130.0948  125.0113   63.6875 H   0  0  0  0  0  0  0  0  0  0  0  0
  129.5898  118.8243   61.1855 H   0  0  0  0  0  0  0  0  0  0  0  0
  131.0489  116.9299   60.4322 H   0  0  0  0  0  0  0  0  0  0  0  0
  133.4745  117.3177   59.9829 H   0  0  0  0  0  0  0  0  0  0  0  0
  134.4597  119.6023   60.2953 H   0  0  0  0  0  0  0  0  0  0  0  0
  129.1242  129.6674   62.6994 H   0  0  0  0  0  0  0  0  0  0  0  0
  126.3439  128.8031   61.8401 H   0  0  0  0  0  0  0  0  0  0  0  0
  127.6428  127.6450   62.4088 H   0  0  0  0  0  0  0  0  0  0  0  0
  128.9130  128.7137   64.6399 H   0  0  0  0  0  0  0  0  0  0  0  0
  128.3224  129.2881   66.9862 H   0  0  0  0  0  0  0  0  0  0  0  0
  125.9824  129.8766   67.5784 H   0  0  0  0  0  0  0  0  0  0  0  0
  124.2155  129.9041   65.8334 H   0  0  0  0  0  0  0  0  0  0  0  0
  124.7733  129.3381   63.4768 H   0  0  0  0  0  0  0  0  0  0  0  0
  124.3392  133.1709   61.0955 H   0  0  0  0  0  0  0  0  0  0  0  0
  124.6698  135.6535   61.2238 H   0  0  0  0  0  0  0  0  0  0  0  0
  126.9393  136.5926   61.6681 H   0  0  0  0  0  0  0  0  0  0  0  0
  128.8980  135.0562   61.9843 H   0  0  0  0  0  0  0  0  0  0  0  0
  1  2  2  0
  2  3  1  0
  3  4  1  0
  4  5  2  0
  4  6  1  0
  6  7  2  0
  7  8  1  0
  7  9  1  0
  9 10  1  0
 10 11  1  0
 11 12  2  0
 12 13  1  0
 13 14  2  0
 14 15  1  0
 15 16  2  0
  9 17  1  0
 17 18  1  0
 18 19  2  0
 18 20  1  0
 20 21  2  0
 21 22  1  0
 22 23  2  0
 23 24  1  0
 24 25  2  0
 25 26  1  0
 26 27  2  0
  2 28  1  0
 28 29  1  0
 29 30  1  0
 30 31  2  0
 31 32  1  0
 32 33  2  0
 33 34  1  0
 34 35  2  0
 28 36  1  0
 36 37  1  0
 37 38  2  0
 37 39  1  0
 39 40  2  0
 40 41  1  0
 41 42  2  0
 42 43  1  0
 43 44  2  0
 44 45  1  0
 45 46  2  0
 16 11  1  0
 26 17  1  0
 35 30  1  0
 45 36  1  0
 25 20  1  0
 44 39  1  0
  3 47  1  0
  9 48  1  1
 10 49  1  0
 10 50  1  0
 12 51  1  0
 13 52  1  0
 14 53  1  0
 15 54  1  0
 16 55  1  0
 21 56  1  0
 22 57  1  0
 23 58  1  0
 24 59  1  0
 28 60  1  1
 29 61  1  0
 29 62  1  0
 31 63  1  0
 32 64  1  0
 33 65  1  0
 34 66  1  0
 35 67  1  0
 40 68  1  0
 41 69  1  0
 42 70  1  0
 43 71  1  0
M  CHG  1   8  -1
M  END
>  <Binding energies>  (1) 
[-9.39]

>  <Ligand effiencies>  (1) 
[-0.1997872340425532]

>  <Interactions>  (1) 
["V-B:LEU:475:CD2:9230, V-B:ILE:369:CG2:8208, V-A:TYR:539:CE1:4873, V-A:TYR:539:CD1:4871, H-A:ALA:541:N:4889, V-A:TYR:539:C:4865, V-A:ALA:541:CB:4890, V-B:TYR:539:CE1:9847, H-B:ALA:541:N:9863, V-A:LEU:475:CD2:4256, V-B:TYR:539:CD1:9845, V-A:GLU:543:CG:4905, V-A:ASP:366:CG:3210, V-A:ILE:369:CG2:3234, V-B:HIS:456:CE1:9040, V-B:GLU:543:CD:9880, V-B:GLU:543:CB:9878, V-A:HIS:456:CE1:4066, V-A:ASP:366:CB:3209, V-A:GLU:543:CD:4906, V-A:GLU:543:CB:4904, V-B:ARG:545:CZ:9898, V-A:ARG:545:CZ:4924, V-A:ARG:545:CG:4920, V-A:SER:385:CA:3404, V-A:ARG:545:CD:4921, V-B:ALA:541:CB:9864, V-B:TYR:484:CZ:9318, V-B:ARG:545:CD:9895, V-A:SER:385:CB:3406, V-A:LEU:373:CD1:3277, V-A:PRO:482:CB:4323, V-A:PRO:482:CG:4324"]

$$$$
RR1_Rahimova_2017
     RDKit          3D

 68 71  0  0  0  0  0  0  0  0999 V2000
  124.1250  124.0110   57.9300 C   0  0  0  0  0  0  0  0  0  0  0  0
  125.2390  123.1650   57.6710 O   0  0  0  0  0  0  0  0  0  0  0  0
  126.3540  123.2500   58.4820 C   0  0  0  0  0  0  0  0  0  0  0  0
  126.3330  123.7010   59.8110 C   0  0  0  0  0  0  0  0  0  0  0  0
  127.5100  123.7600   60.5510 C   0  0  0  0  0  0  0  0  0  0  0  0
  128.7220  123.3650   59.9820 C   0  0  0  0  0  0  0  0  0  0  0  0
  129.8630  123.5050   60.7950 N   0  0  0  0  0  0  0  0  0  0  0  0
  130.5090  122.5740   61.5290 C   0  0  0  0  0  0  0  0  0  0  0  0
  130.1410  121.4070   61.6630 O   0  0  0  0  0  0  0  0  0  0  0  0
  131.7840  123.0790   62.2230 C   0  0  0  0  0  0  0  0  0  0  0  0
  132.3310  124.7530   61.7380 S   0  0  0  0  0  0  0  0  0  0  0  0
  131.0380  125.6630   62.5160 C   0  0  0  0  0  0  0  0  0  0  0  0
  130.1350  126.3570   61.8710 N   0  0  0  0  0  0  0  0  0  0  0  0
  129.3680  126.8560   62.8350 C   0  0  0  0  0  0  0  0  0  0  0  0
  128.1750  127.7220   62.5460 C   0  0  0  0  0  0  0  0  0  0  0  0
  127.4760  127.6270   61.3330 C   0  0  0  0  0  0  0  0  0  0  0  0
  126.3720  128.4480   61.0910 C   0  0  0  0  0  0  0  0  0  0  0  0
  125.9880  129.3520   62.0790 C   0  0  0  0  0  0  0  0  0  0  0  0
  126.6410  129.4700   63.2630 N   0  0  0  0  0  0  0  0  0  0  0  0
  127.7110  128.6630   63.4790 C   0  0  0  0  0  0  0  0  0  0  0  0
  129.7250  126.5340   64.0640 N   0  0  0  0  0  0  0  0  0  0  0  0
  130.8000  125.7670   63.8620 N   0  0  0  0  0  0  0  0  0  0  0  0
  131.5080  125.1660   64.9930 C   0  0  0  0  0  0  0  0  0  0  0  0
  130.7260  125.1550   66.3180 C   0  0  0  0  0  0  0  0  0  0  0  0
  130.4880  124.0930   66.9030 O   0  0  0  0  0  0  0  0  0  0  0  0
  130.3390  126.3670   66.7590 N   0  0  0  0  0  0  0  0  0  0  0  0
  129.7590  126.4510   68.0170 N   0  0  0  0  0  0  0  0  0  0  0  0
  130.2230  127.3960   68.8640 C   0  0  0  0  0  0  0  0  0  0  0  0
  131.0560  128.2540   68.5530 O   0  0  0  0  0  0  0  0  0  0  0  0
  129.6330  127.3730   70.2590 C   0  0  0  0  0  0  0  0  0  0  0  0
  128.2440  127.3720   70.4300 C   0  0  0  0  0  0  0  0  0  0  0  0
  127.6810  127.3640   71.7010 C   0  0  0  0  0  0  0  0  0  0  0  0
  128.4930  127.3640   72.8470 C   0  0  0  0  0  0  0  0  0  0  0  0
  127.9980  127.3690   74.1390 O   0  0  0  0  0  0  0  0  0  0  0  0
  126.8480  128.1490   74.4450 C   0  0  0  0  0  0  0  0  0  0  0  0
  129.8870  127.3720   72.6970 C   0  0  0  0  0  0  0  0  0  0  0  0
  130.6430  127.3920   73.8570 O   0  0  0  0  0  0  0  0  0  0  0  0
  131.7630  126.5230   73.9820 C   0  0  0  0  0  0  0  0  0  0  0  0
  130.4430  127.3740   71.4050 C   0  0  0  0  0  0  0  0  0  0  0  0
  128.7470  122.9130   58.6540 C   0  0  0  0  0  0  0  0  0  0  0  0
  127.5670  122.8550   57.9180 C   0  0  0  0  0  0  0  0  0  0  0  0
  123.9882  124.1149   59.0165 H   0  0  0  0  0  0  0  0  0  0  0  0
  124.3059  125.0014   57.4869 H   0  0  0  0  0  0  0  0  0  0  0  0
  123.2195  123.5709   57.4869 H   0  0  0  0  0  0  0  0  0  0  0  0
  125.3819  124.0092   60.2696 H   0  0  0  0  0  0  0  0  0  0  0  0
  127.4852  124.1199   61.5902 H   0  0  0  0  0  0  0  0  0  0  0  0
  130.2200  124.4480   60.8540 H   0  0  0  0  0  0  0  0  0  0  0  0
  131.6009  123.0830   63.3076 H   0  0  0  0  0  0  0  0  0  0  0  0
  132.5884  122.3960   61.9124 H   0  0  0  0  0  0  0  0  0  0  0  0
  127.7986  126.9034   60.5699 H   0  0  0  0  0  0  0  0  0  0  0  0
  125.8188  128.3822   60.1425 H   0  0  0  0  0  0  0  0  0  0  0  0
  125.1178  129.9982   61.8914 H   0  0  0  0  0  0  0  0  0  0  0  0
  128.2436  128.7511   64.4374 H   0  0  0  0  0  0  0  0  0  0  0  0
  131.7493  124.1254   64.7305 H   0  0  0  0  0  0  0  0  0  0  0  0
  132.3971  125.7902   65.1659 H   0  0  0  0  0  0  0  0  0  0  0  0
  130.6960  127.2490   66.4160 H   0  0  0  0  0  0  0  0  0  0  0  0
  129.4710  125.5430   68.3520 H   0  0  0  0  0  0  0  0  0  0  0  0
  127.5887  127.3776   69.5465 H   0  0  0  0  0  0  0  0  0  0  0  0
  126.5865  127.3576   71.8105 H   0  0  0  0  0  0  0  0  0  0  0  0
  126.7362  128.2248   75.5367 H   0  0  0  0  0  0  0  0  0  0  0  0
  126.9635  129.1559   74.0174 H   0  0  0  0  0  0  0  0  0  0  0  0
  125.9552  127.6693   74.0174 H   0  0  0  0  0  0  0  0  0  0  0  0
  131.9796  126.3549   75.0473 H   0  0  0  0  0  0  0  0  0  0  0  0
  131.5370  125.5616   73.4977 H   0  0  0  0  0  0  0  0  0  0  0  0
  132.6381  126.9808   73.4977 H   0  0  0  0  0  0  0  0  0  0  0  0
  131.5370  127.3764   71.2903 H   0  0  0  0  0  0  0  0  0  0  0  0
  129.6980  122.6048   58.1950 H   0  0  0  0  0  0  0  0  0  0  0  0
  127.5914  122.4934   56.8794 H   0  0  0  0  0  0  0  0  0  0  0  0
  1  2  1  0
  2  3  1  0
  3  4  2  0
  4  5  1  0
  5  6  2  0
  6  7  1  0
  7  8  1  0
  8  9  2  0
  8 10  1  0
 10 11  1  0
 11 12  1  0
 12 13  2  0
 13 14  1  0
 14 15  1  0
 15 16  2  0
 16 17  1  0
 17 18  2  0
 18 19  1  0
 19 20  2  0
 14 21  2  0
 21 22  1  0
 22 23  1  0
 23 24  1  0
 24 25  2  0
 24 26  1  0
 26 27  1  0
 27 28  1  0
 28 29  2  0
 28 30  1  0
 30 31  2  0
 31 32  1  0
 32 33  2  0
 33 34  1  0
 34 35  1  0
 33 36  1  0
 36 37  1  0
 37 38  1  0
 36 39  2  0
  6 40  1  0
 40 41  2  0
 41  3  1  0
 22 12  1  0
 39 30  1  0
 20 15  1  0
  1 42  1  0
  1 43  1  0
  1 44  1  0
  4 45  1  0
  5 46  1  0
  7 47  1  0
 10 48  1  0
 10 49  1  0
 16 50  1  0
 17 51  1  0
 18 52  1  0
 20 53  1  0
 23 54  1  0
 23 55  1  0
 26 56  1  0
 27 57  1  0
 31 58  1  0
 32 59  1  0
 35 60  1  0
 35 61  1  0
 35 62  1  0
 38 63  1  0
 38 64  1  0
 38 65  1  0
 39 66  1  0
 40 67  1  0
 41 68  1  0
M  END
>  <Binding energies>  (1) 
[-8.29]

>  <Ligand effiencies>  (1) 
[-0.1884090909090909]

>  <Interactions>  (1) 
["V-B:ASP:366:CB:8183, V-B:ASP:366:CG:8184, V-B:TYR:539:CE1:9847, V-B:TYR:539:C:9839, V-B:PRO:540:N:9856, V-B:PRO:540:CA:9855, V-B:TYR:539:CD1:9845, V-A:GLU:543:CG:4905, H-B:ARG:545:NH2:9900, V-B:HIS:456:CE1:9040, V-B:GLU:543:CD:9880, V-B:GLU:543:CB:9878, V-B:GLU:543:CG:9879, V-A:HIS:456:CE1:4066, H-A:GLU:543:OE2:4908, V-A:TYR:484:CE2:4343, V-A:TYR:484:CZ:4344, V-A:GLU:543:CD:4906, V-B:GLU:543:C:9874, V-B:GLY:544:C:9884, V-B:PRO:540:CB:9857, V-B:TYR:531:CE2:9765, V-A:HIS:456:CD2:4065, H-A:HIS:456:NE2:4067, V-A:GLY:544:C:4910, H-A:TYR:484:OH:4345, V-B:LEU:363:CA:8156, V-B:LEU:363:CD1:8160, V-A:GLY:544:CA:4912, V-B:HIS:456:CD2:9039, V-B:HIS:456:CG:9037, V-A:LYS:547:CE:4948, V-B:GLY:544:CA:9886, V-A:HIS:456:CG:4063, H-B:LYS:547:NZ:9923, V-A:HIS:456:CB:4062, H-A:LYS:547:NZ:4949, V-B:LYS:547:CE:9922, V-B:HIS:456:CB:9036, H-B:GLU:543:O:9875"]

$$$$
RR20_Rahimova_2017
     RDKit          3D

 68 73  0  0  0  0  0  0  0  0999 V2000
  131.1410  117.3000   60.4360 C   0  0  0  0  0  0  0  0  0  0  0  0
  131.7300  118.6760   60.6910 C   0  0  0  0  0  0  0  0  0  0  0  0
  133.1070  118.8710   60.5890 C   0  0  0  0  0  0  0  0  0  0  0  0
  133.6490  120.1330   60.8140 C   0  0  0  0  0  0  0  0  0  0  0  0
  132.8200  121.2080   61.1560 C   0  0  0  0  0  0  0  0  0  0  0  0
  133.4260  122.5760   61.3760 C   0  0  0  0  0  0  0  0  0  0  0  0
  134.2230  122.7050   62.3080 O   0  0  0  0  0  0  0  0  0  0  0  0
  133.0860  123.6010   60.5400 N   0  0  0  0  0  0  0  0  0  0  0  0
  133.7470  123.7860   59.2380 C   0  0  0  0  0  0  0  0  0  0  0  0
  133.0080  124.9150   58.5390 C   0  0  0  0  0  0  0  0  0  0  0  0
  131.7460  125.0330   59.3380 C   0  0  0  0  0  0  0  0  0  0  0  0
  130.6370  125.8490   59.1150 C   0  0  0  0  0  0  0  0  0  0  0  0
  129.6150  125.9410   60.0680 C   0  0  0  0  0  0  0  0  0  0  0  0
  128.4160  126.8130   59.8240 C   0  0  0  0  0  0  0  0  0  0  0  0
  127.9490  127.5370   60.8290 N   0  0  0  0  0  0  0  0  0  0  0  0
  126.9180  128.2720   60.4980 C   0  0  0  0  0  0  0  0  0  0  0  0
  126.1970  129.1430   61.3010 N   0  0  0  0  0  0  0  0  0  0  0  0
  126.1760  129.1740   62.6560 C   0  0  0  0  0  0  0  0  0  0  0  0
  126.8340  128.4170   63.3730 O   0  0  0  0  0  0  0  0  0  0  0  0
  125.2920  130.2400   63.3450 C   0  0  0  0  0  0  0  0  0  0  0  0
  125.7550  131.6180   63.1000 N   0  0  0  0  0  0  0  0  0  0  0  0
  127.1010  131.6620   62.5100 C   0  0  0  0  0  0  0  0  0  0  0  0
  127.6420  133.1100   62.5230 C   0  0  0  0  0  0  0  0  0  0  0  0
  126.6160  134.1340   62.0360 C   0  0  0  0  0  0  0  0  0  0  0  0
  126.9980  135.4430   61.7230 C   0  0  0  0  0  0  0  0  0  0  0  0
  126.0580  136.3870   61.3160 C   0  0  0  0  0  0  0  0  0  0  0  0
  124.7180  136.0290   61.2150 C   0  0  0  0  0  0  0  0  0  0  0  0
  124.3250  134.7260   61.5140 C   0  0  0  0  0  0  0  0  0  0  0  0
  125.2590  133.7690   61.9250 C   0  0  0  0  0  0  0  0  0  0  0  0
  124.8370  132.3250   62.1980 C   0  0  0  0  0  0  0  0  0  0  0  0
  126.4220  128.1060   58.8590 S   0  0  0  0  0  0  0  0  0  0  0  0
  127.7060  126.9470   58.6110 C   0  0  0  0  0  0  0  0  0  0  0  0
  127.8780  126.2690   57.2690 C   0  0  0  0  0  0  0  0  0  0  0  0
  129.7600  125.2380   61.2740 C   0  0  0  0  0  0  0  0  0  0  0  0
  130.8770  124.4370   61.5090 C   0  0  0  0  0  0  0  0  0  0  0  0
  131.8500  124.2860   60.5120 C   0  0  0  0  0  0  0  0  0  0  0  0
  131.4350  121.0110   61.2270 C   0  0  0  0  0  0  0  0  0  0  0  0
  130.8920  119.7480   61.0010 C   0  0  0  0  0  0  0  0  0  0  0  0
  130.9302  116.8076   61.3968 H   0  0  0  0  0  0  0  0  0  0  0  0
  130.2073  117.4012   59.8632 H   0  0  0  0  0  0  0  0  0  0  0  0
  131.8587  116.6943   59.8632 H   0  0  0  0  0  0  0  0  0  0  0  0
  133.7645  118.0278   60.3308 H   0  0  0  0  0  0  0  0  0  0  0  0
  134.7344  120.2865   60.7226 H   0  0  0  0  0  0  0  0  0  0  0  0
  134.8038  124.0550   59.3825 H   0  0  0  0  0  0  0  0  0  0  0  0
  133.7199  122.8620   58.6418 H   0  0  0  0  0  0  0  0  0  0  0  0
  133.5877  125.8492   58.5743 H   0  0  0  0  0  0  0  0  0  0  0  0
  132.8298  124.7222   57.4708 H   0  0  0  0  0  0  0  0  0  0  0  0
  130.5644  126.4260   58.1813 H   0  0  0  0  0  0  0  0  0  0  0  0
  125.6240  129.8190   60.8170 H   0  0  0  0  0  0  0  0  0  0  0  0
  124.2645  130.1426   62.9645 H   0  0  0  0  0  0  0  0  0  0  0  0
  125.3469  130.0623   64.4292 H   0  0  0  0  0  0  0  0  0  0  0  0
  127.7747  131.0171   63.0932 H   0  0  0  0  0  0  0  0  0  0  0  0
  127.0490  131.3074   61.4700 H   0  0  0  0  0  0  0  0  0  0  0  0
  127.9325  133.3667   63.5524 H   0  0  0  0  0  0  0  0  0  0  0  0
  128.4985  133.1481   61.8339 H   0  0  0  0  0  0  0  0  0  0  0  0
  128.0568  135.7311   61.7995 H   0  0  0  0  0  0  0  0  0  0  0  0
  126.3747  137.4125   61.0752 H   0  0  0  0  0  0  0  0  0  0  0  0
  123.9706  136.7721   60.9001 H   0  0  0  0  0  0  0  0  0  0  0  0
  123.2650  134.4458   61.4256 H   0  0  0  0  0  0  0  0  0  0  0  0
  123.8356  132.3329   62.6532 H   0  0  0  0  0  0  0  0  0  0  0  0
  124.8474  131.7924   61.2356 H   0  0  0  0  0  0  0  0  0  0  0  0
  128.1458  125.2133   57.4232 H   0  0  0  0  0  0  0  0  0  0  0  0
  126.9360  126.3296   56.7042 H   0  0  0  0  0  0  0  0  0  0  0  0
  128.6772  126.7713   56.7042 H   0  0  0  0  0  0  0  0  0  0  0  0
  128.9805  125.3201   62.0458 H   0  0  0  0  0  0  0  0  0  0  0  0
  130.9941  123.9246   62.4753 H   0  0  0  0  0  0  0  0  0  0  0  0
  130.7730  121.8574   61.4623 H   0  0  0  0  0  0  0  0  0  0  0  0
  129.8045  119.5960   61.0668 H   0  0  0  0  0  0  0  0  0  0  0  0
  1  2  1  0
  2  3  2  0
  3  4  1  0
  4  5  2  0
  5  6  1  0
  6  7  2  0
  6  8  1  0
  8  9  1  0
  9 10  1  0
 10 11  1  0
 11 12  2  0
 12 13  1  0
 13 14  1  0
 14 15  1  0
 15 16  2  0
 16 17  1  0
 17 18  1  0
 18 19  2  0
 18 20  1  0
 20 21  1  0
 21 22  1  0
 22 23  1  0
 23 24  1  0
 24 25  2  0
 25 26  1  0
 26 27  2  0
 27 28  1  0
 28 29  2  0
 29 30  1  0
 16 31  1  0
 31 32  1  0
 32 33  1  0
 13 34  2  0
 34 35  1  0
 35 36  2  0
  5 37  1  0
 37 38  2  0
 38  2  1  0
 36  8  1  0
 36 11  1  0
 32 14  2  0
 30 21  1  0
 29 24  1  0
  1 39  1  0
  1 40  1  0
  1 41  1  0
  3 42  1  0
  4 43  1  0
  9 44  1  0
  9 45  1  0
 10 46  1  0
 10 47  1  0
 12 48  1  0
 17 49  1  0
 20 50  1  0
 20 51  1  0
 22 52  1  0
 22 53  1  0
 23 54  1  0
 23 55  1  0
 25 56  1  0
 26 57  1  0
 27 58  1  0
 28 59  1  0
 30 60  1  0
 30 61  1  0
 33 62  1  0
 33 63  1  0
 33 64  1  0
 34 65  1  0
 35 66  1  0
 37 67  1  0
 38 68  1  0
M  END
>  <Binding energies>  (1) 
[-9.03]

>  <Ligand effiencies>  (1) 
[-0.23153846153846153]

>  <Interactions>  (1) 
["V-B:LEU:475:CD2:9230, V-B:ASP:366:CB:8183, V-B:ILE:369:CG2:8208, V-A:TYR:539:CE1:4873, V-A:TYR:539:CD1:4871, V-B:ASP:366:CG:8184, V-A:ALA:541:CB:4890, V-B:TYR:539:CE1:9847, V-A:ILE:369:CD1:3236, V-A:LEU:475:CD2:4256, V-B:TYR:539:CD1:9845, V-A:ASP:366:CG:3210, H-B:ARG:545:NH2:9900, V-A:ILE:369:CG2:3234, V-A:ASP:366:CA:3207, V-A:ASP:366:CB:3209, V-A:ILE:369:CB:3233, V-B:ARG:545:CZ:9898, V-A:SER:385:CA:3404, H-A:GLY:454:N:4047, V-A:SER:385:C:3402, H-B:ASP:366:OD1:8185, V-A:SER:385:CB:3406, V-A:LEU:373:CD1:3277, V-B:SER:385:CA:8378, V-B:SER:385:CB:8380, V-B:LEU:373:CD1:8251, V-A:PRO:482:CB:4323, V-A:PRO:482:CG:4324, V-B:TYR:539:CB:9843, V-B:MET:535:CE:9807"]

$$$$
RR20_Rahimova_2017-again1
     RDKit          3D

 68 73  0  0  0  0  0  0  0  0999 V2000
  130.8540  117.2520   60.3760 C   0  0  0  0  0  0  0  0  0  0  0  0
  131.5870  118.5610   60.6130 C   0  0  0  0  0  0  0  0  0  0  0  0
  130.8780  119.6920   61.0190 C   0  0  0  0  0  0  0  0  0  0  0  0
  131.5500  120.8900   61.2440 C   0  0  0  0  0  0  0  0  0  0  0  0
  132.9350  120.9700   61.0540 C   0  0  0  0  0  0  0  0  0  0  0  0
  133.6500  122.2760   61.3210 C   0  0  0  0  0  0  0  0  0  0  0  0
  134.5410  122.2780   62.1730 O   0  0  0  0  0  0  0  0  0  0  0  0
  133.3080  123.3830   60.5980 N   0  0  0  0  0  0  0  0  0  0  0  0
  133.8700  123.6300   59.2600 C   0  0  0  0  0  0  0  0  0  0  0  0
  133.1530  124.8540   58.7140 C   0  0  0  0  0  0  0  0  0  0  0  0
  131.9740  124.9850   59.6310 C   0  0  0  0  0  0  0  0  0  0  0  0
  130.9100  125.8860   59.5700 C   0  0  0  0  0  0  0  0  0  0  0  0
  129.9810  125.9670   60.6190 C   0  0  0  0  0  0  0  0  0  0  0  0
  128.8400  126.9410   60.5570 C   0  0  0  0  0  0  0  0  0  0  0  0
  129.1090  128.2020   60.2570 N   0  0  0  0  0  0  0  0  0  0  0  0
  128.0560  128.9830   60.2340 C   0  0  0  0  0  0  0  0  0  0  0  0
  127.9880  130.3320   60.0050 N   0  0  0  0  0  0  0  0  0  0  0  0
  128.9810  131.1510   60.1030 C   0  0  0  0  0  0  0  0  0  0  0  0
  130.1900  130.9600   60.3350 O   0  0  0  0  0  0  0  0  0  0  0  0
  128.5970  132.6290   59.8820 C   0  0  0  0  0  0  0  0  0  0  0  0
  128.5960  133.3860   61.2420 N   0  0  2  0  0  0  0  0  0  0  0  0
  128.6890  132.4320   62.4510 C   0  0  0  0  0  0  0  0  0  0  0  0
  127.4200  131.5640   62.5340 C   0  0  0  0  0  0  0  0  0  0  0  0
  126.1300  132.3720   62.4280 C   0  0  0  0  0  0  0  0  0  0  0  0
  124.9280  131.8250   62.8910 C   0  0  0  0  0  0  0  0  0  0  0  0
  123.7240  132.5150   62.7680 C   0  0  0  0  0  0  0  0  0  0  0  0
  123.7100  133.7720   62.1770 C   0  0  0  0  0  0  0  0  0  0  0  0
  124.8990  134.3350   61.7230 C   0  0  0  0  0  0  0  0  0  0  0  0
  126.1200  133.6620   61.8450 C   0  0  0  0  0  0  0  0  0  0  0  0
  127.4010  134.3610   61.3740 C   0  0  0  0  0  0  0  0  0  0  0  0
  126.5920  128.1630   60.6300 S   0  0  0  0  0  0  0  0  0  0  0  0
  127.4770  126.6650   60.7870 C   0  0  0  0  0  0  0  0  0  0  0  0
  126.7520  125.3730   61.0990 C   0  0  0  0  0  0  0  0  0  0  0  0
  130.1740  125.1560   61.7450 C   0  0  0  0  0  0  0  0  0  0  0  0
  131.2470  124.2670   61.8160 C   0  0  0  0  0  0  0  0  0  0  0  0
  132.1220  124.1390   60.7300 C   0  0  0  0  0  0  0  0  0  0  0  0
  133.6440  119.8230   60.6770 C   0  0  0  0  0  0  0  0  0  0  0  0
  132.9720  118.6240   60.4520 C   0  0  0  0  0  0  0  0  0  0  0  0
  130.5980  116.7948   61.3432 H   0  0  0  0  0  0  0  0  0  0  0  0
  129.9329  117.4454   59.8066 H   0  0  0  0  0  0  0  0  0  0  0  0
  131.5002  116.5678   59.8066 H   0  0  0  0  0  0  0  0  0  0  0  0
  129.7886  119.6370   61.1612 H   0  0  0  0  0  0  0  0  0  0  0  0
  130.9904  121.7782   61.5726 H   0  0  0  0  0  0  0  0  0  0  0  0
  134.9508  123.8219   59.3306 H   0  0  0  0  0  0  0  0  0  0  0  0
  133.7316  122.7595   58.6019 H   0  0  0  0  0  0  0  0  0  0  0  0
  133.7957  125.7453   58.7651 H   0  0  0  0  0  0  0  0  0  0  0  0
  132.8723  124.7578   57.6548 H   0  0  0  0  0  0  0  0  0  0  0  0
  130.7984  126.5387   58.6917 H   0  0  0  0  0  0  0  0  0  0  0  0
  129.3259  133.0977   59.2044 H   0  0  0  0  0  0  0  0  0  0  0  0
  127.5913  132.6792   59.4392 H   0  0  0  0  0  0  0  0  0  0  0  0
  129.4420  133.9410   61.2510 H   0  0  0  0  0  0  0  0  0  0  0  0
  129.5686  131.7816   62.3353 H   0  0  0  0  0  0  0  0  0  0  0  0
  128.7827  133.0246   63.3729 H   0  0  0  0  0  0  0  0  0  0  0  0
  127.4426  130.8325   61.7128 H   0  0  0  0  0  0  0  0  0  0  0  0
  127.4208  131.0781   63.5209 H   0  0  0  0  0  0  0  0  0  0  0  0
  124.9340  130.8306   63.3613 H   0  0  0  0  0  0  0  0  0  0  0  0
  122.7896  132.0669   63.1369 H   0  0  0  0  0  0  0  0  0  0  0  0
  122.7627  134.3204   62.0682 H   0  0  0  0  0  0  0  0  0  0  0  0
  124.8786  135.3315   61.2577 H   0  0  0  0  0  0  0  0  0  0  0  0
  127.2113  134.8209   60.3929 H   0  0  0  0  0  0  0  0  0  0  0  0
  127.6671  135.1144   62.1300 H   0  0  0  0  0  0  0  0  0  0  0  0
  126.6810  125.2465   62.1894 H   0  0  0  0  0  0  0  0  0  0  0  0
  125.7409  125.4064   60.6671 H   0  0  0  0  0  0  0  0  0  0  0  0
  127.3074  124.5274   60.6671 H   0  0  0  0  0  0  0  0  0  0  0  0
  129.4684  125.2212   62.5864 H   0  0  0  0  0  0  0  0  0  0  0  0
  131.4056  123.6671   62.7243 H   0  0  0  0  0  0  0  0  0  0  0  0
  134.7366  119.8690   60.5580 H   0  0  0  0  0  0  0  0  0  0  0  0
  133.5322  117.7276   60.1477 H   0  0  0  0  0  0  0  0  0  0  0  0
  1  2  1  0
  2  3  2  0
  3  4  1  0
  4  5  2  0
  5  6  1  0
  6  7  2  0
  6  8  1  0
  8  9  1  0
  9 10  1  0
 10 11  1  0
 11 12  2  0
 12 13  1  0
 13 14  1  0
 14 15  1  0
 15 16  2  0
 16 17  1  0
 17 18  2  0
 18 19  1  0
 18 20  1  0
 20 21  1  0
 21 22  1  0
 22 23  1  0
 23 24  1  0
 24 25  2  0
 25 26  1  0
 26 27  2  0
 27 28  1  0
 28 29  2  0
 29 30  1  0
 16 31  1  0
 31 32  1  0
 32 33  1  0
 13 34  2  0
 34 35  1  0
 35 36  2  0
  5 37  1  0
 37 38  2  0
 38  2  1  0
 36  8  1  0
 36 11  1  0
 32 14  2  0
 30 21  1  0
 29 24  1  0
  1 39  1  0
  1 40  1  0
  1 41  1  0
  3 42  1  0
  4 43  1  0
  9 44  1  0
  9 45  1  0
 10 46  1  0
 10 47  1  0
 12 48  1  0
 20 49  1  0
 20 50  1  0
 21 51  1  6
 22 52  1  0
 22 53  1  0
 23 54  1  0
 23 55  1  0
 25 56  1  0
 26 57  1  0
 27 58  1  0
 28 59  1  0
 30 60  1  0
 30 61  1  0
 33 62  1  0
 33 63  1  0
 33 64  1  0
 34 65  1  0
 35 66  1  0
 37 67  1  0
 38 68  1  0
M  CHG  2  19  -1  21   1
M  END
>  <Binding energies>  (1) 
[-8.28]

>  <Ligand effiencies>  (1) 
[-0.21230769230769228]

>  <Interactions>  (1) 
["V-B:LEU:475:CD2:9230, V-B:GLY:454:CA:9020, V-B:ILE:369:CG2:8208, V-B:GLY:453:C:9013, V-A:TYR:539:CE1:4873, V-B:ILE:369:CD1:8210, V-A:TYR:539:CD1:4871, V-B:ASP:366:CG:8184, V-A:PRO:540:CA:4881, V-A:TYR:539:C:4865, V-A:ALA:541:CB:4890, V-B:TYR:539:CE1:9847, V-A:ILE:369:CD1:3236, V-A:LEU:475:CD2:4256, V-B:TYR:539:CD1:9845, V-A:ASP:366:CG:3210, V-A:ILE:369:CG2:3234, V-A:PRO:540:C:4879, V-A:ASP:366:CA:3207, V-A:ASP:366:CB:3209, V-A:ILE:369:CB:3233, V-A:SER:385:CA:3404, H-A:GLY:454:N:4047, V-A:SER:385:C:3402, H-A:TYR:539:O:4866, V-A:SER:385:CB:3406, V-A:LEU:373:CD1:3277, V-B:SER:385:C:8376, V-A:PRO:482:CB:4323, V-A:PRO:482:CG:4324, V-B:TYR:539:CB:9843, V-B:VAL:344:CG1:7972"]

$$$$
RR21_Rahimova_2017
     RDKit          3D

 62 67  0  0  0  0  0  0  0  0999 V2000
  123.4300  124.5260   57.6180 C   0  0  0  0  0  0  0  0  0  0  0  0
  123.6350  123.9510   58.9050 O   0  0  0  0  0  0  0  0  0  0  0  0
  124.9200  123.6480   59.3140 C   0  0  0  0  0  0  0  0  0  0  0  0
  125.9790  123.3560   58.4370 C   0  0  0  0  0  0  0  0  0  0  0  0
  127.2500  123.0640   58.9310 C   0  0  0  0  0  0  0  0  0  0  0  0
  127.4970  123.0590   60.3090 C   0  0  0  0  0  0  0  0  0  0  0  0
  128.8640  122.7500   60.8370 C   0  0  0  0  0  0  0  0  0  0  0  0
  129.4450  121.6090   60.5230 N   0  0  0  0  0  0  0  0  0  0  0  0
  130.6430  121.6070   61.1280 N   0  0  0  0  0  0  0  0  0  0  0  0
  131.5460  120.5220   60.9810 C   0  0  0  0  0  0  0  0  0  0  0  0
  131.0880  119.1960   61.0270 C   0  0  0  0  0  0  0  0  0  0  0  0
  131.9840  118.1400   60.8760 C   0  0  0  0  0  0  0  0  0  0  0  0
  133.3370  118.4050   60.6800 C   0  0  0  0  0  0  0  0  0  0  0  0
  133.8040  119.7160   60.6360 C   0  0  0  0  0  0  0  0  0  0  0  0
  132.9120  120.7740   60.7860 C   0  0  0  0  0  0  0  0  0  0  0  0
  130.8240  122.7760   61.8220 C   0  0  0  0  0  0  0  0  0  0  0  0
  129.6810  123.5460   61.6720 C   0  0  0  0  0  0  0  0  0  0  0  0
  129.4230  124.8830   62.1860 C   0  0  0  0  0  0  0  0  0  0  0  0
  129.7640  126.0710   61.6360 C   0  0  0  0  0  0  0  0  0  0  0  0
  130.6410  126.3600   60.1170 S   0  0  0  0  0  0  0  0  0  0  0  0
  130.4920  128.0920   60.3760 C   0  0  0  0  0  0  0  0  0  0  0  0
  130.9120  129.0510   59.6100 N   0  0  0  0  0  0  0  0  0  0  0  0
  130.7150  130.4210   59.9330 C   0  0  0  0  0  0  0  0  0  0  0  0
  131.0640  131.3860   59.2530 O   0  0  0  0  0  0  0  0  0  0  0  0
  129.9990  130.6410   61.2380 C   0  0  0  0  0  0  0  0  0  0  0  0
  129.7460  132.0820   61.7010 C   0  0  0  0  0  0  0  0  0  0  0  0
  128.2850  132.3930   62.0190 C   0  0  0  0  0  0  0  0  0  0  0  0
  127.5390  133.2040   61.1590 C   0  0  0  0  0  0  0  0  0  0  0  0
  126.2020  133.4740   61.4410 C   0  0  0  0  0  0  0  0  0  0  0  0
  125.6070  132.9330   62.5820 C   0  0  0  0  0  0  0  0  0  0  0  0
  124.1470  133.2210   62.8780 C   0  0  0  0  0  0  0  0  0  0  0  0
  126.3480  132.1130   63.4370 C   0  0  0  0  0  0  0  0  0  0  0  0
  127.6840  131.8430   63.1560 C   0  0  0  0  0  0  0  0  0  0  0  0
  129.5900  129.6750   61.9940 N   0  0  0  0  0  0  0  0  0  0  0  0
  129.8410  128.3710   61.5490 N   0  0  0  0  0  0  0  0  0  0  0  0
  129.4170  127.3220   62.2960 C   0  0  0  0  0  0  0  0  0  0  0  0
  128.8180  127.4200   63.3740 O   0  0  0  0  0  0  0  0  0  0  0  0
  126.4420  123.3440   61.1820 C   0  0  0  0  0  0  0  0  0  0  0  0
  125.1690  123.6360   60.6900 C   0  0  0  0  0  0  0  0  0  0  0  0
  124.1700  123.9080   61.5620 F   0  0  0  0  0  0  0  0  0  0  0  0
  123.0626  125.5566   57.7312 H   0  0  0  0  0  0  0  0  0  0  0  0
  124.3806  124.5343   57.0645 H   0  0  0  0  0  0  0  0  0  0  0  0
  122.6886  123.9311   57.0645 H   0  0  0  0  0  0  0  0  0  0  0  0
  125.8036  123.3578   57.3511 H   0  0  0  0  0  0  0  0  0  0  0  0
  128.0669  122.8352   58.2307 H   0  0  0  0  0  0  0  0  0  0  0  0
  130.0187  118.9901   61.1827 H   0  0  0  0  0  0  0  0  0  0  0  0
  131.6242  117.1011   60.9114 H   0  0  0  0  0  0  0  0  0  0  0  0
  134.0435  117.5707   60.5588 H   0  0  0  0  0  0  0  0  0  0  0  0
  134.8750  119.9151   60.4831 H   0  0  0  0  0  0  0  0  0  0  0  0
  133.2793  121.8103   60.7515 H   0  0  0  0  0  0  0  0  0  0  0  0
  131.7195  123.0540   62.3971 H   0  0  0  0  0  0  0  0  0  0  0  0
  128.8824  124.9339   63.1426 H   0  0  0  0  0  0  0  0  0  0  0  0
  130.3418  132.2620   62.6080 H   0  0  0  0  0  0  0  0  0  0  0  0
  130.0323  132.7363   60.8644 H   0  0  0  0  0  0  0  0  0  0  0  0
  128.0079  133.6291   60.2593 H   0  0  0  0  0  0  0  0  0  0  0  0
  125.6152  134.1132   60.7649 H   0  0  0  0  0  0  0  0  0  0  0  0
  123.9927  133.2514   63.9667 H   0  0  0  0  0  0  0  0  0  0  0  0
  123.8687  134.1913   62.4409 H   0  0  0  0  0  0  0  0  0  0  0  0
  123.5211  132.4290   62.4409 H   0  0  0  0  0  0  0  0  0  0  0  0
  125.8756  131.6812   64.3316 H   0  0  0  0  0  0  0  0  0  0  0  0
  128.2675  131.1968   63.8283 H   0  0  0  0  0  0  0  0  0  0  0  0
  126.6175  123.3379   62.2679 H   0  0  0  0  0  0  0  0  0  0  0  0
  1  2  1  0
  2  3  1  0
  3  4  2  0
  4  5  1  0
  5  6  2  0
  6  7  1  0
  7  8  2  0
  8  9  1  0
  9 10  1  0
 10 11  2  0
 11 12  1  0
 12 13  2  0
 13 14  1  0
 14 15  2  0
  9 16  1  0
 16 17  2  0
 17 18  1  0
 18 19  2  0
 19 20  1  0
 20 21  1  0
 21 22  2  0
 22 23  1  0
 23 24  2  0
 23 25  1  0
 25 26  1  0
 26 27  1  0
 27 28  2  0
 28 29  1  0
 29 30  2  0
 30 31  1  0
 30 32  1  0
 32 33  2  0
 25 34  2  0
 34 35  1  0
 35 36  1  0
 36 37  2  0
  6 38  1  0
 38 39  2  0
 39 40  1  0
 39  3  1  0
 17  7  1  0
 36 19  1  0
 15 10  1  0
 35 21  1  0
 33 27  1  0
  1 41  1  0
  1 42  1  0
  1 43  1  0
  4 44  1  0
  5 45  1  0
 11 46  1  0
 12 47  1  0
 13 48  1  0
 14 49  1  0
 15 50  1  0
 16 51  1  0
 18 52  1  0
 26 53  1  0
 26 54  1  0
 28 55  1  0
 29 56  1  0
 31 57  1  0
 31 58  1  0
 31 59  1  0
 32 60  1  0
 33 61  1  0
 38 62  1  0
M  END
>  <Binding energies>  (1) 
[-8.83]

>  <Ligand effiencies>  (1) 
[-0.22075]

>  <Interactions>  (1) 
["V-B:LEU:475:CD2:9230, V-B:ASP:366:CB:8183, V-B:GLY:454:CA:9020, V-A:TYR:539:CE1:4873, V-B:ILE:369:CD1:8210, V-A:TYR:539:CD1:4871, V-B:ASP:366:CG:8184, V-A:PRO:540:CA:4881, V-A:ALA:541:CB:4890, V-B:PRO:540:C:9853, V-B:TYR:539:CE1:9847, V-B:TYR:539:C:9839, V-B:PRO:540:N:9856, V-B:PRO:540:CA:9855, V-A:LEU:475:CD2:4256, V-B:TYR:539:CD1:9845, V-A:ASP:366:CG:3210, V-A:ILE:369:CG2:3234, V-B:GLU:543:CD:9880, V-B:ARG:545:CZ:9898, V-A:SER:385:CA:3404, V-A:SER:385:C:3402, V-B:PRO:540:CB:9857, V-B:TYR:531:CE2:9765, V-B:TYR:531:CZ:9766, V-B:ASN:362:CB:8147, V-A:SER:385:CB:3406, V-A:LEU:373:CD1:3277, V-B:LEU:363:CA:8156, V-B:LEU:363:CD1:8160, V-B:ASN:362:C:8143, V-B:ASN:362:CA:8145, H-B:LEU:363:N:8157, V-B:LEU:363:CB:8158, V-B:LEU:363:C:8154"]

$$$$
RR22_Rahimova_2017
     RDKit          3D

 49 54  0  0  0  0  0  0  0  0999 V2000
  126.6270  126.2500   57.5590 O   0  0  0  0  0  0  0  0  0  0  0  0
  127.1160  127.0870   58.3130 C   0  0  0  0  0  0  0  0  0  0  0  0
  126.7540  127.3590   59.6210 N   0  0  0  0  0  0  0  0  0  0  0  0
  127.4710  128.3320   60.3880 C   0  0  1  0  0  0  0  0  0  0  0  0
  126.4800  129.2620   60.8340 O   0  0  0  0  0  0  0  0  0  0  0  0
  126.3090  129.4410   62.2070 C   0  0  0  0  0  0  0  0  0  0  0  0
  125.1220  130.0510   62.6120 C   0  0  0  0  0  0  0  0  0  0  0  0
  124.8970  130.3000   63.9660 C   0  0  0  0  0  0  0  0  0  0  0  0
  125.8610  129.9480   64.9110 C   0  0  0  0  0  0  0  0  0  0  0  0
  127.0500  129.3390   64.5050 C   0  0  0  0  0  0  0  0  0  0  0  0
  127.2790  129.0600   63.1540 C   0  0  0  0  0  0  0  0  0  0  0  0
  128.5480  128.4450   62.6100 C   0  0  1  0  0  0  0  0  0  0  0  0
  129.3710  127.4450   63.3970 C   0  0  0  0  0  0  0  0  0  0  0  0
  129.9600  126.6260   62.2450 C   0  0  0  0  0  0  0  0  0  0  0  0
  131.1410  125.7550   62.4070 C   0  0  0  0  0  0  0  0  0  0  0  0
  131.4130  125.1440   63.6400 C   0  0  0  0  0  0  0  0  0  0  0  0
  132.5280  124.3230   63.7870 C   0  0  0  0  0  0  0  0  0  0  0  0
  133.3770  124.1090   62.7040 C   0  0  0  0  0  0  0  0  0  0  0  0
  133.1210  124.7080   61.4740 C   0  0  0  0  0  0  0  0  0  0  0  0
  132.0060  125.5290   61.3250 C   0  0  0  0  0  0  0  0  0  0  0  0
  129.2820  126.7850   61.1710 N   0  0  0  0  0  0  0  0  0  0  0  0
  128.2190  127.6580   61.4600 N   0  0  0  0  0  0  0  0  0  0  0  0
  128.3740  129.0740   59.4140 C   0  0  0  0  0  0  0  0  0  0  0  0
  128.9400  130.2710   59.6990 C   0  0  0  0  0  0  0  0  0  0  0  0
  129.8440  131.0830   58.8620 C   0  0  0  0  0  0  0  0  0  0  0  0
  131.2080  130.7980   58.7050 C   0  0  0  0  0  0  0  0  0  0  0  0
  132.0020  131.6120   57.8970 C   0  0  0  0  0  0  0  0  0  0  0  0
  131.4080  132.7050   57.2660 C   0  0  0  0  0  0  0  0  0  0  0  0
  130.0940  133.0110   57.4060 N   0  0  0  0  0  0  0  0  0  0  0  0
  129.3380  132.2060   58.1960 C   0  0  0  0  0  0  0  0  0  0  0  0
  128.4790  128.2090   57.8740 S   0  0  0  0  0  0  0  0  0  0  0  0
  125.9550  126.9100   60.0400 H   0  0  0  0  0  0  0  0  0  0  0  0
  124.3653  130.3350   61.8658 H   0  0  0  0  0  0  0  0  0  0  0  0
  123.9585  130.7744   64.2889 H   0  0  0  0  0  0  0  0  0  0  0  0
  125.6841  130.1506   65.9776 H   0  0  0  0  0  0  0  0  0  0  0  0
  127.8123  129.0767   65.2534 H   0  0  0  0  0  0  0  0  0  0  0  0
  129.1493  129.3620   62.5231 H   0  0  0  0  0  0  0  0  0  0  0  0
  130.1549  127.9379   63.9908 H   0  0  0  0  0  0  0  0  0  0  0  0
  128.8077  126.8625   64.1409 H   0  0  0  0  0  0  0  0  0  0  0  0
  130.7422  125.3143   64.4950 H   0  0  0  0  0  0  0  0  0  0  0  0
  132.7375  123.8450   64.7553 H   0  0  0  0  0  0  0  0  0  0  0  0
  134.2578  123.4607   62.8217 H   0  0  0  0  0  0  0  0  0  0  0  0
  133.7964  124.5337   60.6234 H   0  0  0  0  0  0  0  0  0  0  0  0
  131.8020  126.0031   60.3536 H   0  0  0  0  0  0  0  0  0  0  0  0
  128.6933  130.6935   60.6842 H   0  0  0  0  0  0  0  0  0  0  0  0
  131.6518  129.9326   59.2190 H   0  0  0  0  0  0  0  0  0  0  0  0
  133.0721  131.3969   57.7606 H   0  0  0  0  0  0  0  0  0  0  0  0
  132.0324  133.3468   56.6270 H   0  0  0  0  0  0  0  0  0  0  0  0
  128.2722  132.4488   58.3193 H   0  0  0  0  0  0  0  0  0  0  0  0
  1  2  2  0
  2  3  1  0
  3  4  1  0
  4  5  1  1
  5  6  1  0
  6  7  2  0
  7  8  1  0
  8  9  2  0
  9 10  1  0
 10 11  2  0
 11 12  1  0
 12 13  1  0
 13 14  1  0
 14 15  1  0
 15 16  2  0
 16 17  1  0
 17 18  2  0
 18 19  1  0
 19 20  2  0
 14 21  2  0
 21 22  1  0
  4 23  1  0
 23 24  2  0
 24 25  1  0
 25 26  2  0
 26 27  1  0
 27 28  2  0
 28 29  1  0
 29 30  2  0
 23 31  1  0
 31  2  1  0
 22  4  1  0
 30 25  1  0
 11  6  1  0
 22 12  1  0
 20 15  1  0
  3 32  1  0
  7 33  1  0
  8 34  1  0
  9 35  1  0
 10 36  1  0
 12 37  1  6
 13 38  1  0
 13 39  1  0
 16 40  1  0
 17 41  1  0
 18 42  1  0
 19 43  1  0
 20 44  1  0
 24 45  1  0
 26 46  1  0
 27 47  1  0
 28 48  1  0
 30 49  1  0
M  END
>  <Binding energies>  (1) 
[-7.71]

>  <Ligand effiencies>  (1) 
[-0.2409375]

>  <Interactions>  (1) 
["V-A:TYR:539:CE1:4873, V-A:TYR:539:CD1:4871, V-B:ASP:366:CG:8184, V-A:PRO:540:CB:4883, V-A:PRO:540:CD:4885, V-A:PRO:540:CA:4881, V-A:PRO:540:N:4882, V-A:TYR:539:C:4865, V-A:GLY:454:CA:4046, V-A:ASP:366:CG:3210, V-B:GLU:543:CD:9880, V-A:GLU:543:CD:4906, V-B:ARG:545:CZ:9898, H-B:ASP:366:OD1:8185, H-A:TYR:539:N:4868, H-B:TYR:531:OH:9767, H-B:ASP:366:OD2:8186"]

$$$$
RR23_Rahimova_2017
     RDKit          3D

 65 70  0  0  0  0  0  0  0  0999 V2000
  127.5010  129.6230   66.6740 C   0  0  0  0  0  0  0  0  0  0  0  0
  126.6910  130.0170   65.4520 C   0  0  0  0  0  0  0  0  0  0  0  0
  125.4910  129.3640   65.1700 C   0  0  0  0  0  0  0  0  0  0  0  0
  124.7430  129.7330   64.0530 C   0  0  0  0  0  0  0  0  0  0  0  0
  125.1970  130.7500   63.2060 C   0  0  0  0  0  0  0  0  0  0  0  0
  124.3610  131.1500   62.0110 C   0  0  0  0  0  0  0  0  0  0  0  0
  123.4840  132.0000   62.1860 O   0  0  0  0  0  0  0  0  0  0  0  0
  124.6110  130.5770   60.7960 N   0  0  0  0  0  0  0  0  0  0  0  0
  124.1850  131.2170   59.5410 C   0  0  0  0  0  0  0  0  0  0  0  0
  124.7610  130.3750   58.4140 C   0  0  0  0  0  0  0  0  0  0  0  0
  125.7840  129.5340   59.1160 C   0  0  0  0  0  0  0  0  0  0  0  0
  126.6960  128.6260   58.5760 C   0  0  0  0  0  0  0  0  0  0  0  0
  127.4680  127.8120   59.4180 C   0  0  0  0  0  0  0  0  0  0  0  0
  128.4830  126.7990   58.8650 C   0  0  2  0  0  0  0  0  0  0  0  0
  129.1600  126.0740   59.9190 N   0  0  0  0  0  0  0  0  0  0  0  0
  130.3510  125.7680   59.5940 C   0  0  0  0  0  0  0  0  0  0  0  0
  131.2820  125.1130   60.3400 N   0  0  0  0  0  0  0  0  0  0  0  0
  131.2160  124.7560   61.6450 C   0  0  0  0  0  0  0  0  0  0  0  0
  130.2490  124.9370   62.3890 O   0  0  0  0  0  0  0  0  0  0  0  0
  132.4730  124.0760   62.2110 C   0  0  0  0  0  0  0  0  0  0  0  0
  132.5060  122.6670   61.7590 N   0  0  0  0  0  0  0  0  0  0  0  0
  133.7330  122.2220   61.2830 N   0  0  0  0  0  0  0  0  0  0  0  0
  133.8930  121.0090   60.8570 N   0  0  0  0  0  0  0  0  0  0  0  0
  132.8170  120.1190   60.8740 C   0  0  0  0  0  0  0  0  0  0  0  0
  133.0230  118.8190   60.4060 C   0  0  0  0  0  0  0  0  0  0  0  0
  131.9670  117.9070   60.4100 C   0  0  0  0  0  0  0  0  0  0  0  0
  130.7090  118.2910   60.8790 C   0  0  0  0  0  0  0  0  0  0  0  0
  130.5000  119.5900   61.3470 C   0  0  0  0  0  0  0  0  0  0  0  0
  131.5600  120.5040   61.3440 C   0  0  0  0  0  0  0  0  0  0  0  0
  131.3550  121.9160   61.8420 C   0  0  0  0  0  0  0  0  0  0  0  0
  130.2760  122.3450   62.2630 O   0  0  0  0  0  0  0  0  0  0  0  0
  130.9000  126.2610   57.9660 S   0  0  0  0  0  0  0  0  0  0  0  0
  129.5070  127.4010   57.8740 C   0  0  2  0  0  0  0  0  0  0  0  0
  130.0060  128.8290   58.1760 C   0  0  0  0  0  0  0  0  0  0  0  0
  127.2720  127.8920   60.8010 C   0  0  0  0  0  0  0  0  0  0  0  0
  126.3450  128.7850   61.3410 C   0  0  0  0  0  0  0  0  0  0  0  0
  125.6360  129.6520   60.4990 C   0  0  0  0  0  0  0  0  0  0  0  0
  126.3880  131.4210   63.5120 C   0  0  0  0  0  0  0  0  0  0  0  0
  127.1340  131.0520   64.6280 C   0  0  0  0  0  0  0  0  0  0  0  0
  126.9459  129.8930   67.5845 H   0  0  0  0  0  0  0  0  0  0  0  0
  127.6791  128.5376   66.6615 H   0  0  0  0  0  0  0  0  0  0  0  0
  128.4649  130.1529   66.6615 H   0  0  0  0  0  0  0  0  0  0  0  0
  125.1351  128.5582   65.8288 H   0  0  0  0  0  0  0  0  0  0  0  0
  123.7927  129.2229   63.8368 H   0  0  0  0  0  0  0  0  0  0  0  0
  123.0870  131.2376   59.4778 H   0  0  0  0  0  0  0  0  0  0  0  0
  124.5386  132.2570   59.4832 H   0  0  0  0  0  0  0  0  0  0  0  0
  123.9843  129.7491   57.9504 H   0  0  0  0  0  0  0  0  0  0  0  0
  125.1802  130.9751   57.5930 H   0  0  0  0  0  0  0  0  0  0  0  0
  126.8100  128.5483   57.4847 H   0  0  0  0  0  0  0  0  0  0  0  0
  127.8746  126.0894   58.2850 H   0  0  0  0  0  0  0  0  0  0  0  0
  132.1540  124.9070   59.8760 H   0  0  0  0  0  0  0  0  0  0  0  0
  133.3699  124.6001   61.8493 H   0  0  0  0  0  0  0  0  0  0  0  0
  132.4511  124.1124   63.3102 H   0  0  0  0  0  0  0  0  0  0  0  0
  134.0135  118.5156   60.0359 H   0  0  0  0  0  0  0  0  0  0  0  0
  132.1259  116.8824   60.0426 H   0  0  0  0  0  0  0  0  0  0  0  0
  129.8800  117.5680   60.8798 H   0  0  0  0  0  0  0  0  0  0  0  0
  129.5088  119.8929   61.7156 H   0  0  0  0  0  0  0  0  0  0  0  0
  129.0256  127.5073   56.8906 H   0  0  0  0  0  0  0  0  0  0  0  0
  130.0576  128.9768   59.2648 H   0  0  0  0  0  0  0  0  0  0  0  0
  131.0060  128.9680   57.7393 H   0  0  0  0  0  0  0  0  0  0  0  0
  129.3102  129.5606   57.7393 H   0  0  0  0  0  0  0  0  0  0  0  0
  127.8555  127.2433   61.4709 H   0  0  0  0  0  0  0  0  0  0  0  0
  126.1712  128.8081   62.4269 H   0  0  0  0  0  0  0  0  0  0  0  0
  126.7351  132.2425   62.8681 H   0  0  0  0  0  0  0  0  0  0  0  0
  128.0727  131.5764   64.8601 H   0  0  0  0  0  0  0  0  0  0  0  0
  1  2  1  0
  2  3  2  0
  3  4  1  0
  4  5  2  0
  5  6  1  0
  6  7  2  0
  6  8  1  0
  8  9  1  0
  9 10  1  0
 10 11  1  0
 11 12  2  0
 12 13  1  0
 13 14  1  0
 14 15  1  0
 15 16  2  0
 16 17  1  0
 17 18  1  0
 18 19  2  0
 18 20  1  0
 20 21  1  0
 21 22  1  0
 22 23  2  0
 23 24  1  0
 24 25  2  0
 25 26  1  0
 26 27  2  0
 27 28  1  0
 28 29  2  0
 29 30  1  0
 30 31  2  0
 16 32  1  0
 32 33  1  0
 33 34  1  0
 13 35  2  0
 35 36  1  0
 36 37  2  0
  5 38  1  0
 38 39  2  0
 39  2  1  0
 37  8  1  0
 37 11  1  0
 33 14  1  0
 30 21  1  0
 29 24  1  0
  1 40  1  0
  1 41  1  0
  1 42  1  0
  3 43  1  0
  4 44  1  0
  9 45  1  0
  9 46  1  0
 10 47  1  0
 10 48  1  0
 12 49  1  0
 14 50  1  6
 17 51  1  0
 20 52  1  0
 20 53  1  0
 25 54  1  0
 26 55  1  0
 27 56  1  0
 28 57  1  0
 33 58  1  6
 34 59  1  0
 34 60  1  0
 34 61  1  0
 35 62  1  0
 36 63  1  0
 38 64  1  0
 39 65  1  0
M  END
>  <Binding energies>  (1) 
[-8.72]

>  <Ligand effiencies>  (1) 
[-0.21800000000000003]

>  <Interactions>  (1) 
["V-A:TYR:539:CZ:4875, V-B:ASP:366:CB:8183, V-B:ILE:369:CG2:8208, V-A:TYR:539:CE1:4873, V-B:ILE:369:CD1:8210, V-B:ASP:366:CG:8184, V-B:TYR:539:CE1:9847, V-A:LEU:475:CD2:4256, V-B:TYR:539:CD1:9845, V-A:GLU:543:CG:4905, V-A:ILE:369:CG2:3234, V-B:HIS:456:CE1:9040, H-B:GLY:454:N:9021, V-A:GLU:543:CD:4906, V-B:ILE:369:CB:8207, V-A:GLU:543:CB:4904, V-B:ASP:366:CA:8181, V-B:ARG:545:CZ:9898, V-A:SER:385:CA:3404, V-B:ALA:541:CB:9864, V-B:TYR:484:CZ:9318, V-B:ARG:545:CD:9895, H-A:ASP:366:OD1:3211, V-A:SER:385:CB:3406, V-A:LEU:373:CD1:3277, V-A:PRO:482:CB:4323, V-A:PRO:482:CG:4324, V-B:TYR:539:CB:9843"]

$$$$
RR24_Rahimova_2017
     RDKit          3D

 65 71  0  0  0  0  0  0  0  0999 V2000
  128.2170  122.5110   58.2270 C   0  0  0  0  0  0  0  0  0  0  0  0
  128.4430  122.3740   59.7400 C   0  0  2  0  0  0  0  0  0  0  0  0
  127.4150  123.1770   60.5900 C   0  0  0  0  0  0  0  0  0  0  0  0
  127.1550  122.8780   61.7590 O   0  0  0  0  0  0  0  0  0  0  0  0
  126.8420  124.1980   59.8880 O   0  0  0  0  0  0  0  0  0  0  0  0
  127.1260  125.5010   60.2300 C   0  0  0  0  0  0  0  0  0  0  0  0
  127.1570  126.4790   59.2340 C   0  0  0  0  0  0  0  0  0  0  0  0
  127.4340  127.8010   59.5690 C   0  0  0  0  0  0  0  0  0  0  0  0
  127.6730  128.1530   60.9000 C   0  0  0  0  0  0  0  0  0  0  0  0
  127.9960  129.6080   61.2600 C   0  0  1  0  0  0  0  0  0  0  0  0
  129.0270  130.2280   60.2880 C   0  0  0  0  0  0  0  0  0  0  0  0
  128.8280  131.4080   59.6720 C   0  0  0  0  0  0  0  0  0  0  0  0
  127.6890  132.1500   59.8610 N   0  0  0  0  0  0  0  0  0  0  0  0
  126.6850  131.7190   60.6960 C   0  0  0  0  0  0  0  0  0  0  0  0
  125.6320  132.5710   60.7800 N   0  0  0  0  0  0  0  0  0  0  0  0
  124.5130  132.2770   61.4960 C   0  0  0  0  0  0  0  0  0  0  0  0
  123.4790  132.9160   61.2880 O   0  0  0  0  0  0  0  0  0  0  0  0
  124.6290  131.1440   62.2870 N   0  0  0  0  0  0  0  0  0  0  0  0
  123.4740  130.8300   63.1540 C   0  0  0  0  0  0  0  0  0  0  0  0
  125.6510  130.2100   62.2790 C   0  0  0  0  0  0  0  0  0  0  0  0
  125.6640  129.1920   62.9780 O   0  0  0  0  0  0  0  0  0  0  0  0
  126.7560  130.5430   61.3740 C   0  0  0  0  0  0  0  0  0  0  0  0
  129.9570  131.7430   58.8190 C   0  0  0  0  0  0  0  0  0  0  0  0
  130.2300  132.8280   57.9850 C   0  0  0  0  0  0  0  0  0  0  0  0
  131.4360  132.8580   57.2790 C   0  0  0  0  0  0  0  0  0  0  0  0
  132.3550  131.8120   57.4100 C   0  0  0  0  0  0  0  0  0  0  0  0
  132.0750  130.7290   58.2470 C   0  0  0  0  0  0  0  0  0  0  0  0
  130.8690  130.7030   58.9490 C   0  0  0  0  0  0  0  0  0  0  0  0
  130.3270  129.7000   59.8890 C   0  0  0  0  0  0  0  0  0  0  0  0
  130.8180  128.6420   60.2800 O   0  0  0  0  0  0  0  0  0  0  0  0
  127.6220  127.1740   61.8990 C   0  0  0  0  0  0  0  0  0  0  0  0
  127.3440  125.8520   61.5650 C   0  0  0  0  0  0  0  0  0  0  0  0
  129.8550  122.6710   60.1250 N   0  0  0  0  0  0  0  0  0  0  0  0
  130.5060  121.9340   61.0680 C   0  0  0  0  0  0  0  0  0  0  0  0
  130.0630  120.9810   61.7110 O   0  0  0  0  0  0  0  0  0  0  0  0
  131.8660  122.5230   61.1590 C   0  0  0  0  0  0  0  0  0  0  0  0
  132.9590  122.1790   61.9560 C   0  0  0  0  0  0  0  0  0  0  0  0
  134.1400  122.9190   61.8270 C   0  0  0  0  0  0  0  0  0  0  0  0
  134.2130  123.9780   60.9140 C   0  0  0  0  0  0  0  0  0  0  0  0
  133.1070  124.3070   60.1240 C   0  0  0  0  0  0  0  0  0  0  0  0
  131.9380  123.5590   60.2670 C   0  0  0  0  0  0  0  0  0  0  0  0
  130.6260  123.6620   59.5820 C   0  0  0  0  0  0  0  0  0  0  0  0
  130.3040  124.4660   58.7060 O   0  0  0  0  0  0  0  0  0  0  0  0
  127.2894  123.0733   58.0443 H   0  0  0  0  0  0  0  0  0  0  0  0
  129.0655  123.0470   57.7766 H   0  0  0  0  0  0  0  0  0  0  0  0
  128.1343  121.5109   57.7766 H   0  0  0  0  0  0  0  0  0  0  0  0
  128.2612  121.3157   59.9787 H   0  0  0  0  0  0  0  0  0  0  0  0
  126.9628  126.2051   58.1865 H   0  0  0  0  0  0  0  0  0  0  0  0
  127.4649  128.5709   58.7840 H   0  0  0  0  0  0  0  0  0  0  0  0
  128.4304  129.5412   62.2684 H   0  0  0  0  0  0  0  0  0  0  0  0
  127.5820  133.0320   59.3800 H   0  0  0  0  0  0  0  0  0  0  0  0
  125.6370  133.4500   60.2850 H   0  0  0  0  0  0  0  0  0  0  0  0
  123.7745  130.9117   64.2090 H   0  0  0  0  0  0  0  0  0  0  0  0
  122.6583  131.5390   62.9491 H   0  0  0  0  0  0  0  0  0  0  0  0
  123.1295  129.8056   62.9491 H   0  0  0  0  0  0  0  0  0  0  0  0
  129.5052  133.6493   57.8844 H   0  0  0  0  0  0  0  0  0  0  0  0
  131.6631  133.7074   56.6180 H   0  0  0  0  0  0  0  0  0  0  0  0
  133.3023  131.8421   56.8517 H   0  0  0  0  0  0  0  0  0  0  0  0
  132.7971  129.9058   58.3516 H   0  0  0  0  0  0  0  0  0  0  0  0
  127.8017  127.4497   62.9486 H   0  0  0  0  0  0  0  0  0  0  0  0
  127.2959  125.0840   62.3511 H   0  0  0  0  0  0  0  0  0  0  0  0
  132.8937  121.3446   62.6698 H   0  0  0  0  0  0  0  0  0  0  0  0
  135.0143  122.6676   62.4454 H   0  0  0  0  0  0  0  0  0  0  0  0
  135.1451  124.5541   60.8176 H   0  0  0  0  0  0  0  0  0  0  0  0
  133.1576  125.1380   59.4050 H   0  0  0  0  0  0  0  0  0  0  0  0
  1  2  1  0
  2  3  1  0
  3  4  2  0
  3  5  1  0
  5  6  1  0
  6  7  2  0
  7  8  1  0
  8  9  2  0
  9 10  1  0
 10 11  1  0
 11 12  2  0
 12 13  1  0
 13 14  1  0
 14 15  1  0
 15 16  1  0
 16 17  2  0
 16 18  1  0
 18 19  1  0
 18 20  1  0
 20 21  2  0
 20 22  1  0
 12 23  1  0
 23 24  2  0
 24 25  1  0
 25 26  2  0
 26 27  1  0
 27 28  2  0
 28 29  1  0
 29 30  2  0
  9 31  1  0
 31 32  2  0
  2 33  1  0
 33 34  1  0
 34 35  2  0
 34 36  1  0
 36 37  2  0
 37 38  1  0
 38 39  2  0
 39 40  1  0
 40 41  2  0
 41 42  1  0
 42 43  2  0
 32  6  1  0
 42 33  1  0
 22 10  1  0
 28 23  1  0
 41 36  1  0
 29 11  1  0
 22 14  2  0
  1 44  1  0
  1 45  1  0
  1 46  1  0
  2 47  1  1
  7 48  1  0
  8 49  1  0
 10 50  1  1
 13 51  1  0
 15 52  1  0
 19 53  1  0
 19 54  1  0
 19 55  1  0
 24 56  1  0
 25 57  1  0
 26 58  1  0
 27 59  1  0
 31 60  1  0
 32 61  1  0
 37 62  1  0
 38 63  1  0
 39 64  1  0
 40 65  1  0
M  END
>  <Binding energies>  (1) 
[-8.26]

>  <Ligand effiencies>  (1) 
[-0.18355555555555556]

>  <Interactions>  (1) 
["V-B:GLY:454:CA:9020, V-B:ILE:369:CG2:8208, V-B:GLY:453:C:9013, V-A:TYR:539:CE1:4873, V-B:ILE:369:CD1:8210, V-A:TYR:539:CD1:4871, V-A:PRO:540:CB:4883, V-A:PRO:540:CD:4885, V-A:PRO:540:CA:4881, V-A:PRO:540:N:4882, V-A:TYR:539:C:4865, V-B:PRO:540:C:9853, V-B:TYR:539:CE1:9847, V-B:TYR:539:C:9839, V-B:PRO:540:N:9856, H-B:ALA:541:N:9863, V-A:ILE:369:CD1:3236, V-B:PRO:540:CA:9855, V-A:LEU:475:CD2:4256, V-B:TYR:539:CD1:9845, V-A:GLY:454:CA:4046, V-A:ASP:366:CG:3210, H-B:ARG:545:NH2:9900, V-A:ILE:369:CG2:3234, V-B:GLY:453:CA:9015, V-B:GLU:543:CD:9880, H-A:ARG:545:NH2:4926, H-A:TYR:539:O:4866, V-B:TYR:539:CG:9844, V-A:TYR:539:CA:4867"]

$$$$
RR24_Rahimova_2017-again1
     RDKit          3D

 63 69  0  0  0  0  0  0  0  0999 V2000
  126.7430  122.3420   57.2820 C   0  0  0  0  0  0  0  0  0  0  0  0
  126.7030  123.4090   58.3840 C   0  0  2  0  0  0  0  0  0  0  0  0
  126.5330  124.8560   57.8370 C   0  0  0  0  0  0  0  0  0  0  0  0
  125.4190  125.3580   57.6480 O   0  0  0  0  0  0  0  0  0  0  0  0
  127.7280  125.4640   57.5760 O   0  0  0  0  0  0  0  0  0  0  0  0
  127.9030  126.7880   57.9070 C   0  0  0  0  0  0  0  0  0  0  0  0
  126.7890  127.6210   58.0260 C   0  0  0  0  0  0  0  0  0  0  0  0
  126.9550  128.9570   58.3800 C   0  0  0  0  0  0  0  0  0  0  0  0
  128.2350  129.4660   58.6230 C   0  0  0  0  0  0  0  0  0  0  0  0
  128.4250  130.9380   59.0130 C   0  0  1  0  0  0  0  0  0  0  0  0
  127.3980  131.3730   60.0850 C   0  0  0  0  0  0  0  0  0  0  0  0
  126.0500  131.4690   60.0670 C   0  0  0  0  0  0  0  0  0  0  0  0
  125.3070  131.2270   59.0410 O   0  0  0  0  0  0  0  0  0  0  0  0
  125.5510  131.8610   61.3840 C   0  0  0  0  0  0  0  0  0  0  0  0
  124.2580  132.0790   61.8790 C   0  0  0  0  0  0  0  0  0  0  0  0
  124.0840  132.4460   63.2140 C   0  0  0  0  0  0  0  0  0  0  0  0
  125.1930  132.5970   64.0490 C   0  0  0  0  0  0  0  0  0  0  0  0
  126.4800  132.3800   63.5510 C   0  0  0  0  0  0  0  0  0  0  0  0
  126.6520  132.0090   62.2150 C   0  0  0  0  0  0  0  0  0  0  0  0
  127.8370  131.7360   61.4220 C   0  0  0  0  0  0  0  0  0  0  0  0
  129.0750  131.7910   61.7470 N   0  0  0  0  0  0  0  0  0  0  0  0
  130.0640  131.6180   60.8260 C   0  0  0  0  0  0  0  0  0  0  0  0
  131.3090  131.8740   61.3240 N   0  0  0  0  0  0  0  0  0  0  0  0
  132.3340  131.7310   60.5610 C   0  0  0  0  0  0  0  0  0  0  0  0
  133.4140  131.9850   61.1200 O   0  0  0  0  0  0  0  0  0  0  0  0
  132.2240  131.3300   59.2300 N   0  0  0  0  0  0  0  0  0  0  0  0
  133.3860  131.1560   58.3270 C   0  0  0  0  0  0  0  0  0  0  0  0
  131.0050  131.0680   58.6370 C   0  0  0  0  0  0  0  0  0  0  0  0
  130.8610  130.7350   57.4560 O   0  0  0  0  0  0  0  0  0  0  0  0
  129.8530  131.2250   59.5310 C   0  0  0  0  0  0  0  0  0  0  0  0
  129.3480  128.6250   58.5150 C   0  0  0  0  0  0  0  0  0  0  0  0
  129.1820  127.2890   58.1640 C   0  0  0  0  0  0  0  0  0  0  0  0
  127.8580  123.2900   59.3220 N   0  0  0  0  0  0  0  0  0  0  0  0
  129.1440  123.4250   58.8900 C   0  0  0  0  0  0  0  0  0  0  0  0
  129.5290  123.6450   57.7410 O   0  0  0  0  0  0  0  0  0  0  0  0
  129.9870  123.2480   60.0990 C   0  0  0  0  0  0  0  0  0  0  0  0
  131.3730  123.2760   60.2600 C   0  0  0  0  0  0  0  0  0  0  0  0
  131.9030  123.0730   61.5380 C   0  0  0  0  0  0  0  0  0  0  0  0
  131.0530  122.8490   62.6290 C   0  0  0  0  0  0  0  0  0  0  0  0
  129.6660  122.8250   62.4480 C   0  0  0  0  0  0  0  0  0  0  0  0
  129.1560  123.0270   61.1640 C   0  0  0  0  0  0  0  0  0  0  0  0
  127.7580  123.0600   60.6670 C   0  0  0  0  0  0  0  0  0  0  0  0
  126.7280  122.9130   61.3260 O   0  0  0  0  0  0  0  0  0  0  0  0
  126.7805  121.3427   57.7403 H   0  0  0  0  0  0  0  0  0  0  0  0
  125.8411  122.4255   56.6578 H   0  0  0  0  0  0  0  0  0  0  0  0
  127.6361  122.4928   56.6578 H   0  0  0  0  0  0  0  0  0  0  0  0
  125.7921  123.2050   58.9660 H   0  0  0  0  0  0  0  0  0  0  0  0
  125.7809  127.2219   57.8402 H   0  0  0  0  0  0  0  0  0  0  0  0
  126.0773  129.6141   58.4689 H   0  0  0  0  0  0  0  0  0  0  0  0
  128.2636  131.5221   58.0950 H   0  0  0  0  0  0  0  0  0  0  0  0
  123.3857  131.9615   61.2192 H   0  0  0  0  0  0  0  0  0  0  0  0
  123.0717  132.6166   63.6092 H   0  0  0  0  0  0  0  0  0  0  0  0
  125.0529  132.8873   65.1007 H   0  0  0  0  0  0  0  0  0  0  0  0
  127.3541  132.5007   64.2078 H   0  0  0  0  0  0  0  0  0  0  0  0
  134.2985  131.0194   58.9259 H   0  0  0  0  0  0  0  0  0  0  0  0
  133.2280  130.2715   57.6924 H   0  0  0  0  0  0  0  0  0  0  0  0
  133.4940  132.0480   57.6924 H   0  0  0  0  0  0  0  0  0  0  0  0
  130.3560  129.0208   58.7079 H   0  0  0  0  0  0  0  0  0  0  0  0
  130.0574  126.6272   58.0888 H   0  0  0  0  0  0  0  0  0  0  0  0
  132.0347  123.4540   59.3995 H   0  0  0  0  0  0  0  0  0  0  0  0
  132.9927  123.0893   61.6875 H   0  0  0  0  0  0  0  0  0  0  0  0
  131.4777  122.6915   63.6314 H   0  0  0  0  0  0  0  0  0  0  0  0
  128.9915  122.6507   63.2992 H   0  0  0  0  0  0  0  0  0  0  0  0
  1  2  1  0
  2  3  1  0
  3  4  2  0
  3  5  1  0
  5  6  1  0
  6  7  2  0
  7  8  1  0
  8  9  2  0
  9 10  1  0
 10 11  1  0
 11 12  2  0
 12 13  1  0
 12 14  1  0
 14 15  2  0
 15 16  1  0
 16 17  2  0
 17 18  1  0
 18 19  2  0
 19 20  1  0
 20 21  2  0
 21 22  1  0
 22 23  1  0
 23 24  2  0
 24 25  1  0
 24 26  1  0
 26 27  1  0
 26 28  1  0
 28 29  2  0
 28 30  1  0
  9 31  1  0
 31 32  2  0
  2 33  1  0
 33 34  1  0
 34 35  2  0
 34 36  1  0
 36 37  2  0
 37 38  1  0
 38 39  2  0
 39 40  1  0
 40 41  2  0
 41 42  1  0
 42 43  2  0
 32  6  1  0
 42 33  1  0
 30 10  1  0
 41 36  1  0
 20 11  1  0
 30 22  2  0
 19 14  1  0
  1 44  1  0
  1 45  1  0
  1 46  1  0
  2 47  1  1
  7 48  1  0
  8 49  1  0
 10 50  1  6
 15 51  1  0
 16 52  1  0
 17 53  1  0
 18 54  1  0
 27 55  1  0
 27 56  1  0
 27 57  1  0
 31 58  1  0
 32 59  1  0
 37 60  1  0
 38 61  1  0
 39 62  1  0
 40 63  1  0
M  CHG  2  13  -1  25  -1
M  END
>  <Binding energies>  (1) 
[-8.18]

>  <Ligand effiencies>  (1) 
[-0.19023255813953488]

>  <Interactions>  (1) 
["V-B:LEU:475:CD2:9230, H-A:TYR:539:OH:4876, V-B:GLY:454:CA:9020, V-B:GLY:453:C:9013, V-A:TYR:539:CE1:4873, V-B:ILE:369:CD1:8210, V-A:PRO:540:CB:4883, H-A:ALA:541:N:4889, V-A:PRO:540:CA:4881, V-B:TYR:539:CE1:9847, V-B:TYR:539:C:9839, V-B:PRO:540:N:9856, H-B:ALA:541:N:9863, V-B:PRO:540:CA:9855, V-B:TYR:539:CD1:9845, V-A:ASP:366:CG:3210, V-A:PRO:540:C:4879, V-A:ASP:366:CB:3209, V-B:PRO:540:CD:9859, V-B:ALA:541:CB:9864, H-B:TYR:539:OH:9850, H-A:TYR:531:OH:4793, V-B:TYR:539:CA:9841, V-A:LEU:363:CA:3182, H-B:TYR:531:OH:9767"]

$$$$
RR25_Rahimova_2017
     RDKit          3D

 63 68  0  0  0  0  0  0  0  0999 V2000
  133.8700  125.4030   63.1180 O   0  0  0  0  0  0  0  0  0  0  0  0
  133.1350  124.5040   62.7070 C   0  0  0  0  0  0  0  0  0  0  0  0
  133.7360  123.5280   61.9520 O   0  0  0  0  0  0  0  0  0  0  0  0
  133.0820  122.3480   61.6450 C   0  0  0  0  0  0  0  0  0  0  0  0
  133.8820  121.2360   61.3870 C   0  0  0  0  0  0  0  0  0  0  0  0
  133.2900  120.0170   61.0640 C   0  0  0  0  0  0  0  0  0  0  0  0
  131.8950  119.8930   60.9890 C   0  0  0  0  0  0  0  0  0  0  0  0
  131.2660  118.5920   60.6530 N   0  0  0  0  0  0  0  0  0  0  0  0
  131.9290  117.7620   60.0360 O   0  0  0  0  0  0  0  0  0  0  0  0
  130.1070  118.3920   61.0020 O   0  0  0  0  0  0  0  0  0  0  0  0
  131.1070  121.0290   61.2400 C   0  0  0  0  0  0  0  0  0  0  0  0
  131.6850  122.2600   61.5580 C   0  0  0  0  0  0  0  0  0  0  0  0
  130.8780  123.5120   61.8490 C   0  0  0  0  0  0  0  0  0  0  0  0
  131.6010  124.3630   62.9310 C   0  0  2  0  0  0  0  0  0  0  0  0
  130.8530  125.7040   63.1830 C   0  0  0  0  0  0  0  0  0  0  0  0
  130.6210  125.9820   64.3630 O   0  0  0  0  0  0  0  0  0  0  0  0
  130.5790  126.5860   62.1750 N   0  0  0  0  0  0  0  0  0  0  0  0
  130.5450  126.1890   60.7510 C   0  0  0  0  0  0  0  0  0  0  0  0
  131.1160  127.3390   59.8960 C   0  0  0  0  0  0  0  0  0  0  0  0
  130.4110  128.5980   60.1520 N   0  0  0  0  0  0  0  0  0  0  0  0
  130.8630  129.6620   59.2450 C   0  0  0  0  0  0  0  0  0  0  0  0
  130.4580  131.0790   59.7310 C   0  0  0  0  0  0  0  0  0  0  0  0
  129.0390  131.2460   60.1580 N   0  0  0  0  0  0  0  0  0  0  0  0
  128.8590  131.8780   61.3700 C   0  0  0  0  0  0  0  0  0  0  0  0
  129.7960  132.2530   62.0840 O   0  0  0  0  0  0  0  0  0  0  0  0
  127.4090  132.0980   61.7590 C   0  0  0  0  0  0  0  0  0  0  0  0
  127.1110  132.7540   62.9600 C   0  0  0  0  0  0  0  0  0  0  0  0
  125.7900  132.9810   63.3440 C   0  0  0  0  0  0  0  0  0  0  0  0
  124.7290  132.5640   62.5420 C   0  0  0  0  0  0  0  0  0  0  0  0
  124.9820  131.8960   61.3200 C   0  0  0  0  0  0  0  0  0  0  0  0
  123.9540  131.4470   60.4580 C   0  0  0  0  0  0  0  0  0  0  0  0
  124.2730  130.7990   59.2660 C   0  0  0  0  0  0  0  0  0  0  0  0
  125.6000  130.5810   58.9030 C   0  0  0  0  0  0  0  0  0  0  0  0
  126.6510  131.0070   59.7240 C   0  0  0  0  0  0  0  0  0  0  0  0
  126.3340  131.6690   60.9390 C   0  0  0  0  0  0  0  0  0  0  0  0
  128.0830  130.7590   59.2900 C   0  0  0  0  0  0  0  0  0  0  0  0
  128.3560  130.1800   58.2330 O   0  0  0  0  0  0  0  0  0  0  0  0
  130.5710  128.9800   61.5560 C   0  0  0  0  0  0  0  0  0  0  0  0
  129.9970  127.9050   62.5100 C   0  0  0  0  0  0  0  0  0  0  0  0
  134.9775  121.3208   61.4383 H   0  0  0  0  0  0  0  0  0  0  0  0
  133.9246  119.1408   60.8653 H   0  0  0  0  0  0  0  0  0  0  0  0
  130.0114  120.9470   61.1849 H   0  0  0  0  0  0  0  0  0  0  0  0
  130.7756  124.1033   60.9271 H   0  0  0  0  0  0  0  0  0  0  0  0
  129.8818  123.2254   62.2171 H   0  0  0  0  0  0  0  0  0  0  0  0
  131.5457  123.7994   63.8740 H   0  0  0  0  0  0  0  0  0  0  0  0
  131.1533  125.2841   60.6057 H   0  0  0  0  0  0  0  0  0  0  0  0
  129.5085  125.9794   60.4480 H   0  0  0  0  0  0  0  0  0  0  0  0
  132.1811  127.4698   60.1379 H   0  0  0  0  0  0  0  0  0  0  0  0
  130.9852  127.0790   58.8352 H   0  0  0  0  0  0  0  0  0  0  0  0
  131.9594  129.6166   59.1689 H   0  0  0  0  0  0  0  0  0  0  0  0
  130.3790  129.4950   58.2714 H   0  0  0  0  0  0  0  0  0  0  0  0
  131.0990  131.3365   60.5870 H   0  0  0  0  0  0  0  0  0  0  0  0
  130.5832  131.7373   58.8587 H   0  0  0  0  0  0  0  0  0  0  0  0
  127.9307  133.0950   63.6095 H   0  0  0  0  0  0  0  0  0  0  0  0
  125.5822  133.4965   64.2933 H   0  0  0  0  0  0  0  0  0  0  0  0
  123.6931  132.7544   62.8593 H   0  0  0  0  0  0  0  0  0  0  0  0
  122.9004  131.6097   60.7292 H   0  0  0  0  0  0  0  0  0  0  0  0
  123.4657  130.4550   58.6027 H   0  0  0  0  0  0  0  0  0  0  0  0
  125.8255  130.0665   57.9573 H   0  0  0  0  0  0  0  0  0  0  0  0
  131.6419  129.1115   61.7700 H   0  0  0  0  0  0  0  0  0  0  0  0
  130.0183  129.9165   61.7220 H   0  0  0  0  0  0  0  0  0  0  0  0
  130.2498  128.1641   63.5487 H   0  0  0  0  0  0  0  0  0  0  0  0
  128.9035  127.8621   62.3983 H   0  0  0  0  0  0  0  0  0  0  0  0
  1  2  2  0
  2  3  1  0
  3  4  1  0
  4  5  2  0
  5  6  1  0
  6  7  2  0
  7  8  1  0
  8  9  2  0
  8 10  1  0
  7 11  1  0
 11 12  2  0
 12 13  1  0
 13 14  1  0
 14 15  1  0
 15 16  2  0
 15 17  1  0
 17 18  1  0
 18 19  1  0
 19 20  1  0
 20 21  1  0
 21 22  1  0
 22 23  1  0
 23 24  1  0
 24 25  2  0
 24 26  1  0
 26 27  2  0
 27 28  1  0
 28 29  2  0
 29 30  1  0
 30 31  2  0
 31 32  1  0
 32 33  2  0
 33 34  1  0
 34 35  2  0
 34 36  1  0
 36 37  2  0
 20 38  1  0
 38 39  1  0
 14  2  1  0
 39 17  1  0
 12  4  1  0
 36 23  1  0
 35 26  1  0
 35 30  1  0
  5 40  1  0
  6 41  1  0
 11 42  1  0
 13 43  1  0
 13 44  1  0
 14 45  1  1
 18 46  1  0
 18 47  1  0
 19 48  1  0
 19 49  1  0
 21 50  1  0
 21 51  1  0
 22 52  1  0
 22 53  1  0
 27 54  1  0
 28 55  1  0
 29 56  1  0
 31 57  1  0
 32 58  1  0
 33 59  1  0
 38 60  1  0
 38 61  1  0
 39 62  1  0
 39 63  1  0
M  CHG  2   8   1  10  -1
M  END
>  <Binding energies>  (1) 
[-8.88]

>  <Ligand effiencies>  (1) 
[-0.22769230769230772]

>  <Interactions>  (1) 
["V-B:LEU:475:CD2:9230, V-A:TYR:539:CZ:4875, V-B:ASP:366:CB:8183, V-B:ILE:369:CG2:8208, V-A:TYR:539:CE1:4873, V-B:ILE:369:CD1:8210, V-B:ASP:366:CG:8184, H-A:ALA:541:N:4889, V-A:ALA:541:CB:4890, V-B:TYR:539:CE1:9847, V-A:ILE:369:CD1:3236, V-A:LEU:475:CD2:4256, V-B:TYR:539:CD1:9845, V-A:ASP:366:CG:3210, V-A:ILE:369:CG2:3234, H-A:ARG:545:NH2:4926, V-A:GLU:543:CD:4906, V-B:ILE:369:CB:8207, V-B:ASP:366:CA:8181, V-A:SER:385:CA:3404, H-A:GLY:454:N:4047, V-A:SER:385:C:3402, H-A:ARG:545:NH1:4925, H-A:ARG:545:NE:4922"]

$$$$
RR26_Rahimova_2017
     RDKit          3D

 59 65  0  0  0  0  0  0  0  0999 V2000
  126.6660  130.6130   64.1520 C   0  0  0  0  0  0  0  0  0  0  0  0
  127.2280  131.3880   62.9670 C   0  0  0  0  0  0  0  0  0  0  0  0
  127.0120  132.7690   62.9160 C   0  0  0  0  0  0  0  0  0  0  0  0
  127.5370  133.5330   61.8760 C   0  0  0  0  0  0  0  0  0  0  0  0
  128.2910  132.9220   60.8790 C   0  0  0  0  0  0  0  0  0  0  0  0
  128.5130  131.5470   60.9190 C   0  0  0  0  0  0  0  0  0  0  0  0
  127.9850  130.7600   61.9530 C   0  0  0  0  0  0  0  0  0  0  0  0
  128.2590  129.2840   61.9120 C   0  0  0  0  0  0  0  0  0  0  0  0
  129.4760  128.7810   62.0990 N   0  0  0  0  0  0  0  0  0  0  0  0
  129.2570  127.4980   61.9950 C   0  0  0  0  0  0  0  0  0  0  0  0
  130.2180  126.0690   62.0820 S   0  0  0  0  0  0  0  0  0  0  0  0
  128.7370  125.0830   61.7870 C   0  0  0  0  0  0  0  0  0  0  0  0
  128.6430  123.7370   61.6970 C   0  0  0  0  0  0  0  0  0  0  0  0
  129.7060  122.7540   61.8210 C   0  0  0  0  0  0  0  0  0  0  0  0
  129.8650  121.5700   61.1170 C   0  0  0  0  0  0  0  0  0  0  0  0
  131.0330  120.9840   61.5340 N   0  0  0  0  0  0  0  0  0  0  0  0
  131.6100  119.7650   61.0930 C   0  0  0  0  0  0  0  0  0  0  0  0
  130.8480  118.5890   61.0340 C   0  0  0  0  0  0  0  0  0  0  0  0
  131.4280  117.4000   60.6020 C   0  0  0  0  0  0  0  0  0  0  0  0
  132.7680  117.3820   60.2240 C   0  0  0  0  0  0  0  0  0  0  0  0
  133.5350  118.5440   60.2740 C   0  0  0  0  0  0  0  0  0  0  0  0
  132.9590  119.7340   60.7080 C   0  0  0  0  0  0  0  0  0  0  0  0
  131.6380  121.7540   62.4510 N   0  0  0  0  0  0  0  0  0  0  0  0
  130.8610  122.8030   62.6350 C   0  0  0  0  0  0  0  0  0  0  0  0
  131.2560  123.8620   63.6170 C   0  0  0  0  0  0  0  0  0  0  0  0
  132.5290  124.4490   63.5550 C   0  0  0  0  0  0  0  0  0  0  0  0
  132.9090  125.4340   64.4690 C   0  0  0  0  0  0  0  0  0  0  0  0
  132.0140  125.8390   65.4570 C   0  0  0  0  0  0  0  0  0  0  0  0
  130.7320  125.2730   65.5190 C   0  0  0  0  0  0  0  0  0  0  0  0
  130.3580  124.2850   64.6080 C   0  0  0  0  0  0  0  0  0  0  0  0
  129.8290  125.6120   66.5070 O   0  0  0  0  0  0  0  0  0  0  0  0
  130.1150  126.8520   67.1600 C   0  0  0  0  0  0  0  0  0  0  0  0
  131.6220  126.9540   67.4990 C   0  0  0  0  0  0  0  0  0  0  0  0
  132.4120  126.8490   66.3100 O   0  0  0  0  0  0  0  0  0  0  0  0
  127.5440  125.9090   61.6250 C   0  0  0  0  0  0  0  0  0  0  0  0
  126.3820  125.5620   61.4080 O   0  0  0  0  0  0  0  0  0  0  0  0
  127.9570  127.2430   61.7630 N   0  0  0  0  0  0  0  0  0  0  0  0
  127.2930  128.4010   61.7110 N   0  0  0  0  0  0  0  0  0  0  0  0
  127.0043  131.0795   65.0889 H   0  0  0  0  0  0  0  0  0  0  0  0
  125.5668  130.6272   64.1114 H   0  0  0  0  0  0  0  0  0  0  0  0
  127.0210  129.5727   64.1114 H   0  0  0  0  0  0  0  0  0  0  0  0
  126.4214  133.2570   63.7053 H   0  0  0  0  0  0  0  0  0  0  0  0
  127.3557  134.6175   61.8431 H   0  0  0  0  0  0  0  0  0  0  0  0
  128.7115  133.5239   60.0599 H   0  0  0  0  0  0  0  0  0  0  0  0
  129.1113  131.0716   60.1278 H   0  0  0  0  0  0  0  0  0  0  0  0
  127.6365  123.3363   61.5062 H   0  0  0  0  0  0  0  0  0  0  0  0
  129.1760  121.1710   60.3580 H   0  0  0  0  0  0  0  0  0  0  0  0
  129.7887  118.6065   61.3301 H   0  0  0  0  0  0  0  0  0  0  0  0
  130.8300  116.4777   60.5593 H   0  0  0  0  0  0  0  0  0  0  0  0
  133.2253  116.4416   59.8827 H   0  0  0  0  0  0  0  0  0  0  0  0
  134.5923  118.5208   59.9714 H   0  0  0  0  0  0  0  0  0  0  0  0
  133.5626  120.6526   60.7494 H   0  0  0  0  0  0  0  0  0  0  0  0
  133.2369  124.1291   62.7762 H   0  0  0  0  0  0  0  0  0  0  0  0
  133.9093  125.8876   64.4093 H   0  0  0  0  0  0  0  0  0  0  0  0
  129.3555  123.8361   64.6670 H   0  0  0  0  0  0  0  0  0  0  0  0
  129.8368  127.6832   66.4954 H   0  0  0  0  0  0  0  0  0  0  0  0
  129.5370  126.9024   68.0945 H   0  0  0  0  0  0  0  0  0  0  0  0
  131.8198  127.9230   67.9806 H   0  0  0  0  0  0  0  0  0  0  0  0
  131.8902  126.1311   68.1779 H   0  0  0  0  0  0  0  0  0  0  0  0
  1  2  1  0
  2  3  2  0
  3  4  1  0
  4  5  2  0
  5  6  1  0
  6  7  2  0
  7  8  1  0
  8  9  1  0
  9 10  2  0
 10 11  1  0
 11 12  1  0
 12 13  2  0
 13 14  1  0
 14 15  2  0
 15 16  1  0
 16 17  1  0
 17 18  2  0
 18 19  1  0
 19 20  2  0
 20 21  1  0
 21 22  2  0
 16 23  1  0
 23 24  2  0
 24 25  1  0
 25 26  2  0
 26 27  1  0
 27 28  2  0
 28 29  1  0
 29 30  2  0
 29 31  1  0
 31 32  1  0
 32 33  1  0
 33 34  1  0
 12 35  1  0
 35 36  2  0
 35 37  1  0
 37 38  1  0
  7  2  1  0
 38  8  2  0
 37 10  1  0
 24 14  1  0
 30 25  1  0
 22 17  1  0
 34 28  1  0
  1 39  1  0
  1 40  1  0
  1 41  1  0
  3 42  1  0
  4 43  1  0
  5 44  1  0
  6 45  1  0
 13 46  1  0
 15 47  1  0
 18 48  1  0
 19 49  1  0
 20 50  1  0
 21 51  1  0
 22 52  1  0
 26 53  1  0
 27 54  1  0
 30 55  1  0
 32 56  1  0
 32 57  1  0
 33 58  1  0
 33 59  1  0
M  END
>  <Binding energies>  (1) 
[-7.68]

>  <Ligand effiencies>  (1) 
[-0.20210526315789473]

>  <Interactions>  (1) 
["V-B:LEU:475:CD2:9230, V-A:TYR:539:CE1:4873, V-A:TYR:539:CD1:4871, V-A:ALA:541:CB:4890, V-B:TYR:539:CE1:9847, V-A:LEU:475:CD2:4256, V-B:TYR:539:CD1:9845, V-A:GLU:543:CG:4905, H-B:ARG:545:NH2:9900, V-A:ILE:369:CG2:3234, V-B:GLU:543:CD:9880, V-B:GLU:543:CB:9878, V-A:HIS:456:CE1:4066, V-A:GLU:543:CD:4906, V-A:ARG:545:CZ:4924, V-A:ARG:545:CG:4920, V-A:SER:385:CA:3404, V-A:ARG:545:CD:4921, V-B:ALA:541:CB:9864, H-A:ARG:545:NE:4922, V-A:SER:385:CB:3406, V-A:LEU:373:CD1:3277, V-A:PRO:482:CB:4323, V-A:PRO:482:CG:4324"]

$$$$
RR27_Rahimova_2017
     RDKit          3D

 66 71  0  0  0  0  0  0  0  0999 V2000
  129.3510  132.8490   62.1240 O   0  0  0  0  0  0  0  0  0  0  0  0
  128.5890  132.3080   61.3180 C   0  0  0  0  0  0  0  0  0  0  0  0
  127.0550  132.4590   61.5370 C   0  0  0  0  0  0  0  0  0  0  0  0
  126.5860  133.9260   61.5380 C   0  0  0  0  0  0  0  0  0  0  0  0
  127.4820  134.9900   61.7210 C   0  0  0  0  0  0  0  0  0  0  0  0
  127.0240  136.3040   61.7150 C   0  0  0  0  0  0  0  0  0  0  0  0
  125.6690  136.5610   61.5260 C   0  0  0  0  0  0  0  0  0  0  0  0
  124.7680  135.5160   61.3460 C   0  0  0  0  0  0  0  0  0  0  0  0
  125.2260  134.2020   61.3530 C   0  0  0  0  0  0  0  0  0  0  0  0
  126.5620  131.6190   62.7310 C   0  0  0  0  0  0  0  0  0  0  0  0
  127.3470  131.4350   63.8770 C   0  0  0  0  0  0  0  0  0  0  0  0
  126.8760  130.6600   64.9340 C   0  0  0  0  0  0  0  0  0  0  0  0
  125.6230  130.0610   64.8460 C   0  0  0  0  0  0  0  0  0  0  0  0
  124.8370  130.2260   63.7080 C   0  0  0  0  0  0  0  0  0  0  0  0
  125.3080  131.0000   62.6530 C   0  0  0  0  0  0  0  0  0  0  0  0
  129.0520  131.7210   60.1780 N   0  0  0  0  0  0  0  0  0  0  0  0
  128.2320  130.8510   59.3220 C   0  0  0  0  0  0  0  0  0  0  0  0
  128.3590  129.4190   59.8860 C   0  0  0  0  0  0  0  0  0  0  0  0
  129.8440  128.9460   60.0010 C   0  0  0  0  0  0  0  0  0  0  0  0
  130.0320  127.5680   60.6630 C   0  0  0  0  0  0  0  0  0  0  0  0
  130.5600  127.5660   61.9220 N   0  0  0  0  0  0  0  0  0  0  0  0
  130.7220  126.3750   62.5620 C   0  0  0  0  0  0  0  0  0  0  0  0
  131.2350  126.2450   63.8260 O   0  0  0  0  0  0  0  0  0  0  0  0
  130.3420  125.1930   61.8980 C   0  0  0  0  0  0  0  0  0  0  0  0
  130.3630  123.8730   62.2400 N   0  0  0  0  0  0  0  0  0  0  0  0
  129.8640  123.1620   61.1650 N   0  0  0  0  0  0  0  0  0  0  0  0
  129.5350  124.0290   60.1840 N   0  0  0  0  0  0  0  0  0  0  0  0
  129.0020  123.5430   58.9130 C   0  0  0  0  0  0  0  0  0  0  0  0
  127.4820  123.5840   58.8310 C   0  0  0  0  0  0  0  0  0  0  0  0
  126.8430  123.5800   57.5870 C   0  0  0  0  0  0  0  0  0  0  0  0
  125.4500  123.6060   57.5130 C   0  0  0  0  0  0  0  0  0  0  0  0
  124.6880  123.6310   58.6800 C   0  0  0  0  0  0  0  0  0  0  0  0
  125.3190  123.6250   59.9260 C   0  0  0  0  0  0  0  0  0  0  0  0
  124.3770  123.6290   61.3730 Cl  0  0  0  0  0  0  0  0  0  0  0  0
  126.7120  123.6070   60.0000 C   0  0  0  0  0  0  0  0  0  0  0  0
  129.8200  125.3210   60.5930 C   0  0  0  0  0  0  0  0  0  0  0  0
  129.6570  126.4740   59.9390 N   0  0  0  0  0  0  0  0  0  0  0  0
  130.7620  130.0520   60.6050 C   0  0  0  0  0  0  0  0  0  0  0  0
  130.4910  131.4590   60.0140 C   0  0  0  0  0  0  0  0  0  0  0  0
  126.5548  132.0287   60.6569 H   0  0  0  0  0  0  0  0  0  0  0  0
  128.5523  134.7844   61.8700 H   0  0  0  0  0  0  0  0  0  0  0  0
  127.7294  137.1357   61.8589 H   0  0  0  0  0  0  0  0  0  0  0  0
  125.3072  137.5998   61.5189 H   0  0  0  0  0  0  0  0  0  0  0  0
  123.6986  135.7276   61.1989 H   0  0  0  0  0  0  0  0  0  0  0  0
  124.5148  133.3747   61.2123 H   0  0  0  0  0  0  0  0  0  0  0  0
  128.3395  131.9047   63.9421 H   0  0  0  0  0  0  0  0  0  0  0  0
  127.4920  130.5219   65.8348 H   0  0  0  0  0  0  0  0  0  0  0  0
  125.2500  129.4518   65.6825 H   0  0  0  0  0  0  0  0  0  0  0  0
  123.8490  129.7466   63.6441 H   0  0  0  0  0  0  0  0  0  0  0  0
  124.6914  131.1270   61.7510 H   0  0  0  0  0  0  0  0  0  0  0  0
  127.1815  131.1761   59.3480 H   0  0  0  0  0  0  0  0  0  0  0  0
  128.5713  130.8941   58.2765 H   0  0  0  0  0  0  0  0  0  0  0  0
  127.9028  129.3931   60.8866 H   0  0  0  0  0  0  0  0  0  0  0  0
  127.8470  128.7402   59.1880 H   0  0  0  0  0  0  0  0  0  0  0  0
  130.1773  128.7825   58.9656 H   0  0  0  0  0  0  0  0  0  0  0  0
  130.8870  126.8980   64.4370 H   0  0  0  0  0  0  0  0  0  0  0  0
  129.4104  124.1665   58.1040 H   0  0  0  0  0  0  0  0  0  0  0  0
  129.3006  122.4883   58.8214 H   0  0  0  0  0  0  0  0  0  0  0  0
  127.4406  123.5563   56.6638 H   0  0  0  0  0  0  0  0  0  0  0  0
  124.9522  123.6068   56.5321 H   0  0  0  0  0  0  0  0  0  0  0  0
  123.5899  123.6554   58.6196 H   0  0  0  0  0  0  0  0  0  0  0  0
  127.2079  123.6109   60.9819 H   0  0  0  0  0  0  0  0  0  0  0  0
  130.5945  130.0908   61.6915 H   0  0  0  0  0  0  0  0  0  0  0  0
  131.8004  129.7871   60.3567 H   0  0  0  0  0  0  0  0  0  0  0  0
  131.0775  132.2161   60.5551 H   0  0  0  0  0  0  0  0  0  0  0  0
  130.7813  131.5037   58.9539 H   0  0  0  0  0  0  0  0  0  0  0  0
  1  2  2  0
  2  3  1  0
  3  4  1  0
  4  5  2  0
  5  6  1  0
  6  7  2  0
  7  8  1  0
  8  9  2  0
  3 10  1  0
 10 11  2  0
 11 12  1  0
 12 13  2  0
 13 14  1  0
 14 15  2  0
  2 16  1  0
 16 17  1  0
 17 18  1  0
 18 19  1  0
 19 20  1  0
 20 21  2  0
 21 22  1  0
 22 23  1  0
 22 24  2  0
 24 25  1  0
 25 26  2  0
 26 27  1  0
 27 28  1  0
 28 29  1  0
 29 30  2  0
 30 31  1  0
 31 32  2  0
 32 33  1  0
 33 34  1  0
 33 35  2  0
 27 36  1  0
 36 37  2  0
 19 38  1  0
 38 39  1  0
  9  4  1  0
 15 10  1  0
 39 16  1  0
 37 20  1  0
 36 24  1  0
 35 29  1  0
  3 40  1  0
  5 41  1  0
  6 42  1  0
  7 43  1  0
  8 44  1  0
  9 45  1  0
 11 46  1  0
 12 47  1  0
 13 48  1  0
 14 49  1  0
 15 50  1  0
 17 51  1  0
 17 52  1  0
 18 53  1  0
 18 54  1  0
 19 55  1  0
 23 56  1  0
 28 57  1  0
 28 58  1  0
 30 59  1  0
 31 60  1  0
 32 61  1  0
 35 62  1  0
 38 63  1  0
 38 64  1  0
 39 65  1  0
 39 66  1  0
M  END
>  <Binding energies>  (1) 
[-9.97]

>  <Ligand effiencies>  (1) 
[-0.24925000000000003]

>  <Interactions>  (1) 
["V-B:LEU:475:CD2:9230, V-B:ILE:369:CG2:8208, V-A:TYR:539:CE1:4873, V-A:TYR:539:CD1:4871, H-A:ALA:541:N:4889, V-A:PRO:540:CA:4881, V-A:ALA:541:CB:4890, V-B:TYR:539:CE1:9847, V-B:PRO:540:CA:9855, V-B:TYR:539:CD1:9845, H-A:ARG:545:NH2:4926, H-A:GLU:543:OE2:4908, V-A:GLU:543:CD:4906, V-B:ARG:545:CZ:9898, V-B:PRO:540:CB:9857, V-B:ASN:362:CB:8147, V-B:PRO:482:CG:9298, V-B:PRO:482:CB:9297, V-B:SER:385:CA:8378, V-B:LEU:373:CD1:8251, V-B:ASN:362:C:8143"]

$$$$
RR27_Rahimova_2017-again1
     RDKit          3D

 66 71  0  0  0  0  0  0  0  0999 V2000
  128.7080  126.3870   58.9340 O   0  0  0  0  0  0  0  0  0  0  0  0
  129.0730  125.8870   60.0030 C   0  0  0  0  0  0  0  0  0  0  0  0
  128.5670  124.4560   60.3560 C   0  0  0  0  0  0  0  0  0  0  0  0
  129.7210  123.4810   60.6620 C   0  0  0  0  0  0  0  0  0  0  0  0
  131.0300  123.7120   60.2130 C   0  0  0  0  0  0  0  0  0  0  0  0
  132.0460  122.8090   60.5110 C   0  0  0  0  0  0  0  0  0  0  0  0
  131.7600  121.6700   61.2580 C   0  0  0  0  0  0  0  0  0  0  0  0
  130.4670  121.4270   61.7110 C   0  0  0  0  0  0  0  0  0  0  0  0
  129.4510  122.3310   61.4140 C   0  0  0  0  0  0  0  0  0  0  0  0
  127.5660  123.9230   59.3140 C   0  0  0  0  0  0  0  0  0  0  0  0
  126.2030  124.2510   59.3730 C   0  0  0  0  0  0  0  0  0  0  0  0
  125.3140  123.7410   58.4310 C   0  0  0  0  0  0  0  0  0  0  0  0
  125.7820  122.9010   57.4240 C   0  0  0  0  0  0  0  0  0  0  0  0
  127.1310  122.5650   57.3530 C   0  0  0  0  0  0  0  0  0  0  0  0
  128.0190  123.0690   58.2990 C   0  0  0  0  0  0  0  0  0  0  0  0
  130.0190  126.4910   60.7800 N   0  0  0  0  0  0  0  0  0  0  0  0
  130.2950  126.1100   62.1720 C   0  0  0  0  0  0  0  0  0  0  0  0
  129.2950  126.8690   63.0750 C   0  0  0  0  0  0  0  0  0  0  0  0
  129.0800  128.3790   62.7290 C   0  0  0  0  0  0  0  0  0  0  0  0
  127.7190  128.9210   63.1790 C   0  0  0  0  0  0  0  0  0  0  0  0
  126.8940  129.4270   62.3170 N   0  0  0  0  0  0  0  0  0  0  0  0
  125.7170  129.8820   62.8300 C   0  0  0  0  0  0  0  0  0  0  0  0
  125.3360  129.8560   64.1630 C   0  0  0  0  0  0  0  0  0  0  0  0
  124.1360  130.3890   64.3090 N   0  0  0  0  0  0  0  0  0  0  0  0
  123.6970  130.7810   63.0490 N   0  0  0  0  0  0  0  0  0  0  0  0
  124.6590  130.4510   62.1700 N   0  0  0  0  0  0  0  0  0  0  0  0
  124.5130  130.7520   60.7510 C   0  0  0  0  0  0  0  0  0  0  0  0
  125.8400  130.9570   60.0380 C   0  0  0  0  0  0  0  0  0  0  0  0
  126.0790  130.3360   58.8070 C   0  0  0  0  0  0  0  0  0  0  0  0
  127.3000  130.5150   58.1550 C   0  0  0  0  0  0  0  0  0  0  0  0
  128.2860  131.3180   58.7280 C   0  0  0  0  0  0  0  0  0  0  0  0
  128.0520  131.9450   59.9520 C   0  0  0  0  0  0  0  0  0  0  0  0
  129.2740  132.9350   60.6620 Cl  0  0  0  0  0  0  0  0  0  0  0  0
  126.8310  131.7670   60.6050 C   0  0  0  0  0  0  0  0  0  0  0  0
  126.2470  129.2840   65.1550 C   0  0  0  0  0  0  0  0  0  0  0  0
  126.0850  129.1700   66.3670 O   0  0  0  0  0  0  0  0  0  0  0  0
  127.3990  128.8510   64.5310 N   0  0  0  0  0  0  0  0  0  0  0  0
  129.4320  128.8040   61.2690 C   0  0  0  0  0  0  0  0  0  0  0  0
  130.4150  127.8800   60.5080 C   0  0  0  0  0  0  0  0  0  0  0  0
  128.0019  124.5365   61.2963 H   0  0  0  0  0  0  0  0  0  0  0  0
  131.2545  124.6122   59.6220 H   0  0  0  0  0  0  0  0  0  0  0  0
  133.0710  122.9946   60.1576 H   0  0  0  0  0  0  0  0  0  0  0  0
  132.5631  120.9557   61.4923 H   0  0  0  0  0  0  0  0  0  0  0  0
  130.2487  120.5247   62.3011 H   0  0  0  0  0  0  0  0  0  0  0  0
  128.4287  122.1406   61.7726 H   0  0  0  0  0  0  0  0  0  0  0  0
  125.8347  124.9153   60.1686 H   0  0  0  0  0  0  0  0  0  0  0  0
  124.2463  124.0005   58.4820 H   0  0  0  0  0  0  0  0  0  0  0  0
  125.0799  122.4996   56.6784 H   0  0  0  0  0  0  0  0  0  0  0  0
  127.4939  121.9037   56.5524 H   0  0  0  0  0  0  0  0  0  0  0  0
  129.0833  122.7953   58.2497 H   0  0  0  0  0  0  0  0  0  0  0  0
  130.1632  125.0251   62.2965 H   0  0  0  0  0  0  0  0  0  0  0  0
  131.3298  126.3661   62.4433 H   0  0  0  0  0  0  0  0  0  0  0  0
  128.3211  126.3632   63.0004 H   0  0  0  0  0  0  0  0  0  0  0  0
  129.7303  126.8518   64.0851 H   0  0  0  0  0  0  0  0  0  0  0  0
  129.8465  128.8746   63.3429 H   0  0  0  0  0  0  0  0  0  0  0  0
  123.9840  129.9161   60.2698 H   0  0  0  0  0  0  0  0  0  0  0  0
  123.9541  131.6964   60.6750 H   0  0  0  0  0  0  0  0  0  0  0  0
  125.3019  129.7046   58.3516 H   0  0  0  0  0  0  0  0  0  0  0  0
  127.4847  130.0226   57.1889 H   0  0  0  0  0  0  0  0  0  0  0  0
  129.2488  131.4570   58.2144 H   0  0  0  0  0  0  0  0  0  0  0  0
  126.6470  132.2650   61.5684 H   0  0  0  0  0  0  0  0  0  0  0  0
  128.0850  128.4430   65.1490 H   0  0  0  0  0  0  0  0  0  0  0  0
  128.4944  128.8425   60.6950 H   0  0  0  0  0  0  0  0  0  0  0  0
  129.9466  129.7720   61.3592 H   0  0  0  0  0  0  0  0  0  0  0  0
  130.3595  128.0814   59.4280 H   0  0  0  0  0  0  0  0  0  0  0  0
  131.4487  128.0592   60.8387 H   0  0  0  0  0  0  0  0  0  0  0  0
  1  2  2  0
  2  3  1  0
  3  4  1  0
  4  5  2  0
  5  6  1  0
  6  7  2  0
  7  8  1  0
  8  9  2  0
  3 10  1  0
 10 11  2  0
 11 12  1  0
 12 13  2  0
 13 14  1  0
 14 15  2  0
  2 16  1  0
 16 17  1  0
 17 18  1  0
 18 19  1  0
 19 20  1  0
 20 21  2  0
 21 22  1  0
 22 23  2  0
 23 24  1  0
 24 25  2  0
 25 26  1  0
 26 27  1  0
 27 28  1  0
 28 29  2  0
 29 30  1  0
 30 31  2  0
 31 32  1  0
 32 33  1  0
 32 34  2  0
 23 35  1  0
 35 36  2  0
 35 37  1  0
 19 38  1  0
 38 39  1  0
  9  4  1  0
 15 10  1  0
 39 16  1  0
 37 20  1  0
 26 22  1  0
 34 28  1  0
  3 40  1  0
  5 41  1  0
  6 42  1  0
  7 43  1  0
  8 44  1  0
  9 45  1  0
 11 46  1  0
 12 47  1  0
 13 48  1  0
 14 49  1  0
 15 50  1  0
 17 51  1  0
 17 52  1  0
 18 53  1  0
 18 54  1  0
 19 55  1  0
 27 56  1  0
 27 57  1  0
 29 58  1  0
 30 59  1  0
 31 60  1  0
 34 61  1  0
 37 62  1  0
 38 63  1  0
 38 64  1  0
 39 65  1  0
 39 66  1  0
M  END
>  <Binding energies>  (1) 
[-9.5]

>  <Ligand effiencies>  (1) 
[-0.2375]

>  <Interactions>  (1) 
["V-A:TYR:539:CZ:4875, V-A:TYR:539:CE1:4873, V-A:TYR:539:CD1:4871, V-B:ASP:366:CG:8184, V-A:PRO:540:CA:4881, V-A:PRO:540:N:4882, V-A:TYR:539:C:4865, V-B:TYR:539:CE1:9847, V-B:TYR:539:C:9839, V-B:PRO:540:N:9856, V-B:PRO:540:CA:9855, V-A:LEU:475:CD2:4256, V-B:TYR:539:CD1:9845, H-B:GLU:543:OE2:9882, V-B:GLU:543:CD:9880, V-A:PRO:540:C:4879, H-A:GLU:543:OE2:4908, H-B:GLY:454:N:9021, V-A:GLU:543:CD:4906, V-B:ARG:545:CZ:9898, H-A:GLU:543:OE1:4907, V-B:PRO:540:CD:9859, V-B:PRO:540:CB:9857, V-B:ALA:541:CB:9864, H-B:ARG:545:NE:9896, V-B:TYR:539:CA:9841, H-B:TYR:484:OH:9319"]

$$$$
RR28_Rahimova_2017
     RDKit          3D

 82 85  0  0  0  0  0  0  0  0999 V2000
  124.8620  134.2080   60.9650 C   0  0  0  0  0  0  0  0  0  0  0  0
  126.1950  133.6350   61.4320 C   0  0  0  0  0  0  0  0  0  0  0  0
  126.9170  134.3020   62.1700 O   0  0  0  0  0  0  0  0  0  0  0  0
  126.5010  132.3980   60.9900 N   0  0  0  0  0  0  0  0  0  0  0  0
  127.7170  131.6010   61.2700 C   0  0  0  0  0  0  0  0  0  0  0  0
  127.6330  131.0820   62.7340 C   0  0  0  0  0  0  0  0  0  0  0  0
  127.5760  129.7010   62.9730 C   0  0  0  0  0  0  0  0  0  0  0  0
  127.4950  129.2010   64.2690 C   0  0  0  0  0  0  0  0  0  0  0  0
  127.4690  130.0730   65.3580 C   0  0  0  0  0  0  0  0  0  0  0  0
  127.3760  129.5060   66.7740 C   0  0  0  0  0  0  0  0  0  0  0  0
  128.0750  128.3780   66.9160 F   0  0  0  0  0  0  0  0  0  0  0  0
  127.8390  130.3900   67.6580 F   0  0  0  0  0  0  0  0  0  0  0  0
  126.1000  129.2440   67.0580 F   0  0  0  0  0  0  0  0  0  0  0  0
  127.5240  131.4510   65.1350 C   0  0  0  0  0  0  0  0  0  0  0  0
  127.6040  131.9500   63.8370 C   0  0  0  0  0  0  0  0  0  0  0  0
  129.0080  132.4440   60.9710 C   0  0  0  0  0  0  0  0  0  0  0  0
  129.1780  132.7950   59.4710 C   0  0  0  0  0  0  0  0  0  0  0  0
  129.2250  131.5150   58.7460 N   0  0  0  0  0  0  0  0  0  0  0  0
  130.4200  130.9250   58.4690 C   0  0  0  0  0  0  0  0  0  0  0  0
  131.4930  131.5030   58.6550 O   0  0  0  0  0  0  0  0  0  0  0  0
  130.4280  129.5550   57.7480 C   0  0  0  0  0  0  0  0  0  0  0  0
  130.8400  128.3340   58.6150 C   0  0  0  0  0  0  0  0  0  0  0  0
  129.7320  127.2750   58.8240 C   0  0  0  0  0  0  0  0  0  0  0  0
  128.5580  127.6580   58.8270 O   0  0  0  0  0  0  0  0  0  0  0  0
  130.0590  125.9520   58.8600 N   0  0  0  0  0  0  0  0  0  0  0  0
  131.4070  125.4620   59.1730 C   0  0  0  0  0  0  0  0  0  0  0  0
  131.5000  125.3820   60.7130 C   0  0  0  0  0  0  0  0  0  0  0  0
  130.4020  124.4900   61.3900 C   0  0  0  0  0  0  0  0  0  0  0  0
  130.3430  124.8070   62.8330 N   0  0  0  0  0  0  0  0  0  0  0  0
  131.3620  124.8730   63.7130 C   0  0  0  0  0  0  0  0  0  0  0  0
  130.9900  125.2070   65.1540 C   0  0  0  0  0  0  0  0  0  0  0  0
  132.5410  124.6790   63.4180 O   0  0  0  0  0  0  0  0  0  0  0  0
  130.8590  123.0010   61.2540 C   0  0  0  0  0  0  0  0  0  0  0  0
  129.9820  121.9170   61.4280 C   0  0  0  0  0  0  0  0  0  0  0  0
  130.4290  120.6050   61.2970 C   0  0  0  0  0  0  0  0  0  0  0  0
  131.7660  120.3420   60.9900 C   0  0  0  0  0  0  0  0  0  0  0  0
  132.2710  118.9080   60.8380 C   0  0  0  0  0  0  0  0  0  0  0  0
  132.3740  118.5800   59.5480 F   0  0  0  0  0  0  0  0  0  0  0  0
  133.4750  118.8070   61.4000 F   0  0  0  0  0  0  0  0  0  0  0  0
  131.4600  118.0250   61.4230 F   0  0  0  0  0  0  0  0  0  0  0  0
  132.6510  121.4090   60.8210 C   0  0  0  0  0  0  0  0  0  0  0  0
  132.2010  122.7180   60.9530 C   0  0  0  0  0  0  0  0  0  0  0  0
  129.0100  124.7780   60.7050 C   0  0  0  0  0  0  0  0  0  0  0  0
  129.0320  124.9470   59.1620 C   0  0  0  0  0  0  0  0  0  0  0  0
  127.9660  130.7600   58.8150 C   0  0  0  0  0  0  0  0  0  0  0  0
  127.7470  130.3740   60.3010 C   0  0  0  0  0  0  0  0  0  0  0  0
  124.2494  134.4713   61.8399 H   0  0  0  0  0  0  0  0  0  0  0  0
  125.0420  135.1082   60.3591 H   0  0  0  0  0  0  0  0  0  0  0  0
  124.3326  133.4580   60.3591 H   0  0  0  0  0  0  0  0  0  0  0  0
  125.8390  131.9550   60.3710 H   0  0  0  0  0  0  0  0  0  0  0  0
  127.5956  129.0028   62.1232 H   0  0  0  0  0  0  0  0  0  0  0  0
  127.4513  128.1146   64.4356 H   0  0  0  0  0  0  0  0  0  0  0  0
  127.5040  132.1450   65.9882 H   0  0  0  0  0  0  0  0  0  0  0  0
  127.6449  133.0371   63.6743 H   0  0  0  0  0  0  0  0  0  0  0  0
  128.9537  133.3810   61.5447 H   0  0  0  0  0  0  0  0  0  0  0  0
  129.8727  131.8293   61.2615 H   0  0  0  0  0  0  0  0  0  0  0  0
  128.3265  133.3981   59.1228 H   0  0  0  0  0  0  0  0  0  0  0  0
  130.0920  133.3829   59.3007 H   0  0  0  0  0  0  0  0  0  0  0  0
  129.4134  129.3696   57.3655 H   0  0  0  0  0  0  0  0  0  0  0  0
  131.1956  129.6358   56.9642 H   0  0  0  0  0  0  0  0  0  0  0  0
  131.6942  127.8420   58.1269 H   0  0  0  0  0  0  0  0  0  0  0  0
  131.0760  128.7321   59.6129 H   0  0  0  0  0  0  0  0  0  0  0  0
  131.5613  124.4666   58.7311 H   0  0  0  0  0  0  0  0  0  0  0  0
  132.1778  126.1310   58.7629 H   0  0  0  0  0  0  0  0  0  0  0  0
  132.4857  124.9707   60.9759 H   0  0  0  0  0  0  0  0  0  0  0  0
  131.3441  126.4045   61.0874 H   0  0  0  0  0  0  0  0  0  0  0  0
  129.4130  124.9540   63.1970 H   0  0  0  0  0  0  0  0  0  0  0  0
  131.6296  124.6327   65.8403 H   0  0  0  0  0  0  0  0  0  0  0  0
  131.1361  126.2829   65.3304 H   0  0  0  0  0  0  0  0  0  0  0  0
  129.9360  124.9463   65.3304 H   0  0  0  0  0  0  0  0  0  0  0  0
  128.9264  122.1079   61.6714 H   0  0  0  0  0  0  0  0  0  0  0  0
  129.7254  119.7710   61.4360 H   0  0  0  0  0  0  0  0  0  0  0  0
  133.7069  121.2134   60.5828 H   0  0  0  0  0  0  0  0  0  0  0  0
  132.9102  123.5481   60.8190 H   0  0  0  0  0  0  0  0  0  0  0  0
  128.3386  123.9396   60.9420 H   0  0  0  0  0  0  0  0  0  0  0  0
  128.6783  125.7477   61.1045 H   0  0  0  0  0  0  0  0  0  0  0  0
  129.2843  123.9910   58.6799 H   0  0  0  0  0  0  0  0  0  0  0  0
  128.0479  125.2628   58.7854 H   0  0  0  0  0  0  0  0  0  0  0  0
  127.1321  131.3835   58.4602 H   0  0  0  0  0  0  0  0  0  0  0  0
  128.0120  129.8630   58.1800 H   0  0  0  0  0  0  0  0  0  0  0  0
  126.7878  129.8420   60.3841 H   0  0  0  0  0  0  0  0  0  0  0  0
  128.6006  129.7481   60.6003 H   0  0  0  0  0  0  0  0  0  0  0  0
  1  2  1  0
  2  3  2  0
  2  4  1  0
  4  5  1  0
  5  6  1  0
  6  7  2  0
  7  8  1  0
  8  9  2  0
  9 10  1  0
 10 11  1  0
 10 12  1  0
 10 13  1  0
  9 14  1  0
 14 15  2  0
  5 16  1  0
 16 17  1  0
 17 18  1  0
 18 19  1  0
 19 20  2  0
 19 21  1  0
 21 22  1  0
 22 23  1  0
 23 24  2  0
 23 25  1  0
 25 26  1  0
 26 27  1  0
 27 28  1  0
 28 29  1  0
 29 30  1  0
 30 31  1  0
 30 32  2  0
 28 33  1  0
 33 34  2  0
 34 35  1  0
 35 36  2  0
 36 37  1  0
 37 38  1  0
 37 39  1  0
 37 40  1  0
 36 41  1  0
 41 42  2  0
 28 43  1  0
 43 44  1  0
 18 45  1  0
 45 46  1  0
 46  5  1  0
 15  6  1  0
 44 25  1  0
 42 33  1  0
  1 47  1  0
  1 48  1  0
  1 49  1  0
  4 50  1  0
  7 51  1  0
  8 52  1  0
 14 53  1  0
 15 54  1  0
 16 55  1  0
 16 56  1  0
 17 57  1  0
 17 58  1  0
 21 59  1  0
 21 60  1  0
 22 61  1  0
 22 62  1  0
 26 63  1  0
 26 64  1  0
 27 65  1  0
 27 66  1  0
 29 67  1  0
 31 68  1  0
 31 69  1  0
 31 70  1  0
 34 71  1  0
 35 72  1  0
 41 73  1  0
 42 74  1  0
 43 75  1  0
 43 76  1  0
 44 77  1  0
 44 78  1  0
 45 79  1  0
 45 80  1  0
 46 81  1  0
 46 82  1  0
M  END
>  <Binding energies>  (1) 
[-7.73]

>  <Ligand effiencies>  (1) 
[-0.16104166666666667]

>  <Interactions>  (1) 
["V-B:LEU:475:CD2:9230, V-B:ILE:369:CG2:8208, V-A:TYR:539:CE1:4873, V-A:TYR:539:CD1:4871, V-A:PRO:540:CA:4881, V-A:PRO:540:N:4882, V-A:TYR:539:C:4865, V-A:ALA:541:CB:4890, V-B:TYR:539:CE1:9847, V-A:LEU:475:CD2:4256, V-B:TYR:539:CD1:9845, V-A:GLU:543:CG:4905, H-B:GLU:543:OE1:9881, V-A:ASP:366:CG:3210, V-A:ILE:369:CG2:3234, V-B:HIS:456:CE1:9040, H-B:GLU:543:OE2:9882, V-B:GLU:543:CD:9880, V-A:GLU:543:CD:4906, V-A:GLU:543:CB:4904, V-B:ARG:545:CG:9894, V-A:SER:385:CA:3404, V-A:SER:385:C:3402, V-B:TYR:484:CE2:9317, V-B:ALA:541:CB:9864, V-B:TYR:484:CZ:9318, V-B:TYR:539:CG:9844, V-A:SER:385:CB:3406, V-A:LEU:373:CD1:3277, V-A:PRO:482:CB:4323, V-A:PRO:482:CG:4324, V-B:TYR:539:CB:9843, V-A:GLU:543:CA:4902, V-A:LEU:475:CG:4254"]

$$$$
RR29_Rahimova_2017
     RDKit          3D

 35 36  0  0  0  0  0  0  0  0999 V2000
  129.2390  127.7430   70.1940 C   0  0  0  0  0  0  0  0  0  0  0  0
  129.1380  127.7040   68.6760 C   0  0  0  0  0  0  0  0  0  0  0  0
  130.4110  127.1460   68.0010 C   0  0  0  0  0  0  0  0  0  0  0  0
  130.1010  125.9080   67.1340 C   0  0  0  0  0  0  0  0  0  0  0  0
  131.1870  125.6400   66.1030 C   0  0  0  0  0  0  0  0  0  0  0  0
  132.5440  125.7200   66.4730 C   0  0  0  0  0  0  0  0  0  0  0  0
  133.5600  125.4750   65.5390 C   0  0  0  0  0  0  0  0  0  0  0  0
  133.1780  125.1640   64.2400 C   0  0  0  0  0  0  0  0  0  0  0  0
  131.8630  125.0870   63.8740 C   0  0  0  0  0  0  0  0  0  0  0  0
  130.8340  125.3150   64.7810 C   0  0  0  0  0  0  0  0  0  0  0  0
  131.7810  124.7350   62.5640 O   0  0  0  0  0  0  0  0  0  0  0  0
  133.0920  124.8050   62.0700 C   0  0  0  0  0  0  0  0  0  0  0  0
  133.9600  124.8620   63.1700 O   0  0  0  0  0  0  0  0  0  0  0  0
  128.0620  128.1250   68.1220 N   0  0  0  0  0  0  0  0  0  0  0  0
  128.0000  128.1700   66.7460 N   0  0  0  0  0  0  0  0  0  0  0  0
  127.5570  129.2290   66.0480 C   0  0  0  0  0  0  0  0  0  0  0  0
  127.1380  130.3750   66.5860 N   0  0  0  0  0  0  0  0  0  0  0  0
  127.5340  129.1300   64.7270 N   0  0  0  0  0  0  0  0  0  0  0  0
  128.2983  127.3798   70.6335 H   0  0  0  0  0  0  0  0  0  0  0  0
  130.0694  127.1009   70.5228 H   0  0  0  0  0  0  0  0  0  0  0  0
  129.4223  128.7766   70.5228 H   0  0  0  0  0  0  0  0  0  0  0  0
  130.8480  127.9280   67.3626 H   0  0  0  0  0  0  0  0  0  0  0  0
  131.1140  126.8440   68.7913 H   0  0  0  0  0  0  0  0  0  0  0  0
  130.0115  125.0297   67.7902 H   0  0  0  0  0  0  0  0  0  0  0  0
  129.1631  126.1018   66.5929 H   0  0  0  0  0  0  0  0  0  0  0  0
  132.8098  125.9782   67.5087 H   0  0  0  0  0  0  0  0  0  0  0  0
  134.6211  125.5271   65.8241 H   0  0  0  0  0  0  0  0  0  0  0  0
  129.7798  125.2436   64.4750 H   0  0  0  0  0  0  0  0  0  0  0  0
  133.3123  123.9133   61.4648 H   0  0  0  0  0  0  0  0  0  0  0  0
  133.2171  125.6939   61.4343 H   0  0  0  0  0  0  0  0  0  0  0  0
  128.2850  127.3370   66.2520 H   0  0  0  0  0  0  0  0  0  0  0  0
  127.1180  131.2190   66.0320 H   0  0  0  0  0  0  0  0  0  0  0  0
  126.8510  130.3940   67.5540 H   0  0  0  0  0  0  0  0  0  0  0  0
  127.5260  128.2210   64.2880 H   0  0  0  0  0  0  0  0  0  0  0  0
  127.5170  129.9660   64.1610 H   0  0  0  0  0  0  0  0  0  0  0  0
  1  2  1  0
  2  3  1  0
  3  4  1  0
  4  5  1  0
  5  6  2  0
  6  7  1  0
  7  8  2  0
  8  9  1  0
  9 10  2  0
  9 11  1  0
 11 12  1  0
 12 13  1  0
  2 14  2  0
 14 15  1  0
 15 16  1  0
 16 17  1  0
 16 18  2  0
 10  5  1  0
 13  8  1  0
  1 19  1  0
  1 20  1  0
  1 21  1  0
  3 22  1  0
  3 23  1  0
  4 24  1  0
  4 25  1  0
  6 26  1  0
  7 27  1  0
 10 28  1  0
 12 29  1  0
 12 30  1  0
 15 31  1  0
 17 32  1  0
 17 33  1  0
 18 34  1  0
 18 35  1  0
M  CHG  1  18   1
M  END
>  <Binding energies>  (1) 
[-7.27]

>  <Ligand effiencies>  (1) 
[-0.3160869565217391]

>  <Interactions>  (1) 
["V-A:GLU:543:CG:4905, H-B:GLU:543:OE1:9881, V-B:HIS:456:CE1:9040, H-B:GLU:543:OE2:9882, V-B:GLU:543:CD:9880, H-A:ARG:545:NH2:4926, V-B:GLU:543:CB:9878, V-B:GLU:543:CG:9879, V-A:HIS:456:CE1:4066, H-A:GLU:543:OE2:4908, V-A:TYR:484:CZ:4344, V-A:GLU:543:CD:4906, V-A:GLU:543:CB:4904, V-A:ARG:545:CZ:4924, V-A:ARG:545:CG:4920, H-A:GLY:454:N:4047, V-A:ARG:545:CD:4921, V-B:TYR:484:CE2:9317, H-A:GLU:543:OE1:4907, V-B:TYR:484:CZ:9318, H-B:HIS:456:NE2:9041, H-A:ARG:545:NH1:4925, H-B:TYR:484:OH:9319, H-B:HIS:456:ND1:9038"]

$$$$
RR29_Rahimova_2017-again1
     RDKit          3D

 34 35  0  0  0  0  0  0  0  0999 V2000
  126.3000  130.0000   76.1440 C   0  0  0  0  0  0  0  0  0  0  0  0
  127.3010  130.1180   75.0050 C   0  0  0  0  0  0  0  0  0  0  0  0
  127.4940  131.5630   74.5050 C   0  0  0  0  0  0  0  0  0  0  0  0
  128.8600  132.1340   74.9410 C   0  0  0  0  0  0  0  0  0  0  0  0
  129.4780  133.0260   73.8750 C   0  0  0  0  0  0  0  0  0  0  0  0
  129.5510  132.5790   72.5410 C   0  0  0  0  0  0  0  0  0  0  0  0
  130.1150  133.3840   71.5420 C   0  0  0  0  0  0  0  0  0  0  0  0
  130.6060  134.6290   71.9190 C   0  0  0  0  0  0  0  0  0  0  0  0
  130.5410  135.0660   73.2130 C   0  0  0  0  0  0  0  0  0  0  0  0
  129.9770  134.2930   74.2220 C   0  0  0  0  0  0  0  0  0  0  0  0
  131.0600  136.3200   73.2890 O   0  0  0  0  0  0  0  0  0  0  0  0
  131.6480  136.5630   72.0400 C   0  0  0  0  0  0  0  0  0  0  0  0
  131.1670  135.5940   71.1460 O   0  0  0  0  0  0  0  0  0  0  0  0
  127.8680  129.0550   74.5550 N   0  0  0  0  0  0  0  0  0  0  0  0
  128.6910  129.1950   73.5660 N   0  0  0  0  0  0  0  0  0  0  0  0
  128.6560  128.3090   72.6390 C   0  0  0  0  0  0  0  0  0  0  0  0
  127.8160  127.1640   72.5530 N   0  0  0  0  0  0  0  0  0  0  0  0
  129.5130  128.3840   71.5210 N   0  0  0  0  0  0  0  0  0  0  0  0
  126.8300  130.0625   77.1059 H   0  0  0  0  0  0  0  0  0  0  0  0
  125.5679  130.8181   76.0749 H   0  0  0  0  0  0  0  0  0  0  0  0
  125.7782  129.0341   76.0749 H   0  0  0  0  0  0  0  0  0  0  0  0
  127.4369  131.5719   73.4065 H   0  0  0  0  0  0  0  0  0  0  0  0
  126.7024  132.1887   74.9430 H   0  0  0  0  0  0  0  0  0  0  0  0
  128.7204  132.7239   75.8589 H   0  0  0  0  0  0  0  0  0  0  0  0
  129.5416  131.2870   75.1085 H   0  0  0  0  0  0  0  0  0  0  0  0
  129.1600  131.5845   72.2799 H   0  0  0  0  0  0  0  0  0  0  0  0
  130.1673  133.0432   70.4974 H   0  0  0  0  0  0  0  0  0  0  0  0
  129.9233  134.6610   75.2572 H   0  0  0  0  0  0  0  0  0  0  0  0
  131.3742  137.5679   71.6862 H   0  0  0  0  0  0  0  0  0  0  0  0
  132.7442  136.5091   72.1133 H   0  0  0  0  0  0  0  0  0  0  0  0
  127.1380  126.9410   73.2680 H   0  0  0  0  0  0  0  0  0  0  0  0
  127.8610  126.5140   71.7820 H   0  0  0  0  0  0  0  0  0  0  0  0
  130.1860  129.1290   71.4100 H   0  0  0  0  0  0  0  0  0  0  0  0
  129.5050  127.6960   70.7830 H   0  0  0  0  0  0  0  0  0  0  0  0
  1  2  1  0
  2  3  1  0
  3  4  1  0
  4  5  1  0
  5  6  2  0
  6  7  1  0
  7  8  2  0
  8  9  1  0
  9 10  2  0
  9 11  1  0
 11 12  1  0
 12 13  1  0
  2 14  2  0
 14 15  1  0
 15 16  2  0
 16 17  1  0
 16 18  1  0
 10  5  1  0
 13  8  1  0
  1 19  1  0
  1 20  1  0
  1 21  1  0
  3 22  1  0
  3 23  1  0
  4 24  1  0
  4 25  1  0
  6 26  1  0
  7 27  1  0
 10 28  1  0
 12 29  1  0
 12 30  1  0
 17 31  1  0
 17 32  1  0
 18 33  1  0
 18 34  1  0
M  END
>  <Binding energies>  (1) 
[-6.42]

>  <Ligand effiencies>  (1) 
[-0.2918181818181818]

>  <Interactions>  (1) 
["V-B:HIS:456:CE1:9040, V-B:GLY:544:C:9884, H-B:HIS:456:NE2:9041, V-A:GLY:544:CA:4912, V-A:GLU:543:C:4900, V-B:HIS:456:CD2:9039, V-B:HIS:456:CG:9037, V-A:LYS:547:CE:4948, V-B:GLY:544:CA:9886, H-A:GLY:544:O:4911, H-A:LYS:547:NZ:4949, V-B:LYS:471:CD:9190, V-B:LYS:547:CE:9922, H-B:GLY:544:O:9885, V-B:HIS:456:CB:9036, V-B:TYR:484:CB:9312, V-B:TYR:484:CG:9313, V-B:TYR:484:CD2:9315, V-A:VAL:542:CG1:4897, V-A:GLU:543:CA:4902, V-B:TYR:484:CA:9310, V-B:SER:483:CB:9304, H-B:GLU:543:O:9875, H-A:GLU:543:O:4901, H-B:TYR:484:N:9311"]

$$$$
RR2_Rahimova_2017
     RDKit          3D

 76 80  0  0  0  0  0  0  0  0999 V2000
  122.9940  124.6600   57.6090 C   0  0  0  0  0  0  0  0  0  0  0  0
  123.5290  123.4100   58.0280 O   0  0  0  0  0  0  0  0  0  0  0  0
  124.8580  123.3370   58.4050 C   0  0  0  0  0  0  0  0  0  0  0  0
  125.3390  123.6770   59.6760 C   0  0  0  0  0  0  0  0  0  0  0  0
  126.6980  123.5750   59.9640 C   0  0  0  0  0  0  0  0  0  0  0  0
  127.6050  123.1340   58.9900 C   0  0  0  0  0  0  0  0  0  0  0  0
  129.0800  123.0380   59.3270 C   0  0  0  0  0  0  0  0  0  0  0  0
  129.8980  123.7690   58.7580 O   0  0  0  0  0  0  0  0  0  0  0  0
  129.4140  122.1110   60.2550 N   0  0  0  0  0  0  0  0  0  0  0  0
  130.7630  121.9170   60.5330 N   0  0  0  0  0  0  0  0  0  0  0  0
  131.1530  120.7110   60.9910 C   0  0  0  0  0  0  0  0  0  0  0  0
  130.3880  119.8140   61.3550 O   0  0  0  0  0  0  0  0  0  0  0  0
  132.6690  120.4740   61.0220 C   0  0  0  0  0  0  0  0  0  0  0  0
  133.6560  121.8600   61.6970 S   0  0  0  0  0  0  0  0  0  0  0  0
  133.0500  123.1990   60.7160 C   0  0  0  0  0  0  0  0  0  0  0  0
  133.1650  123.2370   59.4120 N   0  0  0  0  0  0  0  0  0  0  0  0
  132.6510  124.4530   58.9830 N   0  0  0  0  0  0  0  0  0  0  0  0
  132.2180  125.0930   60.0430 C   0  0  0  0  0  0  0  0  0  0  0  0
  131.5770  126.4420   59.9830 C   0  0  0  0  0  0  0  0  0  0  0  0
  131.3400  127.1510   61.1640 C   0  0  0  0  0  0  0  0  0  0  0  0
  130.7370  128.4040   61.1190 C   0  0  0  0  0  0  0  0  0  0  0  0
  130.3800  128.9690   59.8890 C   0  0  0  0  0  0  0  0  0  0  0  0
  129.7600  130.2230   59.7840 N   0  0  0  0  0  0  0  0  0  0  0  0
  129.8130  131.4860   61.0340 S   0  0  0  0  0  0  0  0  0  0  0  0
  129.3920  132.7270   60.3720 O   0  0  0  0  0  0  0  0  0  0  0  0
  131.1110  131.4000   61.7130 O   0  0  0  0  0  0  0  0  0  0  0  0
  128.5180  131.0540   62.1930 C   0  0  0  0  0  0  0  0  0  0  0  0
  127.9260  132.0320   62.9960 C   0  0  0  0  0  0  0  0  0  0  0  0
  126.9320  131.6720   63.9020 C   0  0  0  0  0  0  0  0  0  0  0  0
  126.5270  130.3390   64.0010 C   0  0  0  0  0  0  0  0  0  0  0  0
  125.4530  129.9470   65.0000 C   0  0  0  0  0  0  0  0  0  0  0  0
  127.1230  129.3630   63.1990 C   0  0  0  0  0  0  0  0  0  0  0  0
  128.1180  129.7210   62.2940 C   0  0  0  0  0  0  0  0  0  0  0  0
  130.6200  128.2610   58.7110 C   0  0  0  0  0  0  0  0  0  0  0  0
  131.2170  127.0050   58.7550 C   0  0  0  0  0  0  0  0  0  0  0  0
  132.4460  124.3490   61.1890 N   0  0  0  0  0  0  0  0  0  0  0  0
  132.1710  124.6950   62.5280 C   0  0  0  0  0  0  0  0  0  0  0  0
  133.2110  125.0810   63.3750 C   0  0  0  0  0  0  0  0  0  0  0  0
  132.9320  125.4260   64.6950 C   0  0  0  0  0  0  0  0  0  0  0  0
  131.6230  125.3870   65.1780 C   0  0  0  0  0  0  0  0  0  0  0  0
  131.4460  125.7450   66.5010 O   0  0  0  0  0  0  0  0  0  0  0  0
  130.1560  126.1570   66.9430 C   0  0  0  0  0  0  0  0  0  0  0  0
  130.5830  124.9970   64.3190 C   0  0  0  0  0  0  0  0  0  0  0  0
  130.8560  124.6530   62.9980 C   0  0  0  0  0  0  0  0  0  0  0  0
  127.1140  122.7900   57.7210 C   0  0  0  0  0  0  0  0  0  0  0  0
  125.7550  122.8910   57.4370 C   0  0  0  0  0  0  0  0  0  0  0  0
  122.7360  125.2629   58.4921 H   0  0  0  0  0  0  0  0  0  0  0  0
  123.7419  125.1951   57.0055 H   0  0  0  0  0  0  0  0  0  0  0  0
  122.0905  124.4884   57.0055 H   0  0  0  0  0  0  0  0  0  0  0  0
  124.6401  124.0262   60.4503 H   0  0  0  0  0  0  0  0  0  0  0  0
  127.0635  123.8433   60.9662 H   0  0  0  0  0  0  0  0  0  0  0  0
  128.8840  121.2580   60.3640 H   0  0  0  0  0  0  0  0  0  0  0  0
  131.3710  122.5410   60.0190 H   0  0  0  0  0  0  0  0  0  0  0  0
  132.8626  119.5847   61.6398 H   0  0  0  0  0  0  0  0  0  0  0  0
  132.9827  120.3553   59.9744 H   0  0  0  0  0  0  0  0  0  0  0  0
  131.6311  126.7170   62.1319 H   0  0  0  0  0  0  0  0  0  0  0  0
  130.5403  128.9520   62.0522 H   0  0  0  0  0  0  0  0  0  0  0  0
  129.2690  130.4340   58.9270 H   0  0  0  0  0  0  0  0  0  0  0  0
  128.2438  133.0818   62.9128 H   0  0  0  0  0  0  0  0  0  0  0  0
  126.4657  132.4374   64.5398 H   0  0  0  0  0  0  0  0  0  0  0  0
  125.8347  130.0863   66.0222 H   0  0  0  0  0  0  0  0  0  0  0  0
  124.5652  130.5790   64.8508 H   0  0  0  0  0  0  0  0  0  0  0  0
  125.1811  128.8916   64.8508 H   0  0  0  0  0  0  0  0  0  0  0  0
  126.8064  128.3129   63.2825 H   0  0  0  0  0  0  0  0  0  0  0  0
  128.5880  128.9549   61.6598 H   0  0  0  0  0  0  0  0  0  0  0  0
  130.3358  128.6981   57.7424 H   0  0  0  0  0  0  0  0  0  0  0  0
  131.4061  126.4540   57.8219 H   0  0  0  0  0  0  0  0  0  0  0  0
  134.2453  125.1125   63.0019 H   0  0  0  0  0  0  0  0  0  0  0  0
  133.7506  125.7320   65.3631 H   0  0  0  0  0  0  0  0  0  0  0  0
  130.1305  126.1651   68.0427 H   0  0  0  0  0  0  0  0  0  0  0  0
  129.9439  127.1676   66.5638 H   0  0  0  0  0  0  0  0  0  0  0  0
  129.3974  125.4564   66.5638 H   0  0  0  0  0  0  0  0  0  0  0  0
  129.5485  124.9632   64.6913 H   0  0  0  0  0  0  0  0  0  0  0  0
  130.0393  124.3492   62.3266 H   0  0  0  0  0  0  0  0  0  0  0  0
  127.8088  122.4377   56.9444 H   0  0  0  0  0  0  0  0  0  0  0  0
  125.3857  122.6158   56.4381 H   0  0  0  0  0  0  0  0  0  0  0  0
  1  2  1  0
  2  3  1  0
  3  4  2  0
  4  5  1  0
  5  6  2  0
  6  7  1  0
  7  8  2  0
  7  9  1  0
  9 10  1  0
 10 11  1  0
 11 12  2  0
 11 13  1  0
 13 14  1  0
 14 15  1  0
 15 16  2  0
 16 17  1  0
 17 18  2  0
 18 19  1  0
 19 20  2  0
 20 21  1  0
 21 22  2  0
 22 23  1  0
 23 24  1  0
 24 25  2  0
 24 26  2  0
 24 27  1  0
 27 28  2  0
 28 29  1  0
 29 30  2  0
 30 31  1  0
 30 32  1  0
 32 33  2  0
 22 34  1  0
 34 35  2  0
 18 36  1  0
 36 37  1  0
 37 38  2  0
 38 39  1  0
 39 40  2  0
 40 41  1  0
 41 42  1  0
 40 43  1  0
 43 44  2  0
  6 45  1  0
 45 46  2  0
 46  3  1  0
 36 15  1  0
 44 37  1  0
 35 19  1  0
 33 27  1  0
  1 47  1  0
  1 48  1  0
  1 49  1  0
  4 50  1  0
  5 51  1  0
  9 52  1  0
 10 53  1  0
 13 54  1  0
 13 55  1  0
 20 56  1  0
 21 57  1  0
 23 58  1  0
 28 59  1  0
 29 60  1  0
 31 61  1  0
 31 62  1  0
 31 63  1  0
 32 64  1  0
 33 65  1  0
 34 66  1  0
 35 67  1  0
 38 68  1  0
 39 69  1  0
 42 70  1  0
 42 71  1  0
 42 72  1  0
 43 73  1  0
 44 74  1  0
 45 75  1  0
 46 76  1  0
M  END
>  <Binding energies>  (1) 
[-9.75]

>  <Ligand effiencies>  (1) 
[-0.1989795918367347]

>  <Interactions>  (1) 
["V-B:ASP:366:CB:8183, V-B:ASP:366:CG:8184, H-A:ALA:541:N:4889, V-A:ALA:541:CB:4890, V-B:TYR:539:CE1:9847, V-B:TYR:539:C:9839, V-B:PRO:540:N:9856, V-B:PRO:540:CA:9855, V-A:LEU:475:CD2:4256, V-B:TYR:539:CD1:9845, V-A:ASP:366:CG:3210, V-A:ILE:369:CG2:3234, V-B:GLU:543:CD:9880, V-B:GLU:543:CB:9878, V-B:GLU:543:CG:9879, V-A:HIS:456:CE1:4066, V-A:ASP:366:CB:3209, V-B:ARG:545:CZ:9898, V-A:ARG:545:CZ:4924, V-A:ARG:545:CD:4921, V-B:PRO:540:CD:9859, V-B:PRO:540:CB:9857, V-B:TYR:531:CE2:9765, V-B:TYR:531:CZ:9766, H-A:TYR:484:OH:4345, H-B:TYR:539:OH:9850, V-B:LEU:363:CA:8156, V-B:LEU:363:CD1:8160, H-B:TYR:539:O:9840, V-B:LEU:363:CB:8158, V-B:LEU:363:CG:8159, V-B:LEU:363:C:8154"]

$$$$
RR30_Rahimova_2017
     RDKit          3D

 29 30  0  0  0  0  0  0  0  0999 V2000
  123.7740  127.3300   74.9000 C   0  0  0  0  0  0  0  0  0  0  0  0
  124.5180  128.6260   75.2520 C   0  0  0  0  0  0  0  0  0  0  0  0
  126.0160  128.4900   75.0830 C   0  0  0  0  0  0  0  0  0  0  0  0
  126.8980  128.0900   75.9650 N   0  0  0  0  0  0  0  0  0  0  0  0
  128.1330  128.1520   75.3250 N   0  0  0  0  0  0  0  0  0  0  0  0
  127.8930  128.5930   74.1160 C   0  0  0  0  0  0  0  0  0  0  0  0
  129.0580  128.8710   72.8210 S   0  0  0  0  0  0  0  0  0  0  0  0
  129.0420  127.2310   72.0290 C   0  0  0  0  0  0  0  0  0  0  0  0
  129.4620  126.1190   72.9930 C   0  0  0  0  0  0  0  0  0  0  0  0
  130.1130  126.4080   74.0000 O   0  0  0  0  0  0  0  0  0  0  0  0
  129.1060  124.8640   72.6390 N   0  0  0  0  0  0  0  0  0  0  0  0
  129.3740  123.7000   73.3450 C   0  0  0  0  0  0  0  0  0  0  0  0
  130.0080  123.5710   74.4880 N   0  0  0  0  0  0  0  0  0  0  0  0
  130.0910  122.2460   74.8990 N   0  0  0  0  0  0  0  0  0  0  0  0
  129.5230  121.4060   74.0650 C   0  0  0  0  0  0  0  0  0  0  0  0
  129.4860  119.9120   74.2910 C   0  0  0  0  0  0  0  0  0  0  0  0
  128.8210  122.1960   72.6790 S   0  0  0  0  0  0  0  0  0  0  0  0
  126.5740  128.8240   73.8920 O   0  0  0  0  0  0  0  0  0  0  0  0
  123.4779  126.8143   75.8254 H   0  0  0  0  0  0  0  0  0  0  0  0
  122.8766  127.5707   74.3112 H   0  0  0  0  0  0  0  0  0  0  0  0
  124.4344  126.6764   74.3112 H   0  0  0  0  0  0  0  0  0  0  0  0
  124.1589  129.4305   74.5934 H   0  0  0  0  0  0  0  0  0  0  0  0
  124.3170  128.8539   76.3092 H   0  0  0  0  0  0  0  0  0  0  0  0
  128.0240  127.0216   71.6687 H   0  0  0  0  0  0  0  0  0  0  0  0
  129.7645  127.2496   71.1997 H   0  0  0  0  0  0  0  0  0  0  0  0
  128.5980  124.7480   71.7730 H   0  0  0  0  0  0  0  0  0  0  0  0
  129.4809  119.7046   75.3713 H   0  0  0  0  0  0  0  0  0  0  0  0
  128.5772  119.4943   73.8331 H   0  0  0  0  0  0  0  0  0  0  0  0
  130.3730  119.4498   73.8331 H   0  0  0  0  0  0  0  0  0  0  0  0
  1  2  1  0
  2  3  1  0
  3  4  2  0
  4  5  1  0
  5  6  2  0
  6  7  1  0
  7  8  1  0
  8  9  1  0
  9 10  2  0
  9 11  1  0
 11 12  1  0
 12 13  2  0
 13 14  1  0
 14 15  2  0
 15 16  1  0
 15 17  1  0
  6 18  1  0
 18  3  1  0
 17 12  1  0
  1 19  1  0
  1 20  1  0
  1 21  1  0
  2 22  1  0
  2 23  1  0
  8 24  1  0
  8 25  1  0
 11 26  1  0
 16 27  1  0
 16 28  1  0
 16 29  1  0
M  END
>  <Binding energies>  (1) 
[-6.46]

>  <Ligand effiencies>  (1) 
[-0.34]

>  <Interactions>  (1) 
["V-B:GLU:543:C:9874, V-B:GLY:544:C:9884, V-A:HIS:456:CD2:4065, H-B:HIS:456:NE2:9041, V-B:HIS:456:CD2:9039, V-B:HIS:456:CG:9037, V-B:GLY:544:CA:9886, H-B:LYS:547:NZ:9923, H-A:LYS:547:NZ:4949, V-B:HIS:456:C:9032, V-B:LYS:547:CE:9922, V-B:HIS:456:CB:9036, V-B:VAL:458:CG2:9058, V-B:HIS:456:CA:9034, V-B:LYS:547:CD:9921, V-B:LYS:547:CB:9919, V-B:LYS:547:CG:9920, V-A:TYR:484:CB:4338, V-B:VAL:457:C:9044, V-A:TYR:484:C:4334, H-B:GLU:543:O:9875, V-B:ARG:545:C:9889"]

$$$$
RR31_Rahimova_2017
     RDKit          3D

 44 45  0  0  0  0  0  0  0  0999 V2000
  123.9970  123.4650   58.0190 C   0  0  0  0  0  0  0  0  0  0  0  0
  125.2700  123.5260   58.8520 C   0  0  0  0  0  0  0  0  0  0  0  0
  126.5080  123.4920   58.2090 C   0  0  0  0  0  0  0  0  0  0  0  0
  127.6900  123.5500   58.9430 C   0  0  0  0  0  0  0  0  0  0  0  0
  127.6710  123.6510   60.3430 C   0  0  0  0  0  0  0  0  0  0  0  0
  128.8480  123.7000   61.0940 N   0  0  0  0  0  0  0  0  0  0  0  0
  129.3470  122.5300   61.8420 C   0  0  0  0  0  0  0  0  0  0  0  0
  130.4020  122.8730   62.9200 C   0  0  0  0  0  0  0  0  0  0  0  0
  131.5320  123.5980   62.3340 N   0  0  0  0  0  0  0  0  0  0  0  0
  132.5670  123.9070   63.3250 C   0  0  0  0  0  0  0  0  0  0  0  0
  132.3530  125.2690   64.0150 C   0  0  0  0  0  0  0  0  0  0  0  0
  131.2120  125.2280   65.0450 C   0  0  0  0  0  0  0  0  0  0  0  0
  130.1190  126.2300   64.6570 N   0  0  0  0  0  0  0  0  0  0  0  0
  131.0090  124.8390   61.7650 C   0  0  0  0  0  0  0  0  0  0  0  0
  129.9780  124.5410   60.6520 C   0  0  0  0  0  0  0  0  0  0  0  0
  126.4210  123.6750   60.9780 C   0  0  0  0  0  0  0  0  0  0  0  0
  125.2250  123.6160   60.2520 C   0  0  0  0  0  0  0  0  0  0  0  0
  123.8990  123.6430   61.0020 C   0  0  0  0  0  0  0  0  0  0  0  0
  123.1237  123.4232   58.6865 H   0  0  0  0  0  0  0  0  0  0  0  0
  123.9308  124.3610   57.3843 H   0  0  0  0  0  0  0  0  0  0  0  0
  124.0168  122.5668   57.3843 H   0  0  0  0  0  0  0  0  0  0  0  0
  126.5506  123.4187   57.1123 H   0  0  0  0  0  0  0  0  0  0  0  0
  128.6553  123.5161   58.4166 H   0  0  0  0  0  0  0  0  0  0  0  0
  128.4921  122.0460   62.3369 H   0  0  0  0  0  0  0  0  0  0  0  0
  129.8419  121.8736   61.1111 H   0  0  0  0  0  0  0  0  0  0  0  0
  129.9350  123.4992   63.6944 H   0  0  0  0  0  0  0  0  0  0  0  0
  130.7751  121.9352   63.3574 H   0  0  0  0  0  0  0  0  0  0  0  0
  132.5624  123.1201   64.0936 H   0  0  0  0  0  0  0  0  0  0  0  0
  133.5283  123.9554   62.7926 H   0  0  0  0  0  0  0  0  0  0  0  0
  133.2828  125.5556   64.5282 H   0  0  0  0  0  0  0  0  0  0  0  0
  132.0805  126.0001   63.2396 H   0  0  0  0  0  0  0  0  0  0  0  0
  130.7839  124.2152   65.0742 H   0  0  0  0  0  0  0  0  0  0  0  0
  131.6101  125.4936   66.0355 H   0  0  0  0  0  0  0  0  0  0  0  0
  129.3780  125.7600   64.1560 H   0  0  0  0  0  0  0  0  0  0  0  0
  130.5040  126.9520   64.0650 H   0  0  0  0  0  0  0  0  0  0  0  0
  129.7300  126.6600   65.4840 H   0  0  0  0  0  0  0  0  0  0  0  0
  130.5227  125.4234   62.5600 H   0  0  0  0  0  0  0  0  0  0  0  0
  131.8444  125.4065   61.3290 H   0  0  0  0  0  0  0  0  0  0  0  0
  129.5760  125.4976   60.2870 H   0  0  0  0  0  0  0  0  0  0  0  0
  130.5072  123.9792   59.8682 H   0  0  0  0  0  0  0  0  0  0  0  0
  126.3788  123.7419   62.0752 H   0  0  0  0  0  0  0  0  0  0  0  0
  124.0903  123.6391   62.0852 H   0  0  0  0  0  0  0  0  0  0  0  0
  123.3430  124.5527   60.7311 H   0  0  0  0  0  0  0  0  0  0  0  0
  123.3064  122.7567   60.7311 H   0  0  0  0  0  0  0  0  0  0  0  0
  1  2  1  0
  2  3  2  0
  3  4  1  0
  4  5  2  0
  5  6  1  0
  6  7  1  0
  7  8  1  0
  8  9  1  0
  9 10  1  0
 10 11  1  0
 11 12  1  0
 12 13  1  0
  9 14  1  0
 14 15  1  0
  5 16  1  0
 16 17  2  0
 17 18  1  0
 17  2  1  0
 15  6  1  0
  1 19  1  0
  1 20  1  0
  1 21  1  0
  3 22  1  0
  4 23  1  0
  7 24  1  0
  7 25  1  0
  8 26  1  0
  8 27  1  0
 10 28  1  0
 10 29  1  0
 11 30  1  0
 11 31  1  0
 12 32  1  0
 12 33  1  0
 13 34  1  0
 13 35  1  0
 13 36  1  0
 14 37  1  0
 14 38  1  0
 15 39  1  0
 15 40  1  0
 16 41  1  0
 18 42  1  0
 18 43  1  0
 18 44  1  0
M  CHG  1  13   1
M  END
>  <Binding energies>  (1) 
[-6.77]

>  <Ligand effiencies>  (1) 
[-0.3223809523809524]

>  <Interactions>  (1) 
["V-B:ASP:366:CG:8184, V-B:PRO:540:N:9856, V-B:PRO:540:CA:9855, H-B:GLU:543:OE1:9881, H-B:GLU:543:OE2:9882, V-B:GLU:543:CD:9880, H-A:GLU:543:OE2:4908, V-A:GLU:543:CD:4906, V-A:ARG:545:CZ:4924, H-A:GLU:543:OE1:4907, V-B:PRO:540:CB:9857, V-B:ALA:541:CB:9864, V-B:ASN:362:CB:8147, V-B:LEU:363:CA:8156, V-B:LEU:363:CD1:8160, V-B:ASN:362:C:8143, V-B:ASN:362:CA:8145, V-B:LEU:363:CB:8158"]

$$$$
RR32_Rahimova_2017
     RDKit          3D

 37 39  0  0  0  0  0  0  0  0999 V2000
  129.0120  127.7530   72.7500 C   0  0  0  0  0  0  0  0  0  0  0  0
  128.6200  129.0870   73.3790 C   0  0  0  0  0  0  0  0  0  0  0  0
  129.3740  130.2150   73.0550 C   0  0  0  0  0  0  0  0  0  0  0  0
  129.0450  131.4500   73.6070 C   0  0  0  0  0  0  0  0  0  0  0  0
  129.7950  132.5670   73.2830 N   0  0  0  0  0  0  0  0  0  0  0  0
  129.7840  133.0040   71.8750 C   0  0  0  0  0  0  0  0  0  0  0  0
  130.7890  134.1420   71.5810 C   0  0  0  0  0  0  0  0  0  0  0  0
  130.5060  135.2980   72.4310 N   0  0  0  0  0  0  0  0  0  0  0  0
  131.4340  136.3830   72.1310 C   0  0  0  0  0  0  0  0  0  0  0  0
  130.6490  134.8800   73.8240 C   0  0  0  0  0  0  0  0  0  0  0  0
  129.6440  133.7510   74.1510 C   0  0  0  0  0  0  0  0  0  0  0  0
  128.0050  131.6140   74.4650 N   0  0  0  0  0  0  0  0  0  0  0  0
  127.2530  130.5310   74.8030 C   0  0  0  0  0  0  0  0  0  0  0  0
  126.1760  130.7310   75.7010 C   0  0  0  0  0  0  0  0  0  0  0  0
  125.3740  129.6610   76.0820 C   0  0  0  0  0  0  0  0  0  0  0  0
  125.6170  128.3860   75.5850 C   0  0  0  0  0  0  0  0  0  0  0  0
  126.6660  128.1560   74.7000 C   0  0  0  0  0  0  0  0  0  0  0  0
  127.5150  129.2220   74.2830 C   0  0  0  0  0  0  0  0  0  0  0  0
  129.2267  127.0224   73.5438 H   0  0  0  0  0  0  0  0  0  0  0  0
  128.1842  127.3843   72.1264 H   0  0  0  0  0  0  0  0  0  0  0  0
  129.9076  127.8908   72.1264 H   0  0  0  0  0  0  0  0  0  0  0  0
  130.2264  130.1289   72.3651 H   0  0  0  0  0  0  0  0  0  0  0  0
  130.0365  132.1422   71.2398 H   0  0  0  0  0  0  0  0  0  0  0  0
  128.7778  133.3943   71.6624 H   0  0  0  0  0  0  0  0  0  0  0  0
  131.8103  133.7855   71.7808 H   0  0  0  0  0  0  0  0  0  0  0  0
  130.6949  134.4403   70.5264 H   0  0  0  0  0  0  0  0  0  0  0  0
  131.8058  136.8178   73.0705 H   0  0  0  0  0  0  0  0  0  0  0  0
  132.2805  135.9909   71.5481 H   0  0  0  0  0  0  0  0  0  0  0  0
  130.9154  137.1584   71.5481 H   0  0  0  0  0  0  0  0  0  0  0  0
  131.6729  134.5137   73.9897 H   0  0  0  0  0  0  0  0  0  0  0  0
  130.4462  135.7405   74.4786 H   0  0  0  0  0  0  0  0  0  0  0  0
  129.7954  133.4402   75.1953 H   0  0  0  0  0  0  0  0  0  0  0  0
  128.6345  134.1535   73.9811 H   0  0  0  0  0  0  0  0  0  0  0  0
  125.9734  131.7365   76.0984 H   0  0  0  0  0  0  0  0  0  0  0  0
  124.5412  129.8248   76.7818 H   0  0  0  0  0  0  0  0  0  0  0  0
  124.9731  127.5496   75.8946 H   0  0  0  0  0  0  0  0  0  0  0  0
  126.8419  127.1396   74.3179 H   0  0  0  0  0  0  0  0  0  0  0  0
  1  2  1  0
  2  3  2  0
  3  4  1  0
  4  5  1  0
  5  6  1  0
  6  7  1  0
  7  8  1  0
  8  9  1  0
  8 10  1  0
 10 11  1  0
  4 12  2  0
 12 13  1  0
 13 14  2  0
 14 15  1  0
 15 16  2  0
 16 17  1  0
 17 18  2  0
 18  2  1  0
 11  5  1  0
 18 13  1  0
  1 19  1  0
  1 20  1  0
  1 21  1  0
  3 22  1  0
  6 23  1  0
  6 24  1  0
  7 25  1  0
  7 26  1  0
  9 27  1  0
  9 28  1  0
  9 29  1  0
 10 30  1  0
 10 31  1  0
 11 32  1  0
 11 33  1  0
 14 34  1  0
 15 35  1  0
 16 36  1  0
 17 37  1  0
M  END
>  <Binding energies>  (1) 
[-5.83]

>  <Ligand effiencies>  (1) 
[-0.3238888888888889]

>  <Interactions>  (1) 
["V-A:GLY:544:CA:4912, V-A:GLU:543:C:4900, V-B:HIS:456:CD2:9039, V-B:HIS:456:CG:9037, V-A:LYS:547:CE:4948, V-B:LYS:471:CD:9190, V-B:LYS:547:CE:9922, V-B:HIS:456:CB:9036, V-B:VAL:458:CG2:9058, V-B:LYS:547:CD:9921, V-B:TYR:484:CB:9312, V-B:TYR:484:CG:9313, V-B:TYR:484:CD2:9315, V-A:GLU:543:CA:4902, V-B:SER:483:CB:9304, V-A:VAL:542:C:4892, H-B:TYR:484:N:9311"]

$$$$
RR32_Rahimova_2017-again1
     RDKit          3D

 38 40  0  0  0  0  0  0  0  0999 V2000
  134.2180  121.5360   61.0400 C   0  0  0  0  0  0  0  0  0  0  0  0
  132.7840  121.1090   61.3170 C   0  0  0  0  0  0  0  0  0  0  0  0
  131.9040  121.9760   61.9630 C   0  0  0  0  0  0  0  0  0  0  0  0
  130.5850  121.5830   62.2120 C   0  0  0  0  0  0  0  0  0  0  0  0
  129.6870  122.4320   62.8680 N   0  0  0  0  0  0  0  0  0  0  0  0
  130.1170  123.2000   64.0540 C   0  0  0  0  0  0  0  0  0  0  0  0
  130.7780  124.5490   63.6810 C   0  0  0  0  0  0  0  0  0  0  0  0
  129.7490  125.4060   62.9180 N   0  0  0  0  0  0  0  0  0  0  0  0
  130.3610  126.7580   62.5050 C   0  0  0  0  0  0  0  0  0  0  0  0
  129.2740  124.6210   61.6780 C   0  0  0  0  0  0  0  0  0  0  0  0
  128.7010  123.2620   62.1440 C   0  0  0  0  0  0  0  0  0  0  0  0
  130.1360  120.3460   61.8600 N   0  0  0  0  0  0  0  0  0  0  0  0
  130.9710  119.4790   61.2260 C   0  0  0  0  0  0  0  0  0  0  0  0
  130.4660  118.2080   60.8610 C   0  0  0  0  0  0  0  0  0  0  0  0
  131.2850  117.2910   60.2080 C   0  0  0  0  0  0  0  0  0  0  0  0
  132.6050  117.6100   59.9080 C   0  0  0  0  0  0  0  0  0  0  0  0
  133.1310  118.8520   60.2560 C   0  0  0  0  0  0  0  0  0  0  0  0
  132.3250  119.8160   60.9230 C   0  0  0  0  0  0  0  0  0  0  0  0
  134.7445  121.6928   61.9930 H   0  0  0  0  0  0  0  0  0  0  0  0
  134.7294  120.7512   60.4634 H   0  0  0  0  0  0  0  0  0  0  0  0
  134.2168  122.4727   60.4634 H   0  0  0  0  0  0  0  0  0  0  0  0
  132.2480  122.9722   62.2779 H   0  0  0  0  0  0  0  0  0  0  0  0
  129.2366  123.4007   64.6822 H   0  0  0  0  0  0  0  0  0  0  0  0
  130.8668  122.5975   64.5877 H   0  0  0  0  0  0  0  0  0  0  0  0
  131.0917  125.0734   64.5956 H   0  0  0  0  0  0  0  0  0  0  0  0
  131.6620  124.3729   63.0505 H   0  0  0  0  0  0  0  0  0  0  0  0
  128.9540  125.5640   63.5210 H   0  0  0  0  0  0  0  0  0  0  0  0
  130.6213  127.3331   63.4058 H   0  0  0  0  0  0  0  0  0  0  0  0
  131.2676  126.5828   61.9071 H   0  0  0  0  0  0  0  0  0  0  0  0
  129.6311  127.3235   61.9071 H   0  0  0  0  0  0  0  0  0  0  0  0
  128.4934  125.1923   61.1543 H   0  0  0  0  0  0  0  0  0  0  0  0
  130.1173  124.4575   60.9909 H   0  0  0  0  0  0  0  0  0  0  0  0
  127.8474  123.4527   62.8111 H   0  0  0  0  0  0  0  0  0  0  0  0
  128.4045  122.7058   61.2425 H   0  0  0  0  0  0  0  0  0  0  0  0
  129.4238  117.9442   61.0939 H   0  0  0  0  0  0  0  0  0  0  0  0
  130.8847  116.3057   59.9269 H   0  0  0  0  0  0  0  0  0  0  0  0
  133.2394  116.8749   59.3912 H   0  0  0  0  0  0  0  0  0  0  0  0
  134.1773  119.0892   60.0133 H   0  0  0  0  0  0  0  0  0  0  0  0
  1  2  1  0
  2  3  2  0
  3  4  1  0
  4  5  1  0
  5  6  1  0
  6  7  1  0
  7  8  1  0
  8  9  1  0
  8 10  1  0
 10 11  1  0
  4 12  2  0
 12 13  1  0
 13 14  2  0
 14 15  1  0
 15 16  2  0
 16 17  1  0
 17 18  2  0
 18  2  1  0
 11  5  1  0
 18 13  1  0
  1 19  1  0
  1 20  1  0
  1 21  1  0
  3 22  1  0
  6 23  1  0
  6 24  1  0
  7 25  1  0
  7 26  1  0
  8 27  1  0
  9 28  1  0
  9 29  1  0
  9 30  1  0
 10 31  1  0
 10 32  1  0
 11 33  1  0
 11 34  1  0
 14 35  1  0
 15 36  1  0
 16 37  1  0
 17 38  1  0
M  CHG  1   8   1
M  END
>  <Binding energies>  (1) 
[-6.7]

>  <Ligand effiencies>  (1) 
[-0.3526315789473684]

>  <Interactions>  (1) 
["V-B:TYR:539:CE1:9847, V-A:ILE:369:CD1:3236, V-A:LEU:475:CD2:4256, V-B:TYR:539:CD1:9845, H-B:GLU:543:OE1:9881, V-A:ILE:369:CG2:3234, H-B:GLU:543:OE2:9882, V-B:GLU:543:CD:9880, V-B:GLU:543:CB:9878, V-A:ILE:369:CB:3233, V-A:SER:385:CA:3404, V-A:SER:385:C:3402, V-B:ALA:541:CB:9864, V-A:ILE:369:CG1:3235, V-A:SER:385:CB:3406, V-A:LEU:373:CD1:3277, V-A:PRO:482:CB:4323, V-A:PRO:482:CG:4324, V-B:TYR:539:CB:9843"]

$$$$
RR32_Rahimova_2017-again2
     RDKit          3D

 39 41  0  0  0  0  0  0  0  0999 V2000
  128.6420  122.8580   57.9790 C   0  0  0  0  0  0  0  0  0  0  0  0
  128.5390  123.0070   59.4910 C   0  0  0  0  0  0  0  0  0  0  0  0
  129.6830  122.9040   60.2870 C   0  0  0  0  0  0  0  0  0  0  0  0
  129.6070  123.0330   61.6800 C   0  0  0  0  0  0  0  0  0  0  0  0
  130.7580  122.9500   62.5430 N   0  0  0  0  0  0  0  0  0  0  0  0
  131.6920  124.0990   62.6810 C   0  0  0  0  0  0  0  0  0  0  0  0
  131.1820  125.0960   63.7550 C   0  0  0  0  0  0  0  0  0  0  0  0
  131.0570  124.3700   65.1160 N   0  0  0  0  0  0  0  0  0  0  0  0
  130.4980  125.3150   66.1970 C   0  0  0  0  0  0  0  0  0  0  0  0
  130.1720  123.1100   64.9700 C   0  0  0  0  0  0  0  0  0  0  0  0
  130.7380  122.2160   63.8350 C   0  0  0  0  0  0  0  0  0  0  0  0
  128.3970  123.2680   62.2260 N   0  0  0  0  0  0  0  0  0  0  0  0
  127.2190  123.3850   61.5250 C   0  0  0  0  0  0  0  0  0  0  0  0
  126.0010  123.6310   62.1980 C   0  0  0  0  0  0  0  0  0  0  0  0
  124.8290  123.7480   61.4560 C   0  0  0  0  0  0  0  0  0  0  0  0
  124.8520  123.6250   60.0690 C   0  0  0  0  0  0  0  0  0  0  0  0
  126.0470  123.3820   59.3920 C   0  0  0  0  0  0  0  0  0  0  0  0
  127.2720  123.2540   60.1060 C   0  0  0  0  0  0  0  0  0  0  0  0
  129.2523  121.9751   57.7383 H   0  0  0  0  0  0  0  0  0  0  0  0
  127.6352  122.7349   57.5533 H   0  0  0  0  0  0  0  0  0  0  0  0
  129.1128  123.7564   57.5533 H   0  0  0  0  0  0  0  0  0  0  0  0
  130.6580  122.7188   59.8126 H   0  0  0  0  0  0  0  0  0  0  0  0
  132.6830  123.7249   62.9775 H   0  0  0  0  0  0  0  0  0  0  0  0
  131.7540  124.6216   61.7151 H   0  0  0  0  0  0  0  0  0  0  0  0
  131.8934  125.9298   63.8483 H   0  0  0  0  0  0  0  0  0  0  0  0
  130.1977  125.4851   63.4556 H   0  0  0  0  0  0  0  0  0  0  0  0
  131.9830  124.0660   65.3890 H   0  0  0  0  0  0  0  0  0  0  0  0
  130.7354  124.9136   67.1933 H   0  0  0  0  0  0  0  0  0  0  0  0
  130.9528  126.3103   66.0847 H   0  0  0  0  0  0  0  0  0  0  0  0
  129.4067  125.3957   66.0847 H   0  0  0  0  0  0  0  0  0  0  0  0
  130.1732  122.5482   65.9157 H   0  0  0  0  0  0  0  0  0  0  0  0
  129.1420  123.4088   64.7255 H   0  0  0  0  0  0  0  0  0  0  0  0
  131.7634  121.9124   64.0928 H   0  0  0  0  0  0  0  0  0  0  0  0
  130.0917  121.3324   63.7277 H   0  0  0  0  0  0  0  0  0  0  0  0
  128.3540  123.3710   63.2290 H   0  0  0  0  0  0  0  0  0  0  0  0
  125.9793  123.7287   63.2934 H   0  0  0  0  0  0  0  0  0  0  0  0
  123.8756  123.9394   61.9702 H   0  0  0  0  0  0  0  0  0  0  0  0
  123.9155  123.7207   59.4999 H   0  0  0  0  0  0  0  0  0  0  0  0
  126.0429  123.2884   58.2960 H   0  0  0  0  0  0  0  0  0  0  0  0
  1  2  1  0
  2  3  2  0
  3  4  1  0
  4  5  1  0
  5  6  1  0
  6  7  1  0
  7  8  1  0
  8  9  1  0
  8 10  1  0
 10 11  1  0
  4 12  2  0
 12 13  1  0
 13 14  2  0
 14 15  1  0
 15 16  2  0
 16 17  1  0
 17 18  2  0
 18  2  1  0
 11  5  1  0
 18 13  1  0
  1 19  1  0
  1 20  1  0
  1 21  1  0
  3 22  1  0
  6 23  1  0
  6 24  1  0
  7 25  1  0
  7 26  1  0
  8 27  1  0
  9 28  1  0
  9 29  1  0
  9 30  1  0
 10 31  1  0
 10 32  1  0
 11 33  1  0
 11 34  1  0
 12 35  1  0
 14 36  1  0
 15 37  1  0
 16 38  1  0
 17 39  1  0
M  CHG  2   8   1  12   1
M  END
>  <Binding energies>  (1) 
[-7.43]

>  <Ligand effiencies>  (1) 
[-0.3715]

>  <Interactions>  (1) 
["V-B:TYR:539:CE1:9847, V-B:TYR:539:C:9839, V-B:PRO:540:N:9856, V-B:PRO:540:CA:9855, V-A:LEU:475:CD2:4256, V-B:TYR:539:CD1:9845, H-B:GLU:543:OE1:9881, V-B:GLU:543:CD:9880, V-B:GLU:543:CB:9878, V-B:GLU:543:CG:9879, V-A:HIS:456:CE1:4066, V-A:TYR:484:CE2:4343, V-A:TYR:484:CZ:4344, V-B:PRO:540:CB:9857, V-B:ALA:541:CB:9864, V-B:TYR:539:CZ:9849, V-B:TYR:539:CG:9844, H-A:TYR:484:OH:4345, V-B:ASN:362:CB:8147"]

$$$$
RR33_Rahimova_2017
     RDKit          3D

 36 37  0  0  0  0  0  0  0  0999 V2000
  127.4560  129.9290   74.9630 C   0  0  0  0  0  0  0  0  0  0  0  0
  127.4910  128.5130   75.5450 C   0  0  0  0  0  0  0  0  0  0  0  0
  128.6180  127.8250   75.0090 O   0  0  0  0  0  0  0  0  0  0  0  0
  128.7910  127.7730   73.6390 C   0  0  0  0  0  0  0  0  0  0  0  0
  127.6720  127.4260   72.8830 C   0  0  0  0  0  0  0  0  0  0  0  0
  127.7520  127.3450   71.4960 C   0  0  0  0  0  0  0  0  0  0  0  0
  128.9580  127.6120   70.8410 C   0  0  0  0  0  0  0  0  0  0  0  0
  129.0430  127.5230   69.3510 C   0  0  0  0  0  0  0  0  0  0  0  0
  129.7380  126.6670   68.6360 N   0  0  0  0  0  0  0  0  0  0  0  0
  129.4920  126.9840   67.3740 C   0  0  0  0  0  0  0  0  0  0  0  0
  130.1170  126.2010   66.2390 C   0  0  0  0  0  0  0  0  0  0  0  0
  131.2280  125.3950   66.7220 N   0  0  0  0  0  0  0  0  0  0  0  0
  132.4880  125.8860   66.1890 C   0  0  0  0  0  0  0  0  0  0  0  0
  128.6220  128.0660   67.3260 C   0  0  0  0  0  0  0  0  0  0  0  0
  127.9740  128.8750   66.2290 C   0  0  0  0  0  0  0  0  0  0  0  0
  128.3360  128.4100   68.6030 O   0  0  0  0  0  0  0  0  0  0  0  0
  130.0820  127.9640   71.5950 C   0  0  0  0  0  0  0  0  0  0  0  0
  130.0030  128.0440   72.9830 C   0  0  0  0  0  0  0  0  0  0  0  0
  127.4379  130.6621   75.7829 H   0  0  0  0  0  0  0  0  0  0  0  0
  128.3504  130.0932   74.3440 H   0  0  0  0  0  0  0  0  0  0  0  0
  126.5546  130.0488   74.3440 H   0  0  0  0  0  0  0  0  0  0  0  0
  127.5762  128.5653   76.6404 H   0  0  0  0  0  0  0  0  0  0  0  0
  126.5664  127.9777   75.2829 H   0  0  0  0  0  0  0  0  0  0  0  0
  126.7176  127.2144   73.3873 H   0  0  0  0  0  0  0  0  0  0  0  0
  126.8616  127.0694   70.9119 H   0  0  0  0  0  0  0  0  0  0  0  0
  129.3578  125.5405   65.7947 H   0  0  0  0  0  0  0  0  0  0  0  0
  130.4941  126.9088   65.4861 H   0  0  0  0  0  0  0  0  0  0  0  0
  131.0980  124.4370   66.4260 H   0  0  0  0  0  0  0  0  0  0  0  0
  133.1602  126.1479   67.0194 H   0  0  0  0  0  0  0  0  0  0  0  0
  132.9548  125.1040   65.5721 H   0  0  0  0  0  0  0  0  0  0  0  0
  132.3026  126.7777   65.5721 H   0  0  0  0  0  0  0  0  0  0  0  0
  127.3453  129.6599   66.6748 H   0  0  0  0  0  0  0  0  0  0  0  0
  128.7532  129.3389   65.6064 H   0  0  0  0  0  0  0  0  0  0  0  0
  127.3512  128.2159   65.6064 H   0  0  0  0  0  0  0  0  0  0  0  0
  131.0345  128.1790   71.0885 H   0  0  0  0  0  0  0  0  0  0  0  0
  130.8928  128.3204   73.5676 H   0  0  0  0  0  0  0  0  0  0  0  0
  1  2  1  0
  2  3  1  0
  3  4  1  0
  4  5  2  0
  5  6  1  0
  6  7  2  0
  7  8  1  0
  8  9  2  0
  9 10  1  0
 10 11  1  0
 11 12  1  0
 12 13  1  0
 10 14  2  0
 14 15  1  0
 14 16  1  0
  7 17  1  0
 17 18  2  0
 18  4  1  0
 16  8  1  0
  1 19  1  0
  1 20  1  0
  1 21  1  0
  2 22  1  0
  2 23  1  0
  5 24  1  0
  6 25  1  0
 11 26  1  0
 11 27  1  0
 12 28  1  0
 13 29  1  0
 13 30  1  0
 13 31  1  0
 15 32  1  0
 15 33  1  0
 15 34  1  0
 17 35  1  0
 18 36  1  0
M  END
>  <Binding energies>  (1) 
[-5.12]

>  <Ligand effiencies>  (1) 
[-0.2694736842105263]

>  <Interactions>  (1) 
["V-A:GLU:543:CG:4905, V-B:HIS:456:CE1:9040, V-B:GLU:543:CD:9880, V-B:GLU:543:CB:9878, V-B:GLU:543:CG:9879, V-A:HIS:456:CE1:4066, V-A:GLU:543:CD:4906, V-A:GLU:543:CB:4904, V-B:GLY:544:C:9884, V-A:ARG:545:CZ:4924, V-A:ARG:545:CG:4920, V-A:ARG:545:CD:4921, H-A:HIS:456:NE2:4067, H-B:HIS:456:NE2:9041, V-A:GLY:544:C:4910, H-A:TYR:484:OH:4345, V-A:GLY:544:CA:4912, V-A:GLU:543:C:4900, V-B:HIS:456:CD2:9039, V-B:HIS:456:CG:9037, V-A:LYS:547:CE:4948, V-B:GLY:544:CA:9886, H-B:LYS:547:NZ:9923, H-A:LYS:547:NZ:4949, V-B:LYS:547:CE:9922, V-B:HIS:456:CB:9036"]

$$$$
RR33_Rahimova_2017-again1
     RDKit          3D

 37 38  0  0  0  0  0  0  0  0999 V2000
  132.5720  117.2910   61.0530 C   0  0  0  0  0  0  0  0  0  0  0  0
  133.1410  118.4780   60.2710 C   0  0  0  0  0  0  0  0  0  0  0  0
  133.2050  119.6090   61.1350 O   0  0  0  0  0  0  0  0  0  0  0  0
  132.1160  120.4540   61.2290 C   0  0  0  0  0  0  0  0  0  0  0  0
  132.3910  121.8200   61.2770 C   0  0  0  0  0  0  0  0  0  0  0  0
  131.3580  122.7490   61.3720 C   0  0  0  0  0  0  0  0  0  0  0  0
  130.0270  122.3210   61.4210 C   0  0  0  0  0  0  0  0  0  0  0  0
  128.9150  123.3150   61.5220 C   0  0  0  0  0  0  0  0  0  0  0  0
  129.0110  124.6060   61.7530 N   0  0  0  0  0  0  0  0  0  0  0  0
  127.7660  125.0580   61.7480 C   0  0  0  0  0  0  0  0  0  0  0  0
  127.4630  126.5230   61.9950 C   0  0  0  0  0  0  0  0  0  0  0  0
  128.3050  127.0180   63.1830 N   0  0  0  0  0  0  0  0  0  0  0  0
  129.3660  128.0570   62.7930 C   0  0  0  0  0  0  0  0  0  0  0  0
  126.8910  124.0040   61.5150 C   0  0  0  0  0  0  0  0  0  0  0  0
  125.3940  123.8560   61.3990 C   0  0  0  0  0  0  0  0  0  0  0  0
  127.6370  122.8840   61.3680 O   0  0  0  0  0  0  0  0  0  0  0  0
  129.7480  120.9500   61.3730 C   0  0  0  0  0  0  0  0  0  0  0  0
  130.7810  120.0230   61.2780 C   0  0  0  0  0  0  0  0  0  0  0  0
  132.6647  117.4844   62.1319 H   0  0  0  0  0  0  0  0  0  0  0  0
  131.5114  117.1561   60.7945 H   0  0  0  0  0  0  0  0  0  0  0  0
  133.1312  116.3797   60.7945 H   0  0  0  0  0  0  0  0  0  0  0  0
  134.1500  118.2323   59.9084 H   0  0  0  0  0  0  0  0  0  0  0  0
  132.4949  118.7021   59.4094 H   0  0  0  0  0  0  0  0  0  0  0  0
  133.4341  122.1673   61.2395 H   0  0  0  0  0  0  0  0  0  0  0  0
  131.5895  123.8237   61.4087 H   0  0  0  0  0  0  0  0  0  0  0  0
  127.7134  127.1073   61.0973 H   0  0  0  0  0  0  0  0  0  0  0  0
  126.3938  126.6471   62.2215 H   0  0  0  0  0  0  0  0  0  0  0  0
  127.6890  127.4210   63.8740 H   0  0  0  0  0  0  0  0  0  0  0  0
  128.7660  126.2230   63.6040 H   0  0  0  0  0  0  0  0  0  0  0  0
  129.8076  128.4894   63.7029 H   0  0  0  0  0  0  0  0  0  0  0  0
  130.1537  127.5713   62.1983 H   0  0  0  0  0  0  0  0  0  0  0  0
  128.8969  128.8547   62.1983 H   0  0  0  0  0  0  0  0  0  0  0  0
  124.9508  123.8122   62.4048 H   0  0  0  0  0  0  0  0  0  0  0  0
  124.9815  124.7177   60.8538 H   0  0  0  0  0  0  0  0  0  0  0  0
  125.1582  122.9302   60.8538 H   0  0  0  0  0  0  0  0  0  0  0  0
  128.7048  120.6033   61.4107 H   0  0  0  0  0  0  0  0  0  0  0  0
  130.5507  118.9480   61.2411 H   0  0  0  0  0  0  0  0  0  0  0  0
  1  2  1  0
  2  3  1  0
  3  4  1  0
  4  5  2  0
  5  6  1  0
  6  7  2  0
  7  8  1  0
  8  9  2  0
  9 10  1  0
 10 11  1  0
 11 12  1  0
 12 13  1  0
 10 14  2  0
 14 15  1  0
 14 16  1  0
  7 17  1  0
 17 18  2  0
 18  4  1  0
 16  8  1  0
  1 19  1  0
  1 20  1  0
  1 21  1  0
  2 22  1  0
  2 23  1  0
  5 24  1  0
  6 25  1  0
 11 26  1  0
 11 27  1  0
 12 28  1  0
 12 29  1  0
 13 30  1  0
 13 31  1  0
 13 32  1  0
 15 33  1  0
 15 34  1  0
 15 35  1  0
 17 36  1  0
 18 37  1  0
M  CHG  1  12   1
M  END
>  <Binding energies>  (1) 
[-6.23]

>  <Ligand effiencies>  (1) 
[-0.3115]

>  <Interactions>  (1) 
["V-B:TYR:539:CE1:9847, H-B:ALA:541:N:9863, V-B:PRO:540:CA:9855, V-A:LEU:475:CD2:4256, V-B:TYR:539:CD1:9845, H-B:GLU:543:OE1:9881, H-B:GLU:543:OE2:9882, V-B:GLU:543:CD:9880, H-A:GLU:543:OE2:4908, V-A:GLU:543:CD:4906, V-A:SER:385:CA:3404, V-B:PRO:540:CB:9857, V-B:ALA:541:CB:9864, V-A:SER:385:CB:3406, V-A:LEU:373:CD1:3277"]

$$$$
RR3_Rahimova_2017
     RDKit          3D

 63 69  0  0  0  0  0  0  0  0999 V2000
  126.3040  133.1750   61.3060 C   0  0  0  0  0  0  0  0  0  0  0  0
  125.6270  131.9920   61.5830 C   0  0  0  0  0  0  0  0  0  0  0  0
  126.3440  130.8580   61.9550 C   0  0  0  0  0  0  0  0  0  0  0  0
  127.7430  130.8910   62.0560 C   0  0  0  0  0  0  0  0  0  0  0  0
  128.5130  129.6720   62.4580 C   0  0  0  0  0  0  0  0  0  0  0  0
  128.0290  128.8100   63.4520 C   0  0  0  0  0  0  0  0  0  0  0  0
  128.7470  127.6780   63.8270 C   0  0  0  0  0  0  0  0  0  0  0  0
  129.9720  127.3850   63.2210 C   0  0  0  0  0  0  0  0  0  0  0  0
  130.7510  126.1730   63.6240 C   0  0  0  0  0  0  0  0  0  0  0  0
  131.2540  125.3670   62.6950 N   0  0  0  0  0  0  0  0  0  0  0  0
  131.9150  124.4290   63.3300 C   0  0  0  0  0  0  0  0  0  0  0  0
  132.6310  123.3270   62.6940 C   0  0  0  0  0  0  0  0  0  0  0  0
  134.0010  123.2510   62.5080 C   0  0  0  0  0  0  0  0  0  0  0  0
  134.3300  122.0750   61.8870 N   0  0  0  0  0  0  0  0  0  0  0  0
  133.1910  121.3400   61.6420 C   0  0  0  0  0  0  0  0  0  0  0  0
  133.0230  120.0900   61.0370 C   0  0  0  0  0  0  0  0  0  0  0  0
  131.7190  119.6060   60.9340 C   0  0  0  0  0  0  0  0  0  0  0  0
  130.6290  120.3280   61.4080 C   0  0  0  0  0  0  0  0  0  0  0  0
  130.7960  121.5730   62.0120 C   0  0  0  0  0  0  0  0  0  0  0  0
  132.0910  122.1070   62.1410 C   0  0  0  0  0  0  0  0  0  0  0  0
  131.8420  124.6110   64.6830 N   0  0  0  0  0  0  0  0  0  0  0  0
  131.0730  125.7220   64.9150 C   0  0  0  0  0  0  0  0  0  0  0  0
  130.7250  126.1950   66.2890 C   0  0  0  0  0  0  0  0  0  0  0  0
  131.6120  127.0080   66.9950 C   0  0  0  0  0  0  0  0  0  0  0  0
  131.2960  127.4400   68.2800 C   0  0  0  0  0  0  0  0  0  0  0  0
  130.0860  127.0740   68.8860 C   0  0  0  0  0  0  0  0  0  0  0  0
  129.7590  127.5240   70.2750 C   0  0  0  0  0  0  0  0  0  0  0  0
  128.4260  127.6450   70.6970 C   0  0  0  0  0  0  0  0  0  0  0  0
  128.1210  128.0600   71.9910 C   0  0  0  0  0  0  0  0  0  0  0  0
  129.1500  128.3570   72.8800 C   0  0  0  0  0  0  0  0  0  0  0  0
  130.4780  128.2420   72.4840 C   0  0  0  0  0  0  0  0  0  0  0  0
  130.7790  127.8290   71.1890 C   0  0  0  0  0  0  0  0  0  0  0  0
  129.1960  126.2710   68.1590 C   0  0  0  0  0  0  0  0  0  0  0  0
  129.5080  125.8370   66.8740 C   0  0  0  0  0  0  0  0  0  0  0  0
  130.4550  128.2300   62.2200 C   0  0  0  0  0  0  0  0  0  0  0  0
  129.7350  129.3620   61.8470 C   0  0  0  0  0  0  0  0  0  0  0  0
  128.4040  132.0950   61.7710 C   0  0  0  0  0  0  0  0  0  0  0  0
  127.6910  133.2310   61.3980 C   0  0  0  0  0  0  0  0  0  0  0  0
  125.7391  134.0720   61.0123 H   0  0  0  0  0  0  0  0  0  0  0  0
  124.5302  131.9525   61.5085 H   0  0  0  0  0  0  0  0  0  0  0  0
  125.8063  129.9234   62.1727 H   0  0  0  0  0  0  0  0  0  0  0  0
  127.0693  129.0311   63.9420 H   0  0  0  0  0  0  0  0  0  0  0  0
  128.3481  127.0102   64.6047 H   0  0  0  0  0  0  0  0  0  0  0  0
  134.7214  124.0236   62.8147 H   0  0  0  0  0  0  0  0  0  0  0  0
  135.2830  121.8270   61.6630 H   0  0  0  0  0  0  0  0  0  0  0  0
  133.8810  119.5145   60.6594 H   0  0  0  0  0  0  0  0  0  0  0  0
  131.5479  118.6259   60.4648 H   0  0  0  0  0  0  0  0  0  0  0  0
  129.6172  119.9091   61.3044 H   0  0  0  0  0  0  0  0  0  0  0  0
  129.9246  122.1319   62.3838 H   0  0  0  0  0  0  0  0  0  0  0  0
  132.2560  124.0160   65.3870 H   0  0  0  0  0  0  0  0  0  0  0  0
  132.5646  127.3088   66.5345 H   0  0  0  0  0  0  0  0  0  0  0  0
  132.0057  128.0775   68.8276 H   0  0  0  0  0  0  0  0  0  0  0  0
  127.6114  127.4090   69.9965 H   0  0  0  0  0  0  0  0  0  0  0  0
  127.0720  128.1526   72.3089 H   0  0  0  0  0  0  0  0  0  0  0  0
  128.9111  128.6848   73.9025 H   0  0  0  0  0  0  0  0  0  0  0  0
  131.2874  128.4764   73.1911 H   0  0  0  0  0  0  0  0  0  0  0  0
  131.8305  127.7406   70.8782 H   0  0  0  0  0  0  0  0  0  0  0  0
  128.2365  125.9795   68.6111 H   0  0  0  0  0  0  0  0  0  0  0  0
  128.7948  125.2108   66.3179 H   0  0  0  0  0  0  0  0  0  0  0  0
  131.4093  128.0003   61.7234 H   0  0  0  0  0  0  0  0  0  0  0  0
  130.1313  130.0222   61.0615 H   0  0  0  0  0  0  0  0  0  0  0  0
  129.5006  132.1421   61.8432 H   0  0  0  0  0  0  0  0  0  0  0  0
  128.2219  134.1687   61.1770 H   0  0  0  0  0  0  0  0  0  0  0  0
  1  2  2  0
  2  3  1  0
  3  4  2  0
  4  5  1  0
  5  6  2  0
  6  7  1  0
  7  8  2  0
  8  9  1  0
  9 10  1  0
 10 11  2  0
 11 12  1  0
 12 13  2  0
 13 14  1  0
 14 15  1  0
 15 16  2  0
 16 17  1  0
 17 18  2  0
 18 19  1  0
 19 20  2  0
 11 21  1  0
 21 22  1  0
 22 23  1  0
 23 24  2  0
 24 25  1  0
 25 26  2  0
 26 27  1  0
 27 28  2  0
 28 29  1  0
 29 30  2  0
 30 31  1  0
 31 32  2  0
 26 33  1  0
 33 34  2  0
  8 35  1  0
 35 36  2  0
  4 37  1  0
 37 38  2  0
 38  1  1  0
 36  5  1  0
 22  9  2  0
 34 23  1  0
 20 12  1  0
 32 27  1  0
 20 15  1  0
  1 39  1  0
  2 40  1  0
  3 41  1  0
  6 42  1  0
  7 43  1  0
 13 44  1  0
 14 45  1  0
 16 46  1  0
 17 47  1  0
 18 48  1  0
 19 49  1  0
 21 50  1  0
 24 51  1  0
 25 52  1  0
 28 53  1  0
 29 54  1  0
 30 55  1  0
 31 56  1  0
 32 57  1  0
 33 58  1  0
 34 59  1  0
 35 60  1  0
 36 61  1  0
 37 62  1  0
 38 63  1  0
M  END
>  <Binding energies>  (1) 
[-6.27]

>  <Ligand effiencies>  (1) 
[-0.15675]

>  <Interactions>  (1) 
["V-A:TYR:539:CE1:4873, V-A:TYR:539:CD1:4871, V-A:ALA:541:CB:4890, V-B:TYR:539:CE1:9847, V-A:ILE:369:CD1:3236, V-A:GLY:453:C:4039, V-A:LEU:475:CD2:4256, V-B:TYR:539:CD1:9845, V-A:GLY:454:CA:4046, V-A:GLU:543:CG:4905, V-A:ILE:369:CG2:3234, V-B:HIS:456:CE1:9040, V-B:GLU:543:CD:9880, V-B:GLU:543:CB:9878, V-B:GLU:543:CG:9879, V-A:HIS:456:CE1:4066, V-A:GLU:543:CD:4906, V-B:GLU:543:C:9874, V-A:ARG:545:CG:4920, V-A:SER:385:CA:3404, V-A:ARG:545:CD:4921, V-B:ALA:541:CB:9864, V-A:GLY:544:C:4910, H-A:TYR:484:OH:4345, V-A:GLY:544:CA:4912, V-A:GLU:543:C:4900, V-B:HIS:456:CD2:9039, V-B:HIS:456:CG:9037, V-A:LYS:547:CE:4948, H-A:SER:385:O:3403"]

$$$$
RR4_Rahimova_2017
     RDKit          3D

 66 70  0  0  0  0  0  0  0  0999 V2000
  132.5580  125.4520   65.4700 C   0  0  0  0  0  0  0  0  0  0  0  0
  132.5490  125.1190   64.0860 O   0  0  0  0  0  0  0  0  0  0  0  0
  131.6360  125.7340   63.2510 C   0  0  0  0  0  0  0  0  0  0  0  0
  130.3680  125.9730   63.7770 C   0  0  0  0  0  0  0  0  0  0  0  0
  129.3850  126.5890   63.0100 C   0  0  0  0  0  0  0  0  0  0  0  0
  129.6400  126.9830   61.6880 C   0  0  0  0  0  0  0  0  0  0  0  0
  128.5760  127.6470   60.8610 C   0  0  0  0  0  0  0  0  0  0  0  0
  127.8380  128.7440   61.3160 C   0  0  0  0  0  0  0  0  0  0  0  0
  126.8580  129.3310   60.5050 C   0  0  0  0  0  0  0  0  0  0  0  0
  126.1300  130.5180   61.0470 C   0  0  0  0  0  0  0  0  0  0  0  0
  126.6610  131.8010   60.8870 C   0  0  0  0  0  0  0  0  0  0  0  0
  125.9840  132.9140   61.3780 C   0  0  0  0  0  0  0  0  0  0  0  0
  124.7610  132.7670   62.0330 C   0  0  0  0  0  0  0  0  0  0  0  0
  124.1610  133.9260   62.4860 O   0  0  0  0  0  0  0  0  0  0  0  0
  124.1730  135.0840   61.6570 C   0  0  0  0  0  0  0  0  0  0  0  0
  124.2210  131.4820   62.1910 C   0  0  0  0  0  0  0  0  0  0  0  0
  124.9000  130.3700   61.6980 C   0  0  0  0  0  0  0  0  0  0  0  0
  126.6130  128.7700   59.2280 C   0  0  0  0  0  0  0  0  0  0  0  0
  125.6000  129.3450   58.3390 C   0  0  0  0  0  0  0  0  0  0  0  0
  124.8000  129.8000   57.6370 N   0  0  0  0  0  0  0  0  0  0  0  0
  127.3760  127.6420   58.8440 C   0  0  0  0  0  0  0  0  0  0  0  0
  127.1950  126.8020   57.2850 S   0  0  0  0  0  0  0  0  0  0  0  0
  126.5390  125.1340   57.6250 C   0  0  0  0  0  0  0  0  0  0  0  0
  127.5420  124.1760   58.2820 C   0  0  0  0  0  0  0  0  0  0  0  0
  127.2920  122.9720   58.3720 O   0  0  0  0  0  0  0  0  0  0  0  0
  128.6690  124.7660   58.7450 N   0  0  0  0  0  0  0  0  0  0  0  0
  129.7610  124.1730   59.3830 C   0  0  0  0  0  0  0  0  0  0  0  0
  131.3950  124.3110   58.7920 S   0  0  0  0  0  0  0  0  0  0  0  0
  132.0080  123.3410   60.0950 C   0  0  0  0  0  0  0  0  0  0  0  0
  130.9800  122.9220   60.9550 C   0  0  0  0  0  0  0  0  0  0  0  0
  129.7110  123.4080   60.5580 C   0  0  0  0  0  0  0  0  0  0  0  0
  128.4800  123.1320   61.2930 C   0  0  0  0  0  0  0  0  0  0  0  0
  127.5040  122.9120   61.8750 N   0  0  0  0  0  0  0  0  0  0  0  0
  131.2720  122.0840   62.2050 C   0  0  0  0  0  0  0  0  0  0  0  0
  132.7750  122.1390   62.5610 C   0  0  0  0  0  0  0  0  0  0  0  0
  133.6710  121.9340   61.3270 C   0  0  0  0  0  0  0  0  0  0  0  0
  133.4930  123.0620   60.2880 C   0  0  0  0  0  0  0  0  0  0  0  0
  128.3390  127.1150   59.6350 N   0  0  0  0  0  0  0  0  0  0  0  0
  130.9210  126.7420   61.1670 C   0  0  0  0  0  0  0  0  0  0  0  0
  131.9070  126.1260   61.9320 C   0  0  0  0  0  0  0  0  0  0  0  0
  132.5331  124.5298   66.0692 H   0  0  0  0  0  0  0  0  0  0  0  0
  133.4718  126.0175   65.7051 H   0  0  0  0  0  0  0  0  0  0  0  0
  131.6761  126.0660   65.7051 H   0  0  0  0  0  0  0  0  0  0  0  0
  130.1420  125.6711   64.8103 H   0  0  0  0  0  0  0  0  0  0  0  0
  128.3918  126.7702   63.4468 H   0  0  0  0  0  0  0  0  0  0  0  0
  128.0287  129.1500   62.3204 H   0  0  0  0  0  0  0  0  0  0  0  0
  127.6222  131.9325   60.3686 H   0  0  0  0  0  0  0  0  0  0  0  0
  126.4167  133.9170   61.2485 H   0  0  0  0  0  0  0  0  0  0  0  0
  124.1823  135.9858   62.2869 H   0  0  0  0  0  0  0  0  0  0  0  0
  125.0711  135.0710   61.0219 H   0  0  0  0  0  0  0  0  0  0  0  0
  123.2749  135.0896   61.0219 H   0  0  0  0  0  0  0  0  0  0  0  0
  123.2578  131.3519   62.7061 H   0  0  0  0  0  0  0  0  0  0  0  0
  124.4656  129.3670   61.8215 H   0  0  0  0  0  0  0  0  0  0  0  0
  125.6723  125.2359   58.2947 H   0  0  0  0  0  0  0  0  0  0  0  0
  126.2808  124.6952   56.6499 H   0  0  0  0  0  0  0  0  0  0  0  0
  128.7470  125.7630   58.6070 H   0  0  0  0  0  0  0  0  0  0  0  0
  130.6865  122.4780   63.0487 H   0  0  0  0  0  0  0  0  0  0  0  0
  130.9946  121.0389   62.0028 H   0  0  0  0  0  0  0  0  0  0  0  0
  132.9990  123.1213   63.0025 H   0  0  0  0  0  0  0  0  0  0  0  0
  132.9847  121.3248   63.2703 H   0  0  0  0  0  0  0  0  0  0  0  0
  134.7220  121.9125   61.6511 H   0  0  0  0  0  0  0  0  0  0  0  0
  133.3814  120.9855   60.8511 H   0  0  0  0  0  0  0  0  0  0  0  0
  133.9943  123.9733   60.6459 H   0  0  0  0  0  0  0  0  0  0  0  0
  133.9368  122.7531   59.3301 H   0  0  0  0  0  0  0  0  0  0  0  0
  131.1498  127.0457   60.1348 H   0  0  0  0  0  0  0  0  0  0  0  0
  132.9027  125.9459   61.5005 H   0  0  0  0  0  0  0  0  0  0  0  0
  1  2  1  0
  2  3  1  0
  3  4  2  0
  4  5  1  0
  5  6  2  0
  6  7  1  0
  7  8  2  0
  8  9  1  0
  9 10  1  0
 10 11  2  0
 11 12  1  0
 12 13  2  0
 13 14  1  0
 14 15  1  0
 13 16  1  0
 16 17  2  0
  9 18  2  0
 18 19  1  0
 19 20  3  0
 18 21  1  0
 21 22  1  0
 22 23  1  0
 23 24  1  0
 24 25  2  0
 24 26  1  0
 26 27  1  0
 27 28  1  0
 28 29  1  0
 29 30  2  0
 30 31  1  0
 31 32  1  0
 32 33  3  0
 30 34  1  0
 34 35  1  0
 35 36  1  0
 36 37  1  0
 21 38  2  0
  6 39  1  0
 39 40  2  0
 40  3  1  0
 38  7  1  0
 17 10  1  0
 31 27  2  0
 37 29  1  0
  1 41  1  0
  1 42  1  0
  1 43  1  0
  4 44  1  0
  5 45  1  0
  8 46  1  0
 11 47  1  0
 12 48  1  0
 15 49  1  0
 15 50  1  0
 15 51  1  0
 16 52  1  0
 17 53  1  0
 23 54  1  0
 23 55  1  0
 26 56  1  0
 34 57  1  0
 34 58  1  0
 35 59  1  0
 35 60  1  0
 36 61  1  0
 36 62  1  0
 37 63  1  0
 37 64  1  0
 39 65  1  0
 40 66  1  0
M  END
>  <Binding energies>  (1) 
[-7.68]

>  <Ligand effiencies>  (1) 
[-0.1873170731707317]

>  <Interactions>  (1) 
["V-B:LEU:475:CD2:9230, V-B:ASP:366:CB:8183, H-A:TYR:539:OH:4876, V-B:ILE:369:CG2:8208, V-A:TYR:539:CE1:4873, V-B:ILE:369:CD1:8210, V-A:TYR:539:CD1:4871, V-B:ASP:366:CG:8184, V-B:TYR:539:CE1:9847, H-B:ALA:541:N:9863, V-A:ILE:369:CD1:3236, V-A:LEU:475:CD2:4256, V-A:GLY:454:CA:4046, V-A:ASP:366:CG:3210, V-A:ILE:369:CG2:3234, V-B:GLU:543:CD:9880, H-A:ARG:545:NH2:4926, V-A:ILE:369:CB:3233, V-A:ARG:545:CZ:4924, V-A:ARG:545:CD:4921, V-B:ALA:541:CB:9864, V-B:TYR:539:CZ:9849, H-A:TYR:484:OH:4345, V-B:SER:385:CA:8378, V-B:SER:385:CB:8380, V-B:SER:385:C:8376, H-B:TYR:531:OH:9767"]

$$$$
RR5_Rahimova_2017
     RDKit          3D

 77 82  0  0  0  0  0  0  0  0999 V2000
  128.2160  122.8770   62.4540 O   0  0  0  0  0  0  0  0  0  0  0  0
  128.3670  123.0540   61.2470 C   0  0  0  0  0  0  0  0  0  0  0  0
  127.1370  123.2940   60.3510 C   0  0  0  0  0  0  0  0  0  0  0  0
  126.1180  124.3380   60.9310 C   0  0  2  0  0  0  0  0  0  0  0  0
  126.6950  125.3100   61.8820 N   0  0  0  0  0  0  0  0  0  0  0  0
  126.8990  126.6370   61.5320 C   0  0  0  0  0  0  0  0  0  0  0  0
  126.6020  127.1700   60.4590 O   0  0  0  0  0  0  0  0  0  0  0  0
  127.4990  127.2600   62.5610 O   0  0  0  0  0  0  0  0  0  0  0  0
  128.3200  128.4070   62.3600 C   0  0  0  0  0  0  0  0  0  0  0  0
  127.6190  129.6820   62.8790 C   0  0  0  0  0  0  0  0  0  0  0  0
  126.4330  130.1120   62.0340 C   0  0  0  0  0  0  0  0  0  0  0  0
  126.3810  130.4350   60.6750 C   0  0  0  0  0  0  0  0  0  0  0  0
  125.1630  130.7880   60.0910 C   0  0  0  0  0  0  0  0  0  0  0  0
  123.9990  130.8190   60.8610 C   0  0  0  0  0  0  0  0  0  0  0  0
  124.0490  130.5000   62.2190 C   0  0  0  0  0  0  0  0  0  0  0  0
  125.2680  130.1480   62.8010 C   0  0  0  0  0  0  0  0  0  0  0  0
  125.6100  129.7790   64.1840 C   0  0  0  0  0  0  0  0  0  0  0  0
  124.8190  129.6780   65.3310 C   0  0  0  0  0  0  0  0  0  0  0  0
  125.4070  129.3240   66.5460 C   0  0  0  0  0  0  0  0  0  0  0  0
  126.7790  129.0690   66.6130 C   0  0  0  0  0  0  0  0  0  0  0  0
  127.5640  129.1680   65.4640 C   0  0  0  0  0  0  0  0  0  0  0  0
  126.9800  129.5190   64.2450 C   0  0  0  0  0  0  0  0  0  0  0  0
  124.9100  123.6230   61.5850 C   0  0  0  0  0  0  0  0  0  0  0  0
  123.8630  123.3750   61.0200 O   0  0  0  0  0  0  0  0  0  0  0  0
  125.2120  123.3000   62.8770 O   0  0  0  0  0  0  0  0  0  0  0  0
  129.5620  123.0890   60.6160 N   0  0  0  0  0  0  0  0  0  0  0  0
  130.9720  122.9170   61.0770 C   0  0  0  0  0  0  0  0  0  0  0  0
  131.7720  123.7000   59.9820 C   0  0  0  0  0  0  0  0  0  0  0  0
  133.1750  123.6530   59.9240 C   0  0  0  0  0  0  0  0  0  0  0  0
  133.8760  124.3520   58.9450 C   0  0  0  0  0  0  0  0  0  0  0  0
  133.1850  125.1200   58.0140 C   0  0  0  0  0  0  0  0  0  0  0  0
  131.7970  125.1840   58.0460 C   0  0  0  0  0  0  0  0  0  0  0  0
  131.0970  124.4760   59.0190 C   0  0  0  0  0  0  0  0  0  0  0  0
  131.0850  123.5760   62.4920 C   0  0  0  0  0  0  0  0  0  0  0  0
  130.7660  122.8700   63.6630 C   0  0  0  0  0  0  0  0  0  0  0  0
  130.8550  123.4830   64.9100 C   0  0  0  0  0  0  0  0  0  0  0  0
  131.2620  124.8100   65.0030 C   0  0  0  0  0  0  0  0  0  0  0  0
  131.5870  125.5290   63.8580 C   0  0  0  0  0  0  0  0  0  0  0  0
  131.5060  124.9120   62.6130 C   0  0  0  0  0  0  0  0  0  0  0  0
  131.2530  121.3760   61.0500 C   0  0  0  0  0  0  0  0  0  0  0  0
  130.2400  120.4500   61.3560 C   0  0  0  0  0  0  0  0  0  0  0  0
  130.4860  119.0800   61.3410 C   0  0  0  0  0  0  0  0  0  0  0  0
  131.7520  118.6100   61.0140 C   0  0  0  0  0  0  0  0  0  0  0  0
  132.7700  119.4990   60.6930 C   0  0  0  0  0  0  0  0  0  0  0  0
  132.5200  120.8690   60.7090 C   0  0  0  0  0  0  0  0  0  0  0  0
  127.4868  123.6583   59.3738 H   0  0  0  0  0  0  0  0  0  0  0  0
  126.6035  122.3347   60.2795 H   0  0  0  0  0  0  0  0  0  0  0  0
  125.7931  124.9246   60.0591 H   0  0  0  0  0  0  0  0  0  0  0  0
  127.1010  124.9580   62.7370 H   0  0  0  0  0  0  0  0  0  0  0  0
  129.2680  128.2711   62.9012 H   0  0  0  0  0  0  0  0  0  0  0  0
  128.5071  128.5218   61.2821 H   0  0  0  0  0  0  0  0  0  0  0  0
  128.4498  130.4029   62.8700 H   0  0  0  0  0  0  0  0  0  0  0  0
  127.2975  130.4111   60.0672 H   0  0  0  0  0  0  0  0  0  0  0  0
  125.1205  131.0423   59.0216 H   0  0  0  0  0  0  0  0  0  0  0  0
  123.0408  131.0953   60.3968 H   0  0  0  0  0  0  0  0  0  0  0  0
  123.1328  130.5259   62.8272 H   0  0  0  0  0  0  0  0  0  0  0  0
  123.7384  129.8765   65.2767 H   0  0  0  0  0  0  0  0  0  0  0  0
  124.7891  129.2456   67.4527 H   0  0  0  0  0  0  0  0  0  0  0  0
  127.2403  128.7901   67.5719 H   0  0  0  0  0  0  0  0  0  0  0  0
  128.6445  128.9693   65.5183 H   0  0  0  0  0  0  0  0  0  0  0  0
  126.0810  122.9020   62.9590 H   0  0  0  0  0  0  0  0  0  0  0  0
  129.4950  123.1460   59.6100 H   0  0  0  0  0  0  0  0  0  0  0  0
  133.7280  123.0549   60.6633 H   0  0  0  0  0  0  0  0  0  0  0  0
  134.9740  124.2969   58.9080 H   0  0  0  0  0  0  0  0  0  0  0  0
  133.7405  125.6803   57.2475 H   0  0  0  0  0  0  0  0  0  0  0  0
  131.2544  125.7910   57.3063 H   0  0  0  0  0  0  0  0  0  0  0  0
  129.9981  124.5232   59.0363 H   0  0  0  0  0  0  0  0  0  0  0  0
  130.4422  121.8210   63.5945 H   0  0  0  0  0  0  0  0  0  0  0  0
  130.6039  122.9188   65.8203 H   0  0  0  0  0  0  0  0  0  0  0  0
  131.3272  125.2937   65.9888 H   0  0  0  0  0  0  0  0  0  0  0  0
  131.9061  126.5788   63.9357 H   0  0  0  0  0  0  0  0  0  0  0  0
  131.7756  125.4786   61.7095 H   0  0  0  0  0  0  0  0  0  0  0  0
  129.2344  120.8150   61.6120 H   0  0  0  0  0  0  0  0  0  0  0  0
  129.6810  118.3720   61.5872 H   0  0  0  0  0  0  0  0  0  0  0  0
  131.9493  117.5278   61.0093 H   0  0  0  0  0  0  0  0  0  0  0  0
  133.7689  119.1227   60.4274 H   0  0  0  0  0  0  0  0  0  0  0  0
  133.3289  121.5680   60.4500 H   0  0  0  0  0  0  0  0  0  0  0  0
  1  2  2  0
  2  3  1  0
  3  4  1  0
  4  5  1  0
  5  6  1  0
  6  7  2  0
  6  8  1  0
  8  9  1  0
  9 10  1  0
 10 11  1  0
 11 12  2  0
 12 13  1  0
 13 14  2  0
 14 15  1  0
 15 16  2  0
 16 17  1  0
 17 18  2  0
 18 19  1  0
 19 20  2  0
 20 21  1  0
 21 22  2  0
  4 23  1  0
 23 24  2  0
 23 25  1  0
  2 26  1  0
 26 27  1  0
 27 28  1  0
 28 29  2  0
 29 30  1  0
 30 31  2  0
 31 32  1  0
 32 33  2  0
 27 34  1  0
 34 35  2  0
 35 36  1  0
 36 37  2  0
 37 38  1  0
 38 39  2  0
 27 40  1  0
 40 41  2  0
 41 42  1  0
 42 43  2  0
 43 44  1  0
 44 45  2  0
 22 10  1  0
 33 28  1  0
 39 34  1  0
 45 40  1  0
 16 11  1  0
 22 17  1  0
  3 46  1  0
  3 47  1  0
  4 48  1  6
  5 49  1  0
  9 50  1  0
  9 51  1  0
 10 52  1  0
 12 53  1  0
 13 54  1  0
 14 55  1  0
 15 56  1  0
 18 57  1  0
 19 58  1  0
 20 59  1  0
 21 60  1  0
 25 61  1  0
 26 62  1  0
 29 63  1  0
 30 64  1  0
 31 65  1  0
 32 66  1  0
 33 67  1  0
 35 68  1  0
 36 69  1  0
 37 70  1  0
 38 71  1  0
 39 72  1  0
 41 73  1  0
 42 74  1  0
 43 75  1  0
 44 76  1  0
 45 77  1  0
M  END
>  <Binding energies>  (1) 
[-11.19]

>  <Ligand effiencies>  (1) 
[-0.233125]

>  <Interactions>  (1) 
["V-A:TYR:539:CE1:4873, V-B:ILE:369:CD1:8210, V-B:ASP:366:CG:8184, V-B:TYR:539:CE1:9847, H-B:ALA:541:N:9863, V-B:PRO:540:CA:9855, V-A:LEU:475:CD2:4256, V-B:TYR:539:CD1:9845, H-B:GLU:543:OE1:9881, V-A:ASP:366:CG:3210, H-B:ARG:545:NH2:9900, V-A:ILE:369:CG2:3234, V-B:HIS:456:CE1:9040, H-B:GLU:543:OE2:9882, V-B:GLU:543:CD:9880, V-B:GLU:543:CB:9878, V-A:ASP:366:CA:3207, V-A:ASP:366:CB:3209, V-A:TYR:484:CE2:4343, V-A:TYR:484:CZ:4344, V-A:GLU:543:CD:4906, V-A:ILE:369:CB:3233, V-B:ARG:545:CZ:9898, V-B:ARG:545:CG:9894, V-A:ARG:545:CZ:4924, V-A:SER:385:CA:3404, H-B:ALA:541:O:9861, V-B:PRO:540:CB:9857, V-B:ALA:541:CB:9864, V-B:TYR:539:CZ:9849, V-B:TYR:484:CZ:9318, V-A:ASP:366:C:3205, V-B:ARG:545:CD:9895, V-B:ASN:362:CB:8147, V-A:LEU:373:CD1:3277, V-A:PRO:482:CB:4323, V-A:PRO:482:CG:4324, H-B:LEU:363:N:8157, H-B:ASN:362:ND2:8150"]

$$$$
RR5_Rahimova_2017-again1
     RDKit          3D

 76 81  0  0  0  0  0  0  0  0999 V2000
  130.8920  121.7240   63.8530 O   0  0  0  0  0  0  0  0  0  0  0  0
  130.7310  122.9340   63.6930 C   0  0  0  0  0  0  0  0  0  0  0  0
  130.7750  123.8590   64.9270 C   0  0  0  0  0  0  0  0  0  0  0  0
  131.6700  125.1360   64.8160 C   0  0  2  0  0  0  0  0  0  0  0  0
  130.9700  126.1480   63.9970 N   0  0  0  0  0  0  0  0  0  0  0  0
  131.2790  126.3450   62.6560 C   0  0  0  0  0  0  0  0  0  0  0  0
  132.1470  125.7520   62.0080 O   0  0  0  0  0  0  0  0  0  0  0  0
  130.4700  127.3010   62.1620 O   0  0  0  0  0  0  0  0  0  0  0  0
  130.9300  128.2020   61.1610 C   0  0  0  0  0  0  0  0  0  0  0  0
  129.7340  128.9130   60.4980 C   0  0  0  0  0  0  0  0  0  0  0  0
  128.8970  129.7240   61.4720 C   0  0  0  0  0  0  0  0  0  0  0  0
  128.2020  129.3090   62.6110 C   0  0  0  0  0  0  0  0  0  0  0  0
  127.5000  130.2420   63.3770 C   0  0  0  0  0  0  0  0  0  0  0  0
  127.4870  131.5870   63.0050 C   0  0  0  0  0  0  0  0  0  0  0  0
  128.1750  132.0040   61.8640 C   0  0  0  0  0  0  0  0  0  0  0  0
  128.8770  131.0700   61.1000 C   0  0  0  0  0  0  0  0  0  0  0  0
  129.6650  131.2240   59.8680 C   0  0  0  0  0  0  0  0  0  0  0  0
  129.9450  132.3510   59.0920 C   0  0  0  0  0  0  0  0  0  0  0  0
  130.7220  132.2200   57.9390 C   0  0  0  0  0  0  0  0  0  0  0  0
  131.2160  130.9680   57.5660 C   0  0  0  0  0  0  0  0  0  0  0  0
  130.9350  129.8440   58.3450 C   0  0  0  0  0  0  0  0  0  0  0  0
  130.1600  129.9720   59.5010 C   0  0  0  0  0  0  0  0  0  0  0  0
  133.1060  124.8060   64.2410 C   0  0  0  0  0  0  0  0  0  0  0  0
  133.1240  123.8790   63.3960 O   0  0  0  0  0  0  0  0  0  0  0  0
  134.0570  125.5150   64.6500 O   0  0  0  0  0  0  0  0  0  0  0  0
  130.6410  123.5070   62.4740 N   0  0  0  0  0  0  0  0  0  0  0  0
  130.5960  122.8730   61.1320 C   0  0  0  0  0  0  0  0  0  0  0  0
  131.6390  123.5460   60.1850 C   0  0  0  0  0  0  0  0  0  0  0  0
  131.2390  124.1410   58.9750 C   0  0  0  0  0  0  0  0  0  0  0  0
  132.1650  124.7530   58.1350 C   0  0  0  0  0  0  0  0  0  0  0  0
  133.5080  124.7830   58.4960 C   0  0  0  0  0  0  0  0  0  0  0  0
  133.9310  124.2050   59.6890 C   0  0  0  0  0  0  0  0  0  0  0  0
  133.0030  123.5930   60.5280 C   0  0  0  0  0  0  0  0  0  0  0  0
  130.9890  121.3610   61.0960 C   0  0  0  0  0  0  0  0  0  0  0  0
  130.0510  120.3640   61.4160 C   0  0  0  0  0  0  0  0  0  0  0  0
  130.3980  119.0160   61.3870 C   0  0  0  0  0  0  0  0  0  0  0  0
  131.6900  118.6450   61.0290 C   0  0  0  0  0  0  0  0  0  0  0  0
  132.6340  119.6120   60.6980 C   0  0  0  0  0  0  0  0  0  0  0  0
  132.2840  120.9590   60.7290 C   0  0  0  0  0  0  0  0  0  0  0  0
  129.1360  123.1450   60.6270 C   0  0  0  0  0  0  0  0  0  0  0  0
  128.2570  123.9880   61.3290 C   0  0  0  0  0  0  0  0  0  0  0  0
  126.9710  124.2340   60.8580 C   0  0  0  0  0  0  0  0  0  0  0  0
  126.5480  123.6510   59.6680 C   0  0  0  0  0  0  0  0  0  0  0  0
  127.4050  122.8310   58.9420 C   0  0  0  0  0  0  0  0  0  0  0  0
  128.6910  122.5860   59.4160 C   0  0  0  0  0  0  0  0  0  0  0  0
  129.7462  124.1899   65.1323 H   0  0  0  0  0  0  0  0  0  0  0  0
  131.2313  123.2548   65.7249 H   0  0  0  0  0  0  0  0  0  0  0  0
  131.8346  125.5422   65.8249 H   0  0  0  0  0  0  0  0  0  0  0  0
  130.2040  126.6610   64.4120 H   0  0  0  0  0  0  0  0  0  0  0  0
  131.5892  128.9522   61.6220 H   0  0  0  0  0  0  0  0  0  0  0  0
  131.4828  127.6378   60.3954 H   0  0  0  0  0  0  0  0  0  0  0  0
  129.1835  128.0737   60.0480 H   0  0  0  0  0  0  0  0  0  0  0  0
  128.2079  128.2487   62.9039 H   0  0  0  0  0  0  0  0  0  0  0  0
  126.9560  129.9160   64.2758 H   0  0  0  0  0  0  0  0  0  0  0  0
  126.9340  132.3194   63.6115 H   0  0  0  0  0  0  0  0  0  0  0  0
  128.1640  133.0635   61.5684 H   0  0  0  0  0  0  0  0  0  0  0  0
  129.5556  133.3365   59.3874 H   0  0  0  0  0  0  0  0  0  0  0  0
  130.9453  133.1041   57.3237 H   0  0  0  0  0  0  0  0  0  0  0  0
  131.8274  130.8674   56.6571 H   0  0  0  0  0  0  0  0  0  0  0  0
  131.3233  128.8583   58.0491 H   0  0  0  0  0  0  0  0  0  0  0  0
  130.4470  124.4980   62.4650 H   0  0  0  0  0  0  0  0  0  0  0  0
  130.1773  124.1224   58.6878 H   0  0  0  0  0  0  0  0  0  0  0  0
  131.8363  125.2107   57.1903 H   0  0  0  0  0  0  0  0  0  0  0  0
  134.2408  125.2671   57.8337 H   0  0  0  0  0  0  0  0  0  0  0  0
  134.9946  124.2314   59.9684 H   0  0  0  0  0  0  0  0  0  0  0  0
  133.3409  123.1401   61.4718 H   0  0  0  0  0  0  0  0  0  0  0  0
  129.0267  120.6535   61.6937 H   0  0  0  0  0  0  0  0  0  0  0  0
  129.6542  118.2481   61.6459 H   0  0  0  0  0  0  0  0  0  0  0  0
  131.9670  117.5807   61.0075 H   0  0  0  0  0  0  0  0  0  0  0  0
  133.6535  119.3131   60.4128 H   0  0  0  0  0  0  0  0  0  0  0  0
  133.0324  121.7197   60.4622 H   0  0  0  0  0  0  0  0  0  0  0  0
  128.5908  124.4603   62.2647 H   0  0  0  0  0  0  0  0  0  0  0  0
  126.2912  124.8872   61.4247 H   0  0  0  0  0  0  0  0  0  0  0  0
  125.5291  123.8398   59.2989 H   0  0  0  0  0  0  0  0  0  0  0  0
  127.0685  122.3781   57.9977 H   0  0  0  0  0  0  0  0  0  0  0  0
  129.3695  121.9451   58.8340 H   0  0  0  0  0  0  0  0  0  0  0  0
  1  2  2  0
  2  3  1  0
  3  4  1  0
  4  5  1  0
  5  6  1  0
  6  7  2  0
  6  8  1  0
  8  9  1  0
  9 10  1  0
 10 11  1  0
 11 12  2  0
 12 13  1  0
 13 14  2  0
 14 15  1  0
 15 16  2  0
 16 17  1  0
 17 18  2  0
 18 19  1  0
 19 20  2  0
 20 21  1  0
 21 22  2  0
  4 23  1  0
 23 24  2  0
 23 25  1  0
  2 26  1  0
 26 27  1  0
 27 28  1  0
 28 29  2  0
 29 30  1  0
 30 31  2  0
 31 32  1  0
 32 33  2  0
 27 34  1  0
 34 35  2  0
 35 36  1  0
 36 37  2  0
 37 38  1  0
 38 39  2  0
 27 40  1  0
 40 41  2  0
 41 42  1  0
 42 43  2  0
 43 44  1  0
 44 45  2  0
 22 10  1  0
 33 28  1  0
 39 34  1  0
 45 40  1  0
 16 11  1  0
 22 17  1  0
  3 46  1  0
  3 47  1  0
  4 48  1  1
  5 49  1  0
  9 50  1  0
  9 51  1  0
 10 52  1  0
 12 53  1  0
 13 54  1  0
 14 55  1  0
 15 56  1  0
 18 57  1  0
 19 58  1  0
 20 59  1  0
 21 60  1  0
 26 61  1  0
 29 62  1  0
 30 63  1  0
 31 64  1  0
 32 65  1  0
 33 66  1  0
 35 67  1  0
 36 68  1  0
 37 69  1  0
 38 70  1  0
 39 71  1  0
 41 72  1  0
 42 73  1  0
 43 74  1  0
 44 75  1  0
 45 76  1  0
M  CHG  1  25  -1
M  END
>  <Binding energies>  (1) 
[-10.12]

>  <Ligand effiencies>  (1) 
[-0.21531914893617018]

>  <Interactions>  (1) 
["V-A:PRO:540:CA:4881, V-A:PRO:540:N:4882, V-A:TYR:539:C:4865, V-B:TYR:539:CE1:9847, V-B:TYR:539:C:9839, V-B:PRO:540:N:9856, V-A:ILE:369:CD1:3236, V-B:PRO:540:CA:9855, V-A:LEU:475:CD2:4256, V-B:TYR:539:CD1:9845, V-A:GLY:454:CA:4046, H-B:GLU:543:OE1:9881, V-A:ASP:366:CG:3210, V-A:ILE:369:CG2:3234, H-B:GLU:543:OE2:9882, V-B:GLU:543:CD:9880, H-A:ARG:545:NH2:4926, V-B:GLU:543:CB:9878, H-A:GLU:543:OE2:4908, V-A:ASP:366:CA:3207, V-A:ASP:366:CB:3209, V-A:TYR:484:CE2:4343, V-A:TYR:484:CZ:4344, V-A:GLU:543:CD:4906, V-A:ILE:369:CB:3233, V-A:ARG:545:CZ:4924, H-A:GLY:454:N:4047, V-B:PRO:540:CB:9857, V-B:ALA:541:CB:9864, V-B:TYR:539:CZ:9849, V-A:ASP:366:C:3205, H-A:ARG:545:NH1:4925, H-A:TYR:484:OH:4345, H-A:ARG:545:NE:4922, V-A:LEU:373:CD1:3277, V-A:PRO:482:CB:4323, V-A:PRO:482:CG:4324"]

$$$$
RR6_Rahimova_2017
     RDKit          3D

 63 66  0  0  0  0  0  0  0  0999 V2000
  132.9490  131.4780   58.2080 C   0  0  0  0  0  0  0  0  0  0  0  0
  131.8510  132.0790   58.8810 O   0  0  0  0  0  0  0  0  0  0  0  0
  131.2930  131.4910   59.9710 C   0  0  0  0  0  0  0  0  0  0  0  0
  131.4560  131.9040   61.1240 O   0  0  0  0  0  0  0  0  0  0  0  0
  130.4570  130.2900   59.6350 C   0  0  0  0  0  0  0  0  0  0  0  0
  129.2740  130.3920   58.8890 C   0  0  0  0  0  0  0  0  0  0  0  0
  128.5170  129.2590   58.6010 C   0  0  0  0  0  0  0  0  0  0  0  0
  128.9310  128.0000   59.0600 C   0  0  0  0  0  0  0  0  0  0  0  0
  128.2290  126.7980   58.8510 N   0  0  0  0  0  0  0  0  0  0  0  0
  126.9310  126.6110   58.5240 C   0  0  0  0  0  0  0  0  0  0  0  0
  126.1070  127.5050   58.3340 O   0  0  0  0  0  0  0  0  0  0  0  0
  126.4710  125.1510   58.4520 C   0  0  0  0  0  0  0  0  0  0  0  0
  126.7980  124.2030   59.9760 S   0  0  0  0  0  0  0  0  0  0  0  0
  127.6310  125.3070   61.0980 C   0  0  0  0  0  0  0  0  0  0  0  0
  127.0020  126.4920   61.2850 N   0  0  0  0  0  0  0  0  0  0  0  0
  127.5260  127.4050   62.1410 C   0  0  0  0  0  0  0  0  0  0  0  0
  126.7360  128.6650   62.3380 C   0  0  0  0  0  0  0  0  0  0  0  0
  126.6180  129.2540   63.6070 C   0  0  0  0  0  0  0  0  0  0  0  0
  125.8740  130.4160   63.7910 C   0  0  0  0  0  0  0  0  0  0  0  0
  125.2370  131.0160   62.7060 C   0  0  0  0  0  0  0  0  0  0  0  0
  124.4190  132.2780   62.9140 C   0  0  0  0  0  0  0  0  0  0  0  0
  125.3420  130.4490   61.4390 C   0  0  0  0  0  0  0  0  0  0  0  0
  126.0880  129.2880   61.2600 C   0  0  0  0  0  0  0  0  0  0  0  0
  128.7170  127.1420   62.8250 C   0  0  0  0  0  0  0  0  0  0  0  0
  129.3900  125.9250   62.6460 C   0  0  0  0  0  0  0  0  0  0  0  0
  130.6460  125.7030   63.4210 C   0  0  0  0  0  0  0  0  0  0  0  0
  131.8580  125.5040   62.7530 C   0  0  0  0  0  0  0  0  0  0  0  0
  133.0370  125.3120   63.4690 C   0  0  0  0  0  0  0  0  0  0  0  0
  133.0290  125.3210   64.8620 C   0  0  0  0  0  0  0  0  0  0  0  0
  134.2460  125.1250   65.4880 O   0  0  0  0  0  0  0  0  0  0  0  0
  134.3040  125.1350   66.9100 C   0  0  0  0  0  0  0  0  0  0  0  0
  131.8170  125.5270   65.5380 C   0  0  0  0  0  0  0  0  0  0  0  0
  130.6390  125.7190   64.8190 C   0  0  0  0  0  0  0  0  0  0  0  0
  128.8360  124.9770   61.7500 C   0  0  0  0  0  0  0  0  0  0  0  0
  129.5030  123.6960   61.4940 C   0  0  0  0  0  0  0  0  0  0  0  0
  130.0290  122.6850   61.2940 N   0  0  0  0  0  0  0  0  0  0  0  0
  130.1160  127.8920   59.7880 C   0  0  0  0  0  0  0  0  0  0  0  0
  130.8710  129.0260   60.0780 C   0  0  0  0  0  0  0  0  0  0  0  0
  133.6631  131.0871   58.9478 H   0  0  0  0  0  0  0  0  0  0  0  0
  132.5857  130.6530   57.5776 H   0  0  0  0  0  0  0  0  0  0  0  0
  133.4481  132.2287   57.5776 H   0  0  0  0  0  0  0  0  0  0  0  0
  128.9408  131.3761   58.5279 H   0  0  0  0  0  0  0  0  0  0  0  0
  127.5924  129.3517   58.0123 H   0  0  0  0  0  0  0  0  0  0  0  0
  128.7600  125.9650   59.0580 H   0  0  0  0  0  0  0  0  0  0  0  0
  125.3880  125.1372   58.2601 H   0  0  0  0  0  0  0  0  0  0  0  0
  127.0462  124.6721   57.6459 H   0  0  0  0  0  0  0  0  0  0  0  0
  127.1209  128.7904   64.4685 H   0  0  0  0  0  0  0  0  0  0  0  0
  125.7887  130.8611   64.7933 H   0  0  0  0  0  0  0  0  0  0  0  0
  124.2987  132.4636   63.9915 H   0  0  0  0  0  0  0  0  0  0  0  0
  124.9365  133.1309   62.4506 H   0  0  0  0  0  0  0  0  0  0  0  0
  123.4291  132.1539   62.4506 H   0  0  0  0  0  0  0  0  0  0  0  0
  124.8366  130.9174   60.5816 H   0  0  0  0  0  0  0  0  0  0  0  0
  126.1715  128.8501   60.2544 H   0  0  0  0  0  0  0  0  0  0  0  0
  129.1299  127.8971   63.5101 H   0  0  0  0  0  0  0  0  0  0  0  0
  131.8805  125.4990   61.6532 H   0  0  0  0  0  0  0  0  0  0  0  0
  133.9825  125.1519   62.9301 H   0  0  0  0  0  0  0  0  0  0  0  0
  133.2978  124.9615   67.3192 H   0  0  0  0  0  0  0  0  0  0  0  0
  134.9821  124.3405   67.2549 H   0  0  0  0  0  0  0  0  0  0  0  0
  134.6769  126.1107   67.2549 H   0  0  0  0  0  0  0  0  0  0  0  0
  131.7967  125.5370   66.6378 H   0  0  0  0  0  0  0  0  0  0  0  0
  129.6939  125.8849   65.3568 H   0  0  0  0  0  0  0  0  0  0  0  0
  130.4563  126.9052   60.1352 H   0  0  0  0  0  0  0  0  0  0  0  0
  131.7997  128.9290   60.6594 H   0  0  0  0  0  0  0  0  0  0  0  0
  1  2  1  0
  2  3  1  0
  3  4  2  0
  3  5  1  0
  5  6  2  0
  6  7  1  0
  7  8  2  0
  8  9  1  0
  9 10  1  0
 10 11  2  0
 10 12  1  0
 12 13  1  0
 13 14  1  0
 14 15  2  0
 15 16  1  0
 16 17  1  0
 17 18  2  0
 18 19  1  0
 19 20  2  0
 20 21  1  0
 20 22  1  0
 22 23  2  0
 16 24  2  0
 24 25  1  0
 25 26  1  0
 26 27  2  0
 27 28  1  0
 28 29  2  0
 29 30  1  0
 30 31  1  0
 29 32  1  0
 32 33  2  0
 25 34  2  0
 34 35  1  0
 35 36  3  0
  8 37  1  0
 37 38  2  0
 38  5  1  0
 34 14  1  0
 23 17  1  0
 33 26  1  0
  1 39  1  0
  1 40  1  0
  1 41  1  0
  6 42  1  0
  7 43  1  0
  9 44  1  0
 12 45  1  0
 12 46  1  0
 18 47  1  0
 19 48  1  0
 21 49  1  0
 21 50  1  0
 21 51  1  0
 22 52  1  0
 23 53  1  0
 24 54  1  0
 27 55  1  0
 28 56  1  0
 31 57  1  0
 31 58  1  0
 31 59  1  0
 32 60  1  0
 33 61  1  0
 37 62  1  0
 38 63  1  0
M  END
>  <Binding energies>  (1) 
[-6.64]

>  <Ligand effiencies>  (1) 
[-0.17025641025641025]

>  <Interactions>  (1) 
["V-B:GLY:454:CA:9020, V-B:ASP:366:CG:8184, V-A:PRO:540:CB:4883, H-A:ALA:541:N:4889, V-A:PRO:540:CA:4881, V-A:GLY:454:CA:4046, V-A:ASP:366:CG:3210, H-B:ARG:545:NH2:9900, V-B:GLU:543:CD:9880, V-A:HIS:456:CE1:4066, V-A:TYR:484:CZ:4344, V-B:ARG:545:CZ:9898, V-A:ARG:545:CZ:4924, V-A:ARG:545:CG:4920, H-A:GLY:454:N:4047, V-A:ARG:545:CD:4921, H-A:TYR:484:OH:4345, H-A:ARG:545:NE:4922, V-A:ARG:545:CB:4919, H-B:TYR:531:OH:9767, V-A:GLY:454:C:4044, V-A:ILE:455:C:4049"]

$$$$
RR7_Rahimova_2017
     RDKit          3D

 80 86  0  0  0  0  0  0  0  0999 V2000
  124.5290  135.3560   61.0650 C   0  0  0  0  0  0  0  0  0  0  0  0
  125.6070  135.0130   61.9290 O   0  0  0  0  0  0  0  0  0  0  0  0
  126.4700  133.9990   61.5590 C   0  0  0  0  0  0  0  0  0  0  0  0
  125.8880  132.8510   61.0230 C   0  0  0  0  0  0  0  0  0  0  0  0
  126.6770  131.7800   60.6170 C   0  0  0  0  0  0  0  0  0  0  0  0
  128.0730  131.8260   60.7500 C   0  0  0  0  0  0  0  0  0  0  0  0
  128.9840  130.6520   60.2720 C   0  0  0  0  0  0  0  0  0  0  0  0
  128.7110  130.4720   58.8640 O   0  0  0  0  0  0  0  0  0  0  0  0
  129.1470  129.2840   58.1960 C   0  0  0  0  0  0  0  0  0  0  0  0
  127.9380  128.6180   57.5190 C   0  0  1  0  0  0  0  0  0  0  0  0
  128.2620  127.2390   57.3610 O   0  0  0  0  0  0  0  0  0  0  0  0
  127.3450  126.4080   58.0130 C   0  0  1  0  0  0  0  0  0  0  0  0
  128.0130  125.2200   58.5090 N   0  0  0  0  0  0  0  0  0  0  0  0
  128.9610  124.4440   57.8660 C   0  0  0  0  0  0  0  0  0  0  0  0
  129.3680  123.3910   58.5300 N   0  0  0  0  0  0  0  0  0  0  0  0
  128.6220  123.4190   59.6770 C   0  0  0  0  0  0  0  0  0  0  0  0
  128.5740  122.5600   60.7920 C   0  0  0  0  0  0  0  0  0  0  0  0
  129.4290  121.4430   60.8210 N   0  0  0  0  0  0  0  0  0  0  0  0
  130.7630  121.3960   61.0540 C   0  0  0  0  0  0  0  0  0  0  0  0
  131.4650  122.3860   61.2690 O   0  0  0  0  0  0  0  0  0  0  0  0
  131.3880  120.0180   61.0050 C   0  0  0  0  0  0  0  0  0  0  0  0
  132.7460  119.8830   60.6760 C   0  0  0  0  0  0  0  0  0  0  0  0
  133.3420  118.6270   60.6310 C   0  0  0  0  0  0  0  0  0  0  0  0
  132.5880  117.4940   60.9180 C   0  0  0  0  0  0  0  0  0  0  0  0
  131.2400  117.6060   61.2500 C   0  0  0  0  0  0  0  0  0  0  0  0
  130.6420  118.8630   61.2950 C   0  0  0  0  0  0  0  0  0  0  0  0
  127.6990  122.8320   61.8070 N   0  0  0  0  0  0  0  0  0  0  0  0
  126.9110  123.9320   61.6870 C   0  0  0  0  0  0  0  0  0  0  0  0
  126.8780  124.8260   60.6620 N   0  0  0  0  0  0  0  0  0  0  0  0
  127.7490  124.5370   59.6860 C   0  0  0  0  0  0  0  0  0  0  0  0
  126.7040  127.2810   59.0850 C   0  0  0  0  0  0  0  0  0  0  0  0
  126.6490  128.6110   58.3540 C   0  0  2  0  0  0  0  0  0  0  0  0
  125.4860  128.7300   57.5530 O   0  0  0  0  0  0  0  0  0  0  0  0
  130.4940  130.9870   60.4020 C   0  0  0  0  0  0  0  0  0  0  0  0
  131.0870  131.1060   61.6690 C   0  0  0  0  0  0  0  0  0  0  0  0
  132.4360  131.4190   61.7970 C   0  0  0  0  0  0  0  0  0  0  0  0
  133.2080  131.6190   60.6570 C   0  0  0  0  0  0  0  0  0  0  0  0
  132.6410  131.5070   59.3910 C   0  0  0  0  0  0  0  0  0  0  0  0
  131.2910  131.1950   59.2640 C   0  0  0  0  0  0  0  0  0  0  0  0
  128.7910  129.3000   61.0150 C   0  0  0  0  0  0  0  0  0  0  0  0
  127.6250  129.0590   61.7600 C   0  0  0  0  0  0  0  0  0  0  0  0
  127.4480  127.8560   62.4360 C   0  0  0  0  0  0  0  0  0  0  0  0
  128.4410  126.8820   62.3820 C   0  0  0  0  0  0  0  0  0  0  0  0
  129.6100  127.1050   61.6620 C   0  0  0  0  0  0  0  0  0  0  0  0
  129.7860  128.3090   60.9860 C   0  0  0  0  0  0  0  0  0  0  0  0
  128.6540  132.9880   61.2770 C   0  0  0  0  0  0  0  0  0  0  0  0
  127.8650  134.0610   61.6820 C   0  0  0  0  0  0  0  0  0  0  0  0
  123.6515  135.6352   61.6666 H   0  0  0  0  0  0  0  0  0  0  0  0
  124.8236  136.2048   60.4303 H   0  0  0  0  0  0  0  0  0  0  0  0
  124.2789  134.4931   60.4303 H   0  0  0  0  0  0  0  0  0  0  0  0
  124.7944  132.7918   60.9202 H   0  0  0  0  0  0  0  0  0  0  0  0
  126.2011  130.8865   60.1866 H   0  0  0  0  0  0  0  0  0  0  0  0
  129.8988  129.5431   57.4360 H   0  0  0  0  0  0  0  0  0  0  0  0
  129.5936  128.5909   58.9241 H   0  0  0  0  0  0  0  0  0  0  0  0
  127.7536  129.1875   56.5961 H   0  0  0  0  0  0  0  0  0  0  0  0
  126.5561  126.0134   57.3558 H   0  0  0  0  0  0  0  0  0  0  0  0
  129.3461  124.6941   56.8664 H   0  0  0  0  0  0  0  0  0  0  0  0
  128.9720  120.5610   60.6380 H   0  0  0  0  0  0  0  0  0  0  0  0
  133.3442  120.7785   60.4518 H   0  0  0  0  0  0  0  0  0  0  0  0
  134.4060  118.5301   60.3693 H   0  0  0  0  0  0  0  0  0  0  0  0
  133.0603  116.5012   60.8825 H   0  0  0  0  0  0  0  0  0  0  0  0
  130.6501  116.7054   61.4757 H   0  0  0  0  0  0  0  0  0  0  0  0
  129.5780  118.9523   61.5595 H   0  0  0  0  0  0  0  0  0  0  0  0
  126.2163  124.1228   62.5182 H   0  0  0  0  0  0  0  0  0  0  0  0
  125.6995  126.9229   59.3547 H   0  0  0  0  0  0  0  0  0  0  0  0
  127.2433  127.3041   60.0434 H   0  0  0  0  0  0  0  0  0  0  0  0
  126.5892  129.4699   59.0386 H   0  0  0  0  0  0  0  0  0  0  0  0
  125.0350  127.8820   57.5410 H   0  0  0  0  0  0  0  0  0  0  0  0
  130.4774  130.9498   62.5712 H   0  0  0  0  0  0  0  0  0  0  0  0
  132.8904  131.5080   62.7948 H   0  0  0  0  0  0  0  0  0  0  0  0
  134.2749  131.8676   60.7571 H   0  0  0  0  0  0  0  0  0  0  0  0
  133.2579  131.6646   58.4940 H   0  0  0  0  0  0  0  0  0  0  0  0
  130.8434  131.1104   58.2627 H   0  0  0  0  0  0  0  0  0  0  0  0
  126.8425  129.8305   61.8096 H   0  0  0  0  0  0  0  0  0  0  0  0
  126.5275  127.6753   63.0106 H   0  0  0  0  0  0  0  0  0  0  0  0
  128.3002  125.9288   62.9127 H   0  0  0  0  0  0  0  0  0  0  0  0
  130.3925  126.3327   61.6269 H   0  0  0  0  0  0  0  0  0  0  0  0
  130.7143  128.4863   60.4230 H   0  0  0  0  0  0  0  0  0  0  0  0
  129.7480  133.0527   61.3717 H   0  0  0  0  0  0  0  0  0  0  0  0
  128.3383  134.9615   62.1004 H   0  0  0  0  0  0  0  0  0  0  0  0
  1  2  1  0
  2  3  1  0
  3  4  2  0
  4  5  1  0
  5  6  2  0
  6  7  1  0
  7  8  1  0
  8  9  1  0
  9 10  1  0
 10 11  1  0
 11 12  1  0
 12 13  1  0
 13 14  1  0
 14 15  2  0
 15 16  1  0
 16 17  2  0
 17 18  1  0
 18 19  1  0
 19 20  2  0
 19 21  1  0
 21 22  2  0
 22 23  1  0
 23 24  2  0
 24 25  1  0
 25 26  2  0
 17 27  1  0
 27 28  2  0
 28 29  1  0
 29 30  2  0
 12 31  1  0
 31 32  1  0
 32 33  1  0
  7 34  1  0
 34 35  2  0
 35 36  1  0
 36 37  2  0
 37 38  1  0
 38 39  2  0
  7 40  1  0
 40 41  2  0
 41 42  1  0
 42 43  2  0
 43 44  1  0
 44 45  2  0
  6 46  1  0
 46 47  2  0
 47  3  1  0
 32 10  1  0
 39 34  1  0
 45 40  1  0
 30 13  1  0
 30 16  1  0
 26 21  1  0
  1 48  1  0
  1 49  1  0
  1 50  1  0
  4 51  1  0
  5 52  1  0
  9 53  1  0
  9 54  1  0
 10 55  1  6
 12 56  1  6
 14 57  1  0
 18 58  1  0
 22 59  1  0
 23 60  1  0
 24 61  1  0
 25 62  1  0
 26 63  1  0
 28 64  1  0
 31 65  1  0
 31 66  1  0
 32 67  1  1
 33 68  1  0
 35 69  1  0
 36 70  1  0
 37 71  1  0
 38 72  1  0
 39 73  1  0
 41 74  1  0
 42 75  1  0
 43 76  1  0
 44 77  1  0
 45 78  1  0
 46 79  1  0
 47 80  1  0
M  END
>  <Binding energies>  (1) 
[-9.84]

>  <Ligand effiencies>  (1) 
[-0.20081632653061224]

>  <Interactions>  (1) 
["V-B:LEU:475:CD2:9230, V-B:ILE:369:CG2:8208, V-A:TYR:539:CE1:4873, V-A:TYR:539:CD1:4871, V-B:ASP:366:CG:8184, V-A:PRO:540:CB:4883, V-A:PRO:540:CA:4881, V-A:ALA:541:CB:4890, V-B:TYR:539:CE1:9847, V-B:TYR:539:C:9839, H-B:ALA:541:N:9863, V-B:PRO:540:CA:9855, V-A:LEU:475:CD2:4256, V-B:TYR:539:CD1:9845, V-A:ASP:366:CG:3210, V-A:ILE:369:CG2:3234, V-B:GLU:543:CD:9880, V-A:GLU:543:CD:4906, V-A:SER:385:CA:3404, V-B:ALA:541:CB:9864, V-A:SER:385:CB:3406, V-A:LEU:373:CD1:3277, V-B:SER:385:CA:8378, V-B:LEU:373:CD1:8251, V-A:PRO:482:CB:4323, H-B:TYR:539:O:9840, V-A:PRO:482:CG:4324, H-B:TYR:531:OH:9767, V-A:ASN:362:CB:3173, H-B:ASP:366:OD2:8186, V-A:ASN:362:C:3169"]

$$$$
RR8_A_Rahimova_2017
     RDKit          3D

 73 77  0  0  0  0  0  0  0  0999 V2000
  128.3730  126.8780   62.8700 O   0  0  0  0  0  0  0  0  0  0  0  0
  128.5790  127.1660   61.6860 C   0  0  0  0  0  0  0  0  0  0  0  0
  129.7110  126.8300   60.9940 O   0  0  0  0  0  0  0  0  0  0  0  0
  129.7270  125.5910   60.3400 C   0  0  1  0  0  0  0  0  0  0  0  0
  129.7010  125.7400   58.9500 O   0  0  0  0  0  0  0  0  0  0  0  0
  130.5280  124.7800   58.2990 C   0  0  2  0  0  0  0  0  0  0  0  0
  129.6720  124.0060   57.2810 C   0  0  0  0  0  0  0  0  0  0  0  0
  129.0740  122.8950   57.9350 O   0  0  0  0  0  0  0  0  0  0  0  0
  127.6530  122.9310   57.9520 C   0  0  0  0  0  0  0  0  0  0  0  0
  127.1610  123.1850   59.3690 C   0  0  0  0  0  0  0  0  0  0  0  0
  128.0170  122.9740   60.4530 C   0  0  0  0  0  0  0  0  0  0  0  0
  127.5700  123.2120   61.7500 C   0  0  0  0  0  0  0  0  0  0  0  0
  126.2680  123.6640   61.9600 C   0  0  0  0  0  0  0  0  0  0  0  0
  125.4100  123.8820   60.8850 C   0  0  0  0  0  0  0  0  0  0  0  0
  125.8570  123.6460   59.5880 C   0  0  0  0  0  0  0  0  0  0  0  0
  131.0970  123.9440   59.4530 C   0  0  1  0  0  0  0  0  0  0  0  0
  132.4600  123.5740   59.2590 O   0  0  0  0  0  0  0  0  0  0  0  0
  133.0890  122.9340   60.3630 C   0  0  0  0  0  0  0  0  0  0  0  0
  132.4680  121.5630   60.5910 C   0  0  0  0  0  0  0  0  0  0  0  0
  133.2040  120.4110   60.3000 C   0  0  0  0  0  0  0  0  0  0  0  0
  132.6390  119.1540   60.4970 C   0  0  0  0  0  0  0  0  0  0  0  0
  131.3360  119.0520   60.9830 C   0  0  0  0  0  0  0  0  0  0  0  0
  130.5930  120.1940   61.2690 C   0  0  0  0  0  0  0  0  0  0  0  0
  131.1580  121.4520   61.0700 C   0  0  0  0  0  0  0  0  0  0  0  0
  131.0520  124.9000   60.6310 C   0  0  2  0  0  0  0  0  0  0  0  0
  131.0660  124.1810   61.8620 O   0  0  0  0  0  0  0  0  0  0  0  0
  130.2580  124.7230   62.9010 C   0  0  0  0  0  0  0  0  0  0  0  0
  131.1280  125.0970   64.0920 C   0  0  0  0  0  0  0  0  0  0  0  0
  130.5390  125.4910   65.2980 C   0  0  0  0  0  0  0  0  0  0  0  0
  131.3400  125.8220   66.3880 C   0  0  0  0  0  0  0  0  0  0  0  0
  132.7260  125.7560   66.2720 C   0  0  0  0  0  0  0  0  0  0  0  0
  133.3210  125.3590   65.0760 C   0  0  0  0  0  0  0  0  0  0  0  0
  132.5210  125.0270   63.9850 C   0  0  0  0  0  0  0  0  0  0  0  0
  127.5910  127.9230   60.8460 C   0  0  0  0  0  0  0  0  0  0  0  0
  126.6530  128.8000   61.4140 C   0  0  0  0  0  0  0  0  0  0  0  0
  125.7490  129.4870   60.6080 C   0  0  0  0  0  0  0  0  0  0  0  0
  125.7560  129.3150   59.2180 C   0  0  0  0  0  0  0  0  0  0  0  0
  124.7940  130.0480   58.3610 N   0  0  0  0  0  0  0  0  0  0  0  0
  124.4830  129.5640   57.2770 O   0  0  0  0  0  0  0  0  0  0  0  0
  124.3390  131.1140   58.7660 O   0  0  0  0  0  0  0  0  0  0  0  0
  126.6900  128.4370   58.6530 C   0  0  0  0  0  0  0  0  0  0  0  0
  127.5950  127.7500   59.4560 C   0  0  0  0  0  0  0  0  0  0  0  0
  128.8487  125.0297   60.6914 H   0  0  0  0  0  0  0  0  0  0  0  0
  131.3597  125.1860   57.7045 H   0  0  0  0  0  0  0  0  0  0  0  0
  128.8877  124.6652   56.8807 H   0  0  0  0  0  0  0  0  0  0  0  0
  130.3040  123.6553   56.4518 H   0  0  0  0  0  0  0  0  0  0  0  0
  127.3002  123.7378   57.2928 H   0  0  0  0  0  0  0  0  0  0  0  0
  127.2609  121.9658   57.5989 H   0  0  0  0  0  0  0  0  0  0  0  0
  129.0442  122.6198   60.2817 H   0  0  0  0  0  0  0  0  0  0  0  0
  128.2412  123.0441   62.6052 H   0  0  0  0  0  0  0  0  0  0  0  0
  125.9149  123.8503   62.9850 H   0  0  0  0  0  0  0  0  0  0  0  0
  124.3843  124.2389   61.0599 H   0  0  0  0  0  0  0  0  0  0  0  0
  125.1855  123.8217   58.7346 H   0  0  0  0  0  0  0  0  0  0  0  0
  130.5292  123.0088   59.5675 H   0  0  0  0  0  0  0  0  0  0  0  0
  134.1626  122.8177   60.1537 H   0  0  0  0  0  0  0  0  0  0  0  0
  132.9499  123.5486   61.2646 H   0  0  0  0  0  0  0  0  0  0  0  0
  134.2307  120.4976   59.9149 H   0  0  0  0  0  0  0  0  0  0  0  0
  133.2173  118.2461   60.2705 H   0  0  0  0  0  0  0  0  0  0  0  0
  130.8906  118.0589   61.1420 H   0  0  0  0  0  0  0  0  0  0  0  0
  129.5651  120.1037   61.6501 H   0  0  0  0  0  0  0  0  0  0  0  0
  130.5741  122.3580   61.2895 H   0  0  0  0  0  0  0  0  0  0  0  0
  131.8991  125.5937   60.7369 H   0  0  0  0  0  0  0  0  0  0  0  0
  129.7413  125.6207   62.5306 H   0  0  0  0  0  0  0  0  0  0  0  0
  129.5187  123.9712   63.2144 H   0  0  0  0  0  0  0  0  0  0  0  0
  129.4435  125.5394   65.3854 H   0  0  0  0  0  0  0  0  0  0  0  0
  130.8796  126.1344   67.3369 H   0  0  0  0  0  0  0  0  0  0  0  0
  133.3576  126.0199   67.1331 H   0  0  0  0  0  0  0  0  0  0  0  0
  134.4167  125.3081   64.9939 H   0  0  0  0  0  0  0  0  0  0  0  0
  132.9847  124.7098   63.0393 H   0  0  0  0  0  0  0  0  0  0  0  0
  126.6322  128.9454   62.5041 H   0  0  0  0  0  0  0  0  0  0  0  0
  125.0216  130.1721   61.0678 H   0  0  0  0  0  0  0  0  0  0  0  0
  126.7081  128.2892   57.5631 H   0  0  0  0  0  0  0  0  0  0  0  0
  128.3209  127.0642   58.9947 H   0  0  0  0  0  0  0  0  0  0  0  0
  1  2  2  0
  2  3  1  0
  3  4  1  0
  4  5  1  0
  5  6  1  0
  6  7  1  0
  7  8  1  0
  8  9  1  0
  9 10  1  0
 10 11  2  0
 11 12  1  0
 12 13  2  0
 13 14  1  0
 14 15  2  0
  6 16  1  0
 16 17  1  0
 17 18  1  0
 18 19  1  0
 19 20  2  0
 20 21  1  0
 21 22  2  0
 22 23  1  0
 23 24  2  0
 16 25  1  0
 25 26  1  0
 26 27  1  0
 27 28  1  0
 28 29  2  0
 29 30  1  0
 30 31  2  0
 31 32  1  0
 32 33  2  0
  2 34  1  0
 34 35  2  0
 35 36  1  0
 36 37  2  0
 37 38  1  0
 38 39  2  0
 38 40  1  0
 37 41  1  0
 41 42  2  0
 25  4  1  0
 33 28  1  0
 42 34  1  0
 15 10  1  0
 24 19  1  0
  4 43  1  1
  6 44  1  6
  7 45  1  0
  7 46  1  0
  9 47  1  0
  9 48  1  0
 11 49  1  0
 12 50  1  0
 13 51  1  0
 14 52  1  0
 15 53  1  0
 16 54  1  1
 18 55  1  0
 18 56  1  0
 20 57  1  0
 21 58  1  0
 22 59  1  0
 23 60  1  0
 24 61  1  0
 25 62  1  1
 27 63  1  0
 27 64  1  0
 29 65  1  0
 30 66  1  0
 31 67  1  0
 32 68  1  0
 33 69  1  0
 35 70  1  0
 36 71  1  0
 41 72  1  0
 42 73  1  0
M  CHG  2  38   1  40  -1
M  END
>  <Binding energies>  (1) 
[-8.11]

>  <Ligand effiencies>  (1) 
[-0.19309523809523807]

>  <Interactions>  (1) 
["V-B:ASP:366:CB:8183, H-A:TYR:539:OH:4876, V-B:ASP:366:CG:8184, V-B:TYR:539:CE1:9847, V-B:TYR:539:C:9839, V-B:PRO:540:N:9856, V-B:PRO:540:CA:9855, V-A:LEU:475:CD2:4256, V-B:TYR:539:CD1:9845, V-A:ILE:369:CG2:3234, V-B:GLU:543:CD:9880, V-B:GLU:543:CB:9878, V-A:HIS:456:CE1:4066, V-B:ASP:366:CA:8181, V-A:ARG:545:CZ:4924, V-A:ARG:545:CG:4920, V-A:SER:385:CA:3404, V-A:ARG:545:CD:4921, V-B:PRO:540:CB:9857, V-B:ALA:541:CB:9864, V-B:TYR:539:CZ:9849, H-B:TYR:539:OH:9850, V-A:LEU:373:CD1:3277, H-B:TYR:531:OH:9767"]

$$$$
RR8_B_Rahimova_2017
     RDKit          3D

 73 77  0  0  0  0  0  0  0  0999 V2000
  130.6880  128.7530   61.3070 O   0  0  0  0  0  0  0  0  0  0  0  0
  129.7080  128.0150   61.4450 C   0  0  0  0  0  0  0  0  0  0  0  0
  129.6660  126.7040   61.0550 O   0  0  0  0  0  0  0  0  0  0  0  0
  129.0360  125.7780   61.9060 C   0  0  2  0  0  0  0  0  0  0  0  0
  129.6200  125.7570   63.1780 O   0  0  0  0  0  0  0  0  0  0  0  0
  130.6570  124.7810   63.2600 C   0  0  2  0  0  0  0  0  0  0  0  0
  131.9770  125.4660   63.6570 C   0  0  0  0  0  0  0  0  0  0  0  0
  131.8750  125.9380   64.9950 O   0  0  0  0  0  0  0  0  0  0  0  0
  130.8090  125.3780   65.7470 C   0  0  0  0  0  0  0  0  0  0  0  0
  130.5590  126.2360   66.9780 C   0  0  0  0  0  0  0  0  0  0  0  0
  131.5280  127.1570   67.3900 C   0  0  0  0  0  0  0  0  0  0  0  0
  131.3160  127.9280   68.5300 C   0  0  0  0  0  0  0  0  0  0  0  0
  130.1350  127.7780   69.2530 C   0  0  0  0  0  0  0  0  0  0  0  0
  129.1630  126.8670   68.8450 C   0  0  0  0  0  0  0  0  0  0  0  0
  129.3750  126.0930   67.7070 C   0  0  0  0  0  0  0  0  0  0  0  0
  130.6530  124.1050   61.8840 C   0  0  1  0  0  0  0  0  0  0  0  0
  130.9590  122.7150   62.0240 O   0  0  0  0  0  0  0  0  0  0  0  0
  131.9180  122.1660   61.1180 C   0  0  0  0  0  0  0  0  0  0  0  0
  131.8190  120.6460   61.0220 C   0  0  0  0  0  0  0  0  0  0  0  0
  130.6160  120.0020   61.3250 C   0  0  0  0  0  0  0  0  0  0  0  0
  130.5190  118.6180   61.2050 C   0  0  0  0  0  0  0  0  0  0  0  0
  131.6270  117.8830   60.7880 C   0  0  0  0  0  0  0  0  0  0  0  0
  132.8300  118.5180   60.4880 C   0  0  0  0  0  0  0  0  0  0  0  0
  132.9260  119.9030   60.6050 C   0  0  0  0  0  0  0  0  0  0  0  0
  129.2440  124.3650   61.3630 C   0  0  2  0  0  0  0  0  0  0  0  0
  129.2170  124.2860   59.9400 O   0  0  0  0  0  0  0  0  0  0  0  0
  128.7410  123.0620   59.4020 C   0  0  0  0  0  0  0  0  0  0  0  0
  127.2870  123.2500   59.0050 C   0  0  0  0  0  0  0  0  0  0  0  0
  126.3190  123.5130   59.9780 C   0  0  0  0  0  0  0  0  0  0  0  0
  124.9850  123.6650   59.6050 C   0  0  0  0  0  0  0  0  0  0  0  0
  124.6260  123.5530   58.2640 C   0  0  0  0  0  0  0  0  0  0  0  0
  125.5870  123.2920   57.2890 C   0  0  0  0  0  0  0  0  0  0  0  0
  126.9200  123.1410   57.6610 C   0  0  0  0  0  0  0  0  0  0  0  0
  128.4060  128.4790   62.0320 C   0  0  0  0  0  0  0  0  0  0  0  0
  127.3030  128.7970   61.2260 C   0  0  0  0  0  0  0  0  0  0  0  0
  126.1120  129.2330   61.7970 C   0  0  0  0  0  0  0  0  0  0  0  0
  125.9960  129.3720   63.1860 C   0  0  0  0  0  0  0  0  0  0  0  0
  124.7340  129.8620   63.7910 N   0  0  0  0  0  0  0  0  0  0  0  0
  124.5270  129.6410   64.9810 O   0  0  0  0  0  0  0  0  0  0  0  0
  123.9410  130.4780   63.0820 O   0  0  0  0  0  0  0  0  0  0  0  0
  127.0960  129.0480   63.9910 C   0  0  0  0  0  0  0  0  0  0  0  0
  128.2850  128.6050   63.4210 C   0  0  0  0  0  0  0  0  0  0  0  0
  127.9783  126.0753   61.9606 H   0  0  0  0  0  0  0  0  0  0  0  0
  130.5145  124.0146   64.0361 H   0  0  0  0  0  0  0  0  0  0  0  0
  132.8031  124.7433   63.5838 H   0  0  0  0  0  0  0  0  0  0  0  0
  132.1727  126.3113   62.9808 H   0  0  0  0  0  0  0  0  0  0  0  0
  129.8994  125.3475   65.1291 H   0  0  0  0  0  0  0  0  0  0  0  0
  131.0729  124.3560   66.0568 H   0  0  0  0  0  0  0  0  0  0  0  0
  132.4576  127.2722   66.8133 H   0  0  0  0  0  0  0  0  0  0  0  0
  132.0770  128.6515   68.8577 H   0  0  0  0  0  0  0  0  0  0  0  0
  129.9680  128.3849   70.1551 H   0  0  0  0  0  0  0  0  0  0  0  0
  128.2313  126.7595   69.4199 H   0  0  0  0  0  0  0  0  0  0  0  0
  128.6120  125.3703   67.3823 H   0  0  0  0  0  0  0  0  0  0  0  0
  131.4098  124.4905   61.1849 H   0  0  0  0  0  0  0  0  0  0  0  0
  131.7480  122.5955   60.1197 H   0  0  0  0  0  0  0  0  0  0  0  0
  132.9203  122.4151   61.4967 H   0  0  0  0  0  0  0  0  0  0  0  0
  129.7466  120.5879   61.6580 H   0  0  0  0  0  0  0  0  0  0  0  0
  129.5728  118.1077   61.4381 H   0  0  0  0  0  0  0  0  0  0  0  0
  131.5509  116.7896   60.6947 H   0  0  0  0  0  0  0  0  0  0  0  0
  133.6995  117.9291   60.1605 H   0  0  0  0  0  0  0  0  0  0  0  0
  133.8727  120.4110   60.3692 H   0  0  0  0  0  0  0  0  0  0  0  0
  128.4620  123.6545   61.6692 H   0  0  0  0  0  0  0  0  0  0  0  0
  129.3356  122.7878   58.5181 H   0  0  0  0  0  0  0  0  0  0  0  0
  128.8296  122.2594   60.1490 H   0  0  0  0  0  0  0  0  0  0  0  0
  126.6093  123.5998   61.0354 H   0  0  0  0  0  0  0  0  0  0  0  0
  124.2188  123.8726   60.3664 H   0  0  0  0  0  0  0  0  0  0  0  0
  123.5724  123.6719   57.9712 H   0  0  0  0  0  0  0  0  0  0  0  0
  125.2941  123.2059   56.2322 H   0  0  0  0  0  0  0  0  0  0  0  0
  127.6844  122.9359   56.8970 H   0  0  0  0  0  0  0  0  0  0  0  0
  127.3806  128.7008   60.1330 H   0  0  0  0  0  0  0  0  0  0  0  0
  125.2533  129.4708   61.1519 H   0  0  0  0  0  0  0  0  0  0  0  0
  127.0186  129.1449   65.0840 H   0  0  0  0  0  0  0  0  0  0  0  0
  129.1380  128.3514   64.0676 H   0  0  0  0  0  0  0  0  0  0  0  0
  1  2  2  0
  2  3  1  0
  3  4  1  0
  4  5  1  0
  5  6  1  0
  6  7  1  0
  7  8  1  0
  8  9  1  0
  9 10  1  0
 10 11  2  0
 11 12  1  0
 12 13  2  0
 13 14  1  0
 14 15  2  0
  6 16  1  0
 16 17  1  0
 17 18  1  0
 18 19  1  0
 19 20  2  0
 20 21  1  0
 21 22  2  0
 22 23  1  0
 23 24  2  0
 16 25  1  0
 25 26  1  0
 26 27  1  0
 27 28  1  0
 28 29  2  0
 29 30  1  0
 30 31  2  0
 31 32  1  0
 32 33  2  0
  2 34  1  0
 34 35  2  0
 35 36  1  0
 36 37  2  0
 37 38  1  0
 38 39  2  0
 38 40  1  0
 37 41  1  0
 41 42  2  0
 25  4  1  0
 33 28  1  0
 42 34  1  0
 15 10  1  0
 24 19  1  0
  4 43  1  1
  6 44  1  1
  7 45  1  0
  7 46  1  0
  9 47  1  0
  9 48  1  0
 11 49  1  0
 12 50  1  0
 13 51  1  0
 14 52  1  0
 15 53  1  0
 16 54  1  6
 18 55  1  0
 18 56  1  0
 20 57  1  0
 21 58  1  0
 22 59  1  0
 23 60  1  0
 24 61  1  0
 25 62  1  1
 27 63  1  0
 27 64  1  0
 29 65  1  0
 30 66  1  0
 31 67  1  0
 32 68  1  0
 33 69  1  0
 35 70  1  0
 36 71  1  0
 41 72  1  0
 42 73  1  0
M  CHG  2  38   1  40  -1
M  END
>  <Binding energies>  (1) 
[-8.68]

>  <Ligand effiencies>  (1) 
[-0.20666666666666667]

>  <Interactions>  (1) 
["V-B:ASP:366:CG:8184, V-B:TYR:539:CE1:9847, V-B:TYR:539:C:9839, V-B:PRO:540:N:9856, V-B:PRO:540:CA:9855, V-A:LEU:475:CD2:4256, V-B:TYR:539:CD1:9845, V-A:GLU:543:CG:4905, H-B:ARG:545:NH2:9900, V-A:ILE:369:CG2:3234, V-B:GLU:543:CD:9880, H-A:ARG:545:NH2:4926, V-B:GLU:543:CB:9878, V-B:GLU:543:CG:9879, V-A:HIS:456:CE1:4066, H-B:GLY:454:N:9021, V-A:GLU:543:CD:4906, V-A:GLU:543:CB:4904, V-B:GLU:543:C:9874, V-B:ARG:545:CZ:9898, V-A:ARG:545:CZ:4924, V-A:ARG:545:CG:4920, V-A:SER:385:CA:3404, V-B:PRO:540:CB:9857, V-B:ALA:541:CB:9864, H-B:ARG:545:NE:9896, V-A:GLY:544:C:4910, H-A:TYR:484:OH:4345, H-A:ARG:545:NE:4922, V-A:SER:385:CB:3406, V-A:LEU:373:CD1:3277, V-A:PRO:482:CB:4323, V-A:PRO:482:CG:4324, H-B:TYR:484:OH:9319, V-A:GLU:543:C:4900"]

$$$$
RR9_Rahimova_2017
     RDKit          3D

 64 68  0  0  0  0  0  0  0  0999 V2000
  127.4420  134.0720   61.7380 C   0  0  0  0  0  0  0  0  0  0  0  0
  128.2850  132.8590   62.1450 C   0  0  0  0  0  0  0  0  0  0  0  0
  128.8550  132.2840   60.9740 O   0  0  0  0  0  0  0  0  0  0  0  0
  129.2110  130.9500   60.9770 C   0  0  0  0  0  0  0  0  0  0  0  0
  130.5750  130.6680   60.9280 C   0  0  0  0  0  0  0  0  0  0  0  0
  131.0280  129.3520   60.9250 C   0  0  0  0  0  0  0  0  0  0  0  0
  130.1270  128.2780   60.9720 C   0  0  0  0  0  0  0  0  0  0  0  0
  130.6090  126.8580   60.9640 C   0  0  0  0  0  0  0  0  0  0  0  0
  129.7920  125.8060   60.5200 C   0  0  0  0  0  0  0  0  0  0  0  0
  130.2540  124.4780   60.5020 C   0  0  0  0  0  0  0  0  0  0  0  0
  129.3680  123.4100   59.9200 C   0  0  0  0  0  0  0  0  0  0  0  0
  128.9000  122.5280   60.6400 O   0  0  0  0  0  0  0  0  0  0  0  0
  129.1590  123.4830   58.5900 N   0  0  0  0  0  0  0  0  0  0  0  0
  128.4460  122.4930   57.7770 C   0  0  0  0  0  0  0  0  0  0  0  0
  127.0840  123.0060   57.2550 C   0  0  0  0  0  0  0  0  0  0  0  0
  126.0410  123.2570   58.3380 C   0  0  0  0  0  0  0  0  0  0  0  0
  124.6910  123.3900   57.9950 C   0  0  0  0  0  0  0  0  0  0  0  0
  123.7370  123.5850   58.9900 C   0  0  0  0  0  0  0  0  0  0  0  0
  124.1350  123.6500   60.3240 C   0  0  0  0  0  0  0  0  0  0  0  0
  125.4780  123.5230   60.6720 C   0  0  0  0  0  0  0  0  0  0  0  0
  126.4330  123.3270   59.6770 C   0  0  0  0  0  0  0  0  0  0  0  0
  131.5670  124.2630   60.9890 C   0  0  0  0  0  0  0  0  0  0  0  0
  132.4750  123.1640   61.2190 C   0  0  0  0  0  0  0  0  0  0  0  0
  132.2480  121.6970   61.0580 C   0  0  0  0  0  0  0  0  0  0  0  0
  133.2440  120.8880   60.5030 C   0  0  0  0  0  0  0  0  0  0  0  0
  133.0250  119.5230   60.3380 C   0  0  0  0  0  0  0  0  0  0  0  0
  131.8100  118.9610   60.7320 C   0  0  0  0  0  0  0  0  0  0  0  0
  131.5630  117.4760   60.5360 C   0  0  0  0  0  0  0  0  0  0  0  0
  130.8120  119.7650   61.2850 C   0  0  0  0  0  0  0  0  0  0  0  0
  131.0340  121.1290   61.4510 C   0  0  0  0  0  0  0  0  0  0  0  0
  133.6340  123.6060   61.6520 N   0  0  0  0  0  0  0  0  0  0  0  0
  133.5450  124.9400   61.7830 N   0  0  0  0  0  0  0  0  0  0  0  0
  132.3050  125.3970   61.4060 C   0  0  0  0  0  0  0  0  0  0  0  0
  131.8790  126.6600   61.4150 N   0  0  0  0  0  0  0  0  0  0  0  0
  128.7560  128.5700   61.0190 C   0  0  0  0  0  0  0  0  0  0  0  0
  128.3000  129.8860   61.0240 C   0  0  0  0  0  0  0  0  0  0  0  0
  127.0831  134.5885   62.6404 H   0  0  0  0  0  0  0  0  0  0  0  0
  128.0564  134.7617   61.1407 H   0  0  0  0  0  0  0  0  0  0  0  0
  126.5813  133.7366   61.1407 H   0  0  0  0  0  0  0  0  0  0  0  0
  129.0861  133.1777   62.8281 H   0  0  0  0  0  0  0  0  0  0  0  0
  127.6524  132.1181   62.6558 H   0  0  0  0  0  0  0  0  0  0  0  0
  131.3008  131.4938   60.8913 H   0  0  0  0  0  0  0  0  0  0  0  0
  132.1088  129.1511   60.8852 H   0  0  0  0  0  0  0  0  0  0  0  0
  128.7694  126.0252   60.1792 H   0  0  0  0  0  0  0  0  0  0  0  0
  129.5120  124.2900   58.0970 H   0  0  0  0  0  0  0  0  0  0  0  0
  129.0753  122.2298   56.9140 H   0  0  0  0  0  0  0  0  0  0  0  0
  128.2449  121.6234   58.4199 H   0  0  0  0  0  0  0  0  0  0  0  0
  127.2562  123.9512   56.7194 H   0  0  0  0  0  0  0  0  0  0  0  0
  126.6786  122.2116   56.6110 H   0  0  0  0  0  0  0  0  0  0  0  0
  124.3837  123.3405   56.9400 H   0  0  0  0  0  0  0  0  0  0  0  0
  122.6744  123.6873   58.7246 H   0  0  0  0  0  0  0  0  0  0  0  0
  123.3810  123.8031   61.1102 H   0  0  0  0  0  0  0  0  0  0  0  0
  125.7828  123.5772   61.7275 H   0  0  0  0  0  0  0  0  0  0  0  0
  127.4951  123.2274   59.9455 H   0  0  0  0  0  0  0  0  0  0  0  0
  134.2029  121.3310   60.1960 H   0  0  0  0  0  0  0  0  0  0  0  0
  133.8084  118.8886   59.8978 H   0  0  0  0  0  0  0  0  0  0  0  0
  131.4814  116.9853   61.5171 H   0  0  0  0  0  0  0  0  0  0  0  0
  130.6284  117.3307   59.9745 H   0  0  0  0  0  0  0  0  0  0  0  0
  132.4003  117.0360   59.9745 H   0  0  0  0  0  0  0  0  0  0  0  0
  129.8523  119.3217   61.5889 H   0  0  0  0  0  0  0  0  0  0  0  0
  130.2505  121.7619   61.8933 H   0  0  0  0  0  0  0  0  0  0  0  0
  134.3310  125.4770   62.1200 H   0  0  0  0  0  0  0  0  0  0  0  0
  128.0285  127.7456   61.0525 H   0  0  0  0  0  0  0  0  0  0  0  0
  127.2201  130.0912   61.0650 H   0  0  0  0  0  0  0  0  0  0  0  0
  1  2  1  0
  2  3  1  0
  3  4  1  0
  4  5  2  0
  5  6  1  0
  6  7  2  0
  7  8  1  0
  8  9  2  0
  9 10  1  0
 10 11  1  0
 11 12  2  0
 11 13  1  0
 13 14  1  0
 14 15  1  0
 15 16  1  0
 16 17  2  0
 17 18  1  0
 18 19  2  0
 19 20  1  0
 20 21  2  0
 10 22  2  0
 22 23  1  0
 23 24  1  0
 24 25  2  0
 25 26  1  0
 26 27  2  0
 27 28  1  0
 27 29  1  0
 29 30  2  0
 23 31  2  0
 31 32  1  0
 32 33  1  0
 33 34  2  0
  7 35  1  0
 35 36  2  0
 36  4  1  0
 34  8  1  0
 21 16  1  0
 33 22  1  0
 30 24  1  0
  1 37  1  0
  1 38  1  0
  1 39  1  0
  2 40  1  0
  2 41  1  0
  5 42  1  0
  6 43  1  0
  9 44  1  0
 13 45  1  0
 14 46  1  0
 14 47  1  0
 15 48  1  0
 15 49  1  0
 17 50  1  0
 18 51  1  0
 19 52  1  0
 20 53  1  0
 21 54  1  0
 25 55  1  0
 26 56  1  0
 28 57  1  0
 28 58  1  0
 28 59  1  0
 29 60  1  0
 30 61  1  0
 32 62  1  0
 35 63  1  0
 36 64  1  0
M  END
>  <Binding energies>  (1) 
[-7.88]

>  <Ligand effiencies>  (1) 
[-0.20736842105263156]

>  <Interactions>  (1) 
["V-B:LEU:475:CD2:9230, V-A:TYR:539:CE1:4873, V-A:TYR:539:CD1:4871, V-B:ASP:366:CG:8184, V-A:ALA:541:CB:4890, V-B:PRO:540:C:9853, V-B:TYR:539:CE1:9847, V-B:TYR:539:C:9839, V-B:PRO:540:N:9856, V-B:PRO:540:CA:9855, V-A:LEU:475:CD2:4256, V-B:TYR:539:CD1:9845, V-A:ASP:366:CG:3210, V-A:ILE:369:CG2:3234, H-A:ARG:545:NH2:4926, V-A:SER:385:CA:3404, V-B:PRO:540:CB:9857, V-B:ALA:541:CB:9864, V-B:TYR:539:CZ:9849, V-B:TYR:539:CG:9844, V-B:ASN:362:CB:8147, H-A:ASP:366:OD1:3211, V-B:TYR:539:CA:9841, V-A:LEU:373:CD1:3277, V-B:LEU:363:CA:8156, V-B:LEU:363:CD1:8160, V-A:PRO:482:CG:4324, V-B:ASN:362:C:8143, V-B:LEU:363:CB:8158"]

$$$$
