1a_Ghoteimi_2023
     RDKit          3D

 67 70  0  0  0  0  0  0  0  0999 V2000
  132.8080  118.2170   57.2460 C   0  0  0  0  0  0  0  0  0  0  0  0
  132.6610  118.6190   58.7160 C   0  0  0  0  0  0  0  0  0  0  0  0
  131.4150  118.1440   59.2130 O   0  0  0  0  0  0  0  0  0  0  0  0
  131.0810  118.2860   60.5210 C   0  0  0  0  0  0  0  0  0  0  0  0
  130.9830  117.3380   61.3060 O   0  0  0  0  0  0  0  0  0  0  0  0
  130.8460  119.7150   60.9200 C   0  0  0  0  0  0  0  0  0  0  0  0
  131.8180  120.7080   60.7300 C   0  0  0  0  0  0  0  0  0  0  0  0
  131.5730  122.0240   61.1130 C   0  0  0  0  0  0  0  0  0  0  0  0
  130.3430  122.3720   61.6910 C   0  0  0  0  0  0  0  0  0  0  0  0
  129.9900  123.6660   62.1190 N   0  0  0  0  0  0  0  0  0  0  0  0
  129.0260  124.4950   61.6640 C   0  0  0  0  0  0  0  0  0  0  0  0
  128.2340  124.2430   60.7560 O   0  0  0  0  0  0  0  0  0  0  0  0
  128.9380  125.8500   62.3670 C   0  0  0  0  0  0  0  0  0  0  0  0
  130.0130  125.9190   63.8310 S   0  0  0  0  0  0  0  0  0  0  0  0
  129.1520  126.9090   65.0310 C   0  0  0  0  0  0  0  0  0  0  0  0
  128.4420  127.9290   64.4930 N   0  0  0  0  0  0  0  0  0  0  0  0
  127.7340  128.7590   65.3040 C   0  0  0  0  0  0  0  0  0  0  0  0
  126.9550  129.8530   64.6310 C   0  0  0  0  0  0  0  0  0  0  0  0
  125.5570  129.7890   64.5160 C   0  0  0  0  0  0  0  0  0  0  0  0
  124.8380  130.8050   63.8920 C   0  0  0  0  0  0  0  0  0  0  0  0
  125.4930  131.9140   63.3620 C   0  0  0  0  0  0  0  0  0  0  0  0
  124.7000  132.8750   62.7630 O   0  0  0  0  0  0  0  0  0  0  0  0
  123.6340  132.4630   61.9140 C   0  0  0  0  0  0  0  0  0  0  0  0
  126.8890  131.9910   63.4650 C   0  0  0  0  0  0  0  0  0  0  0  0
  127.6040  130.9730   64.0890 C   0  0  0  0  0  0  0  0  0  0  0  0
  127.7330  128.5700   66.6910 C   0  0  0  0  0  0  0  0  0  0  0  0
  128.4800  127.5370   67.2720 C   0  0  0  0  0  0  0  0  0  0  0  0
  128.4580  127.4160   68.7610 C   0  0  0  0  0  0  0  0  0  0  0  0
  127.3110  126.9690   69.4270 C   0  0  0  0  0  0  0  0  0  0  0  0
  127.3030  126.8440   70.8130 C   0  0  0  0  0  0  0  0  0  0  0  0
  128.4390  127.1550   71.5600 C   0  0  0  0  0  0  0  0  0  0  0  0
  128.3380  127.0000   72.9290 O   0  0  0  0  0  0  0  0  0  0  0  0
  127.8150  128.0680   73.7120 C   0  0  0  0  0  0  0  0  0  0  0  0
  129.5940  127.5960   70.8950 C   0  0  0  0  0  0  0  0  0  0  0  0
  129.5990  127.7220   69.5080 C   0  0  0  0  0  0  0  0  0  0  0  0
  129.2120  126.6740   66.4210 C   0  0  0  0  0  0  0  0  0  0  0  0
  130.0000  125.5660   66.9700 C   0  0  0  0  0  0  0  0  0  0  0  0
  130.6220  124.6910   67.4030 N   0  0  0  0  0  0  0  0  0  0  0  0
  129.3750  121.3860   61.8850 C   0  0  0  0  0  0  0  0  0  0  0  0
  129.6220  120.0700   61.5020 C   0  0  0  0  0  0  0  0  0  0  0  0
  133.1852  117.1856   57.1839 H   0  0  0  0  0  0  0  0  0  0  0  0
  131.8287  118.2799   56.7490 H   0  0  0  0  0  0  0  0  0  0  0  0
  133.5157  118.8968   56.7490 H   0  0  0  0  0  0  0  0  0  0  0  0
  133.4817  118.1782   59.3010 H   0  0  0  0  0  0  0  0  0  0  0  0
  132.6978  119.7149   58.8029 H   0  0  0  0  0  0  0  0  0  0  0  0
  132.7836  120.4445   60.2738 H   0  0  0  0  0  0  0  0  0  0  0  0
  132.3455  122.7924   60.9621 H   0  0  0  0  0  0  0  0  0  0  0  0
  130.5270  124.0000   62.9060 H   0  0  0  0  0  0  0  0  0  0  0  0
  129.2440  126.6376   61.6626 H   0  0  0  0  0  0  0  0  0  0  0  0
  127.8992  125.9982   62.6971 H   0  0  0  0  0  0  0  0  0  0  0  0
  125.0204  128.9208   64.9262 H   0  0  0  0  0  0  0  0  0  0  0  0
  123.7431  130.7312   63.8169 H   0  0  0  0  0  0  0  0  0  0  0  0
  122.7826  132.1339   62.5279 H   0  0  0  0  0  0  0  0  0  0  0  0
  123.3241  133.3061   61.2791 H   0  0  0  0  0  0  0  0  0  0  0  0
  123.9717  131.6306   61.2791 H   0  0  0  0  0  0  0  0  0  0  0  0
  127.4216  132.8598   63.0508 H   0  0  0  0  0  0  0  0  0  0  0  0
  128.6992  131.0478   64.1587 H   0  0  0  0  0  0  0  0  0  0  0  0
  127.1397  129.2394   67.3312 H   0  0  0  0  0  0  0  0  0  0  0  0
  126.4093  126.7146   68.8507 H   0  0  0  0  0  0  0  0  0  0  0  0
  126.3928  126.4969   71.3239 H   0  0  0  0  0  0  0  0  0  0  0  0
  127.9311  127.8308   74.7798 H   0  0  0  0  0  0  0  0  0  0  0  0
  128.3615  128.9941   73.4805 H   0  0  0  0  0  0  0  0  0  0  0  0
  126.7483  128.2041   73.4805 H   0  0  0  0  0  0  0  0  0  0  0  0
  130.4979  127.8428   71.4712 H   0  0  0  0  0  0  0  0  0  0  0  0
  130.5096  128.0656   68.9955 H   0  0  0  0  0  0  0  0  0  0  0  0
  128.4105  121.6498   62.3434 H   0  0  0  0  0  0  0  0  0  0  0  0
  128.8494  119.3026   61.6578 H   0  0  0  0  0  0  0  0  0  0  0  0
  1  2  1  0
  2  3  1  0
  3  4  1  0
  4  5  2  0
  4  6  1  0
  6  7  2  0
  7  8  1  0
  8  9  2  0
  9 10  1  0
 10 11  1  0
 11 12  2  0
 11 13  1  0
 13 14  1  0
 14 15  1  0
 15 16  2  0
 16 17  1  0
 17 18  1  0
 18 19  2  0
 19 20  1  0
 20 21  2  0
 21 22  1  0
 22 23  1  0
 21 24  1  0
 24 25  2  0
 17 26  2  0
 26 27  1  0
 27 28  1  0
 28 29  2  0
 29 30  1  0
 30 31  2  0
 31 32  1  0
 32 33  1  0
 31 34  1  0
 34 35  2  0
 27 36  2  0
 36 37  1  0
 37 38  3  0
  9 39  1  0
 39 40  2  0
 40  6  1  0
 36 15  1  0
 25 18  1  0
 35 28  1  0
  1 41  1  0
  1 42  1  0
  1 43  1  0
  2 44  1  0
  2 45  1  0
  7 46  1  0
  8 47  1  0
 10 48  1  0
 13 49  1  0
 13 50  1  0
 19 51  1  0
 20 52  1  0
 23 53  1  0
 23 54  1  0
 23 55  1  0
 24 56  1  0
 25 57  1  0
 26 58  1  0
 29 59  1  0
 30 60  1  0
 33 61  1  0
 33 62  1  0
 33 63  1  0
 34 64  1  0
 35 65  1  0
 39 66  1  0
 40 67  1  0
M  END
>  <Binding energies>  (1) 
[-8.51]

>  <Ligand effiencies>  (1) 
[-0.2075609756097561]

>  <Interactions>  (1) 
["V-B:GLU:543:CD:9880, H-A:TYR:484:OH:4348, V-B:GLU:543:CG:9879, V-A:GLU:543:CD:4908, V-A:LEU:475:CD2:4259, V-A:HIS:456:CE1:4070, V-B:ALA:541:CB:9864, V-B:TYR:539:C:9839, V-B:TYR:539:CE2:9848, V-B:PRO:540:C:9853, V-B:TYR:539:CD2:9846, V-B:TYR:539:CG:9844, V-B:GLU:543:C:9874, V-B:GLU:543:CB:9878, V-A:GLU:543:CB:4906, V-B:HIS:456:CD2:9039, V-B:HIS:456:CE1:9041, V-A:HIS:383:NE2:3394, V-B:GLY:544:C:9884, V-B:GLY:544:CA:9886, V-B:ARG:545:CZ:9898, H-A:SER:385:OG:3410, V-B:GLY:454:CA:9020, V-B:ILE:369:CG2:8208, H-B:LYS:547:NZ:9923, H-A:HIS:383:HE2:3395, V-B:TYR:539:CB:9843, V-A:HIS:383:CD2:3392, V-A:LEU:373:CD1:3280, V-B:ILE:369:CG1:8209, V-A:LEU:373:CG:3279, V-A:LEU:373:CD2:3281, V-A:HIS:383:CG:3390"]

$$$$
1a_Grossjean_2025
     RDKit          3D

 45 46  0  0  0  0  0  0  0  0999 V2000
  129.8610  132.4590   73.1460 C   0  0  0  0  0  0  0  0  0  0  0  0
  129.1850  131.1620   73.5990 C   0  0  0  0  0  0  0  0  0  0  0  0
  129.9140  130.0480   73.1000 O   0  0  0  0  0  0  0  0  0  0  0  0
  129.3280  128.8290   72.9680 C   0  0  0  0  0  0  0  0  0  0  0  0
  128.7370  128.2570   73.8890 O   0  0  0  0  0  0  0  0  0  0  0  0
  129.4850  128.2400   71.5960 C   0  0  0  0  0  0  0  0  0  0  0  0
  130.7130  128.3680   70.9330 C   0  0  0  0  0  0  0  0  0  0  0  0
  130.8880  127.8370   69.6590 C   0  0  0  0  0  0  0  0  0  0  0  0
  129.8430  127.1700   69.0200 C   0  0  0  0  0  0  0  0  0  0  0  0
  130.1300  126.6760   67.7330 N   0  0  0  0  0  0  0  0  0  0  0  0
  129.9690  125.4360   67.2230 C   0  0  0  0  0  0  0  0  0  0  0  0
  129.5140  124.4660   67.8300 O   0  0  0  0  0  0  0  0  0  0  0  0
  130.4010  125.2660   65.7650 C   0  0  0  0  0  0  0  0  0  0  0  0
  130.3980  123.5230   65.2480 S   0  0  0  0  0  0  0  0  0  0  0  0
  131.0050  123.4610   63.5770 C   0  0  0  0  0  0  0  0  0  0  0  0
  130.1070  122.9690   62.6860 N   0  0  0  0  0  0  0  0  0  0  0  0
  130.4670  122.8730   61.3850 C   0  0  0  0  0  0  0  0  0  0  0  0
  129.4160  122.3020   60.4500 C   0  0  0  0  0  0  0  0  0  0  0  0
  131.7190  123.2680   60.9200 C   0  0  0  0  0  0  0  0  0  0  0  0
  132.6450  123.7950   61.8260 C   0  0  0  0  0  0  0  0  0  0  0  0
  134.0060  124.2360   61.2910 C   0  0  0  0  0  0  0  0  0  0  0  0
  132.2900  123.9090   63.1900 C   0  0  0  0  0  0  0  0  0  0  0  0
  133.2250  124.5040   64.1490 C   0  0  0  0  0  0  0  0  0  0  0  0
  133.9650  124.9740   64.9040 N   0  0  0  0  0  0  0  0  0  0  0  0
  128.6120  127.0300   69.6790 C   0  0  0  0  0  0  0  0  0  0  0  0
  128.4370  127.5620   70.9530 C   0  0  0  0  0  0  0  0  0  0  0  0
  130.1647  133.0417   74.0282 H   0  0  0  0  0  0  0  0  0  0  0  0
  130.7484  132.2184   72.5422 H   0  0  0  0  0  0  0  0  0  0  0  0
  129.1555  133.0487   72.5422 H   0  0  0  0  0  0  0  0  0  0  0  0
  129.1642  131.1239   74.6981 H   0  0  0  0  0  0  0  0  0  0  0  0
  128.1561  131.1301   73.2113 H   0  0  0  0  0  0  0  0  0  0  0  0
  131.5457  128.8928   71.4241 H   0  0  0  0  0  0  0  0  0  0  0  0
  131.8582  127.9441   69.1517 H   0  0  0  0  0  0  0  0  0  0  0  0
  130.4830  127.3740   67.0960 H   0  0  0  0  0  0  0  0  0  0  0  0
  129.7074  125.8276   65.1220 H   0  0  0  0  0  0  0  0  0  0  0  0
  131.4293  125.6450   65.6706 H   0  0  0  0  0  0  0  0  0  0  0  0
  128.6009  121.8592   61.0413 H   0  0  0  0  0  0  0  0  0  0  0  0
  129.0140  123.1057   59.8156 H   0  0  0  0  0  0  0  0  0  0  0  0
  129.8715  121.5274   59.8156 H   0  0  0  0  0  0  0  0  0  0  0  0
  131.9759  123.1669   59.8552 H   0  0  0  0  0  0  0  0  0  0  0  0
  134.6783  124.4538   62.1340 H   0  0  0  0  0  0  0  0  0  0  0  0
  134.4368  123.4315   60.6769 H   0  0  0  0  0  0  0  0  0  0  0  0
  133.8831  125.1403   60.6769 H   0  0  0  0  0  0  0  0  0  0  0  0
  127.7837  126.4987   69.1876 H   0  0  0  0  0  0  0  0  0  0  0  0
  127.4679  127.4502   71.4613 H   0  0  0  0  0  0  0  0  0  0  0  0
  1  2  1  0
  2  3  1  0
  3  4  1  0
  4  5  2  0
  4  6  1  0
  6  7  2  0
  7  8  1  0
  8  9  2  0
  9 10  1  0
 10 11  1  0
 11 12  2  0
 11 13  1  0
 13 14  1  0
 14 15  1  0
 15 16  2  0
 16 17  1  0
 17 18  1  0
 17 19  2  0
 19 20  1  0
 20 21  1  0
 20 22  2  0
 22 23  1  0
 23 24  3  0
  9 25  1  0
 25 26  2  0
 26  6  1  0
 22 15  1  0
  1 27  1  0
  1 28  1  0
  1 29  1  0
  2 30  1  0
  2 31  1  0
  7 32  1  0
  8 33  1  0
 10 34  1  0
 13 35  1  0
 13 36  1  0
 18 37  1  0
 18 38  1  0
 18 39  1  0
 19 40  1  0
 21 41  1  0
 21 42  1  0
 21 43  1  0
 25 44  1  0
 26 45  1  0
M  END
>  <Binding energies>  (1) 
[-7.87]

>  <Ligand effiencies>  (1) 
[-0.2914814814814815]

>  <Interactions>  (1) 
["V-A:ILE:369:CD1:3239, H-A:ARG:545:NH1:4927, H-A:ARG:545:NH2:4928, H-A:GLY:454:N:4050, V-A:ASP:366:CG:3213, H-A:TYR:484:OH:4348, V-B:GLU:543:CG:9879, H-A:ARG:545:NE:4924, V-A:GLU:543:CD:4908, V-A:ARG:545:CZ:4926, H-A:GLU:543:OE2:4910, V-A:HIS:456:CE1:4070, V-A:GLY:454:CA:4049, V-B:TYR:539:CE2:9848, V-B:TYR:539:CD2:9846, V-A:GLU:543:C:4902, V-B:GLU:543:CB:9878, V-A:GLY:544:C:4912, V-A:GLU:543:CB:4906, V-B:HIS:456:CD2:9039, V-B:HIS:456:CE1:9041, H-A:LYS:547:NZ:4951, H-B:LYS:547:NZ:9923, V-A:GLY:544:CA:4914, V-A:LYS:547:CE:4950"]

$$$$
1aa_Ghoteimi_2023
     RDKit          3D

 67 70  0  0  0  0  0  0  0  0999 V2000
  127.2840  131.7430   56.8400 C   0  0  0  0  0  0  0  0  0  0  0  0
  128.6210  132.2390   56.2820 C   0  0  0  0  0  0  0  0  0  0  0  0
  129.0960  133.3170   57.0790 O   0  0  0  0  0  0  0  0  0  0  0  0
  130.0850  133.1320   57.9900 C   0  0  0  0  0  0  0  0  0  0  0  0
  131.2700  133.4020   57.7740 O   0  0  0  0  0  0  0  0  0  0  0  0
  129.5940  132.5640   59.2910 C   0  0  0  0  0  0  0  0  0  0  0  0
  129.0240  133.3740   60.2860 C   0  0  0  0  0  0  0  0  0  0  0  0
  128.5770  132.8190   61.4830 C   0  0  0  0  0  0  0  0  0  0  0  0
  128.6920  131.4390   61.7060 C   0  0  0  0  0  0  0  0  0  0  0  0
  128.2770  130.7700   62.8720 N   0  0  0  0  0  0  0  0  0  0  0  0
  128.1190  131.2270   64.1360 C   0  0  0  0  0  0  0  0  0  0  0  0
  128.3210  132.3870   64.4950 O   0  0  0  0  0  0  0  0  0  0  0  0
  127.6500  130.2180   65.1960 C   0  0  0  0  0  0  0  0  0  0  0  0
  127.7580  128.8790   64.6970 O   0  0  0  0  0  0  0  0  0  0  0  0
  128.4610  127.9190   65.4110 C   0  0  0  0  0  0  0  0  0  0  0  0
  128.3280  127.9030   66.7660 N   0  0  0  0  0  0  0  0  0  0  0  0
  129.0110  126.9870   67.5020 C   0  0  0  0  0  0  0  0  0  0  0  0
  128.8090  127.0350   68.9890 C   0  0  0  0  0  0  0  0  0  0  0  0
  129.8870  127.2680   69.8570 C   0  0  0  0  0  0  0  0  0  0  0  0
  129.7020  127.3110   71.2360 C   0  0  0  0  0  0  0  0  0  0  0  0
  128.4380  127.1240   71.7900 C   0  0  0  0  0  0  0  0  0  0  0  0
  128.3510  127.1830   73.1680 O   0  0  0  0  0  0  0  0  0  0  0  0
  128.1310  128.4410   73.7970 C   0  0  0  0  0  0  0  0  0  0  0  0
  127.3510  126.8950   70.9360 C   0  0  0  0  0  0  0  0  0  0  0  0
  127.5380  126.8540   69.5570 C   0  0  0  0  0  0  0  0  0  0  0  0
  129.8360  126.0430   66.8780 C   0  0  0  0  0  0  0  0  0  0  0  0
  129.9820  126.0300   65.4840 C   0  0  0  0  0  0  0  0  0  0  0  0
  130.8680  124.9920   64.8790 C   0  0  0  0  0  0  0  0  0  0  0  0
  132.2220  125.2640   64.6590 C   0  0  0  0  0  0  0  0  0  0  0  0
  133.0570  124.2980   64.1040 C   0  0  0  0  0  0  0  0  0  0  0  0
  132.5590  123.0410   63.7640 C   0  0  0  0  0  0  0  0  0  0  0  0
  133.4600  122.1470   63.2190 O   0  0  0  0  0  0  0  0  0  0  0  0
  134.0200  122.4170   61.9390 C   0  0  0  0  0  0  0  0  0  0  0  0
  131.2030  122.7610   63.9900 C   0  0  0  0  0  0  0  0  0  0  0  0
  130.3690  123.7280   64.5440 C   0  0  0  0  0  0  0  0  0  0  0  0
  129.2800  127.0010   64.7320 C   0  0  0  0  0  0  0  0  0  0  0  0
  129.4040  127.0930   63.2760 C   0  0  0  0  0  0  0  0  0  0  0  0
  129.5010  127.1680   62.1250 N   0  0  0  0  0  0  0  0  0  0  0  0
  129.2600  130.6320   60.7190 C   0  0  0  0  0  0  0  0  0  0  0  0
  129.7070  131.1870   59.5240 C   0  0  0  0  0  0  0  0  0  0  0  0
  127.3182  131.7557   57.9394 H   0  0  0  0  0  0  0  0  0  0  0  0
  126.4743  132.4006   56.4907 H   0  0  0  0  0  0  0  0  0  0  0  0
  127.0991  130.7164   56.4907 H   0  0  0  0  0  0  0  0  0  0  0  0
  129.3534  131.4185   56.3008 H   0  0  0  0  0  0  0  0  0  0  0  0
  128.4817  132.5820   55.2462 H   0  0  0  0  0  0  0  0  0  0  0  0
  128.9295  134.4571   60.1188 H   0  0  0  0  0  0  0  0  0  0  0  0
  128.1328  133.4645   62.2551 H   0  0  0  0  0  0  0  0  0  0  0  0
  128.0610  129.7930   62.7310 H   0  0  0  0  0  0  0  0  0  0  0  0
  128.2752  130.3207   66.0952 H   0  0  0  0  0  0  0  0  0  0  0  0
  126.5972  130.4226   65.4407 H   0  0  0  0  0  0  0  0  0  0  0  0
  130.8940  127.4190   69.4410 H   0  0  0  0  0  0  0  0  0  0  0  0
  130.5633  127.4946   71.8951 H   0  0  0  0  0  0  0  0  0  0  0  0
  128.1533  128.3136   74.8894 H   0  0  0  0  0  0  0  0  0  0  0  0
  128.9196  129.1454   73.4938 H   0  0  0  0  0  0  0  0  0  0  0  0
  127.1501  128.8360   73.4938 H   0  0  0  0  0  0  0  0  0  0  0  0
  126.3456  126.7470   71.3569 H   0  0  0  0  0  0  0  0  0  0  0  0
  126.6737  126.6765   68.9002 H   0  0  0  0  0  0  0  0  0  0  0  0
  130.3753  125.3037   67.4884 H   0  0  0  0  0  0  0  0  0  0  0  0
  132.6308  126.2495   64.9267 H   0  0  0  0  0  0  0  0  0  0  0  0
  134.1188  124.5286   63.9323 H   0  0  0  0  0  0  0  0  0  0  0  0
  135.0046  122.8917   62.0623 H   0  0  0  0  0  0  0  0  0  0  0  0
  134.1342  121.4750   61.3826 H   0  0  0  0  0  0  0  0  0  0  0  0
  133.3541  123.0930   61.3826 H   0  0  0  0  0  0  0  0  0  0  0  0
  130.7970  121.7728   63.7282 H   0  0  0  0  0  0  0  0  0  0  0  0
  129.3081  123.4967   64.7201 H   0  0  0  0  0  0  0  0  0  0  0  0
  129.3550  129.5491   60.8871 H   0  0  0  0  0  0  0  0  0  0  0  0
  130.1531  130.5389   58.7553 H   0  0  0  0  0  0  0  0  0  0  0  0
  1  2  1  0
  2  3  1  0
  3  4  1  0
  4  5  2  0
  4  6  1  0
  6  7  2  0
  7  8  1  0
  8  9  2  0
  9 10  1  0
 10 11  1  0
 11 12  2  0
 11 13  1  0
 13 14  1  0
 14 15  1  0
 15 16  2  0
 16 17  1  0
 17 18  1  0
 18 19  2  0
 19 20  1  0
 20 21  2  0
 21 22  1  0
 22 23  1  0
 21 24  1  0
 24 25  2  0
 17 26  2  0
 26 27  1  0
 27 28  1  0
 28 29  2  0
 29 30  1  0
 30 31  2  0
 31 32  1  0
 32 33  1  0
 31 34  1  0
 34 35  2  0
 27 36  2  0
 36 37  1  0
 37 38  3  0
  9 39  1  0
 39 40  2  0
 40  6  1  0
 36 15  1  0
 25 18  1  0
 35 28  1  0
  1 41  1  0
  1 42  1  0
  1 43  1  0
  2 44  1  0
  2 45  1  0
  7 46  1  0
  8 47  1  0
 10 48  1  0
 13 49  1  0
 13 50  1  0
 19 51  1  0
 20 52  1  0
 23 53  1  0
 23 54  1  0
 23 55  1  0
 24 56  1  0
 25 57  1  0
 26 58  1  0
 29 59  1  0
 30 60  1  0
 33 61  1  0
 33 62  1  0
 33 63  1  0
 34 64  1  0
 35 65  1  0
 39 66  1  0
 40 67  1  0
M  END
>  <Binding energies>  (1) 
[-8.64]

>  <Ligand effiencies>  (1) 
[-0.2107317073170732]

>  <Interactions>  (1) 
["V-A:ILE:369:CG2:3237, V-A:ILE:369:CD1:3239, V-B:GLU:543:CD:9880, H-A:GLY:454:N:4050, H-A:GLU:543:OE1:4909, V-B:GLU:543:CG:9879, V-A:GLU:543:CD:4908, V-A:ARG:545:CZ:4926, V-A:LEU:475:CD2:4259, V-A:HIS:456:CE1:4070, V-A:GLY:454:CA:4049, V-A:MET:535:CE:4835, V-B:GLU:543:C:9874, V-B:GLU:543:CB:9878, V-B:HIS:456:CD2:9039, V-B:HIS:456:CE1:9041, V-B:GLY:544:C:9884, V-B:GLY:544:CA:9886, V-A:GLU:543:CG:4907, H-B:TYR:484:OH:9319, V-B:TYR:484:CZ:9318, V-A:PRO:540:CA:4883, V-A:PRO:540:CB:4885, V-A:PRO:540:CD:4887, V-A:PRO:540:N:4884, V-A:TYR:539:CE1:4875, V-A:TYR:539:CZ:4877, V-A:PRO:540:C:4881, H-A:TYR:539:N:4870, V-A:TYR:539:CA:4869, V-A:TYR:539:C:4867, H-B:LYS:547:NZ:9923"]

$$$$
1b_Ghoteimi_2023
     RDKit          3D

 54 57  0  0  0  0  0  0  0  0999 V2000
  128.6330  128.4010   74.8890 C   0  0  0  0  0  0  0  0  0  0  0  0
  129.1280  127.2740   74.1760 O   0  0  0  0  0  0  0  0  0  0  0  0
  129.0070  127.2420   72.8000 C   0  0  0  0  0  0  0  0  0  0  0  0
  130.1310  127.6130   72.0650 C   0  0  0  0  0  0  0  0  0  0  0  0
  130.1020  127.6120   70.6740 C   0  0  0  0  0  0  0  0  0  0  0  0
  128.9460  127.2360   69.9730 C   0  0  0  0  0  0  0  0  0  0  0  0
  128.9180  127.2380   68.4700 C   0  0  0  0  0  0  0  0  0  0  0  0
  129.6730  126.3530   67.6930 C   0  0  0  0  0  0  0  0  0  0  0  0
  129.6070  126.3940   66.2950 C   0  0  0  0  0  0  0  0  0  0  0  0
  130.4440  125.4220   65.5290 C   0  0  0  0  0  0  0  0  0  0  0  0
  129.9280  124.1730   65.1750 C   0  0  0  0  0  0  0  0  0  0  0  0
  130.7070  123.2600   64.4690 C   0  0  0  0  0  0  0  0  0  0  0  0
  132.0170  123.5760   64.1080 C   0  0  0  0  0  0  0  0  0  0  0  0
  132.7150  122.6090   63.4090 O   0  0  0  0  0  0  0  0  0  0  0  0
  133.6320  123.0110   62.3980 C   0  0  0  0  0  0  0  0  0  0  0  0
  132.5420  124.8260   64.4680 C   0  0  0  0  0  0  0  0  0  0  0  0
  131.7600  125.7360   65.1750 C   0  0  0  0  0  0  0  0  0  0  0  0
  128.7500  127.3450   65.6870 C   0  0  0  0  0  0  0  0  0  0  0  0
  128.5730  127.3650   64.2320 C   0  0  0  0  0  0  0  0  0  0  0  0
  128.4340  127.3790   63.0830 N   0  0  0  0  0  0  0  0  0  0  0  0
  128.0320  128.2230   66.5290 C   0  0  0  0  0  0  0  0  0  0  0  0
  126.9180  129.4830   65.9430 S   0  0  0  0  0  0  0  0  0  0  0  0
  127.2000  129.6940   64.1530 C   0  0  0  0  0  0  0  0  0  0  0  0
  128.2970  130.7030   63.7830 C   0  0  0  0  0  0  0  0  0  0  0  0
  128.3890  131.7790   64.3780 O   0  0  0  0  0  0  0  0  0  0  0  0
  129.1110  130.3070   62.7800 N   0  0  0  0  0  0  0  0  0  0  0  0
  130.1830  131.0090   62.2400 C   0  0  0  0  0  0  0  0  0  0  0  0
  130.8970  130.5690   61.1260 C   0  0  0  0  0  0  0  0  0  0  0  0
  131.8590  131.5300   60.9150 C   0  0  0  0  0  0  0  0  0  0  0  0
  131.7290  132.4990   61.8530 O   0  0  0  0  0  0  0  0  0  0  0  0
  130.6640  132.1580   62.6860 N   0  0  0  0  0  0  0  0  0  0  0  0
  128.1030  128.1520   67.8800 N   0  0  0  0  0  0  0  0  0  0  0  0
  127.8190  126.8660   70.7230 C   0  0  0  0  0  0  0  0  0  0  0  0
  127.8430  126.8660   72.1140 C   0  0  0  0  0  0  0  0  0  0  0  0
  128.7144  128.2156   75.9702 H   0  0  0  0  0  0  0  0  0  0  0  0
  129.2232  129.2906   74.6241 H   0  0  0  0  0  0  0  0  0  0  0  0
  127.5786  128.5683   74.6241 H   0  0  0  0  0  0  0  0  0  0  0  0
  131.0510  127.9098   72.5900 H   0  0  0  0  0  0  0  0  0  0  0  0
  131.0005  127.9110   70.1143 H   0  0  0  0  0  0  0  0  0  0  0  0
  130.3255  125.6170   68.1856 H   0  0  0  0  0  0  0  0  0  0  0  0
  128.8979  123.9086   65.4563 H   0  0  0  0  0  0  0  0  0  0  0  0
  130.2861  122.2817   64.1937 H   0  0  0  0  0  0  0  0  0  0  0  0
  134.5432  123.4104   62.8672 H   0  0  0  0  0  0  0  0  0  0  0  0
  133.8915  122.1441   61.7726 H   0  0  0  0  0  0  0  0  0  0  0  0
  133.1703  123.7892   61.7726 H   0  0  0  0  0  0  0  0  0  0  0  0
  133.5738  125.0881   64.1912 H   0  0  0  0  0  0  0  0  0  0  0  0
  132.1818  126.7118   65.4579 H   0  0  0  0  0  0  0  0  0  0  0  0
  127.4804  128.7163   63.7342 H   0  0  0  0  0  0  0  0  0  0  0  0
  126.2625  130.0939   63.7393 H   0  0  0  0  0  0  0  0  0  0  0  0
  128.9410  129.3970   62.3780 H   0  0  0  0  0  0  0  0  0  0  0  0
  130.7278  129.6521   60.5422 H   0  0  0  0  0  0  0  0  0  0  0  0
  132.6124  131.5141   60.1137 H   0  0  0  0  0  0  0  0  0  0  0  0
  126.8976  126.5699   70.2002 H   0  0  0  0  0  0  0  0  0  0  0  0
  126.9460  126.5701   72.6777 H   0  0  0  0  0  0  0  0  0  0  0  0
  1  2  1  0
  2  3  1  0
  3  4  2  0
  4  5  1  0
  5  6  2  0
  6  7  1  0
  7  8  2  0
  8  9  1  0
  9 10  1  0
 10 11  2  0
 11 12  1  0
 12 13  2  0
 13 14  1  0
 14 15  1  0
 13 16  1  0
 16 17  2  0
  9 18  2  0
 18 19  1  0
 19 20  3  0
 18 21  1  0
 21 22  1  0
 22 23  1  0
 23 24  1  0
 24 25  2  0
 24 26  1  0
 26 27  1  0
 27 28  1  0
 28 29  2  0
 29 30  1  0
 30 31  1  0
 21 32  2  0
  6 33  1  0
 33 34  2  0
 34  3  1  0
 32  7  1  0
 17 10  1  0
 31 27  2  0
  1 35  1  0
  1 36  1  0
  1 37  1  0
  4 38  1  0
  5 39  1  0
  8 40  1  0
 11 41  1  0
 12 42  1  0
 15 43  1  0
 15 44  1  0
 15 45  1  0
 16 46  1  0
 17 47  1  0
 23 48  1  0
 23 49  1  0
 26 50  1  0
 28 51  1  0
 29 52  1  0
 33 53  1  0
 34 54  1  0
M  END
>  <Binding energies>  (1) 
[-8.62]

>  <Ligand effiencies>  (1) 
[-0.24628571428571427]

>  <Interactions>  (1) 
["V-B:GLU:543:CD:9880, H-A:GLU:543:OE1:4909, H-A:TYR:484:OH:4348, V-B:GLU:543:CG:9879, V-A:GLU:543:CD:4908, V-A:ARG:545:CZ:4926, V-A:LEU:475:CD2:4259, V-A:HIS:456:CE1:4070, V-A:GLY:454:CA:4049, V-A:TYR:484:CE2:4346, V-B:GLU:543:C:9874, V-B:GLU:543:CB:9878, V-B:HIS:456:CE1:9041, V-B:GLY:544:C:9884, V-A:GLU:543:CG:4907, H-B:TYR:484:OH:9319, V-A:PRO:540:CA:4883, V-A:PRO:540:CB:4885, H-A:ALA:541:N:4891, H-B:LYS:547:NZ:9923"]

$$$$
1b_Grossjean_2025
     RDKit          3D

 42 43  0  0  0  0  0  0  0  0999 V2000
  129.4920  131.1110   73.2620 C   0  0  0  0  0  0  0  0  0  0  0  0
  130.0740  129.8220   73.1240 O   0  0  0  0  0  0  0  0  0  0  0  0
  129.3030  128.7290   72.8890 C   0  0  0  0  0  0  0  0  0  0  0  0
  128.5210  128.2570   73.7200 O   0  0  0  0  0  0  0  0  0  0  0  0
  129.4900  128.1550   71.5140 C   0  0  0  0  0  0  0  0  0  0  0  0
  130.6940  128.2960   70.8080 C   0  0  0  0  0  0  0  0  0  0  0  0
  130.8340  127.7520   69.5350 C   0  0  0  0  0  0  0  0  0  0  0  0
  129.7800  127.0580   68.9410 C   0  0  0  0  0  0  0  0  0  0  0  0
  130.0340  126.5530   67.6510 N   0  0  0  0  0  0  0  0  0  0  0  0
  130.0260  125.2810   67.1970 C   0  0  0  0  0  0  0  0  0  0  0  0
  129.7760  124.2820   67.8720 O   0  0  0  0  0  0  0  0  0  0  0  0
  130.3510  125.1130   65.7120 C   0  0  0  0  0  0  0  0  0  0  0  0
  130.2480  123.3770   65.1800 S   0  0  0  0  0  0  0  0  0  0  0  0
  130.8660  123.2970   63.5120 C   0  0  0  0  0  0  0  0  0  0  0  0
  129.9980  122.7330   62.6350 N   0  0  0  0  0  0  0  0  0  0  0  0
  130.3660  122.6220   61.3370 C   0  0  0  0  0  0  0  0  0  0  0  0
  129.3400  121.9960   60.4110 C   0  0  0  0  0  0  0  0  0  0  0  0
  131.6050  123.0540   60.8680 C   0  0  0  0  0  0  0  0  0  0  0  0
  132.5150  123.6160   61.7690 C   0  0  0  0  0  0  0  0  0  0  0  0
  133.8730  124.0670   61.2340 C   0  0  0  0  0  0  0  0  0  0  0  0
  132.1530  123.7420   63.1290 C   0  0  0  0  0  0  0  0  0  0  0  0
  133.1060  124.2870   64.0990 C   0  0  0  0  0  0  0  0  0  0  0  0
  133.8600  124.7180   64.8630 N   0  0  0  0  0  0  0  0  0  0  0  0
  128.5730  126.9130   69.6400 C   0  0  0  0  0  0  0  0  0  0  0  0
  128.4340  127.4560   70.9140 C   0  0  0  0  0  0  0  0  0  0  0  0
  129.3833  131.3518   74.3298 H   0  0  0  0  0  0  0  0  0  0  0  0
  130.1397  131.8591   72.7815 H   0  0  0  0  0  0  0  0  0  0  0  0
  128.5025  131.1199   72.7815 H   0  0  0  0  0  0  0  0  0  0  0  0
  131.5337  128.8407   71.2642 H   0  0  0  0  0  0  0  0  0  0  0  0
  131.7837  127.8702   68.9927 H   0  0  0  0  0  0  0  0  0  0  0  0
  130.2680  127.2630   66.9720 H   0  0  0  0  0  0  0  0  0  0  0  0
  129.6365  125.7072   65.1233 H   0  0  0  0  0  0  0  0  0  0  0  0
  131.3838  125.4555   65.5509 H   0  0  0  0  0  0  0  0  0  0  0  0
  128.5517  121.5150   61.0088 H   0  0  0  0  0  0  0  0  0  0  0  0
  128.8944  122.7763   59.7764 H   0  0  0  0  0  0  0  0  0  0  0  0
  129.8300  121.2428   59.7764 H   0  0  0  0  0  0  0  0  0  0  0  0
  131.8638  122.9543   59.8035 H   0  0  0  0  0  0  0  0  0  0  0  0
  134.5436  124.2897   62.0770 H   0  0  0  0  0  0  0  0  0  0  0  0
  134.3097  123.2656   60.6199 H   0  0  0  0  0  0  0  0  0  0  0  0
  133.7435  124.9704   60.6199 H   0  0  0  0  0  0  0  0  0  0  0  0
  127.7345  126.3691   69.1806 H   0  0  0  0  0  0  0  0  0  0  0  0
  127.4845  127.3351   71.4560 H   0  0  0  0  0  0  0  0  0  0  0  0
  1  2  1  0
  2  3  1  0
  3  4  2  0
  3  5  1  0
  5  6  2  0
  6  7  1  0
  7  8  2  0
  8  9  1  0
  9 10  1  0
 10 11  2  0
 10 12  1  0
 12 13  1  0
 13 14  1  0
 14 15  2  0
 15 16  1  0
 16 17  1  0
 16 18  2  0
 18 19  1  0
 19 20  1  0
 19 21  2  0
 21 22  1  0
 22 23  3  0
  8 24  1  0
 24 25  2  0
 25  5  1  0
 21 14  1  0
  1 26  1  0
  1 27  1  0
  1 28  1  0
  6 29  1  0
  7 30  1  0
  9 31  1  0
 12 32  1  0
 12 33  1  0
 17 34  1  0
 17 35  1  0
 17 36  1  0
 18 37  1  0
 20 38  1  0
 20 39  1  0
 20 40  1  0
 24 41  1  0
 25 42  1  0
M  END
>  <Binding energies>  (1) 
[-7.8]

>  <Ligand effiencies>  (1) 
[-0.3]

>  <Interactions>  (1) 
["V-A:ILE:369:CD1:3239, H-A:ARG:545:NH2:4928, H-A:GLY:454:N:4050, H-A:TYR:484:OH:4348, V-B:GLU:543:CG:9879, H-A:ARG:545:NE:4924, V-A:GLU:543:CD:4908, V-A:ARG:545:CZ:4926, H-A:GLU:543:OE2:4910, V-A:LEU:475:CD2:4259, V-A:HIS:456:CE1:4070, V-A:GLY:454:CA:4049, V-B:TYR:539:C:9839, V-B:PRO:540:CA:9855, V-B:TYR:539:CE2:9848, V-B:TYR:539:CD2:9846, V-A:TYR:484:CE2:4346, V-A:GLU:543:C:4902, V-B:GLU:543:C:9874, V-B:GLU:543:CB:9878, V-A:GLY:544:C:4912, V-A:GLU:543:CB:4906, V-B:HIS:456:CD2:9039, V-B:HIS:456:CE1:9041, H-A:LYS:547:NZ:4951, H-B:LYS:547:NZ:9923, V-A:GLY:544:CA:4914, V-A:LYS:547:CE:4950"]

$$$$
1c_Ghoteimi_2023
     RDKit          3D

 54 57  0  0  0  0  0  0  0  0999 V2000
  127.7810  128.6940   74.4400 C   0  0  0  0  0  0  0  0  0  0  0  0
  128.5150  127.6630   73.7890 O   0  0  0  0  0  0  0  0  0  0  0  0
  128.6020  127.6630   72.4100 C   0  0  0  0  0  0  0  0  0  0  0  0
  127.6330  126.9370   71.7230 C   0  0  0  0  0  0  0  0  0  0  0  0
  127.6460  126.8800   70.3320 C   0  0  0  0  0  0  0  0  0  0  0  0
  128.6310  127.5470   69.5860 C   0  0  0  0  0  0  0  0  0  0  0  0
  128.6510  127.4840   68.0860 C   0  0  0  0  0  0  0  0  0  0  0  0
  128.0870  128.4780   67.2800 C   0  0  0  0  0  0  0  0  0  0  0  0
  128.1550  128.3890   65.8840 C   0  0  0  0  0  0  0  0  0  0  0  0
  127.5920  129.5180   65.0870 C   0  0  0  0  0  0  0  0  0  0  0  0
  126.2810  129.4640   64.6040 C   0  0  0  0  0  0  0  0  0  0  0  0
  125.7650  130.5080   63.8430 C   0  0  0  0  0  0  0  0  0  0  0  0
  126.5490  131.6230   63.5460 C   0  0  0  0  0  0  0  0  0  0  0  0
  125.9540  132.6110   62.7840 O   0  0  0  0  0  0  0  0  0  0  0  0
  124.5990  132.9630   63.0400 C   0  0  0  0  0  0  0  0  0  0  0  0
  127.8680  131.6780   64.0230 C   0  0  0  0  0  0  0  0  0  0  0  0
  128.3820  130.6320   64.7840 C   0  0  0  0  0  0  0  0  0  0  0  0
  128.7800  127.2560   65.3110 C   0  0  0  0  0  0  0  0  0  0  0  0
  128.8530  127.0870   63.8560 C   0  0  0  0  0  0  0  0  0  0  0  0
  128.9110  126.9550   62.7080 N   0  0  0  0  0  0  0  0  0  0  0  0
  129.3420  126.3000   66.1830 C   0  0  0  0  0  0  0  0  0  0  0  0
  130.3020  124.9180   65.6040 S   0  0  0  0  0  0  0  0  0  0  0  0
  132.0330  125.3760   65.9470 C   0  0  0  0  0  0  0  0  0  0  0  0
  132.9840  124.9130   64.8380 C   0  0  0  0  0  0  0  0  0  0  0  0
  134.2010  124.9990   65.0060 O   0  0  0  0  0  0  0  0  0  0  0  0
  132.3840  124.3920   63.7450 N   0  0  0  0  0  0  0  0  0  0  0  0
  133.0080  123.7660   62.6770 C   0  0  0  0  0  0  0  0  0  0  0  0
  133.5420  122.5640   62.6450 N   0  0  0  0  0  0  0  0  0  0  0  0
  134.0130  122.2760   61.4480 C   0  0  0  0  0  0  0  0  0  0  0  0
  133.8620  123.2590   60.4740 C   0  0  0  0  0  0  0  0  0  0  0  0
  133.0600  124.6330   61.1770 S   0  0  0  0  0  0  0  0  0  0  0  0
  129.2860  126.4180   67.5310 N   0  0  0  0  0  0  0  0  0  0  0  0
  129.5980  128.2800   70.2900 C   0  0  0  0  0  0  0  0  0  0  0  0
  129.5900  128.3390   71.6800 C   0  0  0  0  0  0  0  0  0  0  0  0
  127.8670  128.5732   75.5300 H   0  0  0  0  0  0  0  0  0  0  0  0
  128.1860  129.6737   74.1466 H   0  0  0  0  0  0  0  0  0  0  0  0
  126.7227  128.6320   74.1466 H   0  0  0  0  0  0  0  0  0  0  0  0
  126.8509  126.4041   72.2836 H   0  0  0  0  0  0  0  0  0  0  0  0
  126.8706  126.3020   69.8079 H   0  0  0  0  0  0  0  0  0  0  0  0
  127.5851  129.3382   67.7471 H   0  0  0  0  0  0  0  0  0  0  0  0
  125.6527  128.5892   64.8275 H   0  0  0  0  0  0  0  0  0  0  0  0
  124.7307  130.4539   63.4725 H   0  0  0  0  0  0  0  0  0  0  0  0
  124.4305  133.0068   64.1261 H   0  0  0  0  0  0  0  0  0  0  0  0
  124.3854  133.9464   62.5959 H   0  0  0  0  0  0  0  0  0  0  0  0
  123.9338  132.2078   62.5959 H   0  0  0  0  0  0  0  0  0  0  0  0
  128.4975  132.5507   63.7946 H   0  0  0  0  0  0  0  0  0  0  0  0
  129.4181  130.6818   65.1502 H   0  0  0  0  0  0  0  0  0  0  0  0
  132.0990  126.4704   66.0365 H   0  0  0  0  0  0  0  0  0  0  0  0
  132.3354  124.8795   66.8808 H   0  0  0  0  0  0  0  0  0  0  0  0
  131.3760  124.3860   63.7280 H   0  0  0  0  0  0  0  0  0  0  0  0
  134.4981  121.3129   61.2310 H   0  0  0  0  0  0  0  0  0  0  0  0
  134.1958  123.1797   59.4289 H   0  0  0  0  0  0  0  0  0  0  0  0
  130.3780  128.8188   69.7320 H   0  0  0  0  0  0  0  0  0  0  0  0
  130.3617  128.9182   72.2083 H   0  0  0  0  0  0  0  0  0  0  0  0
  1  2  1  0
  2  3  1  0
  3  4  2  0
  4  5  1  0
  5  6  2  0
  6  7  1  0
  7  8  2  0
  8  9  1  0
  9 10  1  0
 10 11  2  0
 11 12  1  0
 12 13  2  0
 13 14  1  0
 14 15  1  0
 13 16  1  0
 16 17  2  0
  9 18  2  0
 18 19  1  0
 19 20  3  0
 18 21  1  0
 21 22  1  0
 22 23  1  0
 23 24  1  0
 24 25  2  0
 24 26  1  0
 26 27  1  0
 27 28  2  0
 28 29  1  0
 29 30  2  0
 30 31  1  0
 21 32  2  0
  6 33  1  0
 33 34  2  0
 34  3  1  0
 32  7  1  0
 17 10  1  0
 31 27  1  0
  1 35  1  0
  1 36  1  0
  1 37  1  0
  4 38  1  0
  5 39  1  0
  8 40  1  0
 11 41  1  0
 12 42  1  0
 15 43  1  0
 15 44  1  0
 15 45  1  0
 16 46  1  0
 17 47  1  0
 23 48  1  0
 23 49  1  0
 26 50  1  0
 29 51  1  0
 30 52  1  0
 33 53  1  0
 34 54  1  0
M  END
>  <Binding energies>  (1) 
[-8.17]

>  <Ligand effiencies>  (1) 
[-0.23342857142857143]

>  <Interactions>  (1) 
["V-A:ILE:369:CG2:3237, V-A:ILE:369:CD1:3239, V-B:GLU:543:CD:9880, H-A:ARG:545:NH1:4927, H-A:ARG:545:NH2:4928, H-A:GLY:454:N:4050, V-A:ASP:366:CG:3213, H-A:TYR:484:OH:4348, V-B:GLU:543:CG:9879, H-A:ARG:545:NE:4924, V-A:ILE:369:CB:3236, V-A:GLU:543:CD:4908, V-A:ARG:545:CZ:4926, V-A:GLU:543:C:4902, V-B:GLU:543:C:9874, V-A:TYR:484:CZ:4347, V-B:GLU:543:CB:9878, V-A:GLU:543:CB:4906, V-B:HIS:456:CD2:9039, V-B:HIS:456:CE1:9041, V-B:GLY:544:C:9884, V-B:GLY:544:CA:9886, V-A:GLU:543:CG:4907, V-B:GLY:454:CA:9020, V-B:LEU:475:CD2:9230, H-B:LYS:547:NZ:9923"]

$$$$
1c_Grossjean_2025
     RDKit          3D

 40 41  0  0  0  0  0  0  0  0999 V2000
  128.6090  128.7750   73.4920 C   0  0  0  0  0  0  0  0  0  0  0  0
  129.8570  128.8450   72.8130 O   0  0  0  0  0  0  0  0  0  0  0  0
  129.9610  128.3210   71.5390 C   0  0  0  0  0  0  0  0  0  0  0  0
  128.8170  127.7130   71.0210 C   0  0  0  0  0  0  0  0  0  0  0  0
  128.8220  127.1570   69.7450 C   0  0  0  0  0  0  0  0  0  0  0  0
  129.9850  127.2100   68.9620 C   0  0  0  0  0  0  0  0  0  0  0  0
  130.1030  126.6710   67.6660 N   0  0  0  0  0  0  0  0  0  0  0  0
  129.8890  125.4070   67.2400 C   0  0  0  0  0  0  0  0  0  0  0  0
  129.5190  124.4690   67.9460 O   0  0  0  0  0  0  0  0  0  0  0  0
  130.1320  125.1680   65.7490 C   0  0  0  0  0  0  0  0  0  0  0  0
  129.9870  123.4100   65.3130 S   0  0  0  0  0  0  0  0  0  0  0  0
  130.6110  123.1870   63.6590 C   0  0  0  0  0  0  0  0  0  0  0  0
  129.7350  122.5630   62.8310 N   0  0  0  0  0  0  0  0  0  0  0  0
  130.0990  122.3380   61.5470 C   0  0  0  0  0  0  0  0  0  0  0  0
  129.0640  121.6460   60.6800 C   0  0  0  0  0  0  0  0  0  0  0  0
  131.3420  122.7110   61.0420 C   0  0  0  0  0  0  0  0  0  0  0  0
  132.2630  123.3330   61.8930 C   0  0  0  0  0  0  0  0  0  0  0  0
  133.6260  123.7170   61.3200 C   0  0  0  0  0  0  0  0  0  0  0  0
  131.9050  123.5760   63.2390 C   0  0  0  0  0  0  0  0  0  0  0  0
  132.8750  124.1760   64.1590 C   0  0  0  0  0  0  0  0  0  0  0  0
  133.6410  124.6510   64.8840 N   0  0  0  0  0  0  0  0  0  0  0  0
  131.1350  127.8070   69.4810 C   0  0  0  0  0  0  0  0  0  0  0  0
  131.1260  128.3620   70.7570 C   0  0  0  0  0  0  0  0  0  0  0  0
  128.7816  128.7847   74.5783 H   0  0  0  0  0  0  0  0  0  0  0  0
  127.9899  129.6398   73.2114 H   0  0  0  0  0  0  0  0  0  0  0  0
  128.0905  127.8464   73.2114 H   0  0  0  0  0  0  0  0  0  0  0  0
  127.9006  127.6726   71.6280 H   0  0  0  0  0  0  0  0  0  0  0  0
  127.9146  126.6763   69.3507 H   0  0  0  0  0  0  0  0  0  0  0  0
  130.3360  127.3470   66.9540 H   0  0  0  0  0  0  0  0  0  0  0  0
  129.3908  125.7400   65.1716 H   0  0  0  0  0  0  0  0  0  0  0  0
  131.1556  125.4947   65.5135 H   0  0  0  0  0  0  0  0  0  0  0  0
  128.3212  121.1494   61.3215 H   0  0  0  0  0  0  0  0  0  0  0  0
  128.5610  122.3901   60.0449 H   0  0  0  0  0  0  0  0  0  0  0  0
  129.5594  120.8968   60.0449 H   0  0  0  0  0  0  0  0  0  0  0  0
  131.5965  122.5195   59.9891 H   0  0  0  0  0  0  0  0  0  0  0  0
  134.3276  123.9147   62.1438 H   0  0  0  0  0  0  0  0  0  0  0  0
  134.0095  122.8919   60.7018 H   0  0  0  0  0  0  0  0  0  0  0  0
  133.5224  124.6209   60.7018 H   0  0  0  0  0  0  0  0  0  0  0  0
  132.0541  127.8389   68.8775 H   0  0  0  0  0  0  0  0  0  0  0  0
  132.0360  128.8350   71.1547 H   0  0  0  0  0  0  0  0  0  0  0  0
  1  2  1  0
  2  3  1  0
  3  4  2  0
  4  5  1  0
  5  6  2  0
  6  7  1  0
  7  8  1  0
  8  9  2  0
  8 10  1  0
 10 11  1  0
 11 12  1  0
 12 13  2  0
 13 14  1  0
 14 15  1  0
 14 16  2  0
 16 17  1  0
 17 18  1  0
 17 19  2  0
 19 20  1  0
 20 21  3  0
  6 22  1  0
 22 23  2  0
 23  3  1  0
 19 12  1  0
  1 24  1  0
  1 25  1  0
  1 26  1  0
  4 27  1  0
  5 28  1  0
  7 29  1  0
 10 30  1  0
 10 31  1  0
 15 32  1  0
 15 33  1  0
 15 34  1  0
 16 35  1  0
 18 36  1  0
 18 37  1  0
 18 38  1  0
 22 39  1  0
 23 40  1  0
M  END
>  <Binding energies>  (1) 
[-7.11]

>  <Ligand effiencies>  (1) 
[-0.29625]

>  <Interactions>  (1) 
["V-A:ILE:369:CD1:3239, H-A:ARG:545:NH2:4928, H-A:GLY:454:N:4050, H-A:GLU:543:OE1:4909, H-A:TYR:484:OH:4348, V-B:GLU:543:CG:9879, H-A:ARG:545:NE:4924, V-A:GLU:543:CD:4908, H-A:GLU:543:OE2:4910, V-A:LEU:475:CD2:4259, V-A:HIS:456:CE1:4070, V-A:GLY:454:CA:4049, V-B:TYR:539:C:9839, V-B:PRO:540:CA:9855, V-B:TYR:539:CE2:9848, V-B:PRO:540:C:9853, V-B:TYR:539:CD2:9846, V-A:GLU:543:C:4902, V-B:GLU:543:CA:9876, V-B:GLU:543:CB:9878, V-A:GLY:544:C:4912, V-A:GLU:543:CB:4906, V-B:HIS:456:CD2:9039, V-B:HIS:456:CE1:9041, V-A:ARG:545:CG:4922, H-A:LYS:547:NZ:4951, V-A:GLY:544:CA:4914"]

$$$$
1d_Ghoteimi_2023
     RDKit          3D

 50 52  0  0  0  0  0  0  0  0999 V2000
  131.7590  126.1360   59.1270 C   0  0  0  0  0  0  0  0  0  0  0  0
  132.0720  124.8500   58.6140 O   0  0  0  0  0  0  0  0  0  0  0  0
  133.3360  124.3810   58.6670 C   0  0  0  0  0  0  0  0  0  0  0  0
  133.9610  123.8650   57.7390 O   0  0  0  0  0  0  0  0  0  0  0  0
  133.9590  124.5460   60.0510 C   0  0  0  0  0  0  0  0  0  0  0  0
  133.3860  123.1600   61.0780 S   0  0  0  0  0  0  0  0  0  0  0  0
  131.8220  123.6410   61.7770 C   0  0  0  0  0  0  0  0  0  0  0  0
  130.7770  123.4960   60.9270 N   0  0  0  0  0  0  0  0  0  0  0  0
  129.5250  123.8300   61.3310 C   0  0  0  0  0  0  0  0  0  0  0  0
  128.4220  123.6350   60.3310 C   0  0  0  0  0  0  0  0  0  0  0  0
  128.6750  123.0800   59.0670 C   0  0  0  0  0  0  0  0  0  0  0  0
  127.6530  122.9060   58.1390 C   0  0  0  0  0  0  0  0  0  0  0  0
  126.3470  123.2810   58.4440 C   0  0  0  0  0  0  0  0  0  0  0  0
  125.3970  123.0740   57.4620 O   0  0  0  0  0  0  0  0  0  0  0  0
  124.6350  124.1810   56.9900 C   0  0  0  0  0  0  0  0  0  0  0  0
  126.0780  123.8370   59.7020 C   0  0  0  0  0  0  0  0  0  0  0  0
  127.1030  124.0080   60.6280 C   0  0  0  0  0  0  0  0  0  0  0  0
  129.2990  124.3150   62.6250 C   0  0  0  0  0  0  0  0  0  0  0  0
  130.3630  124.4880   63.5190 C   0  0  0  0  0  0  0  0  0  0  0  0
  130.0510  125.0170   64.8820 C   0  0  0  0  0  0  0  0  0  0  0  0
  129.4990  126.2920   65.0320 C   0  0  0  0  0  0  0  0  0  0  0  0
  129.2050  126.7910   66.2990 C   0  0  0  0  0  0  0  0  0  0  0  0
  129.4520  126.0250   67.4380 C   0  0  0  0  0  0  0  0  0  0  0  0
  129.1370  126.6030   68.6520 O   0  0  0  0  0  0  0  0  0  0  0  0
  129.1250  128.0220   68.7640 C   0  0  0  0  0  0  0  0  0  0  0  0
  129.9940  124.7390   67.2900 C   0  0  0  0  0  0  0  0  0  0  0  0
  130.2860  124.2420   66.0230 C   0  0  0  0  0  0  0  0  0  0  0  0
  131.6710  124.1630   63.0820 C   0  0  0  0  0  0  0  0  0  0  0  0
  132.8320  124.4220   63.9380 C   0  0  0  0  0  0  0  0  0  0  0  0
  133.7480  124.6270   64.6140 N   0  0  0  0  0  0  0  0  0  0  0  0
  131.7668  126.1040   60.2265 H   0  0  0  0  0  0  0  0  0  0  0  0
  132.5065  126.8627   58.7760 H   0  0  0  0  0  0  0  0  0  0  0  0
  130.7612  126.4379   58.7760 H   0  0  0  0  0  0  0  0  0  0  0  0
  135.0561  124.5273   59.9735 H   0  0  0  0  0  0  0  0  0  0  0  0
  133.6623  125.5068   60.4970 H   0  0  0  0  0  0  0  0  0  0  0  0
  129.6996  122.7772   58.8053 H   0  0  0  0  0  0  0  0  0  0  0  0
  127.8787  122.4682   57.1554 H   0  0  0  0  0  0  0  0  0  0  0  0
  124.2440  124.7490   57.8470 H   0  0  0  0  0  0  0  0  0  0  0  0
  125.2761  124.8337   56.3792 H   0  0  0  0  0  0  0  0  0  0  0  0
  123.7965  123.8152   56.3792 H   0  0  0  0  0  0  0  0  0  0  0  0
  125.0521  124.1397   59.9588 H   0  0  0  0  0  0  0  0  0  0  0  0
  126.8742  124.4440   61.6116 H   0  0  0  0  0  0  0  0  0  0  0  0
  128.2754  124.5626   62.9425 H   0  0  0  0  0  0  0  0  0  0  0  0
  129.2950  126.9064   64.1427 H   0  0  0  0  0  0  0  0  0  0  0  0
  128.7743  127.7979   66.4020 H   0  0  0  0  0  0  0  0  0  0  0  0
  129.1226  128.3059   69.8267 H   0  0  0  0  0  0  0  0  0  0  0  0
  130.0197  128.4359   68.2759 H   0  0  0  0  0  0  0  0  0  0  0  0
  128.2235  128.4207   68.2759 H   0  0  0  0  0  0  0  0  0  0  0  0
  130.1889  124.1212   68.1790 H   0  0  0  0  0  0  0  0  0  0  0  0
  130.7054  123.2306   65.9178 H   0  0  0  0  0  0  0  0  0  0  0  0
  1  2  1  0
  2  3  1  0
  3  4  2  0
  3  5  1  0
  5  6  1  0
  6  7  1  0
  7  8  2  0
  8  9  1  0
  9 10  1  0
 10 11  2  0
 11 12  1  0
 12 13  2  0
 13 14  1  0
 14 15  1  0
 13 16  1  0
 16 17  2  0
  9 18  2  0
 18 19  1  0
 19 20  1  0
 20 21  2  0
 21 22  1  0
 22 23  2  0
 23 24  1  0
 24 25  1  0
 23 26  1  0
 26 27  2  0
 19 28  2  0
 28 29  1  0
 29 30  3  0
 28  7  1  0
 17 10  1  0
 27 20  1  0
  1 31  1  0
  1 32  1  0
  1 33  1  0
  5 34  1  0
  5 35  1  0
 11 36  1  0
 12 37  1  0
 15 38  1  0
 15 39  1  0
 15 40  1  0
 16 41  1  0
 17 42  1  0
 18 43  1  0
 21 44  1  0
 22 45  1  0
 25 46  1  0
 25 47  1  0
 25 48  1  0
 26 49  1  0
 27 50  1  0
M  END
>  <Binding energies>  (1) 
[-7.7]

>  <Ligand effiencies>  (1) 
[-0.25666666666666665]

>  <Interactions>  (1) 
["V-A:ILE:369:CG2:3237, V-A:ILE:369:CD1:3239, V-A:ASP:366:CB:3212, V-B:GLU:543:CD:9880, H-A:ARG:545:NH2:4928, H-A:GLY:454:N:4050, V-A:ASP:366:CA:3210, V-A:ASP:366:CG:3213, H-A:TYR:484:OH:4348, V-B:GLU:543:CG:9879, H-A:ARG:545:NE:4924, V-A:GLU:543:CD:4908, V-A:ARG:545:CZ:4926, V-A:HIS:456:CE1:4070, V-B:TYR:539:C:9839, V-B:TYR:531:CE2:9765, V-B:PRO:540:CA:9855, V-B:PRO:540:CB:9857, V-B:PRO:540:N:9856, V-B:LEU:363:CD1:8160, V-B:MET:535:CE:9807, V-B:TYR:539:CZ:9849, V-B:TYR:539:CE2:9848, V-B:TYR:539:CD2:9846, V-A:TYR:484:CE2:4346, V-B:GLU:543:CA:9876, V-A:TYR:484:CZ:4347, V-B:GLU:543:CB:9878, V-A:GLU:543:CB:4906, V-B:HIS:456:CE1:9041, H-B:TYR:539:OH:9850, H-A:ASN:370:N:3244"]

$$$$
1d_Grossjean_2025
     RDKit          3D

 36 37  0  0  0  0  0  0  0  0999 V2000
  128.6010  122.3710   62.0320 C   0  0  0  0  0  0  0  0  0  0  0  0
  129.7530  122.9910   62.7990 C   0  0  0  0  0  0  0  0  0  0  0  0
  129.5480  123.6750   63.9960 C   0  0  0  0  0  0  0  0  0  0  0  0
  130.6490  124.2180   64.6660 C   0  0  0  0  0  0  0  0  0  0  0  0
  130.4020  124.9490   65.9840 C   0  0  0  0  0  0  0  0  0  0  0  0
  131.9400  124.0690   64.1080 C   0  0  0  0  0  0  0  0  0  0  0  0
  133.1130  124.5880   64.8160 C   0  0  0  0  0  0  0  0  0  0  0  0
  134.0370  124.9990   65.3780 N   0  0  0  0  0  0  0  0  0  0  0  0
  132.0510  123.3810   62.8770 C   0  0  0  0  0  0  0  0  0  0  0  0
  133.5930  123.1020   62.0350 S   0  0  0  0  0  0  0  0  0  0  0  0
  133.1990  122.5150   60.3600 C   0  0  0  0  0  0  0  0  0  0  0  0
  132.8330  121.0300   60.3410 C   0  0  0  0  0  0  0  0  0  0  0  0
  133.6960  120.2030   60.0460 O   0  0  0  0  0  0  0  0  0  0  0  0
  131.5580  120.7440   60.6840 N   0  0  0  0  0  0  0  0  0  0  0  0
  130.8990  119.5030   60.7510 C   0  0  0  0  0  0  0  0  0  0  0  0
  129.8910  119.4040   61.7140 C   0  0  0  0  0  0  0  0  0  0  0  0
  129.1720  118.2210   61.8610 C   0  0  0  0  0  0  0  0  0  0  0  0
  129.4570  117.1340   61.0380 C   0  0  0  0  0  0  0  0  0  0  0  0
  130.4530  117.2220   60.0680 C   0  0  0  0  0  0  0  0  0  0  0  0
  131.1740  118.4040   59.9200 C   0  0  0  0  0  0  0  0  0  0  0  0
  130.9790  122.8390   62.2460 N   0  0  0  0  0  0  0  0  0  0  0  0
  127.8606  121.9725   62.7412 H   0  0  0  0  0  0  0  0  0  0  0  0
  128.1278  123.1363   61.3992 H   0  0  0  0  0  0  0  0  0  0  0  0
  128.9791  121.5545   61.3992 H   0  0  0  0  0  0  0  0  0  0  0  0
  128.5342  123.7862   64.4080 H   0  0  0  0  0  0  0  0  0  0  0  0
  130.6292  124.2766   66.8244 H   0  0  0  0  0  0  0  0  0  0  0  0
  131.0503  125.8360   66.0384 H   0  0  0  0  0  0  0  0  0  0  0  0
  129.3486  125.2609   66.0384 H   0  0  0  0  0  0  0  0  0  0  0  0
  132.3485  123.0948   59.9721 H   0  0  0  0  0  0  0  0  0  0  0  0
  134.0937  122.6510   59.7347 H   0  0  0  0  0  0  0  0  0  0  0  0
  130.9820  121.5310   60.9480 H   0  0  0  0  0  0  0  0  0  0  0  0
  129.6645  120.2655   62.3593 H   0  0  0  0  0  0  0  0  0  0  0  0
  128.3827  118.1451   62.6234 H   0  0  0  0  0  0  0  0  0  0  0  0
  128.8908  116.1982   61.1550 H   0  0  0  0  0  0  0  0  0  0  0  0
  130.6694  116.3596   59.4204 H   0  0  0  0  0  0  0  0  0  0  0  0
  131.9587  118.4773   59.1526 H   0  0  0  0  0  0  0  0  0  0  0  0
  1  2  1  0
  2  3  2  0
  3  4  1  0
  4  5  1  0
  4  6  2  0
  6  7  1  0
  7  8  3  0
  6  9  1  0
  9 10  1  0
 10 11  1  0
 11 12  1  0
 12 13  2  0
 12 14  1  0
 14 15  1  0
 15 16  2  0
 16 17  1  0
 17 18  2  0
 18 19  1  0
 19 20  2  0
  9 21  2  0
 21  2  1  0
 20 15  1  0
  1 22  1  0
  1 23  1  0
  1 24  1  0
  3 25  1  0
  5 26  1  0
  5 27  1  0
  5 28  1  0
 11 29  1  0
 11 30  1  0
 14 31  1  0
 16 32  1  0
 17 33  1  0
 18 34  1  0
 19 35  1  0
 20 36  1  0
M  END
>  <Binding energies>  (1) 
[-6.68]

>  <Ligand effiencies>  (1) 
[-0.30363636363636365]

>  <Interactions>  (1) 
["V-A:ILE:369:CG2:3237, V-B:GLU:543:CD:9880, H-A:ARG:545:NH2:4928, H-A:GLY:454:N:4050, H-A:TYR:484:OH:4348, V-B:GLU:543:CG:9879, H-A:ARG:545:NE:4924, V-A:ARG:545:CZ:4926, V-A:LEU:475:CD2:4259, V-B:ALA:541:CB:9864, V-A:GLY:454:CA:4049, V-B:TYR:539:C:9839, V-B:TYR:539:CE2:9848, V-B:PRO:540:C:9853, V-B:TYR:539:CD2:9846, V-B:TYR:539:CG:9844, V-B:ALA:541:CA:9862, V-A:TYR:484:CE2:4346, V-A:PRO:482:CB:4326, V-A:HIS:383:CE1:3393, V-A:PRO:482:CG:4327, V-A:HIS:383:NE2:3394, H-A:SER:385:OG:3410, V-A:LEU:475:CG:4257, V-A:LEU:475:CD1:4258, V-B:VAL:344:CG1:7972, V-B:TYR:539:CB:9843"]

$$$$
1e_Grossjean_2025
     RDKit          3D

 38 39  0  0  0  0  0  0  0  0999 V2000
  127.4680  126.9800   71.3200 C   0  0  0  0  0  0  0  0  0  0  0  0
  128.7400  127.2400   70.5360 C   0  0  0  0  0  0  0  0  0  0  0  0
  129.7630  128.0430   71.0480 C   0  0  0  0  0  0  0  0  0  0  0  0
  130.9040  128.2400   70.2700 C   0  0  0  0  0  0  0  0  0  0  0  0
  130.9950  127.6390   69.0120 C   0  0  0  0  0  0  0  0  0  0  0  0
  129.9350  126.8420   68.5610 C   0  0  0  0  0  0  0  0  0  0  0  0
  130.0790  126.2730   67.2830 N   0  0  0  0  0  0  0  0  0  0  0  0
  129.8690  124.9940   66.9040 C   0  0  0  0  0  0  0  0  0  0  0  0
  129.5130  124.0840   67.6550 O   0  0  0  0  0  0  0  0  0  0  0  0
  130.1300  124.6850   65.4290 C   0  0  0  0  0  0  0  0  0  0  0  0
  129.6660  122.9810   64.9970 S   0  0  0  0  0  0  0  0  0  0  0  0
  130.0870  122.6900   63.2900 C   0  0  0  0  0  0  0  0  0  0  0  0
  131.4210  122.5530   63.0790 N   0  0  0  0  0  0  0  0  0  0  0  0
  131.8630  122.3310   61.8190 C   0  0  0  0  0  0  0  0  0  0  0  0
  133.3640  122.1810   61.6630 C   0  0  0  0  0  0  0  0  0  0  0  0
  131.0040  122.2490   60.7260 C   0  0  0  0  0  0  0  0  0  0  0  0
  129.6300  122.4130   60.9270 C   0  0  0  0  0  0  0  0  0  0  0  0
  128.7110  122.3360   59.7090 C   0  0  0  0  0  0  0  0  0  0  0  0
  129.1460  122.6490   62.2340 C   0  0  0  0  0  0  0  0  0  0  0  0
  127.7160  122.8820   62.4540 C   0  0  0  0  0  0  0  0  0  0  0  0
  126.5860  123.0650   62.6250 N   0  0  0  0  0  0  0  0  0  0  0  0
  128.8140  126.6490   69.3170 N   0  0  0  0  0  0  0  0  0  0  0  0
  127.6857  127.0245   72.3973 H   0  0  0  0  0  0  0  0  0  0  0  0
  126.7180  127.7434   71.0657 H   0  0  0  0  0  0  0  0  0  0  0  0
  127.0777  125.9835   71.0657 H   0  0  0  0  0  0  0  0  0  0  0  0
  129.6706  128.5084   72.0404 H   0  0  0  0  0  0  0  0  0  0  0  0
  131.7277  128.8652   70.6450 H   0  0  0  0  0  0  0  0  0  0  0  0
  131.8861  127.7895   68.3848 H   0  0  0  0  0  0  0  0  0  0  0  0
  130.4350  126.9020   66.5790 H   0  0  0  0  0  0  0  0  0  0  0  0
  129.5427  125.3803   64.8113 H   0  0  0  0  0  0  0  0  0  0  0  0
  131.2080  124.8008   65.2434 H   0  0  0  0  0  0  0  0  0  0  0  0
  133.8331  122.1341   62.6569 H   0  0  0  0  0  0  0  0  0  0  0  0
  133.5845  121.2563   61.1095 H   0  0  0  0  0  0  0  0  0  0  0  0
  133.7631  123.0437   61.1095 H   0  0  0  0  0  0  0  0  0  0  0  0
  131.4010  122.0578   59.7181 H   0  0  0  0  0  0  0  0  0  0  0  0
  127.6665  122.2485   60.0427 H   0  0  0  0  0  0  0  0  0  0  0  0
  128.8274  123.2470   59.1037 H   0  0  0  0  0  0  0  0  0  0  0  0
  128.9774  121.4570   59.1037 H   0  0  0  0  0  0  0  0  0  0  0  0
  1  2  1  0
  2  3  2  0
  3  4  1  0
  4  5  2  0
  5  6  1  0
  6  7  1  0
  7  8  1  0
  8  9  2  0
  8 10  1  0
 10 11  1  0
 11 12  1  0
 12 13  2  0
 13 14  1  0
 14 15  1  0
 14 16  2  0
 16 17  1  0
 17 18  1  0
 17 19  2  0
 19 20  1  0
 20 21  3  0
  6 22  2  0
 22  2  1  0
 19 12  1  0
  1 23  1  0
  1 24  1  0
  1 25  1  0
  3 26  1  0
  4 27  1  0
  5 28  1  0
  7 29  1  0
 10 30  1  0
 10 31  1  0
 15 32  1  0
 15 33  1  0
 15 34  1  0
 16 35  1  0
 18 36  1  0
 18 37  1  0
 18 38  1  0
M  END
>  <Binding energies>  (1) 
[-6.87]

>  <Ligand effiencies>  (1) 
[-0.29869565217391303]

>  <Interactions>  (1) 
["V-A:ILE:369:CG2:3237, V-B:GLU:543:CD:9880, H-A:GLU:543:OE1:4909, H-A:TYR:484:OH:4348, V-B:GLU:543:CG:9879, V-A:GLU:543:CD:4908, H-A:GLU:543:OE2:4910, V-A:LEU:475:CD2:4259, V-A:HIS:456:CE1:4070, V-B:ALA:541:CB:9864, V-B:TYR:539:C:9839, H-B:ALA:541:N:9863, V-B:PRO:540:CA:9855, V-B:PRO:540:N:9856, V-B:TYR:539:CE2:9848, V-B:TYR:539:CD2:9846, V-B:ALA:541:CA:9862, V-A:TYR:484:CE2:4346, V-A:GLU:543:C:4902, V-B:GLU:543:C:9874, V-B:GLU:543:CA:9876, V-B:GLU:543:CB:9878, V-A:GLY:544:C:4912, V-A:GLU:543:CB:4906, V-B:HIS:456:CD2:9039, V-B:HIS:456:CE1:9041, V-B:GLY:544:C:9884, V-B:GLY:544:CA:9886, V-A:ARG:545:CG:4922"]

$$$$
1f_Grossjean_2025
     RDKit          3D

 35 36  0  0  0  0  0  0  0  0999 V2000
  130.0890  125.7150   57.9670 C   0  0  0  0  0  0  0  0  0  0  0  0
  130.9580  124.9060   58.9130 C   0  0  0  0  0  0  0  0  0  0  0  0
  132.3480  124.9630   58.8560 C   0  0  0  0  0  0  0  0  0  0  0  0
  133.0960  124.1860   59.7460 C   0  0  0  0  0  0  0  0  0  0  0  0
  134.6190  124.2510   59.6520 C   0  0  0  0  0  0  0  0  0  0  0  0
  132.4250  123.3700   60.6860 C   0  0  0  0  0  0  0  0  0  0  0  0
  133.1910  122.5070   61.5880 C   0  0  0  0  0  0  0  0  0  0  0  0
  133.7970  121.8260   62.3010 N   0  0  0  0  0  0  0  0  0  0  0  0
  131.0100  123.3960   60.6910 C   0  0  0  0  0  0  0  0  0  0  0  0
  129.9950  122.4390   61.7990 S   0  0  0  0  0  0  0  0  0  0  0  0
  128.4630  123.3730   62.1290 C   0  0  0  0  0  0  0  0  0  0  0  0
  127.3240  123.1210   61.1290 C   0  0  0  0  0  0  0  0  0  0  0  0
  126.2070  122.7880   61.5260 O   0  0  0  0  0  0  0  0  0  0  0  0
  127.6710  123.2720   59.8340 N   0  0  0  0  0  0  0  0  0  0  0  0
  126.8900  123.1290   58.6710 C   0  0  0  0  0  0  0  0  0  0  0  0
  125.6580  123.7660   58.4280 C   0  0  0  0  0  0  0  0  0  0  0  0
  124.9880  123.5370   57.2240 C   0  0  0  0  0  0  0  0  0  0  0  0
  125.5660  122.6780   56.2890 C   0  0  0  0  0  0  0  0  0  0  0  0
  126.7540  122.0560   56.4970 N   0  0  0  0  0  0  0  0  0  0  0  0
  127.3940  122.2890   57.6720 C   0  0  0  0  0  0  0  0  0  0  0  0
  130.2940  124.1360   59.8070 N   0  0  0  0  0  0  0  0  0  0  0  0
  129.4061  126.3508   58.5496 H   0  0  0  0  0  0  0  0  0  0  0  0
  130.7276  126.3476   57.3330 H   0  0  0  0  0  0  0  0  0  0  0  0
  129.5036  125.0328   57.3330 H   0  0  0  0  0  0  0  0  0  0  0  0
  132.8504  125.6098   58.1216 H   0  0  0  0  0  0  0  0  0  0  0  0
  135.0484  124.2693   60.6646 H   0  0  0  0  0  0  0  0  0  0  0  0
  134.9911  123.3679   59.1119 H   0  0  0  0  0  0  0  0  0  0  0  0
  134.9145  125.1626   59.1119 H   0  0  0  0  0  0  0  0  0  0  0  0
  128.1044  123.0980   63.1319 H   0  0  0  0  0  0  0  0  0  0  0  0
  128.7246  124.4375   62.0370 H   0  0  0  0  0  0  0  0  0  0  0  0
  128.6370  123.5080   59.6570 H   0  0  0  0  0  0  0  0  0  0  0  0
  125.2257  124.4401   59.1821 H   0  0  0  0  0  0  0  0  0  0  0  0
  124.0238  124.0243   57.0172 H   0  0  0  0  0  0  0  0  0  0  0  0
  125.0359  122.4971   55.3423 H   0  0  0  0  0  0  0  0  0  0  0  0
  128.3591  121.7913   57.8475 H   0  0  0  0  0  0  0  0  0  0  0  0
  1  2  1  0
  2  3  2  0
  3  4  1  0
  4  5  1  0
  4  6  2  0
  6  7  1  0
  7  8  3  0
  6  9  1  0
  9 10  1  0
 10 11  1  0
 11 12  1  0
 12 13  2  0
 12 14  1  0
 14 15  1  0
 15 16  2  0
 16 17  1  0
 17 18  2  0
 18 19  1  0
 19 20  2  0
  9 21  2  0
 21  2  1  0
 20 15  1  0
  1 22  1  0
  1 23  1  0
  1 24  1  0
  3 25  1  0
  5 26  1  0
  5 27  1  0
  5 28  1  0
 11 29  1  0
 11 30  1  0
 14 31  1  0
 16 32  1  0
 17 33  1  0
 18 34  1  0
 20 35  1  0
M  END
>  <Binding energies>  (1) 
[-6.59]

>  <Ligand effiencies>  (1) 
[-0.29954545454545456]

>  <Interactions>  (1) 
["V-A:ILE:369:CG2:3237, V-A:ILE:369:CD1:3239, V-A:ASP:366:CB:3212, H-A:GLY:454:N:4050, V-A:ASP:366:CA:3210, V-A:ASP:366:CG:3213, V-A:ILE:369:CB:3236, V-A:LEU:475:CD2:4259, V-B:TYR:539:C:9839, H-B:ALA:541:N:9863, V-B:PRO:540:CD:9859, V-B:PRO:540:CA:9855, V-B:PRO:540:CB:9857, V-B:PRO:540:N:9856, V-B:LEU:363:CD1:8160, V-B:MET:535:CE:9807, V-B:TYR:539:CZ:9849, V-B:TYR:539:CE2:9848, V-B:TYR:539:CD1:9845, V-B:TYR:539:CA:9841, H-B:TYR:539:N:9842, V-B:PRO:540:C:9853, V-B:TYR:539:CD2:9846, V-B:ILE:538:CG2:9835, V-B:TYR:539:CG:9844, V-A:ASP:366:C:3208, V-A:ILE:369:CG1:3238"]

$$$$
1g_Grossjean_2025
     RDKit          3D

 39 40  0  0  0  0  0  0  0  0999 V2000
  128.9500  121.9750   60.5890 C   0  0  0  0  0  0  0  0  0  0  0  0
  130.0810  122.5980   61.3850 C   0  0  0  0  0  0  0  0  0  0  0  0
  131.2530  123.0340   60.7690 C   0  0  0  0  0  0  0  0  0  0  0  0
  132.2690  123.5860   61.5570 C   0  0  0  0  0  0  0  0  0  0  0  0
  133.5500  124.0440   60.8620 C   0  0  0  0  0  0  0  0  0  0  0  0
  132.0790  123.6960   62.9530 C   0  0  0  0  0  0  0  0  0  0  0  0
  133.1500  124.2220   63.8040 C   0  0  0  0  0  0  0  0  0  0  0  0
  133.9980  124.6370   64.4730 N   0  0  0  0  0  0  0  0  0  0  0  0
  130.8480  123.2510   63.4890 C   0  0  0  0  0  0  0  0  0  0  0  0
  130.4390  123.3230   65.2190 S   0  0  0  0  0  0  0  0  0  0  0  0
  130.8940  124.9810   65.8120 C   0  0  0  0  0  0  0  0  0  0  0  0
  129.8970  125.5140   66.8410 C   0  0  0  0  0  0  0  0  0  0  0  0
  129.5200  124.7930   67.7660 O   0  0  0  0  0  0  0  0  0  0  0  0
  129.4750  126.7780   66.6620 N   0  0  0  0  0  0  0  0  0  0  0  0
  128.5710  127.5050   67.5530 C   0  0  0  0  0  0  0  0  0  0  0  0
  128.9980  127.5030   69.0180 C   0  0  0  0  0  0  0  0  0  0  0  0
  128.1360  126.9950   69.9950 C   0  0  0  0  0  0  0  0  0  0  0  0
  128.5250  126.9920   71.3320 C   0  0  0  0  0  0  0  0  0  0  0  0
  129.7770  127.4920   71.6870 C   0  0  0  0  0  0  0  0  0  0  0  0
  130.6420  127.9950   70.7180 C   0  0  0  0  0  0  0  0  0  0  0  0
  130.2530  128.0000   69.3810 C   0  0  0  0  0  0  0  0  0  0  0  0
  129.8770  122.6960   62.7200 N   0  0  0  0  0  0  0  0  0  0  0  0
  128.1999  121.5618   61.2794 H   0  0  0  0  0  0  0  0  0  0  0  0
  128.4816  122.7424   59.9552 H   0  0  0  0  0  0  0  0  0  0  0  0
  129.3483  121.1690   59.9552 H   0  0  0  0  0  0  0  0  0  0  0  0
  131.3773  122.9454   59.6796 H   0  0  0  0  0  0  0  0  0  0  0  0
  134.3017  124.3128   61.6187 H   0  0  0  0  0  0  0  0  0  0  0  0
  133.9377  123.2288   60.2334 H   0  0  0  0  0  0  0  0  0  0  0  0
  133.3330  124.9202   60.2334 H   0  0  0  0  0  0  0  0  0  0  0  0
  131.8904  124.9315   66.2753 H   0  0  0  0  0  0  0  0  0  0  0  0
  130.8901  125.6636   64.9494 H   0  0  0  0  0  0  0  0  0  0  0  0
  129.8520  127.3040   65.8860 H   0  0  0  0  0  0  0  0  0  0  0  0
  128.5165  128.5492   67.2114 H   0  0  0  0  0  0  0  0  0  0  0  0
  127.6006  126.9891   67.5068 H   0  0  0  0  0  0  0  0  0  0  0  0
  127.1512  126.5980   69.7075 H   0  0  0  0  0  0  0  0  0  0  0  0
  127.8481  126.5972   72.1040 H   0  0  0  0  0  0  0  0  0  0  0  0
  130.0849  127.4893   72.7430 H   0  0  0  0  0  0  0  0  0  0  0  0
  131.6282  128.3866   71.0077 H   0  0  0  0  0  0  0  0  0  0  0  0
  130.9326  128.3946   68.6113 H   0  0  0  0  0  0  0  0  0  0  0  0
  1  2  1  0
  2  3  2  0
  3  4  1  0
  4  5  1  0
  4  6  2  0
  6  7  1  0
  7  8  3  0
  6  9  1  0
  9 10  1  0
 10 11  1  0
 11 12  1  0
 12 13  2  0
 12 14  1  0
 14 15  1  0
 15 16  1  0
 16 17  2  0
 17 18  1  0
 18 19  2  0
 19 20  1  0
 20 21  2  0
  9 22  2  0
 22  2  1  0
 21 16  1  0
  1 23  1  0
  1 24  1  0
  1 25  1  0
  3 26  1  0
  5 27  1  0
  5 28  1  0
  5 29  1  0
 11 30  1  0
 11 31  1  0
 14 32  1  0
 15 33  1  0
 15 34  1  0
 17 35  1  0
 18 36  1  0
 19 37  1  0
 20 38  1  0
 21 39  1  0
M  END
>  <Binding energies>  (1) 
[-6.91]

>  <Ligand effiencies>  (1) 
[-0.30043478260869566]

>  <Interactions>  (1) 
["V-A:ILE:369:CD1:3239, V-B:GLU:543:CD:9880, H-A:ARG:545:NH2:4928, H-A:GLY:454:N:4050, H-A:GLU:543:OE1:4909, H-A:TYR:484:OH:4348, V-B:GLU:543:CG:9879, H-A:ARG:545:NE:4924, V-A:GLU:543:CD:4908, H-A:GLU:543:OE2:4910, V-A:LEU:475:CD2:4259, V-A:HIS:456:CE1:4070, V-A:GLY:454:CA:4049, V-B:TYR:539:C:9839, V-B:PRO:540:CA:9855, V-B:TYR:539:CE2:9848, V-B:TYR:539:CD2:9846, V-A:GLU:543:C:4902, V-B:GLU:543:C:9874, V-A:TYR:484:CZ:4347, V-B:GLU:543:CB:9878, V-A:GLY:544:C:4912, V-A:GLU:543:CB:4906, V-B:HIS:456:CE1:9041"]

$$$$
1h_Grossjean_2025
     RDKit          3D

 51 52  0  0  0  0  0  0  0  0999 V2000
  126.7500  126.8590   61.2280 C   0  0  0  0  0  0  0  0  0  0  0  0
  127.0090  125.4670   61.0860 O   0  0  0  0  0  0  0  0  0  0  0  0
  127.7360  125.0200   59.9980 C   0  0  0  0  0  0  0  0  0  0  0  0
  128.9900  125.5310   59.6300 C   0  0  0  0  0  0  0  0  0  0  0  0
  129.6620  125.0400   58.5090 C   0  0  0  0  0  0  0  0  0  0  0  0
  131.0350  125.5890   58.1340 C   0  0  0  0  0  0  0  0  0  0  0  0
  132.0740  125.3250   59.1290 N   0  0  0  0  0  0  0  0  0  0  0  0
  133.2230  124.6650   58.8960 C   0  0  0  0  0  0  0  0  0  0  0  0
  133.5460  124.2240   57.7930 O   0  0  0  0  0  0  0  0  0  0  0  0
  134.1490  124.4660   60.0960 C   0  0  0  0  0  0  0  0  0  0  0  0
  133.8270  122.8940   60.9520 S   0  0  0  0  0  0  0  0  0  0  0  0
  132.2250  123.0070   61.7310 C   0  0  0  0  0  0  0  0  0  0  0  0
  131.2090  122.3770   61.0840 N   0  0  0  0  0  0  0  0  0  0  0  0
  129.9680  122.4190   61.6230 C   0  0  0  0  0  0  0  0  0  0  0  0
  128.8880  121.6900   60.8460 C   0  0  0  0  0  0  0  0  0  0  0  0
  129.6870  123.0840   62.8150 C   0  0  0  0  0  0  0  0  0  0  0  0
  130.7240  123.7380   63.4890 C   0  0  0  0  0  0  0  0  0  0  0  0
  130.3950  124.4590   64.7940 C   0  0  0  0  0  0  0  0  0  0  0  0
  132.0280  123.7060   62.9440 C   0  0  0  0  0  0  0  0  0  0  0  0
  133.1330  124.3850   63.6270 C   0  0  0  0  0  0  0  0  0  0  0  0
  134.0060  124.9210   64.1660 N   0  0  0  0  0  0  0  0  0  0  0  0
  129.0960  124.0030   57.7670 C   0  0  0  0  0  0  0  0  0  0  0  0
  127.8450  123.4680   58.1150 C   0  0  0  0  0  0  0  0  0  0  0  0
  127.2240  122.4430   57.4250 O   0  0  0  0  0  0  0  0  0  0  0  0
  126.3990  122.7520   56.3070 C   0  0  0  0  0  0  0  0  0  0  0  0
  127.1700  123.9930   59.2270 C   0  0  0  0  0  0  0  0  0  0  0  0
  125.9490  123.4760   59.5840 O   0  0  0  0  0  0  0  0  0  0  0  0
  124.8410  124.2360   59.1200 C   0  0  0  0  0  0  0  0  0  0  0  0
  126.7022  127.1159   62.2965 H   0  0  0  0  0  0  0  0  0  0  0  0
  127.5568  127.4328   60.7486 H   0  0  0  0  0  0  0  0  0  0  0  0
  125.7908  127.1043   60.7486 H   0  0  0  0  0  0  0  0  0  0  0  0
  129.4494  126.3286   60.2324 H   0  0  0  0  0  0  0  0  0  0  0  0
  131.3427  125.1304   57.1827 H   0  0  0  0  0  0  0  0  0  0  0  0
  130.9321  126.6819   58.0640 H   0  0  0  0  0  0  0  0  0  0  0  0
  131.8810  125.6410   60.0680 H   0  0  0  0  0  0  0  0  0  0  0  0
  135.1915  124.4721   59.7450 H   0  0  0  0  0  0  0  0  0  0  0  0
  133.9638  125.2843   60.8074 H   0  0  0  0  0  0  0  0  0  0  0  0
  128.1867  121.2166   61.5490 H   0  0  0  0  0  0  0  0  0  0  0  0
  128.3446  122.4068   60.2128 H   0  0  0  0  0  0  0  0  0  0  0  0
  129.3496  120.9180   60.2128 H   0  0  0  0  0  0  0  0  0  0  0  0
  128.6644  123.0946   63.2202 H   0  0  0  0  0  0  0  0  0  0  0  0
  130.6840  123.8257   65.6457 H   0  0  0  0  0  0  0  0  0  0  0  0
  130.9491  125.4082   64.8382 H   0  0  0  0  0  0  0  0  0  0  0  0
  129.3149  124.6625   64.8382 H   0  0  0  0  0  0  0  0  0  0  0  0
  129.6365  123.5992   56.8982 H   0  0  0  0  0  0  0  0  0  0  0  0
  125.4236  123.1173   56.6609 H   0  0  0  0  0  0  0  0  0  0  0  0
  126.8829  123.5298   55.6981 H   0  0  0  0  0  0  0  0  0  0  0  0
  126.2529  121.8477   55.6981 H   0  0  0  0  0  0  0  0  0  0  0  0
  124.2760  124.6235   59.9806 H   0  0  0  0  0  0  0  0  0  0  0  0
  125.2028  125.0770   58.5102 H   0  0  0  0  0  0  0  0  0  0  0  0
  124.1867  123.5956   58.5102 H   0  0  0  0  0  0  0  0  0  0  0  0
  1  2  1  0
  2  3  1  0
  3  4  2  0
  4  5  1  0
  5  6  1  0
  6  7  1  0
  7  8  1  0
  8  9  2  0
  8 10  1  0
 10 11  1  0
 11 12  1  0
 12 13  2  0
 13 14  1  0
 14 15  1  0
 14 16  2  0
 16 17  1  0
 17 18  1  0
 17 19  2  0
 19 20  1  0
 20 21  3  0
  5 22  2  0
 22 23  1  0
 23 24  1  0
 24 25  1  0
 23 26  2  0
 26 27  1  0
 27 28  1  0
 26  3  1  0
 19 12  1  0
  1 29  1  0
  1 30  1  0
  1 31  1  0
  4 32  1  0
  6 33  1  0
  6 34  1  0
  7 35  1  0
 10 36  1  0
 10 37  1  0
 15 38  1  0
 15 39  1  0
 15 40  1  0
 16 41  1  0
 18 42  1  0
 18 43  1  0
 18 44  1  0
 22 45  1  0
 25 46  1  0
 25 47  1  0
 25 48  1  0
 28 49  1  0
 28 50  1  0
 28 51  1  0
M  END
>  <Binding energies>  (1) 
[-5.94]

>  <Ligand effiencies>  (1) 
[-0.20482758620689656]

>  <Interactions>  (1) 
["V-A:ILE:369:CG2:3237, V-A:ILE:369:CD1:3239, V-A:ASP:366:CB:3212, H-A:ARG:545:NH1:4927, H-A:ARG:545:NH2:4928, H-A:GLY:454:N:4050, V-A:ASP:366:CA:3210, V-A:ASP:366:CG:3213, V-B:GLU:543:CG:9879, H-A:ARG:545:NE:4924, V-A:ILE:369:CB:3236, V-A:ARG:545:CZ:4926, V-B:TYR:539:C:9839, V-B:ASP:366:CG:8184, V-B:PRO:540:CA:9855, V-B:PRO:540:CB:9857, V-B:PRO:540:N:9856, V-B:MET:535:CE:9807, V-B:TYR:539:CZ:9849, V-B:TYR:539:CE2:9848, H-B:TYR:539:N:9842, V-B:PRO:540:C:9853, V-B:TYR:539:CE1:9847, V-B:TYR:539:CD2:9846, H-B:TYR:539:OH:9850"]

$$$$
1i_Grossjean_2025
     RDKit          3D

 32 33  0  0  0  0  0  0  0  0999 V2000
  128.5190  122.0230   62.0400 C   0  0  0  0  0  0  0  0  0  0  0  0
  129.6830  122.7240   62.7130 C   0  0  0  0  0  0  0  0  0  0  0  0
  129.4850  123.6630   63.7230 C   0  0  0  0  0  0  0  0  0  0  0  0
  130.5980  124.2710   64.3140 C   0  0  0  0  0  0  0  0  0  0  0  0
  130.3550  125.2840   65.4310 C   0  0  0  0  0  0  0  0  0  0  0  0
  131.8940  123.9220   63.8690 C   0  0  0  0  0  0  0  0  0  0  0  0
  133.0740  124.5090   64.5090 C   0  0  0  0  0  0  0  0  0  0  0  0
  134.0050  124.9730   65.0170 N   0  0  0  0  0  0  0  0  0  0  0  0
  132.0000  122.9770   62.8210 C   0  0  0  0  0  0  0  0  0  0  0  0
  133.5480  122.4260   62.1390 S   0  0  0  0  0  0  0  0  0  0  0  0
  133.2610  122.0060   60.3940 C   0  0  0  0  0  0  0  0  0  0  0  0
  132.8470  120.5430   60.2150 C   0  0  0  0  0  0  0  0  0  0  0  0
  133.5930  119.7750   59.6060 O   0  0  0  0  0  0  0  0  0  0  0  0
  131.6590  120.2030   60.7600 N   0  0  0  0  0  0  0  0  0  0  0  0
  131.0500  118.9570   60.7390 C   0  0  0  0  0  0  0  0  0  0  0  0
  130.0030  118.6070   61.5900 C   0  0  0  0  0  0  0  0  0  0  0  0
  129.6880  117.3100   61.2570 C   0  0  0  0  0  0  0  0  0  0  0  0
  130.5050  116.8990   60.2580 O   0  0  0  0  0  0  0  0  0  0  0  0
  131.3650  117.9510   59.9390 N   0  0  0  0  0  0  0  0  0  0  0  0
  130.9150  122.3790   62.2680 N   0  0  0  0  0  0  0  0  0  0  0  0
  127.8432  121.6160   62.8066 H   0  0  0  0  0  0  0  0  0  0  0  0
  127.9713  122.7416   61.4126 H   0  0  0  0  0  0  0  0  0  0  0  0
  128.8980  121.2028   61.4126 H   0  0  0  0  0  0  0  0  0  0  0  0
  128.4678  123.9228   64.0513 H   0  0  0  0  0  0  0  0  0  0  0  0
  130.4736  124.7897   66.4065 H   0  0  0  0  0  0  0  0  0  0  0  0
  131.0816  126.1054   65.3455 H   0  0  0  0  0  0  0  0  0  0  0  0
  129.3348  125.6864   65.3455 H   0  0  0  0  0  0  0  0  0  0  0  0
  132.4620  122.6515   60.0005 H   0  0  0  0  0  0  0  0  0  0  0  0
  134.2037  122.1607   59.8486 H   0  0  0  0  0  0  0  0  0  0  0  0
  131.1280  120.9370   61.2080 H   0  0  0  0  0  0  0  0  0  0  0  0
  129.5306  119.2329   62.3614 H   0  0  0  0  0  0  0  0  0  0  0  0
  128.8992  116.7040   61.7267 H   0  0  0  0  0  0  0  0  0  0  0  0
  1  2  1  0
  2  3  2  0
  3  4  1  0
  4  5  1  0
  4  6  2  0
  6  7  1  0
  7  8  3  0
  6  9  1  0
  9 10  1  0
 10 11  1  0
 11 12  1  0
 12 13  2  0
 12 14  1  0
 14 15  1  0
 15 16  1  0
 16 17  2  0
 17 18  1  0
 18 19  1  0
  9 20  2  0
 20  2  1  0
 19 15  2  0
  1 21  1  0
  1 22  1  0
  1 23  1  0
  3 24  1  0
  5 25  1  0
  5 26  1  0
  5 27  1  0
 11 28  1  0
 11 29  1  0
 14 30  1  0
 16 31  1  0
 17 32  1  0
M  END
>  <Binding energies>  (1) 
[-6.69]

>  <Ligand effiencies>  (1) 
[-0.3185714285714286]

>  <Interactions>  (1) 
["V-A:ILE:369:CG2:3237, V-B:GLU:543:CD:9880, H-A:ARG:545:NH1:4927, H-A:ARG:545:NH2:4928, H-A:GLY:454:N:4050, H-A:TYR:484:OH:4348, V-B:GLU:543:CG:9879, H-A:ARG:545:NE:4924, V-A:ARG:545:CZ:4926, V-A:LEU:475:CD2:4259, V-B:ALA:541:CB:9864, V-A:GLY:454:CA:4049, V-B:PRO:540:CA:9855, V-B:TYR:539:CE2:9848, V-B:PRO:540:C:9853, V-B:TYR:539:CD2:9846, V-B:ALA:541:CA:9862, V-A:SER:385:CB:3409, V-A:PRO:482:CB:4326, V-A:PRO:482:CG:4327, H-A:SER:385:OG:3410, V-A:LEU:475:CG:4257, V-A:LEU:475:CD1:4258, H-A:HIS:383:HE2:3395"]

$$$$
1j_Grossjean_2025
     RDKit          3D

 32 33  0  0  0  0  0  0  0  0999 V2000
  128.4540  122.3980   62.4800 C   0  0  0  0  0  0  0  0  0  0  0  0
  129.6730  123.0260   63.1300 C   0  0  0  0  0  0  0  0  0  0  0  0
  129.5570  123.8890   64.2170 C   0  0  0  0  0  0  0  0  0  0  0  0
  130.7160  124.4280   64.7830 C   0  0  0  0  0  0  0  0  0  0  0  0
  130.5640  125.3590   65.9860 C   0  0  0  0  0  0  0  0  0  0  0  0
  131.9740  124.0920   64.2340 C   0  0  0  0  0  0  0  0  0  0  0  0
  133.2050  124.6030   64.8440 C   0  0  0  0  0  0  0  0  0  0  0  0
  134.1740  125.0080   65.3290 N   0  0  0  0  0  0  0  0  0  0  0  0
  131.9960  123.2290   63.1130 C   0  0  0  0  0  0  0  0  0  0  0  0
  133.4870  122.7030   62.2960 S   0  0  0  0  0  0  0  0  0  0  0  0
  133.0710  122.3450   60.5630 C   0  0  0  0  0  0  0  0  0  0  0  0
  132.7380  120.8680   60.3460 C   0  0  0  0  0  0  0  0  0  0  0  0
  133.5680  120.1340   59.8090 O   0  0  0  0  0  0  0  0  0  0  0  0
  131.5200  120.4750   60.7800 N   0  0  0  0  0  0  0  0  0  0  0  0
  130.9820  119.1990   60.6940 C   0  0  0  0  0  0  0  0  0  0  0  0
  131.2390  118.2740   59.7940 N   0  0  0  0  0  0  0  0  0  0  0  0
  130.5460  117.1750   60.0190 C   0  0  0  0  0  0  0  0  0  0  0  0
  129.7030  117.1940   61.1250 C   0  0  0  0  0  0  0  0  0  0  0  0
  129.8330  118.7400   61.9090 S   0  0  0  0  0  0  0  0  0  0  0  0
  130.8670  122.6940   62.5850 N   0  0  0  0  0  0  0  0  0  0  0  0
  127.7646  122.0428   63.2601 H   0  0  0  0  0  0  0  0  0  0  0  0
  127.9456  123.1464   61.8544 H   0  0  0  0  0  0  0  0  0  0  0  0
  128.7682  121.5496   61.8544 H   0  0  0  0  0  0  0  0  0  0  0  0
  128.5673  124.1429   64.6244 H   0  0  0  0  0  0  0  0  0  0  0  0
  130.6590  124.7769   66.9145 H   0  0  0  0  0  0  0  0  0  0  0  0
  131.3482  126.1297   65.9546 H   0  0  0  0  0  0  0  0  0  0  0  0
  129.5754  125.8403   65.9546 H   0  0  0  0  0  0  0  0  0  0  0  0
  132.1997  122.9514   60.2745 H   0  0  0  0  0  0  0  0  0  0  0  0
  133.9483  122.5893   59.9460 H   0  0  0  0  0  0  0  0  0  0  0  0
  130.9180  121.1790   61.1830 H   0  0  0  0  0  0  0  0  0  0  0  0
  130.6300  116.2922   59.3681 H   0  0  0  0  0  0  0  0  0  0  0  0
  129.0581  116.3646   61.4510 H   0  0  0  0  0  0  0  0  0  0  0  0
  1  2  1  0
  2  3  2  0
  3  4  1  0
  4  5  1  0
  4  6  2  0
  6  7  1  0
  7  8  3  0
  6  9  1  0
  9 10  1  0
 10 11  1  0
 11 12  1  0
 12 13  2  0
 12 14  1  0
 14 15  1  0
 15 16  2  0
 16 17  1  0
 17 18  2  0
 18 19  1  0
  9 20  2  0
 20  2  1  0
 19 15  1  0
  1 21  1  0
  1 22  1  0
  1 23  1  0
  3 24  1  0
  5 25  1  0
  5 26  1  0
  5 27  1  0
 11 28  1  0
 11 29  1  0
 14 30  1  0
 17 31  1  0
 18 32  1  0
M  END
>  <Binding energies>  (1) 
[-6.45]

>  <Ligand effiencies>  (1) 
[-0.30714285714285716]

>  <Interactions>  (1) 
["V-A:ILE:369:CG2:3237, V-B:GLU:543:CD:9880, H-A:ARG:545:NH1:4927, H-A:ARG:545:NH2:4928, H-A:GLY:454:N:4050, H-A:TYR:484:OH:4348, V-B:GLU:543:CG:9879, H-A:ARG:545:NE:4924, V-A:ARG:545:CZ:4926, V-A:LEU:475:CD2:4259, V-B:ALA:541:CB:9864, V-A:GLY:454:CA:4049, V-B:TYR:539:CE2:9848, V-B:TYR:539:CD2:9846, V-B:ALA:541:CA:9862, V-A:PRO:482:CB:4326, V-A:HIS:383:CE1:3393, V-A:PRO:482:CG:4327, V-A:HIS:383:NE2:3394, H-A:SER:385:OG:3410, V-A:LEU:475:CG:4257, V-A:LEU:475:CD1:4258, V-B:VAL:344:CG1:7972, H-A:HIS:383:HE2:3395, V-B:TYR:539:CB:9843, V-A:HIS:383:CD2:3392"]

$$$$
1k_Grossjean_2025
     RDKit          3D

 50 50  0  0  0  0  0  0  0  0999 V2000
  133.2300  131.6250   61.9630 C   0  0  0  0  0  0  0  0  0  0  0  0
  131.9030  132.1260   61.9360 O   0  0  0  0  0  0  0  0  0  0  0  0
  130.9680  131.2240   61.3600 C   0  0  0  0  0  0  0  0  0  0  0  0
  130.6430  131.6680   59.9270 C   0  0  0  0  0  0  0  0  0  0  0  0
  131.8060  131.5450   59.1190 O   0  0  0  0  0  0  0  0  0  0  0  0
  131.6150  130.7420   57.9610 C   0  0  0  0  0  0  0  0  0  0  0  0
  132.0930  129.3130   58.2470 C   0  0  0  0  0  0  0  0  0  0  0  0
  130.9660  128.4610   58.4130 O   0  0  0  0  0  0  0  0  0  0  0  0
  131.1330  127.4850   59.4320 C   0  0  0  0  0  0  0  0  0  0  0  0
  131.5510  126.1440   58.8000 C   0  0  0  0  0  0  0  0  0  0  0  0
  132.5330  125.3960   59.5860 N   0  0  0  0  0  0  0  0  0  0  0  0
  133.4740  124.5810   59.0770 C   0  0  0  0  0  0  0  0  0  0  0  0
  133.6100  124.3830   57.8680 O   0  0  0  0  0  0  0  0  0  0  0  0
  134.3840  123.8940   60.1080 C   0  0  0  0  0  0  0  0  0  0  0  0
  133.6290  122.5080   61.0280 S   0  0  0  0  0  0  0  0  0  0  0  0
  132.0220  123.0080   61.6290 C   0  0  0  0  0  0  0  0  0  0  0  0
  130.9570  122.5600   60.9160 N   0  0  0  0  0  0  0  0  0  0  0  0
  129.7110  122.9100   61.3110 C   0  0  0  0  0  0  0  0  0  0  0  0
  128.5750  122.3790   60.4590 C   0  0  0  0  0  0  0  0  0  0  0  0
  129.4740  123.7080   62.4290 C   0  0  0  0  0  0  0  0  0  0  0  0
  130.5620  124.1700   63.1760 C   0  0  0  0  0  0  0  0  0  0  0  0
  130.2800  125.0430   64.3970 C   0  0  0  0  0  0  0  0  0  0  0  0
  131.8710  123.8190   62.7780 C   0  0  0  0  0  0  0  0  0  0  0  0
  133.0300  124.2920   63.5400 C   0  0  0  0  0  0  0  0  0  0  0  0
  133.9450  124.6660   64.1430 N   0  0  0  0  0  0  0  0  0  0  0  0
  133.5545  131.5025   63.0069 H   0  0  0  0  0  0  0  0  0  0  0  0
  133.2650  130.6518   61.4515 H   0  0  0  0  0  0  0  0  0  0  0  0
  133.8994  132.3323   61.4515 H   0  0  0  0  0  0  0  0  0  0  0  0
  131.3988  130.2120   61.3413 H   0  0  0  0  0  0  0  0  0  0  0  0
  130.0460  131.2196   61.9600 H   0  0  0  0  0  0  0  0  0  0  0  0
  129.8435  131.0326   59.5184 H   0  0  0  0  0  0  0  0  0  0  0  0
  130.3098  132.7163   59.9340 H   0  0  0  0  0  0  0  0  0  0  0  0
  130.5471  130.7259   57.6977 H   0  0  0  0  0  0  0  0  0  0  0  0
  132.1921  131.1616   57.1238 H   0  0  0  0  0  0  0  0  0  0  0  0
  132.7028  128.9547   57.4045 H   0  0  0  0  0  0  0  0  0  0  0  0
  132.6974  129.3053   59.1660 H   0  0  0  0  0  0  0  0  0  0  0  0
  131.9123  127.8178   60.1334 H   0  0  0  0  0  0  0  0  0  0  0  0
  130.1834  127.3542   59.9715 H   0  0  0  0  0  0  0  0  0  0  0  0
  130.6521  125.5204   58.6856 H   0  0  0  0  0  0  0  0  0  0  0  0
  132.0276  126.3807   57.8373 H   0  0  0  0  0  0  0  0  0  0  0  0
  132.4810  125.5070   60.5880 H   0  0  0  0  0  0  0  0  0  0  0  0
  135.2657  123.5068   59.5763 H   0  0  0  0  0  0  0  0  0  0  0  0
  134.6195  124.6614   60.8600 H   0  0  0  0  0  0  0  0  0  0  0  0
  127.7722  122.0038   61.1108 H   0  0  0  0  0  0  0  0  0  0  0  0
  128.1839  123.1876   59.8240 H   0  0  0  0  0  0  0  0  0  0  0  0
  128.9446  121.5603   59.8240 H   0  0  0  0  0  0  0  0  0  0  0  0
  128.4460  123.9705   62.7194 H   0  0  0  0  0  0  0  0  0  0  0  0
  130.4672  124.4636   65.3131 H   0  0  0  0  0  0  0  0  0  0  0  0
  130.9395  125.9232   64.3787 H   0  0  0  0  0  0  0  0  0  0  0  0
  129.2302  125.3710   64.3787 H   0  0  0  0  0  0  0  0  0  0  0  0
  1  2  1  0
  2  3  1  0
  3  4  1  0
  4  5  1  0
  5  6  1  0
  6  7  1  0
  7  8  1  0
  8  9  1  0
  9 10  1  0
 10 11  1  0
 11 12  1  0
 12 13  2  0
 12 14  1  0
 14 15  1  0
 15 16  1  0
 16 17  2  0
 17 18  1  0
 18 19  1  0
 18 20  2  0
 20 21  1  0
 21 22  1  0
 21 23  2  0
 23 24  1  0
 24 25  3  0
 23 16  1  0
  1 26  1  0
  1 27  1  0
  1 28  1  0
  3 29  1  0
  3 30  1  0
  4 31  1  0
  4 32  1  0
  6 33  1  0
  6 34  1  0
  7 35  1  0
  7 36  1  0
  9 37  1  0
  9 38  1  0
 10 39  1  0
 10 40  1  0
 11 41  1  0
 14 42  1  0
 14 43  1  0
 19 44  1  0
 19 45  1  0
 19 46  1  0
 20 47  1  0
 22 48  1  0
 22 49  1  0
 22 50  1  0
M  END
>  <Binding energies>  (1) 
[-5.25]

>  <Ligand effiencies>  (1) 
[-0.20192307692307693]

>  <Interactions>  (1) 
["V-A:ILE:369:CG2:3237, V-A:ILE:369:CD1:3239, V-A:ASP:366:CB:3212, H-A:ARG:545:NH1:4927, H-A:ARG:545:NH2:4928, H-A:GLY:454:N:4050, V-A:ASP:366:CA:3210, V-A:ASP:366:CG:3213, H-A:TYR:484:OH:4348, V-B:GLU:543:CG:9879, H-A:ARG:545:NE:4924, V-A:ILE:369:CB:3236, H-A:ASP:366:OD1:3214, V-B:TYR:539:C:9839, V-B:PRO:540:CA:9855, V-B:TYR:539:CE2:9848, V-B:TYR:539:CD2:9846, V-A:PRO:540:CA:4883, V-A:PRO:540:CB:4885, V-A:TYR:531:CZ:4794, H-A:TYR:531:OH:4795, H-A:ALA:541:N:4891, H-B:TYR:539:OH:9850, H-A:ASP:366:OD2:3215, V-A:ASN:362:CB:3176, V-A:ILE:369:CG1:3238"]

$$$$
1l_Grossjean_2025
     RDKit          3D

 30 30  0  0  0  0  0  0  0  0999 V2000
  132.6080  125.2430   64.8640 C   0  0  0  0  0  0  0  0  0  0  0  0
  133.9520  124.9950   64.4760 O   0  0  0  0  0  0  0  0  0  0  0  0
  134.0170  124.7780   63.1000 N   0  0  0  0  0  0  0  0  0  0  0  0
  133.9540  123.5170   62.6340 C   0  0  0  0  0  0  0  0  0  0  0  0
  133.6150  122.5490   63.3210 O   0  0  0  0  0  0  0  0  0  0  0  0
  134.3240  123.3500   61.1530 C   0  0  0  0  0  0  0  0  0  0  0  0
  132.9050  123.2700   60.0080 S   0  0  0  0  0  0  0  0  0  0  0  0
  131.6760  122.1900   60.7200 C   0  0  0  0  0  0  0  0  0  0  0  0
  130.6900  122.8030   61.4270 N   0  0  0  0  0  0  0  0  0  0  0  0
  129.7250  122.0420   61.9960 C   0  0  0  0  0  0  0  0  0  0  0  0
  128.6600  122.7980   62.7670 C   0  0  0  0  0  0  0  0  0  0  0  0
  129.6990  120.6540   61.8850 C   0  0  0  0  0  0  0  0  0  0  0  0
  130.7070  120.0120   61.1590 C   0  0  0  0  0  0  0  0  0  0  0  0
  130.6590  118.4890   61.0500 C   0  0  0  0  0  0  0  0  0  0  0  0
  131.7250  120.7860   60.5580 C   0  0  0  0  0  0  0  0  0  0  0  0
  132.7940  120.1390   59.7910 C   0  0  0  0  0  0  0  0  0  0  0  0
  133.6370  119.6280   59.1860 N   0  0  0  0  0  0  0  0  0  0  0  0
  132.5397  125.2556   65.9618 H   0  0  0  0  0  0  0  0  0  0  0  0
  132.2848  126.2159   64.4653 H   0  0  0  0  0  0  0  0  0  0  0  0
  131.9589  124.4495   64.4653 H   0  0  0  0  0  0  0  0  0  0  0  0
  134.4830  125.5340   62.6170 H   0  0  0  0  0  0  0  0  0  0  0  0
  134.9515  124.2045   60.8596 H   0  0  0  0  0  0  0  0  0  0  0  0
  134.8394  122.3816   61.0721 H   0  0  0  0  0  0  0  0  0  0  0  0
  128.8324  122.6756   63.8465 H   0  0  0  0  0  0  0  0  0  0  0  0
  128.7075  123.8657   62.5069 H   0  0  0  0  0  0  0  0  0  0  0  0
  127.6677  122.4010   62.5069 H   0  0  0  0  0  0  0  0  0  0  0  0
  128.8971  120.0711   62.3616 H   0  0  0  0  0  0  0  0  0  0  0  0
  130.6451  118.0495   62.0583 H   0  0  0  0  0  0  0  0  0  0  0  0
  129.7509  118.1887   60.5066 H   0  0  0  0  0  0  0  0  0  0  0  0
  131.5463  118.1321   60.5066 H   0  0  0  0  0  0  0  0  0  0  0  0
  1  2  1  0
  2  3  1  0
  3  4  1  0
  4  5  2  0
  4  6  1  0
  6  7  1  0
  7  8  1  0
  8  9  2  0
  9 10  1  0
 10 11  1  0
 10 12  2  0
 12 13  1  0
 13 14  1  0
 13 15  2  0
 15 16  1  0
 16 17  3  0
 15  8  1  0
  1 18  1  0
  1 19  1  0
  1 20  1  0
  3 21  1  0
  6 22  1  0
  6 23  1  0
 11 24  1  0
 11 25  1  0
 11 26  1  0
 12 27  1  0
 14 28  1  0
 14 29  1  0
 14 30  1  0
M  END
>  <Binding energies>  (1) 
[-5.68]

>  <Ligand effiencies>  (1) 
[-0.31555555555555553]

>  <Interactions>  (1) 
["V-A:ILE:369:CG2:3237, V-A:ILE:369:CD1:3239, H-A:ARG:545:NH1:4927, H-A:ARG:545:NH2:4928, H-A:GLY:454:N:4050, V-A:GLY:453:CA:4044, H-A:TYR:484:OH:4348, V-B:GLU:543:CG:9879, H-A:ARG:545:NE:4924, V-A:ILE:369:CB:3236, V-A:ARG:545:CZ:4926, V-A:LEU:475:CD2:4259, V-B:ALA:541:CB:9864, V-A:GLY:454:CA:4049, H-A:ASP:366:OD1:3214, V-B:TYR:539:CE2:9848, V-B:TYR:539:CD2:9846, V-A:SER:385:CB:3409, H-A:SER:385:OG:3410"]

$$$$
1m_Grossjean_2025
     RDKit          3D

 35 35  0  0  0  0  0  0  0  0999 V2000
  134.0220  124.1720   61.4620 C   0  0  0  0  0  0  0  0  0  0  0  0
  133.4900  123.3980   62.5270 O   0  0  0  0  0  0  0  0  0  0  0  0
  133.1590  123.9800   63.6990 C   0  0  0  0  0  0  0  0  0  0  0  0
  133.9250  124.6250   64.4210 O   0  0  0  0  0  0  0  0  0  0  0  0
  131.6720  123.7550   64.0430 C   0  0  0  0  0  0  0  0  0  0  0  0
  130.9680  122.9540   63.0300 N   0  0  0  0  0  0  0  0  0  0  0  0
  129.7690  122.3620   63.1910 C   0  0  0  0  0  0  0  0  0  0  0  0
  129.1280  122.4190   64.2420 O   0  0  0  0  0  0  0  0  0  0  0  0
  129.2430  121.5910   61.9730 C   0  0  0  0  0  0  0  0  0  0  0  0
  129.1410  122.5730   60.4370 S   0  0  0  0  0  0  0  0  0  0  0  0
  127.4550  123.1090   60.2370 C   0  0  0  0  0  0  0  0  0  0  0  0
  126.7030  122.9610   61.3580 N   0  0  0  0  0  0  0  0  0  0  0  0
  125.4050  123.3420   61.3260 C   0  0  0  0  0  0  0  0  0  0  0  0
  124.6330  123.1650   62.6200 C   0  0  0  0  0  0  0  0  0  0  0  0
  124.8040  123.8690   60.1840 C   0  0  0  0  0  0  0  0  0  0  0  0
  125.5620  124.0010   59.0160 C   0  0  0  0  0  0  0  0  0  0  0  0
  124.8790  124.5670   57.7730 C   0  0  0  0  0  0  0  0  0  0  0  0
  126.9210  123.6090   59.0260 C   0  0  0  0  0  0  0  0  0  0  0  0
  127.7190  123.6920   57.8000 C   0  0  0  0  0  0  0  0  0  0  0  0
  128.3500  123.7590   56.8330 N   0  0  0  0  0  0  0  0  0  0  0  0
  134.6000  125.0129   61.8730 H   0  0  0  0  0  0  0  0  0  0  0  0
  134.6792  123.5426   60.8440 H   0  0  0  0  0  0  0  0  0  0  0  0
  133.1989  124.5601   60.8440 H   0  0  0  0  0  0  0  0  0  0  0  0
  131.6098  123.2331   65.0093 H   0  0  0  0  0  0  0  0  0  0  0  0
  131.1875  124.7419   64.0805 H   0  0  0  0  0  0  0  0  0  0  0  0
  131.4440  122.8380   62.1470 H   0  0  0  0  0  0  0  0  0  0  0  0
  129.9136  120.7383   61.7910 H   0  0  0  0  0  0  0  0  0  0  0  0
  128.2145  121.2869   62.2172 H   0  0  0  0  0  0  0  0  0  0  0  0
  125.3086  123.3199   63.4741 H   0  0  0  0  0  0  0  0  0  0  0  0
  123.8146  123.8988   62.6620 H   0  0  0  0  0  0  0  0  0  0  0  0
  124.2160  122.1480   62.6620 H   0  0  0  0  0  0  0  0  0  0  0  0
  123.7481  124.1768   60.2012 H   0  0  0  0  0  0  0  0  0  0  0  0
  124.0650  125.2416   58.0770 H   0  0  0  0  0  0  0  0  0  0  0  0
  125.6131  125.1251   57.1733 H   0  0  0  0  0  0  0  0  0  0  0  0
  124.4669  123.7420   57.1733 H   0  0  0  0  0  0  0  0  0  0  0  0
  1  2  1  0
  2  3  1  0
  3  4  2  0
  3  5  1  0
  5  6  1  0
  6  7  1  0
  7  8  2  0
  7  9  1  0
  9 10  1  0
 10 11  1  0
 11 12  2  0
 12 13  1  0
 13 14  1  0
 13 15  2  0
 15 16  1  0
 16 17  1  0
 16 18  2  0
 18 19  1  0
 19 20  3  0
 18 11  1  0
  1 21  1  0
  1 22  1  0
  1 23  1  0
  5 24  1  0
  5 25  1  0
  6 26  1  0
  9 27  1  0
  9 28  1  0
 14 29  1  0
 14 30  1  0
 14 31  1  0
 15 32  1  0
 17 33  1  0
 17 34  1  0
 17 35  1  0
M  END
>  <Binding energies>  (1) 
[-5.49]

>  <Ligand effiencies>  (1) 
[-0.26142857142857145]

>  <Interactions>  (1) 
["V-A:ILE:369:CD1:3239, V-B:GLU:543:CD:9880, H-A:ARG:545:NH2:4928, H-A:GLY:454:N:4050, H-A:TYR:484:OH:4348, V-B:GLU:543:CG:9879, H-A:ARG:545:NE:4924, V-A:LEU:475:CD2:4259, V-B:ALA:541:CB:9864, V-A:GLY:454:CA:4049, H-B:ALA:541:N:9863, V-B:TYR:531:CE2:9765, V-B:PRO:540:CA:9855, V-B:PRO:540:CB:9857, V-B:LEU:363:CD1:8160, V-B:TYR:539:CZ:9849, V-B:TYR:539:CE2:9848, V-B:PRO:540:C:9853, V-B:ALA:541:C:9860, V-B:ASN:362:CB:8147, H-B:TYR:539:OH:9850, V-B:ASN:362:CG:8148"]

$$$$
1n_Grossjean_2025
     RDKit          3D

 48 49  0  0  0  0  0  0  0  0999 V2000
  126.4460  128.0120   73.8370 C   0  0  0  0  0  0  0  0  0  0  0  0
  127.9320  128.3230   74.0440 C   0  0  0  0  0  0  0  0  0  0  0  0
  128.6990  127.6420   73.0590 O   0  0  0  0  0  0  0  0  0  0  0  0
  129.5710  128.3130   72.2630 C   0  0  0  0  0  0  0  0  0  0  0  0
  130.3120  129.2120   72.6710 O   0  0  0  0  0  0  0  0  0  0  0  0
  129.5540  127.8420   70.8360 C   0  0  0  0  0  0  0  0  0  0  0  0
  130.6650  127.9920   69.9920 C   0  0  0  0  0  0  0  0  0  0  0  0
  130.6160  127.5470   68.6740 C   0  0  0  0  0  0  0  0  0  0  0  0
  129.4580  126.9530   68.1710 C   0  0  0  0  0  0  0  0  0  0  0  0
  129.5160  126.5450   66.8240 N   0  0  0  0  0  0  0  0  0  0  0  0
  129.8760  125.3550   66.2960 C   0  0  0  0  0  0  0  0  0  0  0  0
  130.2280  124.3660   66.9400 O   0  0  0  0  0  0  0  0  0  0  0  0
  129.8260  125.2660   64.7650 C   0  0  0  0  0  0  0  0  0  0  0  0
  130.3210  123.9090   64.2210 C   0  0  0  0  0  0  0  0  0  0  0  0
  129.0220  122.6510   64.0370 S   0  0  0  0  0  0  0  0  0  0  0  0
  128.1800  122.9670   62.5010 C   0  0  0  0  0  0  0  0  0  0  0  0
  126.8370  123.1040   62.6360 N   0  0  0  0  0  0  0  0  0  0  0  0
  126.0950  123.3640   61.5340 C   0  0  0  0  0  0  0  0  0  0  0  0
  124.6040  123.5150   61.7640 C   0  0  0  0  0  0  0  0  0  0  0  0
  126.6530  123.4900   60.2640 C   0  0  0  0  0  0  0  0  0  0  0  0
  128.0350  123.3290   60.1110 C   0  0  0  0  0  0  0  0  0  0  0  0
  128.6230  123.4580   58.7070 C   0  0  0  0  0  0  0  0  0  0  0  0
  128.8290  123.0520   61.2470 C   0  0  0  0  0  0  0  0  0  0  0  0
  130.2690  122.8300   61.1020 C   0  0  0  0  0  0  0  0  0  0  0  0
  131.4070  122.6530   60.9850 N   0  0  0  0  0  0  0  0  0  0  0  0
  128.3470  126.7900   69.0110 C   0  0  0  0  0  0  0  0  0  0  0  0
  128.4000  127.2330   70.3300 C   0  0  0  0  0  0  0  0  0  0  0  0
  125.9533  127.9089   74.8150 H   0  0  0  0  0  0  0  0  0  0  0  0
  125.9750  128.8310   73.2737 H   0  0  0  0  0  0  0  0  0  0  0  0
  126.3429  127.0728   73.2737 H   0  0  0  0  0  0  0  0  0  0  0  0
  128.0963  129.4068   73.9524 H   0  0  0  0  0  0  0  0  0  0  0  0
  128.2410  127.9894   75.0456 H   0  0  0  0  0  0  0  0  0  0  0  0
  131.5815  128.4648   70.3748 H   0  0  0  0  0  0  0  0  0  0  0  0
  131.4961  127.6644   68.0247 H   0  0  0  0  0  0  0  0  0  0  0  0
  129.2020  127.2450   66.1670 H   0  0  0  0  0  0  0  0  0  0  0  0
  128.7860  125.4154   64.4394 H   0  0  0  0  0  0  0  0  0  0  0  0
  130.4970  126.0426   64.3692 H   0  0  0  0  0  0  0  0  0  0  0  0
  130.7759  124.0799   63.2342 H   0  0  0  0  0  0  0  0  0  0  0  0
  131.0337  123.5166   64.9613 H   0  0  0  0  0  0  0  0  0  0  0  0
  124.3999  123.5357   62.8447 H   0  0  0  0  0  0  0  0  0  0  0  0
  124.2557  124.4530   61.3071 H   0  0  0  0  0  0  0  0  0  0  0  0
  124.0747  122.6659   61.3071 H   0  0  0  0  0  0  0  0  0  0  0  0
  126.0172  123.7127   59.3944 H   0  0  0  0  0  0  0  0  0  0  0  0
  129.6952  123.6932   58.7787 H   0  0  0  0  0  0  0  0  0  0  0  0
  128.4911  122.5096   58.1657 H   0  0  0  0  0  0  0  0  0  0  0  0
  128.1062  124.2641   58.1657 H   0  0  0  0  0  0  0  0  0  0  0  0
  127.4334  126.3120   68.6278 H   0  0  0  0  0  0  0  0  0  0  0  0
  127.5240  127.1027   70.9824 H   0  0  0  0  0  0  0  0  0  0  0  0
  1  2  1  0
  2  3  1  0
  3  4  1  0
  4  5  2  0
  4  6  1  0
  6  7  2  0
  7  8  1  0
  8  9  2  0
  9 10  1  0
 10 11  1  0
 11 12  2  0
 11 13  1  0
 13 14  1  0
 14 15  1  0
 15 16  1  0
 16 17  2  0
 17 18  1  0
 18 19  1  0
 18 20  2  0
 20 21  1  0
 21 22  1  0
 21 23  2  0
 23 24  1  0
 24 25  3  0
  9 26  1  0
 26 27  2  0
 27  6  1  0
 23 16  1  0
  1 28  1  0
  1 29  1  0
  1 30  1  0
  2 31  1  0
  2 32  1  0
  7 33  1  0
  8 34  1  0
 10 35  1  0
 13 36  1  0
 13 37  1  0
 14 38  1  0
 14 39  1  0
 19 40  1  0
 19 41  1  0
 19 42  1  0
 20 43  1  0
 22 44  1  0
 22 45  1  0
 22 46  1  0
 26 47  1  0
 27 48  1  0
M  END
>  <Binding energies>  (1) 
[-7.66]

>  <Ligand effiencies>  (1) 
[-0.2735714285714286]

>  <Interactions>  (1) 
["V-B:GLU:543:CD:9880, H-A:GLU:543:OE1:4909, H-A:TYR:484:OH:4348, V-B:GLU:543:CG:9879, V-A:GLU:543:CD:4908, H-A:GLU:543:OE2:4910, V-A:HIS:456:CE1:4070, V-B:ALA:541:CB:9864, H-B:GLU:543:OE2:9882, H-B:ALA:541:N:9863, V-B:PRO:540:CA:9855, V-B:PRO:540:CB:9857, V-B:TYR:539:CZ:9849, V-B:TYR:539:CE2:9848, V-B:PRO:540:C:9853, V-B:TYR:539:CD2:9846, V-B:ASN:362:CB:8147, V-A:GLU:543:C:4902, V-B:GLU:543:C:9874, V-B:GLU:543:CB:9878, V-A:GLY:544:C:4912, V-A:GLU:543:CB:4906, V-B:HIS:456:CD2:9039, V-B:HIS:456:CE1:9041, V-B:LYS:547:CE:9922, V-B:HIS:456:CG:9037, H-A:LYS:547:NZ:4951, H-B:LYS:547:NZ:9923, V-B:HIS:456:CB:9036"]

$$$$
1o_Grossjean_2025
     RDKit          3D

 45 46  0  0  0  0  0  0  0  0999 V2000
  129.1320  128.8940   72.9750 C   0  0  0  0  0  0  0  0  0  0  0  0
  129.6420  127.5760   72.8280 O   0  0  0  0  0  0  0  0  0  0  0  0
  128.9730  126.6440   72.1010 C   0  0  0  0  0  0  0  0  0  0  0  0
  128.5730  125.5740   72.5690 O   0  0  0  0  0  0  0  0  0  0  0  0
  128.7640  127.0470   70.6690 C   0  0  0  0  0  0  0  0  0  0  0  0
  127.5330  126.8700   70.0210 C   0  0  0  0  0  0  0  0  0  0  0  0
  127.3720  127.2570   68.6920 C   0  0  0  0  0  0  0  0  0  0  0  0
  128.4350  127.8200   67.9850 C   0  0  0  0  0  0  0  0  0  0  0  0
  128.1590  128.1820   66.6520 N   0  0  0  0  0  0  0  0  0  0  0  0
  128.1220  129.4040   66.0770 C   0  0  0  0  0  0  0  0  0  0  0  0
  128.3810  130.4640   66.6460 O   0  0  0  0  0  0  0  0  0  0  0  0
  127.7530  129.4220   64.5860 C   0  0  0  0  0  0  0  0  0  0  0  0
  127.4140  130.8310   64.0580 C   0  0  0  0  0  0  0  0  0  0  0  0
  128.7860  132.0160   64.1870 S   0  0  0  0  0  0  0  0  0  0  0  0
  129.6770  132.0170   62.6440 C   0  0  0  0  0  0  0  0  0  0  0  0
  131.0020  131.7570   62.7850 N   0  0  0  0  0  0  0  0  0  0  0  0
  131.7800  131.7230   61.6780 C   0  0  0  0  0  0  0  0  0  0  0  0
  133.2470  131.4130   61.9140 C   0  0  0  0  0  0  0  0  0  0  0  0
  131.2800  131.9570   60.4000 C   0  0  0  0  0  0  0  0  0  0  0  0
  129.9210  132.2500   60.2450 C   0  0  0  0  0  0  0  0  0  0  0  0
  129.3990  132.5170   58.8340 C   0  0  0  0  0  0  0  0  0  0  0  0
  129.0880  132.2960   61.3870 C   0  0  0  0  0  0  0  0  0  0  0  0
  127.6760  132.6600   61.2510 C   0  0  0  0  0  0  0  0  0  0  0  0
  126.5610  132.9470   61.1410 N   0  0  0  0  0  0  0  0  0  0  0  0
  129.6680  128.0040   68.6290 C   0  0  0  0  0  0  0  0  0  0  0  0
  129.8270  127.6180   69.9570 C   0  0  0  0  0  0  0  0  0  0  0  0
  129.0391  129.1341   74.0445 H   0  0  0  0  0  0  0  0  0  0  0  0
  129.8187  129.6083   72.4972 H   0  0  0  0  0  0  0  0  0  0  0  0
  128.1434  128.9600   72.4972 H   0  0  0  0  0  0  0  0  0  0  0  0
  126.6885  126.4225   70.5656 H   0  0  0  0  0  0  0  0  0  0  0  0
  126.3998  127.1176   68.1967 H   0  0  0  0  0  0  0  0  0  0  0  0
  127.9880  127.3980   66.0390 H   0  0  0  0  0  0  0  0  0  0  0  0
  128.6045  129.0292   64.0109 H   0  0  0  0  0  0  0  0  0  0  0  0
  126.8512  128.8037   64.4662 H   0  0  0  0  0  0  0  0  0  0  0  0
  127.1294  130.7447   62.9990 H   0  0  0  0  0  0  0  0  0  0  0  0
  126.5974  131.2188   64.6847 H   0  0  0  0  0  0  0  0  0  0  0  0
  133.4436  131.3715   62.9955 H   0  0  0  0  0  0  0  0  0  0  0  0
  133.4946  130.4427   61.4588 H   0  0  0  0  0  0  0  0  0  0  0  0
  133.8660  132.2002   61.4588 H   0  0  0  0  0  0  0  0  0  0  0  0
  131.9443  131.9121   59.5244 H   0  0  0  0  0  0  0  0  0  0  0  0
  128.4211  133.0172   58.8934 H   0  0  0  0  0  0  0  0  0  0  0  0
  130.1091  133.1626   58.2964 H   0  0  0  0  0  0  0  0  0  0  0  0
  129.2911  131.5634   58.2964 H   0  0  0  0  0  0  0  0  0  0  0  0
  130.5105  128.4541   68.0835 H   0  0  0  0  0  0  0  0  0  0  0  0
  130.7981  127.7629   70.4529 H   0  0  0  0  0  0  0  0  0  0  0  0
  1  2  1  0
  2  3  1  0
  3  4  2  0
  3  5  1  0
  5  6  2  0
  6  7  1  0
  7  8  2  0
  8  9  1  0
  9 10  1  0
 10 11  2  0
 10 12  1  0
 12 13  1  0
 13 14  1  0
 14 15  1  0
 15 16  2  0
 16 17  1  0
 17 18  1  0
 17 19  2  0
 19 20  1  0
 20 21  1  0
 20 22  2  0
 22 23  1  0
 23 24  3  0
  8 25  1  0
 25 26  2  0
 26  5  1  0
 22 15  1  0
  1 27  1  0
  1 28  1  0
  1 29  1  0
  6 30  1  0
  7 31  1  0
  9 32  1  0
 12 33  1  0
 12 34  1  0
 13 35  1  0
 13 36  1  0
 18 37  1  0
 18 38  1  0
 18 39  1  0
 19 40  1  0
 21 41  1  0
 21 42  1  0
 21 43  1  0
 25 44  1  0
 26 45  1  0
M  END
>  <Binding energies>  (1) 
[-7.76]

>  <Ligand effiencies>  (1) 
[-0.2874074074074074]

>  <Interactions>  (1) 
["V-B:GLU:543:CD:9880, V-A:GLU:543:CD:4908, V-A:HIS:456:CE1:4070, H-B:GLU:543:OE2:9882, H-B:GLU:543:OE1:9881, V-B:GLU:543:C:9874, V-A:HIS:456:CD2:4068, V-B:GLU:543:CB:9878, V-A:GLU:543:CB:4906, V-B:HIS:456:CD2:9039, V-B:HIS:456:CE1:9041, V-B:GLY:544:C:9884, V-A:GLU:543:CG:4907, H-B:TYR:484:OH:9319, V-A:PRO:540:CA:4883, V-A:PRO:540:CB:4885, V-A:PRO:540:N:4884, H-A:ALA:541:N:4891, V-A:ALA:541:CB:4892, V-A:TYR:539:C:4867, H-B:LYS:547:NZ:9923, V-A:ASN:362:CB:3176"]

$$$$
1p_Grossjean_2025
     RDKit          3D

 35 36  0  0  0  0  0  0  0  0999 V2000
  130.2790  125.9150   58.2810 C   0  0  0  0  0  0  0  0  0  0  0  0
  131.1100  124.9200   59.0680 C   0  0  0  0  0  0  0  0  0  0  0  0
  132.4930  125.0530   59.1800 C   0  0  0  0  0  0  0  0  0  0  0  0
  133.2110  124.0980   59.9070 C   0  0  0  0  0  0  0  0  0  0  0  0
  134.7270  124.2560   60.0050 C   0  0  0  0  0  0  0  0  0  0  0  0
  132.5170  123.0280   60.5160 C   0  0  0  0  0  0  0  0  0  0  0  0
  133.2510  121.9890   61.2410 C   0  0  0  0  0  0  0  0  0  0  0  0
  133.8320  121.1690   61.8150 N   0  0  0  0  0  0  0  0  0  0  0  0
  131.1100  122.9840   60.3680 C   0  0  0  0  0  0  0  0  0  0  0  0
  130.0850  121.7150   61.0760 S   0  0  0  0  0  0  0  0  0  0  0  0
  129.1150  122.4980   62.3970 C   0  0  0  0  0  0  0  0  0  0  0  0
  128.2060  123.6420   61.9070 C   0  0  0  0  0  0  0  0  0  0  0  0
  127.2140  123.2120   60.8160 C   0  0  0  0  0  0  0  0  0  0  0  0
  126.0650  122.8970   61.1310 O   0  0  0  0  0  0  0  0  0  0  0  0
  127.6920  123.2280   59.5510 N   0  0  0  0  0  0  0  0  0  0  0  0
  127.0090  122.8900   58.3900 C   0  0  0  0  0  0  0  0  0  0  0  0
  125.7840  123.4540   58.0350 C   0  0  0  0  0  0  0  0  0  0  0  0
  125.4510  122.8630   56.8380 C   0  0  0  0  0  0  0  0  0  0  0  0
  126.4220  121.9860   56.4910 O   0  0  0  0  0  0  0  0  0  0  0  0
  127.4040  122.0110   57.4840 N   0  0  0  0  0  0  0  0  0  0  0  0
  130.4250  123.9040   59.6430 N   0  0  0  0  0  0  0  0  0  0  0  0
  129.7331  126.5686   58.9772 H   0  0  0  0  0  0  0  0  0  0  0  0
  130.9399  126.5248   57.6475 H   0  0  0  0  0  0  0  0  0  0  0  0
  129.5612  125.3733   57.6475 H   0  0  0  0  0  0  0  0  0  0  0  0
  133.0125  125.8973   58.7032 H   0  0  0  0  0  0  0  0  0  0  0  0
  135.0248  124.2870   61.0635 H   0  0  0  0  0  0  0  0  0  0  0  0
  135.2171  123.4041   59.5110 H   0  0  0  0  0  0  0  0  0  0  0  0
  135.0309  125.1907   59.5110 H   0  0  0  0  0  0  0  0  0  0  0  0
  128.4829  121.7292   62.8653 H   0  0  0  0  0  0  0  0  0  0  0  0
  129.8335  122.9399   63.1030 H   0  0  0  0  0  0  0  0  0  0  0  0
  127.6348  124.0249   62.7656 H   0  0  0  0  0  0  0  0  0  0  0  0
  128.8600  124.4085   61.4657 H   0  0  0  0  0  0  0  0  0  0  0  0
  128.6540  123.5060   59.4240 H   0  0  0  0  0  0  0  0  0  0  0  0
  125.2084  124.2083   58.5916 H   0  0  0  0  0  0  0  0  0  0  0  0
  124.5409  123.0701   56.2559 H   0  0  0  0  0  0  0  0  0  0  0  0
  1  2  1  0
  2  3  2  0
  3  4  1  0
  4  5  1  0
  4  6  2  0
  6  7  1  0
  7  8  3  0
  6  9  1  0
  9 10  1  0
 10 11  1  0
 11 12  1  0
 12 13  1  0
 13 14  2  0
 13 15  1  0
 15 16  1  0
 16 17  1  0
 17 18  2  0
 18 19  1  0
 19 20  1  0
  9 21  2  0
 21  2  1  0
 20 16  2  0
  1 22  1  0
  1 23  1  0
  1 24  1  0
  3 25  1  0
  5 26  1  0
  5 27  1  0
  5 28  1  0
 11 29  1  0
 11 30  1  0
 12 31  1  0
 12 32  1  0
 15 33  1  0
 17 34  1  0
 18 35  1  0
M  END
>  <Binding energies>  (1) 
[-6.31]

>  <Ligand effiencies>  (1) 
[-0.2868181818181818]

>  <Interactions>  (1) 
["V-A:ILE:369:CG2:3237, V-A:ILE:369:CD1:3239, V-A:ASP:366:CB:3212, V-A:ASP:366:CA:3210, V-A:ASP:366:CG:3213, V-A:ILE:369:CB:3236, V-A:LEU:475:CD2:4259, V-B:ALA:541:CB:9864, V-B:TYR:539:C:9839, H-B:ALA:541:N:9863, V-B:PRO:540:CD:9859, V-B:PRO:540:CA:9855, V-B:PRO:540:CB:9857, V-B:PRO:540:N:9856, V-B:LEU:363:CD1:8160, V-B:MET:535:CE:9807, V-B:TYR:539:CZ:9849, V-B:TYR:539:CE2:9848, H-B:TYR:539:N:9842, V-B:PRO:540:C:9853, V-B:TYR:539:CD2:9846, H-A:SER:385:OG:3410, V-A:ILE:369:CG1:3238"]

$$$$
1q_Grossjean_2025
     RDKit          3D

 38 38  0  0  0  0  0  0  0  0999 V2000
  129.9040  122.3120   64.8800 C   0  0  0  0  0  0  0  0  0  0  0  0
  129.4900  123.6420   64.6050 O   0  0  0  0  0  0  0  0  0  0  0  0
  130.0870  124.6910   65.2240 C   0  0  0  0  0  0  0  0  0  0  0  0
  129.7900  125.1280   66.3370 O   0  0  0  0  0  0  0  0  0  0  0  0
  131.2010  125.3610   64.3920 C   0  0  0  0  0  0  0  0  0  0  0  0
  131.9140  124.4150   63.5190 N   0  0  0  0  0  0  0  0  0  0  0  0
  133.2260  124.1200   63.5810 C   0  0  0  0  0  0  0  0  0  0  0  0
  133.9930  124.6270   64.4020 O   0  0  0  0  0  0  0  0  0  0  0  0
  133.7310  123.0860   62.5640 C   0  0  0  0  0  0  0  0  0  0  0  0
  134.0210  123.6630   61.1640 C   0  0  0  0  0  0  0  0  0  0  0  0
  132.5320  123.8850   60.1460 S   0  0  0  0  0  0  0  0  0  0  0  0
  131.2650  122.7870   60.7480 C   0  0  0  0  0  0  0  0  0  0  0  0
  130.1230  123.4270   61.1060 N   0  0  0  0  0  0  0  0  0  0  0  0
  129.0870  122.6970   61.5820 C   0  0  0  0  0  0  0  0  0  0  0  0
  127.8520  123.4850   61.9770 C   0  0  0  0  0  0  0  0  0  0  0  0
  129.1400  121.3110   61.7090 C   0  0  0  0  0  0  0  0  0  0  0  0
  130.3020  120.6380   61.3190 C   0  0  0  0  0  0  0  0  0  0  0  0
  130.3290  119.1150   61.4510 C   0  0  0  0  0  0  0  0  0  0  0  0
  131.3960  121.3780   60.8170 C   0  0  0  0  0  0  0  0  0  0  0  0
  132.5990  120.6850   60.3510 C   0  0  0  0  0  0  0  0  0  0  0  0
  133.5480  120.1330   59.9830 N   0  0  0  0  0  0  0  0  0  0  0  0
  129.9512  122.1603   65.9685 H   0  0  0  0  0  0  0  0  0  0  0  0
  129.1832  121.6057   64.4423 H   0  0  0  0  0  0  0  0  0  0  0  0
  130.8983  122.1396   64.4423 H   0  0  0  0  0  0  0  0  0  0  0  0
  130.7481  126.1434   63.7653 H   0  0  0  0  0  0  0  0  0  0  0  0
  131.9357  125.7750   65.0983 H   0  0  0  0  0  0  0  0  0  0  0  0
  131.3590  123.9740   62.7990 H   0  0  0  0  0  0  0  0  0  0  0  0
  134.6600  122.6444   62.9539 H   0  0  0  0  0  0  0  0  0  0  0  0
  132.9259  122.3469   62.4397 H   0  0  0  0  0  0  0  0  0  0  0  0
  134.5084  124.6416   61.2853 H   0  0  0  0  0  0  0  0  0  0  0  0
  134.6630  122.9377   60.6427 H   0  0  0  0  0  0  0  0  0  0  0  0
  127.7812  123.5302   63.0738 H   0  0  0  0  0  0  0  0  0  0  0  0
  127.9229  124.5052   61.5718 H   0  0  0  0  0  0  0  0  0  0  0  0
  126.9566  122.9909   61.5718 H   0  0  0  0  0  0  0  0  0  0  0  0
  128.2804  120.7540   62.1102 H   0  0  0  0  0  0  0  0  0  0  0  0
  130.3339  118.8393   62.5159 H   0  0  0  0  0  0  0  0  0  0  0  0
  129.4383  118.6891   60.9660 H   0  0  0  0  0  0  0  0  0  0  0  0
  131.2343  118.7209   60.9660 H   0  0  0  0  0  0  0  0  0  0  0  0
  1  2  1  0
  2  3  1  0
  3  4  2  0
  3  5  1  0
  5  6  1  0
  6  7  1  0
  7  8  2  0
  7  9  1  0
  9 10  1  0
 10 11  1  0
 11 12  1  0
 12 13  2  0
 13 14  1  0
 14 15  1  0
 14 16  2  0
 16 17  1  0
 17 18  1  0
 17 19  2  0
 19 20  1  0
 20 21  3  0
 19 12  1  0
  1 22  1  0
  1 23  1  0
  1 24  1  0
  5 25  1  0
  5 26  1  0
  6 27  1  0
  9 28  1  0
  9 29  1  0
 10 30  1  0
 10 31  1  0
 15 32  1  0
 15 33  1  0
 15 34  1  0
 16 35  1  0
 18 36  1  0
 18 37  1  0
 18 38  1  0
M  END
>  <Binding energies>  (1) 
[-5.01]

>  <Ligand effiencies>  (1) 
[-0.22772727272727272]

>  <Interactions>  (1) 
["V-A:ILE:369:CG2:3237, V-A:ILE:369:CD1:3239, V-B:GLU:543:CD:9880, H-A:ARG:545:NH2:4928, H-A:GLY:454:N:4050, H-A:TYR:484:OH:4348, V-B:GLU:543:CG:9879, H-A:ARG:545:NE:4924, V-A:LEU:475:CD2:4259, V-B:ALA:541:CB:9864, V-A:GLY:454:CA:4049, V-B:PRO:540:CA:9855, V-B:TYR:539:CE2:9848, V-B:PRO:540:C:9853, V-B:TYR:539:CD2:9846, V-B:ALA:541:CA:9862, V-A:TYR:484:CE2:4346, V-A:TYR:484:CZ:4347, H-A:SER:385:OG:3410, V-A:LEU:475:CG:4257"]

$$$$
2a_Ghoteimi_2023
     RDKit          3D

 85 90  0  0  0  0  0  0  0  0999 V2000
  125.6640  131.0060   56.7070 C   0  0  0  0  0  0  0  0  0  0  0  0
  124.2680  130.6700   57.2410 C   0  0  0  0  0  0  0  0  0  0  0  0
  124.3300  130.5030   58.6510 O   0  0  0  0  0  0  0  0  0  0  0  0
  125.5220  130.4580   59.3010 C   0  0  0  0  0  0  0  0  0  0  0  0
  126.1920  131.4620   59.5630 O   0  0  0  0  0  0  0  0  0  0  0  0
  125.9400  129.0650   59.6760 C   0  0  0  0  0  0  0  0  0  0  0  0
  126.2620  128.1010   58.7100 C   0  0  0  0  0  0  0  0  0  0  0  0
  126.6480  126.8200   59.0910 C   0  0  0  0  0  0  0  0  0  0  0  0
  126.7240  126.4750   60.4420 C   0  0  0  0  0  0  0  0  0  0  0  0
  127.1200  125.1510   60.7140 N   0  0  0  0  0  0  0  0  0  0  0  0
  127.4250  124.1470   59.8630 C   0  0  0  0  0  0  0  0  0  0  0  0
  127.3570  124.2140   58.6350 O   0  0  0  0  0  0  0  0  0  0  0  0
  127.8430  122.8310   60.5310 C   0  0  0  0  0  0  0  0  0  0  0  0
  129.4660  122.8870   61.3560 S   0  0  0  0  0  0  0  0  0  0  0  0
  129.5260  124.4540   62.1920 C   0  0  0  0  0  0  0  0  0  0  0  0
  129.6150  125.5170   61.3590 N   0  0  0  0  0  0  0  0  0  0  0  0
  129.6770  126.7680   61.8790 C   0  0  0  0  0  0  0  0  0  0  0  0
  129.7830  127.8930   60.9000 C   0  0  0  0  0  0  0  0  0  0  0  0
  130.2070  127.6710   59.5830 C   0  0  0  0  0  0  0  0  0  0  0  0
  130.3150  128.7230   58.6790 C   0  0  0  0  0  0  0  0  0  0  0  0
  129.9970  130.0370   59.0530 C   0  0  0  0  0  0  0  0  0  0  0  0
  130.1400  131.0880   58.1420 N   0  0  0  0  0  0  0  0  0  0  0  0
  131.4040  131.8430   58.0290 C   0  0  0  0  0  0  0  0  0  0  0  0
  131.5040  132.7040   56.7520 C   0  0  0  0  0  0  0  0  0  0  0  0
  130.3850  133.5710   56.6620 O   0  0  0  0  0  0  0  0  0  0  0  0
  129.1700  132.8430   56.5980 C   0  0  0  0  0  0  0  0  0  0  0  0
  128.9970  131.9850   57.8700 C   0  0  0  0  0  0  0  0  0  0  0  0
  129.5850  130.2550   60.3780 C   0  0  0  0  0  0  0  0  0  0  0  0
  129.4740  129.2030   61.2810 C   0  0  0  0  0  0  0  0  0  0  0  0
  129.6370  126.9800   63.2600 C   0  0  0  0  0  0  0  0  0  0  0  0
  129.5460  125.8950   64.1420 C   0  0  0  0  0  0  0  0  0  0  0  0
  129.5140  126.1920   65.6060 C   0  0  0  0  0  0  0  0  0  0  0  0
  128.7520  127.2590   66.0900 C   0  0  0  0  0  0  0  0  0  0  0  0
  128.7320  127.5570   67.4500 C   0  0  0  0  0  0  0  0  0  0  0  0
  129.4710  126.7940   68.3670 C   0  0  0  0  0  0  0  0  0  0  0  0
  129.4790  127.0880   69.7340 N   0  0  0  0  0  0  0  0  0  0  0  0
  128.1950  127.2190   70.4530 C   0  0  0  0  0  0  0  0  0  0  0  0
  128.3460  127.1510   71.9870 C   0  0  0  0  0  0  0  0  0  0  0  0
  129.2740  128.1300   72.4280 O   0  0  0  0  0  0  0  0  0  0  0  0
  130.5570  127.9350   71.8530 C   0  0  0  0  0  0  0  0  0  0  0  0
  130.4640  128.0200   70.3150 C   0  0  0  0  0  0  0  0  0  0  0  0
  130.2420  125.7330   67.8720 C   0  0  0  0  0  0  0  0  0  0  0  0
  130.2640  125.4360   66.5120 C   0  0  0  0  0  0  0  0  0  0  0  0
  129.4820  124.5890   63.5980 C   0  0  0  0  0  0  0  0  0  0  0  0
  129.3290  123.4180   64.4680 C   0  0  0  0  0  0  0  0  0  0  0  0
  129.2090  122.4960   65.1560 N   0  0  0  0  0  0  0  0  0  0  0  0
  126.3950  127.4310   61.4140 C   0  0  0  0  0  0  0  0  0  0  0  0
  126.0110  128.7140   61.0310 C   0  0  0  0  0  0  0  0  0  0  0  0
  126.3496  131.1710   57.5512 H   0  0  0  0  0  0  0  0  0  0  0  0
  126.0326  130.1709   56.0932 H   0  0  0  0  0  0  0  0  0  0  0  0
  125.6122  131.9173   56.0932 H   0  0  0  0  0  0  0  0  0  0  0  0
  123.5752  131.4893   56.9985 H   0  0  0  0  0  0  0  0  0  0  0  0
  123.9107  129.7394   56.7759 H   0  0  0  0  0  0  0  0  0  0  0  0
  126.2089  128.3598   57.6422 H   0  0  0  0  0  0  0  0  0  0  0  0
  126.8952  126.0731   58.3222 H   0  0  0  0  0  0  0  0  0  0  0  0
  127.1540  124.9250   61.6970 H   0  0  0  0  0  0  0  0  0  0  0  0
  127.0837  122.5708   61.2832 H   0  0  0  0  0  0  0  0  0  0  0  0
  127.9252  122.0840   59.7278 H   0  0  0  0  0  0  0  0  0  0  0  0
  130.4581  126.6502   59.2592 H   0  0  0  0  0  0  0  0  0  0  0  0
  130.6558  128.5208   57.6529 H   0  0  0  0  0  0  0  0  0  0  0  0
  131.4908  132.5064   58.9021 H   0  0  0  0  0  0  0  0  0  0  0  0
  132.2159  131.1025   57.9801 H   0  0  0  0  0  0  0  0  0  0  0  0
  132.4264  133.3023   56.7875 H   0  0  0  0  0  0  0  0  0  0  0  0
  131.5208  132.0440   55.8722 H   0  0  0  0  0  0  0  0  0  0  0  0
  128.3283  133.5465   56.5166 H   0  0  0  0  0  0  0  0  0  0  0  0
  129.1924  132.1823   55.7188 H   0  0  0  0  0  0  0  0  0  0  0  0
  128.8729  132.6598   58.7298 H   0  0  0  0  0  0  0  0  0  0  0  0
  128.1173  131.3446   57.7085 H   0  0  0  0  0  0  0  0  0  0  0  0
  129.3457  131.2768   60.7076 H   0  0  0  0  0  0  0  0  0  0  0  0
  129.1385  129.4039   62.3091 H   0  0  0  0  0  0  0  0  0  0  0  0
  129.6772  128.0051   63.6569 H   0  0  0  0  0  0  0  0  0  0  0  0
  128.1625  127.8692   65.3899 H   0  0  0  0  0  0  0  0  0  0  0  0
  128.1282  128.4027   67.8108 H   0  0  0  0  0  0  0  0  0  0  0  0
  127.7439  128.1869   70.1889 H   0  0  0  0  0  0  0  0  0  0  0  0
  127.5632  126.3713   70.1495 H   0  0  0  0  0  0  0  0  0  0  0  0
  127.3693  127.3370   72.4576 H   0  0  0  0  0  0  0  0  0  0  0  0
  128.7127  126.1532   72.2695 H   0  0  0  0  0  0  0  0  0  0  0  0
  131.2428  128.7127   72.2201 H   0  0  0  0  0  0  0  0  0  0  0  0
  130.9333  126.9414   72.1378 H   0  0  0  0  0  0  0  0  0  0  0  0
  130.1779  129.0458   70.0394 H   0  0  0  0  0  0  0  0  0  0  0  0
  131.4498  127.7408   69.9147 H   0  0  0  0  0  0  0  0  0  0  0  0
  130.8387  125.1259   68.5687 H   0  0  0  0  0  0  0  0  0  0  0  0
  130.8771  124.5989   66.1469 H   0  0  0  0  0  0  0  0  0  0  0  0
  126.4403  127.1671   62.4809 H   0  0  0  0  0  0  0  0  0  0  0  0
  125.7608  129.4596   61.8001 H   0  0  0  0  0  0  0  0  0  0  0  0
  1  2  1  0
  2  3  1  0
  3  4  1  0
  4  5  2  0
  4  6  1  0
  6  7  2  0
  7  8  1  0
  8  9  2  0
  9 10  1  0
 10 11  1  0
 11 12  2  0
 11 13  1  0
 13 14  1  0
 14 15  1  0
 15 16  2  0
 16 17  1  0
 17 18  1  0
 18 19  2  0
 19 20  1  0
 20 21  2  0
 21 22  1  0
 22 23  1  0
 23 24  1  0
 24 25  1  0
 25 26  1  0
 26 27  1  0
 21 28  1  0
 28 29  2  0
 17 30  2  0
 30 31  1  0
 31 32  1  0
 32 33  2  0
 33 34  1  0
 34 35  2  0
 35 36  1  0
 36 37  1  0
 37 38  1  0
 38 39  1  0
 39 40  1  0
 40 41  1  0
 35 42  1  0
 42 43  2  0
 31 44  2  0
 44 45  1  0
 45 46  3  0
  9 47  1  0
 47 48  2  0
 48  6  1  0
 44 15  1  0
 29 18  1  0
 43 32  1  0
 27 22  1  0
 41 36  1  0
  1 49  1  0
  1 50  1  0
  1 51  1  0
  2 52  1  0
  2 53  1  0
  7 54  1  0
  8 55  1  0
 10 56  1  0
 13 57  1  0
 13 58  1  0
 19 59  1  0
 20 60  1  0
 23 61  1  0
 23 62  1  0
 24 63  1  0
 24 64  1  0
 26 65  1  0
 26 66  1  0
 27 67  1  0
 27 68  1  0
 28 69  1  0
 29 70  1  0
 30 71  1  0
 33 72  1  0
 34 73  1  0
 37 74  1  0
 37 75  1  0
 38 76  1  0
 38 77  1  0
 40 78  1  0
 40 79  1  0
 41 80  1  0
 41 81  1  0
 42 82  1  0
 43 83  1  0
 47 84  1  0
 48 85  1  0
M  END
>  <Binding energies>  (1) 
[-9.57]

>  <Ligand effiencies>  (1) 
[-0.1953061224489796]

>  <Interactions>  (1) 
["V-B:GLU:543:CD:9880, V-B:GLU:543:CG:9879, V-A:GLU:543:CD:4908, V-A:HIS:456:CE1:4070, V-B:ASP:366:CB:8183, H-B:GLU:543:OE1:9881, V-B:ASP:366:CG:8184, V-B:PRO:540:CA:9855, V-B:TYR:531:CZ:9766, V-B:PRO:540:C:9853, V-A:MET:535:CE:4835, V-A:GLU:543:C:4902, V-B:GLU:543:CB:9878, V-A:GLY:544:C:4912, V-A:GLU:543:CB:4906, V-B:HIS:456:CE1:9041, V-A:PRO:540:CA:4883, V-A:PRO:540:CB:4885, V-A:LEU:363:CD1:3189, V-A:PRO:540:CD:4887, V-A:PRO:540:N:4884, V-A:TYR:539:CE1:4875, V-A:TYR:539:CZ:4877, H-A:TYR:539:N:4870, V-B:ASP:366:C:8179, V-B:ASP:366:CA:8181, V-A:ILE:538:CB:4862, V-A:ILE:538:CA:4860, V-A:ILE:538:CG2:4863"]

$$$$
2a_Grossjean_2025
     RDKit          3D

 45 46  0  0  0  0  0  0  0  0999 V2000
  130.9970  128.0100   69.7650 C   0  0  0  0  0  0  0  0  0  0  0  0
  129.5290  128.2530   70.1260 C   0  0  0  0  0  0  0  0  0  0  0  0
  128.7250  127.2380   69.5350 O   0  0  0  0  0  0  0  0  0  0  0  0
  129.0820  126.6570   68.3600 C   0  0  0  0  0  0  0  0  0  0  0  0
  129.5990  125.5390   68.2820 O   0  0  0  0  0  0  0  0  0  0  0  0
  128.7640  127.5050   67.1610 C   0  0  0  0  0  0  0  0  0  0  0  0
  128.2120  128.7880   67.2860 C   0  0  0  0  0  0  0  0  0  0  0  0
  127.9270  129.5480   66.1550 C   0  0  0  0  0  0  0  0  0  0  0  0
  128.1810  129.0420   64.8800 C   0  0  0  0  0  0  0  0  0  0  0  0
  127.8420  129.8900   63.8100 N   0  0  0  0  0  0  0  0  0  0  0  0
  127.8110  131.2380   63.7470 C   0  0  0  0  0  0  0  0  0  0  0  0
  128.0660  132.0030   64.6780 O   0  0  0  0  0  0  0  0  0  0  0  0
  127.4190  131.8280   62.3880 C   0  0  0  0  0  0  0  0  0  0  0  0
  128.5250  133.1680   61.8360 S   0  0  0  0  0  0  0  0  0  0  0  0
  130.0280  132.4710   61.1600 C   0  0  0  0  0  0  0  0  0  0  0  0
  130.9890  132.1530   62.0650 N   0  0  0  0  0  0  0  0  0  0  0  0
  132.1560  131.6330   61.6240 C   0  0  0  0  0  0  0  0  0  0  0  0
  133.1900  131.3290   62.6920 C   0  0  0  0  0  0  0  0  0  0  0  0
  132.4130  131.4010   60.2760 C   0  0  0  0  0  0  0  0  0  0  0  0
  131.4310  131.7140   59.3230 C   0  0  0  0  0  0  0  0  0  0  0  0
  131.7310  131.4500   57.8350 C   0  0  0  0  0  0  0  0  0  0  0  0
  132.9390  130.9040   57.7010 F   0  0  0  0  0  0  0  0  0  0  0  0
  130.8200  130.6170   57.3280 F   0  0  0  0  0  0  0  0  0  0  0  0
  131.7090  132.5640   57.1000 F   0  0  0  0  0  0  0  0  0  0  0  0
  130.2030  132.2630   59.7720 C   0  0  0  0  0  0  0  0  0  0  0  0
  129.1440  132.6110   58.8190 C   0  0  0  0  0  0  0  0  0  0  0  0
  128.3080  132.8860   58.0670 N   0  0  0  0  0  0  0  0  0  0  0  0
  128.7410  127.7630   64.7470 C   0  0  0  0  0  0  0  0  0  0  0  0
  129.0290  127.0060   65.8800 C   0  0  0  0  0  0  0  0  0  0  0  0
  131.5898  127.9119   70.6864 H   0  0  0  0  0  0  0  0  0  0  0  0
  131.0813  127.0857   69.1746 H   0  0  0  0  0  0  0  0  0  0  0  0
  131.3746  128.8579   69.1746 H   0  0  0  0  0  0  0  0  0  0  0  0
  129.4101  128.2259   71.2192 H   0  0  0  0  0  0  0  0  0  0  0  0
  129.2151  129.2377   69.7494 H   0  0  0  0  0  0  0  0  0  0  0  0
  128.0026  129.1970   68.2854 H   0  0  0  0  0  0  0  0  0  0  0  0
  127.4984  130.5548   66.2675 H   0  0  0  0  0  0  0  0  0  0  0  0
  127.6340  129.4040   62.9510 H   0  0  0  0  0  0  0  0  0  0  0  0
  127.4441  131.0236   61.6381 H   0  0  0  0  0  0  0  0  0  0  0  0
  126.4138  132.2608   62.4990 H   0  0  0  0  0  0  0  0  0  0  0  0
  132.7395  131.4614   63.6868 H   0  0  0  0  0  0  0  0  0  0  0  0
  133.5367  130.2909   62.5818 H   0  0  0  0  0  0  0  0  0  0  0  0
  134.0434  132.0143   62.5818 H   0  0  0  0  0  0  0  0  0  0  0  0
  133.3772  130.9761   59.9601 H   0  0  0  0  0  0  0  0  0  0  0  0
  128.9530  127.3573   63.7467 H   0  0  0  0  0  0  0  0  0  0  0  0
  129.4698  126.0045   65.7671 H   0  0  0  0  0  0  0  0  0  0  0  0
  1  2  1  0
  2  3  1  0
  3  4  1  0
  4  5  2  0
  4  6  1  0
  6  7  2  0
  7  8  1  0
  8  9  2  0
  9 10  1  0
 10 11  1  0
 11 12  2  0
 11 13  1  0
 13 14  1  0
 14 15  1  0
 15 16  2  0
 16 17  1  0
 17 18  1  0
 17 19  2  0
 19 20  1  0
 20 21  1  0
 21 22  1  0
 21 23  1  0
 21 24  1  0
 20 25  2  0
 25 26  1  0
 26 27  3  0
  9 28  1  0
 28 29  2  0
 29  6  1  0
 25 15  1  0
  1 30  1  0
  1 31  1  0
  1 32  1  0
  2 33  1  0
  2 34  1  0
  7 35  1  0
  8 36  1  0
 10 37  1  0
 13 38  1  0
 13 39  1  0
 18 40  1  0
 18 41  1  0
 18 42  1  0
 19 43  1  0
 28 44  1  0
 29 45  1  0
M  END
>  <Binding energies>  (1) 
[-7.38]

>  <Ligand effiencies>  (1) 
[-0.246]

>  <Interactions>  (1) 
["V-A:ASP:366:CB:3212, V-B:GLU:543:CD:9880, V-B:GLU:543:CG:9879, V-A:GLU:543:CD:4908, V-A:HIS:456:CE1:4070, V-A:GLU:543:C:4902, V-B:GLU:543:CB:9878, V-A:GLY:544:C:4912, V-A:GLU:543:CB:4906, V-B:HIS:456:CE1:9041, V-A:GLU:543:CG:4907, H-B:TYR:484:OH:9319, V-B:TYR:484:CZ:9318, V-A:PRO:540:CA:4883, V-A:PRO:540:CB:4885, V-A:LEU:363:CD1:3189, V-A:PRO:540:CD:4887, V-A:PRO:540:N:4884, H-A:ALA:541:N:4891, V-A:PRO:540:C:4881, V-A:TYR:531:CE2:4793, V-A:TYR:539:C:4867, V-A:ASN:362:CB:3176, V-A:ASN:362:CG:3177"]

$$$$
2aa_Ghoteimi_2023
     RDKit          3D

 85 90  0  0  0  0  0  0  0  0999 V2000
  134.3780  123.0630   62.1650 C   0  0  0  0  0  0  0  0  0  0  0  0
  133.8850  122.9310   60.7200 C   0  0  0  0  0  0  0  0  0  0  0  0
  134.2960  124.0710   59.9770 O   0  0  0  0  0  0  0  0  0  0  0  0
  133.4520  124.6830   59.1050 C   0  0  0  0  0  0  0  0  0  0  0  0
  133.5400  124.5670   57.8780 O   0  0  0  0  0  0  0  0  0  0  0  0
  132.3910  125.5020   59.7830 C   0  0  0  0  0  0  0  0  0  0  0  0
  132.2860  125.5680   61.1800 C   0  0  0  0  0  0  0  0  0  0  0  0
  131.2940  126.3390   61.7790 C   0  0  0  0  0  0  0  0  0  0  0  0
  130.3850  127.0530   60.9960 C   0  0  0  0  0  0  0  0  0  0  0  0
  129.4260  127.8030   61.7050 N   0  0  0  0  0  0  0  0  0  0  0  0
  128.0870  127.8720   61.5390 C   0  0  0  0  0  0  0  0  0  0  0  0
  127.4420  127.2310   60.7080 O   0  0  0  0  0  0  0  0  0  0  0  0
  127.3730  128.8240   62.5080 C   0  0  0  0  0  0  0  0  0  0  0  0
  128.2140  129.0830   63.6370 O   0  0  0  0  0  0  0  0  0  0  0  0
  128.6130  128.0400   64.4620 C   0  0  0  0  0  0  0  0  0  0  0  0
  128.9290  126.8490   63.8820 N   0  0  0  0  0  0  0  0  0  0  0  0
  129.3260  125.8100   64.6590 C   0  0  0  0  0  0  0  0  0  0  0  0
  129.6530  124.5330   63.9520 C   0  0  0  0  0  0  0  0  0  0  0  0
  130.8110  123.8150   64.2720 C   0  0  0  0  0  0  0  0  0  0  0  0
  131.1160  122.6220   63.6220 C   0  0  0  0  0  0  0  0  0  0  0  0
  130.2670  122.0940   62.6370 C   0  0  0  0  0  0  0  0  0  0  0  0
  130.5660  120.9030   61.9650 N   0  0  0  0  0  0  0  0  0  0  0  0
  129.5940  119.7920   61.8990 C   0  0  0  0  0  0  0  0  0  0  0  0
  130.2090  118.4540   61.4410 C   0  0  0  0  0  0  0  0  0  0  0  0
  130.8720  118.6230   60.1980 O   0  0  0  0  0  0  0  0  0  0  0  0
  131.9220  119.5720   60.2950 C   0  0  0  0  0  0  0  0  0  0  0  0
  131.3580  120.9450   60.7190 C   0  0  0  0  0  0  0  0  0  0  0  0
  129.1190  122.8280   62.3050 C   0  0  0  0  0  0  0  0  0  0  0  0
  128.8160  124.0220   62.9530 C   0  0  0  0  0  0  0  0  0  0  0  0
  129.4010  125.9350   66.0490 C   0  0  0  0  0  0  0  0  0  0  0  0
  129.0700  127.1450   66.6720 C   0  0  0  0  0  0  0  0  0  0  0  0
  129.1440  127.2110   68.1640 C   0  0  0  0  0  0  0  0  0  0  0  0
  128.0240  126.9030   68.9400 C   0  0  0  0  0  0  0  0  0  0  0  0
  128.0800  126.9810   70.3290 C   0  0  0  0  0  0  0  0  0  0  0  0
  129.2560  127.3830   70.9820 C   0  0  0  0  0  0  0  0  0  0  0  0
  129.3360  127.4650   72.3750 N   0  0  0  0  0  0  0  0  0  0  0  0
  130.0000  126.4140   73.1690 C   0  0  0  0  0  0  0  0  0  0  0  0
  130.3020  126.8410   74.6220 C   0  0  0  0  0  0  0  0  0  0  0  0
  129.1100  127.2780   75.2570 O   0  0  0  0  0  0  0  0  0  0  0  0
  128.5360  128.3880   74.5830 C   0  0  0  0  0  0  0  0  0  0  0  0
  128.1870  128.0020   73.1310 C   0  0  0  0  0  0  0  0  0  0  0  0
  130.3760  127.6830   70.1950 C   0  0  0  0  0  0  0  0  0  0  0  0
  130.3200  127.6050   68.8070 C   0  0  0  0  0  0  0  0  0  0  0  0
  128.6790  128.2310   65.8540 C   0  0  0  0  0  0  0  0  0  0  0  0
  128.3630  129.5470   66.4140 C   0  0  0  0  0  0  0  0  0  0  0  0
  128.1140  130.5870   66.8570 N   0  0  0  0  0  0  0  0  0  0  0  0
  130.4880  126.9990   59.5990 C   0  0  0  0  0  0  0  0  0  0  0  0
  131.4830  126.2290   59.0030 C   0  0  0  0  0  0  0  0  0  0  0  0
  133.5513  122.8417   62.8561 H   0  0  0  0  0  0  0  0  0  0  0  0
  135.2006  122.3535   62.3380 H   0  0  0  0  0  0  0  0  0  0  0  0
  134.7360  124.0886   62.3380 H   0  0  0  0  0  0  0  0  0  0  0  0
  134.3122  122.0240   60.2675 H   0  0  0  0  0  0  0  0  0  0  0  0
  132.7873  122.8612   60.7103 H   0  0  0  0  0  0  0  0  0  0  0  0
  132.9934  125.0059   61.8074 H   0  0  0  0  0  0  0  0  0  0  0  0
  131.2258  126.3860   62.8759 H   0  0  0  0  0  0  0  0  0  0  0  0
  129.8060  128.3350   62.4740 H   0  0  0  0  0  0  0  0  0  0  0  0
  127.1502  129.7703   61.9933 H   0  0  0  0  0  0  0  0  0  0  0  0
  126.4361  128.3603   62.8503 H   0  0  0  0  0  0  0  0  0  0  0  0
  131.4898  124.1986   65.0480 H   0  0  0  0  0  0  0  0  0  0  0  0
  132.0386  122.0839   63.8851 H   0  0  0  0  0  0  0  0  0  0  0  0
  129.1609  119.6501   62.9001 H   0  0  0  0  0  0  0  0  0  0  0  0
  128.8387  120.0709   61.1495 H   0  0  0  0  0  0  0  0  0  0  0  0
  130.9317  118.1086   62.1950 H   0  0  0  0  0  0  0  0  0  0  0  0
  129.4070  117.7103   61.3234 H   0  0  0  0  0  0  0  0  0  0  0  0
  132.6522  119.2315   61.0439 H   0  0  0  0  0  0  0  0  0  0  0  0
  132.4103  119.6705   59.3143 H   0  0  0  0  0  0  0  0  0  0  0  0
  132.2010  121.6360   60.8666 H   0  0  0  0  0  0  0  0  0  0  0  0
  130.6798  121.2749   59.9182 H   0  0  0  0  0  0  0  0  0  0  0  0
  128.4465  122.4537   61.5191 H   0  0  0  0  0  0  0  0  0  0  0  0
  127.9049  124.5725   62.6759 H   0  0  0  0  0  0  0  0  0  0  0  0
  129.7222  125.0771   66.6580 H   0  0  0  0  0  0  0  0  0  0  0  0
  127.0888  126.5959   68.4489 H   0  0  0  0  0  0  0  0  0  0  0  0
  127.1905  126.7241   70.9230 H   0  0  0  0  0  0  0  0  0  0  0  0
  129.3454  125.5303   73.1943 H   0  0  0  0  0  0  0  0  0  0  0  0
  130.9653  126.2031   72.6855 H   0  0  0  0  0  0  0  0  0  0  0  0
  130.7164  125.9850   75.1746 H   0  0  0  0  0  0  0  0  0  0  0  0
  131.0294  127.6661   74.6122 H   0  0  0  0  0  0  0  0  0  0  0  0
  127.6202  128.6985   75.1073 H   0  0  0  0  0  0  0  0  0  0  0  0
  129.2594  129.2166   74.5719 H   0  0  0  0  0  0  0  0  0  0  0  0
  127.3965  127.2374   73.1538 H   0  0  0  0  0  0  0  0  0  0  0  0
  127.8624  128.9203   72.6198 H   0  0  0  0  0  0  0  0  0  0  0  0
  131.3147  127.9851   70.6825 H   0  0  0  0  0  0  0  0  0  0  0  0
  131.2096  127.8558   68.2106 H   0  0  0  0  0  0  0  0  0  0  0  0
  129.7823  127.5653   58.9734 H   0  0  0  0  0  0  0  0  0  0  0  0
  131.5569  126.1912   57.9061 H   0  0  0  0  0  0  0  0  0  0  0  0
  1  2  1  0
  2  3  1  0
  3  4  1  0
  4  5  2  0
  4  6  1  0
  6  7  2  0
  7  8  1  0
  8  9  2  0
  9 10  1  0
 10 11  1  0
 11 12  2  0
 11 13  1  0
 13 14  1  0
 14 15  1  0
 15 16  2  0
 16 17  1  0
 17 18  1  0
 18 19  2  0
 19 20  1  0
 20 21  2  0
 21 22  1  0
 22 23  1  0
 23 24  1  0
 24 25  1  0
 25 26  1  0
 26 27  1  0
 21 28  1  0
 28 29  2  0
 17 30  2  0
 30 31  1  0
 31 32  1  0
 32 33  2  0
 33 34  1  0
 34 35  2  0
 35 36  1  0
 36 37  1  0
 37 38  1  0
 38 39  1  0
 39 40  1  0
 40 41  1  0
 35 42  1  0
 42 43  2  0
 31 44  2  0
 44 45  1  0
 45 46  3  0
  9 47  1  0
 47 48  2  0
 48  6  1  0
 44 15  1  0
 29 18  1  0
 43 32  1  0
 27 22  1  0
 41 36  1  0
  1 49  1  0
  1 50  1  0
  1 51  1  0
  2 52  1  0
  2 53  1  0
  7 54  1  0
  8 55  1  0
 10 56  1  0
 13 57  1  0
 13 58  1  0
 19 59  1  0
 20 60  1  0
 23 61  1  0
 23 62  1  0
 24 63  1  0
 24 64  1  0
 26 65  1  0
 26 66  1  0
 27 67  1  0
 27 68  1  0
 28 69  1  0
 29 70  1  0
 30 71  1  0
 33 72  1  0
 34 73  1  0
 37 74  1  0
 37 75  1  0
 38 76  1  0
 38 77  1  0
 40 78  1  0
 40 79  1  0
 41 80  1  0
 41 81  1  0
 42 82  1  0
 43 83  1  0
 47 84  1  0
 48 85  1  0
M  END
>  <Binding energies>  (1) 
[-8.56]

>  <Ligand effiencies>  (1) 
[-0.17469387755102042]

>  <Interactions>  (1) 
["V-A:ILE:369:CG2:3237, V-A:ILE:369:CD1:3239, V-A:ASP:366:CB:3212, V-A:GLY:453:C:4042, V-B:GLU:543:CD:9880, V-A:ASP:366:CA:3210, V-A:ASP:366:CG:3213, H-A:GLU:543:OE1:4909, V-B:GLU:543:CG:9879, V-A:ILE:369:CB:3236, V-A:GLU:543:CD:4908, V-A:LEU:475:CD2:4259, V-A:HIS:456:CE1:4070, V-B:ALA:541:CB:9864, V-A:GLY:454:CA:4049, V-B:TYR:539:CE2:9848, V-B:PRO:540:C:9853, V-B:TYR:539:CD2:9846, V-B:ALA:541:CA:9862, V-B:GLU:543:C:9874, V-A:HIS:456:CD2:4068, V-B:GLU:543:CB:9878, V-A:SER:385:CB:3409, V-A:PRO:482:CB:4326, V-A:GLU:543:CB:4906, V-B:HIS:456:CD2:9039, V-B:HIS:456:CE1:9041, V-A:GLU:543:CG:4907, H-B:TYR:484:OH:9319, V-B:TYR:484:CZ:9318, H-B:TYR:539:OH:9850, H-A:SER:385:OG:3410, H-A:LYS:547:NZ:4951, H-B:LYS:547:NZ:9923, V-A:LEU:475:CG:4257, H-A:HIS:383:HE2:3395"]

$$$$
2b_Ghoteimi_2023
     RDKit          3D

 72 77  0  0  0  0  0  0  0  0999 V2000
  128.5560  127.7640   61.7960 N   0  0  0  0  0  0  0  0  0  0  0  0
  128.6330  127.6960   62.9490 C   0  0  0  0  0  0  0  0  0  0  0  0
  128.7340  127.6040   64.4080 C   0  0  0  0  0  0  0  0  0  0  0  0
  129.4340  126.5320   65.0160 C   0  0  0  0  0  0  0  0  0  0  0  0
  130.1070  125.4400   64.2510 C   0  0  0  0  0  0  0  0  0  0  0  0
  131.3210  125.6800   63.6040 C   0  0  0  0  0  0  0  0  0  0  0  0
  131.9520  124.6660   62.8880 C   0  0  0  0  0  0  0  0  0  0  0  0
  131.3780  123.3890   62.7860 C   0  0  0  0  0  0  0  0  0  0  0  0
  131.9980  122.3540   62.0850 N   0  0  0  0  0  0  0  0  0  0  0  0
  131.2010  121.5470   61.1390 C   0  0  0  0  0  0  0  0  0  0  0  0
  131.8890  120.2280   60.7300 C   0  0  0  0  0  0  0  0  0  0  0  0
  133.1840  120.4920   60.2120 O   0  0  0  0  0  0  0  0  0  0  0  0
  134.0090  121.1400   61.1670 C   0  0  0  0  0  0  0  0  0  0  0  0
  133.3790  122.4860   61.5790 C   0  0  0  0  0  0  0  0  0  0  0  0
  130.1580  123.1600   63.4360 C   0  0  0  0  0  0  0  0  0  0  0  0
  129.5280  124.1720   64.1550 C   0  0  0  0  0  0  0  0  0  0  0  0
  129.5080  126.4900   66.4130 C   0  0  0  0  0  0  0  0  0  0  0  0
  128.9300  127.5030   67.1830 C   0  0  0  0  0  0  0  0  0  0  0  0
  129.0060  127.5210   68.6770 C   0  0  0  0  0  0  0  0  0  0  0  0
  130.1630  127.9630   69.3270 C   0  0  0  0  0  0  0  0  0  0  0  0
  130.2360  127.9980   70.7170 C   0  0  0  0  0  0  0  0  0  0  0  0
  129.1570  127.5780   71.5110 C   0  0  0  0  0  0  0  0  0  0  0  0
  129.2030  127.6360   72.9080 N   0  0  0  0  0  0  0  0  0  0  0  0
  130.4240  127.2080   73.6220 C   0  0  0  0  0  0  0  0  0  0  0  0
  130.2030  126.9550   75.1290 C   0  0  0  0  0  0  0  0  0  0  0  0
  129.6340  128.1050   75.7360 O   0  0  0  0  0  0  0  0  0  0  0  0
  128.3770  128.4280   75.1640 C   0  0  0  0  0  0  0  0  0  0  0  0
  128.5420  128.7220   73.6570 C   0  0  0  0  0  0  0  0  0  0  0  0
  127.9960  127.1420   70.8550 C   0  0  0  0  0  0  0  0  0  0  0  0
  127.9240  127.1110   69.4650 C   0  0  0  0  0  0  0  0  0  0  0  0
  128.2610  128.5300   66.6000 N   0  0  0  0  0  0  0  0  0  0  0  0
  128.1470  128.5750   65.2510 C   0  0  0  0  0  0  0  0  0  0  0  0
  127.2360  129.9840   64.6590 S   0  0  0  0  0  0  0  0  0  0  0  0
  127.5840  130.1560   62.8830 C   0  0  0  0  0  0  0  0  0  0  0  0
  128.7380  131.1240   62.6140 C   0  0  0  0  0  0  0  0  0  0  0  0
  128.5490  132.3360   62.7330 O   0  0  0  0  0  0  0  0  0  0  0  0
  129.9060  130.5510   62.2510 N   0  0  0  0  0  0  0  0  0  0  0  0
  131.1030  131.1890   61.9620 C   0  0  0  0  0  0  0  0  0  0  0  0
  131.8470  130.9260   60.8130 C   0  0  0  0  0  0  0  0  0  0  0  0
  132.9440  131.7500   60.9000 C   0  0  0  0  0  0  0  0  0  0  0  0
  132.8650  132.4740   62.0420 O   0  0  0  0  0  0  0  0  0  0  0  0
  131.6910  132.1100   62.7070 N   0  0  0  0  0  0  0  0  0  0  0  0
  131.7821  126.6771   63.6603 H   0  0  0  0  0  0  0  0  0  0  0  0
  132.9143  124.8686   62.3951 H   0  0  0  0  0  0  0  0  0  0  0  0
  130.2374  121.3060   61.6117 H   0  0  0  0  0  0  0  0  0  0  0  0
  131.0766  122.1461   60.2249 H   0  0  0  0  0  0  0  0  0  0  0  0
  131.9760  119.5749   61.6109 H   0  0  0  0  0  0  0  0  0  0  0  0
  131.2857  119.7333   59.9546 H   0  0  0  0  0  0  0  0  0  0  0  0
  134.1119  120.4987   62.0548 H   0  0  0  0  0  0  0  0  0  0  0  0
  134.9989  121.3244   60.7242 H   0  0  0  0  0  0  0  0  0  0  0  0
  133.9990  122.9343   62.3693 H   0  0  0  0  0  0  0  0  0  0  0  0
  133.3370  123.1155   60.6779 H   0  0  0  0  0  0  0  0  0  0  0  0
  129.6911  122.1657   63.3773 H   0  0  0  0  0  0  0  0  0  0  0  0
  128.5670  123.9718   64.6514 H   0  0  0  0  0  0  0  0  0  0  0  0
  130.0244  125.6544   66.9080 H   0  0  0  0  0  0  0  0  0  0  0  0
  131.0285  128.2879   68.7309 H   0  0  0  0  0  0  0  0  0  0  0  0
  131.1546  128.3609   71.2012 H   0  0  0  0  0  0  0  0  0  0  0  0
  130.7869  126.2767   73.1627 H   0  0  0  0  0  0  0  0  0  0  0  0
  131.1518  128.0284   73.5363 H   0  0  0  0  0  0  0  0  0  0  0  0
  129.5229  126.1003   75.2590 H   0  0  0  0  0  0  0  0  0  0  0  0
  131.1708  126.7373   75.6043 H   0  0  0  0  0  0  0  0  0  0  0  0
  127.6881  127.5808   75.2965 H   0  0  0  0  0  0  0  0  0  0  0  0
  127.9717  129.3203   75.6636 H   0  0  0  0  0  0  0  0  0  0  0  0
  127.5440  128.8847   73.2239 H   0  0  0  0  0  0  0  0  0  0  0  0
  129.1870  129.6090   73.5720 H   0  0  0  0  0  0  0  0  0  0  0  0
  127.1281  126.8193   71.4488 H   0  0  0  0  0  0  0  0  0  0  0  0
  127.0025  126.7588   68.9783 H   0  0  0  0  0  0  0  0  0  0  0  0
  127.8470  129.1686   62.4758 H   0  0  0  0  0  0  0  0  0  0  0  0
  126.6828  130.5601   62.3987 H   0  0  0  0  0  0  0  0  0  0  0  0
  129.9310  129.5420   62.2050 H   0  0  0  0  0  0  0  0  0  0  0  0
  131.6080  130.2131   60.0101 H   0  0  0  0  0  0  0  0  0  0  0  0
  133.7560  131.8115   60.1605 H   0  0  0  0  0  0  0  0  0  0  0  0
  1  2  3  0
  2  3  1  0
  3  4  2  0
  4  5  1  0
  5  6  2  0
  6  7  1  0
  7  8  2  0
  8  9  1  0
  9 10  1  0
 10 11  1  0
 11 12  1  0
 12 13  1  0
 13 14  1  0
  8 15  1  0
 15 16  2  0
  4 17  1  0
 17 18  2  0
 18 19  1  0
 19 20  2  0
 20 21  1  0
 21 22  2  0
 22 23  1  0
 23 24  1  0
 24 25  1  0
 25 26  1  0
 26 27  1  0
 27 28  1  0
 22 29  1  0
 29 30  2  0
 18 31  1  0
 31 32  2  0
 32 33  1  0
 33 34  1  0
 34 35  1  0
 35 36  2  0
 35 37  1  0
 37 38  1  0
 38 39  1  0
 39 40  2  0
 40 41  1  0
 41 42  1  0
 32  3  1  0
 42 38  2  0
 16  5  1  0
 30 19  1  0
 14  9  1  0
 28 23  1  0
  6 43  1  0
  7 44  1  0
 10 45  1  0
 10 46  1  0
 11 47  1  0
 11 48  1  0
 13 49  1  0
 13 50  1  0
 14 51  1  0
 14 52  1  0
 15 53  1  0
 16 54  1  0
 17 55  1  0
 20 56  1  0
 21 57  1  0
 24 58  1  0
 24 59  1  0
 25 60  1  0
 25 61  1  0
 27 62  1  0
 27 63  1  0
 28 64  1  0
 28 65  1  0
 29 66  1  0
 30 67  1  0
 34 68  1  0
 34 69  1  0
 37 70  1  0
 39 71  1  0
 40 72  1  0
M  END
>  <Binding energies>  (1) 
[-10.29]

>  <Ligand effiencies>  (1) 
[-0.23930232558139533]

>  <Interactions>  (1) 
["V-A:ILE:369:CG2:3237, V-A:ILE:369:CD1:3239, V-B:GLU:543:CD:9880, H-A:GLU:543:OE1:4909, V-B:GLU:543:CG:9879, V-A:GLU:543:CD:4908, V-A:LEU:475:CD2:4259, V-A:HIS:456:CE1:4070, V-B:TYR:539:CE2:9848, V-B:TYR:539:CD2:9846, V-A:GLU:543:C:4902, V-B:GLU:543:C:9874, V-A:HIS:456:CD2:4068, V-B:GLU:543:CB:9878, V-A:GLY:544:C:4912, V-A:SER:385:CB:3409, V-A:GLU:543:CB:4906, V-B:HIS:456:CD2:9039, V-B:HIS:456:CE1:9041, V-A:GLU:543:CG:4907, H-B:TYR:484:OH:9319, V-A:PRO:540:CA:4883, V-A:PRO:540:CB:4885, H-A:ALA:541:N:4891, V-A:SER:385:C:3405, V-A:SER:385:CA:3407, H-A:SER:385:OG:3410, H-A:LYS:547:NZ:4951, H-B:LYS:547:NZ:9923"]

$$$$
2b_Grossjean_2025
     RDKit          3D

 42 43  0  0  0  0  0  0  0  0999 V2000
  129.4910  131.1950   73.2790 C   0  0  0  0  0  0  0  0  0  0  0  0
  130.1290  129.9390   73.1000 O   0  0  0  0  0  0  0  0  0  0  0  0
  129.4060  128.8140   72.8640 C   0  0  0  0  0  0  0  0  0  0  0  0
  128.6520  128.3030   73.6970 O   0  0  0  0  0  0  0  0  0  0  0  0
  129.6180  128.2520   71.4880 C   0  0  0  0  0  0  0  0  0  0  0  0
  128.5920  127.6030   70.7850 C   0  0  0  0  0  0  0  0  0  0  0  0
  128.8220  127.0910   69.5120 C   0  0  0  0  0  0  0  0  0  0  0  0
  130.0750  127.2200   68.9130 C   0  0  0  0  0  0  0  0  0  0  0  0
  130.2000  126.6610   67.6270 N   0  0  0  0  0  0  0  0  0  0  0  0
  129.9710  125.3970   67.2100 C   0  0  0  0  0  0  0  0  0  0  0  0
  129.6190  124.4620   67.9300 O   0  0  0  0  0  0  0  0  0  0  0  0
  130.1980  125.1510   65.7150 C   0  0  0  0  0  0  0  0  0  0  0  0
  130.0590  123.3950   65.2480 S   0  0  0  0  0  0  0  0  0  0  0  0
  130.6410  123.1610   63.5740 C   0  0  0  0  0  0  0  0  0  0  0  0
  129.7510  122.6050   62.7130 N   0  0  0  0  0  0  0  0  0  0  0  0
  130.1250  122.3940   61.4310 C   0  0  0  0  0  0  0  0  0  0  0  0
  129.0780  121.7580   60.5370 C   0  0  0  0  0  0  0  0  0  0  0  0
  131.3880  122.7310   60.9520 C   0  0  0  0  0  0  0  0  0  0  0  0
  132.3220  123.3140   61.8220 C   0  0  0  0  0  0  0  0  0  0  0  0
  133.7130  123.6860   61.2760 C   0  0  0  0  0  0  0  0  0  0  0  0
  133.7570  123.4730   59.9600 F   0  0  0  0  0  0  0  0  0  0  0  0
  133.9710  124.9730   61.5140 F   0  0  0  0  0  0  0  0  0  0  0  0
  134.6950  122.9710   61.8310 F   0  0  0  0  0  0  0  0  0  0  0  0
  131.9440  123.5350   63.1720 C   0  0  0  0  0  0  0  0  0  0  0  0
  132.8820  124.1340   64.1260 C   0  0  0  0  0  0  0  0  0  0  0  0
  133.6230  124.6080   64.8790 N   0  0  0  0  0  0  0  0  0  0  0  0
  131.1090  127.8600   69.6110 C   0  0  0  0  0  0  0  0  0  0  0  0
  130.8780  128.3710   70.8850 C   0  0  0  0  0  0  0  0  0  0  0  0
  129.3855  131.4027   74.3540 H   0  0  0  0  0  0  0  0  0  0  0  0
  130.0974  131.9843   72.8108 H   0  0  0  0  0  0  0  0  0  0  0  0
  128.4959  131.1708   72.8108 H   0  0  0  0  0  0  0  0  0  0  0  0
  127.5978  127.4981   71.2439 H   0  0  0  0  0  0  0  0  0  0  0  0
  128.0096  126.5806   68.9739 H   0  0  0  0  0  0  0  0  0  0  0  0
  130.5590  127.2980   66.9320 H   0  0  0  0  0  0  0  0  0  0  0  0
  129.4490  125.7239   65.1486 H   0  0  0  0  0  0  0  0  0  0  0  0
  131.2245  125.4710   65.4829 H   0  0  0  0  0  0  0  0  0  0  0  0
  128.3024  121.2868   61.1586 H   0  0  0  0  0  0  0  0  0  0  0  0
  128.6198  122.5305   59.9020 H   0  0  0  0  0  0  0  0  0  0  0  0
  129.5524  120.9953   59.9020 H   0  0  0  0  0  0  0  0  0  0  0  0
  131.6514  122.5419   59.9009 H   0  0  0  0  0  0  0  0  0  0  0  0
  132.1036  127.9584   69.1514 H   0  0  0  0  0  0  0  0  0  0  0  0
  131.6937  128.8741   71.4250 H   0  0  0  0  0  0  0  0  0  0  0  0
  1  2  1  0
  2  3  1  0
  3  4  2  0
  3  5  1  0
  5  6  2  0
  6  7  1  0
  7  8  2  0
  8  9  1  0
  9 10  1  0
 10 11  2  0
 10 12  1  0
 12 13  1  0
 13 14  1  0
 14 15  2  0
 15 16  1  0
 16 17  1  0
 16 18  2  0
 18 19  1  0
 19 20  1  0
 20 21  1  0
 20 22  1  0
 20 23  1  0
 19 24  2  0
 24 25  1  0
 25 26  3  0
  8 27  1  0
 27 28  2  0
 28  5  1  0
 24 14  1  0
  1 29  1  0
  1 30  1  0
  1 31  1  0
  6 32  1  0
  7 33  1  0
  9 34  1  0
 12 35  1  0
 12 36  1  0
 17 37  1  0
 17 38  1  0
 17 39  1  0
 18 40  1  0
 27 41  1  0
 28 42  1  0
M  END
>  <Binding energies>  (1) 
[-7.54]

>  <Ligand effiencies>  (1) 
[-0.26]

>  <Interactions>  (1) 
["V-A:ILE:369:CG2:3237, V-A:ILE:369:CD1:3239, V-A:GLY:453:C:4042, H-A:ARG:545:NH2:4928, H-A:GLY:454:N:4050, V-A:ASP:366:CG:3213, H-A:GLU:543:OE1:4909, H-A:TYR:484:OH:4348, V-B:GLU:543:CG:9879, H-A:ARG:545:NE:4924, V-A:ILE:369:CB:3236, V-A:GLU:543:CD:4908, H-A:GLU:543:OE2:4910, V-A:LEU:475:CD2:4259, V-A:HIS:456:CE1:4070, V-A:GLY:454:CA:4049, V-B:TYR:539:C:9839, V-B:PRO:540:CA:9855, V-B:TYR:539:CE2:9848, V-B:TYR:539:CD2:9846, V-A:GLU:543:C:4902, V-B:GLU:543:CB:9878, V-A:GLY:544:C:4912, V-A:GLU:543:CB:4906, V-B:HIS:456:CD2:9039, V-B:HIS:456:CE1:9041, H-A:LYS:547:NZ:4951, H-B:LYS:547:NZ:9923, V-A:GLY:544:CA:4914, V-A:LYS:547:CE:4950"]

$$$$
2c_Ghoteimi_2023
     RDKit          3D

 72 77  0  0  0  0  0  0  0  0999 V2000
  128.5000  127.6720   61.7030 N   0  0  0  0  0  0  0  0  0  0  0  0
  128.5940  127.6230   62.8550 C   0  0  0  0  0  0  0  0  0  0  0  0
  128.7170  127.5560   64.3140 C   0  0  0  0  0  0  0  0  0  0  0  0
  129.4140  126.4870   64.9310 C   0  0  0  0  0  0  0  0  0  0  0  0
  130.0590  125.3700   64.1780 C   0  0  0  0  0  0  0  0  0  0  0  0
  131.2670  125.5800   63.5090 C   0  0  0  0  0  0  0  0  0  0  0  0
  131.8770  124.5430   62.8090 C   0  0  0  0  0  0  0  0  0  0  0  0
  131.2900  123.2700   62.7460 C   0  0  0  0  0  0  0  0  0  0  0  0
  131.8950  122.2100   62.0660 N   0  0  0  0  0  0  0  0  0  0  0  0
  131.0920  121.4030   61.1250 C   0  0  0  0  0  0  0  0  0  0  0  0
  131.7570  120.0610   60.7520 C   0  0  0  0  0  0  0  0  0  0  0  0
  133.0610  120.2900   60.2390 O   0  0  0  0  0  0  0  0  0  0  0  0
  133.8910  120.9400   61.1880 C   0  0  0  0  0  0  0  0  0  0  0  0
  133.2820  122.3050   61.5730 C   0  0  0  0  0  0  0  0  0  0  0  0
  130.0750  123.0700   63.4180 C   0  0  0  0  0  0  0  0  0  0  0  0
  129.4670  124.1060   64.1200 C   0  0  0  0  0  0  0  0  0  0  0  0
  129.5070  126.4700   66.3290 C   0  0  0  0  0  0  0  0  0  0  0  0
  128.9460  127.5010   67.0880 C   0  0  0  0  0  0  0  0  0  0  0  0
  129.0330  127.5380   68.5800 C   0  0  0  0  0  0  0  0  0  0  0  0
  127.9580  127.1160   69.3690 C   0  0  0  0  0  0  0  0  0  0  0  0
  128.0350  127.1430   70.7600 C   0  0  0  0  0  0  0  0  0  0  0  0
  129.1890  127.6050   71.4140 C   0  0  0  0  0  0  0  0  0  0  0  0
  129.2920  127.6150   72.8090 N   0  0  0  0  0  0  0  0  0  0  0  0
  128.1740  128.1320   73.6250 C   0  0  0  0  0  0  0  0  0  0  0  0
  128.5660  128.4400   75.0860 C   0  0  0  0  0  0  0  0  0  0  0  0
  129.1400  127.2930   75.6870 O   0  0  0  0  0  0  0  0  0  0  0  0
  130.3130  126.8800   75.0040 C   0  0  0  0  0  0  0  0  0  0  0  0
  129.9780  126.5290   73.5390 C   0  0  0  0  0  0  0  0  0  0  0  0
  130.2680  128.0160   70.6180 C   0  0  0  0  0  0  0  0  0  0  0  0
  130.1910  127.9870   69.2280 C   0  0  0  0  0  0  0  0  0  0  0  0
  128.2810  128.5250   66.4950 N   0  0  0  0  0  0  0  0  0  0  0  0
  128.1510  128.5480   65.1470 C   0  0  0  0  0  0  0  0  0  0  0  0
  127.2430  129.9520   64.5430 S   0  0  0  0  0  0  0  0  0  0  0  0
  125.4750  129.5350   64.6220 C   0  0  0  0  0  0  0  0  0  0  0  0
  124.7300  129.9500   63.3530 C   0  0  0  0  0  0  0  0  0  0  0  0
  123.5690  130.3520   63.4380 O   0  0  0  0  0  0  0  0  0  0  0  0
  125.4280  129.8320   62.2030 N   0  0  0  0  0  0  0  0  0  0  0  0
  124.9870  130.1560   60.9280 C   0  0  0  0  0  0  0  0  0  0  0  0
  124.0640  131.0300   60.5900 N   0  0  0  0  0  0  0  0  0  0  0  0
  123.9040  131.0860   59.2830 C   0  0  0  0  0  0  0  0  0  0  0  0
  124.7110  130.2400   58.5280 C   0  0  0  0  0  0  0  0  0  0  0  0
  125.7320  129.3270   59.5990 S   0  0  0  0  0  0  0  0  0  0  0  0
  131.7400  126.5727   63.5355 H   0  0  0  0  0  0  0  0  0  0  0  0
  132.8338  124.7242   62.2974 H   0  0  0  0  0  0  0  0  0  0  0  0
  130.1170  121.1927   61.5889 H   0  0  0  0  0  0  0  0  0  0  0  0
  130.9920  121.9864   60.1978 H   0  0  0  0  0  0  0  0  0  0  0  0
  131.8245  119.4267   61.6481 H   0  0  0  0  0  0  0  0  0  0  0  0
  131.1503  119.5591   59.9838 H   0  0  0  0  0  0  0  0  0  0  0  0
  133.9769  120.3125   62.0874 H   0  0  0  0  0  0  0  0  0  0  0  0
  134.8867  121.0994   60.7484 H   0  0  0  0  0  0  0  0  0  0  0  0
  133.9027  122.7534   62.3627 H   0  0  0  0  0  0  0  0  0  0  0  0
  133.2609  122.9198   60.6611 H   0  0  0  0  0  0  0  0  0  0  0  0
  129.5962  122.0801   63.3895 H   0  0  0  0  0  0  0  0  0  0  0  0
  128.5110  123.9281   64.6343 H   0  0  0  0  0  0  0  0  0  0  0  0
  130.0247  125.6401   66.8323 H   0  0  0  0  0  0  0  0  0  0  0  0
  127.0380  126.7574   68.8842 H   0  0  0  0  0  0  0  0  0  0  0  0
  127.1777  126.7967   71.3559 H   0  0  0  0  0  0  0  0  0  0  0  0
  127.8045  129.0586   73.1614 H   0  0  0  0  0  0  0  0  0  0  0  0
  127.4064  127.3447   73.6561 H   0  0  0  0  0  0  0  0  0  0  0  0
  129.2959  129.2628   75.1013 H   0  0  0  0  0  0  0  0  0  0  0  0
  127.6654  128.7288   75.6477 H   0  0  0  0  0  0  0  0  0  0  0  0
  131.0512  127.6953   75.0231 H   0  0  0  0  0  0  0  0  0  0  0  0
  130.7251  125.9901   75.5022 H   0  0  0  0  0  0  0  0  0  0  0  0
  130.9166  126.2970   73.0143 H   0  0  0  0  0  0  0  0  0  0  0  0
  129.2877  125.6729   73.5638 H   0  0  0  0  0  0  0  0  0  0  0  0
  131.1919  128.3677   71.1005 H   0  0  0  0  0  0  0  0  0  0  0  0
  131.0517  128.3214   68.6302 H   0  0  0  0  0  0  0  0  0  0  0  0
  125.3724  128.4478   64.7543 H   0  0  0  0  0  0  0  0  0  0  0  0
  125.0348  130.0828   65.4682 H   0  0  0  0  0  0  0  0  0  0  0  0
  126.3790  129.4980   62.2650 H   0  0  0  0  0  0  0  0  0  0  0  0
  123.1740  131.7630   58.8154 H   0  0  0  0  0  0  0  0  0  0  0  0
  124.7040  130.1616   57.4308 H   0  0  0  0  0  0  0  0  0  0  0  0
  1  2  3  0
  2  3  1  0
  3  4  2  0
  4  5  1  0
  5  6  2  0
  6  7  1  0
  7  8  2  0
  8  9  1  0
  9 10  1  0
 10 11  1  0
 11 12  1  0
 12 13  1  0
 13 14  1  0
  8 15  1  0
 15 16  2  0
  4 17  1  0
 17 18  2  0
 18 19  1  0
 19 20  2  0
 20 21  1  0
 21 22  2  0
 22 23  1  0
 23 24  1  0
 24 25  1  0
 25 26  1  0
 26 27  1  0
 27 28  1  0
 22 29  1  0
 29 30  2  0
 18 31  1  0
 31 32  2  0
 32 33  1  0
 33 34  1  0
 34 35  1  0
 35 36  2  0
 35 37  1  0
 37 38  1  0
 38 39  2  0
 39 40  1  0
 40 41  2  0
 41 42  1  0
 32  3  1  0
 42 38  1  0
 16  5  1  0
 30 19  1  0
 14  9  1  0
 28 23  1  0
  6 43  1  0
  7 44  1  0
 10 45  1  0
 10 46  1  0
 11 47  1  0
 11 48  1  0
 13 49  1  0
 13 50  1  0
 14 51  1  0
 14 52  1  0
 15 53  1  0
 16 54  1  0
 17 55  1  0
 20 56  1  0
 21 57  1  0
 24 58  1  0
 24 59  1  0
 25 60  1  0
 25 61  1  0
 27 62  1  0
 27 63  1  0
 28 64  1  0
 28 65  1  0
 29 66  1  0
 30 67  1  0
 34 68  1  0
 34 69  1  0
 37 70  1  0
 40 71  1  0
 41 72  1  0
M  END
>  <Binding energies>  (1) 
[-9.78]

>  <Ligand effiencies>  (1) 
[-0.22744186046511627]

>  <Interactions>  (1) 
["V-A:ILE:369:CG2:3237, V-A:ILE:369:CD1:3239, V-B:GLU:543:CD:9880, V-B:GLU:543:CG:9879, V-A:GLU:543:CD:4908, V-A:LEU:475:CD2:4259, V-A:HIS:456:CE1:4070, V-B:ASP:366:CB:8183, V-B:ASP:366:CG:8184, H-B:ARG:545:NH2:9900, V-B:TYR:539:CE2:9848, V-B:TYR:539:CD2:9846, V-A:GLU:543:C:4902, V-B:GLU:543:C:9874, V-A:HIS:456:CD2:4068, V-B:GLU:543:CB:9878, V-A:GLY:544:C:4912, V-A:SER:385:CB:3409, V-A:GLU:543:CB:4906, V-B:HIS:456:CD2:9039, V-B:HIS:456:CE1:9041, V-B:ARG:545:CZ:9898, V-A:GLU:543:CG:4907, H-B:TYR:484:OH:9319, V-A:SER:385:C:3405, V-A:SER:385:CA:3407, H-A:SER:385:OG:3410, V-B:ASP:366:CA:8181, V-B:ILE:369:CG2:8208, H-A:LYS:547:NZ:4951, V-B:ILE:369:CB:8207, H-B:LYS:547:NZ:9923, H-B:GLY:454:N:9021"]

$$$$
2c_Grossjean_2025
     RDKit          3D

 40 41  0  0  0  0  0  0  0  0999 V2000
  128.6700  128.7920   73.4960 C   0  0  0  0  0  0  0  0  0  0  0  0
  129.8720  128.8500   72.7350 O   0  0  0  0  0  0  0  0  0  0  0  0
  129.8960  128.2950   71.4700 C   0  0  0  0  0  0  0  0  0  0  0  0
  131.1050  128.3730   70.7790 C   0  0  0  0  0  0  0  0  0  0  0  0
  131.2270  127.8430   69.4970 C   0  0  0  0  0  0  0  0  0  0  0  0
  130.1230  127.2320   68.8850 C   0  0  0  0  0  0  0  0  0  0  0  0
  130.1540  126.6530   67.6030 N   0  0  0  0  0  0  0  0  0  0  0  0
  129.8820  125.3790   67.2470 C   0  0  0  0  0  0  0  0  0  0  0  0
  129.6040  124.4750   68.0360 O   0  0  0  0  0  0  0  0  0  0  0  0
  129.9820  125.0930   65.7400 C   0  0  0  0  0  0  0  0  0  0  0  0
  130.0400  123.3270   65.2780 S   0  0  0  0  0  0  0  0  0  0  0  0
  130.5620  123.1750   63.5740 C   0  0  0  0  0  0  0  0  0  0  0  0
  129.6260  122.6980   62.7130 N   0  0  0  0  0  0  0  0  0  0  0  0
  129.9520  122.5480   61.4110 C   0  0  0  0  0  0  0  0  0  0  0  0
  128.8590  121.9940   60.5180 C   0  0  0  0  0  0  0  0  0  0  0  0
  131.2110  122.8720   60.9100 C   0  0  0  0  0  0  0  0  0  0  0  0
  132.1910  123.3730   61.7790 C   0  0  0  0  0  0  0  0  0  0  0  0
  133.5780  123.7290   61.2090 C   0  0  0  0  0  0  0  0  0  0  0  0
  134.4940  122.8790   61.6760 F   0  0  0  0  0  0  0  0  0  0  0  0
  133.5590  123.6560   59.8780 F   0  0  0  0  0  0  0  0  0  0  0  0
  133.9700  124.9620   61.5390 F   0  0  0  0  0  0  0  0  0  0  0  0
  131.8640  123.5310   63.1500 C   0  0  0  0  0  0  0  0  0  0  0  0
  132.8500  124.0490   64.1040 C   0  0  0  0  0  0  0  0  0  0  0  0
  133.6280  124.4580   64.8560 N   0  0  0  0  0  0  0  0  0  0  0  0
  128.9150  127.1370   69.5780 C   0  0  0  0  0  0  0  0  0  0  0  0
  128.7980  127.6680   70.8600 C   0  0  0  0  0  0  0  0  0  0  0  0
  128.9141  128.8038   74.5685 H   0  0  0  0  0  0  0  0  0  0  0  0
  128.0403  129.6608   73.2537 H   0  0  0  0  0  0  0  0  0  0  0  0
  128.1269  127.8666   73.2537 H   0  0  0  0  0  0  0  0  0  0  0  0
  131.9715  128.8584   71.2518 H   0  0  0  0  0  0  0  0  0  0  0  0
  132.1880  127.9035   68.9651 H   0  0  0  0  0  0  0  0  0  0  0  0
  130.4840  127.2650   66.8710 H   0  0  0  0  0  0  0  0  0  0  0  0
  129.1056  125.5429   65.2506 H   0  0  0  0  0  0  0  0  0  0  0  0
  130.9407  125.5225   65.4137 H   0  0  0  0  0  0  0  0  0  0  0  0
  128.0499  121.5839   61.1402 H   0  0  0  0  0  0  0  0  0  0  0  0
  128.4610  122.7992   59.8830 H   0  0  0  0  0  0  0  0  0  0  0  0
  129.2731  121.1970   59.8830 H   0  0  0  0  0  0  0  0  0  0  0  0
  131.4345  122.7359   59.8416 H   0  0  0  0  0  0  0  0  0  0  0  0
  128.0522  126.6408   69.1096 H   0  0  0  0  0  0  0  0  0  0  0  0
  127.8408  127.5958   71.3972 H   0  0  0  0  0  0  0  0  0  0  0  0
  1  2  1  0
  2  3  1  0
  3  4  2  0
  4  5  1  0
  5  6  2  0
  6  7  1  0
  7  8  1  0
  8  9  2  0
  8 10  1  0
 10 11  1  0
 11 12  1  0
 12 13  2  0
 13 14  1  0
 14 15  1  0
 14 16  2  0
 16 17  1  0
 17 18  1  0
 18 19  1  0
 18 20  1  0
 18 21  1  0
 17 22  2  0
 22 23  1  0
 23 24  3  0
  6 25  1  0
 25 26  2  0
 26  3  1  0
 22 12  1  0
  1 27  1  0
  1 28  1  0
  1 29  1  0
  4 30  1  0
  5 31  1  0
  7 32  1  0
 10 33  1  0
 10 34  1  0
 15 35  1  0
 15 36  1  0
 15 37  1  0
 16 38  1  0
 25 39  1  0
 26 40  1  0
M  END
>  <Binding energies>  (1) 
[-6.74]

>  <Ligand effiencies>  (1) 
[-0.24962962962962965]

>  <Interactions>  (1) 
["V-A:ILE:369:CG2:3237, V-A:ILE:369:CD1:3239, V-B:GLU:543:CD:9880, H-A:GLY:454:N:4050, V-A:ASP:366:CG:3213, H-A:GLU:543:OE1:4909, H-A:TYR:484:OH:4348, V-B:GLU:543:CG:9879, H-A:ARG:545:NE:4924, V-A:ILE:369:CB:3236, V-A:GLU:543:CD:4908, H-A:GLU:543:OE2:4910, V-A:LEU:475:CD2:4259, V-A:HIS:456:CE1:4070, V-A:GLY:454:CA:4049, V-B:TYR:539:C:9839, V-B:PRO:540:CA:9855, V-B:TYR:539:CE2:9848, V-B:PRO:540:C:9853, V-B:TYR:539:CD2:9846, V-A:GLU:543:C:4902, V-B:GLU:543:CA:9876, V-B:GLU:543:CB:9878, V-A:GLY:544:C:4912, V-A:GLU:543:CB:4906, V-B:HIS:456:CD2:9039, V-B:HIS:456:CE1:9041, V-A:ARG:545:CG:4922, H-A:LYS:547:NZ:4951, V-A:GLY:544:CA:4914"]

$$$$
2d_Ghoteimi_2023
     RDKit          3D

 68 72  0  0  0  0  0  0  0  0999 V2000
  124.4450  129.4890   66.7160 C   0  0  0  0  0  0  0  0  0  0  0  0
  123.7660  129.8630   65.5270 O   0  0  0  0  0  0  0  0  0  0  0  0
  124.4580  130.2390   64.4320 C   0  0  0  0  0  0  0  0  0  0  0  0
  124.2490  131.2570   63.7670 O   0  0  0  0  0  0  0  0  0  0  0  0
  125.5700  129.2310   64.1020 C   0  0  0  0  0  0  0  0  0  0  0  0
  127.2010  129.8460   64.6430 S   0  0  0  0  0  0  0  0  0  0  0  0
  128.1530  128.4620   65.2370 C   0  0  0  0  0  0  0  0  0  0  0  0
  128.2590  128.4250   66.5870 N   0  0  0  0  0  0  0  0  0  0  0  0
  128.9630  127.4270   67.1780 C   0  0  0  0  0  0  0  0  0  0  0  0
  129.0510  127.4630   68.6700 C   0  0  0  0  0  0  0  0  0  0  0  0
  130.1890  127.9720   69.3040 C   0  0  0  0  0  0  0  0  0  0  0  0
  130.2780  128.0090   70.6930 C   0  0  0  0  0  0  0  0  0  0  0  0
  129.2270  127.5460   71.4990 C   0  0  0  0  0  0  0  0  0  0  0  0
  129.3070  127.5580   72.8960 N   0  0  0  0  0  0  0  0  0  0  0  0
  130.5140  127.0870   73.6040 C   0  0  0  0  0  0  0  0  0  0  0  0
  130.2850  126.8250   75.1070 C   0  0  0  0  0  0  0  0  0  0  0  0
  129.7590  127.9870   75.7270 O   0  0  0  0  0  0  0  0  0  0  0  0
  128.5150  128.3630   75.1580 C   0  0  0  0  0  0  0  0  0  0  0  0
  128.6880  128.6650   73.6540 C   0  0  0  0  0  0  0  0  0  0  0  0
  128.0940  127.0230   70.8590 C   0  0  0  0  0  0  0  0  0  0  0  0
  128.0060  126.9850   69.4700 C   0  0  0  0  0  0  0  0  0  0  0  0
  129.5790  126.4310   66.4160 C   0  0  0  0  0  0  0  0  0  0  0  0
  129.4570  126.4270   65.0210 C   0  0  0  0  0  0  0  0  0  0  0  0
  130.1180  125.3160   64.2740 C   0  0  0  0  0  0  0  0  0  0  0  0
  129.3480  124.3650   63.6020 C   0  0  0  0  0  0  0  0  0  0  0  0
  129.9540  123.3330   62.8920 C   0  0  0  0  0  0  0  0  0  0  0  0
  131.3530  123.2200   62.8370 C   0  0  0  0  0  0  0  0  0  0  0  0
  131.9830  122.1990   62.1200 N   0  0  0  0  0  0  0  0  0  0  0  0
  133.3600  122.3540   61.6110 C   0  0  0  0  0  0  0  0  0  0  0  0
  134.0070  121.0230   61.1720 C   0  0  0  0  0  0  0  0  0  0  0  0
  133.1820  120.3730   60.2170 O   0  0  0  0  0  0  0  0  0  0  0  0
  131.8950  120.0860   60.7430 C   0  0  0  0  0  0  0  0  0  0  0  0
  131.1940  121.3940   61.1680 C   0  0  0  0  0  0  0  0  0  0  0  0
  132.1180  124.1890   63.5000 C   0  0  0  0  0  0  0  0  0  0  0  0
  131.5110  125.2220   64.2090 C   0  0  0  0  0  0  0  0  0  0  0  0
  128.7180  127.4680   64.4050 C   0  0  0  0  0  0  0  0  0  0  0  0
  128.5450  127.4960   62.9500 C   0  0  0  0  0  0  0  0  0  0  0  0
  128.4110  127.5150   61.8000 N   0  0  0  0  0  0  0  0  0  0  0  0
  123.8594  129.8115   67.5896 H   0  0  0  0  0  0  0  0  0  0  0  0
  124.5676  128.3961   66.7400 H   0  0  0  0  0  0  0  0  0  0  0  0
  125.4342  129.9695   66.7400 H   0  0  0  0  0  0  0  0  0  0  0  0
  125.3568  128.2812   64.6143 H   0  0  0  0  0  0  0  0  0  0  0  0
  125.5966  129.0865   63.0119 H   0  0  0  0  0  0  0  0  0  0  0  0
  131.0254  128.3484   68.6968 H   0  0  0  0  0  0  0  0  0  0  0  0
  131.1874  128.4078   71.1663 H   0  0  0  0  0  0  0  0  0  0  0  0
  130.8492  126.1503   73.1347 H   0  0  0  0  0  0  0  0  0  0  0  0
  131.2661  127.8860   73.5265 H   0  0  0  0  0  0  0  0  0  0  0  0
  129.5743  125.9942   75.2279 H   0  0  0  0  0  0  0  0  0  0  0  0
  131.2445  126.5667   75.5789 H   0  0  0  0  0  0  0  0  0  0  0  0
  127.7946  127.5412   75.2834 H   0  0  0  0  0  0  0  0  0  0  0  0
  128.1456  129.2661   75.6659 H   0  0  0  0  0  0  0  0  0  0  0  0
  127.6964  128.8692   73.2239 H   0  0  0  0  0  0  0  0  0  0  0  0
  129.3645  129.5287   73.5740 H   0  0  0  0  0  0  0  0  0  0  0  0
  127.2610  126.6364   71.4645 H   0  0  0  0  0  0  0  0  0  0  0  0
  127.1032  126.5739   68.9946 H   0  0  0  0  0  0  0  0  0  0  0  0
  130.1639  125.6445   66.9154 H   0  0  0  0  0  0  0  0  0  0  0  0
  128.2505  124.4322   63.6341 H   0  0  0  0  0  0  0  0  0  0  0  0
  129.3290  122.5958   62.3667 H   0  0  0  0  0  0  0  0  0  0  0  0
  133.3370  123.0323   60.7453 H   0  0  0  0  0  0  0  0  0  0  0  0
  133.9676  122.7525   62.4369 H   0  0  0  0  0  0  0  0  0  0  0  0
  134.9910  121.2266   60.7246 H   0  0  0  0  0  0  0  0  0  0  0  0
  134.1238  120.3716   62.0507 H   0  0  0  0  0  0  0  0  0  0  0  0
  131.2911  119.5826   59.9737 H   0  0  0  0  0  0  0  0  0  0  0  0
  132.0017  119.4320   61.6210 H   0  0  0  0  0  0  0  0  0  0  0  0
  131.0101  121.9993   60.2681 H   0  0  0  0  0  0  0  0  0  0  0  0
  130.2606  121.1116   61.6770 H   0  0  0  0  0  0  0  0  0  0  0  0
  133.2158  124.1325   63.4596 H   0  0  0  0  0  0  0  0  0  0  0  0
  132.1328  125.9703   64.7222 H   0  0  0  0  0  0  0  0  0  0  0  0
  1  2  1  0
  2  3  1  0
  3  4  2  0
  3  5  1  0
  5  6  1  0
  6  7  1  0
  7  8  2  0
  8  9  1  0
  9 10  1  0
 10 11  2  0
 11 12  1  0
 12 13  2  0
 13 14  1  0
 14 15  1  0
 15 16  1  0
 16 17  1  0
 17 18  1  0
 18 19  1  0
 13 20  1  0
 20 21  2  0
  9 22  2  0
 22 23  1  0
 23 24  1  0
 24 25  2  0
 25 26  1  0
 26 27  2  0
 27 28  1  0
 28 29  1  0
 29 30  1  0
 30 31  1  0
 31 32  1  0
 32 33  1  0
 27 34  1  0
 34 35  2  0
 23 36  2  0
 36 37  1  0
 37 38  3  0
 36  7  1  0
 21 10  1  0
 35 24  1  0
 19 14  1  0
 33 28  1  0
  1 39  1  0
  1 40  1  0
  1 41  1  0
  5 42  1  0
  5 43  1  0
 11 44  1  0
 12 45  1  0
 15 46  1  0
 15 47  1  0
 16 48  1  0
 16 49  1  0
 18 50  1  0
 18 51  1  0
 19 52  1  0
 19 53  1  0
 20 54  1  0
 21 55  1  0
 22 56  1  0
 25 57  1  0
 26 58  1  0
 29 59  1  0
 29 60  1  0
 30 61  1  0
 30 62  1  0
 32 63  1  0
 32 64  1  0
 33 65  1  0
 33 66  1  0
 34 67  1  0
 35 68  1  0
M  END
>  <Binding energies>  (1) 
[-9.2]

>  <Ligand effiencies>  (1) 
[-0.2421052631578947]

>  <Interactions>  (1) 
["V-A:ILE:369:CG2:3237, V-A:ILE:369:CD1:3239, V-B:GLU:543:CD:9880, V-B:GLU:543:CG:9879, V-A:GLU:543:CD:4908, V-A:LEU:475:CD2:4259, V-A:HIS:456:CE1:4070, V-B:TYR:539:CE2:9848, V-B:TYR:539:CD2:9846, V-A:GLU:543:C:4902, V-B:GLU:543:C:9874, V-A:HIS:456:CD2:4068, V-B:GLU:543:CB:9878, V-A:GLY:544:C:4912, V-A:SER:385:CB:3409, V-A:GLU:543:CB:4906, V-B:HIS:456:CD2:9039, V-B:HIS:456:CE1:9041, V-B:ARG:545:CZ:9898, V-A:GLU:543:CG:4907, H-B:TYR:484:OH:9319, V-B:TYR:484:CZ:9318, V-A:SER:385:C:3405, V-A:SER:385:CA:3407, H-A:SER:385:OG:3410, V-B:GLY:454:CA:9020, V-B:ARG:545:CD:9895, V-B:ARG:545:CG:9894, H-A:LYS:547:NZ:4951, H-B:LYS:547:NZ:9923, H-B:GLY:454:N:9021, H-B:ARG:545:NE:9896, V-B:TYR:484:CE1:9316"]

$$$$
2d_Grossjean_2025
     RDKit          3D

 36 37  0  0  0  0  0  0  0  0999 V2000
  128.1590  122.9290   62.4550 C   0  0  0  0  0  0  0  0  0  0  0  0
  129.3310  122.1730   61.8590 C   0  0  0  0  0  0  0  0  0  0  0  0
  129.3330  120.7820   61.7720 C   0  0  0  0  0  0  0  0  0  0  0  0
  130.4390  120.1290   61.2080 C   0  0  0  0  0  0  0  0  0  0  0  0
  130.4200  118.5910   61.1100 C   0  0  0  0  0  0  0  0  0  0  0  0
  131.3820  118.0740   61.8750 F   0  0  0  0  0  0  0  0  0  0  0  0
  129.2410  118.1220   61.5220 F   0  0  0  0  0  0  0  0  0  0  0  0
  130.6140  118.1500   59.8660 F   0  0  0  0  0  0  0  0  0  0  0  0
  131.5280  120.9130   60.7490 C   0  0  0  0  0  0  0  0  0  0  0  0
  132.6860  120.2820   60.1100 C   0  0  0  0  0  0  0  0  0  0  0  0
  133.5990  119.7820   59.6040 N   0  0  0  0  0  0  0  0  0  0  0  0
  131.4480  122.3170   60.9010 C   0  0  0  0  0  0  0  0  0  0  0  0
  132.7370  123.4470   60.4090 S   0  0  0  0  0  0  0  0  0  0  0  0
  133.9150  123.6280   61.7890 C   0  0  0  0  0  0  0  0  0  0  0  0
  133.3030  124.3170   63.0130 C   0  0  0  0  0  0  0  0  0  0  0  0
  134.0390  124.6430   63.9450 O   0  0  0  0  0  0  0  0  0  0  0  0
  131.9650  124.4870   62.9790 N   0  0  0  0  0  0  0  0  0  0  0  0
  131.1200  125.0820   63.9340 C   0  0  0  0  0  0  0  0  0  0  0  0
  131.2680  124.6300   65.2480 C   0  0  0  0  0  0  0  0  0  0  0  0
  130.4730  125.1540   66.2640 C   0  0  0  0  0  0  0  0  0  0  0  0
  129.5210  126.1260   65.9630 C   0  0  0  0  0  0  0  0  0  0  0  0
  129.3560  126.5740   64.6560 C   0  0  0  0  0  0  0  0  0  0  0  0
  130.1490  126.0540   63.6380 C   0  0  0  0  0  0  0  0  0  0  0  0
  130.3630  122.9340   61.4290 N   0  0  0  0  0  0  0  0  0  0  0  0
  128.2181  122.8909   63.5527 H   0  0  0  0  0  0  0  0  0  0  0  0
  128.1913  123.9770   62.1223 H   0  0  0  0  0  0  0  0  0  0  0  0
  127.2176  122.4675   62.1223 H   0  0  0  0  0  0  0  0  0  0  0  0
  128.4751  120.2015   62.1422 H   0  0  0  0  0  0  0  0  0  0  0  0
  134.2620  122.6276   62.0870 H   0  0  0  0  0  0  0  0  0  0  0  0
  134.7418  124.2611   61.4345 H   0  0  0  0  0  0  0  0  0  0  0  0
  131.4830  124.0870   62.1870 H   0  0  0  0  0  0  0  0  0  0  0  0
  132.0155  123.8572   65.4806 H   0  0  0  0  0  0  0  0  0  0  0  0
  130.5959  124.8024   67.2990 H   0  0  0  0  0  0  0  0  0  0  0  0
  128.8946  126.5427   66.7655 H   0  0  0  0  0  0  0  0  0  0  0  0
  128.5990  127.3388   64.4278 H   0  0  0  0  0  0  0  0  0  0  0  0
  130.0163  126.4030   62.6033 H   0  0  0  0  0  0  0  0  0  0  0  0
  1  2  1  0
  2  3  2  0
  3  4  1  0
  4  5  1  0
  5  6  1  0
  5  7  1  0
  5  8  1  0
  4  9  2  0
  9 10  1  0
 10 11  3  0
  9 12  1  0
 12 13  1  0
 13 14  1  0
 14 15  1  0
 15 16  2  0
 15 17  1  0
 17 18  1  0
 18 19  2  0
 19 20  1  0
 20 21  2  0
 21 22  1  0
 22 23  2  0
 12 24  2  0
 24  2  1  0
 23 18  1  0
  1 25  1  0
  1 26  1  0
  1 27  1  0
  3 28  1  0
 14 29  1  0
 14 30  1  0
 17 31  1  0
 19 32  1  0
 20 33  1  0
 21 34  1  0
 22 35  1  0
 23 36  1  0
M  END
>  <Binding energies>  (1) 
[-6.06]

>  <Ligand effiencies>  (1) 
[-0.24239999999999998]

>  <Interactions>  (1) 
["V-A:ILE:369:CG2:3237, V-A:ILE:369:CD1:3239, V-B:GLU:543:CD:9880, H-A:ARG:545:NH1:4927, H-A:ARG:545:NH2:4928, H-A:GLY:454:N:4050, V-B:GLU:543:CG:9879, V-A:GLU:543:CD:4908, V-A:LEU:475:CD2:4259, V-B:ALA:541:CB:9864, V-B:TYR:539:C:9839, V-B:TYR:539:CE2:9848, V-B:PRO:540:C:9853, V-B:TYR:539:CD2:9846, V-B:TYR:539:CG:9844, V-B:ALA:541:CA:9862, V-A:TYR:484:CE2:4346, V-A:TYR:484:CZ:4347, V-B:GLU:543:CB:9878, V-A:SER:385:CB:3409, V-A:PRO:482:CB:4326, V-A:PRO:482:CG:4327, V-A:HIS:383:NE2:3394, H-A:SER:385:OG:3410, V-A:LEU:475:CG:4257, V-A:LEU:475:CD1:4258, V-B:TYR:539:CB:9843"]

$$$$
2e_Grossjean_2025
     RDKit          3D

 38 39  0  0  0  0  0  0  0  0999 V2000
  126.9590  126.8870   70.8760 C   0  0  0  0  0  0  0  0  0  0  0  0
  128.3730  127.2600   70.4710 C   0  0  0  0  0  0  0  0  0  0  0  0
  129.1820  128.0540   71.2880 C   0  0  0  0  0  0  0  0  0  0  0  0
  130.4760  128.3470   70.8560 C   0  0  0  0  0  0  0  0  0  0  0  0
  130.9260  127.8460   69.6320 C   0  0  0  0  0  0  0  0  0  0  0  0
  130.0590  127.0640   68.8590 C   0  0  0  0  0  0  0  0  0  0  0  0
  130.5770  126.5500   67.6580 N   0  0  0  0  0  0  0  0  0  0  0  0
  130.3320  125.3470   67.0920 C   0  0  0  0  0  0  0  0  0  0  0  0
  129.5320  124.5140   67.5210 O   0  0  0  0  0  0  0  0  0  0  0  0
  131.1630  125.0140   65.8490 C   0  0  0  0  0  0  0  0  0  0  0  0
  130.2650  125.3800   64.3070 S   0  0  0  0  0  0  0  0  0  0  0  0
  130.6930  124.0680   63.1850 C   0  0  0  0  0  0  0  0  0  0  0  0
  129.6330  123.4090   62.6540 N   0  0  0  0  0  0  0  0  0  0  0  0
  129.8690  122.3680   61.8260 C   0  0  0  0  0  0  0  0  0  0  0  0
  128.6400  121.6770   61.2680 C   0  0  0  0  0  0  0  0  0  0  0  0
  131.1560  121.9410   61.5010 C   0  0  0  0  0  0  0  0  0  0  0  0
  132.2630  122.6050   62.0480 C   0  0  0  0  0  0  0  0  0  0  0  0
  133.6780  122.1090   61.6970 C   0  0  0  0  0  0  0  0  0  0  0  0
  134.3880  123.0960   61.1500 F   0  0  0  0  0  0  0  0  0  0  0  0
  134.3000  121.6880   62.7990 F   0  0  0  0  0  0  0  0  0  0  0  0
  133.6670  121.0940   60.8290 F   0  0  0  0  0  0  0  0  0  0  0  0
  132.0320  123.7030   62.9150 C   0  0  0  0  0  0  0  0  0  0  0  0
  133.1460  124.4200   63.5430 C   0  0  0  0  0  0  0  0  0  0  0  0
  134.0260  124.9850   64.0390 N   0  0  0  0  0  0  0  0  0  0  0  0
  128.7950  126.7670   69.2790 N   0  0  0  0  0  0  0  0  0  0  0  0
  126.8850  126.8675   71.9733 H   0  0  0  0  0  0  0  0  0  0  0  0
  126.2544  127.6300   70.4741 H   0  0  0  0  0  0  0  0  0  0  0  0
  126.7126  125.8931   70.4741 H   0  0  0  0  0  0  0  0  0  0  0  0
  128.8079  128.4387   72.2483 H   0  0  0  0  0  0  0  0  0  0  0  0
  131.1383  128.9692   71.4759 H   0  0  0  0  0  0  0  0  0  0  0  0
  131.9457  128.0625   69.2809 H   0  0  0  0  0  0  0  0  0  0  0  0
  131.1750  127.1820   67.1460 H   0  0  0  0  0  0  0  0  0  0  0  0
  132.0879  125.6090   65.8707 H   0  0  0  0  0  0  0  0  0  0  0  0
  131.3817  123.9361   65.8662 H   0  0  0  0  0  0  0  0  0  0  0  0
  128.0102  121.3229   62.0974 H   0  0  0  0  0  0  0  0  0  0  0  0
  128.0690  122.3863   60.6509 H   0  0  0  0  0  0  0  0  0  0  0  0
  128.9493  120.8205   60.6509 H   0  0  0  0  0  0  0  0  0  0  0  0
  131.3017  121.0893   60.8203 H   0  0  0  0  0  0  0  0  0  0  0  0
  1  2  1  0
  2  3  2  0
  3  4  1  0
  4  5  2  0
  5  6  1  0
  6  7  1  0
  7  8  1  0
  8  9  2  0
  8 10  1  0
 10 11  1  0
 11 12  1  0
 12 13  2  0
 13 14  1  0
 14 15  1  0
 14 16  2  0
 16 17  1  0
 17 18  1  0
 18 19  1  0
 18 20  1  0
 18 21  1  0
 17 22  2  0
 22 23  1  0
 23 24  3  0
  6 25  2  0
 25  2  1  0
 22 12  1  0
  1 26  1  0
  1 27  1  0
  1 28  1  0
  3 29  1  0
  4 30  1  0
  5 31  1  0
  7 32  1  0
 10 33  1  0
 10 34  1  0
 15 35  1  0
 15 36  1  0
 15 37  1  0
 16 38  1  0
M  END
>  <Binding energies>  (1) 
[-6.73]

>  <Ligand effiencies>  (1) 
[-0.25884615384615384]

>  <Interactions>  (1) 
["V-A:ILE:369:CG2:3237, V-A:ILE:369:CD1:3239, H-A:ARG:545:NH1:4927, H-A:ARG:545:NH2:4928, H-A:GLY:454:N:4050, H-A:TYR:484:OH:4348, H-A:ARG:545:NE:4924, V-A:ILE:369:CB:3236, V-A:GLU:543:CD:4908, V-A:ARG:545:CZ:4926, H-A:GLU:543:OE2:4910, V-A:LEU:475:CD2:4259, V-A:HIS:456:CE1:4070, V-B:ALA:541:CB:9864, V-A:GLY:454:CA:4049, V-B:TYR:539:C:9839, V-B:PRO:540:CA:9855, V-B:PRO:540:C:9853, V-A:TYR:484:CE2:4346, V-A:GLU:543:C:4902, V-B:GLU:543:C:9874, V-A:TYR:484:CZ:4347, V-B:GLU:543:CB:9878, V-A:GLY:544:C:4912, V-A:SER:385:CB:3409, V-A:GLU:543:CB:4906, V-B:HIS:456:CD2:9039, V-B:HIS:456:CE1:9041, V-B:GLY:544:C:9884, V-B:GLY:544:CA:9886, V-B:HIS:456:CG:9037, V-A:SER:385:C:3405, V-A:SER:385:CA:3407, V-A:ILE:369:CG1:3238"]

$$$$
2f_Grossjean_2025
     RDKit          3D

 35 36  0  0  0  0  0  0  0  0999 V2000
  124.4230  123.1390   62.5980 C   0  0  0  0  0  0  0  0  0  0  0  0
  125.2650  123.3820   61.3600 C   0  0  0  0  0  0  0  0  0  0  0  0
  124.6960  123.8020   60.1610 C   0  0  0  0  0  0  0  0  0  0  0  0
  125.5170  124.0060   59.0410 C   0  0  0  0  0  0  0  0  0  0  0  0
  124.8660  124.4590   57.7200 C   0  0  0  0  0  0  0  0  0  0  0  0
  123.5570  124.6500   57.8950 F   0  0  0  0  0  0  0  0  0  0  0  0
  125.4180  125.6020   57.3100 F   0  0  0  0  0  0  0  0  0  0  0  0
  125.0120  123.5670   56.7380 F   0  0  0  0  0  0  0  0  0  0  0  0
  126.9110  123.7810   59.1720 C   0  0  0  0  0  0  0  0  0  0  0  0
  127.8020  123.9250   58.0180 C   0  0  0  0  0  0  0  0  0  0  0  0
  128.5050  124.0400   57.1050 N   0  0  0  0  0  0  0  0  0  0  0  0
  127.4040  123.3800   60.4370 C   0  0  0  0  0  0  0  0  0  0  0  0
  129.1230  123.0660   60.7850 S   0  0  0  0  0  0  0  0  0  0  0  0
  129.2120  121.8050   62.1020 C   0  0  0  0  0  0  0  0  0  0  0  0
  129.9180  122.2560   63.3890 C   0  0  0  0  0  0  0  0  0  0  0  0
  129.8170  121.5970   64.4250 O   0  0  0  0  0  0  0  0  0  0  0  0
  130.6110  123.4090   63.2730 N   0  0  0  0  0  0  0  0  0  0  0  0
  131.3740  124.0960   64.2360 C   0  0  0  0  0  0  0  0  0  0  0  0
  130.8610  124.7290   65.3840 C   0  0  0  0  0  0  0  0  0  0  0  0
  131.7320  125.3730   66.2650 C   0  0  0  0  0  0  0  0  0  0  0  0
  133.0970  125.3650   65.9800 C   0  0  0  0  0  0  0  0  0  0  0  0
  133.6180  124.7550   64.8850 N   0  0  0  0  0  0  0  0  0  0  0  0
  132.7590  124.1320   64.0380 C   0  0  0  0  0  0  0  0  0  0  0  0
  126.5930  123.1670   61.5020 N   0  0  0  0  0  0  0  0  0  0  0  0
  125.0327  123.3150   63.4965 H   0  0  0  0  0  0  0  0  0  0  0  0
  123.5638  123.8258   62.5977 H   0  0  0  0  0  0  0  0  0  0  0  0
  124.0619  122.1000   62.5977 H   0  0  0  0  0  0  0  0  0  0  0  0
  123.6115  123.9727   60.0918 H   0  0  0  0  0  0  0  0  0  0  0  0
  128.1845  121.5108   62.3621 H   0  0  0  0  0  0  0  0  0  0  0  0
  129.8144  120.9793   61.6954 H   0  0  0  0  0  0  0  0  0  0  0  0
  130.5580  123.8740   62.3770 H   0  0  0  0  0  0  0  0  0  0  0  0
  129.7798  124.7163   65.5859 H   0  0  0  0  0  0  0  0  0  0  0  0
  131.3494  125.8762   67.1652 H   0  0  0  0  0  0  0  0  0  0  0  0
  133.7818  125.8755   66.6731 H   0  0  0  0  0  0  0  0  0  0  0  0
  133.1727  123.6300   63.1510 H   0  0  0  0  0  0  0  0  0  0  0  0
  1  2  1  0
  2  3  2  0
  3  4  1  0
  4  5  1  0
  5  6  1  0
  5  7  1  0
  5  8  1  0
  4  9  2  0
  9 10  1  0
 10 11  3  0
  9 12  1  0
 12 13  1  0
 13 14  1  0
 14 15  1  0
 15 16  2  0
 15 17  1  0
 17 18  1  0
 18 19  2  0
 19 20  1  0
 20 21  2  0
 21 22  1  0
 22 23  2  0
 12 24  2  0
 24  2  1  0
 23 18  1  0
  1 25  1  0
  1 26  1  0
  1 27  1  0
  3 28  1  0
 14 29  1  0
 14 30  1  0
 17 31  1  0
 19 32  1  0
 20 33  1  0
 21 34  1  0
 23 35  1  0
M  END
>  <Binding energies>  (1) 
[-6.18]

>  <Ligand effiencies>  (1) 
[-0.24719999999999998]

>  <Interactions>  (1) 
["V-B:GLU:543:CD:9880, H-A:ARG:545:NH2:4928, H-A:GLY:454:N:4050, H-A:TYR:484:OH:4348, H-A:ARG:545:NE:4924, V-A:ARG:545:CZ:4926, V-A:LEU:475:CD2:4259, V-A:HIS:456:CE1:4070, V-B:ALA:541:CB:9864, V-B:ASP:366:CB:8183, H-B:ALA:541:N:9863, V-B:TYR:531:CE2:9765, V-B:ASP:366:CG:8184, V-B:PRO:540:CA:9855, V-B:PRO:540:CB:9857, V-B:LEU:363:CD1:8160, V-B:TYR:531:CZ:9766, V-B:LEU:363:CA:8156, V-B:MET:535:CE:9807, V-B:PRO:540:C:9853, V-B:ALA:541:C:9860, V-B:ASN:362:CB:8147, V-A:TYR:484:CZ:4347, V-A:ARG:545:CG:4922, V-B:LEU:363:CB:8158, V-A:ARG:545:CD:4923, H-B:TYR:539:OH:9850, V-B:LEU:363:CG:8159, V-B:ASN:362:CG:8148"]

$$$$
2g_Grossjean_2025
     RDKit          3D

 39 40  0  0  0  0  0  0  0  0999 V2000
  128.7410  121.6580   61.2770 C   0  0  0  0  0  0  0  0  0  0  0  0
  129.9410  122.3400   61.9050 C   0  0  0  0  0  0  0  0  0  0  0  0
  131.2430  121.9480   61.6040 C   0  0  0  0  0  0  0  0  0  0  0  0
  132.3210  122.6060   62.2170 C   0  0  0  0  0  0  0  0  0  0  0  0
  133.7540  122.1510   61.8790 C   0  0  0  0  0  0  0  0  0  0  0  0
  134.4810  123.1890   61.4610 F   0  0  0  0  0  0  0  0  0  0  0  0
  134.3290  121.6280   62.9620 F   0  0  0  0  0  0  0  0  0  0  0  0
  133.7890  121.2270   60.9170 F   0  0  0  0  0  0  0  0  0  0  0  0
  132.0440  123.6620   63.1220 C   0  0  0  0  0  0  0  0  0  0  0  0
  133.1300  124.3440   63.8320 C   0  0  0  0  0  0  0  0  0  0  0  0
  133.9880  124.8820   64.3910 N   0  0  0  0  0  0  0  0  0  0  0  0
  130.6900  124.0120   63.3430 C   0  0  0  0  0  0  0  0  0  0  0  0
  130.1680  125.3260   64.4250 S   0  0  0  0  0  0  0  0  0  0  0  0
  130.6830  124.8790   66.1180 C   0  0  0  0  0  0  0  0  0  0  0  0
  129.8440  125.5180   67.2330 C   0  0  0  0  0  0  0  0  0  0  0  0
  129.5110  124.8780   68.2330 O   0  0  0  0  0  0  0  0  0  0  0  0
  129.5020  126.8040   67.0350 N   0  0  0  0  0  0  0  0  0  0  0  0
  128.7160  127.6260   67.9560 C   0  0  0  0  0  0  0  0  0  0  0  0
  129.2150  127.6080   69.3970 C   0  0  0  0  0  0  0  0  0  0  0  0
  128.3810  127.1400   70.4170 C   0  0  0  0  0  0  0  0  0  0  0  0
  128.8490  127.0870   71.7280 C   0  0  0  0  0  0  0  0  0  0  0  0
  130.1500  127.4920   72.0130 C   0  0  0  0  0  0  0  0  0  0  0  0
  130.9910  127.9480   70.9990 C   0  0  0  0  0  0  0  0  0  0  0  0
  130.5250  128.0000   69.6890 C   0  0  0  0  0  0  0  0  0  0  0  0
  129.6610  123.3500   62.7600 N   0  0  0  0  0  0  0  0  0  0  0  0
  128.0774  121.2809   62.0691 H   0  0  0  0  0  0  0  0  0  0  0  0
  128.1938  122.3800   60.6532 H   0  0  0  0  0  0  0  0  0  0  0  0
  129.0813  120.8184   60.6532 H   0  0  0  0  0  0  0  0  0  0  0  0
  131.4252  121.1296   60.8919 H   0  0  0  0  0  0  0  0  0  0  0  0
  130.6131  123.7860   66.2201 H   0  0  0  0  0  0  0  0  0  0  0  0
  131.7072  125.2605   66.2422 H   0  0  0  0  0  0  0  0  0  0  0  0
  129.8340  127.2670   66.2010 H   0  0  0  0  0  0  0  0  0  0  0  0
  128.7402  128.6652   67.5962 H   0  0  0  0  0  0  0  0  0  0  0  0
  127.7015  127.2010   67.9692 H   0  0  0  0  0  0  0  0  0  0  0  0
  127.3565  126.8140   70.1845 H   0  0  0  0  0  0  0  0  0  0  0  0
  128.1934  126.7267   72.5345 H   0  0  0  0  0  0  0  0  0  0  0  0
  130.5182  127.4518   73.0488 H   0  0  0  0  0  0  0  0  0  0  0  0
  132.0179  128.2651   71.2334 H   0  0  0  0  0  0  0  0  0  0  0  0
  131.1871  128.3495   68.8831 H   0  0  0  0  0  0  0  0  0  0  0  0
  1  2  1  0
  2  3  2  0
  3  4  1  0
  4  5  1  0
  5  6  1  0
  5  7  1  0
  5  8  1  0
  4  9  2  0
  9 10  1  0
 10 11  3  0
  9 12  1  0
 12 13  1  0
 13 14  1  0
 14 15  1  0
 15 16  2  0
 15 17  1  0
 17 18  1  0
 18 19  1  0
 19 20  2  0
 20 21  1  0
 21 22  2  0
 22 23  1  0
 23 24  2  0
 12 25  2  0
 25  2  1  0
 24 19  1  0
  1 26  1  0
  1 27  1  0
  1 28  1  0
  3 29  1  0
 14 30  1  0
 14 31  1  0
 17 32  1  0
 18 33  1  0
 18 34  1  0
 20 35  1  0
 21 36  1  0
 22 37  1  0
 23 38  1  0
 24 39  1  0
M  END
>  <Binding energies>  (1) 
[-6.76]

>  <Ligand effiencies>  (1) 
[-0.26]

>  <Interactions>  (1) 
["V-A:ILE:369:CG2:3237, V-A:ILE:369:CD1:3239, V-A:GLY:453:C:4042, H-A:ARG:545:NH1:4927, H-A:ARG:545:NH2:4928, H-A:GLY:454:N:4050, H-A:GLU:543:OE1:4909, H-A:TYR:484:OH:4348, V-B:GLU:543:CG:9879, H-A:ARG:545:NE:4924, V-A:GLU:543:CD:4908, V-A:ARG:545:CZ:4926, H-A:GLU:543:OE2:4910, V-A:LEU:475:CD2:4259, V-A:HIS:456:CE1:4070, V-B:ALA:541:CB:9864, V-A:GLY:454:CA:4049, V-B:PRO:540:CA:9855, V-B:PRO:540:C:9853, V-A:TYR:484:CE2:4346, V-A:GLU:543:C:4902, V-A:HIS:456:CD2:4068, V-A:TYR:484:CZ:4347, V-B:GLU:543:CB:9878, V-A:GLY:544:C:4912, V-A:SER:385:CB:3409, V-A:GLU:543:CB:4906, V-B:HIS:456:CE1:9041, V-A:SER:385:C:3405, V-A:SER:385:CA:3407"]

$$$$
2h_Grossjean_2025
     RDKit          3D

 51 52  0  0  0  0  0  0  0  0999 V2000
  127.9750  128.1580   74.2720 C   0  0  0  0  0  0  0  0  0  0  0  0
  128.2410  127.0280   73.4490 O   0  0  0  0  0  0  0  0  0  0  0  0
  128.3440  127.1950   72.0790 C   0  0  0  0  0  0  0  0  0  0  0  0
  127.3640  126.7780   71.1640 C   0  0  0  0  0  0  0  0  0  0  0  0
  127.5340  126.9890   69.7970 C   0  0  0  0  0  0  0  0  0  0  0  0
  128.6820  127.6180   69.3150 C   0  0  0  0  0  0  0  0  0  0  0  0
  128.8370  127.8550   67.8130 C   0  0  0  0  0  0  0  0  0  0  0  0
  129.6610  126.8500   67.1420 N   0  0  0  0  0  0  0  0  0  0  0  0
  129.8310  125.5850   67.5650 C   0  0  0  0  0  0  0  0  0  0  0  0
  129.3670  125.1600   68.6250 O   0  0  0  0  0  0  0  0  0  0  0  0
  130.6460  124.6780   66.6320 C   0  0  0  0  0  0  0  0  0  0  0  0
  132.2380  125.3750   66.0760 S   0  0  0  0  0  0  0  0  0  0  0  0
  132.3210  125.1260   64.3160 C   0  0  0  0  0  0  0  0  0  0  0  0
  133.3630  124.3520   63.9230 N   0  0  0  0  0  0  0  0  0  0  0  0
  133.5320  124.1130   62.6040 C   0  0  0  0  0  0  0  0  0  0  0  0
  134.7210  123.2460   62.2380 C   0  0  0  0  0  0  0  0  0  0  0  0
  132.6760  124.6260   61.6310 C   0  0  0  0  0  0  0  0  0  0  0  0
  131.5800  125.4120   62.0200 C   0  0  0  0  0  0  0  0  0  0  0  0
  130.6390  125.9620   60.9300 C   0  0  0  0  0  0  0  0  0  0  0  0
  130.5870  127.2920   61.0050 F   0  0  0  0  0  0  0  0  0  0  0  0
  131.0380  125.6460   59.6960 F   0  0  0  0  0  0  0  0  0  0  0  0
  129.4110  125.4700   61.0940 F   0  0  0  0  0  0  0  0  0  0  0  0
  131.3850  125.6650   63.4020 C   0  0  0  0  0  0  0  0  0  0  0  0
  130.2240  126.4300   63.8640 C   0  0  0  0  0  0  0  0  0  0  0  0
  129.3050  127.0320   64.2260 N   0  0  0  0  0  0  0  0  0  0  0  0
  129.6810  128.0180   70.2160 C   0  0  0  0  0  0  0  0  0  0  0  0
  130.8160  128.6360   69.7480 O   0  0  0  0  0  0  0  0  0  0  0  0
  131.8410  127.7420   69.3320 C   0  0  0  0  0  0  0  0  0  0  0  0
  129.4990  127.8230   71.5950 C   0  0  0  0  0  0  0  0  0  0  0  0
  130.4660  128.2310   72.4820 O   0  0  0  0  0  0  0  0  0  0  0  0
  131.2760  127.1760   72.9840 C   0  0  0  0  0  0  0  0  0  0  0  0
  128.0439  127.8653   75.3301 H   0  0  0  0  0  0  0  0  0  0  0  0
  128.7120  128.9469   74.0610 H   0  0  0  0  0  0  0  0  0  0  0  0
  126.9635  128.5353   74.0610 H   0  0  0  0  0  0  0  0  0  0  0  0
  126.4537  126.2802   71.5295 H   0  0  0  0  0  0  0  0  0  0  0  0
  126.7570  126.6570   69.0927 H   0  0  0  0  0  0  0  0  0  0  0  0
  127.8370  127.8466   67.3549 H   0  0  0  0  0  0  0  0  0  0  0  0
  129.3460  128.8224   67.6907 H   0  0  0  0  0  0  0  0  0  0  0  0
  130.0460  127.1160   66.2460 H   0  0  0  0  0  0  0  0  0  0  0  0
  130.8525  123.7380   67.1647 H   0  0  0  0  0  0  0  0  0  0  0  0
  130.0369  124.5420   65.7262 H   0  0  0  0  0  0  0  0  0  0  0  0
  135.2108  122.8889   63.1559 H   0  0  0  0  0  0  0  0  0  0  0  0
  134.3782  122.3844   61.6463 H   0  0  0  0  0  0  0  0  0  0  0  0
  135.4366  123.8358   61.6463 H   0  0  0  0  0  0  0  0  0  0  0  0
  132.8579  124.4166   60.5666 H   0  0  0  0  0  0  0  0  0  0  0  0
  132.3338  127.3121   70.2165 H   0  0  0  0  0  0  0  0  0  0  0  0
  131.4006  126.9344   68.7289 H   0  0  0  0  0  0  0  0  0  0  0  0
  132.5813  128.2881   68.7289 H   0  0  0  0  0  0  0  0  0  0  0  0
  131.2619  127.1944   74.0838 H   0  0  0  0  0  0  0  0  0  0  0  0
  130.8840  126.2117   72.6283 H   0  0  0  0  0  0  0  0  0  0  0  0
  132.3088  127.3056   72.6283 H   0  0  0  0  0  0  0  0  0  0  0  0
  1  2  1  0
  2  3  1  0
  3  4  2  0
  4  5  1  0
  5  6  2  0
  6  7  1  0
  7  8  1  0
  8  9  1  0
  9 10  2  0
  9 11  1  0
 11 12  1  0
 12 13  1  0
 13 14  2  0
 14 15  1  0
 15 16  1  0
 15 17  2  0
 17 18  1  0
 18 19  1  0
 19 20  1  0
 19 21  1  0
 19 22  1  0
 18 23  2  0
 23 24  1  0
 24 25  3  0
  6 26  1  0
 26 27  1  0
 27 28  1  0
 26 29  2  0
 29 30  1  0
 30 31  1  0
 29  3  1  0
 23 13  1  0
  1 32  1  0
  1 33  1  0
  1 34  1  0
  4 35  1  0
  5 36  1  0
  7 37  1  0
  7 38  1  0
  8 39  1  0
 11 40  1  0
 11 41  1  0
 16 42  1  0
 16 43  1  0
 16 44  1  0
 17 45  1  0
 28 46  1  0
 28 47  1  0
 28 48  1  0
 31 49  1  0
 31 50  1  0
 31 51  1  0
M  END
>  <Binding energies>  (1) 
[-5.54]

>  <Ligand effiencies>  (1) 
[-0.173125]

>  <Interactions>  (1) 
["V-A:ILE:369:CD1:3239, V-A:GLY:453:C:4042, H-A:ARG:545:NH2:4928, H-A:GLY:454:N:4050, V-A:GLY:453:CA:4044, H-A:GLU:543:OE1:4909, H-A:TYR:484:OH:4348, V-B:GLU:543:CG:9879, H-A:ARG:545:NE:4924, V-A:GLU:543:CD:4908, V-A:ARG:545:CZ:4926, H-A:GLU:543:OE2:4910, V-A:HIS:456:CE1:4070, V-A:GLY:454:CA:4049, V-A:TYR:484:CE2:4346, V-A:GLU:543:C:4902, V-B:GLU:543:C:9874, V-A:HIS:456:CD2:4068, V-B:GLU:543:CA:9876, V-A:TYR:484:CZ:4347, V-B:GLU:543:CB:9878, V-A:HIS:456:CG:4066, V-A:GLY:544:C:4912, V-A:GLU:543:CB:4906, V-B:HIS:456:CD2:9039, V-B:HIS:456:CE1:9041, V-B:GLY:544:C:9884, V-B:GLY:544:CA:9886, V-A:ARG:545:CG:4922, H-A:LYS:547:NZ:4951, H-B:LYS:547:NZ:9923, V-A:ARG:545:CA:4919, V-A:ARG:545:CB:4921, H-A:GLY:544:N:4915"]

$$$$
2i_Grossjean_2025
     RDKit          3D

 32 33  0  0  0  0  0  0  0  0999 V2000
  128.4630  122.0240   62.1620 C   0  0  0  0  0  0  0  0  0  0  0  0
  129.6410  122.7170   62.8210 C   0  0  0  0  0  0  0  0  0  0  0  0
  129.4650  123.6240   63.8620 C   0  0  0  0  0  0  0  0  0  0  0  0
  130.5870  124.2360   64.4410 C   0  0  0  0  0  0  0  0  0  0  0  0
  130.3740  125.2380   65.5920 C   0  0  0  0  0  0  0  0  0  0  0  0
  129.4920  124.7490   66.4650 F   0  0  0  0  0  0  0  0  0  0  0  0
  131.5270  125.4640   66.2220 F   0  0  0  0  0  0  0  0  0  0  0  0
  129.9100  126.4170   65.1710 F   0  0  0  0  0  0  0  0  0  0  0  0
  131.8720  123.9060   63.9400 C   0  0  0  0  0  0  0  0  0  0  0  0
  133.0790  124.5160   64.5080 C   0  0  0  0  0  0  0  0  0  0  0  0
  134.0320  124.9960   64.9560 N   0  0  0  0  0  0  0  0  0  0  0  0
  131.9590  122.9770   62.8780 C   0  0  0  0  0  0  0  0  0  0  0  0
  133.5210  122.4920   62.1610 S   0  0  0  0  0  0  0  0  0  0  0  0
  133.2330  122.0580   60.4190 C   0  0  0  0  0  0  0  0  0  0  0  0
  132.8100  120.5980   60.2470 C   0  0  0  0  0  0  0  0  0  0  0  0
  133.5300  119.8380   59.5980 O   0  0  0  0  0  0  0  0  0  0  0  0
  131.6340  120.2560   60.8160 N   0  0  0  0  0  0  0  0  0  0  0  0
  131.0320  119.0090   60.7860 C   0  0  0  0  0  0  0  0  0  0  0  0
  130.0580  118.4550   61.6300 C   0  0  0  0  0  0  0  0  0  0  0  0
  129.8350  117.1950   61.1260 C   0  0  0  0  0  0  0  0  0  0  0  0
  130.6210  117.0060   60.0390 O   0  0  0  0  0  0  0  0  0  0  0  0
  131.3690  118.1670   59.8340 N   0  0  0  0  0  0  0  0  0  0  0  0
  130.8600  122.3940   62.3330 N   0  0  0  0  0  0  0  0  0  0  0  0
  127.7901  121.6281   62.9369 H   0  0  0  0  0  0  0  0  0  0  0  0
  127.9170  122.7449   61.5357 H   0  0  0  0  0  0  0  0  0  0  0  0
  128.8279  121.1966   61.5357 H   0  0  0  0  0  0  0  0  0  0  0  0
  128.4546  123.8591   64.2278 H   0  0  0  0  0  0  0  0  0  0  0  0
  132.4388  122.7058   60.0196 H   0  0  0  0  0  0  0  0  0  0  0  0
  134.1788  122.2007   59.8757 H   0  0  0  0  0  0  0  0  0  0  0  0
  131.1140  120.9800   61.2900 H   0  0  0  0  0  0  0  0  0  0  0  0
  129.5788  118.9244   62.5018 H   0  0  0  0  0  0  0  0  0  0  0  0
  129.1307  116.4582   61.5396 H   0  0  0  0  0  0  0  0  0  0  0  0
  1  2  1  0
  2  3  2  0
  3  4  1  0
  4  5  1  0
  5  6  1  0
  5  7  1  0
  5  8  1  0
  4  9  2  0
  9 10  1  0
 10 11  3  0
  9 12  1  0
 12 13  1  0
 13 14  1  0
 14 15  1  0
 15 16  2  0
 15 17  1  0
 17 18  1  0
 18 19  1  0
 19 20  2  0
 20 21  1  0
 21 22  1  0
 12 23  2  0
 23  2  1  0
 22 18  2  0
  1 24  1  0
  1 25  1  0
  1 26  1  0
  3 27  1  0
 14 28  1  0
 14 29  1  0
 17 30  1  0
 19 31  1  0
 20 32  1  0
M  END
>  <Binding energies>  (1) 
[-6.37]

>  <Ligand effiencies>  (1) 
[-0.2654166666666667]

>  <Interactions>  (1) 
["V-A:ILE:369:CG2:3237, V-B:GLU:543:CD:9880, H-A:ARG:545:NH1:4927, H-A:ARG:545:NH2:4928, H-A:GLY:454:N:4050, H-A:TYR:484:OH:4348, V-B:GLU:543:CG:9879, H-A:ARG:545:NE:4924, V-A:GLU:543:CD:4908, V-A:ARG:545:CZ:4926, V-A:LEU:475:CD2:4259, V-A:HIS:456:CE1:4070, V-B:ALA:541:CB:9864, V-A:GLY:454:CA:4049, V-B:PRO:540:CA:9855, V-B:TYR:539:CE2:9848, V-B:PRO:540:C:9853, V-B:TYR:539:CD2:9846, V-B:ALA:541:CA:9862, V-A:TYR:484:CE2:4346, V-B:GLU:543:CA:9876, V-A:TYR:484:CZ:4347, V-B:GLU:543:CB:9878, V-A:SER:385:CB:3409, V-A:PRO:482:CB:4326, V-A:PRO:482:CG:4327, V-A:HIS:383:NE2:3394, H-A:SER:385:OG:3410, V-A:LEU:475:CG:4257, V-A:LEU:475:CD1:4258, H-A:HIS:383:HE2:3395"]

$$$$
2j_Grossjean_2025
     RDKit          3D

 32 33  0  0  0  0  0  0  0  0999 V2000
  128.4120  122.3590   62.5460 C   0  0  0  0  0  0  0  0  0  0  0  0
  129.8260  122.8970   62.6600 C   0  0  0  0  0  0  0  0  0  0  0  0
  130.7880  122.6350   61.6870 C   0  0  0  0  0  0  0  0  0  0  0  0
  132.0810  123.1580   61.8360 C   0  0  0  0  0  0  0  0  0  0  0  0
  133.1320  122.8580   60.7490 C   0  0  0  0  0  0  0  0  0  0  0  0
  132.7100  121.8620   59.9690 F   0  0  0  0  0  0  0  0  0  0  0  0
  133.3330  123.9410   59.9970 F   0  0  0  0  0  0  0  0  0  0  0  0
  134.3120  122.4980   61.2590 F   0  0  0  0  0  0  0  0  0  0  0  0
  132.3670  123.9410   62.9820 C   0  0  0  0  0  0  0  0  0  0  0  0
  133.7010  124.5120   63.1890 C   0  0  0  0  0  0  0  0  0  0  0  0
  134.7540  124.9630   63.3510 N   0  0  0  0  0  0  0  0  0  0  0  0
  131.3300  124.1570   63.9210 C   0  0  0  0  0  0  0  0  0  0  0  0
  131.5750  125.1280   65.4000 S   0  0  0  0  0  0  0  0  0  0  0  0
  129.9560  125.7790   65.9360 C   0  0  0  0  0  0  0  0  0  0  0  0
  129.7630  125.8580   67.4580 C   0  0  0  0  0  0  0  0  0  0  0  0
  129.4330  124.8610   68.1030 O   0  0  0  0  0  0  0  0  0  0  0  0
  129.9710  127.0820   67.9920 N   0  0  0  0  0  0  0  0  0  0  0  0
  129.8680  127.4310   69.3320 C   0  0  0  0  0  0  0  0  0  0  0  0
  128.7990  127.3840   70.0980 N   0  0  0  0  0  0  0  0  0  0  0  0
  129.0630  127.7880   71.3250 C   0  0  0  0  0  0  0  0  0  0  0  0
  130.3760  128.1760   71.5760 C   0  0  0  0  0  0  0  0  0  0  0  0
  131.3060  127.9980   70.1190 S   0  0  0  0  0  0  0  0  0  0  0  0
  130.0840  123.6430   63.7580 N   0  0  0  0  0  0  0  0  0  0  0  0
  127.9974  122.2013   63.5526 H   0  0  0  0  0  0  0  0  0  0  0  0
  127.7873  123.0823   62.0014 H   0  0  0  0  0  0  0  0  0  0  0  0
  128.4261  121.4034   62.0014 H   0  0  0  0  0  0  0  0  0  0  0  0
  130.5356  122.0227   60.8087 H   0  0  0  0  0  0  0  0  0  0  0  0
  129.8417  126.7925   65.5239 H   0  0  0  0  0  0  0  0  0  0  0  0
  129.2004  125.0708   65.5653 H   0  0  0  0  0  0  0  0  0  0  0  0
  130.2280  127.8290   67.3630 H   0  0  0  0  0  0  0  0  0  0  0  0
  128.2892  127.8168   72.1063 H   0  0  0  0  0  0  0  0  0  0  0  0
  130.7624  128.5369   72.5406 H   0  0  0  0  0  0  0  0  0  0  0  0
  1  2  1  0
  2  3  2  0
  3  4  1  0
  4  5  1  0
  5  6  1  0
  5  7  1  0
  5  8  1  0
  4  9  2  0
  9 10  1  0
 10 11  3  0
  9 12  1  0
 12 13  1  0
 13 14  1  0
 14 15  1  0
 15 16  2  0
 15 17  1  0
 17 18  1  0
 18 19  2  0
 19 20  1  0
 20 21  2  0
 21 22  1  0
 12 23  2  0
 23  2  1  0
 22 18  1  0
  1 24  1  0
  1 25  1  0
  1 26  1  0
  3 27  1  0
 14 28  1  0
 14 29  1  0
 17 30  1  0
 20 31  1  0
 21 32  1  0
M  END
>  <Binding energies>  (1) 
[-5.64]

>  <Ligand effiencies>  (1) 
[-0.235]

>  <Interactions>  (1) 
["V-A:ILE:369:CG2:3237, V-A:ILE:369:CD1:3239, V-B:GLU:543:CD:9880, H-A:ARG:545:NH1:4927, H-A:ARG:545:NH2:4928, H-A:GLY:454:N:4050, H-A:TYR:484:OH:4348, V-B:GLU:543:CG:9879, V-A:ILE:369:CB:3236, V-A:GLU:543:CD:4908, V-A:ARG:545:CZ:4926, H-A:GLU:543:OE2:4910, V-A:LEU:475:CD2:4259, V-A:HIS:456:CE1:4070, V-B:ALA:541:CB:9864, V-B:TYR:539:CE2:9848, V-B:TYR:539:CD2:9846, V-B:ALA:541:CA:9862, V-A:GLU:543:C:4902, V-B:GLU:543:CB:9878, V-A:GLY:544:C:4912, V-A:GLU:543:CB:4906, V-B:HIS:456:CD2:9039, V-B:HIS:456:CE1:9041, V-A:ARG:545:CA:4919, V-A:ILE:369:CG1:3238"]

$$$$
2k_Grossjean_2025
     RDKit          3D

 50 50  0  0  0  0  0  0  0  0999 V2000
  125.2310  122.6320   57.0110 C   0  0  0  0  0  0  0  0  0  0  0  0
  126.4840  121.9710   56.9360 O   0  0  0  0  0  0  0  0  0  0  0  0
  127.5000  122.7510   56.3170 C   0  0  0  0  0  0  0  0  0  0  0  0
  128.2630  123.5470   57.3840 C   0  0  0  0  0  0  0  0  0  0  0  0
  128.2010  122.8460   58.6170 O   0  0  0  0  0  0  0  0  0  0  0  0
  128.4730  123.6490   59.7600 C   0  0  0  0  0  0  0  0  0  0  0  0
  127.1970  123.7330   60.6080 C   0  0  0  0  0  0  0  0  0  0  0  0
  127.2280  122.6690   61.5470 O   0  0  0  0  0  0  0  0  0  0  0  0
  128.4750  122.4730   62.1960 C   0  0  0  0  0  0  0  0  0  0  0  0
  129.1900  121.2690   61.5550 C   0  0  0  0  0  0  0  0  0  0  0  0
  130.5590  121.5740   61.1340 N   0  0  0  0  0  0  0  0  0  0  0  0
  131.4920  120.6680   60.7840 C   0  0  0  0  0  0  0  0  0  0  0  0
  131.2790  119.4540   60.7530 O   0  0  0  0  0  0  0  0  0  0  0  0
  132.8760  121.2350   60.4380 C   0  0  0  0  0  0  0  0  0  0  0  0
  133.3890  122.6950   61.4100 S   0  0  0  0  0  0  0  0  0  0  0  0
  132.2980  124.0640   61.0450 C   0  0  0  0  0  0  0  0  0  0  0  0
  131.4920  124.4620   62.0630 N   0  0  0  0  0  0  0  0  0  0  0  0
  130.6390  125.4890   61.8560 C   0  0  0  0  0  0  0  0  0  0  0  0
  129.7650  125.8660   63.0360 C   0  0  0  0  0  0  0  0  0  0  0  0
  130.5590  126.1670   60.6430 C   0  0  0  0  0  0  0  0  0  0  0  0
  131.3880  125.7780   59.5790 C   0  0  0  0  0  0  0  0  0  0  0  0
  131.2900  126.5420   58.2450 C   0  0  0  0  0  0  0  0  0  0  0  0
  130.7460  125.8120   57.2700 F   0  0  0  0  0  0  0  0  0  0  0  0
  130.5360  127.6320   58.3970 F   0  0  0  0  0  0  0  0  0  0  0  0
  132.5060  126.9110   57.8400 F   0  0  0  0  0  0  0  0  0  0  0  0
  132.2830  124.6960   59.7790 C   0  0  0  0  0  0  0  0  0  0  0  0
  133.1700  124.2450   58.7020 C   0  0  0  0  0  0  0  0  0  0  0  0
  133.8700  123.8900   57.8510 N   0  0  0  0  0  0  0  0  0  0  0  0
  124.9556  122.7773   58.0660 H   0  0  0  0  0  0  0  0  0  0  0  0
  125.3020  123.6100   56.5126 H   0  0  0  0  0  0  0  0  0  0  0  0
  124.4638  122.0213   56.5126 H   0  0  0  0  0  0  0  0  0  0  0  0
  128.1987  122.0871   55.7868 H   0  0  0  0  0  0  0  0  0  0  0  0
  127.0391  123.4486   55.6023 H   0  0  0  0  0  0  0  0  0  0  0  0
  129.3132  123.6617   57.0776 H   0  0  0  0  0  0  0  0  0  0  0  0
  127.8095  124.5425   57.4996 H   0  0  0  0  0  0  0  0  0  0  0  0
  129.2818  123.1934   60.3501 H   0  0  0  0  0  0  0  0  0  0  0  0
  128.7864  124.6562   59.4482 H   0  0  0  0  0  0  0  0  0  0  0  0
  127.1619  124.6972   61.1363 H   0  0  0  0  0  0  0  0  0  0  0  0
  126.3054  123.6547   59.9685 H   0  0  0  0  0  0  0  0  0  0  0  0
  129.0957  123.3740   62.0821 H   0  0  0  0  0  0  0  0  0  0  0  0
  128.3107  122.2808   63.2665 H   0  0  0  0  0  0  0  0  0  0  0  0
  129.2231  120.4499   62.2884 H   0  0  0  0  0  0  0  0  0  0  0  0
  128.6230  120.9911   60.6543 H   0  0  0  0  0  0  0  0  0  0  0  0
  130.8120  122.5510   61.1170 H   0  0  0  0  0  0  0  0  0  0  0  0
  133.6189  120.4404   60.6011 H   0  0  0  0  0  0  0  0  0  0  0  0
  132.8130  121.5729   59.3931 H   0  0  0  0  0  0  0  0  0  0  0  0
  130.2948  125.6375   63.9725 H   0  0  0  0  0  0  0  0  0  0  0  0
  129.5388  126.9417   62.9958 H   0  0  0  0  0  0  0  0  0  0  0  0
  128.8273  125.2923   62.9958 H   0  0  0  0  0  0  0  0  0  0  0  0
  129.8521  127.0006   60.5192 H   0  0  0  0  0  0  0  0  0  0  0  0
  1  2  1  0
  2  3  1  0
  3  4  1  0
  4  5  1  0
  5  6  1  0
  6  7  1  0
  7  8  1  0
  8  9  1  0
  9 10  1  0
 10 11  1  0
 11 12  1  0
 12 13  2  0
 12 14  1  0
 14 15  1  0
 15 16  1  0
 16 17  2  0
 17 18  1  0
 18 19  1  0
 18 20  2  0
 20 21  1  0
 21 22  1  0
 22 23  1  0
 22 24  1  0
 22 25  1  0
 21 26  2  0
 26 27  1  0
 27 28  3  0
 26 16  1  0
  1 29  1  0
  1 30  1  0
  1 31  1  0
  3 32  1  0
  3 33  1  0
  4 34  1  0
  4 35  1  0
  6 36  1  0
  6 37  1  0
  7 38  1  0
  7 39  1  0
  9 40  1  0
  9 41  1  0
 10 42  1  0
 10 43  1  0
 11 44  1  0
 14 45  1  0
 14 46  1  0
 19 47  1  0
 19 48  1  0
 19 49  1  0
 20 50  1  0
M  END
>  <Binding energies>  (1) 
[-5.13]

>  <Ligand effiencies>  (1) 
[-0.17689655172413793]

>  <Interactions>  (1) 
["V-A:ILE:369:CG2:3237, V-A:ASP:366:CB:3212, V-A:ASP:366:CA:3210, V-A:ASP:366:CG:3213, V-A:LEU:475:CD2:4259, V-B:ALA:541:CB:9864, H-B:ALA:541:N:9863, V-B:PRO:540:CD:9859, V-B:PRO:540:CA:9855, V-B:PRO:540:CB:9857, V-B:PRO:540:N:9856, V-B:LEU:363:CD1:8160, V-B:MET:535:CE:9807, V-B:TYR:539:CZ:9849, V-B:TYR:539:CE2:9848, V-B:TYR:539:CD1:9845, H-B:TYR:539:N:9842, V-B:PRO:540:C:9853, V-B:TYR:539:CE1:9847, V-B:TYR:539:CD2:9846, V-B:PRO:540:CG:9858, V-B:TYR:539:CG:9844, V-A:TYR:531:CZ:4794, H-B:TYR:539:OH:9850, H-A:SER:385:OG:3410, H-A:ASN:370:N:3244, H-A:HIS:383:HE2:3395"]

$$$$
3aa_Grossjean_2025
     RDKit          3D

 52 54  0  0  0  0  0  0  0  0999 V2000
  131.2810  125.7530   74.9720 C   0  0  0  0  0  0  0  0  0  0  0  0
  131.4060  126.7470   73.8140 C   0  0  0  0  0  0  0  0  0  0  0  0
  130.1220  127.2700   73.4970 O   0  0  0  0  0  0  0  0  0  0  0  0
  129.9840  128.3060   72.6300 C   0  0  0  0  0  0  0  0  0  0  0  0
  129.8820  129.4840   72.9880 O   0  0  0  0  0  0  0  0  0  0  0  0
  129.9520  127.8760   71.1910 C   0  0  0  0  0  0  0  0  0  0  0  0
  131.0530  128.0470   70.3390 C   0  0  0  0  0  0  0  0  0  0  0  0
  130.9910  127.6330   69.0110 C   0  0  0  0  0  0  0  0  0  0  0  0
  129.8330  127.0360   68.5100 C   0  0  0  0  0  0  0  0  0  0  0  0
  129.8760  126.6500   67.1550 N   0  0  0  0  0  0  0  0  0  0  0  0
  129.8560  125.4140   66.6110 C   0  0  0  0  0  0  0  0  0  0  0  0
  129.8180  124.3560   67.2410 O   0  0  0  0  0  0  0  0  0  0  0  0
  129.8980  125.3660   65.0830 C   0  0  0  0  0  0  0  0  0  0  0  0
  129.6050  123.6850   64.4530 S   0  0  0  0  0  0  0  0  0  0  0  0
  130.0640  123.6870   62.7340 C   0  0  0  0  0  0  0  0  0  0  0  0
  129.0090  123.5790   61.8900 N   0  0  0  0  0  0  0  0  0  0  0  0
  129.2190  123.5650   60.5490 C   0  0  0  0  0  0  0  0  0  0  0  0
  128.0010  123.4590   59.6810 C   0  0  0  0  0  0  0  0  0  0  0  0
  126.7710  123.9810   60.1110 C   0  0  0  0  0  0  0  0  0  0  0  0
  125.6350  123.8860   59.3100 C   0  0  0  0  0  0  0  0  0  0  0  0
  125.7160  123.2670   58.0680 C   0  0  0  0  0  0  0  0  0  0  0  0
  126.9240  122.7440   57.6190 C   0  0  0  0  0  0  0  0  0  0  0  0
  128.0580  122.8420   58.4200 C   0  0  0  0  0  0  0  0  0  0  0  0
  130.5110  123.6690   60.0220 C   0  0  0  0  0  0  0  0  0  0  0  0
  131.6200  123.7640   60.8770 C   0  0  0  0  0  0  0  0  0  0  0  0
  133.0280  123.8650   60.2590 C   0  0  0  0  0  0  0  0  0  0  0  0
  133.8130  122.8360   60.5870 F   0  0  0  0  0  0  0  0  0  0  0  0
  132.9450  123.8930   58.9290 F   0  0  0  0  0  0  0  0  0  0  0  0
  133.6290  124.9790   60.6780 F   0  0  0  0  0  0  0  0  0  0  0  0
  131.3970  123.7610   62.2760 C   0  0  0  0  0  0  0  0  0  0  0  0
  132.5220  123.7990   63.2150 C   0  0  0  0  0  0  0  0  0  0  0  0
  133.4100  123.8290   63.9580 N   0  0  0  0  0  0  0  0  0  0  0  0
  128.7220  126.8740   69.3530 C   0  0  0  0  0  0  0  0  0  0  0  0
  128.7860  127.2910   70.6790 C   0  0  0  0  0  0  0  0  0  0  0  0
  131.3489  126.2932   75.9278 H   0  0  0  0  0  0  0  0  0  0  0  0
  130.3110  125.2379   74.9100 H   0  0  0  0  0  0  0  0  0  0  0  0
  132.0933  125.0138   74.9100 H   0  0  0  0  0  0  0  0  0  0  0  0
  132.0747  127.5696   74.1076 H   0  0  0  0  0  0  0  0  0  0  0  0
  131.8203  126.2339   72.9336 H   0  0  0  0  0  0  0  0  0  0  0  0
  131.9729  128.5120   70.7231 H   0  0  0  0  0  0  0  0  0  0  0  0
  131.8602  127.7773   68.3525 H   0  0  0  0  0  0  0  0  0  0  0  0
  129.9830  127.4190   66.5090 H   0  0  0  0  0  0  0  0  0  0  0  0
  129.1223  126.0362   64.6841 H   0  0  0  0  0  0  0  0  0  0  0  0
  130.8997  125.6837   64.7579 H   0  0  0  0  0  0  0  0  0  0  0  0
  126.7031  124.4715   61.0932 H   0  0  0  0  0  0  0  0  0  0  0  0
  124.6773  124.2994   59.6592 H   0  0  0  0  0  0  0  0  0  0  0  0
  124.8188  123.1903   57.4362 H   0  0  0  0  0  0  0  0  0  0  0  0
  126.9829  122.2552   56.6354 H   0  0  0  0  0  0  0  0  0  0  0  0
  129.0127  122.4304   58.0606 H   0  0  0  0  0  0  0  0  0  0  0  0
  130.6583  123.6763   58.9319 H   0  0  0  0  0  0  0  0  0  0  0  0
  127.7999  126.4169   68.9648 H   0  0  0  0  0  0  0  0  0  0  0  0
  127.9112  127.1599   71.3329 H   0  0  0  0  0  0  0  0  0  0  0  0
  1  2  1  0
  2  3  1  0
  3  4  1  0
  4  5  2  0
  4  6  1  0
  6  7  2  0
  7  8  1  0
  8  9  2  0
  9 10  1  0
 10 11  1  0
 11 12  2  0
 11 13  1  0
 13 14  1  0
 14 15  1  0
 15 16  2  0
 16 17  1  0
 17 18  1  0
 18 19  2  0
 19 20  1  0
 20 21  2  0
 21 22  1  0
 22 23  2  0
 17 24  2  0
 24 25  1  0
 25 26  1  0
 26 27  1  0
 26 28  1  0
 26 29  1  0
 25 30  2  0
 30 31  1  0
 31 32  3  0
  9 33  1  0
 33 34  2  0
 34  6  1  0
 30 15  1  0
 23 18  1  0
  1 35  1  0
  1 36  1  0
  1 37  1  0
  2 38  1  0
  2 39  1  0
  7 40  1  0
  8 41  1  0
 10 42  1  0
 13 43  1  0
 13 44  1  0
 19 45  1  0
 20 46  1  0
 21 47  1  0
 22 48  1  0
 23 49  1  0
 24 50  1  0
 33 51  1  0
 34 52  1  0
M  END
>  <Binding energies>  (1) 
[-8.44]

>  <Ligand effiencies>  (1) 
[-0.24114285714285713]

>  <Interactions>  (1) 
["V-A:ILE:369:CG2:3237, V-A:ILE:369:CD1:3239, V-A:ASP:366:CB:3212, V-B:GLU:543:CD:9880, H-A:GLY:454:N:4050, V-A:ASP:366:CA:3210, V-A:ASP:366:CG:3213, H-A:GLU:543:OE1:4909, H-A:TYR:484:OH:4348, V-B:GLU:543:CG:9879, V-A:ILE:369:CB:3236, V-A:GLU:543:CD:4908, H-A:GLU:543:OE2:4910, V-A:HIS:456:CE1:4070, V-B:TYR:539:C:9839, V-B:PRO:540:CD:9859, V-B:PRO:540:CA:9855, V-B:PRO:540:CB:9857, V-B:PRO:540:N:9856, V-B:TYR:539:CZ:9849, V-B:TYR:539:CE2:9848, V-B:TYR:539:CD2:9846, V-B:TYR:539:CG:9844, V-A:GLU:543:C:4902, V-B:GLU:543:C:9874, V-A:HIS:456:CD2:4068, V-B:GLU:543:CB:9878, V-A:HIS:456:CG:4066, V-A:GLY:544:C:4912, V-A:GLU:543:CB:4906, V-B:HIS:456:CE1:9041, V-A:ARG:545:CG:4922, H-A:LYS:547:NZ:4951"]

$$$$
3ab_Grossjean_2025
     RDKit          3D

 49 51  0  0  0  0  0  0  0  0999 V2000
  129.4870  130.7910   73.2120 C   0  0  0  0  0  0  0  0  0  0  0  0
  130.1190  129.5360   73.0020 O   0  0  0  0  0  0  0  0  0  0  0  0
  129.3880  128.4160   72.7690 C   0  0  0  0  0  0  0  0  0  0  0  0
  128.6800  127.8750   73.6230 O   0  0  0  0  0  0  0  0  0  0  0  0
  129.5230  127.9010   71.3650 C   0  0  0  0  0  0  0  0  0  0  0  0
  128.4760  127.2290   70.7150 C   0  0  0  0  0  0  0  0  0  0  0  0
  128.6290  126.7630   69.4130 C   0  0  0  0  0  0  0  0  0  0  0  0
  129.8410  126.9610   68.7330 C   0  0  0  0  0  0  0  0  0  0  0  0
  130.1050  126.5390   67.4160 N   0  0  0  0  0  0  0  0  0  0  0  0
  129.9670  125.3200   66.8530 C   0  0  0  0  0  0  0  0  0  0  0  0
  129.5780  124.3050   67.4300 O   0  0  0  0  0  0  0  0  0  0  0  0
  130.3410  125.2370   65.3710 C   0  0  0  0  0  0  0  0  0  0  0  0
  129.8070  123.6700   64.6180 S   0  0  0  0  0  0  0  0  0  0  0  0
  130.2860  123.7110   62.9040 C   0  0  0  0  0  0  0  0  0  0  0  0
  129.2430  123.6030   62.0480 N   0  0  0  0  0  0  0  0  0  0  0  0
  129.4620  123.6260   60.7080 C   0  0  0  0  0  0  0  0  0  0  0  0
  128.2530  123.5040   59.8280 C   0  0  0  0  0  0  0  0  0  0  0  0
  128.3440  122.9090   58.5600 C   0  0  0  0  0  0  0  0  0  0  0  0
  127.2250  122.7930   57.7390 C   0  0  0  0  0  0  0  0  0  0  0  0
  125.9950  123.2740   58.1770 C   0  0  0  0  0  0  0  0  0  0  0  0
  125.8790  123.8720   59.4270 C   0  0  0  0  0  0  0  0  0  0  0  0
  127.0000  123.9860   60.2440 C   0  0  0  0  0  0  0  0  0  0  0  0
  130.7600  123.7360   60.1970 C   0  0  0  0  0  0  0  0  0  0  0  0
  131.8590  123.8290   61.0630 C   0  0  0  0  0  0  0  0  0  0  0  0
  133.2720  123.9440   60.4600 C   0  0  0  0  0  0  0  0  0  0  0  0
  133.9670  124.9670   60.9620 F   0  0  0  0  0  0  0  0  0  0  0  0
  133.9680  122.8320   60.7030 F   0  0  0  0  0  0  0  0  0  0  0  0
  133.1910  124.1220   59.1400 F   0  0  0  0  0  0  0  0  0  0  0  0
  131.6240  123.8080   62.4600 C   0  0  0  0  0  0  0  0  0  0  0  0
  132.7400  123.8450   63.4090 C   0  0  0  0  0  0  0  0  0  0  0  0
  133.6240  123.8740   64.1550 N   0  0  0  0  0  0  0  0  0  0  0  0
  130.8830  127.6330   69.3740 C   0  0  0  0  0  0  0  0  0  0  0  0
  130.7270  128.0970   70.6770 C   0  0  0  0  0  0  0  0  0  0  0  0
  129.3928  130.9780   74.2919 H   0  0  0  0  0  0  0  0  0  0  0  0
  130.0916  131.5873   72.7533 H   0  0  0  0  0  0  0  0  0  0  0  0
  128.4872  130.7794   72.7533 H   0  0  0  0  0  0  0  0  0  0  0  0
  127.5234  127.0689   71.2412 H   0  0  0  0  0  0  0  0  0  0  0  0
  127.7994  126.2389   68.9160 H   0  0  0  0  0  0  0  0  0  0  0  0
  130.4860  127.2620   66.8230 H   0  0  0  0  0  0  0  0  0  0  0  0
  129.8600  126.0695   64.8366 H   0  0  0  0  0  0  0  0  0  0  0  0
  131.4368  125.2938   65.2943 H   0  0  0  0  0  0  0  0  0  0  0  0
  129.3145  122.5283   58.2092 H   0  0  0  0  0  0  0  0  0  0  0  0
  127.3132  122.3231   56.7484 H   0  0  0  0  0  0  0  0  0  0  0  0
  125.1096  123.1807   57.5309 H   0  0  0  0  0  0  0  0  0  0  0  0
  124.9054  124.2533   59.7687 H   0  0  0  0  0  0  0  0  0  0  0  0
  126.9037  124.4611   61.2314 H   0  0  0  0  0  0  0  0  0  0  0  0
  130.9193  123.7496   59.1087 H   0  0  0  0  0  0  0  0  0  0  0  0
  131.8339  127.7970   68.8459 H   0  0  0  0  0  0  0  0  0  0  0  0
  131.5574  128.6227   71.1711 H   0  0  0  0  0  0  0  0  0  0  0  0
  1  2  1  0
  2  3  1  0
  3  4  2  0
  3  5  1  0
  5  6  2  0
  6  7  1  0
  7  8  2  0
  8  9  1  0
  9 10  1  0
 10 11  2  0
 10 12  1  0
 12 13  1  0
 13 14  1  0
 14 15  2  0
 15 16  1  0
 16 17  1  0
 17 18  2  0
 18 19  1  0
 19 20  2  0
 20 21  1  0
 21 22  2  0
 16 23  2  0
 23 24  1  0
 24 25  1  0
 25 26  1  0
 25 27  1  0
 25 28  1  0
 24 29  2  0
 29 30  1  0
 30 31  3  0
  8 32  1  0
 32 33  2  0
 33  5  1  0
 29 14  1  0
 22 17  1  0
  1 34  1  0
  1 35  1  0
  1 36  1  0
  6 37  1  0
  7 38  1  0
  9 39  1  0
 12 40  1  0
 12 41  1  0
 18 42  1  0
 19 43  1  0
 20 44  1  0
 21 45  1  0
 22 46  1  0
 23 47  1  0
 32 48  1  0
 33 49  1  0
M  END
>  <Binding energies>  (1) 
[-8.61]

>  <Ligand effiencies>  (1) 
[-0.25323529411764706]

>  <Interactions>  (1) 
["V-A:ILE:369:CG2:3237, V-A:ILE:369:CD1:3239, V-A:ASP:366:CB:3212, H-A:GLY:454:N:4050, V-A:ASP:366:CA:3210, V-A:ASP:366:CG:3213, H-A:GLU:543:OE1:4909, H-A:TYR:484:OH:4348, V-B:GLU:543:CG:9879, V-A:ILE:369:CB:3236, V-A:GLU:543:CD:4908, H-A:GLU:543:OE2:4910, V-A:HIS:456:CE1:4070, V-B:TYR:539:C:9839, V-B:PRO:540:CA:9855, V-B:PRO:540:CB:9857, V-B:PRO:540:N:9856, V-B:TYR:539:CZ:9849, V-B:TYR:539:CE2:9848, V-B:TYR:539:CD2:9846, V-B:TYR:539:CG:9844, V-A:GLU:543:C:4902, V-B:GLU:543:C:9874, V-B:GLU:543:CB:9878, V-A:GLY:544:C:4912, V-A:GLU:543:CB:4906, V-B:HIS:456:CD2:9039, V-B:HIS:456:CE1:9041, H-A:LYS:547:NZ:4951, H-B:LYS:547:NZ:9923, V-A:LYS:547:CE:4950"]

$$$$
3ac_Grossjean_2025
     RDKit          3D

 47 49  0  0  0  0  0  0  0  0999 V2000
  132.9000  125.7740   57.3670 C   0  0  0  0  0  0  0  0  0  0  0  0
  133.1240  124.6040   58.1480 O   0  0  0  0  0  0  0  0  0  0  0  0
  132.9900  124.6730   59.5210 C   0  0  0  0  0  0  0  0  0  0  0  0
  132.1510  125.6720   60.0150 C   0  0  0  0  0  0  0  0  0  0  0  0
  131.9510  125.8160   61.3840 C   0  0  0  0  0  0  0  0  0  0  0  0
  132.5960  124.9650   62.2840 C   0  0  0  0  0  0  0  0  0  0  0  0
  132.3150  125.1750   63.6470 N   0  0  0  0  0  0  0  0  0  0  0  0
  133.1590  125.1630   64.7020 C   0  0  0  0  0  0  0  0  0  0  0  0
  134.3780  125.0010   64.6360 O   0  0  0  0  0  0  0  0  0  0  0  0
  132.5070  125.3760   66.0690 C   0  0  0  0  0  0  0  0  0  0  0  0
  130.7710  124.8320   66.0960 S   0  0  0  0  0  0  0  0  0  0  0  0
  129.7490  126.2100   66.5810 C   0  0  0  0  0  0  0  0  0  0  0  0
  129.6160  126.3280   67.9240 N   0  0  0  0  0  0  0  0  0  0  0  0
  128.8700  127.3370   68.4440 C   0  0  0  0  0  0  0  0  0  0  0  0
  128.7680  127.3930   69.9390 C   0  0  0  0  0  0  0  0  0  0  0  0
  127.6430  126.8760   70.6020 C   0  0  0  0  0  0  0  0  0  0  0  0
  127.5460  126.9210   71.9900 C   0  0  0  0  0  0  0  0  0  0  0  0
  128.5740  127.4860   72.7360 C   0  0  0  0  0  0  0  0  0  0  0  0
  129.6970  128.0090   72.1050 C   0  0  0  0  0  0  0  0  0  0  0  0
  129.7900  127.9640   70.7160 C   0  0  0  0  0  0  0  0  0  0  0  0
  128.2180  128.2490   67.6080 C   0  0  0  0  0  0  0  0  0  0  0  0
  128.3200  128.1350   66.2140 C   0  0  0  0  0  0  0  0  0  0  0  0
  127.5800  129.1590   65.3310 C   0  0  0  0  0  0  0  0  0  0  0  0
  127.3560  128.7100   64.0940 F   0  0  0  0  0  0  0  0  0  0  0  0
  126.3950  129.4580   65.8650 F   0  0  0  0  0  0  0  0  0  0  0  0
  128.3030  130.2750   65.2300 F   0  0  0  0  0  0  0  0  0  0  0  0
  129.0950  127.0780   65.6760 C   0  0  0  0  0  0  0  0  0  0  0  0
  129.1690  126.8730   64.2280 C   0  0  0  0  0  0  0  0  0  0  0  0
  129.2260  126.7100   63.0830 N   0  0  0  0  0  0  0  0  0  0  0  0
  133.4360  123.9530   61.7950 C   0  0  0  0  0  0  0  0  0  0  0  0
  133.6340  123.8110   60.4240 C   0  0  0  0  0  0  0  0  0  0  0  0
  132.7354  126.6336   58.0333 H   0  0  0  0  0  0  0  0  0  0  0  0
  133.7779  125.9648   56.7323 H   0  0  0  0  0  0  0  0  0  0  0  0
  132.0137  125.6270   56.7323 H   0  0  0  0  0  0  0  0  0  0  0  0
  131.6429  126.3521   59.3155 H   0  0  0  0  0  0  0  0  0  0  0  0
  131.2816  126.6040   61.7595 H   0  0  0  0  0  0  0  0  0  0  0  0
  131.3550  125.4140   63.8430 H   0  0  0  0  0  0  0  0  0  0  0  0
  133.0689  124.8043   66.8222 H   0  0  0  0  0  0  0  0  0  0  0  0
  132.5261  126.4539   66.2875 H   0  0  0  0  0  0  0  0  0  0  0  0
  126.8265  126.4289   70.0159 H   0  0  0  0  0  0  0  0  0  0  0  0
  126.6589  126.5109   72.4948 H   0  0  0  0  0  0  0  0  0  0  0  0
  128.4984  127.5195   73.8329 H   0  0  0  0  0  0  0  0  0  0  0  0
  130.5076  128.4559   72.6994 H   0  0  0  0  0  0  0  0  0  0  0  0
  130.6779  128.3822   70.2193 H   0  0  0  0  0  0  0  0  0  0  0  0
  127.6208  129.0617   68.0471 H   0  0  0  0  0  0  0  0  0  0  0  0
  133.9390  123.2706   62.4959 H   0  0  0  0  0  0  0  0  0  0  0  0
  134.2982  123.0197   60.0461 H   0  0  0  0  0  0  0  0  0  0  0  0
  1  2  1  0
  2  3  1  0
  3  4  2  0
  4  5  1  0
  5  6  2  0
  6  7  1  0
  7  8  1  0
  8  9  2  0
  8 10  1  0
 10 11  1  0
 11 12  1  0
 12 13  2  0
 13 14  1  0
 14 15  1  0
 15 16  2  0
 16 17  1  0
 17 18  2  0
 18 19  1  0
 19 20  2  0
 14 21  2  0
 21 22  1  0
 22 23  1  0
 23 24  1  0
 23 25  1  0
 23 26  1  0
 22 27  2  0
 27 28  1  0
 28 29  3  0
  6 30  1  0
 30 31  2  0
 31  3  1  0
 27 12  1  0
 20 15  1  0
  1 32  1  0
  1 33  1  0
  1 34  1  0
  4 35  1  0
  5 36  1  0
  7 37  1  0
 10 38  1  0
 10 39  1  0
 16 40  1  0
 17 41  1  0
 18 42  1  0
 19 43  1  0
 20 44  1  0
 21 45  1  0
 30 46  1  0
 31 47  1  0
M  END
>  <Binding energies>  (1) 
[-8.07]

>  <Ligand effiencies>  (1) 
[-0.2521875]

>  <Interactions>  (1) 
["V-A:ILE:369:CG2:3237, V-A:ILE:369:CD1:3239, V-A:ASP:366:CB:3212, V-B:GLU:543:CD:9880, H-A:ARG:545:NH1:4927, H-A:ARG:545:NH2:4928, H-A:GLY:454:N:4050, V-A:ASP:366:CA:3210, V-A:ASP:366:CG:3213, H-A:TYR:484:OH:4348, V-B:GLU:543:CG:9879, H-A:ARG:545:NE:4924, V-A:GLU:543:CD:4908, V-A:ARG:545:CZ:4926, H-A:GLU:543:OE2:4910, V-A:HIS:456:CE1:4070, V-B:TYR:539:CE2:9848, V-B:GLU:543:C:9874, V-A:TYR:484:CZ:4347, V-B:GLU:543:CB:9878, V-A:GLU:543:CB:4906, V-B:HIS:456:CD2:9039, V-B:HIS:456:CE1:9041, V-B:GLY:544:C:9884, V-B:GLY:544:CA:9886, V-A:GLU:543:CG:4907, V-B:TYR:484:CZ:9318, V-A:TYR:531:CZ:4794, V-A:ARG:545:CD:4923, H-B:TYR:539:OH:9850, V-A:ASP:366:C:3208"]

$$$$
3ad_Grossjean_2025
     RDKit          3D

 43 45  0  0  0  0  0  0  0  0999 V2000
  133.6260  124.0060   64.1410 N   0  0  0  0  0  0  0  0  0  0  0  0
  132.7490  123.8870   63.3950 C   0  0  0  0  0  0  0  0  0  0  0  0
  131.6410  123.7360   62.4470 C   0  0  0  0  0  0  0  0  0  0  0  0
  131.8750  123.7600   61.0500 C   0  0  0  0  0  0  0  0  0  0  0  0
  133.2850  123.8990   60.4450 C   0  0  0  0  0  0  0  0  0  0  0  0
  133.2680  124.0250   59.1160 F   0  0  0  0  0  0  0  0  0  0  0  0
  133.8900  124.9780   60.9440 F   0  0  0  0  0  0  0  0  0  0  0  0
  134.0160  122.8210   60.7330 F   0  0  0  0  0  0  0  0  0  0  0  0
  130.7750  123.6590   60.1850 C   0  0  0  0  0  0  0  0  0  0  0  0
  129.4790  123.5390   60.6990 C   0  0  0  0  0  0  0  0  0  0  0  0
  128.2670  123.4430   59.8200 C   0  0  0  0  0  0  0  0  0  0  0  0
  127.0290  123.9480   60.2480 C   0  0  0  0  0  0  0  0  0  0  0  0
  125.9010  123.8620   59.4370 C   0  0  0  0  0  0  0  0  0  0  0  0
  125.9960  123.2680   58.1820 C   0  0  0  0  0  0  0  0  0  0  0  0
  127.2120  122.7620   57.7340 C   0  0  0  0  0  0  0  0  0  0  0  0
  128.3380  122.8510   58.5480 C   0  0  0  0  0  0  0  0  0  0  0  0
  129.2600  123.5230   62.0380 N   0  0  0  0  0  0  0  0  0  0  0  0
  130.3070  123.5990   62.8930 C   0  0  0  0  0  0  0  0  0  0  0  0
  129.8350  123.5500   64.6070 S   0  0  0  0  0  0  0  0  0  0  0  0
  130.5440  125.0210   65.4050 C   0  0  0  0  0  0  0  0  0  0  0  0
  130.0360  125.2040   66.8360 C   0  0  0  0  0  0  0  0  0  0  0  0
  129.5160  124.2490   67.4130 O   0  0  0  0  0  0  0  0  0  0  0  0
  130.2070  126.4380   67.3590 N   0  0  0  0  0  0  0  0  0  0  0  0
  129.8710  126.9310   68.6330 C   0  0  0  0  0  0  0  0  0  0  0  0
  130.8840  127.6270   69.2990 C   0  0  0  0  0  0  0  0  0  0  0  0
  130.6570  128.1540   70.5680 C   0  0  0  0  0  0  0  0  0  0  0  0
  129.4170  127.9810   71.1760 C   0  0  0  0  0  0  0  0  0  0  0  0
  128.4010  127.2850   70.5260 C   0  0  0  0  0  0  0  0  0  0  0  0
  128.6230  126.7560   69.2570 C   0  0  0  0  0  0  0  0  0  0  0  0
  130.9322  123.6742   59.0964 H   0  0  0  0  0  0  0  0  0  0  0  0
  126.9492  124.4187   61.2390 H   0  0  0  0  0  0  0  0  0  0  0  0
  124.9379  124.2621   59.7868 H   0  0  0  0  0  0  0  0  0  0  0  0
  125.1049  123.1982   57.5409 H   0  0  0  0  0  0  0  0  0  0  0  0
  127.2835  122.2937   56.7412 H   0  0  0  0  0  0  0  0  0  0  0  0
  129.2982  122.4515   58.1895 H   0  0  0  0  0  0  0  0  0  0  0  0
  131.6389  124.9182   65.4283 H   0  0  0  0  0  0  0  0  0  0  0  0
  130.2367  125.9021   64.8225 H   0  0  0  0  0  0  0  0  0  0  0  0
  130.6020  127.1310   66.7400 H   0  0  0  0  0  0  0  0  0  0  0  0
  131.8647  127.7590   68.8187 H   0  0  0  0  0  0  0  0  0  0  0  0
  131.4547  128.7049   71.0878 H   0  0  0  0  0  0  0  0  0  0  0  0
  129.2381  128.3975   72.1783 H   0  0  0  0  0  0  0  0  0  0  0  0
  127.4242  127.1532   71.0143 H   0  0  0  0  0  0  0  0  0  0  0  0
  127.8233  126.2021   68.7435 H   0  0  0  0  0  0  0  0  0  0  0  0
  1  2  3  0
  2  3  1  0
  3  4  2  0
  4  5  1  0
  5  6  1  0
  5  7  1  0
  5  8  1  0
  4  9  1  0
  9 10  2  0
 10 11  1  0
 11 12  2  0
 12 13  1  0
 13 14  2  0
 14 15  1  0
 15 16  2  0
 10 17  1  0
 17 18  2  0
 18 19  1  0
 19 20  1  0
 20 21  1  0
 21 22  2  0
 21 23  1  0
 23 24  1  0
 24 25  2  0
 25 26  1  0
 26 27  2  0
 27 28  1  0
 28 29  2  0
 18  3  1  0
 29 24  1  0
 16 11  1  0
  9 30  1  0
 12 31  1  0
 13 32  1  0
 14 33  1  0
 15 34  1  0
 16 35  1  0
 20 36  1  0
 20 37  1  0
 23 38  1  0
 25 39  1  0
 26 40  1  0
 27 41  1  0
 28 42  1  0
 29 43  1  0
M  END
>  <Binding energies>  (1) 
[-7.78]

>  <Ligand effiencies>  (1) 
[-0.25933333333333336]

>  <Interactions>  (1) 
["V-A:ILE:369:CG2:3237, V-A:ILE:369:CD1:3239, V-A:ASP:366:CB:3212, H-A:GLY:454:N:4050, V-A:ASP:366:CA:3210, V-A:ASP:366:CG:3213, H-A:GLU:543:OE1:4909, H-A:TYR:484:OH:4348, V-B:GLU:543:CG:9879, V-A:ILE:369:CB:3236, V-A:GLU:543:CD:4908, H-A:GLU:543:OE2:4910, V-A:HIS:456:CE1:4070, V-B:TYR:539:C:9839, V-B:PRO:540:CA:9855, V-B:PRO:540:CB:9857, V-B:PRO:540:N:9856, V-B:TYR:539:CZ:9849, V-B:TYR:539:CE2:9848, V-B:TYR:539:CD2:9846, V-B:TYR:539:CG:9844, V-A:TYR:484:CE2:4346, V-A:GLU:543:C:4902, V-B:GLU:543:C:9874, V-B:GLU:543:CB:9878, V-A:GLY:544:C:4912, V-A:GLU:543:CB:4906, V-B:HIS:456:CE1:9041"]

$$$$
3af_Grossjean_2025
     RDKit          3D

 42 44  0  0  0  0  0  0  0  0999 V2000
  133.9790  124.6430   64.1020 N   0  0  0  0  0  0  0  0  0  0  0  0
  133.0440  124.4480   63.4480 C   0  0  0  0  0  0  0  0  0  0  0  0
  131.8610  124.1990   62.6200 C   0  0  0  0  0  0  0  0  0  0  0  0
  131.9480  123.3880   61.4620 C   0  0  0  0  0  0  0  0  0  0  0  0
  133.2520  122.6880   61.0320 C   0  0  0  0  0  0  0  0  0  0  0  0
  133.8270  122.0080   62.0270 F   0  0  0  0  0  0  0  0  0  0  0  0
  133.0010  121.8240   60.0470 F   0  0  0  0  0  0  0  0  0  0  0  0
  134.1370  123.5890   60.6030 F   0  0  0  0  0  0  0  0  0  0  0  0
  130.8010  123.2240   60.6700 C   0  0  0  0  0  0  0  0  0  0  0  0
  129.6030  123.8530   61.0230 C   0  0  0  0  0  0  0  0  0  0  0  0
  128.3530  123.7270   60.2040 C   0  0  0  0  0  0  0  0  0  0  0  0
  127.1060  124.0920   60.7360 C   0  0  0  0  0  0  0  0  0  0  0  0
  125.9430  123.9800   59.9790 C   0  0  0  0  0  0  0  0  0  0  0  0
  126.0120  123.5000   58.6760 C   0  0  0  0  0  0  0  0  0  0  0  0
  127.2350  123.1340   58.1230 C   0  0  0  0  0  0  0  0  0  0  0  0
  128.3960  123.2490   58.8830 C   0  0  0  0  0  0  0  0  0  0  0  0
  129.5250  124.6320   62.1320 N   0  0  0  0  0  0  0  0  0  0  0  0
  130.6130  124.7870   62.9250 C   0  0  0  0  0  0  0  0  0  0  0  0
  130.3130  125.8300   64.3380 S   0  0  0  0  0  0  0  0  0  0  0  0
  131.1920  125.1160   65.7600 C   0  0  0  0  0  0  0  0  0  0  0  0
  130.3990  125.2730   67.0570 C   0  0  0  0  0  0  0  0  0  0  0  0
  129.7650  124.3120   67.4910 O   0  0  0  0  0  0  0  0  0  0  0  0
  130.4590  126.4960   67.6270 N   0  0  0  0  0  0  0  0  0  0  0  0
  129.8470  126.9690   68.8030 C   0  0  0  0  0  0  0  0  0  0  0  0
  128.5260  126.7010   69.2070 C   0  0  0  0  0  0  0  0  0  0  0  0
  128.0450  127.2400   70.4020 C   0  0  0  0  0  0  0  0  0  0  0  0
  128.8990  128.0360   71.1670 C   0  0  0  0  0  0  0  0  0  0  0  0
  130.1750  128.3100   70.8010 N   0  0  0  0  0  0  0  0  0  0  0  0
  130.6270  127.7780   69.6370 C   0  0  0  0  0  0  0  0  0  0  0  0
  130.8446  122.5974   59.7669 H   0  0  0  0  0  0  0  0  0  0  0  0
  127.0470  124.4722   61.7665 H   0  0  0  0  0  0  0  0  0  0  0  0
  124.9734  124.2701   60.4100 H   0  0  0  0  0  0  0  0  0  0  0  0
  125.0932  123.4090   58.0781 H   0  0  0  0  0  0  0  0  0  0  0  0
  127.2845  122.7559   57.0912 H   0  0  0  0  0  0  0  0  0  0  0  0
  129.3620  122.9612   58.4426 H   0  0  0  0  0  0  0  0  0  0  0  0
  131.3599  124.0451   65.5732 H   0  0  0  0  0  0  0  0  0  0  0  0
  132.1453  125.6524   65.8760 H   0  0  0  0  0  0  0  0  0  0  0  0
  131.0300  127.1800   67.1530 H   0  0  0  0  0  0  0  0  0  0  0  0
  127.8751  126.0697   68.5842 H   0  0  0  0  0  0  0  0  0  0  0  0
  127.0151  127.0415   70.7334 H   0  0  0  0  0  0  0  0  0  0  0  0
  128.5197  128.4597   72.1086 H   0  0  0  0  0  0  0  0  0  0  0  0
  131.6618  127.9943   69.3329 H   0  0  0  0  0  0  0  0  0  0  0  0
  1  2  3  0
  2  3  1  0
  3  4  2  0
  4  5  1  0
  5  6  1  0
  5  7  1  0
  5  8  1  0
  4  9  1  0
  9 10  2  0
 10 11  1  0
 11 12  2  0
 12 13  1  0
 13 14  2  0
 14 15  1  0
 15 16  2  0
 10 17  1  0
 17 18  2  0
 18 19  1  0
 19 20  1  0
 20 21  1  0
 21 22  2  0
 21 23  1  0
 23 24  1  0
 24 25  2  0
 25 26  1  0
 26 27  2  0
 27 28  1  0
 28 29  2  0
 18  3  1  0
 29 24  1  0
 16 11  1  0
  9 30  1  0
 12 31  1  0
 13 32  1  0
 14 33  1  0
 15 34  1  0
 16 35  1  0
 20 36  1  0
 20 37  1  0
 23 38  1  0
 25 39  1  0
 26 40  1  0
 27 41  1  0
 29 42  1  0
M  END
>  <Binding energies>  (1) 
[-7.4]

>  <Ligand effiencies>  (1) 
[-0.24666666666666667]

>  <Interactions>  (1) 
["V-A:ILE:369:CG2:3237, V-A:ILE:369:CD1:3239, H-A:ARG:545:NH1:4927, H-A:ARG:545:NH2:4928, H-A:GLY:454:N:4050, H-A:TYR:484:OH:4348, H-A:ARG:545:NE:4924, V-A:ILE:369:CB:3236, V-A:GLU:543:CD:4908, V-A:ARG:545:CZ:4926, H-A:GLU:543:OE2:4910, V-A:LEU:475:CD2:4259, V-A:HIS:456:CE1:4070, V-A:GLY:454:CA:4049, V-B:PRO:540:CA:9855, V-B:PRO:540:CB:9857, V-B:PRO:540:N:9856, V-B:TYR:539:CZ:9849, V-B:TYR:539:CE2:9848, V-B:TYR:539:CD2:9846, V-A:TYR:484:CE2:4346, V-A:GLU:543:C:4902, V-B:GLU:543:C:9874, V-A:TYR:484:CZ:4347, V-B:GLU:543:CB:9878, V-A:GLU:543:CB:4906, V-B:HIS:456:CD2:9039, V-B:HIS:456:CE1:9041"]

$$$$
3ag_Grossjean_2025
     RDKit          3D

 46 48  0  0  0  0  0  0  0  0999 V2000
  129.2500  126.7890   63.3170 N   0  0  0  0  0  0  0  0  0  0  0  0
  129.1800  126.9150   64.4660 C   0  0  0  0  0  0  0  0  0  0  0  0
  129.0900  127.0780   65.9200 C   0  0  0  0  0  0  0  0  0  0  0  0
  128.3600  128.1520   66.4840 C   0  0  0  0  0  0  0  0  0  0  0  0
  127.5780  129.1670   65.6280 C   0  0  0  0  0  0  0  0  0  0  0  0
  126.2730  129.1820   65.9060 F   0  0  0  0  0  0  0  0  0  0  0  0
  128.0480  130.3970   65.8390 F   0  0  0  0  0  0  0  0  0  0  0  0
  127.7060  128.8720   64.3330 F   0  0  0  0  0  0  0  0  0  0  0  0
  128.3480  128.2960   67.8800 C   0  0  0  0  0  0  0  0  0  0  0  0
  129.0550  127.4000   68.6890 C   0  0  0  0  0  0  0  0  0  0  0  0
  129.0790  127.5070   70.1830 C   0  0  0  0  0  0  0  0  0  0  0  0
  127.9600  127.1390   70.9470 C   0  0  0  0  0  0  0  0  0  0  0  0
  127.9760  127.2360   72.3350 C   0  0  0  0  0  0  0  0  0  0  0  0
  129.1150  127.7050   72.9820 C   0  0  0  0  0  0  0  0  0  0  0  0
  130.2370  128.0790   72.2480 C   0  0  0  0  0  0  0  0  0  0  0  0
  130.2170  127.9820   70.8600 C   0  0  0  0  0  0  0  0  0  0  0  0
  129.7440  126.3630   68.1450 N   0  0  0  0  0  0  0  0  0  0  0  0
  129.7530  126.1940   66.8000 C   0  0  0  0  0  0  0  0  0  0  0  0
  130.7020  124.7860   66.2680 S   0  0  0  0  0  0  0  0  0  0  0  0
  132.4050  125.3560   65.9870 C   0  0  0  0  0  0  0  0  0  0  0  0
  132.8670  125.1110   64.5490 C   0  0  0  0  0  0  0  0  0  0  0  0
  133.9980  124.6700   64.3340 O   0  0  0  0  0  0  0  0  0  0  0  0
  131.9790  125.3940   63.5800 N   0  0  0  0  0  0  0  0  0  0  0  0
  132.1970  125.2020   62.1470 C   0  0  0  0  0  0  0  0  0  0  0  0
  132.4550  123.7540   61.7450 C   0  0  0  0  0  0  0  0  0  0  0  0
  133.7630  123.2650   61.7120 C   0  0  0  0  0  0  0  0  0  0  0  0
  134.0000  121.9350   61.3750 C   0  0  0  0  0  0  0  0  0  0  0  0
  132.9270  121.0960   61.0800 C   0  0  0  0  0  0  0  0  0  0  0  0
  131.6190  121.5740   61.1260 C   0  0  0  0  0  0  0  0  0  0  0  0
  131.3810  122.9030   61.4640 C   0  0  0  0  0  0  0  0  0  0  0  0
  127.7797  129.1176   68.3404 H   0  0  0  0  0  0  0  0  0  0  0  0
  127.0567  126.7683   70.4405 H   0  0  0  0  0  0  0  0  0  0  0  0
  127.0910  126.9428   72.9188 H   0  0  0  0  0  0  0  0  0  0  0  0
  129.1289  127.7806   74.0793 H   0  0  0  0  0  0  0  0  0  0  0  0
  131.1356  128.4496   72.7629 H   0  0  0  0  0  0  0  0  0  0  0  0
  131.1046  128.2813   70.2833 H   0  0  0  0  0  0  0  0  0  0  0  0
  132.4566  126.4346   66.1967 H   0  0  0  0  0  0  0  0  0  0  0  0
  133.0665  124.7858   66.6558 H   0  0  0  0  0  0  0  0  0  0  0  0
  131.0700  125.7430   63.8480 H   0  0  0  0  0  0  0  0  0  0  0  0
  131.3036  125.5553   61.6113 H   0  0  0  0  0  0  0  0  0  0  0  0
  133.1018  125.7700   61.8849 H   0  0  0  0  0  0  0  0  0  0  0  0
  134.6054  123.9303   61.9521 H   0  0  0  0  0  0  0  0  0  0  0  0
  135.0293  121.5483   61.3418 H   0  0  0  0  0  0  0  0  0  0  0  0
  133.1144  120.0467   60.8083 H   0  0  0  0  0  0  0  0  0  0  0  0
  130.7778  120.9036   60.8961 H   0  0  0  0  0  0  0  0  0  0  0  0
  130.3499  123.2835   61.5101 H   0  0  0  0  0  0  0  0  0  0  0  0
  1  2  3  0
  2  3  1  0
  3  4  2  0
  4  5  1  0
  5  6  1  0
  5  7  1  0
  5  8  1  0
  4  9  1  0
  9 10  2  0
 10 11  1  0
 11 12  2  0
 12 13  1  0
 13 14  2  0
 14 15  1  0
 15 16  2  0
 10 17  1  0
 17 18  2  0
 18 19  1  0
 19 20  1  0
 20 21  1  0
 21 22  2  0
 21 23  1  0
 23 24  1  0
 24 25  1  0
 25 26  2  0
 26 27  1  0
 27 28  2  0
 28 29  1  0
 29 30  2  0
 18  3  1  0
 30 25  1  0
 16 11  1  0
  9 31  1  0
 12 32  1  0
 13 33  1  0
 14 34  1  0
 15 35  1  0
 16 36  1  0
 20 37  1  0
 20 38  1  0
 23 39  1  0
 24 40  1  0
 24 41  1  0
 26 42  1  0
 27 43  1  0
 28 44  1  0
 29 45  1  0
 30 46  1  0
M  END
>  <Binding energies>  (1) 
[-7.91]

>  <Ligand effiencies>  (1) 
[-0.25516129032258067]

>  <Interactions>  (1) 
["V-A:ILE:369:CG2:3237, V-A:ILE:369:CD1:3239, V-B:GLU:543:CD:9880, H-A:ARG:545:NH1:4927, H-A:ARG:545:NH2:4928, H-A:GLY:454:N:4050, H-A:GLU:543:OE1:4909, H-A:TYR:484:OH:4348, V-B:GLU:543:CG:9879, H-A:ARG:545:NE:4924, V-A:GLU:543:CD:4908, V-A:ARG:545:CZ:4926, H-A:GLU:543:OE2:4910, V-A:LEU:475:CD2:4259, V-A:HIS:456:CE1:4070, V-B:TYR:539:CE2:9848, V-B:TYR:539:CD2:9846, V-A:GLU:543:C:4902, V-A:TYR:484:CZ:4347, V-B:GLU:543:CB:9878, V-A:GLY:544:C:4912, V-A:SER:385:CB:3409, V-A:GLU:543:CB:4906, V-B:HIS:456:CD2:9039, V-B:HIS:456:CE1:9041, V-A:GLU:543:CG:4907, V-B:TYR:484:CE2:9317, V-B:TYR:484:CZ:9318"]

$$$$
3ai_Grossjean_2025
     RDKit          3D

 39 41  0  0  0  0  0  0  0  0999 V2000
  129.2810  126.8120   63.1910 N   0  0  0  0  0  0  0  0  0  0  0  0
  129.2060  126.9150   64.3410 C   0  0  0  0  0  0  0  0  0  0  0  0
  129.1090  127.0470   65.7980 C   0  0  0  0  0  0  0  0  0  0  0  0
  128.3690  128.1040   66.3820 C   0  0  0  0  0  0  0  0  0  0  0  0
  127.5940  129.1390   65.5440 C   0  0  0  0  0  0  0  0  0  0  0  0
  127.3790  128.7330   64.2900 F   0  0  0  0  0  0  0  0  0  0  0  0
  126.4050  129.3750   66.1000 F   0  0  0  0  0  0  0  0  0  0  0  0
  128.2770  130.2820   65.4800 F   0  0  0  0  0  0  0  0  0  0  0  0
  128.3470  128.2140   67.7810 C   0  0  0  0  0  0  0  0  0  0  0  0
  129.0450  127.2980   68.5740 C   0  0  0  0  0  0  0  0  0  0  0  0
  129.0650  127.3740   70.0710 C   0  0  0  0  0  0  0  0  0  0  0  0
  130.1650  127.9290   70.7450 C   0  0  0  0  0  0  0  0  0  0  0  0
  130.1880  128.0070   72.1350 C   0  0  0  0  0  0  0  0  0  0  0  0
  129.1080  127.5320   72.8710 C   0  0  0  0  0  0  0  0  0  0  0  0
  128.0060  126.9800   72.2270 C   0  0  0  0  0  0  0  0  0  0  0  0
  127.9850  126.9040   70.8380 C   0  0  0  0  0  0  0  0  0  0  0  0
  129.7600  126.2910   68.0090 N   0  0  0  0  0  0  0  0  0  0  0  0
  129.7770  126.1490   66.6620 C   0  0  0  0  0  0  0  0  0  0  0  0
  130.7460  124.7630   66.1070 S   0  0  0  0  0  0  0  0  0  0  0  0
  132.4250  125.3690   65.7270 C   0  0  0  0  0  0  0  0  0  0  0  0
  132.9170  125.0680   64.3040 C   0  0  0  0  0  0  0  0  0  0  0  0
  133.9950  124.5000   64.1160 O   0  0  0  0  0  0  0  0  0  0  0  0
  132.0820  125.4750   63.3210 N   0  0  0  0  0  0  0  0  0  0  0  0
  132.2630  125.3320   61.9510 C   0  0  0  0  0  0  0  0  0  0  0  0
  131.7330  126.2190   61.0150 C   0  0  0  0  0  0  0  0  0  0  0  0
  132.1300  125.7300   59.7920 C   0  0  0  0  0  0  0  0  0  0  0  0
  132.8620  124.6060   59.9810 O   0  0  0  0  0  0  0  0  0  0  0  0
  132.9400  124.3640   61.3540 N   0  0  0  0  0  0  0  0  0  0  0  0
  127.7771  129.0258   68.2566 H   0  0  0  0  0  0  0  0  0  0  0  0
  131.0206  128.3075   70.1665 H   0  0  0  0  0  0  0  0  0  0  0  0
  131.0574  128.4428   72.6491 H   0  0  0  0  0  0  0  0  0  0  0  0
  129.1255  127.5933   73.9692 H   0  0  0  0  0  0  0  0  0  0  0  0
  127.1543  126.6049   72.8135 H   0  0  0  0  0  0  0  0  0  0  0  0
  127.1100  126.4695   70.3324 H   0  0  0  0  0  0  0  0  0  0  0  0
  132.4339  126.4600   65.8675 H   0  0  0  0  0  0  0  0  0  0  0  0
  133.1056  124.8354   66.4068 H   0  0  0  0  0  0  0  0  0  0  0  0
  131.2260  125.9320   63.5990 H   0  0  0  0  0  0  0  0  0  0  0  0
  131.1279  127.1163   61.2119 H   0  0  0  0  0  0  0  0  0  0  0  0
  131.8913  126.1797   58.8169 H   0  0  0  0  0  0  0  0  0  0  0  0
  1  2  3  0
  2  3  1  0
  3  4  2  0
  4  5  1  0
  5  6  1  0
  5  7  1  0
  5  8  1  0
  4  9  1  0
  9 10  2  0
 10 11  1  0
 11 12  2  0
 12 13  1  0
 13 14  2  0
 14 15  1  0
 15 16  2  0
 10 17  1  0
 17 18  2  0
 18 19  1  0
 19 20  1  0
 20 21  1  0
 21 22  2  0
 21 23  1  0
 23 24  1  0
 24 25  1  0
 25 26  2  0
 26 27  1  0
 27 28  1  0
 18  3  1  0
 28 24  2  0
 16 11  1  0
  9 29  1  0
 12 30  1  0
 13 31  1  0
 14 32  1  0
 15 33  1  0
 16 34  1  0
 20 35  1  0
 20 36  1  0
 23 37  1  0
 25 38  1  0
 26 39  1  0
M  END
>  <Binding energies>  (1) 
[-6.95]

>  <Ligand effiencies>  (1) 
[-0.2396551724137931]

>  <Interactions>  (1) 
["V-A:ASP:366:CB:3212, V-B:GLU:543:CD:9880, H-A:ARG:545:NH2:4928, H-A:GLY:454:N:4050, V-A:ASP:366:CG:3213, H-A:GLU:543:OE1:4909, H-A:TYR:484:OH:4348, V-B:GLU:543:CG:9879, V-A:GLU:543:CD:4908, V-A:ARG:545:CZ:4926, H-A:GLU:543:OE2:4910, V-A:HIS:456:CE1:4070, V-A:GLU:543:C:4902, V-B:GLU:543:C:9874, V-B:GLU:543:CB:9878, V-A:GLY:544:C:4912, V-A:GLU:543:CB:4906, V-B:HIS:456:CE1:9041, V-B:GLY:544:C:9884, V-A:GLU:543:CG:4907, V-B:TYR:484:CE2:9317, V-B:TYR:484:CZ:9318"]

$$$$
3aj_Grossjean_2025
     RDKit          3D

 39 41  0  0  0  0  0  0  0  0999 V2000
  129.4760  126.6060   62.4300 N   0  0  0  0  0  0  0  0  0  0  0  0
  129.3290  126.7380   63.5700 C   0  0  0  0  0  0  0  0  0  0  0  0
  129.1390  126.9070   65.0130 C   0  0  0  0  0  0  0  0  0  0  0  0
  128.3750  127.9860   65.5220 C   0  0  0  0  0  0  0  0  0  0  0  0
  127.6690  129.0080   64.6100 C   0  0  0  0  0  0  0  0  0  0  0  0
  128.5230  129.8370   64.0040 F   0  0  0  0  0  0  0  0  0  0  0  0
  126.9820  128.3730   63.6600 F   0  0  0  0  0  0  0  0  0  0  0  0
  126.8280  129.7550   65.3260 F   0  0  0  0  0  0  0  0  0  0  0  0
  128.2630  128.1310   66.9130 C   0  0  0  0  0  0  0  0  0  0  0  0
  128.8990  127.2280   67.7720 C   0  0  0  0  0  0  0  0  0  0  0  0
  128.8210  127.3420   69.2640 C   0  0  0  0  0  0  0  0  0  0  0  0
  129.8760  127.9090   69.9950 C   0  0  0  0  0  0  0  0  0  0  0  0
  129.8080  128.0230   71.3820 C   0  0  0  0  0  0  0  0  0  0  0  0
  128.6800  127.5670   72.0570 C   0  0  0  0  0  0  0  0  0  0  0  0
  127.6200  127.0020   71.3540 C   0  0  0  0  0  0  0  0  0  0  0  0
  127.6920  126.8930   69.9690 C   0  0  0  0  0  0  0  0  0  0  0  0
  129.6370  126.2000   67.2800 N   0  0  0  0  0  0  0  0  0  0  0  0
  129.7400  126.0250   65.9410 C   0  0  0  0  0  0  0  0  0  0  0  0
  130.7250  124.6160   65.4830 S   0  0  0  0  0  0  0  0  0  0  0  0
  132.4490  125.1800   65.2810 C   0  0  0  0  0  0  0  0  0  0  0  0
  133.0390  124.9780   63.8780 C   0  0  0  0  0  0  0  0  0  0  0  0
  134.2200  124.6520   63.7310 O   0  0  0  0  0  0  0  0  0  0  0  0
  132.1690  125.1830   62.8650 N   0  0  0  0  0  0  0  0  0  0  0  0
  132.4330  125.0630   61.5070 C   0  0  0  0  0  0  0  0  0  0  0  0
  131.9370  125.7790   60.5210 N   0  0  0  0  0  0  0  0  0  0  0  0
  132.4130  125.3940   59.3530 C   0  0  0  0  0  0  0  0  0  0  0  0
  133.3200  124.3370   59.3770 C   0  0  0  0  0  0  0  0  0  0  0  0
  133.5530  123.8300   61.0230 S   0  0  0  0  0  0  0  0  0  0  0  0
  127.6718  128.9593   67.3306 H   0  0  0  0  0  0  0  0  0  0  0  0
  130.7702  128.2689   69.4651 H   0  0  0  0  0  0  0  0  0  0  0  0
  130.6425  128.4716   71.9409 H   0  0  0  0  0  0  0  0  0  0  0  0
  128.6257  127.6535   73.1522 H   0  0  0  0  0  0  0  0  0  0  0  0
  126.7295  126.6433   71.8910 H   0  0  0  0  0  0  0  0  0  0  0  0
  126.8511  126.4479   69.4169 H   0  0  0  0  0  0  0  0  0  0  0  0
  132.4860  126.2542   65.5150 H   0  0  0  0  0  0  0  0  0  0  0  0
  133.0553  124.5631   65.9606 H   0  0  0  0  0  0  0  0  0  0  0  0
  131.2240  125.4420   63.1080 H   0  0  0  0  0  0  0  0  0  0  0  0
  132.1111  125.8798   58.4134 H   0  0  0  0  0  0  0  0  0  0  0  0
  133.8095  123.8948   58.4967 H   0  0  0  0  0  0  0  0  0  0  0  0
  1  2  3  0
  2  3  1  0
  3  4  2  0
  4  5  1  0
  5  6  1  0
  5  7  1  0
  5  8  1  0
  4  9  1  0
  9 10  2  0
 10 11  1  0
 11 12  2  0
 12 13  1  0
 13 14  2  0
 14 15  1  0
 15 16  2  0
 10 17  1  0
 17 18  2  0
 18 19  1  0
 19 20  1  0
 20 21  1  0
 21 22  2  0
 21 23  1  0
 23 24  1  0
 24 25  2  0
 25 26  1  0
 26 27  2  0
 27 28  1  0
 18  3  1  0
 28 24  1  0
 16 11  1  0
  9 29  1  0
 12 30  1  0
 13 31  1  0
 14 32  1  0
 15 33  1  0
 16 34  1  0
 20 35  1  0
 20 36  1  0
 23 37  1  0
 26 38  1  0
 27 39  1  0
M  END
>  <Binding energies>  (1) 
[-6.88]

>  <Ligand effiencies>  (1) 
[-0.23724137931034484]

>  <Interactions>  (1) 
["V-A:ILE:369:CG2:3237, V-A:ILE:369:CD1:3239, V-A:ASP:366:CB:3212, V-B:GLU:543:CD:9880, H-A:ARG:545:NH1:4927, H-A:ARG:545:NH2:4928, H-A:GLY:454:N:4050, V-A:ASP:366:CA:3210, V-A:ASP:366:CG:3213, H-A:TYR:484:OH:4348, V-B:GLU:543:CG:9879, V-A:GLU:543:CD:4908, V-A:ARG:545:CZ:4926, V-A:HIS:456:CE1:4070, V-B:TYR:539:CE2:9848, V-A:GLU:543:C:4902, V-B:GLU:543:C:9874, V-B:GLU:543:CB:9878, V-A:GLU:543:CB:4906, V-B:HIS:456:CD2:9039, V-B:HIS:456:CE1:9041, V-B:GLY:544:C:9884, V-A:GLU:543:CG:4907, V-B:TYR:484:CZ:9318"]

$$$$
3ak_Grossjean_2025
     RDKit          3D

 57 58  0  0  0  0  0  0  0  0999 V2000
  125.4080  122.7550   56.6780 C   0  0  0  0  0  0  0  0  0  0  0  0
  126.6160  122.0120   56.6360 O   0  0  0  0  0  0  0  0  0  0  0  0
  127.7460  122.7460   57.0840 C   0  0  0  0  0  0  0  0  0  0  0  0
  127.5720  123.0720   58.5730 C   0  0  0  0  0  0  0  0  0  0  0  0
  128.6300  122.4660   59.3070 O   0  0  0  0  0  0  0  0  0  0  0  0
  128.8440  122.9820   60.6180 C   0  0  0  0  0  0  0  0  0  0  0  0
  130.0930  123.8740   60.7370 C   0  0  0  0  0  0  0  0  0  0  0  0
  131.2430  123.0510   60.8740 O   0  0  0  0  0  0  0  0  0  0  0  0
  132.4370  123.7700   61.1530 C   0  0  0  0  0  0  0  0  0  0  0  0
  132.1030  125.2220   61.5440 C   0  0  0  0  0  0  0  0  0  0  0  0
  131.8860  125.4070   62.9800 N   0  0  0  0  0  0  0  0  0  0  0  0
  132.7100  124.9960   63.9630 C   0  0  0  0  0  0  0  0  0  0  0  0
  133.7750  124.4170   63.7420 O   0  0  0  0  0  0  0  0  0  0  0  0
  132.3080  125.2570   65.4240 C   0  0  0  0  0  0  0  0  0  0  0  0
  130.6270  124.7250   65.9180 S   0  0  0  0  0  0  0  0  0  0  0  0
  129.7350  126.1440   66.5360 C   0  0  0  0  0  0  0  0  0  0  0  0
  129.7180  126.2830   67.8840 N   0  0  0  0  0  0  0  0  0  0  0  0
  129.0600  127.3270   68.4500 C   0  0  0  0  0  0  0  0  0  0  0  0
  129.0930  127.4040   69.9470 C   0  0  0  0  0  0  0  0  0  0  0  0
  130.2130  127.9230   70.6150 C   0  0  0  0  0  0  0  0  0  0  0  0
  130.2480  128.0010   72.0050 C   0  0  0  0  0  0  0  0  0  0  0  0
  129.1580  127.5600   72.7480 C   0  0  0  0  0  0  0  0  0  0  0  0
  128.0350  127.0440   72.1120 C   0  0  0  0  0  0  0  0  0  0  0  0
  128.0030  126.9690   70.7220 C   0  0  0  0  0  0  0  0  0  0  0  0
  128.4080  128.2780   67.6580 C   0  0  0  0  0  0  0  0  0  0  0  0
  128.4120  128.1580   66.2600 C   0  0  0  0  0  0  0  0  0  0  0  0
  127.6810  129.2250   65.4210 C   0  0  0  0  0  0  0  0  0  0  0  0
  126.4780  129.4690   65.9400 F   0  0  0  0  0  0  0  0  0  0  0  0
  128.3850  130.3580   65.4080 F   0  0  0  0  0  0  0  0  0  0  0  0
  127.5020  128.8510   64.1520 F   0  0  0  0  0  0  0  0  0  0  0  0
  129.0920  127.0620   65.6770 C   0  0  0  0  0  0  0  0  0  0  0  0
  129.1290  126.8860   64.2220 C   0  0  0  0  0  0  0  0  0  0  0  0
  129.1580  126.7450   63.0730 N   0  0  0  0  0  0  0  0  0  0  0  0
  125.1220  122.9309   57.7255 H   0  0  0  0  0  0  0  0  0  0  0  0
  125.5533  123.7201   56.1705 H   0  0  0  0  0  0  0  0  0  0  0  0
  124.6122  122.1900   56.1705 H   0  0  0  0  0  0  0  0  0  0  0  0
  128.6562  122.1448   56.9421 H   0  0  0  0  0  0  0  0  0  0  0  0
  127.8356  123.6786   56.5075 H   0  0  0  0  0  0  0  0  0  0  0  0
  127.6001  124.1621   58.7175 H   0  0  0  0  0  0  0  0  0  0  0  0
  126.6050  122.6855   58.9274 H   0  0  0  0  0  0  0  0  0  0  0  0
  127.9642  123.5767   60.9048 H   0  0  0  0  0  0  0  0  0  0  0  0
  129.0019  122.1185   61.2809 H   0  0  0  0  0  0  0  0  0  0  0  0
  130.1898  124.4941   59.8336 H   0  0  0  0  0  0  0  0  0  0  0  0
  129.9986  124.5269   61.6172 H   0  0  0  0  0  0  0  0  0  0  0  0
  132.9690  123.2830   61.9835 H   0  0  0  0  0  0  0  0  0  0  0  0
  133.0710  123.7765   60.2541 H   0  0  0  0  0  0  0  0  0  0  0  0
  132.9379  125.8669   61.2325 H   0  0  0  0  0  0  0  0  0  0  0  0
  131.1614  125.4837   61.0391 H   0  0  0  0  0  0  0  0  0  0  0  0
  131.0400  125.8930   63.2410 H   0  0  0  0  0  0  0  0  0  0  0  0
  133.0277  124.7299   66.0676 H   0  0  0  0  0  0  0  0  0  0  0  0
  132.3107  126.3514   65.5350 H   0  0  0  0  0  0  0  0  0  0  0  0
  131.0769  128.2737   70.0313 H   0  0  0  0  0  0  0  0  0  0  0  0
  131.1339  128.4096   72.5132 H   0  0  0  0  0  0  0  0  0  0  0  0
  129.1849  127.6200   73.8460 H   0  0  0  0  0  0  0  0  0  0  0  0
  127.1755  126.6965   72.7040 H   0  0  0  0  0  0  0  0  0  0  0  0
  127.1111  126.5631   70.2222 H   0  0  0  0  0  0  0  0  0  0  0  0
  127.8897  129.1238   68.1334 H   0  0  0  0  0  0  0  0  0  0  0  0
  1  2  1  0
  2  3  1  0
  3  4  1  0
  4  5  1  0
  5  6  1  0
  6  7  1  0
  7  8  1  0
  8  9  1  0
  9 10  1  0
 10 11  1  0
 11 12  1  0
 12 13  2  0
 12 14  1  0
 14 15  1  0
 15 16  1  0
 16 17  2  0
 17 18  1  0
 18 19  1  0
 19 20  2  0
 20 21  1  0
 21 22  2  0
 22 23  1  0
 23 24  2  0
 18 25  2  0
 25 26  1  0
 26 27  1  0
 27 28  1  0
 27 29  1  0
 27 30  1  0
 26 31  2  0
 31 32  1  0
 32 33  3  0
 31 16  1  0
 24 19  1  0
  1 34  1  0
  1 35  1  0
  1 36  1  0
  3 37  1  0
  3 38  1  0
  4 39  1  0
  4 40  1  0
  6 41  1  0
  6 42  1  0
  7 43  1  0
  7 44  1  0
  9 45  1  0
  9 46  1  0
 10 47  1  0
 10 48  1  0
 11 49  1  0
 14 50  1  0
 14 51  1  0
 20 52  1  0
 21 53  1  0
 22 54  1  0
 23 55  1  0
 24 56  1  0
 25 57  1  0
M  END
>  <Binding energies>  (1) 
[-7.03]

>  <Ligand effiencies>  (1) 
[-0.20676470588235296]

>  <Interactions>  (1) 
["V-B:GLU:543:CD:9880, H-A:ARG:545:NH2:4928, H-A:GLY:454:N:4050, V-A:ASP:366:CG:3213, H-A:GLU:543:OE1:4909, H-A:TYR:484:OH:4348, V-B:GLU:543:CG:9879, V-A:GLU:543:CD:4908, V-A:ARG:545:CZ:4926, H-A:GLU:543:OE2:4910, V-A:HIS:456:CE1:4070, V-B:TYR:539:C:9839, V-B:PRO:540:CD:9859, V-B:PRO:540:CA:9855, V-B:PRO:540:CB:9857, V-B:PRO:540:N:9856, V-B:LEU:363:CD1:8160, V-B:MET:535:CE:9807, V-B:TYR:539:CZ:9849, V-B:TYR:539:CE2:9848, V-B:TYR:539:CD1:9845, H-B:TYR:539:N:9842, V-B:TYR:539:CE1:9847, V-B:TYR:539:CD2:9846, V-B:TYR:539:CG:9844, V-A:GLU:543:C:4902, V-B:GLU:543:C:9874, V-B:GLU:543:CB:9878, V-A:GLY:544:C:4912, V-A:GLU:543:CB:4906, V-B:HIS:456:CD2:9039, V-B:HIS:456:CE1:9041, V-A:GLU:543:CG:4907, V-B:TYR:484:CE2:9317, V-B:TYR:484:CZ:9318"]

$$$$
3bc_Grossjean_2025
     RDKit          3D

 47 49  0  0  0  0  0  0  0  0999 V2000
  128.6890  129.0170   73.8240 C   0  0  0  0  0  0  0  0  0  0  0  0
  129.9000  128.7030   73.1460 O   0  0  0  0  0  0  0  0  0  0  0  0
  129.8430  128.2390   71.8450 C   0  0  0  0  0  0  0  0  0  0  0  0
  131.0040  128.3760   71.0840 C   0  0  0  0  0  0  0  0  0  0  0  0
  131.0420  127.9380   69.7630 C   0  0  0  0  0  0  0  0  0  0  0  0
  129.9120  127.3640   69.1800 C   0  0  0  0  0  0  0  0  0  0  0  0
  130.0490  126.9410   67.8450 N   0  0  0  0  0  0  0  0  0  0  0  0
  129.8850  125.7080   67.3200 C   0  0  0  0  0  0  0  0  0  0  0  0
  129.5340  124.7140   67.9600 O   0  0  0  0  0  0  0  0  0  0  0  0
  130.1330  125.6150   65.8080 C   0  0  0  0  0  0  0  0  0  0  0  0
  130.2020  123.9200   65.1350 S   0  0  0  0  0  0  0  0  0  0  0  0
  130.5980  124.0380   63.4050 C   0  0  0  0  0  0  0  0  0  0  0  0
  129.5220  123.9120   62.5890 N   0  0  0  0  0  0  0  0  0  0  0  0
  129.6820  123.9850   61.2420 C   0  0  0  0  0  0  0  0  0  0  0  0
  128.4460  123.8160   60.4100 C   0  0  0  0  0  0  0  0  0  0  0  0
  127.1790  124.0970   60.9430 C   0  0  0  0  0  0  0  0  0  0  0  0
  126.0270  123.9420   60.1770 C   0  0  0  0  0  0  0  0  0  0  0  0
  126.1280  123.5000   58.8620 C   0  0  0  0  0  0  0  0  0  0  0  0
  127.3710  123.2110   58.3100 C   0  0  0  0  0  0  0  0  0  0  0  0
  128.5210  123.3670   59.0810 C   0  0  0  0  0  0  0  0  0  0  0  0
  130.9460  124.1870   60.6780 C   0  0  0  0  0  0  0  0  0  0  0  0
  132.0630  124.3420   61.5070 C   0  0  0  0  0  0  0  0  0  0  0  0
  133.4220  124.5780   60.8480 C   0  0  0  0  0  0  0  0  0  0  0  0
  131.8990  124.2780   62.9080 C   0  0  0  0  0  0  0  0  0  0  0  0
  133.0460  124.4850   63.7940 C   0  0  0  0  0  0  0  0  0  0  0  0
  133.9540  124.6490   64.4930 N   0  0  0  0  0  0  0  0  0  0  0  0
  128.7440  127.2110   69.9410 C   0  0  0  0  0  0  0  0  0  0  0  0
  128.7100  127.6490   71.2630 C   0  0  0  0  0  0  0  0  0  0  0  0
  128.8553  128.9739   74.9105 H   0  0  0  0  0  0  0  0  0  0  0  0
  128.3632  130.0293   73.5428 H   0  0  0  0  0  0  0  0  0  0  0  0
  127.9124  128.2905   73.5428 H   0  0  0  0  0  0  0  0  0  0  0  0
  131.8980  128.8345   71.5319 H   0  0  0  0  0  0  0  0  0  0  0  0
  131.9666  128.0449   69.1767 H   0  0  0  0  0  0  0  0  0  0  0  0
  130.2410  127.6850   67.1890 H   0  0  0  0  0  0  0  0  0  0  0  0
  129.3205  126.1516   65.2962 H   0  0  0  0  0  0  0  0  0  0  0  0
  131.1268  126.0533   65.6340 H   0  0  0  0  0  0  0  0  0  0  0  0
  127.0945  124.4454   61.9829 H   0  0  0  0  0  0  0  0  0  0  0  0
  125.0413  124.1680   60.6097 H   0  0  0  0  0  0  0  0  0  0  0  0
  125.2188  123.3783   58.2550 H   0  0  0  0  0  0  0  0  0  0  0  0
  127.4461  122.8610   57.2699 H   0  0  0  0  0  0  0  0  0  0  0  0
  129.5027  123.1350   58.6423 H   0  0  0  0  0  0  0  0  0  0  0  0
  131.0619  124.2240   59.5848 H   0  0  0  0  0  0  0  0  0  0  0  0
  134.1885  124.7111   61.6257 H   0  0  0  0  0  0  0  0  0  0  0  0
  133.6814  123.7115   60.2220 H   0  0  0  0  0  0  0  0  0  0  0  0
  133.3741  125.4813   60.2220 H   0  0  0  0  0  0  0  0  0  0  0  0
  127.8538  126.7447   69.4936 H   0  0  0  0  0  0  0  0  0  0  0  0
  127.7899  127.5318   71.8543 H   0  0  0  0  0  0  0  0  0  0  0  0
  1  2  1  0
  2  3  1  0
  3  4  2  0
  4  5  1  0
  5  6  2  0
  6  7  1  0
  7  8  1  0
  8  9  2  0
  8 10  1  0
 10 11  1  0
 11 12  1  0
 12 13  2  0
 13 14  1  0
 14 15  1  0
 15 16  2  0
 16 17  1  0
 17 18  2  0
 18 19  1  0
 19 20  2  0
 14 21  2  0
 21 22  1  0
 22 23  1  0
 22 24  2  0
 24 25  1  0
 25 26  3  0
  6 27  1  0
 27 28  2  0
 28  3  1  0
 24 12  1  0
 20 15  1  0
  1 29  1  0
  1 30  1  0
  1 31  1  0
  4 32  1  0
  5 33  1  0
  7 34  1  0
 10 35  1  0
 10 36  1  0
 16 37  1  0
 17 38  1  0
 18 39  1  0
 19 40  1  0
 20 41  1  0
 21 42  1  0
 23 43  1  0
 23 44  1  0
 23 45  1  0
 27 46  1  0
 28 47  1  0
M  END
>  <Binding energies>  (1) 
[-8.32]

>  <Ligand effiencies>  (1) 
[-0.2868965517241379]

>  <Interactions>  (1) 
["H-A:ARG:545:NH2:4928, H-A:GLY:454:N:4050, V-A:ASP:366:CG:3213, H-A:TYR:484:OH:4348, V-B:GLU:543:CG:9879, H-A:ARG:545:NE:4924, V-A:GLU:543:CD:4908, V-A:ARG:545:CZ:4926, H-A:GLU:543:OE2:4910, V-A:HIS:456:CE1:4070, V-B:PRO:540:CA:9855, V-B:PRO:540:CB:9857, V-B:PRO:540:N:9856, V-B:TYR:539:CE2:9848, V-B:TYR:539:CD2:9846, V-A:GLU:543:C:4902, V-B:GLU:543:CB:9878, V-A:GLY:544:C:4912, V-A:GLU:543:CB:4906, V-B:HIS:456:CD2:9039, V-B:HIS:456:CE1:9041, H-A:LYS:547:NZ:4951, V-A:GLY:544:CA:4914"]

$$$$
3bd_Grossjean_2025
     RDKit          3D

 43 45  0  0  0  0  0  0  0  0999 V2000
  127.6480  129.1140   65.3620 C   0  0  0  0  0  0  0  0  0  0  0  0
  128.3710  128.0750   66.2160 C   0  0  0  0  0  0  0  0  0  0  0  0
  128.2760  128.1810   67.6080 C   0  0  0  0  0  0  0  0  0  0  0  0
  128.9280  127.2510   68.4260 C   0  0  0  0  0  0  0  0  0  0  0  0
  128.8630  127.3030   69.9240 C   0  0  0  0  0  0  0  0  0  0  0  0
  127.7090  126.8880   70.6080 C   0  0  0  0  0  0  0  0  0  0  0  0
  127.6420  126.9360   71.9980 C   0  0  0  0  0  0  0  0  0  0  0  0
  128.7320  127.4020   72.7260 C   0  0  0  0  0  0  0  0  0  0  0  0
  129.8860  127.8220   72.0730 C   0  0  0  0  0  0  0  0  0  0  0  0
  129.9490  127.7730   70.6830 C   0  0  0  0  0  0  0  0  0  0  0  0
  129.6450  126.2320   67.8850 N   0  0  0  0  0  0  0  0  0  0  0  0
  129.7490  126.1140   66.5370 C   0  0  0  0  0  0  0  0  0  0  0  0
  130.7290  124.7410   65.9540 S   0  0  0  0  0  0  0  0  0  0  0  0
  132.4200  125.3390   65.6600 C   0  0  0  0  0  0  0  0  0  0  0  0
  132.9090  125.0080   64.2500 C   0  0  0  0  0  0  0  0  0  0  0  0
  133.9780  124.4130   64.1110 O   0  0  0  0  0  0  0  0  0  0  0  0
  132.1100  125.4210   63.2420 N   0  0  0  0  0  0  0  0  0  0  0  0
  132.2720  125.2450   61.8540 C   0  0  0  0  0  0  0  0  0  0  0  0
  133.0500  124.1530   61.4600 C   0  0  0  0  0  0  0  0  0  0  0  0
  133.2730  123.9030   60.1090 C   0  0  0  0  0  0  0  0  0  0  0  0
  132.7270  124.7510   59.1500 C   0  0  0  0  0  0  0  0  0  0  0  0
  131.9610  125.8510   59.5310 C   0  0  0  0  0  0  0  0  0  0  0  0
  131.7350  126.1030   60.8810 C   0  0  0  0  0  0  0  0  0  0  0  0
  129.1250  127.0220   65.6550 C   0  0  0  0  0  0  0  0  0  0  0  0
  129.2430  126.8830   64.2000 C   0  0  0  0  0  0  0  0  0  0  0  0
  129.3340  126.7740   63.0520 N   0  0  0  0  0  0  0  0  0  0  0  0
  127.1431  129.8396   66.0167 H   0  0  0  0  0  0  0  0  0  0  0  0
  128.3773  129.6384   64.7271 H   0  0  0  0  0  0  0  0  0  0  0  0
  126.9028  128.6124   64.7271 H   0  0  0  0  0  0  0  0  0  0  0  0
  127.6893  128.9947   68.0592 H   0  0  0  0  0  0  0  0  0  0  0  0
  126.8443  126.5192   70.0368 H   0  0  0  0  0  0  0  0  0  0  0  0
  126.7306  126.6067   72.5185 H   0  0  0  0  0  0  0  0  0  0  0  0
  128.6809  127.4385   73.8242 H   0  0  0  0  0  0  0  0  0  0  0  0
  130.7451  128.1913   72.6522 H   0  0  0  0  0  0  0  0  0  0  0  0
  130.8631  128.1074   70.1705 H   0  0  0  0  0  0  0  0  0  0  0  0
  132.4389  126.4305   65.7950 H   0  0  0  0  0  0  0  0  0  0  0  0
  133.0866  124.8370   66.3767 H   0  0  0  0  0  0  0  0  0  0  0  0
  131.3100  125.9790   63.5030 H   0  0  0  0  0  0  0  0  0  0  0  0
  133.4875  123.4889   62.2200 H   0  0  0  0  0  0  0  0  0  0  0  0
  133.8787  123.0382   59.8004 H   0  0  0  0  0  0  0  0  0  0  0  0
  132.9015  124.5513   58.0825 H   0  0  0  0  0  0  0  0  0  0  0  0
  131.5361  126.5184   58.7668 H   0  0  0  0  0  0  0  0  0  0  0  0
  131.1360  126.9739   61.1855 H   0  0  0  0  0  0  0  0  0  0  0  0
  1  2  1  0
  2  3  2  0
  3  4  1  0
  4  5  1  0
  5  6  2  0
  6  7  1  0
  7  8  2  0
  8  9  1  0
  9 10  2  0
  4 11  2  0
 11 12  1  0
 12 13  1  0
 13 14  1  0
 14 15  1  0
 15 16  2  0
 15 17  1  0
 17 18  1  0
 18 19  2  0
 19 20  1  0
 20 21  2  0
 21 22  1  0
 22 23  2  0
 12 24  2  0
 24 25  1  0
 25 26  3  0
 24  2  1  0
 10  5  1  0
 23 18  1  0
  1 27  1  0
  1 28  1  0
  1 29  1  0
  3 30  1  0
  6 31  1  0
  7 32  1  0
  8 33  1  0
  9 34  1  0
 10 35  1  0
 14 36  1  0
 14 37  1  0
 17 38  1  0
 19 39  1  0
 20 40  1  0
 21 41  1  0
 22 42  1  0
 23 43  1  0
M  END
>  <Binding energies>  (1) 
[-7.86]

>  <Ligand effiencies>  (1) 
[-0.2911111111111111]

>  <Interactions>  (1) 
["V-A:ILE:369:CG2:3237, V-A:ASP:366:CB:3212, V-B:GLU:543:CD:9880, H-A:ARG:545:NH2:4928, H-A:GLY:454:N:4050, V-A:ASP:366:CG:3213, H-A:GLU:543:OE1:4909, H-A:TYR:484:OH:4348, V-B:GLU:543:CG:9879, V-A:GLU:543:CD:4908, V-A:ARG:545:CZ:4926, H-A:GLU:543:OE2:4910, V-A:HIS:456:CE1:4070, V-B:TYR:539:CE2:9848, V-B:GLU:543:C:9874, V-B:GLU:543:CB:9878, V-A:GLU:543:CB:4906, V-B:HIS:456:CD2:9039, V-B:HIS:456:CE1:9041, V-B:GLY:544:C:9884, V-B:GLY:544:CA:9886, V-A:GLU:543:CG:4907"]

$$$$
3be_Grossjean_2025
     RDKit          3D

 45 47  0  0  0  0  0  0  0  0999 V2000
  133.7120  123.8910   59.2340 C   0  0  0  0  0  0  0  0  0  0  0  0
  132.8390  124.9280   59.9130 C   0  0  0  0  0  0  0  0  0  0  0  0
  132.1530  125.9000   59.1810 C   0  0  0  0  0  0  0  0  0  0  0  0
  131.3700  126.8240   59.8730 C   0  0  0  0  0  0  0  0  0  0  0  0
  131.2910  126.7550   61.2660 C   0  0  0  0  0  0  0  0  0  0  0  0
  132.0010  125.7540   61.9380 C   0  0  0  0  0  0  0  0  0  0  0  0
  131.8890  125.7440   63.3410 N   0  0  0  0  0  0  0  0  0  0  0  0
  132.7050  125.1660   64.2500 C   0  0  0  0  0  0  0  0  0  0  0  0
  133.7180  124.5220   63.9720 O   0  0  0  0  0  0  0  0  0  0  0  0
  132.2800  125.3670   65.7140 C   0  0  0  0  0  0  0  0  0  0  0  0
  130.5810  124.8320   66.1090 S   0  0  0  0  0  0  0  0  0  0  0  0
  129.6850  126.2420   66.7220 C   0  0  0  0  0  0  0  0  0  0  0  0
  129.7070  126.3540   68.0730 N   0  0  0  0  0  0  0  0  0  0  0  0
  129.0660  127.3890   68.6780 C   0  0  0  0  0  0  0  0  0  0  0  0
  129.1260  127.4320   70.1760 C   0  0  0  0  0  0  0  0  0  0  0  0
  130.2510  127.9530   70.8340 C   0  0  0  0  0  0  0  0  0  0  0  0
  130.3150  127.9940   72.2240 C   0  0  0  0  0  0  0  0  0  0  0  0
  129.2510  127.5110   72.9780 C   0  0  0  0  0  0  0  0  0  0  0  0
  128.1250  126.9870   72.3510 C   0  0  0  0  0  0  0  0  0  0  0  0
  128.0660  126.9480   70.9610 C   0  0  0  0  0  0  0  0  0  0  0  0
  128.3770  128.3440   67.9230 C   0  0  0  0  0  0  0  0  0  0  0  0
  128.3650  128.2570   66.5280 C   0  0  0  0  0  0  0  0  0  0  0  0
  127.6140  129.3330   65.7450 C   0  0  0  0  0  0  0  0  0  0  0  0
  129.0420  127.1910   65.8960 C   0  0  0  0  0  0  0  0  0  0  0  0
  129.0880  127.1110   64.4350 C   0  0  0  0  0  0  0  0  0  0  0  0
  129.1240  127.0500   63.2800 N   0  0  0  0  0  0  0  0  0  0  0  0
  132.7720  124.8480   61.2670 N   0  0  0  0  0  0  0  0  0  0  0  0
  134.2223  123.2849   59.9971 H   0  0  0  0  0  0  0  0  0  0  0  0
  133.0865  123.2394   58.6061 H   0  0  0  0  0  0  0  0  0  0  0  0
  134.4607  124.3963   58.6061 H   0  0  0  0  0  0  0  0  0  0  0  0
  132.2285  125.9359   58.0842 H   0  0  0  0  0  0  0  0  0  0  0  0
  130.8182  127.6021   59.3252 H   0  0  0  0  0  0  0  0  0  0  0  0
  130.6794  127.4773   61.8266 H   0  0  0  0  0  0  0  0  0  0  0  0
  131.0710  126.2130   63.7010 H   0  0  0  0  0  0  0  0  0  0  0  0
  132.9730  124.7977   66.3509 H   0  0  0  0  0  0  0  0  0  0  0  0
  132.3086  126.4517   65.8944 H   0  0  0  0  0  0  0  0  0  0  0  0
  131.0956  128.3350   70.2418 H   0  0  0  0  0  0  0  0  0  0  0  0
  131.2036  128.4068   72.7239 H   0  0  0  0  0  0  0  0  0  0  0  0
  129.2999  127.5434   74.0764 H   0  0  0  0  0  0  0  0  0  0  0  0
  127.2856  126.6054   72.9508 H   0  0  0  0  0  0  0  0  0  0  0  0
  127.1748  126.5314   70.4689 H   0  0  0  0  0  0  0  0  0  0  0  0
  127.8444  129.1638   68.4273 H   0  0  0  0  0  0  0  0  0  0  0  0
  127.1296  130.0270   66.4477 H   0  0  0  0  0  0  0  0  0  0  0  0
  128.3224  129.8873   65.1118 H   0  0  0  0  0  0  0  0  0  0  0  0
  126.8494  128.8593   65.1118 H   0  0  0  0  0  0  0  0  0  0  0  0
  1  2  1  0
  2  3  2  0
  3  4  1  0
  4  5  2  0
  5  6  1  0
  6  7  1  0
  7  8  1  0
  8  9  2  0
  8 10  1  0
 10 11  1  0
 11 12  1  0
 12 13  2  0
 13 14  1  0
 14 15  1  0
 15 16  2  0
 16 17  1  0
 17 18  2  0
 18 19  1  0
 19 20  2  0
 14 21  2  0
 21 22  1  0
 22 23  1  0
 22 24  2  0
 24 25  1  0
 25 26  3  0
  6 27  2  0
 27  2  1  0
 24 12  1  0
 20 15  1  0
  1 28  1  0
  1 29  1  0
  1 30  1  0
  3 31  1  0
  4 32  1  0
  5 33  1  0
  7 34  1  0
 10 35  1  0
 10 36  1  0
 16 37  1  0
 17 38  1  0
 18 39  1  0
 19 40  1  0
 20 41  1  0
 21 42  1  0
 23 43  1  0
 23 44  1  0
 23 45  1  0
M  END
>  <Binding energies>  (1) 
[-7.88]

>  <Ligand effiencies>  (1) 
[-0.2814285714285714]

>  <Interactions>  (1) 
["V-A:ILE:369:CG2:3237, V-A:ASP:366:CB:3212, V-B:GLU:543:CD:9880, H-A:ARG:545:NH2:4928, H-A:GLY:454:N:4050, V-A:ASP:366:CA:3210, V-A:ASP:366:CG:3213, H-A:GLU:543:OE1:4909, H-A:TYR:484:OH:4348, V-B:GLU:543:CG:9879, V-A:ILE:369:CB:3236, V-A:GLU:543:CD:4908, V-A:ARG:545:CZ:4926, H-A:GLU:543:OE2:4910, V-A:HIS:456:CE1:4070, V-B:TYR:539:CE2:9848, V-A:GLU:543:C:4902, V-B:GLU:543:C:9874, V-B:GLU:543:CB:9878, V-A:GLY:544:C:4912, V-A:GLU:543:CB:4906, V-B:HIS:456:CE1:9041, V-A:GLU:543:CG:4907"]

$$$$
3bf_Grossjean_2025
     RDKit          3D

 42 44  0  0  0  0  0  0  0  0999 V2000
  134.2130  122.1550   61.1450 C   0  0  0  0  0  0  0  0  0  0  0  0
  133.3200  123.3610   61.4300 C   0  0  0  0  0  0  0  0  0  0  0  0
  132.9410  123.6020   62.7540 C   0  0  0  0  0  0  0  0  0  0  0  0
  132.1350  124.7040   63.0610 C   0  0  0  0  0  0  0  0  0  0  0  0
  131.7120  125.0310   64.4620 C   0  0  0  0  0  0  0  0  0  0  0  0
  130.3560  125.0130   64.8230 C   0  0  0  0  0  0  0  0  0  0  0  0
  129.9550  125.3160   66.1210 C   0  0  0  0  0  0  0  0  0  0  0  0
  130.9100  125.6420   67.0790 C   0  0  0  0  0  0  0  0  0  0  0  0
  132.2600  125.6680   66.7470 C   0  0  0  0  0  0  0  0  0  0  0  0
  132.6560  125.3660   65.4460 C   0  0  0  0  0  0  0  0  0  0  0  0
  131.7110  125.5510   62.0850 N   0  0  0  0  0  0  0  0  0  0  0  0
  132.0500  125.3160   60.7930 C   0  0  0  0  0  0  0  0  0  0  0  0
  131.4010  126.5220   59.6560 S   0  0  0  0  0  0  0  0  0  0  0  0
  129.5840  126.3560   59.6300 C   0  0  0  0  0  0  0  0  0  0  0  0
  129.0590  125.0370   59.0440 C   0  0  0  0  0  0  0  0  0  0  0  0
  129.6670  123.9810   59.2270 O   0  0  0  0  0  0  0  0  0  0  0  0
  127.8960  125.1460   58.3650 N   0  0  0  0  0  0  0  0  0  0  0  0
  127.1620  124.1430   57.7040 C   0  0  0  0  0  0  0  0  0  0  0  0
  125.7750  124.3120   57.6280 C   0  0  0  0  0  0  0  0  0  0  0  0
  124.9930  123.3590   56.9740 C   0  0  0  0  0  0  0  0  0  0  0  0
  125.6270  122.2550   56.4030 C   0  0  0  0  0  0  0  0  0  0  0  0
  126.9700  122.0710   56.4510 N   0  0  0  0  0  0  0  0  0  0  0  0
  127.7180  123.0060   57.0910 C   0  0  0  0  0  0  0  0  0  0  0  0
  132.8750  124.2350   60.4140 C   0  0  0  0  0  0  0  0  0  0  0  0
  133.3020  124.0290   59.0270 C   0  0  0  0  0  0  0  0  0  0  0  0
  133.6380  123.8640   57.9320 N   0  0  0  0  0  0  0  0  0  0  0  0
  134.5425  121.7100   62.0955 H   0  0  0  0  0  0  0  0  0  0  0  0
  133.6480  121.4088   60.5671 H   0  0  0  0  0  0  0  0  0  0  0  0
  135.0916  122.4777   60.5671 H   0  0  0  0  0  0  0  0  0  0  0  0
  133.2762  122.9256   63.5541 H   0  0  0  0  0  0  0  0  0  0  0  0
  129.5982  124.7554   64.0684 H   0  0  0  0  0  0  0  0  0  0  0  0
  128.8881  125.2978   66.3882 H   0  0  0  0  0  0  0  0  0  0  0  0
  130.5950  125.8807   68.1055 H   0  0  0  0  0  0  0  0  0  0  0  0
  133.0115  125.9257   67.5078 H   0  0  0  0  0  0  0  0  0  0  0  0
  133.7245  125.3903   65.1856 H   0  0  0  0  0  0  0  0  0  0  0  0
  129.2194  126.4384   60.6645 H   0  0  0  0  0  0  0  0  0  0  0  0
  129.2127  127.1539   58.9700 H   0  0  0  0  0  0  0  0  0  0  0  0
  127.4600  126.0560   58.3610 H   0  0  0  0  0  0  0  0  0  0  0  0
  125.3018  125.1946   58.0830 H   0  0  0  0  0  0  0  0  0  0  0  0
  123.9011  123.4756   56.9101 H   0  0  0  0  0  0  0  0  0  0  0  0
  125.0108  121.5009   55.8916 H   0  0  0  0  0  0  0  0  0  0  0  0
  128.8085  122.8679   57.1319 H   0  0  0  0  0  0  0  0  0  0  0  0
  1  2  1  0
  2  3  2  0
  3  4  1  0
  4  5  1  0
  5  6  2  0
  6  7  1  0
  7  8  2  0
  8  9  1  0
  9 10  2  0
  4 11  2  0
 11 12  1  0
 12 13  1  0
 13 14  1  0
 14 15  1  0
 15 16  2  0
 15 17  1  0
 17 18  1  0
 18 19  2  0
 19 20  1  0
 20 21  2  0
 21 22  1  0
 22 23  2  0
 12 24  2  0
 24 25  1  0
 25 26  3  0
 24  2  1  0
 10  5  1  0
 23 18  1  0
  1 27  1  0
  1 28  1  0
  1 29  1  0
  3 30  1  0
  6 31  1  0
  7 32  1  0
  8 33  1  0
  9 34  1  0
 10 35  1  0
 14 36  1  0
 14 37  1  0
 17 38  1  0
 19 39  1  0
 20 40  1  0
 21 41  1  0
 23 42  1  0
M  END
>  <Binding energies>  (1) 
[-7.81]

>  <Ligand effiencies>  (1) 
[-0.28925925925925927]

>  <Interactions>  (1) 
["V-A:ILE:369:CG2:3237, V-A:ILE:369:CD1:3239, V-B:GLU:543:CD:9880, H-A:ARG:545:NH2:4928, V-A:ASP:366:CG:3213, V-B:GLU:543:CG:9879, V-A:ILE:369:CB:3236, V-A:ARG:545:CZ:4926, V-A:HIS:456:CE1:4070, V-B:PRO:540:CD:9859, V-B:PRO:540:CB:9857, V-B:PRO:540:N:9856, V-B:LEU:363:CD1:8160, V-B:MET:535:CE:9807, V-B:TYR:539:CZ:9849, V-B:TYR:539:CE2:9848, V-B:TYR:539:CD1:9845, H-B:TYR:539:N:9842, V-B:TYR:539:CE1:9847, V-B:TYR:539:CD2:9846, V-B:PRO:540:CG:9858, V-B:ILE:538:CG2:9835, V-B:TYR:539:CG:9844, V-A:TYR:484:CZ:4347, V-B:GLU:543:CB:9878, V-A:ARG:545:CG:4922, V-A:ARG:545:CD:4923, H-B:TYR:539:OH:9850, V-A:ILE:369:CG1:3238"]

$$$$
3bg_Grossjean_2025
     RDKit          3D

 46 48  0  0  0  0  0  0  0  0999 V2000
  130.2670  124.5130   65.6090 C   0  0  0  0  0  0  0  0  0  0  0  0
  130.5950  124.3670   64.1250 C   0  0  0  0  0  0  0  0  0  0  0  0
  129.5460  124.1090   63.2380 C   0  0  0  0  0  0  0  0  0  0  0  0
  129.8020  123.9750   61.8660 C   0  0  0  0  0  0  0  0  0  0  0  0
  128.7190  123.7090   60.8580 C   0  0  0  0  0  0  0  0  0  0  0  0
  127.3940  124.1120   61.0950 C   0  0  0  0  0  0  0  0  0  0  0  0
  126.3920  123.8830   60.1570 C   0  0  0  0  0  0  0  0  0  0  0  0
  126.6980  123.2420   58.9610 C   0  0  0  0  0  0  0  0  0  0  0  0
  127.9980  122.8210   58.7050 C   0  0  0  0  0  0  0  0  0  0  0  0
  128.9970  123.0510   59.6470 C   0  0  0  0  0  0  0  0  0  0  0  0
  131.0660  124.1140   61.3840 N   0  0  0  0  0  0  0  0  0  0  0  0
  132.0960  124.3680   62.2310 C   0  0  0  0  0  0  0  0  0  0  0  0
  133.6980  124.5610   61.4660 S   0  0  0  0  0  0  0  0  0  0  0  0
  133.7530  123.5040   59.9810 C   0  0  0  0  0  0  0  0  0  0  0  0
  133.3530  124.2740   58.7190 C   0  0  0  0  0  0  0  0  0  0  0  0
  133.9660  124.0890   57.6670 O   0  0  0  0  0  0  0  0  0  0  0  0
  132.3410  125.1500   58.8470 N   0  0  0  0  0  0  0  0  0  0  0  0
  131.9170  126.1140   57.8310 C   0  0  0  0  0  0  0  0  0  0  0  0
  130.4030  126.1260   57.6590 C   0  0  0  0  0  0  0  0  0  0  0  0
  129.5810  126.5110   58.7230 C   0  0  0  0  0  0  0  0  0  0  0  0
  128.1980  126.5140   58.5690 C   0  0  0  0  0  0  0  0  0  0  0  0
  127.6390  126.1420   57.3470 C   0  0  0  0  0  0  0  0  0  0  0  0
  128.4520  125.7770   56.2760 C   0  0  0  0  0  0  0  0  0  0  0  0
  129.8370  125.7740   56.4310 C   0  0  0  0  0  0  0  0  0  0  0  0
  131.9080  124.4950   63.6230 C   0  0  0  0  0  0  0  0  0  0  0  0
  133.0270  124.7740   64.5270 C   0  0  0  0  0  0  0  0  0  0  0  0
  133.9090  124.9940   65.2420 N   0  0  0  0  0  0  0  0  0  0  0  0
  131.1091  124.1381   66.2093 H   0  0  0  0  0  0  0  0  0  0  0  0
  130.0930  125.5735   65.8435 H   0  0  0  0  0  0  0  0  0  0  0  0
  129.3625  123.9325   65.8435 H   0  0  0  0  0  0  0  0  0  0  0  0
  128.5180  124.0109   63.6169 H   0  0  0  0  0  0  0  0  0  0  0  0
  127.1442  124.6178   62.0393 H   0  0  0  0  0  0  0  0  0  0  0  0
  125.3610  124.2079   60.3607 H   0  0  0  0  0  0  0  0  0  0  0  0
  125.9086  123.0676   58.2151 H   0  0  0  0  0  0  0  0  0  0  0  0
  128.2364  122.3080   57.7616 H   0  0  0  0  0  0  0  0  0  0  0  0
  130.0227  122.7117   59.4400 H   0  0  0  0  0  0  0  0  0  0  0  0
  134.7762  123.1206   59.8547 H   0  0  0  0  0  0  0  0  0  0  0  0
  133.0365  122.6811   60.1206 H   0  0  0  0  0  0  0  0  0  0  0  0
  131.9000  125.2390   59.7510 H   0  0  0  0  0  0  0  0  0  0  0  0
  132.2490  127.1184   58.1326 H   0  0  0  0  0  0  0  0  0  0  0  0
  132.3677  125.8200   56.8716 H   0  0  0  0  0  0  0  0  0  0  0  0
  130.0280  126.8116   59.6821 H   0  0  0  0  0  0  0  0  0  0  0  0
  127.5491  126.8083   59.4070 H   0  0  0  0  0  0  0  0  0  0  0  0
  126.5455  126.1366   57.2273 H   0  0  0  0  0  0  0  0  0  0  0  0
  128.0029  125.4926   55.3129 H   0  0  0  0  0  0  0  0  0  0  0  0
  130.4844  125.4946   55.5868 H   0  0  0  0  0  0  0  0  0  0  0  0
  1  2  1  0
  2  3  2  0
  3  4  1  0
  4  5  1  0
  5  6  2  0
  6  7  1  0
  7  8  2  0
  8  9  1  0
  9 10  2  0
  4 11  2  0
 11 12  1  0
 12 13  1  0
 13 14  1  0
 14 15  1  0
 15 16  2  0
 15 17  1  0
 17 18  1  0
 18 19  1  0
 19 20  2  0
 20 21  1  0
 21 22  2  0
 22 23  1  0
 23 24  2  0
 12 25  2  0
 25 26  1  0
 26 27  3  0
 25  2  1  0
 10  5  1  0
 24 19  1  0
  1 28  1  0
  1 29  1  0
  1 30  1  0
  3 31  1  0
  6 32  1  0
  7 33  1  0
  8 34  1  0
  9 35  1  0
 10 36  1  0
 14 37  1  0
 14 38  1  0
 17 39  1  0
 18 40  1  0
 18 41  1  0
 20 42  1  0
 21 43  1  0
 22 44  1  0
 23 45  1  0
 24 46  1  0
M  END
>  <Binding energies>  (1) 
[-7.08]

>  <Ligand effiencies>  (1) 
[-0.25285714285714284]

>  <Interactions>  (1) 
["V-A:ILE:369:CG2:3237, V-A:ILE:369:CD1:3239, V-A:ASP:366:CB:3212, V-B:GLU:543:CD:9880, H-A:ARG:545:NH2:4928, H-A:GLY:454:N:4050, V-A:ASP:366:CA:3210, V-A:ASP:366:CG:3213, H-A:TYR:484:OH:4348, V-B:GLU:543:CG:9879, H-A:ARG:545:NE:4924, V-A:ILE:369:CB:3236, V-A:ARG:545:CZ:4926, V-B:TYR:539:C:9839, V-B:PRO:540:CA:9855, V-B:PRO:540:CB:9857, V-B:PRO:540:N:9856, V-B:TYR:539:CZ:9849, V-B:TYR:539:CE2:9848, V-B:TYR:539:CD2:9846, V-A:TYR:484:CE2:4346, V-A:TYR:484:CZ:4347, H-B:TYR:539:OH:9850, H-A:ASN:370:N:3244"]

$$$$
3bk_Grossjean_2025
     RDKit          3D

 57 58  0  0  0  0  0  0  0  0999 V2000
  125.2070  122.5390   56.5680 C   0  0  0  0  0  0  0  0  0  0  0  0
  126.5020  121.9610   56.6340 O   0  0  0  0  0  0  0  0  0  0  0  0
  127.5510  122.9200   56.6310 C   0  0  0  0  0  0  0  0  0  0  0  0
  128.0620  123.1300   58.0630 C   0  0  0  0  0  0  0  0  0  0  0  0
  126.9580  123.1880   58.9540 O   0  0  0  0  0  0  0  0  0  0  0  0
  127.0730  124.2000   59.9460 C   0  0  0  0  0  0  0  0  0  0  0  0
  126.8100  123.5860   61.3270 C   0  0  0  0  0  0  0  0  0  0  0  0
  127.5530  122.3810   61.4570 O   0  0  0  0  0  0  0  0  0  0  0  0
  128.8840  122.5730   61.9170 C   0  0  0  0  0  0  0  0  0  0  0  0
  129.8430  121.7190   61.0750 C   0  0  0  0  0  0  0  0  0  0  0  0
  131.2250  121.7990   61.5510 N   0  0  0  0  0  0  0  0  0  0  0  0
  132.2550  121.0710   61.0850 C   0  0  0  0  0  0  0  0  0  0  0  0
  132.1540  120.2500   60.1730 O   0  0  0  0  0  0  0  0  0  0  0  0
  133.6180  121.3260   61.7330 C   0  0  0  0  0  0  0  0  0  0  0  0
  134.2750  122.9710   61.3130 S   0  0  0  0  0  0  0  0  0  0  0  0
  132.9280  124.1420   61.2740 C   0  0  0  0  0  0  0  0  0  0  0  0
  132.3300  124.3990   62.4650 N   0  0  0  0  0  0  0  0  0  0  0  0
  131.2920  125.2750   62.5300 C   0  0  0  0  0  0  0  0  0  0  0  0
  130.7040  125.5170   63.8870 C   0  0  0  0  0  0  0  0  0  0  0  0
  131.1650  124.8060   65.0070 C   0  0  0  0  0  0  0  0  0  0  0  0
  130.6170  125.0240   66.2690 C   0  0  0  0  0  0  0  0  0  0  0  0
  129.5990  125.9580   66.4290 C   0  0  0  0  0  0  0  0  0  0  0  0
  129.1270  126.6780   65.3360 C   0  0  0  0  0  0  0  0  0  0  0  0
  129.6780  126.4590   64.0770 C   0  0  0  0  0  0  0  0  0  0  0  0
  130.8300  125.9270   61.3810 C   0  0  0  0  0  0  0  0  0  0  0  0
  131.4340  125.6730   60.1440 C   0  0  0  0  0  0  0  0  0  0  0  0
  130.8990  126.4050   58.9150 C   0  0  0  0  0  0  0  0  0  0  0  0
  132.5090  124.7610   60.0760 C   0  0  0  0  0  0  0  0  0  0  0  0
  133.1620  124.4770   58.7950 C   0  0  0  0  0  0  0  0  0  0  0  0
  133.6780  124.2520   57.7830 N   0  0  0  0  0  0  0  0  0  0  0  0
  124.8285  122.7079   57.5869 H   0  0  0  0  0  0  0  0  0  0  0  0
  125.2606  123.4986   56.0330 H   0  0  0  0  0  0  0  0  0  0  0  0
  124.5285  121.8583   56.0330 H   0  0  0  0  0  0  0  0  0  0  0  0
  128.3749  122.5591   55.9977 H   0  0  0  0  0  0  0  0  0  0  0  0
  127.1723  123.8739   56.2351 H   0  0  0  0  0  0  0  0  0  0  0  0
  128.7177  122.2931   58.3451 H   0  0  0  0  0  0  0  0  0  0  0  0
  128.6275  124.0720   58.1169 H   0  0  0  0  0  0  0  0  0  0  0  0
  128.0865  124.6268   59.9202 H   0  0  0  0  0  0  0  0  0  0  0  0
  126.3385  124.9949   59.7494 H   0  0  0  0  0  0  0  0  0  0  0  0
  127.1203  124.2947   62.1089 H   0  0  0  0  0  0  0  0  0  0  0  0
  125.7369  123.3695   61.4347 H   0  0  0  0  0  0  0  0  0  0  0  0
  129.1563  123.6343   61.8199 H   0  0  0  0  0  0  0  0  0  0  0  0
  128.9548  122.2722   62.9727 H   0  0  0  0  0  0  0  0  0  0  0  0
  129.5141  120.6703   61.1196 H   0  0  0  0  0  0  0  0  0  0  0  0
  129.8199  122.1050   60.0452 H   0  0  0  0  0  0  0  0  0  0  0  0
  131.4070  122.4930   62.2610 H   0  0  0  0  0  0  0  0  0  0  0  0
  133.5109  121.2546   62.8254 H   0  0  0  0  0  0  0  0  0  0  0  0
  134.3220  120.5714   61.3523 H   0  0  0  0  0  0  0  0  0  0  0  0
  131.9703  124.0665   64.8860 H   0  0  0  0  0  0  0  0  0  0  0  0
  130.9884  124.4590   67.1366 H   0  0  0  0  0  0  0  0  0  0  0  0
  129.1646  126.1284   67.4251 H   0  0  0  0  0  0  0  0  0  0  0  0
  128.3224  127.4166   65.4664 H   0  0  0  0  0  0  0  0  0  0  0  0
  129.3044  127.0327   63.2160 H   0  0  0  0  0  0  0  0  0  0  0  0
  129.9935  126.6380   61.4499 H   0  0  0  0  0  0  0  0  0  0  0  0
  130.2781  127.2545   59.2356 H   0  0  0  0  0  0  0  0  0  0  0  0
  131.7419  126.7738   58.3121 H   0  0  0  0  0  0  0  0  0  0  0  0
  130.2917  125.7139   58.3121 H   0  0  0  0  0  0  0  0  0  0  0  0
  1  2  1  0
  2  3  1  0
  3  4  1  0
  4  5  1  0
  5  6  1  0
  6  7  1  0
  7  8  1  0
  8  9  1  0
  9 10  1  0
 10 11  1  0
 11 12  1  0
 12 13  2  0
 12 14  1  0
 14 15  1  0
 15 16  1  0
 16 17  2  0
 17 18  1  0
 18 19  1  0
 19 20  2  0
 20 21  1  0
 21 22  2  0
 22 23  1  0
 23 24  2  0
 18 25  2  0
 25 26  1  0
 26 27  1  0
 26 28  2  0
 28 29  1  0
 29 30  3  0
 28 16  1  0
 24 19  1  0
  1 31  1  0
  1 32  1  0
  1 33  1  0
  3 34  1  0
  3 35  1  0
  4 36  1  0
  4 37  1  0
  6 38  1  0
  6 39  1  0
  7 40  1  0
  7 41  1  0
  9 42  1  0
  9 43  1  0
 10 44  1  0
 10 45  1  0
 11 46  1  0
 14 47  1  0
 14 48  1  0
 20 49  1  0
 21 50  1  0
 22 51  1  0
 23 52  1  0
 24 53  1  0
 25 54  1  0
 27 55  1  0
 27 56  1  0
 27 57  1  0
M  END
>  <Binding energies>  (1) 
[-6.78]

>  <Ligand effiencies>  (1) 
[-0.21870967741935485]

>  <Interactions>  (1) 
["V-A:ILE:369:CG2:3237, V-A:ASP:366:CB:3212, V-B:GLU:543:CD:9880, V-A:ASP:366:CA:3210, V-A:ASP:366:CG:3213, V-B:GLU:543:CG:9879, V-A:GLU:543:CD:4908, V-A:LEU:475:CD2:4259, V-A:HIS:456:CE1:4070, V-B:ALA:541:CB:9864, H-B:ALA:541:N:9863, V-B:PRO:540:CD:9859, V-B:PRO:540:CA:9855, V-B:PRO:540:CB:9857, V-B:PRO:540:N:9856, V-B:LEU:363:CD1:8160, V-B:MET:535:CE:9807, V-B:TYR:539:CZ:9849, V-B:TYR:539:CE2:9848, V-B:TYR:539:CD1:9845, H-B:TYR:539:N:9842, V-B:TYR:539:CE1:9847, V-B:TYR:539:CD2:9846, V-B:PRO:540:CG:9858, V-B:ILE:538:CG2:9835, V-B:TYR:539:CG:9844, V-A:TYR:484:CE2:4346, V-A:TYR:484:CZ:4347, V-B:GLU:543:CB:9878, V-A:SER:385:CB:3409, V-A:SER:385:C:3405, H-B:TYR:539:OH:9850, H-A:SER:385:OG:3410"]

$$$$
3ca_Grossjean_2025
     RDKit          3D

 52 54  0  0  0  0  0  0  0  0999 V2000
  131.6420  126.7710   73.8840 C   0  0  0  0  0  0  0  0  0  0  0  0
  130.2720  126.1090   74.0570 C   0  0  0  0  0  0  0  0  0  0  0  0
  129.3080  126.8050   73.2770 O   0  0  0  0  0  0  0  0  0  0  0  0
  129.6580  127.8750   72.5200 C   0  0  0  0  0  0  0  0  0  0  0  0
  129.8750  128.9980   72.9880 O   0  0  0  0  0  0  0  0  0  0  0  0
  129.7630  127.5590   71.0550 C   0  0  0  0  0  0  0  0  0  0  0  0
  128.7200  126.8650   70.4290 C   0  0  0  0  0  0  0  0  0  0  0  0
  128.7880  126.5560   69.0730 C   0  0  0  0  0  0  0  0  0  0  0  0
  129.9020  126.9270   68.3180 C   0  0  0  0  0  0  0  0  0  0  0  0
  129.8680  126.5670   66.9580 N   0  0  0  0  0  0  0  0  0  0  0  0
  129.8260  125.3420   66.3910 C   0  0  0  0  0  0  0  0  0  0  0  0
  129.7880  124.2750   67.0030 O   0  0  0  0  0  0  0  0  0  0  0  0
  129.8020  125.3300   64.8590 C   0  0  0  0  0  0  0  0  0  0  0  0
  129.8070  123.6480   64.1540 S   0  0  0  0  0  0  0  0  0  0  0  0
  129.8800  123.7380   62.3700 C   0  0  0  0  0  0  0  0  0  0  0  0
  131.0980  124.0280   61.8460 N   0  0  0  0  0  0  0  0  0  0  0  0
  131.2320  124.0920   60.5030 C   0  0  0  0  0  0  0  0  0  0  0  0
  132.6260  124.4040   59.9950 C   0  0  0  0  0  0  0  0  0  0  0  0
  130.1650  123.8860   59.6330 C   0  0  0  0  0  0  0  0  0  0  0  0
  128.8940  123.6020   60.1490 C   0  0  0  0  0  0  0  0  0  0  0  0
  127.7770  123.4020   59.1780 C   0  0  0  0  0  0  0  0  0  0  0  0
  127.9530  122.5700   58.0660 C   0  0  0  0  0  0  0  0  0  0  0  0
  126.9210  122.3850   57.1500 C   0  0  0  0  0  0  0  0  0  0  0  0
  125.7050  123.0360   57.3420 C   0  0  0  0  0  0  0  0  0  0  0  0
  125.5150  123.8720   58.4400 C   0  0  0  0  0  0  0  0  0  0  0  0
  126.5510  124.0560   59.3530 C   0  0  0  0  0  0  0  0  0  0  0  0
  128.7430  123.5160   61.5570 C   0  0  0  0  0  0  0  0  0  0  0  0
  127.4490  123.1710   62.1540 C   0  0  0  0  0  0  0  0  0  0  0  0
  126.4260  122.8990   62.6240 N   0  0  0  0  0  0  0  0  0  0  0  0
  130.9480  127.6300   68.9360 C   0  0  0  0  0  0  0  0  0  0  0  0
  130.8770  127.9390   70.2920 C   0  0  0  0  0  0  0  0  0  0  0  0
  132.0755  126.9805   74.8730 H   0  0  0  0  0  0  0  0  0  0  0  0
  132.3081  126.0953   73.3274 H   0  0  0  0  0  0  0  0  0  0  0  0
  131.5265  127.7127   73.3274 H   0  0  0  0  0  0  0  0  0  0  0  0
  130.3260  125.0618   73.7245 H   0  0  0  0  0  0  0  0  0  0  0  0
  129.9796  126.1422   75.1169 H   0  0  0  0  0  0  0  0  0  0  0  0
  127.8392  126.5613   71.0138 H   0  0  0  0  0  0  0  0  0  0  0  0
  127.9583  126.0159   68.5935 H   0  0  0  0  0  0  0  0  0  0  0  0
  129.8200  127.3510   66.3240 H   0  0  0  0  0  0  0  0  0  0  0  0
  128.8934  125.8488   64.5194 H   0  0  0  0  0  0  0  0  0  0  0  0
  130.7177  125.8321   64.5136 H   0  0  0  0  0  0  0  0  0  0  0  0
  133.3022  124.5554   60.8493 H   0  0  0  0  0  0  0  0  0  0  0  0
  132.9897  123.5650   59.3836 H   0  0  0  0  0  0  0  0  0  0  0  0
  132.5974  125.3180   59.3836 H   0  0  0  0  0  0  0  0  0  0  0  0
  130.3192  123.9459   58.5455 H   0  0  0  0  0  0  0  0  0  0  0  0
  128.9148  122.0581   57.9147 H   0  0  0  0  0  0  0  0  0  0  0  0
  127.0653  121.7283   56.2794 H   0  0  0  0  0  0  0  0  0  0  0  0
  124.8877  122.8889   56.6206 H   0  0  0  0  0  0  0  0  0  0  0  0
  124.5523  124.3840   58.5853 H   0  0  0  0  0  0  0  0  0  0  0  0
  126.4050  124.7199   60.2178 H   0  0  0  0  0  0  0  0  0  0  0  0
  131.8254  127.9374   68.3481 H   0  0  0  0  0  0  0  0  0  0  0  0
  131.7029  128.4866   70.7696 H   0  0  0  0  0  0  0  0  0  0  0  0
  1  2  1  0
  2  3  1  0
  3  4  1  0
  4  5  2  0
  4  6  1  0
  6  7  2  0
  7  8  1  0
  8  9  2  0
  9 10  1  0
 10 11  1  0
 11 12  2  0
 11 13  1  0
 13 14  1  0
 14 15  1  0
 15 16  2  0
 16 17  1  0
 17 18  1  0
 17 19  2  0
 19 20  1  0
 20 21  1  0
 21 22  2  0
 22 23  1  0
 23 24  2  0
 24 25  1  0
 25 26  2  0
 20 27  2  0
 27 28  1  0
 28 29  3  0
  9 30  1  0
 30 31  2  0
 31  6  1  0
 27 15  1  0
 26 21  1  0
  1 32  1  0
  1 33  1  0
  1 34  1  0
  2 35  1  0
  2 36  1  0
  7 37  1  0
  8 38  1  0
 10 39  1  0
 13 40  1  0
 13 41  1  0
 18 42  1  0
 18 43  1  0
 18 44  1  0
 19 45  1  0
 22 46  1  0
 23 47  1  0
 24 48  1  0
 25 49  1  0
 26 50  1  0
 30 51  1  0
 31 52  1  0
M  END
>  <Binding energies>  (1) 
[-9.04]

>  <Ligand effiencies>  (1) 
[-0.2825]

>  <Interactions>  (1) 
["V-B:GLU:543:CD:9880, H-A:GLU:543:OE1:4909, H-A:TYR:484:OH:4348, V-B:GLU:543:CG:9879, V-A:GLU:543:CD:4908, H-A:GLU:543:OE2:4910, V-A:HIS:456:CE1:4070, V-B:ALA:541:CB:9864, V-B:TYR:539:C:9839, H-B:ALA:541:N:9863, V-B:PRO:540:CD:9859, V-B:PRO:540:CA:9855, V-B:PRO:540:CB:9857, V-B:PRO:540:N:9856, V-B:TYR:539:CZ:9849, V-B:TYR:539:CE2:9848, V-B:TYR:539:CD1:9845, V-B:TYR:539:CA:9841, V-B:TYR:539:CE1:9847, V-B:TYR:539:CD2:9846, V-B:TYR:539:CG:9844, V-A:GLU:543:C:4902, V-B:GLU:543:C:9874, V-A:HIS:456:CD2:4068, V-B:GLU:543:CB:9878, V-A:HIS:456:CG:4066, V-A:GLY:544:C:4912, V-A:GLU:543:CB:4906, V-A:ARG:545:CG:4922, H-A:LYS:547:NZ:4951, H-B:LYS:547:NZ:9923"]

$$$$
3cb_Grossjean_2025
     RDKit          3D

 49 51  0  0  0  0  0  0  0  0999 V2000
  129.4140  131.0290   73.2510 C   0  0  0  0  0  0  0  0  0  0  0  0
  129.9270  129.7100   73.1370 O   0  0  0  0  0  0  0  0  0  0  0  0
  129.1200  128.6730   72.7920 C   0  0  0  0  0  0  0  0  0  0  0  0
  128.2330  128.2290   73.5270 O   0  0  0  0  0  0  0  0  0  0  0  0
  129.4160  128.1180   71.4280 C   0  0  0  0  0  0  0  0  0  0  0  0
  128.4690  127.3780   70.7050 C   0  0  0  0  0  0  0  0  0  0  0  0
  128.7740  126.8800   69.4420 C   0  0  0  0  0  0  0  0  0  0  0  0
  130.0300  127.1050   68.8760 C   0  0  0  0  0  0  0  0  0  0  0  0
  130.2300  126.5590   67.5920 N   0  0  0  0  0  0  0  0  0  0  0  0
  129.9890  125.3120   67.1330 C   0  0  0  0  0  0  0  0  0  0  0  0
  129.5070  124.3950   67.8000 O   0  0  0  0  0  0  0  0  0  0  0  0
  130.3510  125.0970   65.6550 C   0  0  0  0  0  0  0  0  0  0  0  0
  132.1060  125.3820   65.2430 S   0  0  0  0  0  0  0  0  0  0  0  0
  132.3760  124.8050   63.5800 C   0  0  0  0  0  0  0  0  0  0  0  0
  133.3540  123.8720   63.4850 N   0  0  0  0  0  0  0  0  0  0  0  0
  133.6460  123.3610   62.2680 C   0  0  0  0  0  0  0  0  0  0  0  0
  134.7430  122.3130   62.2390 C   0  0  0  0  0  0  0  0  0  0  0  0
  132.9860  123.7590   61.1090 C   0  0  0  0  0  0  0  0  0  0  0  0
  131.9820  124.7340   61.1810 C   0  0  0  0  0  0  0  0  0  0  0  0
  131.3070  125.1310   59.9080 C   0  0  0  0  0  0  0  0  0  0  0  0
  130.0340  124.6350   59.6020 C   0  0  0  0  0  0  0  0  0  0  0  0
  129.3920  125.0080   58.4240 C   0  0  0  0  0  0  0  0  0  0  0  0
  130.0220  125.8860   57.5460 C   0  0  0  0  0  0  0  0  0  0  0  0
  131.2830  126.3960   57.8380 C   0  0  0  0  0  0  0  0  0  0  0  0
  131.9220  126.0220   59.0180 C   0  0  0  0  0  0  0  0  0  0  0  0
  131.6730  125.2900   62.4490 C   0  0  0  0  0  0  0  0  0  0  0  0
  130.6980  126.3790   62.5710 C   0  0  0  0  0  0  0  0  0  0  0  0
  129.9290  127.2370   62.6660 N   0  0  0  0  0  0  0  0  0  0  0  0
  130.9810  127.8490   69.5910 C   0  0  0  0  0  0  0  0  0  0  0  0
  130.6740  128.3470   70.8540 C   0  0  0  0  0  0  0  0  0  0  0  0
  129.3117  131.2920   74.3142 H   0  0  0  0  0  0  0  0  0  0  0  0
  130.1035  131.7340   72.7636 H   0  0  0  0  0  0  0  0  0  0  0  0
  128.4294  131.0829   72.7636 H   0  0  0  0  0  0  0  0  0  0  0  0
  127.4765  127.1897   71.1402 H   0  0  0  0  0  0  0  0  0  0  0  0
  128.0196  126.3046   68.8854 H   0  0  0  0  0  0  0  0  0  0  0  0
  130.5850  127.2200   66.9160 H   0  0  0  0  0  0  0  0  0  0  0  0
  130.1023  124.0588   65.3900 H   0  0  0  0  0  0  0  0  0  0  0  0
  129.7760  125.8421   65.0855 H   0  0  0  0  0  0  0  0  0  0  0  0
  135.0224  122.0461   63.2689 H   0  0  0  0  0  0  0  0  0  0  0  0
  134.3805  121.4172   61.7135 H   0  0  0  0  0  0  0  0  0  0  0  0
  135.6213  122.7160   61.7135 H   0  0  0  0  0  0  0  0  0  0  0  0
  133.2514  123.3101   60.1405 H   0  0  0  0  0  0  0  0  0  0  0  0
  129.5364  123.9443   60.2986 H   0  0  0  0  0  0  0  0  0  0  0  0
  128.3933  124.6115   58.1885 H   0  0  0  0  0  0  0  0  0  0  0  0
  129.5182  126.1790   56.6131 H   0  0  0  0  0  0  0  0  0  0  0  0
  131.7731  127.0912   57.1405 H   0  0  0  0  0  0  0  0  0  0  0  0
  132.9166  126.4290   59.2530 H   0  0  0  0  0  0  0  0  0  0  0  0
  131.9716  128.0391   69.1522 H   0  0  0  0  0  0  0  0  0  0  0  0
  131.4271  128.9268   71.4078 H   0  0  0  0  0  0  0  0  0  0  0  0
  1  2  1  0
  2  3  1  0
  3  4  2  0
  3  5  1  0
  5  6  2  0
  6  7  1  0
  7  8  2  0
  8  9  1  0
  9 10  1  0
 10 11  2  0
 10 12  1  0
 12 13  1  0
 13 14  1  0
 14 15  2  0
 15 16  1  0
 16 17  1  0
 16 18  2  0
 18 19  1  0
 19 20  1  0
 20 21  2  0
 21 22  1  0
 22 23  2  0
 23 24  1  0
 24 25  2  0
 19 26  2  0
 26 27  1  0
 27 28  3  0
  8 29  1  0
 29 30  2  0
 30  5  1  0
 26 14  1  0
 25 20  1  0
  1 31  1  0
  1 32  1  0
  1 33  1  0
  6 34  1  0
  7 35  1  0
  9 36  1  0
 12 37  1  0
 12 38  1  0
 17 39  1  0
 17 40  1  0
 17 41  1  0
 18 42  1  0
 21 43  1  0
 22 44  1  0
 23 45  1  0
 24 46  1  0
 25 47  1  0
 29 48  1  0
 30 49  1  0
M  END
>  <Binding energies>  (1) 
[-7.81]

>  <Ligand effiencies>  (1) 
[-0.2519354838709677]

>  <Interactions>  (1) 
["V-A:ILE:369:CG2:3237, V-A:ILE:369:CD1:3239, V-A:ASP:366:CB:3212, V-A:GLY:453:C:4042, H-A:ARG:545:NH2:4928, H-A:GLY:454:N:4050, V-A:ASP:366:CG:3213, H-A:GLU:543:OE1:4909, H-A:TYR:484:OH:4348, V-B:GLU:543:CG:9879, H-A:ARG:545:NE:4924, V-A:GLU:543:CD:4908, V-A:ARG:545:CZ:4926, H-A:GLU:543:OE2:4910, V-A:HIS:456:CE1:4070, V-A:GLY:454:CA:4049, V-B:TYR:539:CZ:9849, V-B:TYR:539:CE2:9848, V-A:TYR:484:CE2:4346, V-A:GLU:543:C:4902, V-B:GLU:543:C:9874, V-B:GLU:543:CB:9878, V-A:GLY:544:C:4912, V-A:GLU:543:CB:4906, V-B:HIS:456:CD2:9039, V-B:HIS:456:CE1:9041, V-A:SER:385:C:3405, H-A:LYS:547:NZ:4951, H-B:LYS:547:NZ:9923, V-A:GLY:544:CA:4914, V-A:LYS:547:CE:4950"]

$$$$
3ce_Grossjean_2025
     RDKit          3D

 45 47  0  0  0  0  0  0  0  0999 V2000
  132.0600  126.1120   57.8070 C   0  0  0  0  0  0  0  0  0  0  0  0
  132.6410  125.3590   58.9890 C   0  0  0  0  0  0  0  0  0  0  0  0
  133.7740  124.5520   58.8560 C   0  0  0  0  0  0  0  0  0  0  0  0
  134.2590  123.8980   59.9890 C   0  0  0  0  0  0  0  0  0  0  0  0
  133.6070  124.0630   61.2130 C   0  0  0  0  0  0  0  0  0  0  0  0
  132.4710  124.8780   61.2740 C   0  0  0  0  0  0  0  0  0  0  0  0
  131.8690  125.0220   62.5350 N   0  0  0  0  0  0  0  0  0  0  0  0
  132.4400  124.8960   63.7540 C   0  0  0  0  0  0  0  0  0  0  0  0
  133.6260  124.6300   63.9540 O   0  0  0  0  0  0  0  0  0  0  0  0
  131.5110  125.1160   64.9470 C   0  0  0  0  0  0  0  0  0  0  0  0
  129.7950  125.4090   64.4270 S   0  0  0  0  0  0  0  0  0  0  0  0
  129.1640  126.6570   65.5240 C   0  0  0  0  0  0  0  0  0  0  0  0
  128.7590  127.7890   64.8960 N   0  0  0  0  0  0  0  0  0  0  0  0
  128.2460  128.7940   65.6430 C   0  0  0  0  0  0  0  0  0  0  0  0
  127.8020  130.0250   64.8760 C   0  0  0  0  0  0  0  0  0  0  0  0
  128.1310  128.7160   67.0280 C   0  0  0  0  0  0  0  0  0  0  0  0
  128.5680  127.5650   67.6970 C   0  0  0  0  0  0  0  0  0  0  0  0
  128.4470  127.5380   69.1860 C   0  0  0  0  0  0  0  0  0  0  0  0
  129.4280  128.1420   69.9820 C   0  0  0  0  0  0  0  0  0  0  0  0
  129.3260  128.1160   71.3700 C   0  0  0  0  0  0  0  0  0  0  0  0
  128.2440  127.4780   71.9710 C   0  0  0  0  0  0  0  0  0  0  0  0
  127.2650  126.8640   71.1930 C   0  0  0  0  0  0  0  0  0  0  0  0
  127.3690  126.8930   69.8060 C   0  0  0  0  0  0  0  0  0  0  0  0
  129.0970  126.4980   66.9290 C   0  0  0  0  0  0  0  0  0  0  0  0
  129.5560  125.2620   67.5720 C   0  0  0  0  0  0  0  0  0  0  0  0
  129.9170  124.2880   68.0800 N   0  0  0  0  0  0  0  0  0  0  0  0
  131.9960  125.5270   60.1710 N   0  0  0  0  0  0  0  0  0  0  0  0
  131.4260  126.9337   58.1715 H   0  0  0  0  0  0  0  0  0  0  0  0
  132.8775  126.5228   57.1963 H   0  0  0  0  0  0  0  0  0  0  0  0
  131.4553  125.4255   57.1963 H   0  0  0  0  0  0  0  0  0  0  0  0
  134.2714  124.4352   57.8818 H   0  0  0  0  0  0  0  0  0  0  0  0
  135.1496  123.2562   59.9186 H   0  0  0  0  0  0  0  0  0  0  0  0
  133.9812  123.5594   62.1165 H   0  0  0  0  0  0  0  0  0  0  0  0
  130.9130  125.3450   62.5150 H   0  0  0  0  0  0  0  0  0  0  0  0
  131.5401  124.2235   65.5893 H   0  0  0  0  0  0  0  0  0  0  0  0
  131.8590  126.0075   65.4893 H   0  0  0  0  0  0  0  0  0  0  0  0
  127.5167  130.8159   65.5853 H   0  0  0  0  0  0  0  0  0  0  0  0
  128.6285  130.3806   64.2432 H   0  0  0  0  0  0  0  0  0  0  0  0
  126.9388  129.7712   64.2432 H   0  0  0  0  0  0  0  0  0  0  0  0
  127.6991  129.5540   67.5947 H   0  0  0  0  0  0  0  0  0  0  0  0
  130.2856  128.6407   69.5069 H   0  0  0  0  0  0  0  0  0  0  0  0
  130.0970  128.5975   71.9895 H   0  0  0  0  0  0  0  0  0  0  0  0
  128.1617  127.4587   73.0677 H   0  0  0  0  0  0  0  0  0  0  0  0
  126.4139  126.3587   71.6730 H   0  0  0  0  0  0  0  0  0  0  0  0
  126.5983  126.4054   69.1910 H   0  0  0  0  0  0  0  0  0  0  0  0
  1  2  1  0
  2  3  2  0
  3  4  1  0
  4  5  2  0
  5  6  1  0
  6  7  1  0
  7  8  1  0
  8  9  2  0
  8 10  1  0
 10 11  1  0
 11 12  1  0
 12 13  2  0
 13 14  1  0
 14 15  1  0
 14 16  2  0
 16 17  1  0
 17 18  1  0
 18 19  2  0
 19 20  1  0
 20 21  2  0
 21 22  1  0
 22 23  2  0
 17 24  2  0
 24 25  1  0
 25 26  3  0
  6 27  2  0
 27  2  1  0
 24 12  1  0
 23 18  1  0
  1 28  1  0
  1 29  1  0
  1 30  1  0
  3 31  1  0
  4 32  1  0
  5 33  1  0
  7 34  1  0
 10 35  1  0
 10 36  1  0
 15 37  1  0
 15 38  1  0
 15 39  1  0
 16 40  1  0
 19 41  1  0
 20 42  1  0
 21 43  1  0
 22 44  1  0
 23 45  1  0
M  END
>  <Binding energies>  (1) 
[-7.81]

>  <Ligand effiencies>  (1) 
[-0.2789285714285714]

>  <Interactions>  (1) 
["V-A:ILE:369:CG2:3237, V-A:ILE:369:CD1:3239, V-A:ASP:366:CB:3212, V-B:GLU:543:CD:9880, H-A:ARG:545:NH2:4928, H-A:GLY:454:N:4050, V-A:ASP:366:CA:3210, V-A:ASP:366:CG:3213, H-A:TYR:484:OH:4348, V-B:GLU:543:CG:9879, V-A:ILE:369:CB:3236, V-A:GLU:543:CD:4908, V-A:ARG:545:CZ:4926, V-A:HIS:456:CE1:4070, V-A:TYR:484:CE2:4346, V-A:GLU:543:C:4902, V-B:GLU:543:C:9874, V-B:GLU:543:CA:9876, V-B:GLU:543:CB:9878, V-A:GLU:543:CB:4906, V-B:HIS:456:CD2:9039, V-B:HIS:456:CE1:9041, V-B:GLY:544:C:9884, V-B:GLY:544:CA:9886, V-A:GLU:543:CG:4907, V-A:TYR:531:CZ:4794, V-A:ASP:366:C:3208, V-A:ILE:369:CG1:3238"]

$$$$
3ch_Grossjean_2025
     RDKit          3D

 55 57  0  0  0  0  0  0  0  0999 V2000
  124.0940  129.7860   66.6240 C   0  0  0  0  0  0  0  0  0  0  0  0
  123.8820  130.2040   65.2800 O   0  0  0  0  0  0  0  0  0  0  0  0
  124.8490  129.9440   64.3240 C   0  0  0  0  0  0  0  0  0  0  0  0
  125.9690  129.1270   64.5430 C   0  0  0  0  0  0  0  0  0  0  0  0
  126.9050  128.9010   63.5230 C   0  0  0  0  0  0  0  0  0  0  0  0
  128.0530  128.0950   63.6450 N   0  0  0  0  0  0  0  0  0  0  0  0
  128.6430  127.2910   62.7340 C   0  0  0  0  0  0  0  0  0  0  0  0
  128.2650  127.1270   61.5740 O   0  0  0  0  0  0  0  0  0  0  0  0
  129.9080  126.5750   63.2080 C   0  0  0  0  0  0  0  0  0  0  0  0
  129.9150  124.8180   62.7470 S   0  0  0  0  0  0  0  0  0  0  0  0
  129.6900  124.7690   60.9820 C   0  0  0  0  0  0  0  0  0  0  0  0
  130.7340  125.2750   60.2800 N   0  0  0  0  0  0  0  0  0  0  0  0
  130.6580  125.2910   58.9300 C   0  0  0  0  0  0  0  0  0  0  0  0
  131.8570  125.8750   58.2080 C   0  0  0  0  0  0  0  0  0  0  0  0
  129.5500  124.8110   58.2350 C   0  0  0  0  0  0  0  0  0  0  0  0
  128.4640  124.2780   58.9420 C   0  0  0  0  0  0  0  0  0  0  0  0
  127.2940  123.7840   58.1550 C   0  0  0  0  0  0  0  0  0  0  0  0
  127.4760  122.8280   57.1480 C   0  0  0  0  0  0  0  0  0  0  0  0
  126.3920  122.3690   56.4050 C   0  0  0  0  0  0  0  0  0  0  0  0
  125.1180  122.8690   56.6630 C   0  0  0  0  0  0  0  0  0  0  0  0
  124.9210  123.8250   57.6560 C   0  0  0  0  0  0  0  0  0  0  0  0
  126.0080  124.2820   58.3970 C   0  0  0  0  0  0  0  0  0  0  0  0
  128.5370  124.2360   60.3580 C   0  0  0  0  0  0  0  0  0  0  0  0
  127.4730  123.6030   61.1440 C   0  0  0  0  0  0  0  0  0  0  0  0
  126.6330  123.1060   61.7650 N   0  0  0  0  0  0  0  0  0  0  0  0
  126.7210  129.5170   62.2840 C   0  0  0  0  0  0  0  0  0  0  0  0
  125.6100  130.3410   62.0420 C   0  0  0  0  0  0  0  0  0  0  0  0
  125.3660  130.9740   60.8350 O   0  0  0  0  0  0  0  0  0  0  0  0
  124.7330  130.2540   59.7820 C   0  0  0  0  0  0  0  0  0  0  0  0
  124.6830  130.5480   63.0710 C   0  0  0  0  0  0  0  0  0  0  0  0
  123.5820  131.3380   62.8410 O   0  0  0  0  0  0  0  0  0  0  0  0
  123.8710  132.7270   62.7620 C   0  0  0  0  0  0  0  0  0  0  0  0
  123.7057  130.5517   67.3117 H   0  0  0  0  0  0  0  0  0  0  0  0
  123.5691  128.8354   66.7995 H   0  0  0  0  0  0  0  0  0  0  0  0
  125.1711  129.6479   66.7995 H   0  0  0  0  0  0  0  0  0  0  0  0
  126.1147  128.6579   65.5272 H   0  0  0  0  0  0  0  0  0  0  0  0
  128.5160  128.1690   64.5390 H   0  0  0  0  0  0  0  0  0  0  0  0
  130.7829  127.0638   62.7544 H   0  0  0  0  0  0  0  0  0  0  0  0
  129.9397  126.6364   64.3058 H   0  0  0  0  0  0  0  0  0  0  0  0
  132.5908  126.2324   58.9455 H   0  0  0  0  0  0  0  0  0  0  0  0
  132.3182  125.1006   57.5774 H   0  0  0  0  0  0  0  0  0  0  0  0
  131.5317  126.7156   57.5774 H   0  0  0  0  0  0  0  0  0  0  0  0
  129.5279  124.8503   57.1359 H   0  0  0  0  0  0  0  0  0  0  0  0
  128.4833  122.4367   56.9425 H   0  0  0  0  0  0  0  0  0  0  0  0
  126.5409  121.6151   55.6180 H   0  0  0  0  0  0  0  0  0  0  0  0
  124.2605  122.5057   56.0776 H   0  0  0  0  0  0  0  0  0  0  0  0
  123.9125  124.2171   57.8541 H   0  0  0  0  0  0  0  0  0  0  0  0
  125.8550  125.0405   59.1789 H   0  0  0  0  0  0  0  0  0  0  0  0
  127.4584  129.3543   61.4841 H   0  0  0  0  0  0  0  0  0  0  0  0
  124.0637  129.4927   60.2091 H   0  0  0  0  0  0  0  0  0  0  0  0
  124.1487  130.9496   59.1618 H   0  0  0  0  0  0  0  0  0  0  0  0
  125.4977  129.7636   59.1618 H   0  0  0  0  0  0  0  0  0  0  0  0
  123.9573  133.1419   63.7771 H   0  0  0  0  0  0  0  0  0  0  0  0
  124.8190  132.8742   62.2239 H   0  0  0  0  0  0  0  0  0  0  0  0
  123.0604  133.2402   62.2239 H   0  0  0  0  0  0  0  0  0  0  0  0
  1  2  1  0
  2  3  1  0
  3  4  2  0
  4  5  1  0
  5  6  1  0
  6  7  1  0
  7  8  2  0
  7  9  1  0
  9 10  1  0
 10 11  1  0
 11 12  2  0
 12 13  1  0
 13 14  1  0
 13 15  2  0
 15 16  1  0
 16 17  1  0
 17 18  2  0
 18 19  1  0
 19 20  2  0
 20 21  1  0
 21 22  2  0
 16 23  2  0
 23 24  1  0
 24 25  3  0
  5 26  2  0
 26 27  1  0
 27 28  1  0
 28 29  1  0
 27 30  2  0
 30 31  1  0
 31 32  1  0
 30  3  1  0
 23 11  1  0
 22 17  1  0
  1 33  1  0
  1 34  1  0
  1 35  1  0
  4 36  1  0
  6 37  1  0
  9 38  1  0
  9 39  1  0
 14 40  1  0
 14 41  1  0
 14 42  1  0
 15 43  1  0
 18 44  1  0
 19 45  1  0
 20 46  1  0
 21 47  1  0
 22 48  1  0
 26 49  1  0
 29 50  1  0
 29 51  1  0
 29 52  1  0
 32 53  1  0
 32 54  1  0
 32 55  1  0
M  END
>  <Binding energies>  (1) 
[-6.97]

>  <Ligand effiencies>  (1) 
[-0.2112121212121212]

>  <Interactions>  (1) 
["V-A:ASP:366:CB:3212, V-B:GLU:543:CD:9880, H-A:GLU:543:OE1:4909, V-A:GLU:543:CD:4908, H-A:GLU:543:OE2:4910, V-B:ASP:366:CB:8183, H-B:GLU:543:OE2:9882, V-B:TYR:539:C:9839, H-B:ALA:541:N:9863, V-B:PRO:540:CD:9859, V-B:ASP:366:CG:8184, V-B:PRO:540:CA:9855, V-B:PRO:540:CB:9857, V-B:PRO:540:N:9856, V-B:LEU:363:CD1:8160, V-B:MET:535:CE:9807, V-B:TYR:539:CZ:9849, V-B:TYR:539:CE2:9848, V-B:TYR:539:CD1:9845, V-B:TYR:539:CE1:9847, V-B:TYR:539:CD2:9846, V-B:TYR:539:CG:9844, V-B:HIS:456:CE1:9041, V-B:ARG:545:CZ:9898, H-B:TYR:484:OH:9319, V-B:TYR:484:CZ:9318, V-B:GLY:454:CA:9020, V-B:ARG:545:CD:9895, V-B:ARG:545:CG:9894, H-B:GLY:454:N:9021, H-B:ARG:545:NE:9896, V-B:TYR:484:CE1:9316"]

$$$$
3ci_Grossjean_2025
     RDKit          3D

 39 41  0  0  0  0  0  0  0  0999 V2000
  128.3290  122.0750   61.7230 C   0  0  0  0  0  0  0  0  0  0  0  0
  129.4570  122.7310   62.4980 C   0  0  0  0  0  0  0  0  0  0  0  0
  129.2080  123.5800   63.5720 C   0  0  0  0  0  0  0  0  0  0  0  0
  130.2840  124.1510   64.2670 C   0  0  0  0  0  0  0  0  0  0  0  0
  129.9700  125.0440   65.4220 C   0  0  0  0  0  0  0  0  0  0  0  0
  130.1920  124.6180   66.7380 C   0  0  0  0  0  0  0  0  0  0  0  0
  129.8900  125.4510   67.8120 C   0  0  0  0  0  0  0  0  0  0  0  0
  129.3560  126.7140   67.5740 C   0  0  0  0  0  0  0  0  0  0  0  0
  129.1200  127.1500   66.2720 C   0  0  0  0  0  0  0  0  0  0  0  0
  129.4240  126.3140   65.2010 C   0  0  0  0  0  0  0  0  0  0  0  0
  131.6010  123.8460   63.8380 C   0  0  0  0  0  0  0  0  0  0  0  0
  132.7640  124.4470   64.4990 C   0  0  0  0  0  0  0  0  0  0  0  0
  133.6820  124.9210   65.0230 N   0  0  0  0  0  0  0  0  0  0  0  0
  131.7640  122.9680   62.7390 C   0  0  0  0  0  0  0  0  0  0  0  0
  133.3780  122.4990   62.1280 S   0  0  0  0  0  0  0  0  0  0  0  0
  133.2470  122.0090   60.3780 C   0  0  0  0  0  0  0  0  0  0  0  0
  132.8530  120.5400   60.1850 C   0  0  0  0  0  0  0  0  0  0  0  0
  133.6350  119.7770   59.6140 O   0  0  0  0  0  0  0  0  0  0  0  0
  131.6360  120.1920   60.6580 N   0  0  0  0  0  0  0  0  0  0  0  0
  131.0550  118.9310   60.6370 C   0  0  0  0  0  0  0  0  0  0  0  0
  130.0930  118.5220   61.5600 C   0  0  0  0  0  0  0  0  0  0  0  0
  129.7810  117.2300   61.2030 C   0  0  0  0  0  0  0  0  0  0  0  0
  130.5160  116.8810   60.1200 O   0  0  0  0  0  0  0  0  0  0  0  0
  131.3210  117.9670   59.7720 N   0  0  0  0  0  0  0  0  0  0  0  0
  130.7060  122.4290   62.0810 N   0  0  0  0  0  0  0  0  0  0  0  0
  127.5987  121.6503   62.4274 H   0  0  0  0  0  0  0  0  0  0  0  0
  127.8339  122.8260   61.0899 H   0  0  0  0  0  0  0  0  0  0  0  0
  128.7369  121.2732   61.0899 H   0  0  0  0  0  0  0  0  0  0  0  0
  128.1738  123.8019   63.8740 H   0  0  0  0  0  0  0  0  0  0  0  0
  130.6084  123.6171   66.9244 H   0  0  0  0  0  0  0  0  0  0  0  0
  130.0724  125.1128   68.8427 H   0  0  0  0  0  0  0  0  0  0  0  0
  129.1182  127.3738   68.4214 H   0  0  0  0  0  0  0  0  0  0  0  0
  128.6960  128.1488   66.0913 H   0  0  0  0  0  0  0  0  0  0  0  0
  129.2336  126.6543   64.1724 H   0  0  0  0  0  0  0  0  0  0  0  0
  132.4866  122.6403   59.8951 H   0  0  0  0  0  0  0  0  0  0  0  0
  134.2425  122.1400   59.9287 H   0  0  0  0  0  0  0  0  0  0  0  0
  131.0890  120.9150   61.1010 H   0  0  0  0  0  0  0  0  0  0  0  0
  129.6742  119.1057   62.3930 H   0  0  0  0  0  0  0  0  0  0  0  0
  129.0520  116.5845   61.7148 H   0  0  0  0  0  0  0  0  0  0  0  0
  1  2  1  0
  2  3  2  0
  3  4  1  0
  4  5  1  0
  5  6  2  0
  6  7  1  0
  7  8  2  0
  8  9  1  0
  9 10  2  0
  4 11  2  0
 11 12  1  0
 12 13  3  0
 11 14  1  0
 14 15  1  0
 15 16  1  0
 16 17  1  0
 17 18  2  0
 17 19  1  0
 19 20  1  0
 20 21  1  0
 21 22  2  0
 22 23  1  0
 23 24  1  0
 14 25  2  0
 25  2  1  0
 10  5  1  0
 24 20  2  0
  1 26  1  0
  1 27  1  0
  1 28  1  0
  3 29  1  0
  6 30  1  0
  7 31  1  0
  8 32  1  0
  9 33  1  0
 10 34  1  0
 16 35  1  0
 16 36  1  0
 19 37  1  0
 21 38  1  0
 22 39  1  0
M  END
>  <Binding energies>  (1) 
[-7.91]

>  <Ligand effiencies>  (1) 
[-0.30423076923076925]

>  <Interactions>  (1) 
["V-A:ILE:369:CG2:3237, V-B:GLU:543:CD:9880, H-A:ARG:545:NH2:4928, H-A:GLY:454:N:4050, H-A:TYR:484:OH:4348, V-B:GLU:543:CG:9879, H-A:ARG:545:NE:4924, V-A:GLU:543:CD:4908, V-A:ARG:545:CZ:4926, V-A:LEU:475:CD2:4259, V-A:HIS:456:CE1:4070, V-B:ALA:541:CB:9864, V-B:PRO:540:CA:9855, V-B:TYR:539:CE2:9848, V-B:PRO:540:C:9853, V-B:TYR:539:CD2:9846, V-B:ALA:541:CA:9862, V-A:TYR:484:CE2:4346, V-B:GLU:543:CA:9876, V-A:TYR:484:CZ:4347, V-B:GLU:543:CB:9878, V-A:SER:385:CB:3409, V-A:PRO:482:CB:4326, V-A:PRO:482:CG:4327, V-A:HIS:383:NE2:3394, H-A:SER:385:OG:3410, V-A:LEU:475:CG:4257, V-A:LEU:475:CD1:4258, H-A:HIS:383:HE2:3395"]

$$$$
3cj_Grossjean_2025
     RDKit          3D

 39 41  0  0  0  0  0  0  0  0999 V2000
  128.4400  121.9980   61.6170 C   0  0  0  0  0  0  0  0  0  0  0  0
  129.5470  122.6560   62.4180 C   0  0  0  0  0  0  0  0  0  0  0  0
  129.2670  123.5490   63.4490 C   0  0  0  0  0  0  0  0  0  0  0  0
  130.3210  124.1170   64.1790 C   0  0  0  0  0  0  0  0  0  0  0  0
  129.9740  125.0180   65.3160 C   0  0  0  0  0  0  0  0  0  0  0  0
  129.4310  126.2860   65.0790 C   0  0  0  0  0  0  0  0  0  0  0  0
  129.1190  127.1310   66.1410 C   0  0  0  0  0  0  0  0  0  0  0  0
  129.3550  126.7110   67.4460 C   0  0  0  0  0  0  0  0  0  0  0  0
  129.9020  125.4560   67.6980 C   0  0  0  0  0  0  0  0  0  0  0  0
  130.2130  124.6130   66.6350 C   0  0  0  0  0  0  0  0  0  0  0  0
  131.6490  123.7830   63.8150 C   0  0  0  0  0  0  0  0  0  0  0  0
  132.7950  124.3660   64.5210 C   0  0  0  0  0  0  0  0  0  0  0  0
  133.6990  124.8260   65.0800 N   0  0  0  0  0  0  0  0  0  0  0  0
  131.8400  122.8650   62.7580 C   0  0  0  0  0  0  0  0  0  0  0  0
  133.4470  122.2580   62.2890 S   0  0  0  0  0  0  0  0  0  0  0  0
  133.3300  121.9650   60.4960 C   0  0  0  0  0  0  0  0  0  0  0  0
  132.8160  120.5570   60.1800 C   0  0  0  0  0  0  0  0  0  0  0  0
  133.5530  119.7560   59.6010 O   0  0  0  0  0  0  0  0  0  0  0  0
  131.5650  120.2880   60.6110 N   0  0  0  0  0  0  0  0  0  0  0  0
  130.9220  119.0610   60.5730 C   0  0  0  0  0  0  0  0  0  0  0  0
  131.0450  118.1130   59.6690 N   0  0  0  0  0  0  0  0  0  0  0  0
  130.3040  117.0640   59.9660 C   0  0  0  0  0  0  0  0  0  0  0  0
  129.5550  117.1490   61.1360 C   0  0  0  0  0  0  0  0  0  0  0  0
  129.8430  118.6940   61.8810 S   0  0  0  0  0  0  0  0  0  0  0  0
  130.8080  122.3040   62.0800 N   0  0  0  0  0  0  0  0  0  0  0  0
  127.7015  121.5590   62.3040 H   0  0  0  0  0  0  0  0  0  0  0  0
  127.9489  122.7509   60.9830 H   0  0  0  0  0  0  0  0  0  0  0  0
  128.8667  121.2068   60.9830 H   0  0  0  0  0  0  0  0  0  0  0  0
  128.2252  123.8074   63.6894 H   0  0  0  0  0  0  0  0  0  0  0  0
  129.2493  126.6176   64.0460 H   0  0  0  0  0  0  0  0  0  0  0  0
  128.6884  128.1249   65.9491 H   0  0  0  0  0  0  0  0  0  0  0  0
  129.1072  127.3764   68.2861 H   0  0  0  0  0  0  0  0  0  0  0  0
  130.0876  125.1319   68.7327 H   0  0  0  0  0  0  0  0  0  0  0  0
  130.6492  123.6226   66.8322 H   0  0  0  0  0  0  0  0  0  0  0  0
  132.6398  122.7019   60.0595 H   0  0  0  0  0  0  0  0  0  0  0  0
  134.3383  122.0641   60.0677 H   0  0  0  0  0  0  0  0  0  0  0  0
  131.0700  121.0270   61.0900 H   0  0  0  0  0  0  0  0  0  0  0  0
  130.2790  116.1708   59.3245 H   0  0  0  0  0  0  0  0  0  0  0  0
  128.8886  116.3657   61.5264 H   0  0  0  0  0  0  0  0  0  0  0  0
  1  2  1  0
  2  3  2  0
  3  4  1  0
  4  5  1  0
  5  6  2  0
  6  7  1  0
  7  8  2  0
  8  9  1  0
  9 10  2  0
  4 11  2  0
 11 12  1  0
 12 13  3  0
 11 14  1  0
 14 15  1  0
 15 16  1  0
 16 17  1  0
 17 18  2  0
 17 19  1  0
 19 20  1  0
 20 21  2  0
 21 22  1  0
 22 23  2  0
 23 24  1  0
 14 25  2  0
 25  2  1  0
 10  5  1  0
 24 20  1  0
  1 26  1  0
  1 27  1  0
  1 28  1  0
  3 29  1  0
  6 30  1  0
  7 31  1  0
  8 32  1  0
  9 33  1  0
 10 34  1  0
 16 35  1  0
 16 36  1  0
 19 37  1  0
 22 38  1  0
 23 39  1  0
M  END
>  <Binding energies>  (1) 
[-7.79]

>  <Ligand effiencies>  (1) 
[-0.2996153846153846]

>  <Interactions>  (1) 
["V-A:ILE:369:CG2:3237, V-B:GLU:543:CD:9880, H-A:ARG:545:NH2:4928, H-A:GLY:454:N:4050, H-A:TYR:484:OH:4348, V-B:GLU:543:CG:9879, H-A:ARG:545:NE:4924, V-A:GLU:543:CD:4908, V-A:LEU:475:CD2:4259, V-A:HIS:456:CE1:4070, V-B:ALA:541:CB:9864, V-B:TYR:539:C:9839, V-B:PRO:540:CA:9855, V-B:TYR:539:CE2:9848, V-B:PRO:540:C:9853, V-B:TYR:539:CD2:9846, V-B:ALA:541:CA:9862, V-A:TYR:484:CE2:4346, V-B:GLU:543:CA:9876, V-A:TYR:484:CZ:4347, V-B:GLU:543:CB:9878, V-A:SER:385:CB:3409, V-A:PRO:482:CB:4326, V-A:HIS:383:CE1:3393, V-A:PRO:482:CG:4327, V-A:HIS:383:NE2:3394, H-A:SER:385:OG:3410, V-A:LEU:475:CG:4257, V-A:LEU:475:CD1:4258, V-B:VAL:344:CG1:7972, H-A:HIS:383:HE2:3395, V-B:TYR:539:CB:9843"]

$$$$
3ck_Grossjean_2025
     RDKit          3D

 57 58  0  0  0  0  0  0  0  0999 V2000
  129.2650  133.1240   57.6140 C   0  0  0  0  0  0  0  0  0  0  0  0
  130.5220  133.2510   56.9680 O   0  0  0  0  0  0  0  0  0  0  0  0
  131.1970  132.0130   56.7960 C   0  0  0  0  0  0  0  0  0  0  0  0
  131.9040  131.6280   58.1020 C   0  0  0  0  0  0  0  0  0  0  0  0
  131.0770  130.7360   58.8390 O   0  0  0  0  0  0  0  0  0  0  0  0
  131.2980  129.3640   58.5410 C   0  0  0  0  0  0  0  0  0  0  0  0
  131.0110  128.5260   59.7930 C   0  0  0  0  0  0  0  0  0  0  0  0
  130.7890  127.1830   59.3910 O   0  0  0  0  0  0  0  0  0  0  0  0
  130.9640  126.9390   58.0030 C   0  0  0  0  0  0  0  0  0  0  0  0
  132.3110  126.2290   57.7700 C   0  0  0  0  0  0  0  0  0  0  0  0
  132.6910  125.3160   58.8520 N   0  0  0  0  0  0  0  0  0  0  0  0
  133.4670  124.2250   58.7210 C   0  0  0  0  0  0  0  0  0  0  0  0
  133.9770  123.8830   57.6520 O   0  0  0  0  0  0  0  0  0  0  0  0
  133.6930  123.4150   60.0070 C   0  0  0  0  0  0  0  0  0  0  0  0
  133.7540  124.3930   61.5480 S   0  0  0  0  0  0  0  0  0  0  0  0
  132.0880  124.6740   62.1290 C   0  0  0  0  0  0  0  0  0  0  0  0
  131.1180  124.6050   61.1820 N   0  0  0  0  0  0  0  0  0  0  0  0
  129.8340  124.8120   61.5510 C   0  0  0  0  0  0  0  0  0  0  0  0
  128.8070  124.7210   60.4390 C   0  0  0  0  0  0  0  0  0  0  0  0
  129.4670  125.0940   62.8640 C   0  0  0  0  0  0  0  0  0  0  0  0
  130.4520  125.1770   63.8560 C   0  0  0  0  0  0  0  0  0  0  0  0
  130.0130  125.5050   65.2460 C   0  0  0  0  0  0  0  0  0  0  0  0
  129.3520  126.7110   65.5080 C   0  0  0  0  0  0  0  0  0  0  0  0
  128.9490  127.0280   66.8040 C   0  0  0  0  0  0  0  0  0  0  0  0
  129.2130  126.1410   67.8440 C   0  0  0  0  0  0  0  0  0  0  0  0
  129.8780  124.9420   67.6000 C   0  0  0  0  0  0  0  0  0  0  0  0
  130.2790  124.6280   66.3050 C   0  0  0  0  0  0  0  0  0  0  0  0
  131.8020  124.9500   63.4860 C   0  0  0  0  0  0  0  0  0  0  0  0
  132.8710  124.9820   64.4910 C   0  0  0  0  0  0  0  0  0  0  0  0
  133.7140  125.0070   65.2840 N   0  0  0  0  0  0  0  0  0  0  0  0
  129.4099  133.1386   58.7043 H   0  0  0  0  0  0  0  0  0  0  0  0
  128.6150  133.9610   57.3192 H   0  0  0  0  0  0  0  0  0  0  0  0
  128.7956  132.1739   57.3192 H   0  0  0  0  0  0  0  0  0  0  0  0
  130.4689  131.2326   56.5298 H   0  0  0  0  0  0  0  0  0  0  0  0
  131.9414  132.1108   55.9921 H   0  0  0  0  0  0  0  0  0  0  0  0
  132.8604  131.1362   57.8709 H   0  0  0  0  0  0  0  0  0  0  0  0
  132.0939  132.5324   58.6987 H   0  0  0  0  0  0  0  0  0  0  0  0
  130.6277  129.0513   57.7268 H   0  0  0  0  0  0  0  0  0  0  0  0
  132.3420  129.2163   58.2275 H   0  0  0  0  0  0  0  0  0  0  0  0
  131.8718  128.5720   60.4763 H   0  0  0  0  0  0  0  0  0  0  0  0
  130.1245  128.9163   60.3144 H   0  0  0  0  0  0  0  0  0  0  0  0
  130.1457  126.3013   57.6372 H   0  0  0  0  0  0  0  0  0  0  0  0
  130.9559  127.8954   57.4597 H   0  0  0  0  0  0  0  0  0  0  0  0
  132.2421  125.6514   56.8364 H   0  0  0  0  0  0  0  0  0  0  0  0
  133.0829  127.0113   57.7237 H   0  0  0  0  0  0  0  0  0  0  0  0
  132.3250  125.5350   59.7670 H   0  0  0  0  0  0  0  0  0  0  0  0
  132.8727  122.6879   60.0987 H   0  0  0  0  0  0  0  0  0  0  0  0
  134.6850  122.9513   59.9028 H   0  0  0  0  0  0  0  0  0  0  0  0
  127.8011  124.6319   60.8752 H   0  0  0  0  0  0  0  0  0  0  0  0
  128.8582  125.6272   59.8176 H   0  0  0  0  0  0  0  0  0  0  0  0
  129.0167  123.8379   59.8176 H   0  0  0  0  0  0  0  0  0  0  0  0
  128.4090  125.2508   63.1209 H   0  0  0  0  0  0  0  0  0  0  0  0
  129.1494  127.4129   64.6857 H   0  0  0  0  0  0  0  0  0  0  0  0
  128.4250  127.9742   67.0041 H   0  0  0  0  0  0  0  0  0  0  0  0
  128.8937  126.3893   68.8669 H   0  0  0  0  0  0  0  0  0  0  0  0
  130.0852  124.2467   68.4268 H   0  0  0  0  0  0  0  0  0  0  0  0
  130.8090  123.6837   66.1116 H   0  0  0  0  0  0  0  0  0  0  0  0
  1  2  1  0
  2  3  1  0
  3  4  1  0
  4  5  1  0
  5  6  1  0
  6  7  1  0
  7  8  1  0
  8  9  1  0
  9 10  1  0
 10 11  1  0
 11 12  1  0
 12 13  2  0
 12 14  1  0
 14 15  1  0
 15 16  1  0
 16 17  2  0
 17 18  1  0
 18 19  1  0
 18 20  2  0
 20 21  1  0
 21 22  1  0
 22 23  2  0
 23 24  1  0
 24 25  2  0
 25 26  1  0
 26 27  2  0
 21 28  2  0
 28 29  1  0
 29 30  3  0
 28 16  1  0
 27 22  1  0
  1 31  1  0
  1 32  1  0
  1 33  1  0
  3 34  1  0
  3 35  1  0
  4 36  1  0
  4 37  1  0
  6 38  1  0
  6 39  1  0
  7 40  1  0
  7 41  1  0
  9 42  1  0
  9 43  1  0
 10 44  1  0
 10 45  1  0
 11 46  1  0
 14 47  1  0
 14 48  1  0
 19 49  1  0
 19 50  1  0
 19 51  1  0
 20 52  1  0
 23 53  1  0
 24 54  1  0
 25 55  1  0
 26 56  1  0
 27 57  1  0
M  END
>  <Binding energies>  (1) 
[-6.35]

>  <Ligand effiencies>  (1) 
[-0.20483870967741935]

>  <Interactions>  (1) 
["V-A:ILE:369:CG2:3237, V-A:ILE:369:CD1:3239, V-A:ASP:366:CB:3212, V-B:GLU:543:CD:9880, H-A:ARG:545:NH2:4928, H-A:GLY:454:N:4050, V-A:ASP:366:CA:3210, V-A:ASP:366:CG:3213, H-A:TYR:484:OH:4348, V-B:GLU:543:CG:9879, H-A:ARG:545:NE:4924, V-A:ILE:369:CB:3236, V-A:GLU:543:CD:4908, V-A:ARG:545:CZ:4926, V-A:HIS:456:CE1:4070, H-A:ASP:366:OD1:3214, V-B:TYR:539:CZ:9849, V-B:TYR:539:CE2:9848, V-A:TYR:484:CE2:4346, V-B:GLU:543:CA:9876, V-A:TYR:484:CZ:4347, V-B:GLU:543:CB:9878, V-A:PRO:540:CB:4885, V-A:LEU:363:CD1:3189, V-A:TYR:531:CZ:4794, V-A:PRO:540:N:4884, H-B:TYR:539:OH:9850, V-A:TYR:539:CG:4872, V-A:TYR:539:CD1:4873, H-A:TYR:539:N:4870, V-A:TYR:539:CA:4869, V-A:TYR:539:C:4867, H-A:ASN:370:N:3244"]

$$$$
4aa_Grossjean_2025
     RDKit          3D

 45 47  0  0  0  0  0  0  0  0999 V2000
  126.4170  128.3910   74.5800 C   0  0  0  0  0  0  0  0  0  0  0  0
  126.8810  127.6780   73.3070 C   0  0  0  0  0  0  0  0  0  0  0  0
  128.2830  127.4520   73.3750 O   0  0  0  0  0  0  0  0  0  0  0  0
  129.1530  128.2330   72.6840 C   0  0  0  0  0  0  0  0  0  0  0  0
  129.6830  129.2450   73.1560 O   0  0  0  0  0  0  0  0  0  0  0  0
  129.4060  127.7460   71.2870 C   0  0  0  0  0  0  0  0  0  0  0  0
  130.6100  128.0800   70.6530 C   0  0  0  0  0  0  0  0  0  0  0  0
  130.8710  127.6490   69.3550 C   0  0  0  0  0  0  0  0  0  0  0  0
  129.9400  126.8680   68.6690 C   0  0  0  0  0  0  0  0  0  0  0  0
  130.3020  126.4940   67.3600 N   0  0  0  0  0  0  0  0  0  0  0  0
  130.3220  125.2720   66.7750 C   0  0  0  0  0  0  0  0  0  0  0  0
  130.0470  124.2220   67.3560 O   0  0  0  0  0  0  0  0  0  0  0  0
  130.7290  125.2590   65.3690 C   0  0  0  0  0  0  0  0  0  0  0  0
  129.5190  125.4050   64.0910 S   0  0  0  0  0  0  0  0  0  0  0  0
  130.7440  125.2620   62.8510 C   0  0  0  0  0  0  0  0  0  0  0  0
  130.4410  125.3010   61.5520 N   0  0  0  0  0  0  0  0  0  0  0  0
  131.4840  125.1750   60.6950 C   0  0  0  0  0  0  0  0  0  0  0  0
  131.1170  125.2170   59.2220 C   0  0  0  0  0  0  0  0  0  0  0  0
  132.8070  125.0150   61.1010 C   0  0  0  0  0  0  0  0  0  0  0  0
  133.1210  124.9750   62.4640 C   0  0  0  0  0  0  0  0  0  0  0  0
  134.5790  124.7990   62.8580 C   0  0  0  0  0  0  0  0  0  0  0  0
  132.0540  125.1010   63.3940 C   0  0  0  0  0  0  0  0  0  0  0  0
  132.0160  125.0980   64.8320 C   0  0  0  0  0  0  0  0  0  0  0  0
  133.1490  124.9530   65.5930 N   0  0  0  0  0  0  0  0  0  0  0  0
  128.7290  126.5330   69.2920 C   0  0  0  0  0  0  0  0  0  0  0  0
  128.4680  126.9690   70.5890 C   0  0  0  0  0  0  0  0  0  0  0  0
  126.7762  127.8390   75.4611 H   0  0  0  0  0  0  0  0  0  0  0  0
  126.8235  129.4130   74.5968 H   0  0  0  0  0  0  0  0  0  0  0  0
  125.3179  128.4332   74.5968 H   0  0  0  0  0  0  0  0  0  0  0  0
  126.3583  126.7145   73.2150 H   0  0  0  0  0  0  0  0  0  0  0  0
  126.6524  128.3040   72.4319 H   0  0  0  0  0  0  0  0  0  0  0  0
  131.3559  128.6883   71.1856 H   0  0  0  0  0  0  0  0  0  0  0  0
  131.8172  127.9259   68.8671 H   0  0  0  0  0  0  0  0  0  0  0  0
  130.6050  127.2630   66.7800 H   0  0  0  0  0  0  0  0  0  0  0  0
  130.0290  125.3415   59.1186 H   0  0  0  0  0  0  0  0  0  0  0  0
  131.6302  126.0623   58.7402 H   0  0  0  0  0  0  0  0  0  0  0  0
  131.4260  124.2776   58.7402 H   0  0  0  0  0  0  0  0  0  0  0  0
  133.6050  124.9201   60.3499 H   0  0  0  0  0  0  0  0  0  0  0  0
  134.6638  124.7888   63.9547 H   0  0  0  0  0  0  0  0  0  0  0  0
  134.9564  123.8488   62.4522 H   0  0  0  0  0  0  0  0  0  0  0  0
  135.1716  125.6321   62.4522 H   0  0  0  0  0  0  0  0  0  0  0  0
  134.0680  125.1500   65.2240 H   0  0  0  0  0  0  0  0  0  0  0  0
  133.1010  124.6420   66.5530 H   0  0  0  0  0  0  0  0  0  0  0  0
  127.9848  125.9256   68.7561 H   0  0  0  0  0  0  0  0  0  0  0  0
  127.5164  126.7015   71.0716 H   0  0  0  0  0  0  0  0  0  0  0  0
  1  2  1  0
  2  3  1  0
  3  4  1  0
  4  5  2  0
  4  6  1  0
  6  7  2  0
  7  8  1  0
  8  9  2  0
  9 10  1  0
 10 11  1  0
 11 12  2  0
 11 13  1  0
 13 14  1  0
 14 15  1  0
 15 16  2  0
 16 17  1  0
 17 18  1  0
 17 19  2  0
 19 20  1  0
 20 21  1  0
 20 22  2  0
 22 23  1  0
 23 24  1  0
  9 25  1  0
 25 26  2  0
 26  6  1  0
 23 13  2  0
 22 15  1  0
  1 27  1  0
  1 28  1  0
  1 29  1  0
  2 30  1  0
  2 31  1  0
  7 32  1  0
  8 33  1  0
 10 34  1  0
 18 35  1  0
 18 36  1  0
 18 37  1  0
 19 38  1  0
 21 39  1  0
 21 40  1  0
 21 41  1  0
 24 42  1  0
 24 43  1  0
 25 44  1  0
 26 45  1  0
M  END
>  <Binding energies>  (1) 
[-7.04]

>  <Ligand effiencies>  (1) 
[-0.24275862068965517]

>  <Interactions>  (1) 
["V-A:ILE:369:CD1:3239, V-A:GLY:453:C:4042, V-B:GLU:543:CD:9880, V-A:GLY:453:CA:4044, V-A:ASP:366:CG:3213, H-A:GLU:543:OE1:4909, H-A:TYR:484:OH:4348, V-B:GLU:543:CG:9879, V-A:GLU:543:CD:4908, V-A:ARG:545:CZ:4926, H-A:GLU:543:OE2:4910, V-A:HIS:456:CE1:4070, V-B:TYR:539:CE2:9848, V-A:TYR:484:CE2:4346, V-A:GLU:543:C:4902, V-B:GLU:543:C:9874, V-A:TYR:484:CZ:4347, V-B:GLU:543:CB:9878, V-A:GLY:544:C:4912, V-A:GLU:543:CB:4906, V-B:HIS:456:CD2:9039, V-B:HIS:456:CE1:9041, V-B:GLY:544:C:9884, V-B:LYS:547:CE:9922, V-B:HIS:456:CG:9037, V-A:ARG:545:CD:4923, H-A:LYS:547:NZ:4951, H-B:LYS:547:NZ:9923, V-B:HIS:456:CB:9036"]

$$$$
4ab_Grossjean_2025
     RDKit          3D

 42 44  0  0  0  0  0  0  0  0999 V2000
  129.4880  130.7090   73.1410 C   0  0  0  0  0  0  0  0  0  0  0  0
  129.9630  129.3760   73.0180 O   0  0  0  0  0  0  0  0  0  0  0  0
  129.1280  128.3680   72.6600 C   0  0  0  0  0  0  0  0  0  0  0  0
  128.2550  127.9090   73.4040 O   0  0  0  0  0  0  0  0  0  0  0  0
  129.3770  127.8580   71.2690 C   0  0  0  0  0  0  0  0  0  0  0  0
  130.6140  128.1100   70.6600 C   0  0  0  0  0  0  0  0  0  0  0  0
  130.8730  127.6520   69.3710 C   0  0  0  0  0  0  0  0  0  0  0  0
  129.9100  126.9290   68.6690 C   0  0  0  0  0  0  0  0  0  0  0  0
  130.2760  126.5220   67.3720 N   0  0  0  0  0  0  0  0  0  0  0  0
  130.2530  125.2920   66.8030 C   0  0  0  0  0  0  0  0  0  0  0  0
  129.9210  124.2630   67.3920 O   0  0  0  0  0  0  0  0  0  0  0  0
  130.6840  125.2440   65.4050 C   0  0  0  0  0  0  0  0  0  0  0  0
  129.4920  125.3070   64.1040 S   0  0  0  0  0  0  0  0  0  0  0  0
  130.7420  125.1610   62.8880 C   0  0  0  0  0  0  0  0  0  0  0  0
  130.4600  125.1440   61.5850 N   0  0  0  0  0  0  0  0  0  0  0  0
  131.5200  125.0230   60.7480 C   0  0  0  0  0  0  0  0  0  0  0  0
  131.1770  125.0010   59.2700 C   0  0  0  0  0  0  0  0  0  0  0  0
  132.8410  124.9240   61.1800 C   0  0  0  0  0  0  0  0  0  0  0  0
  133.1320  124.9420   62.5490 C   0  0  0  0  0  0  0  0  0  0  0  0
  134.5900  124.8280   62.9700 C   0  0  0  0  0  0  0  0  0  0  0  0
  132.0470  125.0620   63.4580 C   0  0  0  0  0  0  0  0  0  0  0  0
  131.9840  125.1060   64.8940 C   0  0  0  0  0  0  0  0  0  0  0  0
  133.1070  125.0230   65.6780 N   0  0  0  0  0  0  0  0  0  0  0  0
  128.6660  126.6770   69.2690 C   0  0  0  0  0  0  0  0  0  0  0  0
  128.4070  127.1370   70.5570 C   0  0  0  0  0  0  0  0  0  0  0  0
  129.3955  130.9685   74.2059 H   0  0  0  0  0  0  0  0  0  0  0  0
  130.1963  131.3969   72.6562 H   0  0  0  0  0  0  0  0  0  0  0  0
  128.5043  130.7939   72.6562 H   0  0  0  0  0  0  0  0  0  0  0  0
  131.3858  128.6738   71.2045 H   0  0  0  0  0  0  0  0  0  0  0  0
  131.8458  127.8625   68.9026 H   0  0  0  0  0  0  0  0  0  0  0  0
  130.6200  127.2700   66.7890 H   0  0  0  0  0  0  0  0  0  0  0  0
  130.0861  124.9310   59.1478 H   0  0  0  0  0  0  0  0  0  0  0  0
  131.5407  125.9243   58.7954 H   0  0  0  0  0  0  0  0  0  0  0  0
  131.6556  124.1317   58.7954 H   0  0  0  0  0  0  0  0  0  0  0  0
  133.6547  124.8318   60.4456 H   0  0  0  0  0  0  0  0  0  0  0  0
  134.6553  124.8229   64.0681 H   0  0  0  0  0  0  0  0  0  0  0  0
  135.0143  123.8939   62.5731 H   0  0  0  0  0  0  0  0  0  0  0  0
  135.1543  125.6848   62.5731 H   0  0  0  0  0  0  0  0  0  0  0  0
  134.0080  125.3460   65.3560 H   0  0  0  0  0  0  0  0  0  0  0  0
  133.0700  124.6280   66.6080 H   0  0  0  0  0  0  0  0  0  0  0  0
  127.8952  126.1155   68.7207 H   0  0  0  0  0  0  0  0  0  0  0  0
  127.4310  126.9329   71.0216 H   0  0  0  0  0  0  0  0  0  0  0  0
  1  2  1  0
  2  3  1  0
  3  4  2  0
  3  5  1  0
  5  6  2  0
  6  7  1  0
  7  8  2  0
  8  9  1  0
  9 10  1  0
 10 11  2  0
 10 12  1  0
 12 13  1  0
 13 14  1  0
 14 15  2  0
 15 16  1  0
 16 17  1  0
 16 18  2  0
 18 19  1  0
 19 20  1  0
 19 21  2  0
 21 22  1  0
 22 23  1  0
  8 24  1  0
 24 25  2  0
 25  5  1  0
 22 12  2  0
 21 14  1  0
  1 26  1  0
  1 27  1  0
  1 28  1  0
  6 29  1  0
  7 30  1  0
  9 31  1  0
 17 32  1  0
 17 33  1  0
 17 34  1  0
 18 35  1  0
 20 36  1  0
 20 37  1  0
 20 38  1  0
 23 39  1  0
 23 40  1  0
 24 41  1  0
 25 42  1  0
M  END
>  <Binding energies>  (1) 
[-7.06]

>  <Ligand effiencies>  (1) 
[-0.2521428571428571]

>  <Interactions>  (1) 
["V-A:GLY:453:C:4042, V-B:GLU:543:CD:9880, V-A:GLY:453:CA:4044, V-A:ASP:366:CG:3213, H-A:GLU:543:OE1:4909, H-A:TYR:484:OH:4348, V-B:GLU:543:CG:9879, V-A:GLU:543:CD:4908, V-A:ARG:545:CZ:4926, H-A:GLU:543:OE2:4910, V-A:HIS:456:CE1:4070, V-B:TYR:539:CE2:9848, V-A:TYR:484:CE2:4346, V-A:GLU:543:C:4902, V-B:GLU:543:C:9874, V-A:TYR:484:CZ:4347, V-B:GLU:543:CB:9878, V-A:GLY:544:C:4912, V-A:GLU:543:CB:4906, V-B:HIS:456:CD2:9039, V-B:HIS:456:CE1:9041, V-A:ARG:545:CD:4923, H-A:LYS:547:NZ:4951, H-B:LYS:547:NZ:9923, V-A:LYS:547:CE:4950"]

$$$$
4ac_Grossjean_2025
     RDKit          3D

 40 42  0  0  0  0  0  0  0  0999 V2000
  126.6970  122.7590   57.0920 C   0  0  0  0  0  0  0  0  0  0  0  0
  127.7980  122.2180   57.8140 O   0  0  0  0  0  0  0  0  0  0  0  0
  128.0640  122.6850   59.0870 C   0  0  0  0  0  0  0  0  0  0  0  0
  127.4710  123.8950   59.4430 C   0  0  0  0  0  0  0  0  0  0  0  0
  127.6810  124.4440   60.7050 C   0  0  0  0  0  0  0  0  0  0  0  0
  128.4820  123.7800   61.6350 C   0  0  0  0  0  0  0  0  0  0  0  0
  128.6480  124.4160   62.8790 N   0  0  0  0  0  0  0  0  0  0  0  0
  129.7890  124.7080   63.5480 C   0  0  0  0  0  0  0  0  0  0  0  0
  130.9170  124.4080   63.1500 O   0  0  0  0  0  0  0  0  0  0  0  0
  129.6100  125.4160   64.8180 C   0  0  0  0  0  0  0  0  0  0  0  0
  130.0140  124.6270   66.3430 S   0  0  0  0  0  0  0  0  0  0  0  0
  129.5370  126.0410   67.2560 C   0  0  0  0  0  0  0  0  0  0  0  0
  129.6120  126.0810   68.5860 N   0  0  0  0  0  0  0  0  0  0  0  0
  129.2110  127.2360   69.1710 C   0  0  0  0  0  0  0  0  0  0  0  0
  129.3060  127.2620   70.6850 C   0  0  0  0  0  0  0  0  0  0  0  0
  128.7390  128.3400   68.4620 C   0  0  0  0  0  0  0  0  0  0  0  0
  128.6610  128.2940   67.0660 C   0  0  0  0  0  0  0  0  0  0  0  0
  128.1390  129.5240   66.3380 C   0  0  0  0  0  0  0  0  0  0  0  0
  129.0750  127.1000   66.4180 C   0  0  0  0  0  0  0  0  0  0  0  0
  129.1290  126.7170   65.0320 C   0  0  0  0  0  0  0  0  0  0  0  0
  128.7390  127.5630   64.0240 N   0  0  0  0  0  0  0  0  0  0  0  0
  129.0930  122.5680   61.2810 C   0  0  0  0  0  0  0  0  0  0  0  0
  128.8810  122.0230   60.0170 C   0  0  0  0  0  0  0  0  0  0  0  0
  125.9413  123.1303   57.7998 H   0  0  0  0  0  0  0  0  0  0  0  0
  127.0455  123.5885   56.4591 H   0  0  0  0  0  0  0  0  0  0  0  0
  126.2534  121.9763   56.4591 H   0  0  0  0  0  0  0  0  0  0  0  0
  126.8308  124.4214   58.7198 H   0  0  0  0  0  0  0  0  0  0  0  0
  127.2141  125.4041   60.9699 H   0  0  0  0  0  0  0  0  0  0  0  0
  127.7840  124.6560   63.3460 H   0  0  0  0  0  0  0  0  0  0  0  0
  128.3308  126.9951   71.1182 H   0  0  0  0  0  0  0  0  0  0  0  0
  130.0651  126.5386   71.0172 H   0  0  0  0  0  0  0  0  0  0  0  0
  129.5910  128.2712   71.0172 H   0  0  0  0  0  0  0  0  0  0  0  0
  128.4279  129.2473   69.0005 H   0  0  0  0  0  0  0  0  0  0  0  0
  127.8194  130.2771   67.0733 H   0  0  0  0  0  0  0  0  0  0  0  0
  128.9369  129.9429   65.7072 H   0  0  0  0  0  0  0  0  0  0  0  0
  127.2834  129.2411   65.7072 H   0  0  0  0  0  0  0  0  0  0  0  0
  129.4060  128.0950   63.4860 H   0  0  0  0  0  0  0  0  0  0  0  0
  127.7640  127.6780   63.7850 H   0  0  0  0  0  0  0  0  0  0  0  0
  129.7401  122.0476   62.0023 H   0  0  0  0  0  0  0  0  0  0  0  0
  129.3563  121.0687   59.7460 H   0  0  0  0  0  0  0  0  0  0  0  0
  1  2  1  0
  2  3  1  0
  3  4  2  0
  4  5  1  0
  5  6  2  0
  6  7  1  0
  7  8  1  0
  8  9  2  0
  8 10  1  0
 10 11  1  0
 11 12  1  0
 12 13  2  0
 13 14  1  0
 14 15  1  0
 14 16  2  0
 16 17  1  0
 17 18  1  0
 17 19  2  0
 19 20  1  0
 20 21  1  0
  6 22  1  0
 22 23  2  0
 23  3  1  0
 20 10  2  0
 19 12  1  0
  1 24  1  0
  1 25  1  0
  1 26  1  0
  4 27  1  0
  5 28  1  0
  7 29  1  0
 15 30  1  0
 15 31  1  0
 15 32  1  0
 16 33  1  0
 18 34  1  0
 18 35  1  0
 18 36  1  0
 21 37  1  0
 21 38  1  0
 22 39  1  0
 23 40  1  0
M  END
>  <Binding energies>  (1) 
[-6.11]

>  <Ligand effiencies>  (1) 
[-0.23500000000000001]

>  <Interactions>  (1) 
["V-B:GLU:543:CD:9880, H-A:GLU:543:OE1:4909, V-B:GLU:543:CG:9879, V-A:GLU:543:CD:4908, H-A:GLU:543:OE2:4910, V-A:HIS:456:CE1:4070, H-B:GLU:543:OE2:9882, V-B:TYR:539:C:9839, H-B:GLU:543:OE1:9881, V-B:PRO:540:CD:9859, V-B:PRO:540:CA:9855, V-B:PRO:540:N:9856, V-B:TYR:539:CE2:9848, H-B:TYR:539:N:9842, V-B:TYR:539:CD2:9846, V-A:TYR:484:CE2:4346, V-A:TYR:484:CZ:4347, V-B:GLU:543:CB:9878, V-A:GLU:543:CB:4906, V-B:HIS:456:CE1:9041, V-A:GLU:543:CG:4907, V-B:TYR:484:CZ:9318"]

$$$$
4ad_Grossjean_2025
     RDKit          3D

 36 38  0  0  0  0  0  0  0  0999 V2000
  123.6750  133.3140   61.9220 C   0  0  0  0  0  0  0  0  0  0  0  0
  124.3320  131.9520   61.8060 C   0  0  0  0  0  0  0  0  0  0  0  0
  124.7220  131.2430   62.9410 C   0  0  0  0  0  0  0  0  0  0  0  0
  125.3290  129.9890   62.8090 C   0  0  0  0  0  0  0  0  0  0  0  0
  125.7390  129.2550   64.0770 C   0  0  0  0  0  0  0  0  0  0  0  0
  125.5260  129.4820   61.4960 C   0  0  0  0  0  0  0  0  0  0  0  0
  126.1020  128.2600   61.0050 C   0  0  0  0  0  0  0  0  0  0  0  0
  126.5980  127.2950   61.8460 N   0  0  0  0  0  0  0  0  0  0  0  0
  126.1060  128.1530   59.6050 C   0  0  0  0  0  0  0  0  0  0  0  0
  126.6250  127.0630   58.7750 C   0  0  0  0  0  0  0  0  0  0  0  0
  127.6940  127.1860   58.1740 O   0  0  0  0  0  0  0  0  0  0  0  0
  125.8580  125.9460   58.7380 N   0  0  0  0  0  0  0  0  0  0  0  0
  126.0480  124.7530   58.0130 C   0  0  0  0  0  0  0  0  0  0  0  0
  127.3380  124.2140   58.0510 C   0  0  0  0  0  0  0  0  0  0  0  0
  127.6240  123.0320   57.3740 C   0  0  0  0  0  0  0  0  0  0  0  0
  126.6170  122.3810   56.6660 C   0  0  0  0  0  0  0  0  0  0  0  0
  125.3250  122.9010   56.6320 C   0  0  0  0  0  0  0  0  0  0  0  0
  125.0360  124.0840   57.3070 C   0  0  0  0  0  0  0  0  0  0  0  0
  125.3830  129.5770   58.8560 S   0  0  0  0  0  0  0  0  0  0  0  0
  125.0830  130.3050   60.4170 C   0  0  0  0  0  0  0  0  0  0  0  0
  124.5040  131.5010   60.5400 N   0  0  0  0  0  0  0  0  0  0  0  0
  123.5506  133.5718   62.9841 H   0  0  0  0  0  0  0  0  0  0  0  0
  124.3079  134.0692   61.4330 H   0  0  0  0  0  0  0  0  0  0  0  0
  122.6900  133.2888   61.4330 H   0  0  0  0  0  0  0  0  0  0  0  0
  124.5526  131.6693   63.9408 H   0  0  0  0  0  0  0  0  0  0  0  0
  125.4163  129.8327   64.9557 H   0  0  0  0  0  0  0  0  0  0  0  0
  125.2645  128.2628   64.0960 H   0  0  0  0  0  0  0  0  0  0  0  0
  126.8327  129.1388   64.0960 H   0  0  0  0  0  0  0  0  0  0  0  0
  127.4650  127.4180   62.3480 H   0  0  0  0  0  0  0  0  0  0  0  0
  126.1050  126.4250   61.9950 H   0  0  0  0  0  0  0  0  0  0  0  0
  125.0370  125.9510   59.3240 H   0  0  0  0  0  0  0  0  0  0  0  0
  128.1294  124.7261   58.6180 H   0  0  0  0  0  0  0  0  0  0  0  0
  128.6412  122.6139   57.3981 H   0  0  0  0  0  0  0  0  0  0  0  0
  126.8436  121.4481   56.1290 H   0  0  0  0  0  0  0  0  0  0  0  0
  124.5349  122.3781   56.0731 H   0  0  0  0  0  0  0  0  0  0  0  0
  124.0154  124.4940   57.2870 H   0  0  0  0  0  0  0  0  0  0  0  0
  1  2  1  0
  2  3  2  0
  3  4  1  0
  4  5  1  0
  4  6  2  0
  6  7  1  0
  7  8  1  0
  7  9  2  0
  9 10  1  0
 10 11  2  0
 10 12  1  0
 12 13  1  0
 13 14  2  0
 14 15  1  0
 15 16  2  0
 16 17  1  0
 17 18  2  0
  9 19  1  0
 19 20  1  0
 20 21  2  0
 21  2  1  0
 20  6  1  0
 18 13  1  0
  1 22  1  0
  1 23  1  0
  1 24  1  0
  3 25  1  0
  5 26  1  0
  5 27  1  0
  5 28  1  0
  8 29  1  0
  8 30  1  0
 12 31  1  0
 14 32  1  0
 15 33  1  0
 16 34  1  0
 17 35  1  0
 18 36  1  0
M  END
>  <Binding energies>  (1) 
[-6.5]

>  <Ligand effiencies>  (1) 
[-0.2708333333333333]

>  <Interactions>  (1) 
["V-B:GLU:543:CD:9880, V-B:ASP:366:CB:8183, H-B:GLU:543:OE2:9882, V-B:TYR:539:C:9839, H-B:GLU:543:OE1:9881, V-B:TYR:531:CE2:9765, V-B:PRO:540:CD:9859, V-B:ASP:366:CG:8184, H-B:ASP:366:OD1:8185, V-B:PRO:540:CA:9855, V-B:PRO:540:CB:9857, V-B:PRO:540:N:9856, V-B:LEU:363:CD1:8160, V-B:MET:535:CE:9807, V-B:TYR:539:CZ:9849, V-B:TYR:539:CE2:9848, V-B:TYR:539:CE1:9847, V-B:TYR:539:CD2:9846, V-B:TYR:539:CG:9844, V-B:ARG:545:CZ:9898, H-B:TYR:531:OH:9767, V-B:ILE:369:CG2:8208, V-B:ILE:369:CG1:8209"]

$$$$
4ae_Grossjean_2025
     RDKit          3D

 38 40  0  0  0  0  0  0  0  0999 V2000
  130.9510  128.0010   70.6170 C   0  0  0  0  0  0  0  0  0  0  0  0
  130.0670  127.6610   69.4330 C   0  0  0  0  0  0  0  0  0  0  0  0
  128.7390  128.0900   69.3650 C   0  0  0  0  0  0  0  0  0  0  0  0
  127.9830  127.7320   68.2480 C   0  0  0  0  0  0  0  0  0  0  0  0
  128.5640  126.9610   67.2390 C   0  0  0  0  0  0  0  0  0  0  0  0
  129.9020  126.5720   67.3670 C   0  0  0  0  0  0  0  0  0  0  0  0
  130.4240  125.7800   66.3290 N   0  0  0  0  0  0  0  0  0  0  0  0
  130.1960  124.4690   66.0650 C   0  0  0  0  0  0  0  0  0  0  0  0
  129.4600  123.7510   66.7430 O   0  0  0  0  0  0  0  0  0  0  0  0
  130.8960  123.9350   64.8950 C   0  0  0  0  0  0  0  0  0  0  0  0
  130.2170  122.5790   63.9930 S   0  0  0  0  0  0  0  0  0  0  0  0
  131.5800  122.5620   62.8980 C   0  0  0  0  0  0  0  0  0  0  0  0
  131.6720  121.6830   61.9000 N   0  0  0  0  0  0  0  0  0  0  0  0
  132.7810  121.7730   61.1280 C   0  0  0  0  0  0  0  0  0  0  0  0
  132.8700  120.7580   60.0030 C   0  0  0  0  0  0  0  0  0  0  0  0
  133.7900  122.7140   61.3270 C   0  0  0  0  0  0  0  0  0  0  0  0
  133.6900  123.6360   62.3760 C   0  0  0  0  0  0  0  0  0  0  0  0
  134.8170  124.6410   62.5550 C   0  0  0  0  0  0  0  0  0  0  0  0
  132.5400  123.5710   63.2080 C   0  0  0  0  0  0  0  0  0  0  0  0
  132.1250  124.3410   64.3510 C   0  0  0  0  0  0  0  0  0  0  0  0
  132.8760  125.3760   64.8490 N   0  0  0  0  0  0  0  0  0  0  0  0
  130.6460  126.9120   68.4600 N   0  0  0  0  0  0  0  0  0  0  0  0
  130.4089  127.7925   71.5512 H   0  0  0  0  0  0  0  0  0  0  0  0
  131.8651  127.3903   70.5794 H   0  0  0  0  0  0  0  0  0  0  0  0
  131.2203  129.0669   70.5794 H   0  0  0  0  0  0  0  0  0  0  0  0
  128.3002  128.6950   70.1721 H   0  0  0  0  0  0  0  0  0  0  0  0
  126.9351  128.0554   68.1628 H   0  0  0  0  0  0  0  0  0  0  0  0
  127.9784  126.6638   66.3565 H   0  0  0  0  0  0  0  0  0  0  0  0
  131.0960  126.2480   65.7390 H   0  0  0  0  0  0  0  0  0  0  0  0
  132.9586  119.7471   60.4274 H   0  0  0  0  0  0  0  0  0  0  0  0
  131.9632  120.8172   59.3831 H   0  0  0  0  0  0  0  0  0  0  0  0
  133.7526  120.9741   59.3831 H   0  0  0  0  0  0  0  0  0  0  0  0
  134.6646  122.7322   60.6601 H   0  0  0  0  0  0  0  0  0  0  0  0
  134.9976  124.8021   63.6280 H   0  0  0  0  0  0  0  0  0  0  0  0
  135.7321  124.2536   62.0832 H   0  0  0  0  0  0  0  0  0  0  0  0
  134.5366  125.5943   62.0832 H   0  0  0  0  0  0  0  0  0  0  0  0
  132.4980  126.3070   64.9560 H   0  0  0  0  0  0  0  0  0  0  0  0
  133.8370  125.2390   65.1290 H   0  0  0  0  0  0  0  0  0  0  0  0
  1  2  1  0
  2  3  2  0
  3  4  1  0
  4  5  2  0
  5  6  1  0
  6  7  1  0
  7  8  1  0
  8  9  2  0
  8 10  1  0
 10 11  1  0
 11 12  1  0
 12 13  2  0
 13 14  1  0
 14 15  1  0
 14 16  2  0
 16 17  1  0
 17 18  1  0
 17 19  2  0
 19 20  1  0
 20 21  1  0
  6 22  2  0
 22  2  1  0
 20 10  2  0
 19 12  1  0
  1 23  1  0
  1 24  1  0
  1 25  1  0
  3 26  1  0
  4 27  1  0
  5 28  1  0
  7 29  1  0
 15 30  1  0
 15 31  1  0
 15 32  1  0
 16 33  1  0
 18 34  1  0
 18 35  1  0
 18 36  1  0
 21 37  1  0
 21 38  1  0
M  END
>  <Binding energies>  (1) 
[-6.75]

>  <Ligand effiencies>  (1) 
[-0.27]

>  <Interactions>  (1) 
["V-A:ILE:369:CG2:3237, V-A:ILE:369:CD1:3239, V-A:GLY:453:C:4042, V-B:GLU:543:CD:9880, V-A:GLY:453:CA:4044, H-A:GLU:543:OE1:4909, H-A:TYR:484:OH:4348, V-B:GLU:543:CG:9879, V-A:GLU:543:CD:4908, V-A:ARG:545:CZ:4926, H-A:GLU:543:OE2:4910, V-A:LEU:475:CD2:4259, V-A:HIS:456:CE1:4070, V-B:ALA:541:CB:9864, V-B:TYR:539:CE2:9848, V-B:TYR:539:CD2:9846, V-A:TYR:484:CE2:4346, V-A:GLU:543:C:4902, V-A:TYR:484:CZ:4347, V-B:GLU:543:CB:9878, V-A:GLY:544:C:4912, V-A:GLU:543:CB:4906, V-B:HIS:456:CE1:9041"]

$$$$
4af_Grossjean_2025
     RDKit          3D

 35 37  0  0  0  0  0  0  0  0999 V2000
  132.4070  121.2010   60.3720 C   0  0  0  0  0  0  0  0  0  0  0  0
  132.4240  122.1840   61.5280 C   0  0  0  0  0  0  0  0  0  0  0  0
  133.4630  123.1010   61.6760 C   0  0  0  0  0  0  0  0  0  0  0  0
  133.4580  123.9970   62.7520 C   0  0  0  0  0  0  0  0  0  0  0  0
  134.6140  124.9770   62.8710 C   0  0  0  0  0  0  0  0  0  0  0  0
  132.3720  123.9290   63.6660 C   0  0  0  0  0  0  0  0  0  0  0  0
  132.0570  124.6770   64.8540 C   0  0  0  0  0  0  0  0  0  0  0  0
  132.8650  125.6840   65.3200 N   0  0  0  0  0  0  0  0  0  0  0  0
  130.8630  124.2830   65.4760 C   0  0  0  0  0  0  0  0  0  0  0  0
  130.2620  124.8010   66.7070 C   0  0  0  0  0  0  0  0  0  0  0  0
  129.4880  124.1070   67.3680 O   0  0  0  0  0  0  0  0  0  0  0  0
  130.6320  126.0600   67.0470 N   0  0  0  0  0  0  0  0  0  0  0  0
  130.2070  126.8570   68.1270 C   0  0  0  0  0  0  0  0  0  0  0  0
  131.0480  127.6220   68.9560 C   0  0  0  0  0  0  0  0  0  0  0  0
  130.4970  128.3580   70.0070 C   0  0  0  0  0  0  0  0  0  0  0  0
  129.1170  128.3070   70.2080 C   0  0  0  0  0  0  0  0  0  0  0  0
  128.2860  127.5710   69.4280 N   0  0  0  0  0  0  0  0  0  0  0  0
  128.8360  126.8610   68.4110 C   0  0  0  0  0  0  0  0  0  0  0  0
  130.0940  122.9590   64.5970 S   0  0  0  0  0  0  0  0  0  0  0  0
  131.3720  122.9460   63.4040 C   0  0  0  0  0  0  0  0  0  0  0  0
  131.3720  122.0920   62.3790 N   0  0  0  0  0  0  0  0  0  0  0  0
  132.3892  120.1736   60.7646 H   0  0  0  0  0  0  0  0  0  0  0  0
  131.5117  121.3740   59.7567 H   0  0  0  0  0  0  0  0  0  0  0  0
  133.3077  121.3429   59.7567 H   0  0  0  0  0  0  0  0  0  0  0  0
  134.2870  123.1209   60.9475 H   0  0  0  0  0  0  0  0  0  0  0  0
  134.8309  125.1609   63.9336 H   0  0  0  0  0  0  0  0  0  0  0  0
  135.5046  124.5545   62.3827 H   0  0  0  0  0  0  0  0  0  0  0  0
  134.3430  125.9247   62.3827 H   0  0  0  0  0  0  0  0  0  0  0  0
  132.5700  126.6500   65.3160 H   0  0  0  0  0  0  0  0  0  0  0  0
  133.7850  125.4890   65.6900 H   0  0  0  0  0  0  0  0  0  0  0  0
  131.3180  126.4980   66.4500 H   0  0  0  0  0  0  0  0  0  0  0  0
  132.1332  127.6402   68.7772 H   0  0  0  0  0  0  0  0  0  0  0  0
  131.1376  128.9656   70.6631 H   0  0  0  0  0  0  0  0  0  0  0  0
  128.6841  128.8890   71.0350 H   0  0  0  0  0  0  0  0  0  0  0  0
  128.1703  126.2572   67.7767 H   0  0  0  0  0  0  0  0  0  0  0  0
  1  2  1  0
  2  3  2  0
  3  4  1  0
  4  5  1  0
  4  6  2  0
  6  7  1  0
  7  8  1  0
  7  9  2  0
  9 10  1  0
 10 11  2  0
 10 12  1  0
 12 13  1  0
 13 14  2  0
 14 15  1  0
 15 16  2  0
 16 17  1  0
 17 18  2  0
  9 19  1  0
 19 20  1  0
 20 21  2  0
 21  2  1  0
 20  6  1  0
 18 13  1  0
  1 22  1  0
  1 23  1  0
  1 24  1  0
  3 25  1  0
  5 26  1  0
  5 27  1  0
  5 28  1  0
  8 29  1  0
  8 30  1  0
 12 31  1  0
 14 32  1  0
 15 33  1  0
 16 34  1  0
 18 35  1  0
M  END
>  <Binding energies>  (1) 
[-6.32]

>  <Ligand effiencies>  (1) 
[-0.26333333333333336]

>  <Interactions>  (1) 
["V-A:ILE:369:CG2:3237, V-A:ILE:369:CD1:3239, V-A:GLY:453:C:4042, V-A:GLY:453:CA:4044, V-A:ASP:366:CG:3213, H-A:GLU:543:OE1:4909, H-A:TYR:484:OH:4348, V-B:GLU:543:CG:9879, V-A:GLU:543:CD:4908, V-A:ARG:545:CZ:4926, H-A:GLU:543:OE2:4910, V-A:LEU:475:CD2:4259, V-A:HIS:456:CE1:4070, V-B:TYR:539:CE2:9848, V-B:TYR:539:CD2:9846, V-A:TYR:484:CE2:4346, V-A:GLU:543:C:4902, V-A:TYR:484:CZ:4347, V-B:GLU:543:CB:9878, V-A:GLY:544:C:4912, V-A:GLU:543:CB:4906, V-B:HIS:456:CD2:9039, V-B:HIS:456:CE1:9041, V-A:ARG:545:CG:4922, V-A:ARG:545:CD:4923, V-A:GLU:543:CA:4904"]

$$$$
4ag_Grossjean_2025
     RDKit          3D

 39 41  0  0  0  0  0  0  0  0999 V2000
  132.1920  121.0840   60.6940 C   0  0  0  0  0  0  0  0  0  0  0  0
  132.1830  122.1090   61.8130 C   0  0  0  0  0  0  0  0  0  0  0  0
  133.2280  123.0200   61.9600 C   0  0  0  0  0  0  0  0  0  0  0  0
  133.1990  123.9580   62.9970 C   0  0  0  0  0  0  0  0  0  0  0  0
  134.3620  124.9310   63.1160 C   0  0  0  0  0  0  0  0  0  0  0  0
  132.0810  123.9420   63.8740 C   0  0  0  0  0  0  0  0  0  0  0  0
  131.7350  124.7430   65.0170 C   0  0  0  0  0  0  0  0  0  0  0  0
  132.5370  125.7600   65.4710 N   0  0  0  0  0  0  0  0  0  0  0  0
  130.5170  124.3860   65.6140 C   0  0  0  0  0  0  0  0  0  0  0  0
  129.8620  124.9890   66.7740 C   0  0  0  0  0  0  0  0  0  0  0  0
  129.8610  124.4320   67.8740 O   0  0  0  0  0  0  0  0  0  0  0  0
  129.2490  126.1730   66.5620 N   0  0  0  0  0  0  0  0  0  0  0  0
  128.5580  126.9640   67.5790 C   0  0  0  0  0  0  0  0  0  0  0  0
  129.4220  127.3120   68.7860 C   0  0  0  0  0  0  0  0  0  0  0  0
  130.7740  127.6200   68.6080 C   0  0  0  0  0  0  0  0  0  0  0  0
  131.5590  127.9620   69.7060 C   0  0  0  0  0  0  0  0  0  0  0  0
  130.9880  128.0050   70.9760 C   0  0  0  0  0  0  0  0  0  0  0  0
  129.6380  127.7140   71.1580 C   0  0  0  0  0  0  0  0  0  0  0  0
  128.8520  127.3730   70.0610 C   0  0  0  0  0  0  0  0  0  0  0  0
  129.7550  123.0430   64.7610 S   0  0  0  0  0  0  0  0  0  0  0  0
  131.0770  122.9610   63.6170 C   0  0  0  0  0  0  0  0  0  0  0  0
  131.1010  122.0660   62.6280 N   0  0  0  0  0  0  0  0  0  0  0  0
  132.2009  120.0716   61.1242 H   0  0  0  0  0  0  0  0  0  0  0  0
  131.2927  121.2108   60.0734 H   0  0  0  0  0  0  0  0  0  0  0  0
  133.0889  121.2266   60.0734 H   0  0  0  0  0  0  0  0  0  0  0  0
  134.0761  123.0010   61.2597 H   0  0  0  0  0  0  0  0  0  0  0  0
  134.5801  125.1135   64.1786 H   0  0  0  0  0  0  0  0  0  0  0  0
  135.2498  124.5027   62.6277 H   0  0  0  0  0  0  0  0  0  0  0  0
  134.0972  125.8804   62.6277 H   0  0  0  0  0  0  0  0  0  0  0  0
  132.3530  126.7260   65.2430 H   0  0  0  0  0  0  0  0  0  0  0  0
  133.3400  125.5740   66.0560 H   0  0  0  0  0  0  0  0  0  0  0  0
  129.3380  126.5990   65.6510 H   0  0  0  0  0  0  0  0  0  0  0  0
  128.2172  127.9016   67.1156 H   0  0  0  0  0  0  0  0  0  0  0  0
  127.7255  126.3482   67.9502 H   0  0  0  0  0  0  0  0  0  0  0  0
  131.2172  127.5922   67.6016 H   0  0  0  0  0  0  0  0  0  0  0  0
  132.6251  128.1971   69.5713 H   0  0  0  0  0  0  0  0  0  0  0  0
  131.6094  128.2714   71.8437 H   0  0  0  0  0  0  0  0  0  0  0  0
  129.1951  127.7535   72.1641 H   0  0  0  0  0  0  0  0  0  0  0  0
  127.7831  127.1517   70.1972 H   0  0  0  0  0  0  0  0  0  0  0  0
  1  2  1  0
  2  3  2  0
  3  4  1  0
  4  5  1  0
  4  6  2  0
  6  7  1  0
  7  8  1  0
  7  9  2  0
  9 10  1  0
 10 11  2  0
 10 12  1  0
 12 13  1  0
 13 14  1  0
 14 15  2  0
 15 16  1  0
 16 17  2  0
 17 18  1  0
 18 19  2  0
  9 20  1  0
 20 21  1  0
 21 22  2  0
 22  2  1  0
 21  6  1  0
 19 14  1  0
  1 23  1  0
  1 24  1  0
  1 25  1  0
  3 26  1  0
  5 27  1  0
  5 28  1  0
  5 29  1  0
  8 30  1  0
  8 31  1  0
 12 32  1  0
 13 33  1  0
 13 34  1  0
 15 35  1  0
 16 36  1  0
 17 37  1  0
 18 38  1  0
 19 39  1  0
M  END
>  <Binding energies>  (1) 
[-6.55]

>  <Ligand effiencies>  (1) 
[-0.262]

>  <Interactions>  (1) 
["V-A:GLY:453:C:4042, V-B:GLU:543:CD:9880, V-A:GLY:453:CA:4044, H-A:GLU:543:OE1:4909, H-A:TYR:484:OH:4348, V-B:GLU:543:CG:9879, V-A:GLU:543:CD:4908, V-A:ARG:545:CZ:4926, H-A:GLU:543:OE2:4910, V-A:LEU:475:CD2:4259, V-A:HIS:456:CE1:4070, H-B:GLU:543:OE2:9882, V-B:TYR:539:CE2:9848, V-B:TYR:539:CD2:9846, V-A:TYR:484:CE2:4346, V-A:GLU:543:C:4902, V-B:GLU:543:CA:9876, V-A:TYR:484:CZ:4347, V-B:GLU:543:CB:9878, V-A:GLY:544:C:4912, V-A:GLU:543:CB:4906, V-B:HIS:456:CE1:9041, V-A:ARG:545:CG:4922, V-A:GLU:543:CG:4907, V-A:ARG:545:CD:4923, V-A:ARG:545:CA:4919"]

$$$$
4ah_Grossjean_2025
     RDKit          3D

 51 53  0  0  0  0  0  0  0  0999 V2000
  124.3280  123.4810   61.9380 C   0  0  0  0  0  0  0  0  0  0  0  0
  124.8590  123.8690   60.6760 O   0  0  0  0  0  0  0  0  0  0  0  0
  126.1630  123.5350   60.3560 C   0  0  0  0  0  0  0  0  0  0  0  0
  127.1930  123.4070   61.3020 C   0  0  0  0  0  0  0  0  0  0  0  0
  128.4880  123.0680   60.9070 C   0  0  0  0  0  0  0  0  0  0  0  0
  129.5830  122.8880   61.9520 C   0  0  0  0  0  0  0  0  0  0  0  0
  129.4140  123.7390   63.1290 N   0  0  0  0  0  0  0  0  0  0  0  0
  130.4160  124.2900   63.8460 C   0  0  0  0  0  0  0  0  0  0  0  0
  131.6040  124.0890   63.5900 O   0  0  0  0  0  0  0  0  0  0  0  0
  130.0120  125.1140   64.9850 C   0  0  0  0  0  0  0  0  0  0  0  0
  130.2270  124.5180   66.6310 S   0  0  0  0  0  0  0  0  0  0  0  0
  129.5090  125.9680   67.2970 C   0  0  0  0  0  0  0  0  0  0  0  0
  129.3730  126.1490   68.6110 N   0  0  0  0  0  0  0  0  0  0  0  0
  128.8030  127.3170   68.9950 C   0  0  0  0  0  0  0  0  0  0  0  0
  128.6560  127.5010   70.4950 C   0  0  0  0  0  0  0  0  0  0  0  0
  128.3700  128.2970   68.1060 C   0  0  0  0  0  0  0  0  0  0  0  0
  128.5110  128.1040   66.7270 C   0  0  0  0  0  0  0  0  0  0  0  0
  128.0230  129.2030   65.7950 C   0  0  0  0  0  0  0  0  0  0  0  0
  129.1040  126.8900   66.2850 C   0  0  0  0  0  0  0  0  0  0  0  0
  129.3920  126.3720   64.9740 C   0  0  0  0  0  0  0  0  0  0  0  0
  129.0890  127.0630   63.8290 N   0  0  0  0  0  0  0  0  0  0  0  0
  128.7550  122.8270   59.5580 C   0  0  0  0  0  0  0  0  0  0  0  0
  127.7470  122.9530   58.5900 C   0  0  0  0  0  0  0  0  0  0  0  0
  127.9450  122.7440   57.2370 O   0  0  0  0  0  0  0  0  0  0  0  0
  127.9800  123.8620   56.3570 C   0  0  0  0  0  0  0  0  0  0  0  0
  126.4560  123.3140   59.0020 C   0  0  0  0  0  0  0  0  0  0  0  0
  125.4540  123.4230   58.0680 O   0  0  0  0  0  0  0  0  0  0  0  0
  124.9630  124.7460   57.8980 C   0  0  0  0  0  0  0  0  0  0  0  0
  124.9338  123.9236   62.7424 H   0  0  0  0  0  0  0  0  0  0  0  0
  123.2900  123.8349   62.0235 H   0  0  0  0  0  0  0  0  0  0  0  0
  124.3498  122.3845   62.0235 H   0  0  0  0  0  0  0  0  0  0  0  0
  126.9765  123.5760   62.3672 H   0  0  0  0  0  0  0  0  0  0  0  0
  129.5824  121.8378   62.2791 H   0  0  0  0  0  0  0  0  0  0  0  0
  130.5324  123.1777   61.4779 H   0  0  0  0  0  0  0  0  0  0  0  0
  128.4670  124.0130   63.3460 H   0  0  0  0  0  0  0  0  0  0  0  0
  129.2600  126.7450   71.0181 H   0  0  0  0  0  0  0  0  0  0  0  0
  129.0025  128.5063   70.7768 H   0  0  0  0  0  0  0  0  0  0  0  0
  127.5990  127.3851   70.7768 H   0  0  0  0  0  0  0  0  0  0  0  0
  127.9167  129.2237   68.4877 H   0  0  0  0  0  0  0  0  0  0  0  0
  127.6476  130.0485   66.3901 H   0  0  0  0  0  0  0  0  0  0  0  0
  128.8552  129.5420   65.1605 H   0  0  0  0  0  0  0  0  0  0  0  0
  127.2134  128.8130   65.1605 H   0  0  0  0  0  0  0  0  0  0  0  0
  129.7440  127.7000   63.4000 H   0  0  0  0  0  0  0  0  0  0  0  0
  128.1900  126.9610   63.3770 H   0  0  0  0  0  0  0  0  0  0  0  0
  129.7695  122.5343   59.2497 H   0  0  0  0  0  0  0  0  0  0  0  0
  128.0091  124.7910   56.9454 H   0  0  0  0  0  0  0  0  0  0  0  0
  128.8767  123.8015   55.7227 H   0  0  0  0  0  0  0  0  0  0  0  0
  127.0813  123.8577   55.7227 H   0  0  0  0  0  0  0  0  0  0  0  0
  124.7932  125.2036   58.8838 H   0  0  0  0  0  0  0  0  0  0  0  0
  125.6999  125.3416   57.3393 H   0  0  0  0  0  0  0  0  0  0  0  0
  124.0159  124.7166   57.3393 H   0  0  0  0  0  0  0  0  0  0  0  0
  1  2  1  0
  2  3  1  0
  3  4  2  0
  4  5  1  0
  5  6  1  0
  6  7  1  0
  7  8  1  0
  8  9  2  0
  8 10  1  0
 10 11  1  0
 11 12  1  0
 12 13  2  0
 13 14  1  0
 14 15  1  0
 14 16  2  0
 16 17  1  0
 17 18  1  0
 17 19  2  0
 19 20  1  0
 20 21  1  0
  5 22  2  0
 22 23  1  0
 23 24  1  0
 24 25  1  0
 23 26  2  0
 26 27  1  0
 27 28  1  0
 26  3  1  0
 20 10  2  0
 19 12  1  0
  1 29  1  0
  1 30  1  0
  1 31  1  0
  4 32  1  0
  6 33  1  0
  6 34  1  0
  7 35  1  0
 15 36  1  0
 15 37  1  0
 15 38  1  0
 16 39  1  0
 18 40  1  0
 18 41  1  0
 18 42  1  0
 21 43  1  0
 21 44  1  0
 22 45  1  0
 25 46  1  0
 25 47  1  0
 25 48  1  0
 28 49  1  0
 28 50  1  0
 28 51  1  0
M  END
>  <Binding energies>  (1) 
[-6.2]

>  <Ligand effiencies>  (1) 
[-0.2]

>  <Interactions>  (1) 
["V-B:GLU:543:CD:9880, H-A:GLU:543:OE1:4909, V-B:GLU:543:CG:9879, V-A:GLU:543:CD:4908, H-A:GLU:543:OE2:4910, V-A:HIS:456:CE1:4070, H-B:GLU:543:OE2:9882, V-B:TYR:539:C:9839, H-B:GLU:543:OE1:9881, V-B:TYR:531:CE2:9765, V-B:PRO:540:CA:9855, V-B:PRO:540:CB:9857, V-B:PRO:540:N:9856, V-B:LEU:363:CD1:8160, V-B:TYR:539:CZ:9849, V-B:TYR:539:CE2:9848, V-B:TYR:539:CE1:9847, V-B:TYR:539:CD2:9846, V-B:ASN:362:CB:8147, V-A:TYR:484:CE2:4346, V-A:TYR:484:CZ:4347, V-B:GLU:543:CB:9878, V-A:GLU:543:CB:4906, V-B:HIS:456:CE1:9041, V-A:GLU:543:CG:4907, V-B:ASN:362:CG:8148"]

$$$$
4ai_Grossjean_2025
     RDKit          3D

 32 34  0  0  0  0  0  0  0  0999 V2000
  134.6940  124.9550   62.9170 C   0  0  0  0  0  0  0  0  0  0  0  0
  133.2190  124.5970   62.9050 C   0  0  0  0  0  0  0  0  0  0  0  0
  132.4860  124.5410   64.0890 C   0  0  0  0  0  0  0  0  0  0  0  0
  131.1250  124.2140   64.0540 C   0  0  0  0  0  0  0  0  0  0  0  0
  130.3670  124.1670   65.3710 C   0  0  0  0  0  0  0  0  0  0  0  0
  130.5390  123.9490   62.7860 C   0  0  0  0  0  0  0  0  0  0  0  0
  129.2030  123.5930   62.3910 C   0  0  0  0  0  0  0  0  0  0  0  0
  128.1880  123.4360   63.3020 N   0  0  0  0  0  0  0  0  0  0  0  0
  129.0410  123.4320   61.0060 C   0  0  0  0  0  0  0  0  0  0  0  0
  127.8310  123.0650   60.2670 C   0  0  0  0  0  0  0  0  0  0  0  0
  126.7980  122.7580   60.8650 O   0  0  0  0  0  0  0  0  0  0  0  0
  127.9400  123.1080   58.9160 N   0  0  0  0  0  0  0  0  0  0  0  0
  126.9550  122.8230   57.9790 C   0  0  0  0  0  0  0  0  0  0  0  0
  125.7170  123.4650   57.9560 C   0  0  0  0  0  0  0  0  0  0  0  0
  125.0410  122.9020   56.8980 C   0  0  0  0  0  0  0  0  0  0  0  0
  125.8320  121.9700   56.3130 O   0  0  0  0  0  0  0  0  0  0  0  0
  127.0420  121.9300   57.0060 N   0  0  0  0  0  0  0  0  0  0  0  0
  130.5630  123.6950   60.1520 S   0  0  0  0  0  0  0  0  0  0  0  0
  131.3990  124.0400   61.6500 C   0  0  0  0  0  0  0  0  0  0  0  0
  132.6960  124.3490   61.6800 N   0  0  0  0  0  0  0  0  0  0  0  0
  135.0423  125.0395   63.9570 H   0  0  0  0  0  0  0  0  0  0  0  0
  135.2661  124.1696   62.4014 H   0  0  0  0  0  0  0  0  0  0  0  0
  134.8425  125.9153   62.4014 H   0  0  0  0  0  0  0  0  0  0  0  0
  132.9764  124.7536   65.0504 H   0  0  0  0  0  0  0  0  0  0  0  0
  131.0809  124.2113   66.2067 H   0  0  0  0  0  0  0  0  0  0  0  0
  129.6803  125.0243   65.4296 H   0  0  0  0  0  0  0  0  0  0  0  0
  129.7914  123.2314   65.4296 H   0  0  0  0  0  0  0  0  0  0  0  0
  127.2170  123.4960   63.0330 H   0  0  0  0  0  0  0  0  0  0  0  0
  128.3810  123.2600   64.2780 H   0  0  0  0  0  0  0  0  0  0  0  0
  128.8320  123.3870   58.5360 H   0  0  0  0  0  0  0  0  0  0  0  0
  125.3585  124.2514   58.6365 H   0  0  0  0  0  0  0  0  0  0  0  0
  124.0221  123.1660   56.5784 H   0  0  0  0  0  0  0  0  0  0  0  0
  1  2  1  0
  2  3  2  0
  3  4  1  0
  4  5  1  0
  4  6  2  0
  6  7  1  0
  7  8  1  0
  7  9  2  0
  9 10  1  0
 10 11  2  0
 10 12  1  0
 12 13  1  0
 13 14  1  0
 14 15  2  0
 15 16  1  0
 16 17  1  0
  9 18  1  0
 18 19  1  0
 19 20  2  0
 20  2  1  0
 19  6  1  0
 17 13  2  0
  1 21  1  0
  1 22  1  0
  1 23  1  0
  3 24  1  0
  5 25  1  0
  5 26  1  0
  5 27  1  0
  8 28  1  0
  8 29  1  0
 12 30  1  0
 14 31  1  0
 15 32  1  0
M  END
>  <Binding energies>  (1) 
[-6.31]

>  <Ligand effiencies>  (1) 
[-0.2743478260869565]

>  <Interactions>  (1) 
["V-A:ILE:369:CD1:3239, V-A:GLY:453:C:4042, V-B:GLU:543:CD:9880, V-A:GLY:453:CA:4044, V-A:ASP:366:CG:3213, V-B:GLU:543:CG:9879, V-A:ARG:545:CZ:4926, V-B:ALA:541:CB:9864, V-B:TYR:539:C:9839, H-B:ALA:541:N:9863, H-B:GLU:543:OE1:9881, V-B:PRO:540:CD:9859, V-B:PRO:540:CA:9855, V-B:PRO:540:CB:9857, V-B:PRO:540:N:9856, V-B:LEU:363:CD1:8160, V-B:MET:535:CE:9807, V-B:TYR:539:CE2:9848, H-B:TYR:539:N:9842, V-B:TYR:539:CD2:9846, V-B:PRO:540:CG:9858, V-A:TYR:484:CE2:4346, V-A:TYR:484:CZ:4347"]

$$$$
4aj_Grossjean_2025
     RDKit          3D

 32 34  0  0  0  0  0  0  0  0999 V2000
  131.2690  121.0100   60.7600 C   0  0  0  0  0  0  0  0  0  0  0  0
  131.4910  122.0170   61.8730 C   0  0  0  0  0  0  0  0  0  0  0  0
  132.5940  122.8670   61.8620 C   0  0  0  0  0  0  0  0  0  0  0  0
  132.7820  123.7850   62.9020 C   0  0  0  0  0  0  0  0  0  0  0  0
  134.0020  124.6910   62.8440 C   0  0  0  0  0  0  0  0  0  0  0  0
  131.8170  123.8120   63.9440 C   0  0  0  0  0  0  0  0  0  0  0  0
  131.7020  124.6070   65.1380 C   0  0  0  0  0  0  0  0  0  0  0  0
  132.6250  125.5640   65.4720 N   0  0  0  0  0  0  0  0  0  0  0  0
  130.5660  124.3140   65.9090 C   0  0  0  0  0  0  0  0  0  0  0  0
  130.1460  124.9160   67.1760 C   0  0  0  0  0  0  0  0  0  0  0  0
  129.5180  124.2580   68.0090 O   0  0  0  0  0  0  0  0  0  0  0  0
  130.5070  126.2110   67.3540 N   0  0  0  0  0  0  0  0  0  0  0  0
  130.2460  127.0050   68.4620 C   0  0  0  0  0  0  0  0  0  0  0  0
  131.1090  127.6690   69.2010 N   0  0  0  0  0  0  0  0  0  0  0  0
  130.5090  128.3250   70.1750 C   0  0  0  0  0  0  0  0  0  0  0  0
  129.1240  128.1990   70.2410 C   0  0  0  0  0  0  0  0  0  0  0  0
  128.5900  127.1620   68.9500 S   0  0  0  0  0  0  0  0  0  0  0  0
  129.6130  123.0230   65.1770 S   0  0  0  0  0  0  0  0  0  0  0  0
  130.7310  122.8920   63.8380 C   0  0  0  0  0  0  0  0  0  0  0  0
  130.5500  122.0160   62.8490 N   0  0  0  0  0  0  0  0  0  0  0  0
  131.0516  120.0237   61.1959 H   0  0  0  0  0  0  0  0  0  0  0  0
  130.4202  121.3315   60.1386 H   0  0  0  0  0  0  0  0  0  0  0  0
  132.1743  120.9447   60.1386 H   0  0  0  0  0  0  0  0  0  0  0  0
  133.3181  122.8170   61.0355 H   0  0  0  0  0  0  0  0  0  0  0  0
  134.3279  124.9330   63.8664 H   0  0  0  0  0  0  0  0  0  0  0  0
  134.8158  124.1766   62.3118 H   0  0  0  0  0  0  0  0  0  0  0  0
  133.7448  125.6187   62.3118 H   0  0  0  0  0  0  0  0  0  0  0  0
  132.4870  126.5390   65.2510 H   0  0  0  0  0  0  0  0  0  0  0  0
  133.4800  125.3230   65.9540 H   0  0  0  0  0  0  0  0  0  0  0  0
  131.0260  126.6530   66.6090 H   0  0  0  0  0  0  0  0  0  0  0  0
  131.0714  128.9375   70.8951 H   0  0  0  0  0  0  0  0  0  0  0  0
  128.4732  128.6773   70.9878 H   0  0  0  0  0  0  0  0  0  0  0  0
  1  2  1  0
  2  3  2  0
  3  4  1  0
  4  5  1  0
  4  6  2  0
  6  7  1  0
  7  8  1  0
  7  9  2  0
  9 10  1  0
 10 11  2  0
 10 12  1  0
 12 13  1  0
 13 14  2  0
 14 15  1  0
 15 16  2  0
 16 17  1  0
  9 18  1  0
 18 19  1  0
 19 20  2  0
 20  2  1  0
 19  6  1  0
 17 13  1  0
  1 21  1  0
  1 22  1  0
  1 23  1  0
  3 24  1  0
  5 25  1  0
  5 26  1  0
  5 27  1  0
  8 28  1  0
  8 29  1  0
 12 30  1  0
 15 31  1  0
 16 32  1  0
M  END
>  <Binding energies>  (1) 
[-6.17]

>  <Ligand effiencies>  (1) 
[-0.2682608695652174]

>  <Interactions>  (1) 
["V-A:GLY:453:CA:4044, H-A:GLU:543:OE1:4909, H-A:TYR:484:OH:4348, V-B:GLU:543:CG:9879, V-A:GLU:543:CD:4908, V-A:ARG:545:CZ:4926, H-A:GLU:543:OE2:4910, V-A:LEU:475:CD2:4259, V-A:HIS:456:CE1:4070, V-B:TYR:539:CE2:9848, V-B:TYR:539:CD2:9846, V-A:TYR:484:CE2:4346, V-A:GLU:543:C:4902, V-B:GLU:543:CA:9876, V-A:TYR:484:CZ:4347, V-B:GLU:543:CB:9878, V-A:GLY:544:C:4912, V-A:GLU:543:CB:4906, V-B:HIS:456:CD2:9039, V-B:HIS:456:CE1:9041, V-A:ARG:545:CD:4923, V-A:GLU:543:CA:4904"]

$$$$
4ak_Grossjean_2025
     RDKit          3D

 50 51  0  0  0  0  0  0  0  0999 V2000
  126.8620  126.8730   59.5840 C   0  0  0  0  0  0  0  0  0  0  0  0
  127.3930  125.8530   58.7530 O   0  0  0  0  0  0  0  0  0  0  0  0
  128.8000  125.6900   58.8850 C   0  0  0  0  0  0  0  0  0  0  0  0
  129.2500  124.4620   58.0830 C   0  0  0  0  0  0  0  0  0  0  0  0
  128.1790  123.5310   58.0060 O   0  0  0  0  0  0  0  0  0  0  0  0
  127.5630  123.4690   56.7270 C   0  0  0  0  0  0  0  0  0  0  0  0
  126.0390  123.5050   56.8960 C   0  0  0  0  0  0  0  0  0  0  0  0
  125.6980  123.0240   58.1900 O   0  0  0  0  0  0  0  0  0  0  0  0
  124.8420  123.8930   58.9190 C   0  0  0  0  0  0  0  0  0  0  0  0
  125.2460  123.8770   60.4050 C   0  0  0  0  0  0  0  0  0  0  0  0
  126.6860  123.7240   60.6190 N   0  0  0  0  0  0  0  0  0  0  0  0
  127.2590  123.1980   61.7200 C   0  0  0  0  0  0  0  0  0  0  0  0
  126.5990  122.7660   62.6660 O   0  0  0  0  0  0  0  0  0  0  0  0
  128.7210  123.1600   61.7280 C   0  0  0  0  0  0  0  0  0  0  0  0
  129.6440  124.5640   62.2630 S   0  0  0  0  0  0  0  0  0  0  0  0
  131.1570  123.7290   61.9910 C   0  0  0  0  0  0  0  0  0  0  0  0
  132.3350  124.3100   62.2240 N   0  0  0  0  0  0  0  0  0  0  0  0
  133.4320  123.5540   61.9690 C   0  0  0  0  0  0  0  0  0  0  0  0
  134.7620  124.2320   62.2420 C   0  0  0  0  0  0  0  0  0  0  0  0
  133.3770  122.2450   61.4940 C   0  0  0  0  0  0  0  0  0  0  0  0
  132.1390  121.6390   61.2510 C   0  0  0  0  0  0  0  0  0  0  0  0
  132.1320  120.2110   60.7280 C   0  0  0  0  0  0  0  0  0  0  0  0
  130.9680  122.4010   61.5050 C   0  0  0  0  0  0  0  0  0  0  0  0
  129.5680  122.1000   61.3690 C   0  0  0  0  0  0  0  0  0  0  0  0
  129.1180  120.8820   60.9250 N   0  0  0  0  0  0  0  0  0  0  0  0
  127.0053  126.5978   60.6393 H   0  0  0  0  0  0  0  0  0  0  0  0
  127.3812  127.8207   59.3785 H   0  0  0  0  0  0  0  0  0  0  0  0
  125.7879  126.9913   59.3785 H   0  0  0  0  0  0  0  0  0  0  0  0
  129.3105  126.5857   58.5014 H   0  0  0  0  0  0  0  0  0  0  0  0
  129.0549  125.5487   59.9457 H   0  0  0  0  0  0  0  0  0  0  0  0
  129.5403  124.7723   57.0684 H   0  0  0  0  0  0  0  0  0  0  0  0
  130.1105  123.9922   58.5817 H   0  0  0  0  0  0  0  0  0  0  0  0
  127.8860  124.3287   56.1216 H   0  0  0  0  0  0  0  0  0  0  0  0
  127.8558  122.5367   56.2218 H   0  0  0  0  0  0  0  0  0  0  0  0
  125.6810  124.5389   56.7822 H   0  0  0  0  0  0  0  0  0  0  0  0
  125.5684  122.8699   56.1310 H   0  0  0  0  0  0  0  0  0  0  0  0
  124.9340  124.9156   58.5242 H   0  0  0  0  0  0  0  0  0  0  0  0
  123.8002  123.5550   58.8168 H   0  0  0  0  0  0  0  0  0  0  0  0
  124.9251  124.8243   60.8629 H   0  0  0  0  0  0  0  0  0  0  0  0
  124.7572  123.0044   60.8629 H   0  0  0  0  0  0  0  0  0  0  0  0
  127.2850  124.0550   59.8750 H   0  0  0  0  0  0  0  0  0  0  0  0
  134.9171  124.3111   63.3281 H   0  0  0  0  0  0  0  0  0  0  0  0
  135.5744  123.6380   61.7979 H   0  0  0  0  0  0  0  0  0  0  0  0
  134.7585  125.2383   61.7979 H   0  0  0  0  0  0  0  0  0  0  0  0
  134.3073  121.6876   61.3099 H   0  0  0  0  0  0  0  0  0  0  0  0
  132.1286  119.5101   61.5757 H   0  0  0  0  0  0  0  0  0  0  0  0
  131.2331  120.0494   60.1150 H   0  0  0  0  0  0  0  0  0  0  0  0
  133.0293  120.0406   60.1150 H   0  0  0  0  0  0  0  0  0  0  0  0
  128.1860  120.5500   61.1310 H   0  0  0  0  0  0  0  0  0  0  0  0
  129.7070  120.2760   60.3720 H   0  0  0  0  0  0  0  0  0  0  0  0
  1  2  1  0
  2  3  1  0
  3  4  1  0
  4  5  1  0
  5  6  1  0
  6  7  1  0
  7  8  1  0
  8  9  1  0
  9 10  1  0
 10 11  1  0
 11 12  1  0
 12 13  2  0
 12 14  1  0
 14 15  1  0
 15 16  1  0
 16 17  2  0
 17 18  1  0
 18 19  1  0
 18 20  2  0
 20 21  1  0
 21 22  1  0
 21 23  2  0
 23 24  1  0
 24 25  1  0
 24 14  2  0
 23 16  1  0
  1 26  1  0
  1 27  1  0
  1 28  1  0
  3 29  1  0
  3 30  1  0
  4 31  1  0
  4 32  1  0
  6 33  1  0
  6 34  1  0
  7 35  1  0
  7 36  1  0
  9 37  1  0
  9 38  1  0
 10 39  1  0
 10 40  1  0
 11 41  1  0
 19 42  1  0
 19 43  1  0
 19 44  1  0
 20 45  1  0
 22 46  1  0
 22 47  1  0
 22 48  1  0
 25 49  1  0
 25 50  1  0
M  END
>  <Binding energies>  (1) 
[-4.44]

>  <Ligand effiencies>  (1) 
[-0.15857142857142859]

>  <Interactions>  (1) 
["V-A:ILE:369:CG2:3237, V-A:ILE:369:CD1:3239, V-A:GLY:453:C:4042, V-A:GLY:453:CA:4044, V-A:LEU:475:CD2:4259, V-B:ALA:541:CB:9864, V-B:TYR:539:C:9839, H-B:ALA:541:N:9863, V-B:PRO:540:CA:9855, V-B:PRO:540:CB:9857, V-B:PRO:540:N:9856, V-B:MET:535:CE:9807, V-B:TYR:539:CZ:9849, V-B:TYR:539:CE2:9848, V-B:PRO:540:C:9853, V-B:TYR:539:CE1:9847, V-B:TYR:539:CD2:9846, V-A:SER:385:CB:3409, H-B:TYR:539:O:9840, H-B:PRO:540:O:9854"]

$$$$
4al_Grossjean_2025
     RDKit          3D

 28 29  0  0  0  0  0  0  0  0999 V2000
  125.3750  131.9470   63.4280 C   0  0  0  0  0  0  0  0  0  0  0  0
  126.3970  132.8830   63.7350 O   0  0  0  0  0  0  0  0  0  0  0  0
  127.7020  132.5070   63.7640 C   0  0  0  0  0  0  0  0  0  0  0  0
  128.3110  132.2100   64.7950 O   0  0  0  0  0  0  0  0  0  0  0  0
  128.3260  132.4880   62.4240 C   0  0  0  0  0  0  0  0  0  0  0  0
  127.4610  133.1610   61.0390 S   0  0  0  0  0  0  0  0  0  0  0  0
  128.7870  132.7670   59.9680 C   0  0  0  0  0  0  0  0  0  0  0  0
  128.7460  133.0460   58.6650 N   0  0  0  0  0  0  0  0  0  0  0  0
  129.8390  132.6890   57.9450 C   0  0  0  0  0  0  0  0  0  0  0  0
  129.7720  133.0140   56.4640 C   0  0  0  0  0  0  0  0  0  0  0  0
  130.9590  132.0660   58.4940 C   0  0  0  0  0  0  0  0  0  0  0  0
  130.9980  131.7760   59.8620 C   0  0  0  0  0  0  0  0  0  0  0  0
  132.2410  131.0960   60.4140 C   0  0  0  0  0  0  0  0  0  0  0  0
  129.8700  132.1350   60.6480 C   0  0  0  0  0  0  0  0  0  0  0  0
  129.5790  131.9900   62.0470 C   0  0  0  0  0  0  0  0  0  0  0  0
  130.4570  131.4120   62.9280 N   0  0  0  0  0  0  0  0  0  0  0  0
  124.9456  131.5537   64.3612 H   0  0  0  0  0  0  0  0  0  0  0  0
  124.5871  132.4433   62.8424 H   0  0  0  0  0  0  0  0  0  0  0  0
  125.8003  131.1186   62.8424 H   0  0  0  0  0  0  0  0  0  0  0  0
  129.5515  134.0837   56.3330 H   0  0  0  0  0  0  0  0  0  0  0  0
  130.7376  132.7783   55.9928 H   0  0  0  0  0  0  0  0  0  0  0  0
  128.9783  132.4156   55.9928 H   0  0  0  0  0  0  0  0  0  0  0  0
  131.8120  131.8025   57.8514 H   0  0  0  0  0  0  0  0  0  0  0  0
  132.2104  131.1127   61.5134 H   0  0  0  0  0  0  0  0  0  0  0  0
  132.2748  130.0537   60.0639 H   0  0  0  0  0  0  0  0  0  0  0  0
  133.1369  131.6296   60.0639 H   0  0  0  0  0  0  0  0  0  0  0  0
  130.2730  131.3770   63.9210 H   0  0  0  0  0  0  0  0  0  0  0  0
  131.3240  130.9990   62.6110 H   0  0  0  0  0  0  0  0  0  0  0  0
  1  2  1  0
  2  3  1  0
  3  4  2  0
  3  5  1  0
  5  6  1  0
  6  7  1  0
  7  8  2  0
  8  9  1  0
  9 10  1  0
  9 11  2  0
 11 12  1  0
 12 13  1  0
 12 14  2  0
 14 15  1  0
 15 16  1  0
 15  5  2  0
 14  7  1  0
  1 17  1  0
  1 18  1  0
  1 19  1  0
 10 20  1  0
 10 21  1  0
 10 22  1  0
 11 23  1  0
 13 24  1  0
 13 25  1  0
 13 26  1  0
 16 27  1  0
 16 28  1  0
M  END
>  <Binding energies>  (1) 
[-5.12]

>  <Ligand effiencies>  (1) 
[-0.28444444444444444]

>  <Interactions>  (1) 
["V-A:ASP:366:CG:3213, H-A:GLU:543:OE1:4909, V-A:GLU:543:CD:4908, V-A:MET:535:CE:4835, V-A:GLU:543:CG:4907, H-B:TYR:484:OH:9319, V-A:PRO:540:CA:4883, V-A:PRO:540:CB:4885, V-A:PRO:540:N:4884, V-A:TYR:539:CD1:4873, V-B:GLY:454:CA:9020, V-A:ALA:541:CB:4892, V-B:LEU:475:CD2:9230, V-A:TYR:539:C:4867, V-A:ILE:538:CB:4862, V-A:ILE:538:CA:4860, V-A:ILE:538:C:4858"]

$$$$
4ba_Grossjean_2025
     RDKit          3D

 44 46  0  0  0  0  0  0  0  0999 V2000
  127.0020  128.7180   74.4830 C   0  0  0  0  0  0  0  0  0  0  0  0
  127.5260  127.7590   73.3980 C   0  0  0  0  0  0  0  0  0  0  0  0
  128.8630  128.1730   72.7480 C   0  0  0  0  0  0  0  0  0  0  0  0
  129.6990  128.7840   73.4180 O   0  0  0  0  0  0  0  0  0  0  0  0
  129.0850  127.8020   71.3110 C   0  0  0  0  0  0  0  0  0  0  0  0
  130.3290  128.0550   70.7200 C   0  0  0  0  0  0  0  0  0  0  0  0
  130.5620  127.7220   69.3890 C   0  0  0  0  0  0  0  0  0  0  0  0
  129.5590  127.1280   68.6220 C   0  0  0  0  0  0  0  0  0  0  0  0
  129.8990  126.8410   67.2860 N   0  0  0  0  0  0  0  0  0  0  0  0
  129.8490  125.6700   66.6050 C   0  0  0  0  0  0  0  0  0  0  0  0
  129.5130  124.5940   67.1030 O   0  0  0  0  0  0  0  0  0  0  0  0
  130.2540  125.7460   65.2000 C   0  0  0  0  0  0  0  0  0  0  0  0
  129.2870  126.6620   64.0470 S   0  0  0  0  0  0  0  0  0  0  0  0
  130.3500  126.2190   62.7320 C   0  0  0  0  0  0  0  0  0  0  0  0
  130.1280  126.6400   61.4880 N   0  0  0  0  0  0  0  0  0  0  0  0
  131.0180  126.2320   60.5550 C   0  0  0  0  0  0  0  0  0  0  0  0
  130.7410  126.7160   59.1430 C   0  0  0  0  0  0  0  0  0  0  0  0
  132.1170  125.4250   60.8350 C   0  0  0  0  0  0  0  0  0  0  0  0
  132.3570  124.9780   62.1440 C   0  0  0  0  0  0  0  0  0  0  0  0
  133.5810  124.0940   62.4030 C   0  0  0  0  0  0  0  0  0  0  0  0
  133.2630  122.8920   62.8910 F   0  0  0  0  0  0  0  0  0  0  0  0
  134.2480  123.8990   61.2650 F   0  0  0  0  0  0  0  0  0  0  0  0
  134.3840  124.6840   63.2890 F   0  0  0  0  0  0  0  0  0  0  0  0
  131.4320  125.3870   63.1510 C   0  0  0  0  0  0  0  0  0  0  0  0
  131.3450  125.1250   64.5680 C   0  0  0  0  0  0  0  0  0  0  0  0
  132.2520  124.3400   65.2330 N   0  0  0  0  0  0  0  0  0  0  0  0
  128.3080  126.8770   69.2050 C   0  0  0  0  0  0  0  0  0  0  0  0
  128.0760  127.2110   70.5360 C   0  0  0  0  0  0  0  0  0  0  0  0
  127.2276  128.3051   75.4773 H   0  0  0  0  0  0  0  0  0  0  0  0
  127.4902  129.6976   74.3734 H   0  0  0  0  0  0  0  0  0  0  0  0
  125.9139  128.8363   74.3734 H   0  0  0  0  0  0  0  0  0  0  0  0
  127.6622  126.7682   73.8560 H   0  0  0  0  0  0  0  0  0  0  0  0
  126.7774  127.7702   72.5921 H   0  0  0  0  0  0  0  0  0  0  0  0
  131.1294  128.5212   71.3132 H   0  0  0  0  0  0  0  0  0  0  0  0
  131.5440  127.9285   68.9383 H   0  0  0  0  0  0  0  0  0  0  0  0
  130.2450  127.6360   66.7700 H   0  0  0  0  0  0  0  0  0  0  0  0
  130.1950  127.6701   59.1829 H   0  0  0  0  0  0  0  0  0  0  0  0
  131.6932  126.8604   58.6115 H   0  0  0  0  0  0  0  0  0  0  0  0
  130.1342  125.9682   58.6115 H   0  0  0  0  0  0  0  0  0  0  0  0
  132.8024  125.1354   60.0248 H   0  0  0  0  0  0  0  0  0  0  0  0
  132.5270  123.4310   64.8880 H   0  0  0  0  0  0  0  0  0  0  0  0
  132.6740  124.6430   66.1000 H   0  0  0  0  0  0  0  0  0  0  0  0
  127.5079  126.4147   68.6083 H   0  0  0  0  0  0  0  0  0  0  0  0
  127.0920  127.0096   70.9846 H   0  0  0  0  0  0  0  0  0  0  0  0
  1  2  1  0
  2  3  1  0
  3  4  2  0
  3  5  1  0
  5  6  2  0
  6  7  1  0
  7  8  2  0
  8  9  1  0
  9 10  1  0
 10 11  2  0
 10 12  1  0
 12 13  1  0
 13 14  1  0
 14 15  2  0
 15 16  1  0
 16 17  1  0
 16 18  2  0
 18 19  1  0
 19 20  1  0
 20 21  1  0
 20 22  1  0
 20 23  1  0
 19 24  2  0
 24 25  1  0
 25 26  1  0
  8 27  1  0
 27 28  2  0
 28  5  1  0
 25 12  2  0
 24 14  1  0
  1 29  1  0
  1 30  1  0
  1 31  1  0
  2 32  1  0
  2 33  1  0
  6 34  1  0
  7 35  1  0
  9 36  1  0
 17 37  1  0
 17 38  1  0
 17 39  1  0
 18 40  1  0
 26 41  1  0
 26 42  1  0
 27 43  1  0
 28 44  1  0
M  END
>  <Binding energies>  (1) 
[-6.84]

>  <Ligand effiencies>  (1) 
[-0.22064516129032258]

>  <Interactions>  (1) 
["V-A:ILE:369:CD1:3239, V-A:GLY:453:C:4042, V-B:GLU:543:CD:9880, V-A:GLY:453:CA:4044, V-A:ASP:366:CG:3213, H-A:GLU:543:OE1:4909, H-A:TYR:484:OH:4348, V-B:GLU:543:CG:9879, V-A:GLU:543:CD:4908, V-A:ARG:545:CZ:4926, H-A:GLU:543:OE2:4910, V-A:LEU:475:CD2:4259, V-A:HIS:456:CE1:4070, V-A:GLY:454:CA:4049, V-A:GLU:543:C:4902, V-B:GLU:543:C:9874, V-A:TYR:484:CZ:4347, V-B:GLU:543:CB:9878, V-A:GLY:544:C:4912, V-A:GLU:543:CB:4906, V-B:HIS:456:CD2:9039, V-B:HIS:456:CE1:9041, V-B:LYS:547:CE:9922, V-B:HIS:456:CG:9037, H-A:LYS:547:NZ:4951, V-B:HIS:456:CB:9036"]

$$$$
4bb_Grossjean_2025
     RDKit          3D

 41 43  0  0  0  0  0  0  0  0999 V2000
  128.3120  128.3480   72.9350 C   0  0  0  0  0  0  0  0  0  0  0  0
  129.5660  128.6720   72.1200 C   0  0  0  0  0  0  0  0  0  0  0  0
  130.3600  129.4940   72.5790 O   0  0  0  0  0  0  0  0  0  0  0  0
  129.7550  127.9800   70.8030 C   0  0  0  0  0  0  0  0  0  0  0  0
  130.9390  128.1860   70.0820 C   0  0  0  0  0  0  0  0  0  0  0  0
  131.1390  127.5570   68.8570 C   0  0  0  0  0  0  0  0  0  0  0  0
  130.1660  126.7040   68.3330 C   0  0  0  0  0  0  0  0  0  0  0  0
  130.4710  126.1230   67.0860 N   0  0  0  0  0  0  0  0  0  0  0  0
  130.1550  124.9000   66.5950 C   0  0  0  0  0  0  0  0  0  0  0  0
  129.5330  124.0420   67.2220 O   0  0  0  0  0  0  0  0  0  0  0  0
  130.6370  124.6290   65.2380 C   0  0  0  0  0  0  0  0  0  0  0  0
  131.9530  125.5820   64.5560 S   0  0  0  0  0  0  0  0  0  0  0  0
  131.8640  124.7110   63.0430 C   0  0  0  0  0  0  0  0  0  0  0  0
  132.6820  124.9920   62.0300 N   0  0  0  0  0  0  0  0  0  0  0  0
  132.5170  124.2500   60.9110 C   0  0  0  0  0  0  0  0  0  0  0  0
  133.4600  124.5850   59.7690 C   0  0  0  0  0  0  0  0  0  0  0  0
  131.5620  123.2450   60.7810 C   0  0  0  0  0  0  0  0  0  0  0  0
  130.6980  122.9450   61.8450 C   0  0  0  0  0  0  0  0  0  0  0  0
  129.6630  121.8300   61.6550 C   0  0  0  0  0  0  0  0  0  0  0  0
  128.4060  122.2540   61.8040 F   0  0  0  0  0  0  0  0  0  0  0  0
  129.7710  121.3200   60.4280 F   0  0  0  0  0  0  0  0  0  0  0  0
  129.8680  120.8660   62.5530 F   0  0  0  0  0  0  0  0  0  0  0  0
  130.8450  123.7090   63.0420 C   0  0  0  0  0  0  0  0  0  0  0  0
  130.1580  123.6900   64.3090 C   0  0  0  0  0  0  0  0  0  0  0  0
  129.1310  122.8220   64.5810 N   0  0  0  0  0  0  0  0  0  0  0  0
  128.9750  126.4990   69.0450 C   0  0  0  0  0  0  0  0  0  0  0  0
  128.7760  127.1310   70.2700 C   0  0  0  0  0  0  0  0  0  0  0  0
  128.5463  128.4085   74.0080 H   0  0  0  0  0  0  0  0  0  0  0  0
  127.5195  129.0709   72.6914 H   0  0  0  0  0  0  0  0  0  0  0  0
  127.9688  127.3317   72.6914 H   0  0  0  0  0  0  0  0  0  0  0  0
  131.7164  128.8502   70.4877 H   0  0  0  0  0  0  0  0  0  0  0  0
  132.0698  127.7330   68.2979 H   0  0  0  0  0  0  0  0  0  0  0  0
  131.0280  126.7100   66.4830 H   0  0  0  0  0  0  0  0  0  0  0  0
  134.4227  124.9270   60.1767 H   0  0  0  0  0  0  0  0  0  0  0  0
  133.6209  123.6890   59.1515 H   0  0  0  0  0  0  0  0  0  0  0  0
  133.0196  125.3817   59.1515 H   0  0  0  0  0  0  0  0  0  0  0  0
  131.4845  122.6830   59.8386 H   0  0  0  0  0  0  0  0  0  0  0  0
  128.7000  122.2590   63.8610 H   0  0  0  0  0  0  0  0  0  0  0  0
  128.7660  122.7160   65.5180 H   0  0  0  0  0  0  0  0  0  0  0  0
  128.1970  125.8381   68.6352 H   0  0  0  0  0  0  0  0  0  0  0  0
  127.8411  126.9620   70.8245 H   0  0  0  0  0  0  0  0  0  0  0  0
  1  2  1  0
  2  3  2  0
  2  4  1  0
  4  5  2  0
  5  6  1  0
  6  7  2  0
  7  8  1  0
  8  9  1  0
  9 10  2  0
  9 11  1  0
 11 12  1  0
 12 13  1  0
 13 14  2  0
 14 15  1  0
 15 16  1  0
 15 17  2  0
 17 18  1  0
 18 19  1  0
 19 20  1  0
 19 21  1  0
 19 22  1  0
 18 23  2  0
 23 24  1  0
 24 25  1  0
  7 26  1  0
 26 27  2  0
 27  4  1  0
 24 11  2  0
 23 13  1  0
  1 28  1  0
  1 29  1  0
  1 30  1  0
  5 31  1  0
  6 32  1  0
  8 33  1  0
 16 34  1  0
 16 35  1  0
 16 36  1  0
 17 37  1  0
 25 38  1  0
 25 39  1  0
 26 40  1  0
 27 41  1  0
M  END
>  <Binding energies>  (1) 
[-6.81]

>  <Ligand effiencies>  (1) 
[-0.22699999999999998]

>  <Interactions>  (1) 
["V-A:ASP:366:CB:3212, V-B:GLU:543:CD:9880, H-A:ARG:545:NH2:4928, V-A:ASP:366:CA:3210, V-A:ASP:366:CG:3213, H-A:GLU:543:OE1:4909, H-A:TYR:484:OH:4348, V-B:GLU:543:CG:9879, V-A:GLU:543:CD:4908, V-A:ARG:545:CZ:4926, H-A:GLU:543:OE2:4910, V-A:LEU:475:CD2:4259, V-A:HIS:456:CE1:4070, V-B:ALA:541:CB:9864, V-B:TYR:539:C:9839, V-B:PRO:540:CA:9855, V-B:TYR:539:CE2:9848, V-B:PRO:540:C:9853, V-B:TYR:539:CD2:9846, V-B:ALA:541:CA:9862, V-A:TYR:484:CE2:4346, V-A:GLU:543:C:4902, V-B:GLU:543:C:9874, V-A:TYR:484:CZ:4347, V-B:GLU:543:CB:9878, V-A:GLY:544:C:4912, V-A:GLU:543:CB:4906, V-B:HIS:456:CD2:9039, V-B:HIS:456:CE1:9041, V-A:ARG:545:CG:4922, V-B:HIS:456:CG:9037, H-A:LYS:547:NZ:4951, H-B:VAL:542:O:9867"]

$$$$
4bc_Grossjean_2025
     RDKit          3D

 40 42  0  0  0  0  0  0  0  0999 V2000
  126.7420  122.8380   57.0900 C   0  0  0  0  0  0  0  0  0  0  0  0
  127.7600  122.2030   57.8560 O   0  0  0  0  0  0  0  0  0  0  0  0
  128.0390  122.6720   59.1260 C   0  0  0  0  0  0  0  0  0  0  0  0
  127.4190  123.8630   59.4990 C   0  0  0  0  0  0  0  0  0  0  0  0
  127.6400  124.4130   60.7600 C   0  0  0  0  0  0  0  0  0  0  0  0
  128.4810  123.7700   61.6690 C   0  0  0  0  0  0  0  0  0  0  0  0
  128.6560  124.4070   62.9110 N   0  0  0  0  0  0  0  0  0  0  0  0
  129.8010  124.6660   63.5880 C   0  0  0  0  0  0  0  0  0  0  0  0
  130.9200  124.3270   63.2010 O   0  0  0  0  0  0  0  0  0  0  0  0
  129.6350  125.3890   64.8530 C   0  0  0  0  0  0  0  0  0  0  0  0
  130.0980  124.6320   66.3750 S   0  0  0  0  0  0  0  0  0  0  0  0
  129.6110  126.0450   67.2800 C   0  0  0  0  0  0  0  0  0  0  0  0
  129.7270  126.0960   68.6070 N   0  0  0  0  0  0  0  0  0  0  0  0
  129.3150  127.2420   69.1960 C   0  0  0  0  0  0  0  0  0  0  0  0
  129.4600  127.2800   70.7060 C   0  0  0  0  0  0  0  0  0  0  0  0
  128.7950  128.3290   68.4970 C   0  0  0  0  0  0  0  0  0  0  0  0
  128.6710  128.2810   67.1000 C   0  0  0  0  0  0  0  0  0  0  0  0
  128.0900  129.5010   66.3750 C   0  0  0  0  0  0  0  0  0  0  0  0
  128.6300  129.6980   65.1710 F   0  0  0  0  0  0  0  0  0  0  0  0
  126.7780  129.3400   66.2030 F   0  0  0  0  0  0  0  0  0  0  0  0
  128.3080  130.6010   67.0960 F   0  0  0  0  0  0  0  0  0  0  0  0
  129.0970  127.0860   66.4460 C   0  0  0  0  0  0  0  0  0  0  0  0
  129.1270  126.6810   65.0620 C   0  0  0  0  0  0  0  0  0  0  0  0
  128.6950  127.4920   64.0440 N   0  0  0  0  0  0  0  0  0  0  0  0
  129.1190  122.5770   61.2960 C   0  0  0  0  0  0  0  0  0  0  0  0
  128.8960  122.0310   60.0360 C   0  0  0  0  0  0  0  0  0  0  0  0
  126.0063  123.2969   57.7668 H   0  0  0  0  0  0  0  0  0  0  0  0
  127.1919  123.6159   56.4556 H   0  0  0  0  0  0  0  0  0  0  0  0
  126.2412  122.0918   56.4556 H   0  0  0  0  0  0  0  0  0  0  0  0
  126.7491  124.3735   58.7915 H   0  0  0  0  0  0  0  0  0  0  0  0
  127.1499  125.3572   61.0398 H   0  0  0  0  0  0  0  0  0  0  0  0
  127.7970  124.6780   63.3670 H   0  0  0  0  0  0  0  0  0  0  0  0
  128.4967  127.0276   71.1733 H   0  0  0  0  0  0  0  0  0  0  0  0
  130.2219  126.5512   71.0197 H   0  0  0  0  0  0  0  0  0  0  0  0
  129.7665  128.2888   71.0197 H   0  0  0  0  0  0  0  0  0  0  0  0
  128.4797  129.2302   69.0433 H   0  0  0  0  0  0  0  0  0  0  0  0
  127.7180  127.5750   63.8040 H   0  0  0  0  0  0  0  0  0  0  0  0
  129.3460  128.0410   63.4990 H   0  0  0  0  0  0  0  0  0  0  0  0
  129.7964  122.0729   62.0009 H   0  0  0  0  0  0  0  0  0  0  0  0
  129.3934  121.0923   59.7508 H   0  0  0  0  0  0  0  0  0  0  0  0
  1  2  1  0
  2  3  1  0
  3  4  2  0
  4  5  1  0
  5  6  2  0
  6  7  1  0
  7  8  1  0
  8  9  2  0
  8 10  1  0
 10 11  1  0
 11 12  1  0
 12 13  2  0
 13 14  1  0
 14 15  1  0
 14 16  2  0
 16 17  1  0
 17 18  1  0
 18 19  1  0
 18 20  1  0
 18 21  1  0
 17 22  2  0
 22 23  1  0
 23 24  1  0
  6 25  1  0
 25 26  2  0
 26  3  1  0
 23 10  2  0
 22 12  1  0
  1 27  1  0
  1 28  1  0
  1 29  1  0
  4 30  1  0
  5 31  1  0
  7 32  1  0
 15 33  1  0
 15 34  1  0
 15 35  1  0
 16 36  1  0
 24 37  1  0
 24 38  1  0
 25 39  1  0
 26 40  1  0
M  END
>  <Binding energies>  (1) 
[-5.83]

>  <Ligand effiencies>  (1) 
[-0.20103448275862068]

>  <Interactions>  (1) 
["V-B:GLU:543:CD:9880, H-A:GLU:543:OE1:4909, V-B:GLU:543:CG:9879, V-A:GLU:543:CD:4908, H-A:GLU:543:OE2:4910, V-A:HIS:456:CE1:4070, H-B:GLU:543:OE2:9882, V-B:TYR:539:C:9839, H-B:GLU:543:OE1:9881, V-B:PRO:540:CD:9859, V-B:PRO:540:CA:9855, V-B:PRO:540:N:9856, V-B:TYR:539:CE2:9848, H-B:TYR:539:N:9842, V-B:TYR:539:CD2:9846, V-A:TYR:484:CE2:4346, V-A:TYR:484:CZ:4347, V-B:GLU:543:CB:9878, V-A:GLU:543:CB:4906, V-B:HIS:456:CE1:9041, V-A:GLU:543:CG:4907, V-B:TYR:484:CE2:9317, V-B:TYR:484:CZ:9318, V-A:GLU:543:CA:4904, V-B:TYR:484:CD2:9315"]

$$$$
4bd_Grossjean_2025
     RDKit          3D

 36 38  0  0  0  0  0  0  0  0999 V2000
  130.3550  120.8390   60.7390 C   0  0  0  0  0  0  0  0  0  0  0  0
  130.5960  121.9200   61.7770 C   0  0  0  0  0  0  0  0  0  0  0  0
  131.4530  122.9860   61.5180 C   0  0  0  0  0  0  0  0  0  0  0  0
  131.6690  123.9770   62.4890 C   0  0  0  0  0  0  0  0  0  0  0  0
  132.6240  125.1290   62.1590 C   0  0  0  0  0  0  0  0  0  0  0  0
  133.1710  125.0230   60.9460 F   0  0  0  0  0  0  0  0  0  0  0  0
  131.9660  126.2870   62.2000 F   0  0  0  0  0  0  0  0  0  0  0  0
  133.6200  125.1570   63.0440 F   0  0  0  0  0  0  0  0  0  0  0  0
  130.9780  123.8380   63.7290 C   0  0  0  0  0  0  0  0  0  0  0  0
  130.9480  124.6350   64.9310 C   0  0  0  0  0  0  0  0  0  0  0  0
  131.6690  125.7920   65.0680 N   0  0  0  0  0  0  0  0  0  0  0  0
  130.1180  124.1190   65.9410 C   0  0  0  0  0  0  0  0  0  0  0  0
  129.8690  124.6570   67.2820 C   0  0  0  0  0  0  0  0  0  0  0  0
  129.4840  123.9230   68.1920 O   0  0  0  0  0  0  0  0  0  0  0  0
  130.1040  125.9850   67.4280 N   0  0  0  0  0  0  0  0  0  0  0  0
  129.9270  126.8060   68.5560 C   0  0  0  0  0  0  0  0  0  0  0  0
  128.6660  126.7570   69.1570 C   0  0  0  0  0  0  0  0  0  0  0  0
  128.3940  127.5250   70.2860 C   0  0  0  0  0  0  0  0  0  0  0  0
  129.3890  128.3390   70.8220 C   0  0  0  0  0  0  0  0  0  0  0  0
  130.6540  128.3870   70.2410 C   0  0  0  0  0  0  0  0  0  0  0  0
  130.9290  127.6200   69.1120 C   0  0  0  0  0  0  0  0  0  0  0  0
  129.3400  122.6250   65.4260 S   0  0  0  0  0  0  0  0  0  0  0  0
  130.1290  122.6970   63.8670 C   0  0  0  0  0  0  0  0  0  0  0  0
  129.9270  121.7600   62.9420 N   0  0  0  0  0  0  0  0  0  0  0  0
  130.1425  119.8857   61.2450 H   0  0  0  0  0  0  0  0  0  0  0  0
  129.4973  121.1194   60.1099 H   0  0  0  0  0  0  0  0  0  0  0  0
  131.2506  120.7285   60.1099 H   0  0  0  0  0  0  0  0  0  0  0  0
  131.9643  123.0524   60.5463 H   0  0  0  0  0  0  0  0  0  0  0  0
  132.1510  126.0240   65.9260 H   0  0  0  0  0  0  0  0  0  0  0  0
  131.7490  126.4550   64.3090 H   0  0  0  0  0  0  0  0  0  0  0  0
  130.4780  126.4620   66.6200 H   0  0  0  0  0  0  0  0  0  0  0  0
  127.8842  126.1080   68.7356 H   0  0  0  0  0  0  0  0  0  0  0  0
  127.3984  127.4891   70.7523 H   0  0  0  0  0  0  0  0  0  0  0  0
  129.1740  128.9491   71.7117 H   0  0  0  0  0  0  0  0  0  0  0  0
  131.4347  129.0300   70.6735 H   0  0  0  0  0  0  0  0  0  0  0  0
  131.9294  127.6510   68.6556 H   0  0  0  0  0  0  0  0  0  0  0  0
  1  2  1  0
  2  3  2  0
  3  4  1  0
  4  5  1  0
  5  6  1  0
  5  7  1  0
  5  8  1  0
  4  9  2  0
  9 10  1  0
 10 11  1  0
 10 12  2  0
 12 13  1  0
 13 14  2  0
 13 15  1  0
 15 16  1  0
 16 17  2  0
 17 18  1  0
 18 19  2  0
 19 20  1  0
 20 21  2  0
 12 22  1  0
 22 23  1  0
 23 24  2  0
 24  2  1  0
 23  9  1  0
 21 16  1  0
  1 25  1  0
  1 26  1  0
  1 27  1  0
  3 28  1  0
 11 29  1  0
 11 30  1  0
 15 31  1  0
 17 32  1  0
 18 33  1  0
 19 34  1  0
 20 35  1  0
 21 36  1  0
M  END
>  <Binding energies>  (1) 
[-6.01]

>  <Ligand effiencies>  (1) 
[-0.2225925925925926]

>  <Interactions>  (1) 
["V-A:ASP:366:CB:3212, V-A:ASP:366:CG:3213, H-A:GLU:543:OE1:4909, H-A:TYR:484:OH:4348, V-B:GLU:543:CG:9879, V-A:GLU:543:CD:4908, V-A:ARG:545:CZ:4926, H-A:GLU:543:OE2:4910, V-A:LEU:475:CD2:4259, V-A:HIS:456:CE1:4070, V-B:ALA:541:CB:9864, V-B:TYR:539:CE2:9848, V-B:TYR:539:CD2:9846, V-A:TYR:484:CE2:4346, V-A:GLU:543:C:4902, V-B:GLU:543:C:9874, V-B:GLU:543:CA:9876, V-A:TYR:484:CZ:4347, V-B:GLU:543:CB:9878, V-A:GLY:544:C:4912, V-A:GLU:543:CB:4906, V-B:HIS:456:CD2:9039, V-B:HIS:456:CE1:9041, V-A:GLU:543:CA:4904"]

$$$$
4be_Grossjean_2025
     RDKit          3D

 38 40  0  0  0  0  0  0  0  0999 V2000
  129.1180  133.2470   58.6890 C   0  0  0  0  0  0  0  0  0  0  0  0
  130.2640  132.4110   58.1500 C   0  0  0  0  0  0  0  0  0  0  0  0
  131.0690  132.8650   57.1020 C   0  0  0  0  0  0  0  0  0  0  0  0
  132.1030  132.0410   56.6550 C   0  0  0  0  0  0  0  0  0  0  0  0
  132.3060  130.7990   57.2600 C   0  0  0  0  0  0  0  0  0  0  0  0
  131.4660  130.4090   58.3090 C   0  0  0  0  0  0  0  0  0  0  0  0
  131.7180  129.1440   58.8700 N   0  0  0  0  0  0  0  0  0  0  0  0
  131.1070  127.9600   58.6130 C   0  0  0  0  0  0  0  0  0  0  0  0
  130.1940  127.8230   57.7960 O   0  0  0  0  0  0  0  0  0  0  0  0
  131.5890  126.8200   59.3970 C   0  0  0  0  0  0  0  0  0  0  0  0
  132.4700  125.5120   58.6080 S   0  0  0  0  0  0  0  0  0  0  0  0
  132.6190  124.6420   60.1170 C   0  0  0  0  0  0  0  0  0  0  0  0
  133.2470  123.4700   60.1830 N   0  0  0  0  0  0  0  0  0  0  0  0
  133.3010  122.8930   61.4060 C   0  0  0  0  0  0  0  0  0  0  0  0
  134.0180  121.5560   61.4600 C   0  0  0  0  0  0  0  0  0  0  0  0
  132.7480  123.4570   62.5520 C   0  0  0  0  0  0  0  0  0  0  0  0
  132.0860  124.6930   62.4890 C   0  0  0  0  0  0  0  0  0  0  0  0
  131.4970  125.2760   63.7780 C   0  0  0  0  0  0  0  0  0  0  0  0
  130.3620  125.9500   63.5750 F   0  0  0  0  0  0  0  0  0  0  0  0
  131.2260  124.2920   64.6360 F   0  0  0  0  0  0  0  0  0  0  0  0
  132.3690  126.1170   64.3340 F   0  0  0  0  0  0  0  0  0  0  0  0
  132.0080  125.3260   61.2130 C   0  0  0  0  0  0  0  0  0  0  0  0
  131.4180  126.5640   60.7660 C   0  0  0  0  0  0  0  0  0  0  0  0
  130.7540  127.4160   61.6120 N   0  0  0  0  0  0  0  0  0  0  0  0
  130.4490  131.2070   58.7480 N   0  0  0  0  0  0  0  0  0  0  0  0
  129.1387  133.2319   59.7887 H   0  0  0  0  0  0  0  0  0  0  0  0
  129.2216  134.2831   58.3345 H   0  0  0  0  0  0  0  0  0  0  0  0
  128.1630  132.8320   58.3345 H   0  0  0  0  0  0  0  0  0  0  0  0
  130.8921  133.8478   56.6406 H   0  0  0  0  0  0  0  0  0  0  0  0
  132.7542  132.3680   55.8310 H   0  0  0  0  0  0  0  0  0  0  0  0
  133.1145  130.1367   56.9169 H   0  0  0  0  0  0  0  0  0  0  0  0
  132.4250  129.1360   59.5900 H   0  0  0  0  0  0  0  0  0  0  0  0
  134.1737  121.2656   62.5095 H   0  0  0  0  0  0  0  0  0  0  0  0
  133.4084  120.7923   60.9548 H   0  0  0  0  0  0  0  0  0  0  0  0
  134.9914  121.6413   60.9548 H   0  0  0  0  0  0  0  0  0  0  0  0
  132.8304  122.9302   63.5141 H   0  0  0  0  0  0  0  0  0  0  0  0
  131.2440  128.0230   62.2530 H   0  0  0  0  0  0  0  0  0  0  0  0
  129.7450  127.4610   61.6260 H   0  0  0  0  0  0  0  0  0  0  0  0
  1  2  1  0
  2  3  2  0
  3  4  1  0
  4  5  2  0
  5  6  1  0
  6  7  1  0
  7  8  1  0
  8  9  2  0
  8 10  1  0
 10 11  1  0
 11 12  1  0
 12 13  2  0
 13 14  1  0
 14 15  1  0
 14 16  2  0
 16 17  1  0
 17 18  1  0
 18 19  1  0
 18 20  1  0
 18 21  1  0
 17 22  2  0
 22 23  1  0
 23 24  1  0
  6 25  2  0
 25  2  1  0
 23 10  2  0
 22 12  1  0
  1 26  1  0
  1 27  1  0
  1 28  1  0
  3 29  1  0
  4 30  1  0
  5 31  1  0
  7 32  1  0
 15 33  1  0
 15 34  1  0
 15 35  1  0
 16 36  1  0
 24 37  1  0
 24 38  1  0
M  END
>  <Binding energies>  (1) 
[-6.02]

>  <Ligand effiencies>  (1) 
[-0.215]

>  <Interactions>  (1) 
["V-A:ILE:369:CG2:3237, V-A:ILE:369:CD1:3239, V-A:ASP:366:CB:3212, V-A:ASP:366:CA:3210, V-A:ASP:366:CG:3213, H-A:GLU:543:OE1:4909, V-A:GLU:543:CD:4908, V-A:ARG:545:CZ:4926, H-A:GLU:543:OE2:4910, V-A:LEU:475:CD2:4259, H-A:ASP:366:OD1:3214, V-A:SER:385:CB:3409, V-A:PRO:540:CA:4883, V-A:PRO:540:CB:4885, V-A:LEU:363:CD1:3189, V-A:TYR:531:CZ:4794, V-A:PRO:540:CD:4887, V-A:PRO:540:N:4884, H-A:TYR:531:OH:4795, V-A:SER:385:C:3405, V-A:SER:385:CA:3407, V-A:TYR:539:CD1:4873, V-A:TYR:531:CE2:4793, V-A:TYR:539:CA:4869, V-A:TYR:539:C:4867, H-A:ASP:366:OD2:3215, V-A:ILE:538:CB:4862"]

$$$$
4bf_Grossjean_2025
     RDKit          3D

 35 37  0  0  0  0  0  0  0  0999 V2000
  133.1480  125.3560   65.6540 C   0  0  0  0  0  0  0  0  0  0  0  0
  132.4780  124.6340   64.4980 C   0  0  0  0  0  0  0  0  0  0  0  0
  133.2040  123.7880   63.6640 C   0  0  0  0  0  0  0  0  0  0  0  0
  132.5730  123.1300   62.5970 C   0  0  0  0  0  0  0  0  0  0  0  0
  133.4130  122.2100   61.7040 C   0  0  0  0  0  0  0  0  0  0  0  0
  132.8750  120.9980   61.5500 F   0  0  0  0  0  0  0  0  0  0  0  0
  133.5370  122.7480   60.4910 F   0  0  0  0  0  0  0  0  0  0  0  0
  134.6230  122.0440   62.2380 F   0  0  0  0  0  0  0  0  0  0  0  0
  131.1780  123.3680   62.4160 C   0  0  0  0  0  0  0  0  0  0  0  0
  130.2160  122.8850   61.4570 C   0  0  0  0  0  0  0  0  0  0  0  0
  130.5480  122.0100   60.4530 N   0  0  0  0  0  0  0  0  0  0  0  0
  128.9170  123.3850   61.6430 C   0  0  0  0  0  0  0  0  0  0  0  0
  127.7160  123.1300   60.8420 C   0  0  0  0  0  0  0  0  0  0  0  0
  126.6650  122.7780   61.3800 O   0  0  0  0  0  0  0  0  0  0  0  0
  127.8570  123.3250   59.5080 N   0  0  0  0  0  0  0  0  0  0  0  0
  126.9270  123.1250   58.4700 C   0  0  0  0  0  0  0  0  0  0  0  0
  125.6210  123.6460   58.4340 C   0  0  0  0  0  0  0  0  0  0  0  0
  124.7920  123.3580   57.3470 C   0  0  0  0  0  0  0  0  0  0  0  0
  125.2880  122.5500   56.3240 C   0  0  0  0  0  0  0  0  0  0  0  0
  126.5400  122.0290   56.3390 N   0  0  0  0  0  0  0  0  0  0  0  0
  127.3350  122.3180   57.4010 C   0  0  0  0  0  0  0  0  0  0  0  0
  128.8480  124.4800   63.0220 S   0  0  0  0  0  0  0  0  0  0  0  0
  130.5520  124.2580   63.3430 C   0  0  0  0  0  0  0  0  0  0  0  0
  131.1550  124.8810   64.3550 N   0  0  0  0  0  0  0  0  0  0  0  0
  132.7728  124.9517   66.6057 H   0  0  0  0  0  0  0  0  0  0  0  0
  134.2366  125.2087   65.5968 H   0  0  0  0  0  0  0  0  0  0  0  0
  132.9199  126.4306   65.5968 H   0  0  0  0  0  0  0  0  0  0  0  0
  134.2785  123.6344   63.8424 H   0  0  0  0  0  0  0  0  0  0  0  0
  129.9590  121.2270   60.2110 H   0  0  0  0  0  0  0  0  0  0  0  0
  131.3980  122.1230   59.9180 H   0  0  0  0  0  0  0  0  0  0  0  0
  128.7540  123.6710   59.2020 H   0  0  0  0  0  0  0  0  0  0  0  0
  125.2544  124.2768   59.2572 H   0  0  0  0  0  0  0  0  0  0  0  0
  123.7693  123.7601   57.2989 H   0  0  0  0  0  0  0  0  0  0  0  0
  124.6351  122.3255   55.4676 H   0  0  0  0  0  0  0  0  0  0  0  0
  128.3510  121.8969   57.4227 H   0  0  0  0  0  0  0  0  0  0  0  0
  1  2  1  0
  2  3  2  0
  3  4  1  0
  4  5  1  0
  5  6  1  0
  5  7  1  0
  5  8  1  0
  4  9  2  0
  9 10  1  0
 10 11  1  0
 10 12  2  0
 12 13  1  0
 13 14  2  0
 13 15  1  0
 15 16  1  0
 16 17  2  0
 17 18  1  0
 18 19  2  0
 19 20  1  0
 20 21  2  0
 12 22  1  0
 22 23  1  0
 23 24  2  0
 24  2  1  0
 23  9  1  0
 21 16  1  0
  1 25  1  0
  1 26  1  0
  1 27  1  0
  3 28  1  0
 11 29  1  0
 11 30  1  0
 15 31  1  0
 17 32  1  0
 18 33  1  0
 19 34  1  0
 21 35  1  0
M  END
>  <Binding energies>  (1) 
[-6.14]

>  <Ligand effiencies>  (1) 
[-0.2274074074074074]

>  <Interactions>  (1) 
["V-A:ILE:369:CG2:3237, V-A:ILE:369:CD1:3239, V-A:GLY:453:C:4042, V-B:GLU:543:CD:9880, V-B:GLU:543:CG:9879, V-A:ARG:545:CZ:4926, V-A:LEU:475:CD2:4259, V-A:GLY:454:CA:4049, V-B:TYR:539:C:9839, H-B:ALA:541:N:9863, V-B:PRO:540:CD:9859, V-B:PRO:540:CA:9855, V-B:PRO:540:CB:9857, V-B:PRO:540:N:9856, V-B:LEU:363:CD1:8160, V-B:MET:535:CE:9807, V-B:TYR:539:CZ:9849, V-B:TYR:539:CE2:9848, V-B:TYR:539:CD1:9845, V-B:TYR:539:CA:9841, H-B:TYR:539:N:9842, V-B:TYR:539:CE1:9847, V-B:TYR:539:CD2:9846, V-B:ILE:538:CG2:9835, V-B:TYR:539:CG:9844, V-A:SER:385:CB:3409, V-A:ARG:545:CG:4922, V-A:ARG:545:CD:4923, V-A:SER:385:C:3405, H-B:TYR:539:O:9840"]

$$$$
4bg_Grossjean_2025
     RDKit          3D

 39 41  0  0  0  0  0  0  0  0999 V2000
  135.5070  124.5790   62.2530 C   0  0  0  0  0  0  0  0  0  0  0  0
  134.1460  124.3840   62.8960 C   0  0  0  0  0  0  0  0  0  0  0  0
  133.1680  123.6060   62.2840 C   0  0  0  0  0  0  0  0  0  0  0  0
  131.9110  123.4380   62.8880 C   0  0  0  0  0  0  0  0  0  0  0  0
  130.8660  122.5730   62.1770 C   0  0  0  0  0  0  0  0  0  0  0  0
  130.2870  121.6830   62.9860 F   0  0  0  0  0  0  0  0  0  0  0  0
  129.9010  123.3480   61.6810 F   0  0  0  0  0  0  0  0  0  0  0  0
  131.4410  121.8950   61.1840 F   0  0  0  0  0  0  0  0  0  0  0  0
  131.6960  124.0940   64.1370 C   0  0  0  0  0  0  0  0  0  0  0  0
  130.5640  124.1600   65.0290 C   0  0  0  0  0  0  0  0  0  0  0  0
  129.3740  123.5290   64.7670 N   0  0  0  0  0  0  0  0  0  0  0  0
  130.7930  124.9160   66.1880 C   0  0  0  0  0  0  0  0  0  0  0  0
  129.8660  125.2150   67.2800 C   0  0  0  0  0  0  0  0  0  0  0  0
  129.5520  124.3600   68.1090 O   0  0  0  0  0  0  0  0  0  0  0  0
  129.4140  126.4850   67.3390 N   0  0  0  0  0  0  0  0  0  0  0  0
  128.4720  127.0050   68.3310 C   0  0  0  0  0  0  0  0  0  0  0  0
  129.1040  127.2710   69.6910 C   0  0  0  0  0  0  0  0  0  0  0  0
  128.4200  126.9250   70.8610 C   0  0  0  0  0  0  0  0  0  0  0  0
  129.0160  127.1340   72.1020 C   0  0  0  0  0  0  0  0  0  0  0  0
  130.2990  127.6740   72.1700 C   0  0  0  0  0  0  0  0  0  0  0  0
  130.9920  128.0040   71.0080 C   0  0  0  0  0  0  0  0  0  0  0  0
  130.3960  127.7970   69.7670 C   0  0  0  0  0  0  0  0  0  0  0  0
  132.4130  125.6070   66.1940 S   0  0  0  0  0  0  0  0  0  0  0  0
  132.7850  124.8570   64.6600 C   0  0  0  0  0  0  0  0  0  0  0  0
  133.9750  125.0140   64.0810 N   0  0  0  0  0  0  0  0  0  0  0  0
  136.2707  124.6884   63.0371 H   0  0  0  0  0  0  0  0  0  0  0  0
  135.7457  123.7059   61.6280 H   0  0  0  0  0  0  0  0  0  0  0  0
  135.4909  125.4840   61.6280 H   0  0  0  0  0  0  0  0  0  0  0  0
  133.3807  123.1193   61.3207 H   0  0  0  0  0  0  0  0  0  0  0  0
  129.0500  122.7490   65.3180 H   0  0  0  0  0  0  0  0  0  0  0  0
  128.7820  123.8210   64.0010 H   0  0  0  0  0  0  0  0  0  0  0  0
  129.6490  127.1100   66.5820 H   0  0  0  0  0  0  0  0  0  0  0  0
  128.0531  127.9487   67.9516 H   0  0  0  0  0  0  0  0  0  0  0  0
  127.7009  126.2345   68.4787 H   0  0  0  0  0  0  0  0  0  0  0  0
  127.4122  126.4882   70.8008 H   0  0  0  0  0  0  0  0  0  0  0  0
  128.4765  126.8740   73.0247 H   0  0  0  0  0  0  0  0  0  0  0  0
  130.7686  127.8411   73.1506 H   0  0  0  0  0  0  0  0  0  0  0  0
  132.0058  128.4263   71.0704 H   0  0  0  0  0  0  0  0  0  0  0  0
  130.9426  128.0477   68.8459 H   0  0  0  0  0  0  0  0  0  0  0  0
  1  2  1  0
  2  3  2  0
  3  4  1  0
  4  5  1  0
  5  6  1  0
  5  7  1  0
  5  8  1  0
  4  9  2  0
  9 10  1  0
 10 11  1  0
 10 12  2  0
 12 13  1  0
 13 14  2  0
 13 15  1  0
 15 16  1  0
 16 17  1  0
 17 18  2  0
 18 19  1  0
 19 20  2  0
 20 21  1  0
 21 22  2  0
 12 23  1  0
 23 24  1  0
 24 25  2  0
 25  2  1  0
 24  9  1  0
 22 17  1  0
  1 26  1  0
  1 27  1  0
  1 28  1  0
  3 29  1  0
 11 30  1  0
 11 31  1  0
 15 32  1  0
 16 33  1  0
 16 34  1  0
 18 35  1  0
 19 36  1  0
 20 37  1  0
 21 38  1  0
 22 39  1  0
M  END
>  <Binding energies>  (1) 
[-6.11]

>  <Ligand effiencies>  (1) 
[-0.21821428571428572]

>  <Interactions>  (1) 
["V-A:ILE:369:CD1:3239, V-A:GLY:453:C:4042, V-B:GLU:543:CD:9880, H-A:ARG:545:NH1:4927, H-A:ARG:545:NH2:4928, H-A:GLY:454:N:4050, V-A:GLY:453:CA:4044, V-A:ASP:366:CG:3213, V-B:GLU:543:CG:9879, H-A:ARG:545:NE:4924, V-A:GLU:543:CD:4908, V-A:ARG:545:CZ:4926, H-A:GLU:543:OE2:4910, V-A:LEU:475:CD2:4259, V-A:HIS:456:CE1:4070, V-B:ALA:541:CB:9864, V-A:GLY:454:CA:4049, H-B:GLU:543:OE1:9881, V-B:TYR:539:CE2:9848, V-B:TYR:539:CD2:9846, V-A:TYR:484:CE2:4346, V-A:GLU:543:C:4902, V-A:HIS:456:CD2:4068, V-B:GLU:543:CA:9876, V-A:TYR:484:CZ:4347, V-B:GLU:543:CB:9878, V-A:GLY:544:C:4912, V-A:GLU:543:CB:4906, V-B:HIS:456:CE1:9041, V-A:ARG:545:CG:4922, V-A:ARG:545:CD:4923"]

$$$$
4bh_Grossjean_2025
     RDKit          3D

 51 53  0  0  0  0  0  0  0  0999 V2000
  127.6280  122.7810   56.5770 C   0  0  0  0  0  0  0  0  0  0  0  0
  127.8480  123.9840   57.3050 O   0  0  0  0  0  0  0  0  0  0  0  0
  127.9650  123.9330   58.6820 C   0  0  0  0  0  0  0  0  0  0  0  0
  129.1260  124.2940   59.3840 C   0  0  0  0  0  0  0  0  0  0  0  0
  129.1750  124.2160   60.7760 C   0  0  0  0  0  0  0  0  0  0  0  0
  130.4280  124.6560   61.5230 C   0  0  0  0  0  0  0  0  0  0  0  0
  130.1520  125.2160   62.8470 N   0  0  0  0  0  0  0  0  0  0  0  0
  130.2020  124.5340   64.0100 C   0  0  0  0  0  0  0  0  0  0  0  0
  130.4540  123.3290   64.0620 O   0  0  0  0  0  0  0  0  0  0  0  0
  129.8930  125.3010   65.2180 C   0  0  0  0  0  0  0  0  0  0  0  0
  130.2360  124.6210   66.8050 S   0  0  0  0  0  0  0  0  0  0  0  0
  129.5780  126.0330   67.5990 C   0  0  0  0  0  0  0  0  0  0  0  0
  129.5530  126.1350   68.9270 N   0  0  0  0  0  0  0  0  0  0  0  0
  129.0210  127.2750   69.4250 C   0  0  0  0  0  0  0  0  0  0  0  0
  129.0010  127.3700   70.9410 C   0  0  0  0  0  0  0  0  0  0  0  0
  128.5210  128.3070   68.6360 C   0  0  0  0  0  0  0  0  0  0  0  0
  128.5430  128.2040   67.2360 C   0  0  0  0  0  0  0  0  0  0  0  0
  127.9840  129.3660   66.4070 C   0  0  0  0  0  0  0  0  0  0  0  0
  126.7080  129.1920   66.0570 F   0  0  0  0  0  0  0  0  0  0  0  0
  128.0540  130.4960   67.1100 F   0  0  0  0  0  0  0  0  0  0  0  0
  128.6920  129.5010   65.2860 F   0  0  0  0  0  0  0  0  0  0  0  0
  129.0940  127.0130   66.6780 C   0  0  0  0  0  0  0  0  0  0  0  0
  129.2770  126.5580   65.3210 C   0  0  0  0  0  0  0  0  0  0  0  0
  128.8890  127.2950   64.2320 N   0  0  0  0  0  0  0  0  0  0  0  0
  128.0440  123.7980   61.4810 C   0  0  0  0  0  0  0  0  0  0  0  0
  126.8720  123.4230   60.8050 C   0  0  0  0  0  0  0  0  0  0  0  0
  125.7220  122.9880   61.4380 O   0  0  0  0  0  0  0  0  0  0  0  0
  124.6020  123.8620   61.5280 C   0  0  0  0  0  0  0  0  0  0  0  0
  126.8480  123.4900   59.4050 C   0  0  0  0  0  0  0  0  0  0  0  0
  125.7010  123.1430   58.7310 O   0  0  0  0  0  0  0  0  0  0  0  0
  124.9600  124.2530   58.2420 C   0  0  0  0  0  0  0  0  0  0  0  0
  127.4759  121.9492   57.2806 H   0  0  0  0  0  0  0  0  0  0  0  0
  126.7355  122.8936   55.9439 H   0  0  0  0  0  0  0  0  0  0  0  0
  128.5025  122.5704   55.9439 H   0  0  0  0  0  0  0  0  0  0  0  0
  130.0091  124.6431   58.8288 H   0  0  0  0  0  0  0  0  0  0  0  0
  131.0856  123.7826   61.6445 H   0  0  0  0  0  0  0  0  0  0  0  0
  130.8976  125.4520   60.9265 H   0  0  0  0  0  0  0  0  0  0  0  0
  130.0220  126.2170   62.8860 H   0  0  0  0  0  0  0  0  0  0  0  0
  129.2094  126.3802   71.3732 H   0  0  0  0  0  0  0  0  0  0  0  0
  129.7684  128.0843   71.2738 H   0  0  0  0  0  0  0  0  0  0  0  0
  128.0107  127.7143   71.2738 H   0  0  0  0  0  0  0  0  0  0  0  0
  128.1065  129.2079   69.1119 H   0  0  0  0  0  0  0  0  0  0  0  0
  127.9540  127.2350   63.8520 H   0  0  0  0  0  0  0  0  0  0  0  0
  129.5310  127.9200   63.7650 H   0  0  0  0  0  0  0  0  0  0  0  0
  128.0719  123.7621   62.5801 H   0  0  0  0  0  0  0  0  0  0  0  0
  124.3652  124.0468   62.5862 H   0  0  0  0  0  0  0  0  0  0  0  0
  124.8402  124.8154   61.0337 H   0  0  0  0  0  0  0  0  0  0  0  0
  123.7351  123.3992   61.0337 H   0  0  0  0  0  0  0  0  0  0  0  0
  124.5708  124.8361   59.0896 H   0  0  0  0  0  0  0  0  0  0  0  0
  125.6149  124.8896   57.6290 H   0  0  0  0  0  0  0  0  0  0  0  0
  124.1209  123.8923   57.6290 H   0  0  0  0  0  0  0  0  0  0  0  0
  1  2  1  0
  2  3  1  0
  3  4  2  0
  4  5  1  0
  5  6  1  0
  6  7  1  0
  7  8  1  0
  8  9  2  0
  8 10  1  0
 10 11  1  0
 11 12  1  0
 12 13  2  0
 13 14  1  0
 14 15  1  0
 14 16  2  0
 16 17  1  0
 17 18  1  0
 18 19  1  0
 18 20  1  0
 18 21  1  0
 17 22  2  0
 22 23  1  0
 23 24  1  0
  5 25  2  0
 25 26  1  0
 26 27  1  0
 27 28  1  0
 26 29  2  0
 29 30  1  0
 30 31  1  0
 29  3  1  0
 23 10  2  0
 22 12  1  0
  1 32  1  0
  1 33  1  0
  1 34  1  0
  4 35  1  0
  6 36  1  0
  6 37  1  0
  7 38  1  0
 15 39  1  0
 15 40  1  0
 15 41  1  0
 16 42  1  0
 24 43  1  0
 24 44  1  0
 25 45  1  0
 28 46  1  0
 28 47  1  0
 28 48  1  0
 31 49  1  0
 31 50  1  0
 31 51  1  0
M  END
>  <Binding energies>  (1) 
[-5.7]

>  <Ligand effiencies>  (1) 
[-0.16764705882352943]

>  <Interactions>  (1) 
["V-B:GLU:543:CD:9880, H-A:GLU:543:OE1:4909, V-B:GLU:543:CG:9879, V-A:GLU:543:CD:4908, H-A:GLU:543:OE2:4910, V-A:HIS:456:CE1:4070, H-B:GLU:543:OE2:9882, H-B:ALA:541:N:9863, H-B:GLU:543:OE1:9881, V-B:PRO:540:CA:9855, V-B:PRO:540:CB:9857, V-B:PRO:540:N:9856, V-B:LEU:363:CD1:8160, V-B:TYR:539:CZ:9849, V-B:TYR:539:CE2:9848, V-B:TYR:539:CD1:9845, V-B:TYR:539:CE1:9847, V-B:TYR:539:CD2:9846, V-B:TYR:539:CG:9844, V-B:ASN:362:CB:8147, V-A:TYR:484:CE2:4346, V-A:TYR:484:CZ:4347, V-B:GLU:543:CB:9878, V-A:GLU:543:CB:4906, V-B:HIS:456:CE1:9041, V-A:GLU:543:CG:4907, V-B:TYR:484:CE2:9317, V-B:TYR:484:CZ:9318, V-A:GLU:543:CA:4904, V-B:TYR:484:CE1:9316"]

$$$$
4bi_Grossjean_2025
     RDKit          3D

 32 34  0  0  0  0  0  0  0  0999 V2000
  135.0390  124.6350   62.6060 C   0  0  0  0  0  0  0  0  0  0  0  0
  133.5270  124.5000   62.6120 C   0  0  0  0  0  0  0  0  0  0  0  0
  132.7810  124.8370   63.7390 C   0  0  0  0  0  0  0  0  0  0  0  0
  131.3820  124.7110   63.7290 C   0  0  0  0  0  0  0  0  0  0  0  0
  130.6040  125.1010   64.9890 C   0  0  0  0  0  0  0  0  0  0  0  0
  129.8720  124.0990   65.4820 F   0  0  0  0  0  0  0  0  0  0  0  0
  131.4510  125.4840   65.9430 F   0  0  0  0  0  0  0  0  0  0  0  0
  129.7700  126.1050   64.7120 F   0  0  0  0  0  0  0  0  0  0  0  0
  130.7800  124.2250   62.5300 C   0  0  0  0  0  0  0  0  0  0  0  0
  129.4120  123.9660   62.1550 C   0  0  0  0  0  0  0  0  0  0  0  0
  128.3580  124.1690   63.0090 N   0  0  0  0  0  0  0  0  0  0  0  0
  129.2550  123.4970   60.8400 C   0  0  0  0  0  0  0  0  0  0  0  0
  128.0210  123.1250   60.1430 C   0  0  0  0  0  0  0  0  0  0  0  0
  127.0080  122.8200   60.7760 O   0  0  0  0  0  0  0  0  0  0  0  0
  128.0830  123.1620   58.7890 N   0  0  0  0  0  0  0  0  0  0  0  0
  127.0660  122.8730   57.8870 C   0  0  0  0  0  0  0  0  0  0  0  0
  125.8200  123.4960   57.9190 C   0  0  0  0  0  0  0  0  0  0  0  0
  125.1130  122.9380   56.8780 C   0  0  0  0  0  0  0  0  0  0  0  0
  125.8940  122.0260   56.2520 O   0  0  0  0  0  0  0  0  0  0  0  0
  127.1300  121.9940   56.9020 N   0  0  0  0  0  0  0  0  0  0  0  0
  130.8130  123.3380   60.0310 S   0  0  0  0  0  0  0  0  0  0  0  0
  131.6590  123.9160   61.4470 C   0  0  0  0  0  0  0  0  0  0  0  0
  132.9860  124.0390   61.4610 N   0  0  0  0  0  0  0  0  0  0  0  0
  135.4083  124.6680   63.6416 H   0  0  0  0  0  0  0  0  0  0  0  0
  135.4820  123.7728   62.0860 H   0  0  0  0  0  0  0  0  0  0  0  0
  135.3223  125.5620   62.0860 H   0  0  0  0  0  0  0  0  0  0  0  0
  133.2904  125.2040   64.6422 H   0  0  0  0  0  0  0  0  0  0  0  0
  128.4870  124.5560   63.9340 H   0  0  0  0  0  0  0  0  0  0  0  0
  127.4120  123.9310   62.7440 H   0  0  0  0  0  0  0  0  0  0  0  0
  128.9620  123.4400   58.3770 H   0  0  0  0  0  0  0  0  0  0  0  0
  125.4757  124.2671   58.6239 H   0  0  0  0  0  0  0  0  0  0  0  0
  124.0796  123.1921   56.5994 H   0  0  0  0  0  0  0  0  0  0  0  0
  1  2  1  0
  2  3  2  0
  3  4  1  0
  4  5  1  0
  5  6  1  0
  5  7  1  0
  5  8  1  0
  4  9  2  0
  9 10  1  0
 10 11  1  0
 10 12  2  0
 12 13  1  0
 13 14  2  0
 13 15  1  0
 15 16  1  0
 16 17  1  0
 17 18  2  0
 18 19  1  0
 19 20  1  0
 12 21  1  0
 21 22  1  0
 22 23  2  0
 23  2  1  0
 22  9  1  0
 20 16  2  0
  1 24  1  0
  1 25  1  0
  1 26  1  0
  3 27  1  0
 11 28  1  0
 11 29  1  0
 15 30  1  0
 17 31  1  0
 18 32  1  0
M  END
>  <Binding energies>  (1) 
[-5.99]

>  <Ligand effiencies>  (1) 
[-0.23038461538461538]

>  <Interactions>  (1) 
["V-A:ILE:369:CD1:3239, V-A:GLY:453:C:4042, V-B:GLU:543:CD:9880, V-A:GLY:453:CA:4044, V-B:GLU:543:CG:9879, V-A:GLU:543:CD:4908, V-A:ARG:545:CZ:4926, H-B:GLU:543:OE2:9882, V-B:TYR:539:C:9839, H-B:ALA:541:N:9863, H-B:GLU:543:OE1:9881, V-B:PRO:540:CD:9859, V-B:PRO:540:CA:9855, V-B:PRO:540:CB:9857, V-B:PRO:540:N:9856, V-B:LEU:363:CD1:8160, V-B:MET:535:CE:9807, V-B:TYR:539:CE2:9848, H-B:TYR:539:N:9842, V-B:TYR:539:CD2:9846, V-A:TYR:484:CE2:4346, V-B:GLU:543:CB:9878, H-B:TYR:539:OH:9850"]

$$$$
4bj_Grossjean_2025
     RDKit          3D

 32 34  0  0  0  0  0  0  0  0999 V2000
  130.7440  120.6590   60.7760 C   0  0  0  0  0  0  0  0  0  0  0  0
  131.0140  121.7580   61.7880 C   0  0  0  0  0  0  0  0  0  0  0  0
  132.0250  122.6920   61.5790 C   0  0  0  0  0  0  0  0  0  0  0  0
  132.2680  123.7000   62.5260 C   0  0  0  0  0  0  0  0  0  0  0  0
  133.3940  124.7040   62.2540 C   0  0  0  0  0  0  0  0  0  0  0  0
  134.2050  124.8730   63.3000 F   0  0  0  0  0  0  0  0  0  0  0  0
  134.1400  124.2800   61.2340 F   0  0  0  0  0  0  0  0  0  0  0  0
  132.8730  125.8940   61.9550 F   0  0  0  0  0  0  0  0  0  0  0  0
  131.4390  123.7180   63.6870 C   0  0  0  0  0  0  0  0  0  0  0  0
  131.3920  124.5750   64.8470 C   0  0  0  0  0  0  0  0  0  0  0  0
  132.2530  125.6280   65.0250 N   0  0  0  0  0  0  0  0  0  0  0  0
  130.3880  124.2380   65.7680 C   0  0  0  0  0  0  0  0  0  0  0  0
  130.0680  124.8810   67.0450 C   0  0  0  0  0  0  0  0  0  0  0  0
  129.5280  124.2460   67.9540 O   0  0  0  0  0  0  0  0  0  0  0  0
  130.4190  126.1870   67.1440 N   0  0  0  0  0  0  0  0  0  0  0  0
  130.2390  127.0180   68.2410 C   0  0  0  0  0  0  0  0  0  0  0  0
  131.1620  127.6280   68.9530 N   0  0  0  0  0  0  0  0  0  0  0  0
  130.6320  128.3450   69.9230 C   0  0  0  0  0  0  0  0  0  0  0  0
  129.2440  128.3260   70.0150 C   0  0  0  0  0  0  0  0  0  0  0  0
  128.6080  127.3070   68.7570 S   0  0  0  0  0  0  0  0  0  0  0  0
  129.4780  122.8270   65.2340 S   0  0  0  0  0  0  0  0  0  0  0  0
  130.4340  122.7060   63.7760 C   0  0  0  0  0  0  0  0  0  0  0  0
  130.2100  121.7490   62.8760 N   0  0  0  0  0  0  0  0  0  0  0  0
  130.5139  119.7222   61.3047 H   0  0  0  0  0  0  0  0  0  0  0  0
  129.8890  120.9435   60.1450 H   0  0  0  0  0  0  0  0  0  0  0  0
  131.6335  120.5150   60.1450 H   0  0  0  0  0  0  0  0  0  0  0  0
  132.6372  122.6401   60.6665 H   0  0  0  0  0  0  0  0  0  0  0  0
  131.9640  126.5850   64.8820 H   0  0  0  0  0  0  0  0  0  0  0  0
  133.2140  125.4800   65.3010 H   0  0  0  0  0  0  0  0  0  0  0  0
  130.8640  126.6090   66.3430 H   0  0  0  0  0  0  0  0  0  0  0  0
  131.2524  128.9262   70.6211 H   0  0  0  0  0  0  0  0  0  0  0  0
  128.6456  128.8677   70.7623 H   0  0  0  0  0  0  0  0  0  0  0  0
  1  2  1  0
  2  3  2  0
  3  4  1  0
  4  5  1  0
  5  6  1  0
  5  7  1  0
  5  8  1  0
  4  9  2  0
  9 10  1  0
 10 11  1  0
 10 12  2  0
 12 13  1  0
 13 14  2  0
 13 15  1  0
 15 16  1  0
 16 17  2  0
 17 18  1  0
 18 19  2  0
 19 20  1  0
 12 21  1  0
 21 22  1  0
 22 23  2  0
 23  2  1  0
 22  9  1  0
 20 16  1  0
  1 24  1  0
  1 25  1  0
  1 26  1  0
  3 27  1  0
 11 28  1  0
 11 29  1  0
 15 30  1  0
 18 31  1  0
 19 32  1  0
M  END
>  <Binding energies>  (1) 
[-5.89]

>  <Ligand effiencies>  (1) 
[-0.22653846153846152]

>  <Interactions>  (1) 
["V-A:ILE:369:CD1:3239, V-A:GLY:453:C:4042, V-A:GLY:453:CA:4044, V-A:ASP:366:CG:3213, H-A:GLU:543:OE1:4909, H-A:TYR:484:OH:4348, V-B:GLU:543:CG:9879, V-A:GLU:543:CD:4908, V-A:ARG:545:CZ:4926, H-A:GLU:543:OE2:4910, V-A:LEU:475:CD2:4259, V-A:HIS:456:CE1:4070, V-B:ALA:541:CB:9864, V-B:TYR:539:CE2:9848, V-B:TYR:539:CD2:9846, V-A:TYR:484:CE2:4346, V-A:GLU:543:C:4902, V-B:GLU:543:CA:9876, V-A:TYR:484:CZ:4347, V-B:GLU:543:CB:9878, V-A:GLY:544:C:4912, V-A:GLU:543:CB:4906, V-B:HIS:456:CE1:9041, V-A:GLU:543:CA:4904"]

$$$$
4bk_Grossjean_2025
     RDKit          3D

 50 51  0  0  0  0  0  0  0  0999 V2000
  126.0870  128.0140   74.2850 C   0  0  0  0  0  0  0  0  0  0  0  0
  127.4270  127.9460   74.7470 O   0  0  0  0  0  0  0  0  0  0  0  0
  128.3360  128.7050   73.9600 C   0  0  0  0  0  0  0  0  0  0  0  0
  129.3060  127.7580   73.2430 C   0  0  0  0  0  0  0  0  0  0  0  0
  128.7120  126.4730   73.1280 O   0  0  0  0  0  0  0  0  0  0  0  0
  128.3430  126.1280   71.7990 C   0  0  0  0  0  0  0  0  0  0  0  0
  129.1950  126.9320   70.8080 C   0  0  0  0  0  0  0  0  0  0  0  0
  128.3410  127.6360   69.9170 O   0  0  0  0  0  0  0  0  0  0  0  0
  128.4720  127.2360   68.5580 C   0  0  0  0  0  0  0  0  0  0  0  0
  129.9640  127.0920   68.2110 C   0  0  0  0  0  0  0  0  0  0  0  0
  130.2180  126.2220   67.0620 N   0  0  0  0  0  0  0  0  0  0  0  0
  130.0210  124.8880   67.0350 C   0  0  0  0  0  0  0  0  0  0  0  0
  129.5760  124.2670   68.0020 O   0  0  0  0  0  0  0  0  0  0  0  0
  130.3580  124.2120   65.7810 C   0  0  0  0  0  0  0  0  0  0  0  0
  129.4290  122.8100   65.2550 S   0  0  0  0  0  0  0  0  0  0  0  0
  130.3860  122.6670   63.8000 C   0  0  0  0  0  0  0  0  0  0  0  0
  130.1530  121.7060   62.9070 N   0  0  0  0  0  0  0  0  0  0  0  0
  130.9590  121.6980   61.8190 C   0  0  0  0  0  0  0  0  0  0  0  0
  130.6740  120.5960   60.8140 C   0  0  0  0  0  0  0  0  0  0  0  0
  131.9810  122.6180   61.6070 C   0  0  0  0  0  0  0  0  0  0  0  0
  132.2330  123.6320   62.5450 C   0  0  0  0  0  0  0  0  0  0  0  0
  133.3710  124.6190   62.2690 C   0  0  0  0  0  0  0  0  0  0  0  0
  134.1860  124.7830   63.3140 F   0  0  0  0  0  0  0  0  0  0  0  0
  134.1110  124.1820   61.2500 F   0  0  0  0  0  0  0  0  0  0  0  0
  132.8680  125.8150   61.9650 F   0  0  0  0  0  0  0  0  0  0  0  0
  131.4000  123.6700   63.7030 C   0  0  0  0  0  0  0  0  0  0  0  0
  131.3540  124.5420   64.8500 C   0  0  0  0  0  0  0  0  0  0  0  0
  132.2140  125.5970   65.0150 N   0  0  0  0  0  0  0  0  0  0  0  0
  125.4035  128.0487   75.1462 H   0  0  0  0  0  0  0  0  0  0  0  0
  125.9549  128.9200   73.6753 H   0  0  0  0  0  0  0  0  0  0  0  0
  125.8638  127.1260   73.6753 H   0  0  0  0  0  0  0  0  0  0  0  0
  127.7763  129.2895   73.2150 H   0  0  0  0  0  0  0  0  0  0  0  0
  128.9032  129.3870   74.6106 H   0  0  0  0  0  0  0  0  0  0  0  0
  129.5282  128.1508   72.2398 H   0  0  0  0  0  0  0  0  0  0  0  0
  130.2390  127.6812   73.8206 H   0  0  0  0  0  0  0  0  0  0  0  0
  128.5108  125.0527   71.6390 H   0  0  0  0  0  0  0  0  0  0  0  0
  127.2794  126.3599   71.6413 H   0  0  0  0  0  0  0  0  0  0  0  0
  129.8216  127.6485   71.3593 H   0  0  0  0  0  0  0  0  0  0  0  0
  129.8395  126.2477   70.2368 H   0  0  0  0  0  0  0  0  0  0  0  0
  127.9654  126.2711   68.4087 H   0  0  0  0  0  0  0  0  0  0  0  0
  128.0137  127.9937   67.9054 H   0  0  0  0  0  0  0  0  0  0  0  0
  130.3666  128.0908   67.9864 H   0  0  0  0  0  0  0  0  0  0  0  0
  130.4536  126.6287   69.0803 H   0  0  0  0  0  0  0  0  0  0  0  0
  130.5850  126.6710   66.2360 H   0  0  0  0  0  0  0  0  0  0  0  0
  130.4333  119.6653   61.3487 H   0  0  0  0  0  0  0  0  0  0  0  0
  129.8216  120.8870   60.1826 H   0  0  0  0  0  0  0  0  0  0  0  0
  131.5606  120.4373   60.1826 H   0  0  0  0  0  0  0  0  0  0  0  0
  132.5962  122.5505   60.6977 H   0  0  0  0  0  0  0  0  0  0  0  0
  131.9180  126.5540   64.8810 H   0  0  0  0  0  0  0  0  0  0  0  0
  133.1780  125.4530   65.2830 H   0  0  0  0  0  0  0  0  0  0  0  0
  1  2  1  0
  2  3  1  0
  3  4  1  0
  4  5  1  0
  5  6  1  0
  6  7  1  0
  7  8  1  0
  8  9  1  0
  9 10  1  0
 10 11  1  0
 11 12  1  0
 12 13  2  0
 12 14  1  0
 14 15  1  0
 15 16  1  0
 16 17  2  0
 17 18  1  0
 18 19  1  0
 18 20  2  0
 20 21  1  0
 21 22  1  0
 22 23  1  0
 22 24  1  0
 22 25  1  0
 21 26  2  0
 26 27  1  0
 27 28  1  0
 27 14  2  0
 26 16  1  0
  1 29  1  0
  1 30  1  0
  1 31  1  0
  3 32  1  0
  3 33  1  0
  4 34  1  0
  4 35  1  0
  6 36  1  0
  6 37  1  0
  7 38  1  0
  7 39  1  0
  9 40  1  0
  9 41  1  0
 10 42  1  0
 10 43  1  0
 11 44  1  0
 19 45  1  0
 19 46  1  0
 19 47  1  0
 20 48  1  0
 28 49  1  0
 28 50  1  0
M  END
>  <Binding energies>  (1) 
[-5.3]

>  <Ligand effiencies>  (1) 
[-0.17096774193548386]

>  <Interactions>  (1) 
["V-A:ILE:369:CD1:3239, V-A:GLY:453:C:4042, V-A:GLY:453:CA:4044, V-A:ASP:366:CG:3213, H-A:GLU:543:OE1:4909, H-A:TYR:484:OH:4348, V-B:GLU:543:CG:9879, V-A:GLU:543:CD:4908, V-A:ARG:545:CZ:4926, H-A:GLU:543:OE2:4910, V-A:LEU:475:CD2:4259, V-A:HIS:456:CE1:4070, V-B:ALA:541:CB:9864, V-B:TYR:539:CE2:9848, V-B:TYR:539:CD2:9846, V-A:TYR:484:CE2:4346, V-B:GLU:543:C:9874, V-B:GLU:543:CA:9876, V-A:TYR:484:CZ:4347, V-B:GLU:543:CB:9878, V-A:GLU:543:CB:4906, V-B:HIS:456:CD2:9039, V-B:HIS:456:CE1:9041, V-B:GLY:544:C:9884, V-B:GLY:544:CA:9886, V-B:LYS:547:CE:9922, V-B:HIS:456:CG:9037, H-B:LYS:547:NZ:9923, V-B:HIS:456:CB:9036"]

$$$$
4ca_Grossjean_2025
     RDKit          3D

 52 55  0  0  0  0  0  0  0  0999 V2000
  132.2420  131.7150   57.2800 C   0  0  0  0  0  0  0  0  0  0  0  0
  131.4150  132.5520   56.2990 C   0  0  0  0  0  0  0  0  0  0  0  0
  130.6100  133.4720   57.0250 O   0  0  0  0  0  0  0  0  0  0  0  0
  129.3360  133.1610   57.3800 C   0  0  0  0  0  0  0  0  0  0  0  0
  128.3420  133.5570   56.7620 O   0  0  0  0  0  0  0  0  0  0  0  0
  129.2560  132.2850   58.5960 C   0  0  0  0  0  0  0  0  0  0  0  0
  129.4460  132.8540   59.8620 C   0  0  0  0  0  0  0  0  0  0  0  0
  129.3740  132.0690   61.0090 C   0  0  0  0  0  0  0  0  0  0  0  0
  129.1190  130.7010   60.9150 C   0  0  0  0  0  0  0  0  0  0  0  0
  129.0590  130.0040   62.1380 N   0  0  0  0  0  0  0  0  0  0  0  0
  128.0120  129.3890   62.7410 C   0  0  0  0  0  0  0  0  0  0  0  0
  126.8860  129.3010   62.2510 O   0  0  0  0  0  0  0  0  0  0  0  0
  128.3050  128.7940   64.0470 C   0  0  0  0  0  0  0  0  0  0  0  0
  127.8760  129.6500   65.5260 S   0  0  0  0  0  0  0  0  0  0  0  0
  128.4740  128.3370   66.5120 C   0  0  0  0  0  0  0  0  0  0  0  0
  128.4210  128.3870   67.8410 N   0  0  0  0  0  0  0  0  0  0  0  0
  128.8970  127.3140   68.5230 C   0  0  0  0  0  0  0  0  0  0  0  0
  128.8140  127.3970   70.0200 C   0  0  0  0  0  0  0  0  0  0  0  0
  127.7130  126.8660   70.7100 C   0  0  0  0  0  0  0  0  0  0  0  0
  127.6280  126.9450   72.0980 C   0  0  0  0  0  0  0  0  0  0  0  0
  128.6470  127.5600   72.8180 C   0  0  0  0  0  0  0  0  0  0  0  0
  129.7490  128.0960   72.1600 C   0  0  0  0  0  0  0  0  0  0  0  0
  129.8300  128.0150   70.7720 C   0  0  0  0  0  0  0  0  0  0  0  0
  129.4440  126.2050   67.8680 C   0  0  0  0  0  0  0  0  0  0  0  0
  129.5080  126.1440   66.4680 C   0  0  0  0  0  0  0  0  0  0  0  0
  130.1170  124.8970   65.8160 C   0  0  0  0  0  0  0  0  0  0  0  0
  131.3730  125.0820   65.4040 F   0  0  0  0  0  0  0  0  0  0  0  0
  130.1280  123.8900   66.6890 F   0  0  0  0  0  0  0  0  0  0  0  0
  129.3960  124.5480   64.7500 F   0  0  0  0  0  0  0  0  0  0  0  0
  128.9960  127.2570   65.7420 C   0  0  0  0  0  0  0  0  0  0  0  0
  128.8840  127.5460   64.3330 C   0  0  0  0  0  0  0  0  0  0  0  0
  129.3090  126.6750   63.3630 N   0  0  0  0  0  0  0  0  0  0  0  0
  128.9230  130.1230   59.6530 C   0  0  0  0  0  0  0  0  0  0  0  0
  128.9930  130.9100   58.5060 C   0  0  0  0  0  0  0  0  0  0  0  0
  131.9732  131.9871   58.3114 H   0  0  0  0  0  0  0  0  0  0  0  0
  132.0344  130.6472   57.1165 H   0  0  0  0  0  0  0  0  0  0  0  0
  133.3122  131.9097   57.1165 H   0  0  0  0  0  0  0  0  0  0  0  0
  132.0897  133.1044   55.6284 H   0  0  0  0  0  0  0  0  0  0  0  0
  130.7697  131.8892   55.7038 H   0  0  0  0  0  0  0  0  0  0  0  0
  129.6539  133.9306   59.9503 H   0  0  0  0  0  0  0  0  0  0  0  0
  129.5192  132.5308   61.9968 H   0  0  0  0  0  0  0  0  0  0  0  0
  129.9400  129.9510   62.6260 H   0  0  0  0  0  0  0  0  0  0  0  0
  126.9040  126.3795   70.1453 H   0  0  0  0  0  0  0  0  0  0  0  0
  126.7584  126.5227   72.6228 H   0  0  0  0  0  0  0  0  0  0  0  0
  128.5809  127.6228   73.9142 H   0  0  0  0  0  0  0  0  0  0  0  0
  130.5526  128.5815   72.7331 H   0  0  0  0  0  0  0  0  0  0  0  0
  130.7025  128.4411   70.2552 H   0  0  0  0  0  0  0  0  0  0  0  0
  129.8314  125.3645   68.4626 H   0  0  0  0  0  0  0  0  0  0  0  0
  128.7170  125.9340   63.0130 H   0  0  0  0  0  0  0  0  0  0  0  0
  130.2330  126.7470   62.9590 H   0  0  0  0  0  0  0  0  0  0  0  0
  128.7136  129.0464   59.5685 H   0  0  0  0  0  0  0  0  0  0  0  0
  128.8405  130.4485   57.5192 H   0  0  0  0  0  0  0  0  0  0  0  0
  1  2  1  0
  2  3  1  0
  3  4  1  0
  4  5  2  0
  4  6  1  0
  6  7  2  0
  7  8  1  0
  8  9  2  0
  9 10  1  0
 10 11  1  0
 11 12  2  0
 11 13  1  0
 13 14  1  0
 14 15  1  0
 15 16  2  0
 16 17  1  0
 17 18  1  0
 18 19  2  0
 19 20  1  0
 20 21  2  0
 21 22  1  0
 22 23  2  0
 17 24  2  0
 24 25  1  0
 25 26  1  0
 26 27  1  0
 26 28  1  0
 26 29  1  0
 25 30  2  0
 30 31  1  0
 31 32  1  0
  9 33  1  0
 33 34  2  0
 34  6  1  0
 31 13  2  0
 30 15  1  0
 23 18  1  0
  1 35  1  0
  1 36  1  0
  1 37  1  0
  2 38  1  0
  2 39  1  0
  7 40  1  0
  8 41  1  0
 10 42  1  0
 19 43  1  0
 20 44  1  0
 21 45  1  0
 22 46  1  0
 23 47  1  0
 24 48  1  0
 32 49  1  0
 32 50  1  0
 33 51  1  0
 34 52  1  0
M  END
>  <Binding energies>  (1) 
[-8.25]

>  <Ligand effiencies>  (1) 
[-0.22297297297297297]

>  <Interactions>  (1) 
["V-B:GLU:543:CD:9880, H-A:GLU:543:OE1:4909, V-B:GLU:543:CG:9879, V-A:GLU:543:CD:4908, H-A:GLU:543:OE2:4910, V-A:HIS:456:CE1:4070, H-B:GLU:543:OE1:9881, V-A:TYR:484:CE2:4346, V-B:GLU:543:C:9874, V-B:GLU:543:CA:9876, V-A:TYR:484:CZ:4347, V-B:GLU:543:CB:9878, V-A:GLU:543:CB:4906, V-B:HIS:456:CD2:9039, V-B:HIS:456:CE1:9041, V-B:GLY:544:C:9884, V-A:GLU:543:CG:4907, V-B:LYS:547:CE:9922, V-A:PRO:540:CA:4883, V-A:PRO:540:CB:4885, V-A:LEU:363:CD1:3189, V-A:PRO:540:N:4884, V-A:TYR:539:CG:4872, V-A:TYR:539:CD1:4873, H-A:TYR:539:N:4870, V-A:TYR:539:CA:4869, V-A:TYR:539:C:4867, V-A:TYR:484:CD2:4344, V-A:ILE:538:CB:4862, V-A:ILE:538:CA:4860, V-A:ILE:538:CG2:4863"]

$$$$
4cb_Grossjean_2025
     RDKit          3D

 49 52  0  0  0  0  0  0  0  0999 V2000
  131.7190  132.6620   56.5740 C   0  0  0  0  0  0  0  0  0  0  0  0
  130.7370  133.5750   57.0430 O   0  0  0  0  0  0  0  0  0  0  0  0
  129.4660  133.1670   57.2920 C   0  0  0  0  0  0  0  0  0  0  0  0
  128.5290  133.3410   56.5060 O   0  0  0  0  0  0  0  0  0  0  0  0
  129.3120  132.4810   58.6190 C   0  0  0  0  0  0  0  0  0  0  0  0
  129.6430  131.1240   58.7300 C   0  0  0  0  0  0  0  0  0  0  0  0
  129.5190  130.4620   59.9490 C   0  0  0  0  0  0  0  0  0  0  0  0
  129.0550  131.1390   61.0770 C   0  0  0  0  0  0  0  0  0  0  0  0
  128.9820  130.3770   62.2590 N   0  0  0  0  0  0  0  0  0  0  0  0
  127.9110  129.8170   62.8720 C   0  0  0  0  0  0  0  0  0  0  0  0
  126.7620  129.8540   62.4280 O   0  0  0  0  0  0  0  0  0  0  0  0
  128.2020  129.1200   64.1270 C   0  0  0  0  0  0  0  0  0  0  0  0
  127.8180  129.8770   65.6720 S   0  0  0  0  0  0  0  0  0  0  0  0
  128.3900  128.4790   66.5520 C   0  0  0  0  0  0  0  0  0  0  0  0
  128.3580  128.4330   67.8810 N   0  0  0  0  0  0  0  0  0  0  0  0
  128.8140  127.3000   68.4760 C   0  0  0  0  0  0  0  0  0  0  0  0
  128.7600  127.2770   69.9760 C   0  0  0  0  0  0  0  0  0  0  0  0
  127.5910  126.8810   70.6460 C   0  0  0  0  0  0  0  0  0  0  0  0
  127.5330  126.8600   72.0370 C   0  0  0  0  0  0  0  0  0  0  0  0
  128.6460  127.2370   72.7800 C   0  0  0  0  0  0  0  0  0  0  0  0
  129.8160  127.6360   72.1420 C   0  0  0  0  0  0  0  0  0  0  0  0
  129.8690  127.6570   70.7510 C   0  0  0  0  0  0  0  0  0  0  0  0
  129.3200  126.2280   67.7320 C   0  0  0  0  0  0  0  0  0  0  0  0
  129.3610  126.2680   66.3310 C   0  0  0  0  0  0  0  0  0  0  0  0
  129.9270  125.0570   65.5780 C   0  0  0  0  0  0  0  0  0  0  0  0
  129.9980  123.9580   66.3340 F   0  0  0  0  0  0  0  0  0  0  0  0
  129.1490  124.7720   64.5340 F   0  0  0  0  0  0  0  0  0  0  0  0
  131.1590  125.3270   65.1490 F   0  0  0  0  0  0  0  0  0  0  0  0
  128.8700  127.4450   65.6960 C   0  0  0  0  0  0  0  0  0  0  0  0
  128.7450  127.8370   64.3130 C   0  0  0  0  0  0  0  0  0  0  0  0
  129.1270  127.0260   63.2750 N   0  0  0  0  0  0  0  0  0  0  0  0
  128.7240  132.4990   60.9760 C   0  0  0  0  0  0  0  0  0  0  0  0
  128.8510  133.1590   59.7570 C   0  0  0  0  0  0  0  0  0  0  0  0
  132.2232  132.1932   57.4319 H   0  0  0  0  0  0  0  0  0  0  0  0
  131.2355  131.8851   55.9635 H   0  0  0  0  0  0  0  0  0  0  0  0
  132.4586  133.2007   55.9635 H   0  0  0  0  0  0  0  0  0  0  0  0
  130.0039  130.5768   57.8466 H   0  0  0  0  0  0  0  0  0  0  0  0
  129.7888  129.3981   60.0228 H   0  0  0  0  0  0  0  0  0  0  0  0
  129.8740  130.2230   62.7060 H   0  0  0  0  0  0  0  0  0  0  0  0
  126.7073  126.5827   70.0627 H   0  0  0  0  0  0  0  0  0  0  0  0
  126.6098  126.5462   72.5463 H   0  0  0  0  0  0  0  0  0  0  0  0
  128.6012  127.2197   73.8789 H   0  0  0  0  0  0  0  0  0  0  0  0
  130.6946  127.9333   72.7334 H   0  0  0  0  0  0  0  0  0  0  0  0
  130.7947  127.9765   70.2500 H   0  0  0  0  0  0  0  0  0  0  0  0
  129.6930  125.3362   68.2569 H   0  0  0  0  0  0  0  0  0  0  0  0
  128.5140  126.3160   62.8990 H   0  0  0  0  0  0  0  0  0  0  0  0
  130.0380  127.1140   62.8470 H   0  0  0  0  0  0  0  0  0  0  0  0
  128.3638  133.0440   61.8610 H   0  0  0  0  0  0  0  0  0  0  0  0
  128.5868  134.2244   59.6854 H   0  0  0  0  0  0  0  0  0  0  0  0
  1  2  1  0
  2  3  1  0
  3  4  2  0
  3  5  1  0
  5  6  2  0
  6  7  1  0
  7  8  2  0
  8  9  1  0
  9 10  1  0
 10 11  2  0
 10 12  1  0
 12 13  1  0
 13 14  1  0
 14 15  2  0
 15 16  1  0
 16 17  1  0
 17 18  2  0
 18 19  1  0
 19 20  2  0
 20 21  1  0
 21 22  2  0
 16 23  2  0
 23 24  1  0
 24 25  1  0
 25 26  1  0
 25 27  1  0
 25 28  1  0
 24 29  2  0
 29 30  1  0
 30 31  1  0
  8 32  1  0
 32 33  2  0
 33  5  1  0
 30 12  2  0
 29 14  1  0
 22 17  1  0
  1 34  1  0
  1 35  1  0
  1 36  1  0
  6 37  1  0
  7 38  1  0
  9 39  1  0
 18 40  1  0
 19 41  1  0
 20 42  1  0
 21 43  1  0
 22 44  1  0
 23 45  1  0
 31 46  1  0
 31 47  1  0
 32 48  1  0
 33 49  1  0
M  END
>  <Binding energies>  (1) 
[-8.19]

>  <Ligand effiencies>  (1) 
[-0.22749999999999998]

>  <Interactions>  (1) 
["V-B:GLU:543:CD:9880, H-A:GLU:543:OE1:4909, V-B:GLU:543:CG:9879, V-A:GLU:543:CD:4908, H-A:GLU:543:OE2:4910, V-A:HIS:456:CE1:4070, H-B:GLU:543:OE2:9882, H-B:GLU:543:OE1:9881, V-A:TYR:484:CE2:4346, V-B:GLU:543:C:9874, V-B:GLU:543:CA:9876, V-A:TYR:484:CZ:4347, V-B:GLU:543:CB:9878, V-A:GLU:543:CB:4906, V-B:HIS:456:CD2:9039, V-B:HIS:456:CE1:9041, V-B:GLY:544:C:9884, V-B:GLY:544:CA:9886, V-A:GLU:543:CG:4907, V-B:LYS:547:CE:9922, V-B:TYR:484:CZ:9318, V-A:PRO:540:CA:4883, V-A:LEU:363:CD1:3189, V-A:PRO:540:CD:4887, V-A:PRO:540:N:4884, V-A:TYR:539:CG:4872, V-A:TYR:539:CD1:4873, H-A:TYR:539:N:4870, V-A:TYR:539:CA:4869, V-A:TYR:539:C:4867, V-A:ILE:538:CB:4862, V-A:ILE:538:CG2:4863"]

$$$$
4cc_Grossjean_2025
     RDKit          3D

 47 50  0  0  0  0  0  0  0  0999 V2000
  130.8520  132.8780   56.6030 C   0  0  0  0  0  0  0  0  0  0  0  0
  129.8120  133.3420   57.4580 O   0  0  0  0  0  0  0  0  0  0  0  0
  129.5440  132.6570   58.6270 C   0  0  0  0  0  0  0  0  0  0  0  0
  130.5160  131.7540   59.0560 C   0  0  0  0  0  0  0  0  0  0  0  0
  130.3350  131.0190   60.2250 C   0  0  0  0  0  0  0  0  0  0  0  0
  129.1700  131.1720   60.9780 C   0  0  0  0  0  0  0  0  0  0  0  0
  129.0830  130.3990   62.1510 N   0  0  0  0  0  0  0  0  0  0  0  0
  128.0060  129.7780   62.6900 C   0  0  0  0  0  0  0  0  0  0  0  0
  126.8870  129.7690   62.1740 O   0  0  0  0  0  0  0  0  0  0  0  0
  128.2480  129.0890   63.9610 C   0  0  0  0  0  0  0  0  0  0  0  0
  127.8520  129.8780   65.4870 S   0  0  0  0  0  0  0  0  0  0  0  0
  128.3960  128.4880   66.3970 C   0  0  0  0  0  0  0  0  0  0  0  0
  128.3470  128.4670   67.7270 N   0  0  0  0  0  0  0  0  0  0  0  0
  128.7830  127.3390   68.3470 C   0  0  0  0  0  0  0  0  0  0  0  0
  128.7180  127.3450   69.8460 C   0  0  0  0  0  0  0  0  0  0  0  0
  127.5790  126.8700   70.5180 C   0  0  0  0  0  0  0  0  0  0  0  0
  127.5120  126.8740   71.9090 C   0  0  0  0  0  0  0  0  0  0  0  0
  128.5850  127.3550   72.6510 C   0  0  0  0  0  0  0  0  0  0  0  0
  129.7240  127.8340   72.0110 C   0  0  0  0  0  0  0  0  0  0  0  0
  129.7870  127.8290   70.6200 C   0  0  0  0  0  0  0  0  0  0  0  0
  129.2800  126.2470   67.6290 C   0  0  0  0  0  0  0  0  0  0  0  0
  129.3380  126.2600   66.2260 C   0  0  0  0  0  0  0  0  0  0  0  0
  129.8900  125.0260   65.5040 C   0  0  0  0  0  0  0  0  0  0  0  0
  131.1470  125.1830   65.0810 F   0  0  0  0  0  0  0  0  0  0  0  0
  129.8750  123.9780   66.3270 F   0  0  0  0  0  0  0  0  0  0  0  0
  129.1400  124.7560   64.4350 F   0  0  0  0  0  0  0  0  0  0  0  0
  128.8750  127.4340   65.5660 C   0  0  0  0  0  0  0  0  0  0  0  0
  128.7820  127.8090   64.1760 C   0  0  0  0  0  0  0  0  0  0  0  0
  129.1800  126.9800   63.1570 N   0  0  0  0  0  0  0  0  0  0  0  0
  128.1930  132.0880   60.5600 C   0  0  0  0  0  0  0  0  0  0  0  0
  128.3790  132.8210   59.3910 C   0  0  0  0  0  0  0  0  0  0  0  0
  131.6884  132.5048   57.2122 H   0  0  0  0  0  0  0  0  0  0  0  0
  130.4695  132.0652   55.9682 H   0  0  0  0  0  0  0  0  0  0  0  0
  131.2014  133.7056   55.9682 H   0  0  0  0  0  0  0  0  0  0  0  0
  131.4345  131.6209   58.4655 H   0  0  0  0  0  0  0  0  0  0  0  0
  131.1130  130.3154   60.5560 H   0  0  0  0  0  0  0  0  0  0  0  0
  129.9590  130.2750   62.6360 H   0  0  0  0  0  0  0  0  0  0  0  0
  126.7268  126.4890   69.9361 H   0  0  0  0  0  0  0  0  0  0  0  0
  126.6130  126.4978   72.4191 H   0  0  0  0  0  0  0  0  0  0  0  0
  128.5332  127.3569   73.7498 H   0  0  0  0  0  0  0  0  0  0  0  0
  130.5706  128.2148   72.6012 H   0  0  0  0  0  0  0  0  0  0  0  0
  130.6886  128.2103   70.1183 H   0  0  0  0  0  0  0  0  0  0  0  0
  129.6329  125.3593   68.1745 H   0  0  0  0  0  0  0  0  0  0  0  0
  128.5710  126.2690   62.7790 H   0  0  0  0  0  0  0  0  0  0  0  0
  130.1020  127.0540   62.7510 H   0  0  0  0  0  0  0  0  0  0  0  0
  127.2792  132.2272   61.1564 H   0  0  0  0  0  0  0  0  0  0  0  0
  127.6072  133.5335   59.0643 H   0  0  0  0  0  0  0  0  0  0  0  0
  1  2  1  0
  2  3  1  0
  3  4  2  0
  4  5  1  0
  5  6  2  0
  6  7  1  0
  7  8  1  0
  8  9  2  0
  8 10  1  0
 10 11  1  0
 11 12  1  0
 12 13  2  0
 13 14  1  0
 14 15  1  0
 15 16  2  0
 16 17  1  0
 17 18  2  0
 18 19  1  0
 19 20  2  0
 14 21  2  0
 21 22  1  0
 22 23  1  0
 23 24  1  0
 23 25  1  0
 23 26  1  0
 22 27  2  0
 27 28  1  0
 28 29  1  0
  6 30  1  0
 30 31  2  0
 31  3  1  0
 28 10  2  0
 27 12  1  0
 20 15  1  0
  1 32  1  0
  1 33  1  0
  1 34  1  0
  4 35  1  0
  5 36  1  0
  7 37  1  0
 16 38  1  0
 17 39  1  0
 18 40  1  0
 19 41  1  0
 20 42  1  0
 21 43  1  0
 29 44  1  0
 29 45  1  0
 30 46  1  0
 31 47  1  0
M  END
>  <Binding energies>  (1) 
[-7.43]

>  <Ligand effiencies>  (1) 
[-0.21852941176470586]

>  <Interactions>  (1) 
["V-B:GLU:543:CD:9880, H-A:GLU:543:OE1:4909, V-B:GLU:543:CG:9879, V-A:GLU:543:CD:4908, H-A:GLU:543:OE2:4910, V-A:HIS:456:CE1:4070, H-B:GLU:543:OE1:9881, V-A:TYR:484:CE2:4346, V-B:GLU:543:C:9874, V-B:GLU:543:CA:9876, V-A:TYR:484:CZ:4347, V-B:GLU:543:CB:9878, V-A:GLU:543:CB:4906, V-B:HIS:456:CD2:9039, V-B:HIS:456:CE1:9041, V-B:GLY:544:C:9884, V-B:GLY:544:CA:9886, V-A:GLU:543:CG:4907, V-B:TYR:484:CZ:9318, V-A:PRO:540:CA:4883, V-A:PRO:540:CB:4885, V-A:PRO:540:N:4884, V-A:TYR:539:CE1:4875, V-A:TYR:539:CD1:4873, H-A:TYR:539:N:4870, V-A:TYR:539:C:4867, V-A:ILE:538:CB:4862, V-A:ILE:538:CA:4860, V-A:ILE:538:CG2:4863"]

$$$$
4cd_Grossjean_2025
     RDKit          3D

 43 46  0  0  0  0  0  0  0  0999 V2000
  129.0490  127.2500   63.7560 N   0  0  0  0  0  0  0  0  0  0  0  0
  129.4040  126.5310   64.8690 C   0  0  0  0  0  0  0  0  0  0  0  0
  130.0680  125.2950   64.8060 C   0  0  0  0  0  0  0  0  0  0  0  0
  130.4830  124.5400   63.6200 C   0  0  0  0  0  0  0  0  0  0  0  0
  129.9200  124.7110   62.5380 O   0  0  0  0  0  0  0  0  0  0  0  0
  131.5090  123.6750   63.8120 N   0  0  0  0  0  0  0  0  0  0  0  0
  132.1050  122.7770   62.9070 C   0  0  0  0  0  0  0  0  0  0  0  0
  131.2340  122.1220   62.0320 C   0  0  0  0  0  0  0  0  0  0  0  0
  131.7290  121.2230   61.0910 C   0  0  0  0  0  0  0  0  0  0  0  0
  133.0980  120.9840   61.0190 C   0  0  0  0  0  0  0  0  0  0  0  0
  133.9780  121.6390   61.8760 C   0  0  0  0  0  0  0  0  0  0  0  0
  133.4870  122.5380   62.8190 C   0  0  0  0  0  0  0  0  0  0  0  0
  130.3790  124.6580   66.4200 S   0  0  0  0  0  0  0  0  0  0  0  0
  129.6130  126.0410   67.1630 C   0  0  0  0  0  0  0  0  0  0  0  0
  129.5180  126.1550   68.4860 N   0  0  0  0  0  0  0  0  0  0  0  0
  128.8930  127.2600   68.9700 C   0  0  0  0  0  0  0  0  0  0  0  0
  128.7990  127.3600   70.4650 C   0  0  0  0  0  0  0  0  0  0  0  0
  129.8380  127.9360   71.2140 C   0  0  0  0  0  0  0  0  0  0  0  0
  129.7570  128.0330   72.6000 C   0  0  0  0  0  0  0  0  0  0  0  0
  128.6310  127.5530   73.2600 C   0  0  0  0  0  0  0  0  0  0  0  0
  127.5860  126.9800   72.5430 C   0  0  0  0  0  0  0  0  0  0  0  0
  127.6700  126.8880   71.1570 C   0  0  0  0  0  0  0  0  0  0  0  0
  128.3850  128.2520   68.1270 C   0  0  0  0  0  0  0  0  0  0  0  0
  128.4840  128.1430   66.7300 C   0  0  0  0  0  0  0  0  0  0  0  0
  127.9010  129.2660   65.8630 C   0  0  0  0  0  0  0  0  0  0  0  0
  128.4980  129.3730   64.6740 F   0  0  0  0  0  0  0  0  0  0  0  0
  126.6070  129.0400   65.6410 F   0  0  0  0  0  0  0  0  0  0  0  0
  128.0440  130.4360   66.4860 F   0  0  0  0  0  0  0  0  0  0  0  0
  129.1260  126.9840   66.2100 C   0  0  0  0  0  0  0  0  0  0  0  0
  128.2030  127.0520   63.2410 H   0  0  0  0  0  0  0  0  0  0  0  0
  129.6220  128.0090   63.4150 H   0  0  0  0  0  0  0  0  0  0  0  0
  131.9250  123.6760   64.7310 H   0  0  0  0  0  0  0  0  0  0  0  0
  130.1529  122.3175   62.0870 H   0  0  0  0  0  0  0  0  0  0  0  0
  131.0409  120.7040   60.4075 H   0  0  0  0  0  0  0  0  0  0  0  0
  133.4884  120.2709   60.2780 H   0  0  0  0  0  0  0  0  0  0  0  0
  135.0589  121.4467   61.8083 H   0  0  0  0  0  0  0  0  0  0  0  0
  134.1802  123.0607   63.4945 H   0  0  0  0  0  0  0  0  0  0  0  0
  130.7308  128.3169   70.6965 H   0  0  0  0  0  0  0  0  0  0  0  0
  130.5801  128.4874   73.1709 H   0  0  0  0  0  0  0  0  0  0  0  0
  128.5664  127.6269   74.3556 H   0  0  0  0  0  0  0  0  0  0  0  0
  126.6973  126.6013   73.0691 H   0  0  0  0  0  0  0  0  0  0  0  0
  126.8391  126.4384   70.5935 H   0  0  0  0  0  0  0  0  0  0  0  0
  127.8981  129.1354   68.5659 H   0  0  0  0  0  0  0  0  0  0  0  0
  1  2  1  0
  2  3  2  0
  3  4  1  0
  4  5  2  0
  4  6  1  0
  6  7  1  0
  7  8  2  0
  8  9  1  0
  9 10  2  0
 10 11  1  0
 11 12  2  0
  3 13  1  0
 13 14  1  0
 14 15  2  0
 15 16  1  0
 16 17  1  0
 17 18  2  0
 18 19  1  0
 19 20  2  0
 20 21  1  0
 21 22  2  0
 16 23  2  0
 23 24  1  0
 24 25  1  0
 25 26  1  0
 25 27  1  0
 25 28  1  0
 24 29  2  0
 29  2  1  0
 12  7  1  0
 29 14  1  0
 22 17  1  0
  1 30  1  0
  1 31  1  0
  6 32  1  0
  8 33  1  0
  9 34  1  0
 10 35  1  0
 11 36  1  0
 12 37  1  0
 18 38  1  0
 19 39  1  0
 20 40  1  0
 21 41  1  0
 22 42  1  0
 23 43  1  0
M  END
>  <Binding energies>  (1) 
[-7.28]

>  <Ligand effiencies>  (1) 
[-0.2275]

>  <Interactions>  (1) 
["V-A:ILE:369:CG2:3237, V-A:ILE:369:CD1:3239, V-B:GLU:543:CD:9880, H-A:GLU:543:OE1:4909, H-A:TYR:484:OH:4348, V-B:GLU:543:CG:9879, V-A:GLU:543:CD:4908, H-A:GLU:543:OE2:4910, V-A:LEU:475:CD2:4259, V-A:HIS:456:CE1:4070, V-A:GLY:454:CA:4049, H-B:GLU:543:OE2:9882, H-B:GLU:543:OE1:9881, V-B:TYR:539:CE2:9848, V-B:TYR:539:CD2:9846, V-A:TYR:484:CE2:4346, V-B:GLU:543:C:9874, V-A:TYR:484:CZ:4347, V-B:GLU:543:CB:9878, V-A:SER:385:CB:3409, V-A:GLU:543:CB:4906, V-B:HIS:456:CD2:9039, V-B:HIS:456:CE1:9041, V-B:GLY:544:C:9884, V-B:GLY:544:CA:9886, V-A:GLU:543:CG:4907, V-B:LYS:547:CE:9922, V-B:TYR:484:CE2:9317, V-B:TYR:484:CZ:9318, V-A:SER:385:C:3405"]

$$$$
4ce_Grossjean_2025
     RDKit          3D

 45 48  0  0  0  0  0  0  0  0999 V2000
  131.5710  120.2030   60.7130 C   0  0  0  0  0  0  0  0  0  0  0  0
  132.3510  121.2580   61.4740 C   0  0  0  0  0  0  0  0  0  0  0  0
  133.7160  121.4610   61.2510 C   0  0  0  0  0  0  0  0  0  0  0  0
  134.3670  122.4550   61.9820 C   0  0  0  0  0  0  0  0  0  0  0  0
  133.6480  123.2150   62.9060 C   0  0  0  0  0  0  0  0  0  0  0  0
  132.2840  122.9560   63.0840 C   0  0  0  0  0  0  0  0  0  0  0  0
  131.6090  123.7700   64.0110 N   0  0  0  0  0  0  0  0  0  0  0  0
  130.5390  124.5790   63.8100 C   0  0  0  0  0  0  0  0  0  0  0  0
  129.9700  124.7030   62.7240 O   0  0  0  0  0  0  0  0  0  0  0  0
  130.0780  125.3190   64.9870 C   0  0  0  0  0  0  0  0  0  0  0  0
  130.3980  124.6990   66.6050 S   0  0  0  0  0  0  0  0  0  0  0  0
  129.6250  126.0840   67.3370 C   0  0  0  0  0  0  0  0  0  0  0  0
  129.5410  126.2140   68.6580 N   0  0  0  0  0  0  0  0  0  0  0  0
  128.9350  127.3340   69.1350 C   0  0  0  0  0  0  0  0  0  0  0  0
  128.8620  127.4520   70.6290 C   0  0  0  0  0  0  0  0  0  0  0  0
  127.6850  127.1160   71.3170 C   0  0  0  0  0  0  0  0  0  0  0  0
  127.6070  127.2310   72.7030 C   0  0  0  0  0  0  0  0  0  0  0  0
  128.7090  127.6820   73.4210 C   0  0  0  0  0  0  0  0  0  0  0  0
  129.8860  128.0220   72.7640 C   0  0  0  0  0  0  0  0  0  0  0  0
  129.9590  127.9090   71.3780 C   0  0  0  0  0  0  0  0  0  0  0  0
  128.3990  128.3050   68.2830 C   0  0  0  0  0  0  0  0  0  0  0  0
  128.4770  128.1740   66.8870 C   0  0  0  0  0  0  0  0  0  0  0  0
  127.8710  129.2770   66.0130 C   0  0  0  0  0  0  0  0  0  0  0  0
  128.3960  129.3220   64.7870 F   0  0  0  0  0  0  0  0  0  0  0  0
  126.5590  129.0740   65.8770 F   0  0  0  0  0  0  0  0  0  0  0  0
  128.0750  130.4650   66.5790 F   0  0  0  0  0  0  0  0  0  0  0  0
  129.1240  127.0120   66.3770 C   0  0  0  0  0  0  0  0  0  0  0  0
  129.3970  126.5470   65.0390 C   0  0  0  0  0  0  0  0  0  0  0  0
  129.0240  127.2450   63.9200 N   0  0  0  0  0  0  0  0  0  0  0  0
  131.6380  121.9880   62.3700 N   0  0  0  0  0  0  0  0  0  0  0  0
  131.0731  119.5296   61.4261 H   0  0  0  0  0  0  0  0  0  0  0  0
  130.8149  120.6911   60.0805 H   0  0  0  0  0  0  0  0  0  0  0  0
  132.2593  119.6232   60.0805 H   0  0  0  0  0  0  0  0  0  0  0  0
  134.2636  120.8517   60.5169 H   0  0  0  0  0  0  0  0  0  0  0  0
  135.4410  122.6388   61.8311 H   0  0  0  0  0  0  0  0  0  0  0  0
  134.1461  124.0060   63.4859 H   0  0  0  0  0  0  0  0  0  0  0  0
  131.9530  123.7060   64.9580 H   0  0  0  0  0  0  0  0  0  0  0  0
  126.8116  126.7566   70.7531 H   0  0  0  0  0  0  0  0  0  0  0  0
  126.6771  126.9660   73.2275 H   0  0  0  0  0  0  0  0  0  0  0  0
  128.6491  127.7703   74.5158 H   0  0  0  0  0  0  0  0  0  0  0  0
  130.7553  128.3785   73.3361 H   0  0  0  0  0  0  0  0  0  0  0  0
  130.8909  128.1821   70.8612 H   0  0  0  0  0  0  0  0  0  0  0  0
  127.9066  129.1887   68.7149 H   0  0  0  0  0  0  0  0  0  0  0  0
  128.1710  127.0370   63.4190 H   0  0  0  0  0  0  0  0  0  0  0  0
  129.5940  127.9960   63.5540 H   0  0  0  0  0  0  0  0  0  0  0  0
  1  2  1  0
  2  3  2  0
  3  4  1  0
  4  5  2  0
  5  6  1  0
  6  7  1  0
  7  8  1  0
  8  9  2  0
  8 10  1  0
 10 11  1  0
 11 12  1  0
 12 13  2  0
 13 14  1  0
 14 15  1  0
 15 16  2  0
 16 17  1  0
 17 18  2  0
 18 19  1  0
 19 20  2  0
 14 21  2  0
 21 22  1  0
 22 23  1  0
 23 24  1  0
 23 25  1  0
 23 26  1  0
 22 27  2  0
 27 28  1  0
 28 29  1  0
  6 30  2  0
 30  2  1  0
 28 10  2  0
 27 12  1  0
 20 15  1  0
  1 31  1  0
  1 32  1  0
  1 33  1  0
  3 34  1  0
  4 35  1  0
  5 36  1  0
  7 37  1  0
 16 38  1  0
 17 39  1  0
 18 40  1  0
 19 41  1  0
 20 42  1  0
 21 43  1  0
 29 44  1  0
 29 45  1  0
M  END
>  <Binding energies>  (1) 
[-7.46]

>  <Ligand effiencies>  (1) 
[-0.22606060606060607]

>  <Interactions>  (1) 
["V-A:ILE:369:CG2:3237, V-A:ILE:369:CD1:3239, V-B:GLU:543:CD:9880, H-A:GLU:543:OE1:4909, H-A:TYR:484:OH:4348, V-B:GLU:543:CG:9879, V-A:GLU:543:CD:4908, H-A:GLU:543:OE2:4910, V-A:LEU:475:CD2:4259, V-A:HIS:456:CE1:4070, V-A:GLY:454:CA:4049, H-B:GLU:543:OE2:9882, H-B:GLU:543:OE1:9881, V-B:TYR:539:CE2:9848, V-B:TYR:539:CD2:9846, V-A:TYR:484:CE2:4346, V-A:TYR:484:CZ:4347, V-B:GLU:543:CB:9878, V-A:SER:385:CB:3409, V-A:GLU:543:CB:4906, V-B:HIS:456:CD2:9039, V-B:HIS:456:CE1:9041, V-B:GLY:544:C:9884, V-A:GLU:543:CG:4907, V-B:LYS:547:CE:9922, V-B:TYR:484:CE2:9317, V-B:TYR:484:CZ:9318, V-A:GLU:543:CA:4904"]

$$$$
4cf_Grossjean_2025
     RDKit          3D

 42 45  0  0  0  0  0  0  0  0999 V2000
  129.0010  127.2460   63.8580 N   0  0  0  0  0  0  0  0  0  0  0  0
  129.3650  126.5330   64.9720 C   0  0  0  0  0  0  0  0  0  0  0  0
  130.0170  125.2900   64.9110 C   0  0  0  0  0  0  0  0  0  0  0  0
  130.3920  124.5120   63.7270 C   0  0  0  0  0  0  0  0  0  0  0  0
  129.7440  124.6060   62.6840 O   0  0  0  0  0  0  0  0  0  0  0  0
  131.4820  123.7210   63.8740 N   0  0  0  0  0  0  0  0  0  0  0  0
  132.0690  122.8220   62.9630 C   0  0  0  0  0  0  0  0  0  0  0  0
  133.4500  122.5790   62.8310 C   0  0  0  0  0  0  0  0  0  0  0  0
  133.9020  121.6700   61.8720 C   0  0  0  0  0  0  0  0  0  0  0  0
  132.9630  121.0250   61.0670 C   0  0  0  0  0  0  0  0  0  0  0  0
  131.6280  121.2470   61.1690 N   0  0  0  0  0  0  0  0  0  0  0  0
  131.2040  122.1350   62.1040 C   0  0  0  0  0  0  0  0  0  0  0  0
  130.3400  124.6620   66.5250 S   0  0  0  0  0  0  0  0  0  0  0  0
  129.5960  126.0590   67.2670 C   0  0  0  0  0  0  0  0  0  0  0  0
  129.5140  126.1830   68.5900 N   0  0  0  0  0  0  0  0  0  0  0  0
  128.9040  127.2970   69.0730 C   0  0  0  0  0  0  0  0  0  0  0  0
  128.8190  127.4050   70.5680 C   0  0  0  0  0  0  0  0  0  0  0  0
  129.9320  127.8090   71.3220 C   0  0  0  0  0  0  0  0  0  0  0  0
  129.8630  127.9130   72.7080 C   0  0  0  0  0  0  0  0  0  0  0  0
  128.6720  127.6150   73.3620 C   0  0  0  0  0  0  0  0  0  0  0  0
  127.5520  127.2160   72.6400 C   0  0  0  0  0  0  0  0  0  0  0  0
  127.6270  127.1140   71.2540 C   0  0  0  0  0  0  0  0  0  0  0  0
  128.4020  128.2900   68.2270 C   0  0  0  0  0  0  0  0  0  0  0  0
  128.4870  128.1710   66.8310 C   0  0  0  0  0  0  0  0  0  0  0  0
  127.9110  129.2960   65.9630 C   0  0  0  0  0  0  0  0  0  0  0  0
  128.5110  129.4000   64.7740 F   0  0  0  0  0  0  0  0  0  0  0  0
  126.6160  129.0740   65.7380 F   0  0  0  0  0  0  0  0  0  0  0  0
  128.0550  130.4660   66.5850 F   0  0  0  0  0  0  0  0  0  0  0  0
  129.1090  126.9990   66.3130 C   0  0  0  0  0  0  0  0  0  0  0  0
  129.5580  128.0130   63.5090 H   0  0  0  0  0  0  0  0  0  0  0  0
  128.1580  127.0250   63.3450 H   0  0  0  0  0  0  0  0  0  0  0  0
  131.9540  123.7760   64.7650 H   0  0  0  0  0  0  0  0  0  0  0  0
  134.1683  123.1021   63.4794 H   0  0  0  0  0  0  0  0  0  0  0  0
  134.9766  121.4668   61.7538 H   0  0  0  0  0  0  0  0  0  0  0  0
  133.3203  120.3046   60.3164 H   0  0  0  0  0  0  0  0  0  0  0  0
  130.1239  122.3245   62.1910 H   0  0  0  0  0  0  0  0  0  0  0  0
  130.8750  128.0475   70.8084 H   0  0  0  0  0  0  0  0  0  0  0  0
  130.7456  128.2292   73.2834 H   0  0  0  0  0  0  0  0  0  0  0  0
  128.6155  127.6954   74.4576 H   0  0  0  0  0  0  0  0  0  0  0  0
  126.6122  126.9824   73.1616 H   0  0  0  0  0  0  0  0  0  0  0  0
  126.7388  126.8005   70.6859 H   0  0  0  0  0  0  0  0  0  0  0  0
  127.9308  129.1827   68.6641 H   0  0  0  0  0  0  0  0  0  0  0  0
  1  2  1  0
  2  3  2  0
  3  4  1  0
  4  5  2  0
  4  6  1  0
  6  7  1  0
  7  8  2  0
  8  9  1  0
  9 10  2  0
 10 11  1  0
 11 12  2  0
  3 13  1  0
 13 14  1  0
 14 15  2  0
 15 16  1  0
 16 17  1  0
 17 18  2  0
 18 19  1  0
 19 20  2  0
 20 21  1  0
 21 22  2  0
 16 23  2  0
 23 24  1  0
 24 25  1  0
 25 26  1  0
 25 27  1  0
 25 28  1  0
 24 29  2  0
 29  2  1  0
 12  7  1  0
 29 14  1  0
 22 17  1  0
  1 30  1  0
  1 31  1  0
  6 32  1  0
  8 33  1  0
  9 34  1  0
 10 35  1  0
 12 36  1  0
 18 37  1  0
 19 38  1  0
 20 39  1  0
 21 40  1  0
 22 41  1  0
 23 42  1  0
M  END
>  <Binding energies>  (1) 
[-6.9]

>  <Ligand effiencies>  (1) 
[-0.215625]

>  <Interactions>  (1) 
["V-A:ILE:369:CG2:3237, V-A:ILE:369:CD1:3239, V-B:GLU:543:CD:9880, H-A:GLU:543:OE1:4909, H-A:TYR:484:OH:4348, V-B:GLU:543:CG:9879, V-A:GLU:543:CD:4908, H-A:GLU:543:OE2:4910, V-A:LEU:475:CD2:4259, V-A:HIS:456:CE1:4070, V-A:GLY:454:CA:4049, H-B:GLU:543:OE2:9882, H-B:GLU:543:OE1:9881, V-A:TYR:484:CE2:4346, V-A:TYR:484:CZ:4347, V-B:GLU:543:CB:9878, V-A:SER:385:CB:3409, V-A:GLU:543:CB:4906, V-B:HIS:456:CD2:9039, V-B:HIS:456:CE1:9041, V-B:GLY:544:C:9884, V-A:GLU:543:CG:4907, V-B:LYS:547:CE:9922, V-B:TYR:484:CE2:9317, V-B:TYR:484:CZ:9318, V-A:SER:385:C:3405, V-A:GLU:543:CA:4904"]

$$$$
4cg_Grossjean_2025
     RDKit          3D

 46 49  0  0  0  0  0  0  0  0999 V2000
  128.7350  127.2330   63.7560 N   0  0  0  0  0  0  0  0  0  0  0  0
  129.1290  126.4950   64.8430 C   0  0  0  0  0  0  0  0  0  0  0  0
  129.6290  125.1890   64.7440 C   0  0  0  0  0  0  0  0  0  0  0  0
  129.8730  124.3940   63.5400 C   0  0  0  0  0  0  0  0  0  0  0  0
  131.0170  124.1120   63.1780 O   0  0  0  0  0  0  0  0  0  0  0  0
  128.7780  124.0300   62.8400 N   0  0  0  0  0  0  0  0  0  0  0  0
  128.7810  123.2190   61.6240 C   0  0  0  0  0  0  0  0  0  0  0  0
  127.5490  123.4300   60.7510 C   0  0  0  0  0  0  0  0  0  0  0  0
  126.3140  123.6990   61.3470 C   0  0  0  0  0  0  0  0  0  0  0  0
  125.1920  123.9230   60.5520 C   0  0  0  0  0  0  0  0  0  0  0  0
  125.3120  123.8880   59.1650 C   0  0  0  0  0  0  0  0  0  0  0  0
  126.5450  123.6360   58.5650 C   0  0  0  0  0  0  0  0  0  0  0  0
  127.6660  123.4130   59.3590 C   0  0  0  0  0  0  0  0  0  0  0  0
  130.0580  124.5440   66.3250 S   0  0  0  0  0  0  0  0  0  0  0  0
  129.5440  126.0190   67.1110 C   0  0  0  0  0  0  0  0  0  0  0  0
  129.6220  126.1650   68.4310 N   0  0  0  0  0  0  0  0  0  0  0  0
  129.2040  127.3470   68.9530 C   0  0  0  0  0  0  0  0  0  0  0  0
  129.3030  127.4810   70.4460 C   0  0  0  0  0  0  0  0  0  0  0  0
  128.2010  127.2000   71.2700 C   0  0  0  0  0  0  0  0  0  0  0  0
  128.2870  127.3230   72.6530 C   0  0  0  0  0  0  0  0  0  0  0  0
  129.4830  127.7320   73.2370 C   0  0  0  0  0  0  0  0  0  0  0  0
  130.5890  128.0200   72.4450 C   0  0  0  0  0  0  0  0  0  0  0  0
  130.4980  127.8950   71.0620 C   0  0  0  0  0  0  0  0  0  0  0  0
  128.6920  128.3700   68.1460 C   0  0  0  0  0  0  0  0  0  0  0  0
  128.6040  128.2260   66.7520 C   0  0  0  0  0  0  0  0  0  0  0  0
  128.0320  129.3850   65.9280 C   0  0  0  0  0  0  0  0  0  0  0  0
  128.6150  129.5170   64.7350 F   0  0  0  0  0  0  0  0  0  0  0  0
  126.7300  129.1890   65.7170 F   0  0  0  0  0  0  0  0  0  0  0  0
  128.2030  130.5320   66.5840 F   0  0  0  0  0  0  0  0  0  0  0  0
  129.0550  126.9940   66.1940 C   0  0  0  0  0  0  0  0  0  0  0  0
  129.3260  127.9430   63.3470 H   0  0  0  0  0  0  0  0  0  0  0  0
  127.8360  127.0830   63.3180 H   0  0  0  0  0  0  0  0  0  0  0  0
  127.8720  124.2330   63.2350 H   0  0  0  0  0  0  0  0  0  0  0  0
  129.6736  123.4771   61.0352 H   0  0  0  0  0  0  0  0  0  0  0  0
  128.7795  122.1646   61.9375 H   0  0  0  0  0  0  0  0  0  0  0  0
  126.2278  123.7339   62.4431 H   0  0  0  0  0  0  0  0  0  0  0  0
  124.2163  124.1265   61.0175 H   0  0  0  0  0  0  0  0  0  0  0  0
  124.4256  124.0608   58.5369 H   0  0  0  0  0  0  0  0  0  0  0  0
  126.6314  123.6135   57.4686 H   0  0  0  0  0  0  0  0  0  0  0  0
  128.6433  123.2235   58.8910 H   0  0  0  0  0  0  0  0  0  0  0  0
  127.2535  126.8771   70.8140 H   0  0  0  0  0  0  0  0  0  0  0  0
  127.4136  127.0980   73.2827 H   0  0  0  0  0  0  0  0  0  0  0  0
  129.5533  127.8278   74.3306 H   0  0  0  0  0  0  0  0  0  0  0  0
  131.5316  128.3452   72.9095 H   0  0  0  0  0  0  0  0  0  0  0  0
  131.3757  128.1239   70.4397 H   0  0  0  0  0  0  0  0  0  0  0  0
  128.3517  129.3057   68.6135 H   0  0  0  0  0  0  0  0  0  0  0  0
  1  2  1  0
  2  3  2  0
  3  4  1  0
  4  5  2  0
  4  6  1  0
  6  7  1  0
  7  8  1  0
  8  9  2  0
  9 10  1  0
 10 11  2  0
 11 12  1  0
 12 13  2  0
  3 14  1  0
 14 15  1  0
 15 16  2  0
 16 17  1  0
 17 18  1  0
 18 19  2  0
 19 20  1  0
 20 21  2  0
 21 22  1  0
 22 23  2  0
 17 24  2  0
 24 25  1  0
 25 26  1  0
 26 27  1  0
 26 28  1  0
 26 29  1  0
 25 30  2  0
 30  2  1  0
 13  8  1  0
 30 15  1  0
 23 18  1  0
  1 31  1  0
  1 32  1  0
  6 33  1  0
  7 34  1  0
  7 35  1  0
  9 36  1  0
 10 37  1  0
 11 38  1  0
 12 39  1  0
 13 40  1  0
 19 41  1  0
 20 42  1  0
 21 43  1  0
 22 44  1  0
 23 45  1  0
 24 46  1  0
M  END
>  <Binding energies>  (1) 
[-7.53]

>  <Ligand effiencies>  (1) 
[-0.22818181818181818]

>  <Interactions>  (1) 
["V-B:GLU:543:CD:9880, H-A:GLU:543:OE1:4909, V-B:GLU:543:CG:9879, V-A:GLU:543:CD:4908, H-A:GLU:543:OE2:4910, V-A:HIS:456:CE1:4070, H-B:GLU:543:OE2:9882, H-B:GLU:543:OE1:9881, V-B:PRO:540:CA:9855, V-B:PRO:540:CB:9857, V-A:TYR:484:CE2:4346, V-A:GLU:543:C:4902, V-A:TYR:484:CZ:4347, V-B:GLU:543:CB:9878, V-A:GLY:544:C:4912, V-A:GLU:543:CB:4906, V-B:HIS:456:CD2:9039, V-B:HIS:456:CE1:9041, V-A:GLU:543:CG:4907, V-B:TYR:484:CE2:9317, V-B:TYR:484:CZ:9318, V-A:GLU:543:CA:4904"]

$$$$
4ch_Grossjean_2025
     RDKit          3D

 58 61  0  0  0  0  0  0  0  0999 V2000
  124.2440  123.6180   61.8780 C   0  0  0  0  0  0  0  0  0  0  0  0
  124.6640  123.8270   60.5340 O   0  0  0  0  0  0  0  0  0  0  0  0
  125.9740  123.5570   60.1830 C   0  0  0  0  0  0  0  0  0  0  0  0
  127.0140  123.3800   61.1100 C   0  0  0  0  0  0  0  0  0  0  0  0
  128.3140  123.1070   60.6840 C   0  0  0  0  0  0  0  0  0  0  0  0
  129.4350  122.9460   61.7040 C   0  0  0  0  0  0  0  0  0  0  0  0
  129.2810  123.7730   62.9010 N   0  0  0  0  0  0  0  0  0  0  0  0
  130.2910  124.2700   63.6470 C   0  0  0  0  0  0  0  0  0  0  0  0
  131.4770  124.0880   63.3620 O   0  0  0  0  0  0  0  0  0  0  0  0
  129.8980  125.0750   64.8030 C   0  0  0  0  0  0  0  0  0  0  0  0
  130.1850  124.4760   66.4340 S   0  0  0  0  0  0  0  0  0  0  0  0
  129.5120  125.9280   67.1330 C   0  0  0  0  0  0  0  0  0  0  0  0
  129.4330  126.0930   68.4510 N   0  0  0  0  0  0  0  0  0  0  0  0
  128.8990  127.2590   68.9020 C   0  0  0  0  0  0  0  0  0  0  0  0
  128.8190  127.4110   70.3940 C   0  0  0  0  0  0  0  0  0  0  0  0
  127.6100  127.1910   71.0750 C   0  0  0  0  0  0  0  0  0  0  0  0
  127.5280  127.3310   72.4580 C   0  0  0  0  0  0  0  0  0  0  0  0
  128.6580  127.6950   73.1820 C   0  0  0  0  0  0  0  0  0  0  0  0
  129.8670  127.9220   72.5330 C   0  0  0  0  0  0  0  0  0  0  0  0
  129.9440  127.7830   71.1500 C   0  0  0  0  0  0  0  0  0  0  0  0
  128.4320  128.2440   68.0270 C   0  0  0  0  0  0  0  0  0  0  0  0
  128.5090  128.0810   66.6340 C   0  0  0  0  0  0  0  0  0  0  0  0
  127.9780  129.2010   65.7330 C   0  0  0  0  0  0  0  0  0  0  0  0
  128.6010  129.2640   64.5530 F   0  0  0  0  0  0  0  0  0  0  0  0
  126.6820  129.0090   65.4900 F   0  0  0  0  0  0  0  0  0  0  0  0
  128.1430  130.3790   66.3330 F   0  0  0  0  0  0  0  0  0  0  0  0
  129.0780  126.8680   66.1510 C   0  0  0  0  0  0  0  0  0  0  0  0
  129.3240  126.3560   64.8250 C   0  0  0  0  0  0  0  0  0  0  0  0
  129.0120  127.0570   63.6870 N   0  0  0  0  0  0  0  0  0  0  0  0
  128.5880  123.0270   59.3180 C   0  0  0  0  0  0  0  0  0  0  0  0
  127.5680  123.2010   58.3680 C   0  0  0  0  0  0  0  0  0  0  0  0
  127.7670  123.1330   57.0010 O   0  0  0  0  0  0  0  0  0  0  0  0
  128.0260  124.3280   56.2720 C   0  0  0  0  0  0  0  0  0  0  0  0
  126.2640  123.4590   58.8150 C   0  0  0  0  0  0  0  0  0  0  0  0
  125.2600  123.6470   57.8960 O   0  0  0  0  0  0  0  0  0  0  0  0
  124.7950  124.9870   57.8120 C   0  0  0  0  0  0  0  0  0  0  0  0
  125.0124  124.0004   62.5660 H   0  0  0  0  0  0  0  0  0  0  0  0
  123.2974  124.1501   62.0533 H   0  0  0  0  0  0  0  0  0  0  0  0
  124.0976  122.5420   62.0533 H   0  0  0  0  0  0  0  0  0  0  0  0
  126.8007  123.4577   62.1863 H   0  0  0  0  0  0  0  0  0  0  0  0
  129.4690  121.8916   62.0154 H   0  0  0  0  0  0  0  0  0  0  0  0
  130.3611  123.2750   61.2099 H   0  0  0  0  0  0  0  0  0  0  0  0
  128.3350  123.9160   63.2240 H   0  0  0  0  0  0  0  0  0  0  0  0
  126.7134  126.9034   70.5063 H   0  0  0  0  0  0  0  0  0  0  0  0
  126.5735  127.1544   72.9755 H   0  0  0  0  0  0  0  0  0  0  0  0
  128.5953  127.8041   74.2748 H   0  0  0  0  0  0  0  0  0  0  0  0
  130.7582  128.2100   73.1099 H   0  0  0  0  0  0  0  0  0  0  0  0
  130.9012  127.9674   70.6404 H   0  0  0  0  0  0  0  0  0  0  0  0
  127.9951  129.1661   68.4379 H   0  0  0  0  0  0  0  0  0  0  0  0
  128.1390  126.9190   63.1970 H   0  0  0  0  0  0  0  0  0  0  0  0
  129.6470  127.7420   63.3030 H   0  0  0  0  0  0  0  0  0  0  0  0
  129.6155  122.8252   58.9810 H   0  0  0  0  0  0  0  0  0  0  0  0
  128.2052  125.1548   56.9750 H   0  0  0  0  0  0  0  0  0  0  0  0
  128.9142  124.1860   55.6388 H   0  0  0  0  0  0  0  0  0  0  0  0
  127.1587  124.5665   55.6388 H   0  0  0  0  0  0  0  0  0  0  0  0
  124.6549  125.3907   58.8256 H   0  0  0  0  0  0  0  0  0  0  0  0
  125.5336  125.5983   57.2727 H   0  0  0  0  0  0  0  0  0  0  0  0
  123.8365  125.0094   57.2727 H   0  0  0  0  0  0  0  0  0  0  0  0
  1  2  1  0
  2  3  1  0
  3  4  2  0
  4  5  1  0
  5  6  1  0
  6  7  1  0
  7  8  1  0
  8  9  2  0
  8 10  1  0
 10 11  1  0
 11 12  1  0
 12 13  2  0
 13 14  1  0
 14 15  1  0
 15 16  2  0
 16 17  1  0
 17 18  2  0
 18 19  1  0
 19 20  2  0
 14 21  2  0
 21 22  1  0
 22 23  1  0
 23 24  1  0
 23 25  1  0
 23 26  1  0
 22 27  2  0
 27 28  1  0
 28 29  1  0
  5 30  2  0
 30 31  1  0
 31 32  1  0
 32 33  1  0
 31 34  2  0
 34 35  1  0
 35 36  1  0
 34  3  1  0
 28 10  2  0
 27 12  1  0
 20 15  1  0
  1 37  1  0
  1 38  1  0
  1 39  1  0
  4 40  1  0
  6 41  1  0
  6 42  1  0
  7 43  1  0
 16 44  1  0
 17 45  1  0
 18 46  1  0
 19 47  1  0
 20 48  1  0
 21 49  1  0
 29 50  1  0
 29 51  1  0
 30 52  1  0
 33 53  1  0
 33 54  1  0
 33 55  1  0
 36 56  1  0
 36 57  1  0
 36 58  1  0
M  END
>  <Binding energies>  (1) 
[-7.43]

>  <Ligand effiencies>  (1) 
[-0.1905128205128205]

>  <Interactions>  (1) 
["V-B:GLU:543:CD:9880, H-A:GLU:543:OE1:4909, V-B:GLU:543:CG:9879, V-A:GLU:543:CD:4908, H-A:GLU:543:OE2:4910, V-A:HIS:456:CE1:4070, V-B:ASP:366:CB:8183, H-B:GLU:543:OE2:9882, H-B:GLU:543:OE1:9881, V-B:TYR:531:CE2:9765, V-B:ASP:366:CG:8184, V-B:PRO:540:CA:9855, V-B:PRO:540:CB:9857, V-B:PRO:540:N:9856, V-B:LEU:363:CD1:8160, V-B:TYR:531:CZ:9766, V-B:TYR:539:CZ:9849, V-B:TYR:539:CE2:9848, V-B:TYR:539:CE1:9847, V-B:TYR:539:CD2:9846, V-B:ASN:362:CB:8147, V-B:ASN:362:C:8143, V-A:TYR:484:CE2:4346, V-A:TYR:484:CZ:4347, V-B:GLU:543:CB:9878, V-A:GLU:543:CB:4906, V-B:HIS:456:CD2:9039, V-B:HIS:456:CE1:9041, V-B:GLY:544:C:9884, V-A:GLU:543:CG:4907, V-B:LYS:547:CE:9922, V-B:TYR:484:CE2:9317, V-B:HIS:456:CG:9037, V-B:TYR:484:CZ:9318, V-B:ASN:362:CG:8148"]

$$$$
4ci_Grossjean_2025
     RDKit          3D

 39 42  0  0  0  0  0  0  0  0999 V2000
  128.7460  127.2910   63.8430 N   0  0  0  0  0  0  0  0  0  0  0  0
  129.1300  126.5450   64.9270 C   0  0  0  0  0  0  0  0  0  0  0  0
  129.6410  125.2410   64.8220 C   0  0  0  0  0  0  0  0  0  0  0  0
  129.8730  124.4470   63.6120 C   0  0  0  0  0  0  0  0  0  0  0  0
  131.0200  124.1960   63.2350 O   0  0  0  0  0  0  0  0  0  0  0  0
  128.7570  124.0360   62.9600 N   0  0  0  0  0  0  0  0  0  0  0  0
  128.6870  123.2800   61.7970 C   0  0  0  0  0  0  0  0  0  0  0  0
  128.2480  123.7940   60.5780 C   0  0  0  0  0  0  0  0  0  0  0  0
  128.3260  122.7430   59.6960 C   0  0  0  0  0  0  0  0  0  0  0  0
  128.7890  121.6500   60.3500 O   0  0  0  0  0  0  0  0  0  0  0  0
  129.0130  122.0030   61.6810 N   0  0  0  0  0  0  0  0  0  0  0  0
  130.0420  124.5850   66.4070 S   0  0  0  0  0  0  0  0  0  0  0  0
  129.5160  126.0520   67.1980 C   0  0  0  0  0  0  0  0  0  0  0  0
  129.5730  126.1880   68.5210 N   0  0  0  0  0  0  0  0  0  0  0  0
  129.1450  127.3660   69.0450 C   0  0  0  0  0  0  0  0  0  0  0  0
  129.2180  127.4870   70.5400 C   0  0  0  0  0  0  0  0  0  0  0  0
  128.0980  127.2060   71.3400 C   0  0  0  0  0  0  0  0  0  0  0  0
  128.1590  127.3160   72.7270 C   0  0  0  0  0  0  0  0  0  0  0  0
  129.3460  127.7110   73.3360 C   0  0  0  0  0  0  0  0  0  0  0  0
  130.4680  128.0000   72.5680 C   0  0  0  0  0  0  0  0  0  0  0  0
  130.4020  127.8900   71.1820 C   0  0  0  0  0  0  0  0  0  0  0  0
  128.6460  128.3940   68.2380 C   0  0  0  0  0  0  0  0  0  0  0  0
  128.5810  128.2610   66.8420 C   0  0  0  0  0  0  0  0  0  0  0  0
  128.0230  129.4280   66.0190 C   0  0  0  0  0  0  0  0  0  0  0  0
  128.6060  129.5550   64.8260 F   0  0  0  0  0  0  0  0  0  0  0  0
  126.7190  129.2460   65.8080 F   0  0  0  0  0  0  0  0  0  0  0  0
  128.2060  130.5730   66.6770 F   0  0  0  0  0  0  0  0  0  0  0  0
  129.0390  127.0350   66.2810 C   0  0  0  0  0  0  0  0  0  0  0  0
  127.8430  127.1710   63.4030 H   0  0  0  0  0  0  0  0  0  0  0  0
  129.3530  127.9960   63.4480 H   0  0  0  0  0  0  0  0  0  0  0  0
  127.8690  124.3070   63.3550 H   0  0  0  0  0  0  0  0  0  0  0  0
  127.9116  124.8199   60.3674 H   0  0  0  0  0  0  0  0  0  0  0  0
  128.0560  122.7825   58.6304 H   0  0  0  0  0  0  0  0  0  0  0  0
  127.1572  126.8939   70.8630 H   0  0  0  0  0  0  0  0  0  0  0  0
  127.2725  127.0916   73.3384 H   0  0  0  0  0  0  0  0  0  0  0  0
  129.3968  127.7951   74.4316 H   0  0  0  0  0  0  0  0  0  0  0  0
  131.4038  128.3142   73.0534 H   0  0  0  0  0  0  0  0  0  0  0  0
  131.2918  128.1225   70.5785 H   0  0  0  0  0  0  0  0  0  0  0  0
  128.2973  129.3259   68.7071 H   0  0  0  0  0  0  0  0  0  0  0  0
  1  2  1  0
  2  3  2  0
  3  4  1  0
  4  5  2  0
  4  6  1  0
  6  7  1  0
  7  8  1  0
  8  9  2  0
  9 10  1  0
 10 11  1  0
  3 12  1  0
 12 13  1  0
 13 14  2  0
 14 15  1  0
 15 16  1  0
 16 17  2  0
 17 18  1  0
 18 19  2  0
 19 20  1  0
 20 21  2  0
 15 22  2  0
 22 23  1  0
 23 24  1  0
 24 25  1  0
 24 26  1  0
 24 27  1  0
 23 28  2  0
 28  2  1  0
 11  7  2  0
 28 13  1  0
 21 16  1  0
  1 29  1  0
  1 30  1  0
  6 31  1  0
  8 32  1  0
  9 33  1  0
 17 34  1  0
 18 35  1  0
 19 36  1  0
 20 37  1  0
 21 38  1  0
 22 39  1  0
M  END
>  <Binding energies>  (1) 
[-6.71]

>  <Ligand effiencies>  (1) 
[-0.21645161290322582]

>  <Interactions>  (1) 
["V-B:GLU:543:CD:9880, H-A:GLU:543:OE1:4909, V-B:GLU:543:CG:9879, V-A:GLU:543:CD:4908, H-A:GLU:543:OE2:4910, V-A:HIS:456:CE1:4070, H-B:GLU:543:OE2:9882, V-B:TYR:539:C:9839, H-B:ALA:541:N:9863, H-B:GLU:543:OE1:9881, V-B:PRO:540:CA:9855, V-B:PRO:540:N:9856, V-B:TYR:539:CE2:9848, V-B:TYR:539:CD2:9846, V-A:TYR:484:CE2:4346, V-B:GLU:543:CA:9876, V-A:TYR:484:CZ:4347, V-B:GLU:543:CB:9878, V-A:GLY:544:C:4912, V-A:GLU:543:CB:4906, V-B:HIS:456:CD2:9039, V-B:HIS:456:CE1:9041, V-A:GLU:543:CG:4907, V-B:TYR:484:CE2:9317, V-B:TYR:484:CZ:9318, V-A:GLU:543:CA:4904"]

$$$$
4cj_Grossjean_2025
     RDKit          3D

 39 42  0  0  0  0  0  0  0  0999 V2000
  129.0630  127.1670   63.8440 N   0  0  0  0  0  0  0  0  0  0  0  0
  129.4610  126.5060   64.9780 C   0  0  0  0  0  0  0  0  0  0  0  0
  130.2390  125.3370   64.9540 C   0  0  0  0  0  0  0  0  0  0  0  0
  130.7690  124.6160   63.7950 C   0  0  0  0  0  0  0  0  0  0  0  0
  130.2180  124.6990   62.6940 O   0  0  0  0  0  0  0  0  0  0  0  0
  131.8740  123.8670   64.0310 N   0  0  0  0  0  0  0  0  0  0  0  0
  132.5690  123.0930   63.1110 C   0  0  0  0  0  0  0  0  0  0  0  0
  133.8720  122.9430   63.0030 N   0  0  0  0  0  0  0  0  0  0  0  0
  134.1850  122.1280   62.0150 C   0  0  0  0  0  0  0  0  0  0  0  0
  133.1200  121.5960   61.2940 C   0  0  0  0  0  0  0  0  0  0  0  0
  131.6310  122.2010   61.9560 S   0  0  0  0  0  0  0  0  0  0  0  0
  130.5760  124.7640   66.5860 S   0  0  0  0  0  0  0  0  0  0  0  0
  129.6750  126.0880   67.2850 C   0  0  0  0  0  0  0  0  0  0  0  0
  129.5540  126.2260   68.6030 N   0  0  0  0  0  0  0  0  0  0  0  0
  128.8410  127.2900   69.0550 C   0  0  0  0  0  0  0  0  0  0  0  0
  128.7350  127.4230   70.5470 C   0  0  0  0  0  0  0  0  0  0  0  0
  127.6450  126.8740   71.2410 C   0  0  0  0  0  0  0  0  0  0  0  0
  127.5380  126.9990   72.6240 C   0  0  0  0  0  0  0  0  0  0  0  0
  128.5210  127.6800   73.3340 C   0  0  0  0  0  0  0  0  0  0  0  0
  129.6090  128.2350   72.6710 C   0  0  0  0  0  0  0  0  0  0  0  0
  129.7130  128.1070   71.2890 C   0  0  0  0  0  0  0  0  0  0  0  0
  128.2330  128.1960   68.1800 C   0  0  0  0  0  0  0  0  0  0  0  0
  128.3520  128.0600   66.7880 C   0  0  0  0  0  0  0  0  0  0  0  0
  127.6630  129.0910   65.8870 C   0  0  0  0  0  0  0  0  0  0  0  0
  127.4190  128.6330   64.6570 F   0  0  0  0  0  0  0  0  0  0  0  0
  126.4950  129.4450   66.4200 F   0  0  0  0  0  0  0  0  0  0  0  0
  128.4360  130.1710   65.7640 F   0  0  0  0  0  0  0  0  0  0  0  0
  129.1140  126.9580   66.3040 C   0  0  0  0  0  0  0  0  0  0  0  0
  129.6230  127.8960   63.4250 H   0  0  0  0  0  0  0  0  0  0  0  0
  128.1920  126.9400   63.3830 H   0  0  0  0  0  0  0  0  0  0  0  0
  132.2340  123.8550   64.9740 H   0  0  0  0  0  0  0  0  0  0  0  0
  135.2297  121.8822   61.7740 H   0  0  0  0  0  0  0  0  0  0  0  0
  133.2066  120.9045   60.4429 H   0  0  0  0  0  0  0  0  0  0  0  0
  126.8634  126.3368   70.6838 H   0  0  0  0  0  0  0  0  0  0  0  0
  126.6789  126.5606   73.1529 H   0  0  0  0  0  0  0  0  0  0  0  0
  128.4369  127.7799   74.4262 H   0  0  0  0  0  0  0  0  0  0  0  0
  130.3845  128.7730   73.2359 H   0  0  0  0  0  0  0  0  0  0  0  0
  130.5755  128.5488   70.7686 H   0  0  0  0  0  0  0  0  0  0  0  0
  127.6493  129.0327   68.5913 H   0  0  0  0  0  0  0  0  0  0  0  0
  1  2  1  0
  2  3  2  0
  3  4  1  0
  4  5  2  0
  4  6  1  0
  6  7  1  0
  7  8  2  0
  8  9  1  0
  9 10  2  0
 10 11  1  0
  3 12  1  0
 12 13  1  0
 13 14  2  0
 14 15  1  0
 15 16  1  0
 16 17  2  0
 17 18  1  0
 18 19  2  0
 19 20  1  0
 20 21  2  0
 15 22  2  0
 22 23  1  0
 23 24  1  0
 24 25  1  0
 24 26  1  0
 24 27  1  0
 23 28  2  0
 28  2  1  0
 11  7  1  0
 28 13  1  0
 21 16  1  0
  1 29  1  0
  1 30  1  0
  6 31  1  0
  9 32  1  0
 10 33  1  0
 17 34  1  0
 18 35  1  0
 19 36  1  0
 20 37  1  0
 21 38  1  0
 22 39  1  0
M  END
>  <Binding energies>  (1) 
[-6.89]

>  <Ligand effiencies>  (1) 
[-0.22225806451612903]

>  <Interactions>  (1) 
["V-A:ILE:369:CG2:3237, V-A:ILE:369:CD1:3239, V-B:GLU:543:CD:9880, H-A:GLY:454:N:4050, H-A:GLU:543:OE1:4909, H-A:TYR:484:OH:4348, V-B:GLU:543:CG:9879, V-A:GLU:543:CD:4908, H-A:GLU:543:OE2:4910, V-A:LEU:475:CD2:4259, V-A:HIS:456:CE1:4070, V-A:GLY:454:CA:4049, H-B:GLU:543:OE2:9882, H-B:GLU:543:OE1:9881, V-A:TYR:484:CE2:4346, V-B:GLU:543:C:9874, V-A:TYR:484:CZ:4347, V-B:GLU:543:CB:9878, V-A:GLU:543:CB:4906, V-B:HIS:456:CD2:9039, V-B:HIS:456:CE1:9041, V-B:GLY:544:C:9884, V-B:GLY:544:CA:9886, V-A:GLU:543:CG:4907, V-B:LYS:547:CE:9922, V-B:TYR:484:CE2:9317, V-B:TYR:484:CZ:9318"]

$$$$
4ck_Grossjean_2025
     RDKit          3D

 57 59  0  0  0  0  0  0  0  0999 V2000
  127.5830  122.7950   56.9180 C   0  0  0  0  0  0  0  0  0  0  0  0
  126.4180  121.9850   56.8770 O   0  0  0  0  0  0  0  0  0  0  0  0
  125.2260  122.7210   56.6440 C   0  0  0  0  0  0  0  0  0  0  0  0
  125.2290  123.9730   57.5310 C   0  0  0  0  0  0  0  0  0  0  0  0
  125.3430  123.5770   58.8910 O   0  0  0  0  0  0  0  0  0  0  0  0
  126.0280  124.5230   59.7020 C   0  0  0  0  0  0  0  0  0  0  0  0
  125.7690  124.2000   61.1790 C   0  0  0  0  0  0  0  0  0  0  0  0
  126.6060  123.1170   61.5630 O   0  0  0  0  0  0  0  0  0  0  0  0
  127.6750  122.8680   60.6590 C   0  0  0  0  0  0  0  0  0  0  0  0
  129.0100  122.8970   61.4180 C   0  0  0  0  0  0  0  0  0  0  0  0
  128.9490  123.7490   62.6060 N   0  0  0  0  0  0  0  0  0  0  0  0
  129.9810  124.4340   63.1410 C   0  0  0  0  0  0  0  0  0  0  0  0
  131.1100  124.4300   62.6460 O   0  0  0  0  0  0  0  0  0  0  0  0
  129.6810  125.2020   64.3500 C   0  0  0  0  0  0  0  0  0  0  0  0
  130.0750  124.5430   65.9360 S   0  0  0  0  0  0  0  0  0  0  0  0
  129.4970  125.9900   66.7270 C   0  0  0  0  0  0  0  0  0  0  0  0
  129.5310  126.1190   68.0510 N   0  0  0  0  0  0  0  0  0  0  0  0
  129.0590  127.2790   68.5760 C   0  0  0  0  0  0  0  0  0  0  0  0
  129.1290  127.4000   70.0710 C   0  0  0  0  0  0  0  0  0  0  0  0
  128.0730  126.9490   70.8800 C   0  0  0  0  0  0  0  0  0  0  0  0
  128.1300  127.0610   72.2670 C   0  0  0  0  0  0  0  0  0  0  0  0
  129.2490  127.6270   72.8680 C   0  0  0  0  0  0  0  0  0  0  0  0
  130.3120  128.0770   72.0910 C   0  0  0  0  0  0  0  0  0  0  0  0
  130.2510  127.9620   70.7050 C   0  0  0  0  0  0  0  0  0  0  0  0
  128.5630  128.3080   67.7690 C   0  0  0  0  0  0  0  0  0  0  0  0
  128.5210  128.1820   66.3710 C   0  0  0  0  0  0  0  0  0  0  0  0
  127.9610  129.3480   65.5470 C   0  0  0  0  0  0  0  0  0  0  0  0
  128.5640  129.4910   64.3660 F   0  0  0  0  0  0  0  0  0  0  0  0
  126.6640  129.1510   65.3120 F   0  0  0  0  0  0  0  0  0  0  0  0
  128.1180  130.4890   66.2170 F   0  0  0  0  0  0  0  0  0  0  0  0
  129.0120  126.9690   65.8100 C   0  0  0  0  0  0  0  0  0  0  0  0
  129.1370  126.4910   64.4540 C   0  0  0  0  0  0  0  0  0  0  0  0
  128.7530  127.2330   63.3670 N   0  0  0  0  0  0  0  0  0  0  0  0
  127.8593  122.9871   57.9652 H   0  0  0  0  0  0  0  0  0  0  0  0
  128.4089  122.2754   56.4103 H   0  0  0  0  0  0  0  0  0  0  0  0
  127.3835  123.7502   56.4103 H   0  0  0  0  0  0  0  0  0  0  0  0
  125.1775  123.0188   55.5862 H   0  0  0  0  0  0  0  0  0  0  0  0
  124.3521  122.0978   56.8846 H   0  0  0  0  0  0  0  0  0  0  0  0
  126.0811  124.6141   57.2610 H   0  0  0  0  0  0  0  0  0  0  0  0
  124.2942  124.5340   57.3847 H   0  0  0  0  0  0  0  0  0  0  0  0
  127.1075  124.4702   59.4974 H   0  0  0  0  0  0  0  0  0  0  0  0
  125.6652  125.5364   59.4755 H   0  0  0  0  0  0  0  0  0  0  0  0
  125.9978  125.0814   61.7961 H   0  0  0  0  0  0  0  0  0  0  0  0
  124.7133  123.9267   61.3230 H   0  0  0  0  0  0  0  0  0  0  0  0
  127.5392  121.8799   60.1950 H   0  0  0  0  0  0  0  0  0  0  0  0
  127.6816  123.6437   59.8791 H   0  0  0  0  0  0  0  0  0  0  0  0
  129.2638  121.8728   61.7287 H   0  0  0  0  0  0  0  0  0  0  0  0
  129.7744  123.3103   60.7435 H   0  0  0  0  0  0  0  0  0  0  0  0
  128.0340  123.8720   63.0150 H   0  0  0  0  0  0  0  0  0  0  0  0
  127.1858  126.4996   70.4100 H   0  0  0  0  0  0  0  0  0  0  0  0
  127.2931  126.7031   72.8847 H   0  0  0  0  0  0  0  0  0  0  0  0
  129.2941  127.7195   73.9632 H   0  0  0  0  0  0  0  0  0  0  0  0
  131.1968  128.5217   72.5699 H   0  0  0  0  0  0  0  0  0  0  0  0
  131.0951  128.3169   70.0954 H   0  0  0  0  0  0  0  0  0  0  0  0
  128.1988  129.2338   68.2384 H   0  0  0  0  0  0  0  0  0  0  0  0
  129.3280  127.9760   62.9940 H   0  0  0  0  0  0  0  0  0  0  0  0
  127.8770  127.0570   62.8930 H   0  0  0  0  0  0  0  0  0  0  0  0
  1  2  1  0
  2  3  1  0
  3  4  1  0
  4  5  1  0
  5  6  1  0
  6  7  1  0
  7  8  1  0
  8  9  1  0
  9 10  1  0
 10 11  1  0
 11 12  1  0
 12 13  2  0
 12 14  1  0
 14 15  1  0
 15 16  1  0
 16 17  2  0
 17 18  1  0
 18 19  1  0
 19 20  2  0
 20 21  1  0
 21 22  2  0
 22 23  1  0
 23 24  2  0
 18 25  2  0
 25 26  1  0
 26 27  1  0
 27 28  1  0
 27 29  1  0
 27 30  1  0
 26 31  2  0
 31 32  1  0
 32 33  1  0
 32 14  2  0
 31 16  1  0
 24 19  1  0
  1 34  1  0
  1 35  1  0
  1 36  1  0
  3 37  1  0
  3 38  1  0
  4 39  1  0
  4 40  1  0
  6 41  1  0
  6 42  1  0
  7 43  1  0
  7 44  1  0
  9 45  1  0
  9 46  1  0
 10 47  1  0
 10 48  1  0
 11 49  1  0
 20 50  1  0
 21 51  1  0
 22 52  1  0
 23 53  1  0
 24 54  1  0
 25 55  1  0
 33 56  1  0
 33 57  1  0
M  END
>  <Binding energies>  (1) 
[-7.19]

>  <Ligand effiencies>  (1) 
[-0.19972222222222225]

>  <Interactions>  (1) 
["V-B:GLU:543:CD:9880, H-A:GLU:543:OE1:4909, V-B:GLU:543:CG:9879, V-A:GLU:543:CD:4908, V-A:HIS:456:CE1:4070, H-B:GLU:543:OE2:9882, V-B:TYR:539:C:9839, H-B:ALA:541:N:9863, H-B:GLU:543:OE1:9881, V-B:PRO:540:CD:9859, V-B:PRO:540:CA:9855, V-B:PRO:540:CB:9857, V-B:PRO:540:N:9856, V-B:LEU:363:CD1:8160, V-B:MET:535:CE:9807, V-B:TYR:539:CZ:9849, V-B:TYR:539:CE2:9848, V-B:TYR:539:CD1:9845, H-B:TYR:539:N:9842, V-B:PRO:540:C:9853, V-B:TYR:539:CE1:9847, V-B:TYR:539:CD2:9846, V-B:ILE:538:CG2:9835, V-B:TYR:539:CG:9844, V-A:TYR:484:CE2:4346, V-A:GLU:543:C:4902, V-B:GLU:543:C:9874, V-A:TYR:484:CZ:4347, V-B:GLU:543:CB:9878, V-A:GLY:544:C:4912, V-A:GLU:543:CB:4906, V-B:HIS:456:CE1:9041, V-A:GLU:543:CG:4907, V-B:TYR:484:CE2:9317, V-B:TYR:484:CZ:9318"]

$$$$
4dd_Grossjean_2025
     RDKit          3D

 43 46  0  0  0  0  0  0  0  0999 V2000
  127.9950  129.3170   65.9930 C   0  0  0  0  0  0  0  0  0  0  0  0
  128.5360  128.1810   66.8490 C   0  0  0  0  0  0  0  0  0  0  0  0
  128.4620  128.3110   68.2420 C   0  0  0  0  0  0  0  0  0  0  0  0
  128.9420  127.3020   69.0850 C   0  0  0  0  0  0  0  0  0  0  0  0
  128.8810  127.4170   70.5790 C   0  0  0  0  0  0  0  0  0  0  0  0
  127.7020  127.1100   71.2780 C   0  0  0  0  0  0  0  0  0  0  0  0
  127.6400  127.2120   72.6650 C   0  0  0  0  0  0  0  0  0  0  0  0
  128.7600  127.6250   73.3770 C   0  0  0  0  0  0  0  0  0  0  0  0
  129.9420  127.9330   72.7120 C   0  0  0  0  0  0  0  0  0  0  0  0
  130.0010  127.8280   71.3240 C   0  0  0  0  0  0  0  0  0  0  0  0
  129.5070  126.1640   68.5950 N   0  0  0  0  0  0  0  0  0  0  0  0
  129.5720  126.0360   67.2710 C   0  0  0  0  0  0  0  0  0  0  0  0
  130.2560  124.6190   66.5070 S   0  0  0  0  0  0  0  0  0  0  0  0
  129.9380  125.2740   64.8990 C   0  0  0  0  0  0  0  0  0  0  0  0
  130.2900  124.5050   63.7040 C   0  0  0  0  0  0  0  0  0  0  0  0
  129.6160  124.5990   62.6760 O   0  0  0  0  0  0  0  0  0  0  0  0
  131.3870  123.7180   63.8210 N   0  0  0  0  0  0  0  0  0  0  0  0
  131.9540  122.8260   62.8930 C   0  0  0  0  0  0  0  0  0  0  0  0
  133.3460  122.7060   62.9330 C   0  0  0  0  0  0  0  0  0  0  0  0
  134.0020  121.8380   62.0640 C   0  0  0  0  0  0  0  0  0  0  0  0
  133.2630  121.0820   61.1570 C   0  0  0  0  0  0  0  0  0  0  0  0
  131.8750  121.1830   61.1140 C   0  0  0  0  0  0  0  0  0  0  0  0
  131.2170  122.0500   61.9820 C   0  0  0  0  0  0  0  0  0  0  0  0
  129.3330  126.5380   64.9790 C   0  0  0  0  0  0  0  0  0  0  0  0
  128.9780  127.2850   63.8830 N   0  0  0  0  0  0  0  0  0  0  0  0
  129.1100  126.9950   66.3250 C   0  0  0  0  0  0  0  0  0  0  0  0
  127.6138  130.1174   66.6442 H   0  0  0  0  0  0  0  0  0  0  0  0
  128.8009  129.7135   65.3580 H   0  0  0  0  0  0  0  0  0  0  0  0
  127.1792  128.9412   65.3580 H   0  0  0  0  0  0  0  0  0  0  0  0
  128.0205  129.2187   68.6793 H   0  0  0  0  0  0  0  0  0  0  0  0
  126.8122  126.7833   70.7198 H   0  0  0  0  0  0  0  0  0  0  0  0
  126.7081  126.9667   73.1955 H   0  0  0  0  0  0  0  0  0  0  0  0
  128.7112  127.7087   74.4727 H   0  0  0  0  0  0  0  0  0  0  0  0
  130.8265  128.2581   73.2795 H   0  0  0  0  0  0  0  0  0  0  0  0
  130.9386  128.0704   70.8023 H   0  0  0  0  0  0  0  0  0  0  0  0
  131.8860  123.7810   64.6960 H   0  0  0  0  0  0  0  0  0  0  0  0
  133.9261  123.3001   63.6545 H   0  0  0  0  0  0  0  0  0  0  0  0
  135.0981  121.7498   62.0936 H   0  0  0  0  0  0  0  0  0  0  0  0
  133.7810  120.3986   60.4681 H   0  0  0  0  0  0  0  0  0  0  0  0
  131.3000  120.5795   60.3963 H   0  0  0  0  0  0  0  0  0  0  0  0
  130.1201  122.1277   61.9548 H   0  0  0  0  0  0  0  0  0  0  0  0
  128.1140  127.1230   63.3850 H   0  0  0  0  0  0  0  0  0  0  0  0
  129.5710  128.0270   63.5410 H   0  0  0  0  0  0  0  0  0  0  0  0
  1  2  1  0
  2  3  2  0
  3  4  1  0
  4  5  1  0
  5  6  2  0
  6  7  1  0
  7  8  2  0
  8  9  1  0
  9 10  2  0
  4 11  2  0
 11 12  1  0
 12 13  1  0
 13 14  1  0
 14 15  1  0
 15 16  2  0
 15 17  1  0
 17 18  1  0
 18 19  2  0
 19 20  1  0
 20 21  2  0
 21 22  1  0
 22 23  2  0
 14 24  2  0
 24 25  1  0
 24 26  1  0
 26  2  1  0
 10  5  1  0
 26 12  2  0
 23 18  1  0
  1 27  1  0
  1 28  1  0
  1 29  1  0
  3 30  1  0
  6 31  1  0
  7 32  1  0
  8 33  1  0
  9 34  1  0
 10 35  1  0
 17 36  1  0
 19 37  1  0
 20 38  1  0
 21 39  1  0
 22 40  1  0
 23 41  1  0
 25 42  1  0
 25 43  1  0
M  END
>  <Binding energies>  (1) 
[-7.53]

>  <Ligand effiencies>  (1) 
[-0.2596551724137931]

>  <Interactions>  (1) 
["V-A:ILE:369:CG2:3237, V-A:ILE:369:CD1:3239, V-B:GLU:543:CD:9880, H-A:GLU:543:OE1:4909, H-A:TYR:484:OH:4348, V-B:GLU:543:CG:9879, V-A:GLU:543:CD:4908, H-A:GLU:543:OE2:4910, V-A:LEU:475:CD2:4259, V-A:HIS:456:CE1:4070, V-A:GLY:454:CA:4049, H-B:GLU:543:OE2:9882, H-B:GLU:543:OE1:9881, V-B:TYR:539:CE2:9848, V-B:TYR:539:CD2:9846, V-A:TYR:484:CE2:4346, V-A:TYR:484:CZ:4347, V-B:GLU:543:CB:9878, V-A:SER:385:CB:3409, V-A:GLU:543:CB:4906, V-B:HIS:456:CD2:9039, V-B:HIS:456:CE1:9041, V-B:GLY:544:C:9884, V-A:GLU:543:CG:4907, V-B:LYS:547:CE:9922, V-A:SER:385:C:3405"]

$$$$
4dg_Grossjean_2025
     RDKit          3D

 46 49  0  0  0  0  0  0  0  0999 V2000
  128.0750  129.3780   65.9420 C   0  0  0  0  0  0  0  0  0  0  0  0
  128.5970  128.2150   66.7720 C   0  0  0  0  0  0  0  0  0  0  0  0
  128.6450  128.3660   68.1630 C   0  0  0  0  0  0  0  0  0  0  0  0
  129.1150  127.3340   68.9840 C   0  0  0  0  0  0  0  0  0  0  0  0
  129.1760  127.4660   70.4790 C   0  0  0  0  0  0  0  0  0  0  0  0
  128.0660  127.1450   71.2770 C   0  0  0  0  0  0  0  0  0  0  0  0
  128.1160  127.2700   72.6640 C   0  0  0  0  0  0  0  0  0  0  0  0
  129.2820  127.7190   73.2750 C   0  0  0  0  0  0  0  0  0  0  0  0
  130.3960  128.0470   72.5080 C   0  0  0  0  0  0  0  0  0  0  0  0
  130.3410  127.9220   71.1230 C   0  0  0  0  0  0  0  0  0  0  0  0
  129.5250  126.1410   68.4730 N   0  0  0  0  0  0  0  0  0  0  0  0
  129.4810  125.9960   67.1490 C   0  0  0  0  0  0  0  0  0  0  0  0
  129.9850  124.5180   66.3620 S   0  0  0  0  0  0  0  0  0  0  0  0
  129.6070  125.1830   64.7740 C   0  0  0  0  0  0  0  0  0  0  0  0
  129.8610  124.3960   63.5680 C   0  0  0  0  0  0  0  0  0  0  0  0
  131.0090  124.1680   63.1810 O   0  0  0  0  0  0  0  0  0  0  0  0
  128.7690  123.9760   62.8970 N   0  0  0  0  0  0  0  0  0  0  0  0
  128.7820  123.1600   61.6840 C   0  0  0  0  0  0  0  0  0  0  0  0
  127.5710  123.3890   60.7860 C   0  0  0  0  0  0  0  0  0  0  0  0
  126.3250  123.6630   61.3590 C   0  0  0  0  0  0  0  0  0  0  0  0
  125.2240  123.9040   60.5420 C   0  0  0  0  0  0  0  0  0  0  0  0
  125.3730  123.8810   59.1570 C   0  0  0  0  0  0  0  0  0  0  0  0
  126.6150  123.6260   58.5800 C   0  0  0  0  0  0  0  0  0  0  0  0
  127.7170  123.3860   59.3960 C   0  0  0  0  0  0  0  0  0  0  0  0
  129.1280  126.4980   64.8720 C   0  0  0  0  0  0  0  0  0  0  0  0
  128.7700  127.2630   63.7920 N   0  0  0  0  0  0  0  0  0  0  0  0
  129.0350  126.9820   66.2240 C   0  0  0  0  0  0  0  0  0  0  0  0
  127.7175  130.1746   66.6110 H   0  0  0  0  0  0  0  0  0  0  0  0
  128.8844  129.7680   65.3074 H   0  0  0  0  0  0  0  0  0  0  0  0
  127.2456  129.0324   65.3074 H   0  0  0  0  0  0  0  0  0  0  0  0
  128.3085  129.3095   68.6176 H   0  0  0  0  0  0  0  0  0  0  0  0
  127.1414  126.7889   70.7992 H   0  0  0  0  0  0  0  0  0  0  0  0
  127.2366  127.0145   73.2734 H   0  0  0  0  0  0  0  0  0  0  0  0
  129.3239  127.8153   74.3700 H   0  0  0  0  0  0  0  0  0  0  0  0
  131.3160  128.4035   72.9944 H   0  0  0  0  0  0  0  0  0  0  0  0
  131.2237  128.1843   70.5213 H   0  0  0  0  0  0  0  0  0  0  0  0
  127.8630  124.1330   63.3150 H   0  0  0  0  0  0  0  0  0  0  0  0
  129.6904  123.4002   61.1121 H   0  0  0  0  0  0  0  0  0  0  0  0
  128.7561  122.1070   62.0012 H   0  0  0  0  0  0  0  0  0  0  0  0
  126.2152  123.6880   62.4532 H   0  0  0  0  0  0  0  0  0  0  0  0
  124.2402  124.1118   60.9882 H   0  0  0  0  0  0  0  0  0  0  0  0
  124.5010  124.0661   58.5125 H   0  0  0  0  0  0  0  0  0  0  0  0
  126.7244  123.6143   57.4855 H   0  0  0  0  0  0  0  0  0  0  0  0
  128.7026  123.1940   58.9469 H   0  0  0  0  0  0  0  0  0  0  0  0
  127.8670  127.1730   63.3490 H   0  0  0  0  0  0  0  0  0  0  0  0
  129.4010  127.9520   63.4050 H   0  0  0  0  0  0  0  0  0  0  0  0
  1  2  1  0
  2  3  2  0
  3  4  1  0
  4  5  1  0
  5  6  2  0
  6  7  1  0
  7  8  2  0
  8  9  1  0
  9 10  2  0
  4 11  2  0
 11 12  1  0
 12 13  1  0
 13 14  1  0
 14 15  1  0
 15 16  2  0
 15 17  1  0
 17 18  1  0
 18 19  1  0
 19 20  2  0
 20 21  1  0
 21 22  2  0
 22 23  1  0
 23 24  2  0
 14 25  2  0
 25 26  1  0
 25 27  1  0
 27  2  1  0
 10  5  1  0
 27 12  2  0
 24 19  1  0
  1 28  1  0
  1 29  1  0
  1 30  1  0
  3 31  1  0
  6 32  1  0
  7 33  1  0
  8 34  1  0
  9 35  1  0
 10 36  1  0
 17 37  1  0
 18 38  1  0
 18 39  1  0
 20 40  1  0
 21 41  1  0
 22 42  1  0
 23 43  1  0
 24 44  1  0
 26 45  1  0
 26 46  1  0
M  END
>  <Binding energies>  (1) 
[-7.8]

>  <Ligand effiencies>  (1) 
[-0.26]

>  <Interactions>  (1) 
["V-B:GLU:543:CD:9880, H-A:GLU:543:OE1:4909, V-B:GLU:543:CG:9879, V-A:GLU:543:CD:4908, H-A:GLU:543:OE2:4910, V-A:HIS:456:CE1:4070, H-B:GLU:543:OE2:9882, H-B:GLU:543:OE1:9881, V-B:PRO:540:CA:9855, V-B:PRO:540:CB:9857, V-A:TYR:484:CE2:4346, V-B:GLU:543:CA:9876, V-A:TYR:484:CZ:4347, V-B:GLU:543:CB:9878, V-A:GLY:544:C:4912, V-A:GLU:543:CB:4906, V-B:HIS:456:CD2:9039, V-B:HIS:456:CE1:9041, V-A:GLU:543:CG:4907"]

$$$$
4dj_Grossjean_2025
     RDKit          3D

 39 42  0  0  0  0  0  0  0  0999 V2000
  127.7480  129.0170   65.8300 C   0  0  0  0  0  0  0  0  0  0  0  0
  128.4270  127.9960   66.7300 C   0  0  0  0  0  0  0  0  0  0  0  0
  128.3070  128.1530   68.1150 C   0  0  0  0  0  0  0  0  0  0  0  0
  128.9100  127.2480   68.9970 C   0  0  0  0  0  0  0  0  0  0  0  0
  128.7940  127.3890   70.4890 C   0  0  0  0  0  0  0  0  0  0  0  0
  129.8350  127.9550   71.2420 C   0  0  0  0  0  0  0  0  0  0  0  0
  129.7340  128.0880   72.6250 C   0  0  0  0  0  0  0  0  0  0  0  0
  128.5850  127.6510   73.2770 C   0  0  0  0  0  0  0  0  0  0  0  0
  127.5400  127.0830   72.5570 C   0  0  0  0  0  0  0  0  0  0  0  0
  127.6460  126.9530   71.1750 C   0  0  0  0  0  0  0  0  0  0  0  0
  129.6190  126.1750   68.5520 N   0  0  0  0  0  0  0  0  0  0  0  0
  129.7350  126.0250   67.2340 C   0  0  0  0  0  0  0  0  0  0  0  0
  130.6250  124.6950   66.5260 S   0  0  0  0  0  0  0  0  0  0  0  0
  130.2650  125.2620   64.8940 C   0  0  0  0  0  0  0  0  0  0  0  0
  130.7720  124.5340   63.7300 C   0  0  0  0  0  0  0  0  0  0  0  0
  130.3270  124.7610   62.6010 O   0  0  0  0  0  0  0  0  0  0  0  0
  131.7340  123.6140   63.9900 N   0  0  0  0  0  0  0  0  0  0  0  0
  132.3740  122.7940   63.0720 C   0  0  0  0  0  0  0  0  0  0  0  0
  133.6590  122.5180   62.9930 N   0  0  0  0  0  0  0  0  0  0  0  0
  133.9180  121.6970   61.9940 C   0  0  0  0  0  0  0  0  0  0  0  0
  132.8270  121.2870   61.2350 C   0  0  0  0  0  0  0  0  0  0  0  0
  131.3860  122.0220   61.8730 S   0  0  0  0  0  0  0  0  0  0  0  0
  129.4920  126.4320   64.9240 C   0  0  0  0  0  0  0  0  0  0  0  0
  129.0680  127.0960   63.8000 N   0  0  0  0  0  0  0  0  0  0  0  0
  129.1730  126.8880   66.2500 C   0  0  0  0  0  0  0  0  0  0  0  0
  127.2445  129.7741   66.4491 H   0  0  0  0  0  0  0  0  0  0  0  0
  128.5021  129.5050   65.1950 H   0  0  0  0  0  0  0  0  0  0  0  0
  127.0064  128.5103   65.1950 H   0  0  0  0  0  0  0  0  0  0  0  0
  127.7307  128.9995   68.5168 H   0  0  0  0  0  0  0  0  0  0  0  0
  130.7462  128.2994   70.7310 H   0  0  0  0  0  0  0  0  0  0  0  0
  130.5585  128.5363   73.1988 H   0  0  0  0  0  0  0  0  0  0  0  0
  128.5030  127.7556   74.3689 H   0  0  0  0  0  0  0  0  0  0  0  0
  126.6340  126.7381   73.0768 H   0  0  0  0  0  0  0  0  0  0  0  0
  126.8175  126.5014   70.6096 H   0  0  0  0  0  0  0  0  0  0  0  0
  132.0190  123.5010   64.9520 H   0  0  0  0  0  0  0  0  0  0  0  0
  134.9401  121.3554   61.7733 H   0  0  0  0  0  0  0  0  0  0  0  0
  132.8689  120.6076   60.3709 H   0  0  0  0  0  0  0  0  0  0  0  0
  128.5970  127.9870   63.8520 H   0  0  0  0  0  0  0  0  0  0  0  0
  129.2140  126.7100   62.8770 H   0  0  0  0  0  0  0  0  0  0  0  0
  1  2  1  0
  2  3  2  0
  3  4  1  0
  4  5  1  0
  5  6  2  0
  6  7  1  0
  7  8  2  0
  8  9  1  0
  9 10  2  0
  4 11  2  0
 11 12  1  0
 12 13  1  0
 13 14  1  0
 14 15  1  0
 15 16  2  0
 15 17  1  0
 17 18  1  0
 18 19  2  0
 19 20  1  0
 20 21  2  0
 21 22  1  0
 14 23  2  0
 23 24  1  0
 23 25  1  0
 25  2  1  0
 10  5  1  0
 25 12  2  0
 22 18  1  0
  1 26  1  0
  1 27  1  0
  1 28  1  0
  3 29  1  0
  6 30  1  0
  7 31  1  0
  8 32  1  0
  9 33  1  0
 10 34  1  0
 17 35  1  0
 20 36  1  0
 21 37  1  0
 24 38  1  0
 24 39  1  0
M  END
>  <Binding energies>  (1) 
[-6.75]

>  <Ligand effiencies>  (1) 
[-0.24107142857142858]

>  <Interactions>  (1) 
["V-A:ILE:369:CG2:3237, V-A:ILE:369:CD1:3239, V-B:GLU:543:CD:9880, H-A:GLY:454:N:4050, H-A:GLU:543:OE1:4909, H-A:TYR:484:OH:4348, V-B:GLU:543:CG:9879, V-A:GLU:543:CD:4908, H-A:GLU:543:OE2:4910, V-A:LEU:475:CD2:4259, V-A:HIS:456:CE1:4070, V-A:GLY:454:CA:4049, H-B:GLU:543:OE2:9882, H-B:GLU:543:OE1:9881, V-A:TYR:484:CE2:4346, V-B:GLU:543:C:9874, V-A:TYR:484:CZ:4347, V-B:GLU:543:CB:9878, V-A:GLU:543:CB:4906, V-B:HIS:456:CD2:9039, V-B:HIS:456:CE1:9041, V-B:GLY:544:C:9884, V-A:GLU:543:CG:4907, V-B:LYS:547:CE:9922, V-A:SER:385:C:3405"]

$$$$
4ea_Grossjean_2025
     RDKit          3D

 52 55  0  0  0  0  0  0  0  0999 V2000
  129.7970  131.7210   73.4860 C   0  0  0  0  0  0  0  0  0  0  0  0
  129.1240  130.3500   73.6010 C   0  0  0  0  0  0  0  0  0  0  0  0
  130.0110  129.3470   73.1260 O   0  0  0  0  0  0  0  0  0  0  0  0
  129.5730  128.0870   72.8680 C   0  0  0  0  0  0  0  0  0  0  0  0
  129.2140  127.3000   73.7490 O   0  0  0  0  0  0  0  0  0  0  0  0
  129.5700  127.7480   71.4060 C   0  0  0  0  0  0  0  0  0  0  0  0
  130.7240  127.9840   70.6470 C   0  0  0  0  0  0  0  0  0  0  0  0
  130.7530  127.6800   69.2890 C   0  0  0  0  0  0  0  0  0  0  0  0
  129.6320  127.1360   68.6610 C   0  0  0  0  0  0  0  0  0  0  0  0
  129.7770  126.8690   67.2860 N   0  0  0  0  0  0  0  0  0  0  0  0
  129.8810  125.6890   66.6260 C   0  0  0  0  0  0  0  0  0  0  0  0
  129.8630  124.5860   67.1720 O   0  0  0  0  0  0  0  0  0  0  0  0
  130.0210  125.7980   65.1710 C   0  0  0  0  0  0  0  0  0  0  0  0
  129.1590  127.0570   64.2820 S   0  0  0  0  0  0  0  0  0  0  0  0
  129.8300  126.5110   62.7630 C   0  0  0  0  0  0  0  0  0  0  0  0
  129.5350  127.1090   61.6070 N   0  0  0  0  0  0  0  0  0  0  0  0
  130.1220  126.5890   60.5010 C   0  0  0  0  0  0  0  0  0  0  0  0
  129.7730  127.2830   59.1980 C   0  0  0  0  0  0  0  0  0  0  0  0
  130.9870  125.4970   60.5230 C   0  0  0  0  0  0  0  0  0  0  0  0
  131.2930  124.8740   61.7370 C   0  0  0  0  0  0  0  0  0  0  0  0
  132.2140  123.7150   61.7450 C   0  0  0  0  0  0  0  0  0  0  0  0
  131.7840  122.4720   61.2700 C   0  0  0  0  0  0  0  0  0  0  0  0
  132.6500  121.3820   61.2740 C   0  0  0  0  0  0  0  0  0  0  0  0
  133.9480  121.5340   61.7580 C   0  0  0  0  0  0  0  0  0  0  0  0
  134.3850  122.7670   62.2370 C   0  0  0  0  0  0  0  0  0  0  0  0
  133.5180  123.8550   62.2320 C   0  0  0  0  0  0  0  0  0  0  0  0
  130.6980  125.3890   62.9220 C   0  0  0  0  0  0  0  0  0  0  0  0
  130.7890  125.0030   64.3060 C   0  0  0  0  0  0  0  0  0  0  0  0
  131.5620  123.9500   64.7230 N   0  0  0  0  0  0  0  0  0  0  0  0
  128.4720  126.8960   69.4140 C   0  0  0  0  0  0  0  0  0  0  0  0
  128.4440  127.2000   70.7720 C   0  0  0  0  0  0  0  0  0  0  0  0
  129.9924  132.1191   74.4926 H   0  0  0  0  0  0  0  0  0  0  0  0
  130.7472  131.6185   72.9414 H   0  0  0  0  0  0  0  0  0  0  0  0
  129.1347  132.4100   72.9414 H   0  0  0  0  0  0  0  0  0  0  0  0
  128.8748  130.1508   74.6537 H   0  0  0  0  0  0  0  0  0  0  0  0
  128.2035  130.3412   72.9989 H   0  0  0  0  0  0  0  0  0  0  0  0
  131.6149  128.4133   71.1286 H   0  0  0  0  0  0  0  0  0  0  0  0
  131.6665  127.8700   68.7065 H   0  0  0  0  0  0  0  0  0  0  0  0
  129.8070  127.6970   66.7100 H   0  0  0  0  0  0  0  0  0  0  0  0
  129.2884  128.2466   59.4141 H   0  0  0  0  0  0  0  0  0  0  0  0
  130.6911  127.4563   58.6175 H   0  0  0  0  0  0  0  0  0  0  0  0
  129.0864  126.6493   58.6175 H   0  0  0  0  0  0  0  0  0  0  0  0
  131.4287  125.1254   59.5866 H   0  0  0  0  0  0  0  0  0  0  0  0
  130.7577  122.3551   60.8918 H   0  0  0  0  0  0  0  0  0  0  0  0
  132.3114  120.4057   60.8970 H   0  0  0  0  0  0  0  0  0  0  0  0
  134.6331  120.6734   61.7618 H   0  0  0  0  0  0  0  0  0  0  0  0
  135.4109  122.8798   62.6175 H   0  0  0  0  0  0  0  0  0  0  0  0
  133.8591  124.8291   62.6124 H   0  0  0  0  0  0  0  0  0  0  0  0
  131.4840  123.5660   65.6540 H   0  0  0  0  0  0  0  0  0  0  0  0
  132.2400  123.5190   64.1090 H   0  0  0  0  0  0  0  0  0  0  0  0
  127.5827  126.4665   68.9296 H   0  0  0  0  0  0  0  0  0  0  0  0
  127.5304  127.0089   71.3541 H   0  0  0  0  0  0  0  0  0  0  0  0
  1  2  1  0
  2  3  1  0
  3  4  1  0
  4  5  2  0
  4  6  1  0
  6  7  2  0
  7  8  1  0
  8  9  2  0
  9 10  1  0
 10 11  1  0
 11 12  2  0
 11 13  1  0
 13 14  1  0
 14 15  1  0
 15 16  2  0
 16 17  1  0
 17 18  1  0
 17 19  2  0
 19 20  1  0
 20 21  1  0
 21 22  2  0
 22 23  1  0
 23 24  2  0
 24 25  1  0
 25 26  2  0
 20 27  2  0
 27 28  1  0
 28 29  1  0
  9 30  1  0
 30 31  2  0
 31  6  1  0
 28 13  2  0
 27 15  1  0
 26 21  1  0
  1 32  1  0
  1 33  1  0
  1 34  1  0
  2 35  1  0
  2 36  1  0
  7 37  1  0
  8 38  1  0
 10 39  1  0
 18 40  1  0
 18 41  1  0
 18 42  1  0
 19 43  1  0
 22 44  1  0
 23 45  1  0
 24 46  1  0
 25 47  1  0
 26 48  1  0
 29 49  1  0
 29 50  1  0
 30 51  1  0
 31 52  1  0
M  END
>  <Binding energies>  (1) 
[-7.76]

>  <Ligand effiencies>  (1) 
[-0.22823529411764706]

>  <Interactions>  (1) 
["V-A:ILE:369:CG2:3237, V-A:ILE:369:CD1:3239, V-A:GLY:453:C:4042, V-B:GLU:543:CD:9880, H-A:GLU:543:OE1:4909, H-A:TYR:484:OH:4348, V-B:GLU:543:CG:9879, V-A:GLU:543:CD:4908, H-A:GLU:543:OE2:4910, V-A:LEU:475:CD2:4259, V-A:HIS:456:CE1:4070, V-A:GLY:454:CA:4049, V-B:TYR:539:CE2:9848, V-A:GLU:543:C:4902, V-B:GLU:543:C:9874, V-A:TYR:484:CZ:4347, V-B:GLU:543:CB:9878, V-A:GLY:544:C:4912, V-A:SER:385:CB:3409, V-A:GLU:543:CB:4906, V-B:HIS:456:CD2:9039, V-B:HIS:456:CE1:9041, V-A:SER:385:C:3405, V-A:SER:385:CA:3407, H-A:LYS:547:NZ:4951, H-B:LYS:547:NZ:9923, V-A:GLY:544:CA:4914, V-A:LYS:547:CE:4950"]

$$$$
4eb_Grossjean_2025
     RDKit          3D

 49 52  0  0  0  0  0  0  0  0999 V2000
  129.2400  131.0820   73.4890 C   0  0  0  0  0  0  0  0  0  0  0  0
  129.7510  129.8020   73.1480 O   0  0  0  0  0  0  0  0  0  0  0  0
  128.9210  128.7990   72.7590 C   0  0  0  0  0  0  0  0  0  0  0  0
  127.9430  128.4330   73.4170 O   0  0  0  0  0  0  0  0  0  0  0  0
  129.3130  128.1790   71.4480 C   0  0  0  0  0  0  0  0  0  0  0  0
  130.6600  128.1920   71.0620 C   0  0  0  0  0  0  0  0  0  0  0  0
  131.0540  127.6260   69.8530 C   0  0  0  0  0  0  0  0  0  0  0  0
  130.1140  127.0370   69.0070 C   0  0  0  0  0  0  0  0  0  0  0  0
  130.6270  126.4970   67.8110 N   0  0  0  0  0  0  0  0  0  0  0  0
  130.4930  125.2570   67.2790 C   0  0  0  0  0  0  0  0  0  0  0  0
  129.8520  124.3440   67.8010 O   0  0  0  0  0  0  0  0  0  0  0  0
  131.1760  125.0490   66.0000 C   0  0  0  0  0  0  0  0  0  0  0  0
  132.8990  125.4010   65.8410 S   0  0  0  0  0  0  0  0  0  0  0  0
  132.8910  124.9180   64.1600 C   0  0  0  0  0  0  0  0  0  0  0  0
  133.9940  124.9580   63.4100 N   0  0  0  0  0  0  0  0  0  0  0  0
  133.8550  124.5570   62.1240 C   0  0  0  0  0  0  0  0  0  0  0  0
  135.1220  124.6110   61.2890 C   0  0  0  0  0  0  0  0  0  0  0  0
  132.6510  124.1220   61.5730 C   0  0  0  0  0  0  0  0  0  0  0  0
  131.4970  124.0820   62.3640 C   0  0  0  0  0  0  0  0  0  0  0  0
  130.2240  123.6170   61.7650 C   0  0  0  0  0  0  0  0  0  0  0  0
  129.9700  122.2480   61.6310 C   0  0  0  0  0  0  0  0  0  0  0  0
  128.7730  121.8100   61.0700 C   0  0  0  0  0  0  0  0  0  0  0  0
  127.8320  122.7420   60.6390 C   0  0  0  0  0  0  0  0  0  0  0  0
  128.0780  124.1080   60.7650 C   0  0  0  0  0  0  0  0  0  0  0  0
  129.2740  124.5440   61.3260 C   0  0  0  0  0  0  0  0  0  0  0  0
  131.6010  124.4940   63.7200 C   0  0  0  0  0  0  0  0  0  0  0  0
  130.6430  124.5790   64.7900 C   0  0  0  0  0  0  0  0  0  0  0  0
  129.3260  124.2280   64.6230 N   0  0  0  0  0  0  0  0  0  0  0  0
  128.7630  127.0200   69.3850 C   0  0  0  0  0  0  0  0  0  0  0  0
  128.3700  127.5870   70.5950 C   0  0  0  0  0  0  0  0  0  0  0  0
  129.2004  131.1812   74.5838 H   0  0  0  0  0  0  0  0  0  0  0  0
  129.8960  131.8612   73.0737 H   0  0  0  0  0  0  0  0  0  0  0  0
  128.2277  131.1952   73.0737 H   0  0  0  0  0  0  0  0  0  0  0  0
  131.4118  128.6530   71.7195 H   0  0  0  0  0  0  0  0  0  0  0  0
  132.1148  127.6432   69.5623 H   0  0  0  0  0  0  0  0  0  0  0  0
  131.1820  127.1460   67.2740 H   0  0  0  0  0  0  0  0  0  0  0  0
  135.9978  124.6483   61.9535 H   0  0  0  0  0  0  0  0  0  0  0  0
  135.1813  123.7146   60.6543 H   0  0  0  0  0  0  0  0  0  0  0  0
  135.1048  125.5092   60.6543 H   0  0  0  0  0  0  0  0  0  0  0  0
  132.6078  123.8108   60.5188 H   0  0  0  0  0  0  0  0  0  0  0  0
  130.7176  121.5156   61.9696 H   0  0  0  0  0  0  0  0  0  0  0  0
  128.5717  120.7334   60.9678 H   0  0  0  0  0  0  0  0  0  0  0  0
  126.8865  122.3969   60.1953 H   0  0  0  0  0  0  0  0  0  0  0  0
  127.3299  124.8380   60.4224 H   0  0  0  0  0  0  0  0  0  0  0  0
  129.4728  125.6214   61.4245 H   0  0  0  0  0  0  0  0  0  0  0  0
  128.8670  123.5790   65.2470 H   0  0  0  0  0  0  0  0  0  0  0  0
  128.7710  124.6070   63.8680 H   0  0  0  0  0  0  0  0  0  0  0  0
  128.0135  126.5585   68.7252 H   0  0  0  0  0  0  0  0  0  0  0  0
  127.3090  127.5703   70.8847 H   0  0  0  0  0  0  0  0  0  0  0  0
  1  2  1  0
  2  3  1  0
  3  4  2  0
  3  5  1  0
  5  6  2  0
  6  7  1  0
  7  8  2  0
  8  9  1  0
  9 10  1  0
 10 11  2  0
 10 12  1  0
 12 13  1  0
 13 14  1  0
 14 15  2  0
 15 16  1  0
 16 17  1  0
 16 18  2  0
 18 19  1  0
 19 20  1  0
 20 21  2  0
 21 22  1  0
 22 23  2  0
 23 24  1  0
 24 25  2  0
 19 26  2  0
 26 27  1  0
 27 28  1  0
  8 29  1  0
 29 30  2  0
 30  5  1  0
 27 12  2  0
 26 14  1  0
 25 20  1  0
  1 31  1  0
  1 32  1  0
  1 33  1  0
  6 34  1  0
  7 35  1  0
  9 36  1  0
 17 37  1  0
 17 38  1  0
 17 39  1  0
 18 40  1  0
 21 41  1  0
 22 42  1  0
 23 43  1  0
 24 44  1  0
 25 45  1  0
 28 46  1  0
 28 47  1  0
 29 48  1  0
 30 49  1  0
M  END
>  <Binding energies>  (1) 
[-7.75]

>  <Ligand effiencies>  (1) 
[-0.23484848484848486]

>  <Interactions>  (1) 
["V-A:ILE:369:CD1:3239, V-B:GLU:543:CD:9880, H-A:ARG:545:NH1:4927, H-A:ARG:545:NH2:4928, H-A:GLY:454:N:4050, V-A:GLY:453:CA:4044, V-A:ASP:366:CA:3210, V-A:ASP:366:CG:3213, H-A:TYR:484:OH:4348, V-B:GLU:543:CG:9879, V-A:GLU:543:CD:4908, V-A:ARG:545:CZ:4926, H-A:GLU:543:OE2:4910, V-A:HIS:456:CE1:4070, V-B:ALA:541:CB:9864, V-B:TYR:539:C:9839, H-B:GLU:543:OE1:9881, V-B:PRO:540:CA:9855, V-B:PRO:540:C:9853, V-A:TYR:484:CE2:4346, V-A:GLU:543:C:4902, V-A:TYR:484:CZ:4347, V-B:GLU:543:CB:9878, V-A:GLY:544:C:4912, V-A:GLU:543:CB:4906, V-B:HIS:456:CD2:9039, V-B:HIS:456:CE1:9041, V-A:ARG:545:CG:4922, V-A:ARG:545:CD:4923, H-A:LYS:547:NZ:4951, V-A:LYS:547:CE:4950"]

$$$$
8a_Ghoteimi_2023
     RDKit          3D

 67 71  0  0  0  0  0  0  0  0999 V2000
  129.7310  116.7490   60.6380 C   0  0  0  0  0  0  0  0  0  0  0  0
  130.8850  117.7230   60.8940 C   0  0  0  0  0  0  0  0  0  0  0  0
  131.2310  118.3750   59.6790 O   0  0  0  0  0  0  0  0  0  0  0  0
  132.1400  119.3860   59.6600 C   0  0  0  0  0  0  0  0  0  0  0  0
  133.1260  119.3990   58.9160 O   0  0  0  0  0  0  0  0  0  0  0  0
  131.8290  120.4820   60.6370 C   0  0  0  0  0  0  0  0  0  0  0  0
  130.4970  120.7110   61.0070 C   0  0  0  0  0  0  0  0  0  0  0  0
  130.1770  121.7200   61.9100 C   0  0  0  0  0  0  0  0  0  0  0  0
  131.1770  122.5220   62.4620 C   0  0  0  0  0  0  0  0  0  0  0  0
  130.7340  123.5140   63.3600 N   0  0  0  0  0  0  0  0  0  0  0  0
  130.5520  124.8450   63.1760 C   0  0  0  0  0  0  0  0  0  0  0  0
  130.7640  125.4340   62.1160 O   0  0  0  0  0  0  0  0  0  0  0  0
  130.0630  125.5760   64.3480 C   0  0  0  0  0  0  0  0  0  0  0  0
  130.4450  125.0100   65.9740 S   0  0  0  0  0  0  0  0  0  0  0  0
  129.5450  126.3250   66.6940 C   0  0  0  0  0  0  0  0  0  0  0  0
  129.4260  126.4520   68.0150 N   0  0  0  0  0  0  0  0  0  0  0  0
  128.7000  127.5070   68.4710 C   0  0  0  0  0  0  0  0  0  0  0  0
  128.5630  127.6180   69.9560 C   0  0  0  0  0  0  0  0  0  0  0  0
  127.4950  127.0100   70.6310 C   0  0  0  0  0  0  0  0  0  0  0  0
  127.3660  127.1270   72.0120 C   0  0  0  0  0  0  0  0  0  0  0  0
  128.3000  127.8490   72.7520 C   0  0  0  0  0  0  0  0  0  0  0  0
  128.0900  127.9120   74.1170 O   0  0  0  0  0  0  0  0  0  0  0  0
  127.0160  128.7010   74.6170 C   0  0  0  0  0  0  0  0  0  0  0  0
  129.3750  128.4550   72.0880 C   0  0  0  0  0  0  0  0  0  0  0  0
  129.5000  128.3390   70.7050 C   0  0  0  0  0  0  0  0  0  0  0  0
  128.1060  128.4310   67.6090 C   0  0  0  0  0  0  0  0  0  0  0  0
  128.2420  128.3120   66.2220 C   0  0  0  0  0  0  0  0  0  0  0  0
  127.6160  129.3400   65.3520 C   0  0  0  0  0  0  0  0  0  0  0  0
  126.2730  129.2290   64.9870 C   0  0  0  0  0  0  0  0  0  0  0  0
  125.6770  130.2020   64.1890 C   0  0  0  0  0  0  0  0  0  0  0  0
  126.4100  131.3030   63.7470 C   0  0  0  0  0  0  0  0  0  0  0  0
  125.7360  132.2180   62.9600 O   0  0  0  0  0  0  0  0  0  0  0  0
  124.3250  132.1060   62.8210 C   0  0  0  0  0  0  0  0  0  0  0  0
  127.7580  131.4210   64.1190 C   0  0  0  0  0  0  0  0  0  0  0  0
  128.3510  130.4470   64.9200 C   0  0  0  0  0  0  0  0  0  0  0  0
  128.9790  127.2020   65.7220 C   0  0  0  0  0  0  0  0  0  0  0  0
  129.2760  126.7380   64.3890 C   0  0  0  0  0  0  0  0  0  0  0  0
  128.8100  127.3750   63.2660 N   0  0  0  0  0  0  0  0  0  0  0  0
  132.5140  122.2960   62.1010 C   0  0  0  0  0  0  0  0  0  0  0  0
  132.8330  121.2860   61.1980 C   0  0  0  0  0  0  0  0  0  0  0  0
  129.3223  116.4040   61.5992 H   0  0  0  0  0  0  0  0  0  0  0  0
  128.9417  117.2581   60.0655 H   0  0  0  0  0  0  0  0  0  0  0  0
  130.1003  115.8854   60.0655 H   0  0  0  0  0  0  0  0  0  0  0  0
  130.5748  118.4723   61.6372 H   0  0  0  0  0  0  0  0  0  0  0  0
  131.7558  117.1690   61.2746 H   0  0  0  0  0  0  0  0  0  0  0  0
  129.6975  120.0877   60.5799 H   0  0  0  0  0  0  0  0  0  0  0  0
  129.1268  121.8871   62.1913 H   0  0  0  0  0  0  0  0  0  0  0  0
  130.5100  123.1640   64.2790 H   0  0  0  0  0  0  0  0  0  0  0  0
  126.7502  126.4337   70.0625 H   0  0  0  0  0  0  0  0  0  0  0  0
  126.5195  126.6454   72.5234 H   0  0  0  0  0  0  0  0  0  0  0  0
  127.0329  128.6886   75.7168 H   0  0  0  0  0  0  0  0  0  0  0  0
  127.1243  129.7359   74.2603 H   0  0  0  0  0  0  0  0  0  0  0  0
  126.0608  128.2883   74.2603 H   0  0  0  0  0  0  0  0  0  0  0  0
  130.1225  129.0240   72.6603 H   0  0  0  0  0  0  0  0  0  0  0  0
  130.3470  128.8209   70.1948 H   0  0  0  0  0  0  0  0  0  0  0  0
  127.5226  129.2647   68.0268 H   0  0  0  0  0  0  0  0  0  0  0  0
  125.6821  128.3677   65.3319 H   0  0  0  0  0  0  0  0  0  0  0  0
  124.6191  130.1014   63.9048 H   0  0  0  0  0  0  0  0  0  0  0  0
  123.8602  132.0691   63.8173 H   0  0  0  0  0  0  0  0  0  0  0  0
  123.9407  132.9765   62.2691 H   0  0  0  0  0  0  0  0  0  0  0  0
  124.0828  131.1858   62.2691 H   0  0  0  0  0  0  0  0  0  0  0  0
  128.3479  132.2844   63.7775 H   0  0  0  0  0  0  0  0  0  0  0  0
  129.4058  130.5505   65.2144 H   0  0  0  0  0  0  0  0  0  0  0  0
  129.3750  128.0520   62.7720 H   0  0  0  0  0  0  0  0  0  0  0  0
  127.8910  127.1880   62.8920 H   0  0  0  0  0  0  0  0  0  0  0  0
  133.3117  122.9184   62.5326 H   0  0  0  0  0  0  0  0  0  0  0  0
  133.8839  121.1161   60.9210 H   0  0  0  0  0  0  0  0  0  0  0  0
  1  2  1  0
  2  3  1  0
  3  4  1  0
  4  5  2  0
  4  6  1  0
  6  7  2  0
  7  8  1  0
  8  9  2  0
  9 10  1  0
 10 11  1  0
 11 12  2  0
 11 13  1  0
 13 14  1  0
 14 15  1  0
 15 16  2  0
 16 17  1  0
 17 18  1  0
 18 19  2  0
 19 20  1  0
 20 21  2  0
 21 22  1  0
 22 23  1  0
 21 24  1  0
 24 25  2  0
 17 26  2  0
 26 27  1  0
 27 28  1  0
 28 29  2  0
 29 30  1  0
 30 31  2  0
 31 32  1  0
 32 33  1  0
 31 34  1  0
 34 35  2  0
 27 36  2  0
 36 37  1  0
 37 38  1  0
  9 39  1  0
 39 40  2  0
 40  6  1  0
 37 13  2  0
 36 15  1  0
 25 18  1  0
 35 28  1  0
  1 41  1  0
  1 42  1  0
  1 43  1  0
  2 44  1  0
  2 45  1  0
  7 46  1  0
  8 47  1  0
 10 48  1  0
 19 49  1  0
 20 50  1  0
 23 51  1  0
 23 52  1  0
 23 53  1  0
 24 54  1  0
 25 55  1  0
 26 56  1  0
 29 57  1  0
 30 58  1  0
 33 59  1  0
 33 60  1  0
 33 61  1  0
 34 62  1  0
 35 63  1  0
 38 64  1  0
 38 65  1  0
 39 66  1  0
 40 67  1  0
M  END
>  <Binding energies>  (1) 
[-8.28]

>  <Ligand effiencies>  (1) 
[-0.1925581395348837]

>  <Interactions>  (1) 
["V-A:ILE:369:CG2:3237, V-B:GLU:543:CD:9880, H-A:GLU:543:OE1:4909, H-A:TYR:484:OH:4348, V-B:GLU:543:CG:9879, V-A:GLU:543:CD:4908, V-A:LEU:475:CD2:4259, V-B:ALA:541:CB:9864, H-B:GLU:543:OE2:9882, V-B:TYR:539:C:9839, H-B:GLU:543:OE1:9881, V-B:TYR:539:CE2:9848, V-B:TYR:539:CD2:9846, V-B:TYR:539:CG:9844, V-A:TYR:484:CE2:4346, V-A:GLU:543:C:4902, V-B:GLU:543:C:9874, V-B:GLU:543:CB:9878, V-A:SER:385:CB:3409, V-A:PRO:482:CB:4326, V-A:GLU:543:CB:4906, V-A:HIS:383:CE1:3393, V-A:PRO:482:CG:4327, V-B:HIS:456:CD2:9039, V-B:HIS:456:CE1:9041, V-A:HIS:383:NE2:3394, V-B:GLY:544:C:9884, V-B:GLY:544:CA:9886, V-A:GLU:543:CG:4907, H-B:TYR:484:OH:9319, V-B:HIS:456:CG:9037, H-A:SER:385:OG:3410, V-B:GLY:454:CA:9020, H-B:LYS:547:NZ:9923, V-B:HIS:456:CB:9036, V-B:VAL:344:CG1:7972, H-A:HIS:383:HE2:3395"]

$$$$
8b_Ghoteimi_2023
     RDKit          3D

 54 58  0  0  0  0  0  0  0  0999 V2000
  130.8940  126.8660   74.0620 C   0  0  0  0  0  0  0  0  0  0  0  0
  130.2880  127.9660   73.3920 O   0  0  0  0  0  0  0  0  0  0  0  0
  129.9620  127.8430   72.0540 C   0  0  0  0  0  0  0  0  0  0  0  0
  130.9900  128.0620   71.1400 C   0  0  0  0  0  0  0  0  0  0  0  0
  130.7550  127.9600   69.7720 C   0  0  0  0  0  0  0  0  0  0  0  0
  129.4810  127.6360   69.2830 C   0  0  0  0  0  0  0  0  0  0  0  0
  129.2210  127.5270   67.8140 C   0  0  0  0  0  0  0  0  0  0  0  0
  128.5800  128.5460   67.1010 C   0  0  0  0  0  0  0  0  0  0  0  0
  128.3500  128.4200   65.7280 C   0  0  0  0  0  0  0  0  0  0  0  0
  127.6590  129.5130   65.0050 C   0  0  0  0  0  0  0  0  0  0  0  0
  126.2830  129.4470   64.7800 C   0  0  0  0  0  0  0  0  0  0  0  0
  125.6330  130.4800   64.1090 C   0  0  0  0  0  0  0  0  0  0  0  0
  126.3470  131.5890   63.6530 C   0  0  0  0  0  0  0  0  0  0  0  0
  125.6200  132.5650   62.9990 O   0  0  0  0  0  0  0  0  0  0  0  0
  124.2080  132.4210   62.8870 C   0  0  0  0  0  0  0  0  0  0  0  0
  127.7310  131.6510   63.8770 C   0  0  0  0  0  0  0  0  0  0  0  0
  128.3790  130.6180   64.5490 C   0  0  0  0  0  0  0  0  0  0  0  0
  128.7930  127.2350   65.0820 C   0  0  0  0  0  0  0  0  0  0  0  0
  128.7290  126.7860   63.7150 C   0  0  0  0  0  0  0  0  0  0  0  0
  128.1580  127.5390   62.7210 N   0  0  0  0  0  0  0  0  0  0  0  0
  129.3020  125.5220   63.5050 C   0  0  0  0  0  0  0  0  0  0  0  0
  129.4150  124.7690   62.2540 C   0  0  0  0  0  0  0  0  0  0  0  0
  130.5170  124.5730   61.7360 O   0  0  0  0  0  0  0  0  0  0  0  0
  128.2430  124.3260   61.7340 N   0  0  0  0  0  0  0  0  0  0  0  0
  128.0590  123.5900   60.5710 C   0  0  0  0  0  0  0  0  0  0  0  0
  127.4060  124.0940   59.4470 C   0  0  0  0  0  0  0  0  0  0  0  0
  127.4300  123.0690   58.5300 C   0  0  0  0  0  0  0  0  0  0  0  0
  128.0670  122.0040   59.0710 O   0  0  0  0  0  0  0  0  0  0  0  0
  128.4630  122.3470   60.3650 N   0  0  0  0  0  0  0  0  0  0  0  0
  129.9420  124.8550   65.0080 S   0  0  0  0  0  0  0  0  0  0  0  0
  129.4380  126.2690   65.9050 C   0  0  0  0  0  0  0  0  0  0  0  0
  129.6560  126.3860   67.2150 N   0  0  0  0  0  0  0  0  0  0  0  0
  128.4520  127.4140   70.2080 C   0  0  0  0  0  0  0  0  0  0  0  0
  128.6850  127.5160   71.5770 C   0  0  0  0  0  0  0  0  0  0  0  0
  130.8146  127.0102   75.1496 H   0  0  0  0  0  0  0  0  0  0  0  0
  130.3812  125.9355   73.7771 H   0  0  0  0  0  0  0  0  0  0  0  0
  131.9545  126.8022   73.7771 H   0  0  0  0  0  0  0  0  0  0  0  0
  131.9965  128.3178   71.5026 H   0  0  0  0  0  0  0  0  0  0  0  0
  131.5792  128.1358   69.0651 H   0  0  0  0  0  0  0  0  0  0  0  0
  128.2537  129.4557   67.6263 H   0  0  0  0  0  0  0  0  0  0  0  0
  125.7105  128.5768   65.1336 H   0  0  0  0  0  0  0  0  0  0  0  0
  124.5481  130.4213   63.9371 H   0  0  0  0  0  0  0  0  0  0  0  0
  123.7632  132.3756   63.8920 H   0  0  0  0  0  0  0  0  0  0  0  0
  123.7938  133.2816   62.3412 H   0  0  0  0  0  0  0  0  0  0  0  0
  123.9761  131.4945   62.3412 H   0  0  0  0  0  0  0  0  0  0  0  0
  128.3057  132.5185   63.5205 H   0  0  0  0  0  0  0  0  0  0  0  0
  129.4640  130.6732   64.7213 H   0  0  0  0  0  0  0  0  0  0  0  0
  128.6800  128.2580   62.2400 H   0  0  0  0  0  0  0  0  0  0  0  0
  127.1970  127.4040   62.4380 H   0  0  0  0  0  0  0  0  0  0  0  0
  127.4020  124.5470   62.2460 H   0  0  0  0  0  0  0  0  0  0  0  0
  126.9668  125.0946   59.3208 H   0  0  0  0  0  0  0  0  0  0  0  0
  127.0001  123.1084   57.5183 H   0  0  0  0  0  0  0  0  0  0  0  0
  127.4455  127.1554   69.8473 H   0  0  0  0  0  0  0  0  0  0  0  0
  127.8637  127.3393   72.2871 H   0  0  0  0  0  0  0  0  0  0  0  0
  1  2  1  0
  2  3  1  0
  3  4  2  0
  4  5  1  0
  5  6  2  0
  6  7  1  0
  7  8  2  0
  8  9  1  0
  9 10  1  0
 10 11  2  0
 11 12  1  0
 12 13  2  0
 13 14  1  0
 14 15  1  0
 13 16  1  0
 16 17  2  0
  9 18  2  0
 18 19  1  0
 19 20  1  0
 19 21  2  0
 21 22  1  0
 22 23  2  0
 22 24  1  0
 24 25  1  0
 25 26  1  0
 26 27  2  0
 27 28  1  0
 28 29  1  0
 21 30  1  0
 30 31  1  0
 31 32  2  0
  6 33  1  0
 33 34  2  0
 34  3  1  0
 32  7  1  0
 17 10  1  0
 31 18  1  0
 29 25  2  0
  1 35  1  0
  1 36  1  0
  1 37  1  0
  4 38  1  0
  5 39  1  0
  8 40  1  0
 11 41  1  0
 12 42  1  0
 15 43  1  0
 15 44  1  0
 15 45  1  0
 16 46  1  0
 17 47  1  0
 20 48  1  0
 20 49  1  0
 24 50  1  0
 26 51  1  0
 27 52  1  0
 33 53  1  0
 34 54  1  0
M  END
>  <Binding energies>  (1) 
[-7.46]

>  <Ligand effiencies>  (1) 
[-0.20162162162162162]

>  <Interactions>  (1) 
["V-B:GLU:543:CD:9880, H-A:GLU:543:OE1:4909, V-B:GLU:543:CG:9879, V-A:GLU:543:CD:4908, V-A:HIS:456:CE1:4070, H-B:GLU:543:OE2:9882, V-B:TYR:539:C:9839, H-B:GLU:543:OE1:9881, V-B:PRO:540:CA:9855, V-B:PRO:540:CB:9857, V-B:PRO:540:N:9856, V-A:GLU:543:C:4902, V-A:HIS:456:CD2:4068, V-B:GLU:543:CB:9878, V-A:GLY:544:C:4912, V-A:GLU:543:CB:4906, V-B:HIS:456:CD2:9039, V-B:HIS:456:CE1:9041, V-A:GLU:543:CG:4907, H-B:TYR:484:OH:9319, V-B:GLY:454:CA:9020, H-A:LYS:547:NZ:4951, V-A:GLY:544:CA:4914"]

$$$$
8c_Ghoteimi_2023
     RDKit          3D

 54 58  0  0  0  0  0  0  0  0999 V2000
  126.8350  128.7740   74.8140 C   0  0  0  0  0  0  0  0  0  0  0  0
  127.9360  128.0020   74.3500 O   0  0  0  0  0  0  0  0  0  0  0  0
  128.1750  127.9170   72.9920 C   0  0  0  0  0  0  0  0  0  0  0  0
  127.2580  127.1850   72.2420 C   0  0  0  0  0  0  0  0  0  0  0  0
  127.4200  127.0440   70.8670 C   0  0  0  0  0  0  0  0  0  0  0  0
  128.5070  127.6340   70.2050 C   0  0  0  0  0  0  0  0  0  0  0  0
  128.6890  127.4830   68.7280 C   0  0  0  0  0  0  0  0  0  0  0  0
  128.0860  128.3560   67.8180 C   0  0  0  0  0  0  0  0  0  0  0  0
  128.2750  128.1940   66.4410 C   0  0  0  0  0  0  0  0  0  0  0  0
  127.6140  129.1310   65.5030 C   0  0  0  0  0  0  0  0  0  0  0  0
  126.2220  129.1500   65.3910 C   0  0  0  0  0  0  0  0  0  0  0  0
  125.6030  130.0370   64.5170 C   0  0  0  0  0  0  0  0  0  0  0  0
  126.3610  130.9150   63.7410 C   0  0  0  0  0  0  0  0  0  0  0  0
  125.6610  131.7610   62.9030 O   0  0  0  0  0  0  0  0  0  0  0  0
  124.3910  131.3540   62.4080 C   0  0  0  0  0  0  0  0  0  0  0  0
  127.7600  130.8910   63.8510 C   0  0  0  0  0  0  0  0  0  0  0  0
  128.3790  130.0040   64.7270 C   0  0  0  0  0  0  0  0  0  0  0  0
  129.0990  127.1250   66.0010 C   0  0  0  0  0  0  0  0  0  0  0  0
  129.5020  126.6780   64.6940 C   0  0  0  0  0  0  0  0  0  0  0  0
  129.0930  127.3050   63.5440 N   0  0  0  0  0  0  0  0  0  0  0  0
  130.3430  125.5530   64.7110 C   0  0  0  0  0  0  0  0  0  0  0  0
  130.9400  124.8430   63.5770 C   0  0  0  0  0  0  0  0  0  0  0  0
  130.6180  125.1200   62.4200 O   0  0  0  0  0  0  0  0  0  0  0  0
  131.8430  123.8860   63.9020 N   0  0  0  0  0  0  0  0  0  0  0  0
  132.5500  123.0750   63.0260 C   0  0  0  0  0  0  0  0  0  0  0  0
  133.8510  122.8850   62.9720 N   0  0  0  0  0  0  0  0  0  0  0  0
  134.1780  122.0420   62.0130 C   0  0  0  0  0  0  0  0  0  0  0  0
  133.1280  121.5280   61.2600 C   0  0  0  0  0  0  0  0  0  0  0  0
  131.6330  122.1910   61.8490 S   0  0  0  0  0  0  0  0  0  0  0  0
  130.6600  125.0210   66.3630 S   0  0  0  0  0  0  0  0  0  0  0  0
  129.6660  126.3020   67.0170 C   0  0  0  0  0  0  0  0  0  0  0  0
  129.4850  126.4540   68.3280 N   0  0  0  0  0  0  0  0  0  0  0  0
  129.4240  128.3720   70.9660 C   0  0  0  0  0  0  0  0  0  0  0  0
  129.2650  128.5130   72.3410 C   0  0  0  0  0  0  0  0  0  0  0  0
  126.8282  128.7788   75.9140 H   0  0  0  0  0  0  0  0  0  0  0  0
  126.9283  129.8055   74.4434 H   0  0  0  0  0  0  0  0  0  0  0  0
  125.8971  128.3347   74.4434 H   0  0  0  0  0  0  0  0  0  0  0  0
  126.3981  126.7141   72.7408 H   0  0  0  0  0  0  0  0  0  0  0  0
  126.6855  126.4618   70.2912 H   0  0  0  0  0  0  0  0  0  0  0  0
  127.4565  129.1787   68.1881 H   0  0  0  0  0  0  0  0  0  0  0  0
  125.6136  128.4614   65.9958 H   0  0  0  0  0  0  0  0  0  0  0  0
  124.5060  130.0467   64.4366 H   0  0  0  0  0  0  0  0  0  0  0  0
  123.7200  131.1390   63.2527 H   0  0  0  0  0  0  0  0  0  0  0  0
  123.9614  132.1595   61.7943 H   0  0  0  0  0  0  0  0  0  0  0  0
  124.5096  130.4489   61.7943 H   0  0  0  0  0  0  0  0  0  0  0  0
  128.3694  131.5756   63.2428 H   0  0  0  0  0  0  0  0  0  0  0  0
  129.4759  129.9907   64.8083 H   0  0  0  0  0  0  0  0  0  0  0  0
  129.7030  127.9360   63.0420 H   0  0  0  0  0  0  0  0  0  0  0  0
  128.1700  127.1610   63.1590 H   0  0  0  0  0  0  0  0  0  0  0  0
  132.0330  123.7420   64.8840 H   0  0  0  0  0  0  0  0  0  0  0  0
  135.2236  121.7606   61.8190 H   0  0  0  0  0  0  0  0  0  0  0  0
  133.2274  120.8170   60.4266 H   0  0  0  0  0  0  0  0  0  0  0  0
  130.2825  128.8469   70.4685 H   0  0  0  0  0  0  0  0  0  0  0  0
  129.9974  129.0945   72.9201 H   0  0  0  0  0  0  0  0  0  0  0  0
  1  2  1  0
  2  3  1  0
  3  4  2  0
  4  5  1  0
  5  6  2  0
  6  7  1  0
  7  8  2  0
  8  9  1  0
  9 10  1  0
 10 11  2  0
 11 12  1  0
 12 13  2  0
 13 14  1  0
 14 15  1  0
 13 16  1  0
 16 17  2  0
  9 18  2  0
 18 19  1  0
 19 20  1  0
 19 21  2  0
 21 22  1  0
 22 23  2  0
 22 24  1  0
 24 25  1  0
 25 26  2  0
 26 27  1  0
 27 28  2  0
 28 29  1  0
 21 30  1  0
 30 31  1  0
 31 32  2  0
  6 33  1  0
 33 34  2  0
 34  3  1  0
 32  7  1  0
 17 10  1  0
 31 18  1  0
 29 25  1  0
  1 35  1  0
  1 36  1  0
  1 37  1  0
  4 38  1  0
  5 39  1  0
  8 40  1  0
 11 41  1  0
 12 42  1  0
 15 43  1  0
 15 44  1  0
 15 45  1  0
 16 46  1  0
 17 47  1  0
 20 48  1  0
 20 49  1  0
 24 50  1  0
 27 51  1  0
 28 52  1  0
 33 53  1  0
 34 54  1  0
M  END
>  <Binding energies>  (1) 
[-7.59]

>  <Ligand effiencies>  (1) 
[-0.20513513513513512]

>  <Interactions>  (1) 
["V-A:ILE:369:CG2:3237, V-A:ILE:369:CD1:3239, V-B:GLU:543:CD:9880, H-A:GLY:454:N:4050, H-A:GLU:543:OE1:4909, H-A:TYR:484:OH:4348, V-B:GLU:543:CG:9879, V-A:GLU:543:CD:4908, H-A:GLU:543:OE2:4910, V-A:LEU:475:CD2:4259, V-A:HIS:456:CE1:4070, V-A:GLY:454:CA:4049, H-B:GLU:543:OE2:9882, H-B:GLU:543:OE1:9881, V-A:TYR:484:CE2:4346, V-A:GLU:543:C:4902, V-B:GLU:543:C:9874, V-A:TYR:484:CZ:4347, V-B:GLU:543:CB:9878, V-A:GLU:543:CB:4906, V-B:HIS:456:CD2:9039, V-B:HIS:456:CE1:9041, V-B:GLY:544:C:9884, V-B:GLY:544:CA:9886, V-A:GLU:543:CG:4907, V-B:LYS:547:CE:9922, V-B:HIS:456:CG:9037, V-A:SER:385:C:3405, H-B:LYS:547:NZ:9923, V-B:HIS:456:CB:9036"]

$$$$
8d_Ghoteimi_2023
     RDKit          3D

 50 53  0  0  0  0  0  0  0  0999 V2000
  132.9930  124.9880   64.7260 C   0  0  0  0  0  0  0  0  0  0  0  0
  132.3630  123.7390   64.4780 O   0  0  0  0  0  0  0  0  0  0  0  0
  131.0550  123.5450   64.7890 C   0  0  0  0  0  0  0  0  0  0  0  0
  130.5310  122.4350   64.9030 O   0  0  0  0  0  0  0  0  0  0  0  0
  130.3140  124.8110   64.9780 C   0  0  0  0  0  0  0  0  0  0  0  0
  129.8240  125.7620   63.5750 S   0  0  0  0  0  0  0  0  0  0  0  0
  129.0850  126.9690   64.6020 C   0  0  0  0  0  0  0  0  0  0  0  0
  128.4840  128.0480   64.0990 N   0  0  0  0  0  0  0  0  0  0  0  0
  127.9400  128.9230   64.9870 C   0  0  0  0  0  0  0  0  0  0  0  0
  127.2750  130.1260   64.3970 C   0  0  0  0  0  0  0  0  0  0  0  0
  128.0050  131.2880   64.1060 C   0  0  0  0  0  0  0  0  0  0  0  0
  127.3830  132.4050   63.5590 C   0  0  0  0  0  0  0  0  0  0  0  0
  126.0150  132.3930   63.2880 C   0  0  0  0  0  0  0  0  0  0  0  0
  125.4820  133.5450   62.7440 O   0  0  0  0  0  0  0  0  0  0  0  0
  124.1270  133.5440   62.3050 C   0  0  0  0  0  0  0  0  0  0  0  0
  125.2750  131.2360   63.5730 C   0  0  0  0  0  0  0  0  0  0  0  0
  125.9030  130.1200   64.1200 C   0  0  0  0  0  0  0  0  0  0  0  0
  128.0050  128.7210   66.3690 C   0  0  0  0  0  0  0  0  0  0  0  0
  128.6330  127.5880   66.8950 C   0  0  0  0  0  0  0  0  0  0  0  0
  128.6780  127.3990   68.3640 C   0  0  0  0  0  0  0  0  0  0  0  0
  129.8810  127.5570   69.0560 C   0  0  0  0  0  0  0  0  0  0  0  0
  129.9250  127.3700   70.4340 C   0  0  0  0  0  0  0  0  0  0  0  0
  128.7710  127.0280   71.1410 C   0  0  0  0  0  0  0  0  0  0  0  0
  128.9100  126.8630   72.5050 O   0  0  0  0  0  0  0  0  0  0  0  0
  130.1580  127.1650   73.1180 C   0  0  0  0  0  0  0  0  0  0  0  0
  127.5620  126.8750   70.4430 C   0  0  0  0  0  0  0  0  0  0  0  0
  127.5200  127.0610   69.0640 C   0  0  0  0  0  0  0  0  0  0  0  0
  129.2050  126.6600   65.9860 C   0  0  0  0  0  0  0  0  0  0  0  0
  129.9120  125.4220   66.1710 C   0  0  0  0  0  0  0  0  0  0  0  0
  130.1700  124.8970   67.4120 N   0  0  0  0  0  0  0  0  0  0  0  0
  133.0741  125.1487   65.8112 H   0  0  0  0  0  0  0  0  0  0  0  0
  133.9983  124.9867   64.2794 H   0  0  0  0  0  0  0  0  0  0  0  0
  132.3945  125.7957   64.2794 H   0  0  0  0  0  0  0  0  0  0  0  0
  129.0849  131.3160   64.3135 H   0  0  0  0  0  0  0  0  0  0  0  0
  127.9749  133.3055   63.3382 H   0  0  0  0  0  0  0  0  0  0  0  0
  123.4585  133.5435   63.1786 H   0  0  0  0  0  0  0  0  0  0  0  0
  123.9373  134.4420   61.6987 H   0  0  0  0  0  0  0  0  0  0  0  0
  123.9387  132.6457   61.6987 H   0  0  0  0  0  0  0  0  0  0  0  0
  124.1954  131.2102   63.3638 H   0  0  0  0  0  0  0  0  0  0  0  0
  125.3111  129.2188   64.3380 H   0  0  0  0  0  0  0  0  0  0  0  0
  127.5576  129.4608   67.0491 H   0  0  0  0  0  0  0  0  0  0  0  0
  130.7961  127.8300   68.5100 H   0  0  0  0  0  0  0  0  0  0  0  0
  130.8772  127.4927   70.9709 H   0  0  0  0  0  0  0  0  0  0  0  0
  130.0453  127.1377   74.2119 H   0  0  0  0  0  0  0  0  0  0  0  0
  130.9080  126.4224   72.8080 H   0  0  0  0  0  0  0  0  0  0  0  0
  130.4855  128.1683   72.8080 H   0  0  0  0  0  0  0  0  0  0  0  0
  126.6448  126.6072   70.9880 H   0  0  0  0  0  0  0  0  0  0  0  0
  126.5692  126.9408   68.5240 H   0  0  0  0  0  0  0  0  0  0  0  0
  130.9850  124.3240   67.5830 H   0  0  0  0  0  0  0  0  0  0  0  0
  129.5600  125.0680   68.1980 H   0  0  0  0  0  0  0  0  0  0  0  0
  1  2  1  0
  2  3  1  0
  3  4  2  0
  3  5  1  0
  5  6  1  0
  6  7  1  0
  7  8  2  0
  8  9  1  0
  9 10  1  0
 10 11  2  0
 11 12  1  0
 12 13  2  0
 13 14  1  0
 14 15  1  0
 13 16  1  0
 16 17  2  0
  9 18  2  0
 18 19  1  0
 19 20  1  0
 20 21  2  0
 21 22  1  0
 22 23  2  0
 23 24  1  0
 24 25  1  0
 23 26  1  0
 26 27  2  0
 19 28  2  0
 28 29  1  0
 29 30  1  0
 29  5  2  0
 28  7  1  0
 17 10  1  0
 27 20  1  0
  1 31  1  0
  1 32  1  0
  1 33  1  0
 11 34  1  0
 12 35  1  0
 15 36  1  0
 15 37  1  0
 15 38  1  0
 16 39  1  0
 17 40  1  0
 18 41  1  0
 21 42  1  0
 22 43  1  0
 25 44  1  0
 25 45  1  0
 25 46  1  0
 26 47  1  0
 27 48  1  0
 30 49  1  0
 30 50  1  0
M  END
>  <Binding energies>  (1) 
[-6.53]

>  <Ligand effiencies>  (1) 
[-0.2040625]

>  <Interactions>  (1) 
["V-B:GLU:543:CD:9880, H-A:TYR:484:OH:4348, V-B:GLU:543:CG:9879, V-A:GLU:543:CD:4908, V-A:ARG:545:CZ:4926, V-A:HIS:456:CE1:4070, V-A:TYR:484:CE2:4346, V-B:GLU:543:C:9874, V-A:HIS:456:CD2:4068, V-B:GLU:543:CA:9876, V-A:TYR:484:CZ:4347, V-B:GLU:543:CB:9878, V-A:GLU:543:CB:4906, V-B:HIS:456:CE1:9041, V-B:GLY:544:C:9884, V-A:GLU:543:CG:4907, V-B:GLY:454:CA:9020, V-B:LEU:475:CD2:9230, H-B:LYS:547:NZ:9923, H-A:HIS:456:NE2:4071, H-B:GLU:543:O:9875"]

$$$$
9a_Ghoteimi_2023
     RDKit          3D

 85 91  0  0  0  0  0  0  0  0999 V2000
  127.4810  131.1080   74.6170 C   0  0  0  0  0  0  0  0  0  0  0  0
  128.9760  131.3740   74.4090 C   0  0  0  0  0  0  0  0  0  0  0  0
  129.5990  130.2020   73.8960 O   0  0  0  0  0  0  0  0  0  0  0  0
  128.8720  129.0940   73.6000 C   0  0  0  0  0  0  0  0  0  0  0  0
  128.0660  128.5810   74.3830 O   0  0  0  0  0  0  0  0  0  0  0  0
  129.1490  128.5500   72.2290 C   0  0  0  0  0  0  0  0  0  0  0  0
  128.4540  127.4160   71.7880 C   0  0  0  0  0  0  0  0  0  0  0  0
  128.6900  126.8860   70.5230 C   0  0  0  0  0  0  0  0  0  0  0  0
  129.6230  127.4780   69.6720 C   0  0  0  0  0  0  0  0  0  0  0  0
  129.7800  126.8570   68.4170 N   0  0  0  0  0  0  0  0  0  0  0  0
  129.3160  125.6660   67.9620 C   0  0  0  0  0  0  0  0  0  0  0  0
  128.6340  124.8890   68.6300 O   0  0  0  0  0  0  0  0  0  0  0  0
  129.6760  125.3410   66.5790 C   0  0  0  0  0  0  0  0  0  0  0  0
  130.5400  123.8480   66.2110 S   0  0  0  0  0  0  0  0  0  0  0  0
  130.5470  124.2200   64.5030 C   0  0  0  0  0  0  0  0  0  0  0  0
  131.0860  123.3910   63.6090 N   0  0  0  0  0  0  0  0  0  0  0  0
  131.0290  123.7680   62.3050 C   0  0  0  0  0  0  0  0  0  0  0  0
  131.6300  122.8190   61.3200 C   0  0  0  0  0  0  0  0  0  0  0  0
  132.2480  123.2950   60.1580 C   0  0  0  0  0  0  0  0  0  0  0  0
  132.8120  122.4180   59.2360 C   0  0  0  0  0  0  0  0  0  0  0  0
  132.7900  121.0300   59.4470 C   0  0  0  0  0  0  0  0  0  0  0  0
  133.3350  120.1360   58.5210 N   0  0  0  0  0  0  0  0  0  0  0  0
  133.0470  118.6880   58.5830 C   0  0  0  0  0  0  0  0  0  0  0  0
  134.0010  117.8260   57.7300 C   0  0  0  0  0  0  0  0  0  0  0  0
  134.0050  118.2870   56.3890 O   0  0  0  0  0  0  0  0  0  0  0  0
  134.4410  119.6340   56.3030 C   0  0  0  0  0  0  0  0  0  0  0  0
  133.4960  120.5470   57.1100 C   0  0  0  0  0  0  0  0  0  0  0  0
  132.1570  120.5570   60.6060 C   0  0  0  0  0  0  0  0  0  0  0  0
  131.5910  121.4350   61.5260 C   0  0  0  0  0  0  0  0  0  0  0  0
  130.4600  124.9790   61.9030 C   0  0  0  0  0  0  0  0  0  0  0  0
  129.9110  125.8610   62.8400 C   0  0  0  0  0  0  0  0  0  0  0  0
  129.3510  127.1520   62.3620 C   0  0  0  0  0  0  0  0  0  0  0  0
  129.1530  128.2130   63.2490 C   0  0  0  0  0  0  0  0  0  0  0  0
  128.6410  129.4250   62.7970 C   0  0  0  0  0  0  0  0  0  0  0  0
  128.3320  129.6170   61.4410 C   0  0  0  0  0  0  0  0  0  0  0  0
  127.8070  130.8210   60.9660 N   0  0  0  0  0  0  0  0  0  0  0  0
  128.3270  131.3840   59.7030 C   0  0  0  0  0  0  0  0  0  0  0  0
  127.4210  132.4820   59.1060 C   0  0  0  0  0  0  0  0  0  0  0  0
  127.2020  133.5060   60.0650 O   0  0  0  0  0  0  0  0  0  0  0  0
  126.5700  133.0050   61.2320 C   0  0  0  0  0  0  0  0  0  0  0  0
  127.4520  131.9200   61.8850 C   0  0  0  0  0  0  0  0  0  0  0  0
  128.5380  128.5460   60.5590 C   0  0  0  0  0  0  0  0  0  0  0  0
  129.0450  127.3320   61.0120 C   0  0  0  0  0  0  0  0  0  0  0  0
  129.9270  125.4700   64.2090 C   0  0  0  0  0  0  0  0  0  0  0  0
  129.4170  126.0780   65.4130 C   0  0  0  0  0  0  0  0  0  0  0  0
  128.7290  127.2640   65.4050 N   0  0  0  0  0  0  0  0  0  0  0  0
  130.3230  128.6160   70.1030 C   0  0  0  0  0  0  0  0  0  0  0  0
  130.0860  129.1440   71.3690 C   0  0  0  0  0  0  0  0  0  0  0  0
  127.2619  131.0690   75.6943 H   0  0  0  0  0  0  0  0  0  0  0  0
  126.8967  131.9163   74.1530 H   0  0  0  0  0  0  0  0  0  0  0  0
  127.2114  130.1478   74.1530 H   0  0  0  0  0  0  0  0  0  0  0  0
  129.1056  132.2007   73.6950 H   0  0  0  0  0  0  0  0  0  0  0  0
  129.4378  131.6442   75.3701 H   0  0  0  0  0  0  0  0  0  0  0  0
  127.7143  126.9398   72.4484 H   0  0  0  0  0  0  0  0  0  0  0  0
  128.1371  125.9944   70.1922 H   0  0  0  0  0  0  0  0  0  0  0  0
  130.3240  127.3950   67.7590 H   0  0  0  0  0  0  0  0  0  0  0  0
  132.2886  124.3782   59.9706 H   0  0  0  0  0  0  0  0  0  0  0  0
  133.2830  122.8191   58.3265 H   0  0  0  0  0  0  0  0  0  0  0  0
  133.1289  118.3627   59.6306 H   0  0  0  0  0  0  0  0  0  0  0  0
  132.0353  118.5449   58.1755 H   0  0  0  0  0  0  0  0  0  0  0  0
  135.0189  117.8939   58.1413 H   0  0  0  0  0  0  0  0  0  0  0  0
  133.6584  116.7809   57.7509 H   0  0  0  0  0  0  0  0  0  0  0  0
  135.4599  119.7137   56.7099 H   0  0  0  0  0  0  0  0  0  0  0  0
  134.4343  119.9490   55.2491 H   0  0  0  0  0  0  0  0  0  0  0  0
  133.9003  121.5698   57.0901 H   0  0  0  0  0  0  0  0  0  0  0  0
  132.5038  120.4790   56.6399 H   0  0  0  0  0  0  0  0  0  0  0  0
  132.1070  119.4738   60.7910 H   0  0  0  0  0  0  0  0  0  0  0  0
  131.1057  121.0352   62.4286 H   0  0  0  0  0  0  0  0  0  0  0  0
  130.4434  125.2426   60.8352 H   0  0  0  0  0  0  0  0  0  0  0  0
  129.4038  128.0892   64.3128 H   0  0  0  0  0  0  0  0  0  0  0  0
  128.4759  130.2444   63.5121 H   0  0  0  0  0  0  0  0  0  0  0  0
  129.3196  131.8170   59.8961 H   0  0  0  0  0  0  0  0  0  0  0  0
  128.3685  130.5626   58.9725 H   0  0  0  0  0  0  0  0  0  0  0  0
  127.9072  132.9125   58.2181 H   0  0  0  0  0  0  0  0  0  0  0  0
  126.4545  132.0387   58.8243 H   0  0  0  0  0  0  0  0  0  0  0  0
  126.4170  133.8282   61.9454 H   0  0  0  0  0  0  0  0  0  0  0  0
  125.6002  132.5648   60.9569 H   0  0  0  0  0  0  0  0  0  0  0  0
  128.3804  132.3920   62.2390 H   0  0  0  0  0  0  0  0  0  0  0  0
  126.8692  131.4797   62.7075 H   0  0  0  0  0  0  0  0  0  0  0  0
  128.2951  128.6677   59.4931 H   0  0  0  0  0  0  0  0  0  0  0  0
  129.2058  126.5081   60.3011 H   0  0  0  0  0  0  0  0  0  0  0  0
  129.1980  128.1530   65.3010 H   0  0  0  0  0  0  0  0  0  0  0  0
  127.7230  127.2890   65.5050 H   0  0  0  0  0  0  0  0  0  0  0  0
  131.0601  129.0913   69.4391 H   0  0  0  0  0  0  0  0  0  0  0  0
  130.6387  130.0360   71.6989 H   0  0  0  0  0  0  0  0  0  0  0  0
  1  2  1  0
  2  3  1  0
  3  4  1  0
  4  5  2  0
  4  6  1  0
  6  7  2  0
  7  8  1  0
  8  9  2  0
  9 10  1  0
 10 11  1  0
 11 12  2  0
 11 13  1  0
 13 14  1  0
 14 15  1  0
 15 16  2  0
 16 17  1  0
 17 18  1  0
 18 19  2  0
 19 20  1  0
 20 21  2  0
 21 22  1  0
 22 23  1  0
 23 24  1  0
 24 25  1  0
 25 26  1  0
 26 27  1  0
 21 28  1  0
 28 29  2  0
 17 30  2  0
 30 31  1  0
 31 32  1  0
 32 33  2  0
 33 34  1  0
 34 35  2  0
 35 36  1  0
 36 37  1  0
 37 38  1  0
 38 39  1  0
 39 40  1  0
 40 41  1  0
 35 42  1  0
 42 43  2  0
 31 44  2  0
 44 45  1  0
 45 46  1  0
  9 47  1  0
 47 48  2  0
 48  6  1  0
 45 13  2  0
 44 15  1  0
 29 18  1  0
 43 32  1  0
 27 22  1  0
 41 36  1  0
  1 49  1  0
  1 50  1  0
  1 51  1  0
  2 52  1  0
  2 53  1  0
  7 54  1  0
  8 55  1  0
 10 56  1  0
 19 57  1  0
 20 58  1  0
 23 59  1  0
 23 60  1  0
 24 61  1  0
 24 62  1  0
 26 63  1  0
 26 64  1  0
 27 65  1  0
 27 66  1  0
 28 67  1  0
 29 68  1  0
 30 69  1  0
 33 70  1  0
 34 71  1  0
 37 72  1  0
 37 73  1  0
 38 74  1  0
 38 75  1  0
 40 76  1  0
 40 77  1  0
 41 78  1  0
 41 79  1  0
 42 80  1  0
 43 81  1  0
 46 82  1  0
 46 83  1  0
 47 84  1  0
 48 85  1  0
M  END
>  <Binding energies>  (1) 
[9.21]

>  <Ligand effiencies>  (1) 
[0.18058823529411766]

>  <Interactions>  (1) 
["V-A:ILE:369:CG2:3237, V-B:GLU:543:CD:9880, H-A:GLU:543:OE1:4909, V-B:GLU:543:CG:9879, V-A:ILE:369:CB:3236, V-A:GLU:543:CD:4908, H-A:GLU:543:OE2:4910, V-A:LEU:475:CD2:4259, V-A:HIS:456:CE1:4070, H-B:GLU:543:OE2:9882, H-B:GLU:543:OE1:9881, V-B:TYR:539:CZ:9849, V-B:TYR:539:CE2:9848, V-B:TYR:539:CE1:9847, V-B:TYR:539:CD2:9846, V-B:TYR:539:CG:9844, V-A:TYR:484:CE2:4346, V-A:GLU:543:C:4902, V-B:GLU:543:C:9874, V-B:GLU:543:CA:9876, V-A:TYR:484:CZ:4347, V-B:GLU:543:CB:9878, V-A:GLY:544:C:4912, V-A:GLU:543:CB:4906, V-B:HIS:456:CD2:9039, V-B:HIS:456:CE1:9041, V-A:HIS:383:NE2:3394, V-B:HIS:456:CG:9037, V-A:TYR:539:CE1:4875, V-A:TYR:539:CD1:4873, V-A:GLU:543:CA:4904, H-A:LYS:547:NZ:4951, H-B:LYS:547:NZ:9923, V-A:GLY:544:CA:4914, V-B:HIS:456:CB:9036, V-A:LYS:547:CE:4950, V-A:HIS:383:CD2:3392, V-A:LEU:373:CD1:3280, V-A:ASN:370:CA:3243, V-A:ILE:369:CA:3234, V-A:ILE:369:C:3232, V-A:VAL:384:C:3397, V-A:LEU:373:CG:3279, V-A:LEU:373:CD2:3281, V-A:HIS:383:CG:3390, V-A:HIS:383:CB:3389"]

$$$$
9b_Ghoteimi_2023
     RDKit          3D

 72 78  0  0  0  0  0  0  0  0999 V2000
  128.8690  127.1930   61.9160 N   0  0  0  0  0  0  0  0  0  0  0  0
  128.3980  127.9270   62.9750 C   0  0  0  0  0  0  0  0  0  0  0  0
  127.6440  129.1020   62.8280 C   0  0  0  0  0  0  0  0  0  0  0  0
  127.1990  129.7530   61.5930 C   0  0  0  0  0  0  0  0  0  0  0  0
  127.9990  130.3620   60.8790 O   0  0  0  0  0  0  0  0  0  0  0  0
  125.8760  129.6370   61.3180 N   0  0  0  0  0  0  0  0  0  0  0  0
  125.1880  130.1610   60.2310 C   0  0  0  0  0  0  0  0  0  0  0  0
  125.3870  129.7240   58.9220 C   0  0  0  0  0  0  0  0  0  0  0  0
  124.5270  130.4790   58.1580 C   0  0  0  0  0  0  0  0  0  0  0  0
  123.8460  131.3260   58.9660 O   0  0  0  0  0  0  0  0  0  0  0  0
  124.2730  131.1150   60.2770 N   0  0  0  0  0  0  0  0  0  0  0  0
  127.2360  129.7980   64.3960 S   0  0  0  0  0  0  0  0  0  0  0  0
  128.0890  128.5250   65.2350 C   0  0  0  0  0  0  0  0  0  0  0  0
  128.1770  128.5010   66.5630 N   0  0  0  0  0  0  0  0  0  0  0  0
  128.8780  127.4770   67.1170 C   0  0  0  0  0  0  0  0  0  0  0  0
  128.9790  127.4850   68.6080 C   0  0  0  0  0  0  0  0  0  0  0  0
  127.9300  127.0140   69.4070 C   0  0  0  0  0  0  0  0  0  0  0  0
  128.0230  127.0370   70.7950 C   0  0  0  0  0  0  0  0  0  0  0  0
  129.1630  127.5460   71.4360 C   0  0  0  0  0  0  0  0  0  0  0  0
  129.2730  127.5730   72.8310 N   0  0  0  0  0  0  0  0  0  0  0  0
  129.9880  126.5110   73.5670 C   0  0  0  0  0  0  0  0  0  0  0  0
  130.3070  126.8750   75.0320 C   0  0  0  0  0  0  0  0  0  0  0  0
  129.1190  127.2490   75.7090 O   0  0  0  0  0  0  0  0  0  0  0  0
  128.5110  128.3810   75.1070 C   0  0  0  0  0  0  0  0  0  0  0  0
  128.1390  128.0670   73.6410 C   0  0  0  0  0  0  0  0  0  0  0  0
  130.2180  127.9980   70.6310 C   0  0  0  0  0  0  0  0  0  0  0  0
  130.1270  127.9700   69.2420 C   0  0  0  0  0  0  0  0  0  0  0  0
  129.4640  126.4700   66.3450 C   0  0  0  0  0  0  0  0  0  0  0  0
  129.3570  126.4810   64.9490 C   0  0  0  0  0  0  0  0  0  0  0  0
  129.9720  125.3720   64.1760 C   0  0  0  0  0  0  0  0  0  0  0  0
  131.3530  125.1750   64.2030 C   0  0  0  0  0  0  0  0  0  0  0  0
  131.9300  124.1250   63.4960 C   0  0  0  0  0  0  0  0  0  0  0  0
  131.1420  123.2430   62.7400 C   0  0  0  0  0  0  0  0  0  0  0  0
  131.6990  122.1730   62.0350 N   0  0  0  0  0  0  0  0  0  0  0  0
  130.8390  121.3680   61.1470 C   0  0  0  0  0  0  0  0  0  0  0  0
  131.4670  120.0130   60.7570 C   0  0  0  0  0  0  0  0  0  0  0  0
  132.7420  120.2210   60.1680 O   0  0  0  0  0  0  0  0  0  0  0  0
  133.6310  120.8780   61.0580 C   0  0  0  0  0  0  0  0  0  0  0  0
  133.0570  122.2530   61.4600 C   0  0  0  0  0  0  0  0  0  0  0  0
  129.7530  123.4400   62.7360 C   0  0  0  0  0  0  0  0  0  0  0  0
  129.1760  124.4900   63.4440 C   0  0  0  0  0  0  0  0  0  0  0  0
  128.6560  127.5630   64.3460 C   0  0  0  0  0  0  0  0  0  0  0  0
  129.8450  127.2000   61.6550 H   0  0  0  0  0  0  0  0  0  0  0  0
  128.2530  126.6180   61.3580 H   0  0  0  0  0  0  0  0  0  0  0  0
  125.3170  129.1070   61.9700 H   0  0  0  0  0  0  0  0  0  0  0  0
  126.0812  128.9444   58.5751 H   0  0  0  0  0  0  0  0  0  0  0  0
  124.4113  130.4063   57.0665 H   0  0  0  0  0  0  0  0  0  0  0  0
  127.0199  126.6204   68.9308 H   0  0  0  0  0  0  0  0  0  0  0  0
  127.1896  126.6500   71.3997 H   0  0  0  0  0  0  0  0  0  0  0  0
  129.3636  125.6054   73.5628 H   0  0  0  0  0  0  0  0  0  0  0  0
  130.9511  126.3608   73.0573 H   0  0  0  0  0  0  0  0  0  0  0  0
  130.7538  126.0045   75.5345 H   0  0  0  0  0  0  0  0  0  0  0  0
  131.0127  127.7187   75.0487 H   0  0  0  0  0  0  0  0  0  0  0  0
  127.6004  128.6447   75.6649 H   0  0  0  0  0  0  0  0  0  0  0  0
  129.2188  129.2228   75.1264 H   0  0  0  0  0  0  0  0  0  0  0  0
  127.3513  127.2992   73.6398 H   0  0  0  0  0  0  0  0  0  0  0  0
  127.8067  129.0113   73.1852 H   0  0  0  0  0  0  0  0  0  0  0  0
  131.1336  128.3814   71.1050 H   0  0  0  0  0  0  0  0  0  0  0  0
  130.9693  128.3342   68.6354 H   0  0  0  0  0  0  0  0  0  0  0  0
  130.0165  125.6582   66.8407 H   0  0  0  0  0  0  0  0  0  0  0  0
  131.9902  125.8549   64.7876 H   0  0  0  0  0  0  0  0  0  0  0  0
  133.0204  123.9838   63.5299 H   0  0  0  0  0  0  0  0  0  0  0  0
  129.8864  121.1764   61.6625 H   0  0  0  0  0  0  0  0  0  0  0  0
  130.6986  121.9423   60.2194 H   0  0  0  0  0  0  0  0  0  0  0  0
  131.5786  119.3906   61.6571 H   0  0  0  0  0  0  0  0  0  0  0  0
  130.8125  119.5066   60.0324 H   0  0  0  0  0  0  0  0  0  0  0  0
  133.7651  120.2619   61.9593 H   0  0  0  0  0  0  0  0  0  0  0  0
  134.5996  121.0240   60.5576 H   0  0  0  0  0  0  0  0  0  0  0  0
  133.7261  122.7061   62.2063 H   0  0  0  0  0  0  0  0  0  0  0  0
  132.9881  122.8580   60.5439 H   0  0  0  0  0  0  0  0  0  0  0  0
  129.1103  122.7541   62.1646 H   0  0  0  0  0  0  0  0  0  0  0  0
  128.0845  124.6257   63.4265 H   0  0  0  0  0  0  0  0  0  0  0  0
  1  2  1  0
  2  3  2  0
  3  4  1  0
  4  5  2  0
  4  6  1  0
  6  7  1  0
  7  8  1  0
  8  9  2  0
  9 10  1  0
 10 11  1  0
  3 12  1  0
 12 13  1  0
 13 14  2  0
 14 15  1  0
 15 16  1  0
 16 17  2  0
 17 18  1  0
 18 19  2  0
 19 20  1  0
 20 21  1  0
 21 22  1  0
 22 23  1  0
 23 24  1  0
 24 25  1  0
 19 26  1  0
 26 27  2  0
 15 28  2  0
 28 29  1  0
 29 30  1  0
 30 31  2  0
 31 32  1  0
 32 33  2  0
 33 34  1  0
 34 35  1  0
 35 36  1  0
 36 37  1  0
 37 38  1  0
 38 39  1  0
 33 40  1  0
 40 41  2  0
 29 42  2  0
 42  2  1  0
 11  7  2  0
 42 13  1  0
 27 16  1  0
 41 30  1  0
 25 20  1  0
 39 34  1  0
  1 43  1  0
  1 44  1  0
  6 45  1  0
  8 46  1  0
  9 47  1  0
 17 48  1  0
 18 49  1  0
 21 50  1  0
 21 51  1  0
 22 52  1  0
 22 53  1  0
 24 54  1  0
 24 55  1  0
 25 56  1  0
 25 57  1  0
 26 58  1  0
 27 59  1  0
 28 60  1  0
 31 61  1  0
 32 62  1  0
 35 63  1  0
 35 64  1  0
 36 65  1  0
 36 66  1  0
 38 67  1  0
 38 68  1  0
 39 69  1  0
 39 70  1  0
 40 71  1  0
 41 72  1  0
M  END
>  <Binding energies>  (1) 
[-8.75]

>  <Ligand effiencies>  (1) 
[-0.19444444444444445]

>  <Interactions>  (1) 
["V-A:ILE:369:CG2:3237, V-B:GLU:543:CD:9880, H-A:GLU:543:OE1:4909, V-B:GLU:543:CG:9879, V-A:GLU:543:CD:4908, V-A:LEU:475:CD2:4259, V-A:HIS:456:CE1:4070, V-B:ASP:366:CB:8183, H-B:GLU:543:OE1:9881, V-B:ASP:366:CG:8184, H-B:ASP:366:OD1:8185, V-B:TYR:539:CE2:9848, V-B:TYR:539:CD2:9846, V-A:GLU:543:C:4902, V-B:GLU:543:C:9874, V-A:HIS:456:CD2:4068, V-B:GLU:543:CB:9878, V-A:SER:385:CB:3409, V-A:GLU:543:CB:4906, V-B:HIS:456:CD2:9039, V-B:HIS:456:CE1:9041, H-B:ASP:366:OD2:8186, V-A:GLU:543:CG:4907, V-A:SER:385:C:3405, V-A:SER:385:CA:3407, H-A:SER:385:OG:3410, V-B:ASP:366:CA:8181, H-B:LYS:547:NZ:9923"]

$$$$
9c_Ghoteimi_2023
     RDKit          3D

 72 78  0  0  0  0  0  0  0  0999 V2000
  128.9210  127.1820   61.9330 N   0  0  0  0  0  0  0  0  0  0  0  0
  128.4240  127.9060   62.9870 C   0  0  0  0  0  0  0  0  0  0  0  0
  127.6400  129.0600   62.8310 C   0  0  0  0  0  0  0  0  0  0  0  0
  127.1890  129.6970   61.5900 C   0  0  0  0  0  0  0  0  0  0  0  0
  127.9340  130.4520   60.9620 O   0  0  0  0  0  0  0  0  0  0  0  0
  125.9230  129.3990   61.2100 N   0  0  0  0  0  0  0  0  0  0  0  0
  125.2520  129.8760   60.0930 C   0  0  0  0  0  0  0  0  0  0  0  0
  125.4980  129.6110   58.8280 N   0  0  0  0  0  0  0  0  0  0  0  0
  124.6620  130.2450   58.0280 C   0  0  0  0  0  0  0  0  0  0  0  0
  123.7090  131.0500   58.6470 C   0  0  0  0  0  0  0  0  0  0  0  0
  123.9290  130.9630   60.3690 S   0  0  0  0  0  0  0  0  0  0  0  0
  127.2010  129.7480   64.3930 S   0  0  0  0  0  0  0  0  0  0  0  0
  128.0830  128.5010   65.2420 C   0  0  0  0  0  0  0  0  0  0  0  0
  128.1590  128.4820   66.5720 N   0  0  0  0  0  0  0  0  0  0  0  0
  128.8840  127.4790   67.1330 C   0  0  0  0  0  0  0  0  0  0  0  0
  128.9710  127.4930   68.6250 C   0  0  0  0  0  0  0  0  0  0  0  0
  127.9220  127.0120   69.4170 C   0  0  0  0  0  0  0  0  0  0  0  0
  128.0050  127.0370   70.8060 C   0  0  0  0  0  0  0  0  0  0  0  0
  129.1370  127.5570   71.4550 C   0  0  0  0  0  0  0  0  0  0  0  0
  129.2380  127.5820   72.8510 N   0  0  0  0  0  0  0  0  0  0  0  0
  129.9510  126.5190   73.5890 C   0  0  0  0  0  0  0  0  0  0  0  0
  130.2650  126.8830   75.0560 C   0  0  0  0  0  0  0  0  0  0  0  0
  129.0720  127.2540   75.7280 O   0  0  0  0  0  0  0  0  0  0  0  0
  128.4670  128.3850   75.1240 C   0  0  0  0  0  0  0  0  0  0  0  0
  128.1010  128.0720   73.6570 C   0  0  0  0  0  0  0  0  0  0  0  0
  130.1920  128.0190   70.6560 C   0  0  0  0  0  0  0  0  0  0  0  0
  130.1100  127.9900   69.2670 C   0  0  0  0  0  0  0  0  0  0  0  0
  129.5020  126.4860   66.3690 C   0  0  0  0  0  0  0  0  0  0  0  0
  129.4050  126.4900   64.9730 C   0  0  0  0  0  0  0  0  0  0  0  0
  130.0540  125.3970   64.2070 C   0  0  0  0  0  0  0  0  0  0  0  0
  131.4440  125.2790   64.1860 C   0  0  0  0  0  0  0  0  0  0  0  0
  132.0560  124.2450   63.4820 C   0  0  0  0  0  0  0  0  0  0  0  0
  131.2910  123.3010   62.7800 C   0  0  0  0  0  0  0  0  0  0  0  0
  131.8830  122.2470   62.0760 N   0  0  0  0  0  0  0  0  0  0  0  0
  131.0580  121.4460   61.1500 C   0  0  0  0  0  0  0  0  0  0  0  0
  131.7150  120.1070   60.7520 C   0  0  0  0  0  0  0  0  0  0  0  0
  133.0020  120.3420   60.2020 O   0  0  0  0  0  0  0  0  0  0  0  0
  133.8580  120.9930   61.1290 C   0  0  0  0  0  0  0  0  0  0  0  0
  133.2540  122.3530   61.5420 C   0  0  0  0  0  0  0  0  0  0  0  0
  129.8940  123.4160   62.8250 C   0  0  0  0  0  0  0  0  0  0  0  0
  129.2830  124.4500   63.5290 C   0  0  0  0  0  0  0  0  0  0  0  0
  128.6810  127.5520   64.3600 C   0  0  0  0  0  0  0  0  0  0  0  0
  129.8840  127.2640   61.6370 H   0  0  0  0  0  0  0  0  0  0  0  0
  128.3380  126.5400   61.4140 H   0  0  0  0  0  0  0  0  0  0  0  0
  125.4010  128.7610   61.7940 H   0  0  0  0  0  0  0  0  0  0  0  0
  124.7148  130.1435   56.9340 H   0  0  0  0  0  0  0  0  0  0  0  0
  122.9414  131.6446   58.1300 H   0  0  0  0  0  0  0  0  0  0  0  0
  127.0194  126.6086   68.9348 H   0  0  0  0  0  0  0  0  0  0  0  0
  127.1708  126.6432   71.4052 H   0  0  0  0  0  0  0  0  0  0  0  0
  129.3267  125.6134   73.5823 H   0  0  0  0  0  0  0  0  0  0  0  0
  130.9157  126.3687   73.0824 H   0  0  0  0  0  0  0  0  0  0  0  0
  130.7119  126.0133   75.5598 H   0  0  0  0  0  0  0  0  0  0  0  0
  130.9695  127.7275   75.0765 H   0  0  0  0  0  0  0  0  0  0  0  0
  127.5541  128.6486   75.6783 H   0  0  0  0  0  0  0  0  0  0  0  0
  129.1751  129.2265   75.1463 H   0  0  0  0  0  0  0  0  0  0  0  0
  127.3151  127.3024   73.6521 H   0  0  0  0  0  0  0  0  0  0  0  0
  127.7681  129.0161   73.2011 H   0  0  0  0  0  0  0  0  0  0  0  0
  131.1009  128.4115   71.1354 H   0  0  0  0  0  0  0  0  0  0  0  0
  130.9523  128.3630   68.6659 H   0  0  0  0  0  0  0  0  0  0  0  0
  130.0722  125.6907   66.8713 H   0  0  0  0  0  0  0  0  0  0  0  0
  132.0616  126.0088   64.7300 H   0  0  0  0  0  0  0  0  0  0  0  0
  133.1532  124.1672   63.4761 H   0  0  0  0  0  0  0  0  0  0  0  0
  130.0949  121.2317   61.6363 H   0  0  0  0  0  0  0  0  0  0  0  0
  130.9346  122.0355   60.2295 H   0  0  0  0  0  0  0  0  0  0  0  0
  131.8107  119.4692   61.6431 H   0  0  0  0  0  0  0  0  0  0  0  0
  131.0872  119.6063   60.0003 H   0  0  0  0  0  0  0  0  0  0  0  0
  133.9761  120.3609   62.0215 H   0  0  0  0  0  0  0  0  0  0  0  0
  134.8378  121.1615   60.6583 H   0  0  0  0  0  0  0  0  0  0  0  0
  133.8961  122.7992   62.3157 H   0  0  0  0  0  0  0  0  0  0  0  0
  133.2024  122.9742   60.6356 H   0  0  0  0  0  0  0  0  0  0  0  0
  129.2721  122.6786   62.2964 H   0  0  0  0  0  0  0  0  0  0  0  0
  128.1856  124.5217   63.5515 H   0  0  0  0  0  0  0  0  0  0  0  0
  1  2  1  0
  2  3  2  0
  3  4  1  0
  4  5  2  0
  4  6  1  0
  6  7  1  0
  7  8  2  0
  8  9  1  0
  9 10  2  0
 10 11  1  0
  3 12  1  0
 12 13  1  0
 13 14  2  0
 14 15  1  0
 15 16  1  0
 16 17  2  0
 17 18  1  0
 18 19  2  0
 19 20  1  0
 20 21  1  0
 21 22  1  0
 22 23  1  0
 23 24  1  0
 24 25  1  0
 19 26  1  0
 26 27  2  0
 15 28  2  0
 28 29  1  0
 29 30  1  0
 30 31  2  0
 31 32  1  0
 32 33  2  0
 33 34  1  0
 34 35  1  0
 35 36  1  0
 36 37  1  0
 37 38  1  0
 38 39  1  0
 33 40  1  0
 40 41  2  0
 29 42  2  0
 42  2  1  0
 11  7  1  0
 42 13  1  0
 27 16  1  0
 41 30  1  0
 25 20  1  0
 39 34  1  0
  1 43  1  0
  1 44  1  0
  6 45  1  0
  9 46  1  0
 10 47  1  0
 17 48  1  0
 18 49  1  0
 21 50  1  0
 21 51  1  0
 22 52  1  0
 22 53  1  0
 24 54  1  0
 24 55  1  0
 25 56  1  0
 25 57  1  0
 26 58  1  0
 27 59  1  0
 28 60  1  0
 31 61  1  0
 32 62  1  0
 35 63  1  0
 35 64  1  0
 36 65  1  0
 36 66  1  0
 38 67  1  0
 38 68  1  0
 39 69  1  0
 39 70  1  0
 40 71  1  0
 41 72  1  0
M  END
>  <Binding energies>  (1) 
[-8.94]

>  <Ligand effiencies>  (1) 
[-0.19866666666666666]

>  <Interactions>  (1) 
["V-A:ILE:369:CG2:3237, V-A:ILE:369:CD1:3239, V-B:GLU:543:CD:9880, H-A:GLU:543:OE1:4909, V-B:GLU:543:CG:9879, V-A:GLU:543:CD:4908, V-A:LEU:475:CD2:4259, V-A:HIS:456:CE1:4070, V-B:ASP:366:CB:8183, H-B:GLU:543:OE1:9881, V-B:ASP:366:CG:8184, H-B:ASP:366:OD1:8185, V-B:TYR:539:CE2:9848, V-B:TYR:539:CD2:9846, V-A:GLU:543:C:4902, V-B:GLU:543:C:9874, V-A:HIS:456:CD2:4068, V-B:GLU:543:CB:9878, V-A:SER:385:CB:3409, V-A:GLU:543:CB:4906, V-B:HIS:456:CD2:9039, V-B:HIS:456:CE1:9041, H-B:ASP:366:OD2:8186, V-A:GLU:543:CG:4907, H-B:TYR:531:OH:9767, V-A:SER:385:C:3405, V-A:SER:385:CA:3407, H-A:SER:385:OG:3410, V-B:ASP:366:C:8179, V-B:ASP:366:CA:8181, V-B:ILE:369:CG2:8208, V-B:ILE:369:CB:8207, H-B:LYS:547:NZ:9923"]

$$$$
9d_Ghoteimi_2023
     RDKit          3D

 68 73  0  0  0  0  0  0  0  0999 V2000
  124.9050  130.3910   62.1030 C   0  0  0  0  0  0  0  0  0  0  0  0
  126.2910  130.6480   61.9280 O   0  0  0  0  0  0  0  0  0  0  0  0
  127.1610  129.6340   61.6840 C   0  0  0  0  0  0  0  0  0  0  0  0
  127.4850  129.2610   60.5530 O   0  0  0  0  0  0  0  0  0  0  0  0
  127.6840  129.0110   62.9200 C   0  0  0  0  0  0  0  0  0  0  0  0
  127.4240  129.7980   64.4760 S   0  0  0  0  0  0  0  0  0  0  0  0
  128.2510  128.5050   65.3120 C   0  0  0  0  0  0  0  0  0  0  0  0
  128.3730  128.4980   66.6390 N   0  0  0  0  0  0  0  0  0  0  0  0
  129.0180  127.4390   67.1940 C   0  0  0  0  0  0  0  0  0  0  0  0
  129.1200  127.4390   68.6860 C   0  0  0  0  0  0  0  0  0  0  0  0
  128.0920  126.9040   69.4680 C   0  0  0  0  0  0  0  0  0  0  0  0
  128.1760  126.9020   70.8570 C   0  0  0  0  0  0  0  0  0  0  0  0
  129.3000  127.4240   71.5170 C   0  0  0  0  0  0  0  0  0  0  0  0
  129.3910  127.4450   72.9130 N   0  0  0  0  0  0  0  0  0  0  0  0
  130.6140  126.9980   73.6100 C   0  0  0  0  0  0  0  0  0  0  0  0
  130.4190  126.7600   75.1210 C   0  0  0  0  0  0  0  0  0  0  0  0
  129.8830  127.9220   75.7310 O   0  0  0  0  0  0  0  0  0  0  0  0
  128.6200  128.2610   75.1810 C   0  0  0  0  0  0  0  0  0  0  0  0
  128.7570  128.5440   73.6700 C   0  0  0  0  0  0  0  0  0  0  0  0
  130.3210  127.9740   70.7280 C   0  0  0  0  0  0  0  0  0  0  0  0
  130.2350  127.9790   69.3390 C   0  0  0  0  0  0  0  0  0  0  0  0
  129.5670  126.4120   66.4220 C   0  0  0  0  0  0  0  0  0  0  0  0
  129.4590  126.4250   65.0270 C   0  0  0  0  0  0  0  0  0  0  0  0
  130.0860  125.3220   64.2510 C   0  0  0  0  0  0  0  0  0  0  0  0
  131.4680  125.2810   64.0590 C   0  0  0  0  0  0  0  0  0  0  0  0
  132.0520  124.2360   63.3480 C   0  0  0  0  0  0  0  0  0  0  0  0
  131.2690  123.1950   62.8240 C   0  0  0  0  0  0  0  0  0  0  0  0
  131.8290  122.1400   62.1000 N   0  0  0  0  0  0  0  0  0  0  0  0
  133.2060  122.2740   61.5870 C   0  0  0  0  0  0  0  0  0  0  0  0
  133.8310  120.9280   61.1610 C   0  0  0  0  0  0  0  0  0  0  0  0
  132.9970  120.2840   60.2100 O   0  0  0  0  0  0  0  0  0  0  0  0
  131.7040  120.0220   60.7380 C   0  0  0  0  0  0  0  0  0  0  0  0
  131.0270  121.3470   61.1490 C   0  0  0  0  0  0  0  0  0  0  0  0
  129.8810  123.2470   63.0230 C   0  0  0  0  0  0  0  0  0  0  0  0
  129.2980  124.2930   63.7320 C   0  0  0  0  0  0  0  0  0  0  0  0
  128.7500  127.5040   64.4280 C   0  0  0  0  0  0  0  0  0  0  0  0
  128.3930  127.8120   63.0680 C   0  0  0  0  0  0  0  0  0  0  0  0
  128.6990  126.9920   62.0130 N   0  0  0  0  0  0  0  0  0  0  0  0
  124.6729  130.3480   63.1774 H   0  0  0  0  0  0  0  0  0  0  0  0
  124.3207  131.1961   61.6336 H   0  0  0  0  0  0  0  0  0  0  0  0
  124.6482  129.4299   61.6336 H   0  0  0  0  0  0  0  0  0  0  0  0
  127.2038  126.4784   68.9781 H   0  0  0  0  0  0  0  0  0  0  0  0
  127.3476  126.4843   71.4481 H   0  0  0  0  0  0  0  0  0  0  0  0
  130.9497  126.0563   73.1513 H   0  0  0  0  0  0  0  0  0  0  0  0
  131.3543  127.8050   73.5063 H   0  0  0  0  0  0  0  0  0  0  0  0
  129.7269  125.9182   75.2706 H   0  0  0  0  0  0  0  0  0  0  0  0
  131.3925  126.5293   75.5782 H   0  0  0  0  0  0  0  0  0  0  0  0
  127.9212  127.4251   75.3325 H   0  0  0  0  0  0  0  0  0  0  0  0
  128.2397  129.1630   75.6827 H   0  0  0  0  0  0  0  0  0  0  0  0
  127.7521  128.7153   73.2567 H   0  0  0  0  0  0  0  0  0  0  0  0
  129.4101  129.4230   73.5664 H   0  0  0  0  0  0  0  0  0  0  0  0
  131.2056  128.4092   71.2159 H   0  0  0  0  0  0  0  0  0  0  0  0
  131.0537  128.4129   68.7461 H   0  0  0  0  0  0  0  0  0  0  0  0
  130.0914  125.5818   66.9177 H   0  0  0  0  0  0  0  0  0  0  0  0
  132.1005  126.0803   64.4726 H   0  0  0  0  0  0  0  0  0  0  0  0
  133.1412  124.2258   63.1948 H   0  0  0  0  0  0  0  0  0  0  0  0
  133.1902  122.9437   60.7145 H   0  0  0  0  0  0  0  0  0  0  0  0
  133.8217  122.6754   62.4054 H   0  0  0  0  0  0  0  0  0  0  0  0
  134.8193  121.1107   60.7140 H   0  0  0  0  0  0  0  0  0  0  0  0
  133.9348  120.2824   62.0456 H   0  0  0  0  0  0  0  0  0  0  0  0
  131.0921  119.5215   59.9731 H   0  0  0  0  0  0  0  0  0  0  0  0
  131.7978  119.3735   61.6215 H   0  0  0  0  0  0  0  0  0  0  0  0
  130.8611  121.9500   60.2441 H   0  0  0  0  0  0  0  0  0  0  0  0
  130.0839  121.0891   61.6530 H   0  0  0  0  0  0  0  0  0  0  0  0
  129.2444  122.4493   62.6126 H   0  0  0  0  0  0  0  0  0  0  0  0
  128.2087  124.3092   63.8846 H   0  0  0  0  0  0  0  0  0  0  0  0
  128.4510  127.2320   61.0630 H   0  0  0  0  0  0  0  0  0  0  0  0
  129.1900  126.1190   62.1480 H   0  0  0  0  0  0  0  0  0  0  0  0
  1  2  1  0
  2  3  1  0
  3  4  2  0
  3  5  1  0
  5  6  1  0
  6  7  1  0
  7  8  2  0
  8  9  1  0
  9 10  1  0
 10 11  2  0
 11 12  1  0
 12 13  2  0
 13 14  1  0
 14 15  1  0
 15 16  1  0
 16 17  1  0
 17 18  1  0
 18 19  1  0
 13 20  1  0
 20 21  2  0
  9 22  2  0
 22 23  1  0
 23 24  1  0
 24 25  2  0
 25 26  1  0
 26 27  2  0
 27 28  1  0
 28 29  1  0
 29 30  1  0
 30 31  1  0
 31 32  1  0
 32 33  1  0
 27 34  1  0
 34 35  2  0
 23 36  2  0
 36 37  1  0
 37 38  1  0
 37  5  2  0
 36  7  1  0
 21 10  1  0
 35 24  1  0
 19 14  1  0
 33 28  1  0
  1 39  1  0
  1 40  1  0
  1 41  1  0
 11 42  1  0
 12 43  1  0
 15 44  1  0
 15 45  1  0
 16 46  1  0
 16 47  1  0
 18 48  1  0
 18 49  1  0
 19 50  1  0
 19 51  1  0
 20 52  1  0
 21 53  1  0
 22 54  1  0
 25 55  1  0
 26 56  1  0
 29 57  1  0
 29 58  1  0
 30 59  1  0
 30 60  1  0
 32 61  1  0
 32 62  1  0
 33 63  1  0
 33 64  1  0
 34 65  1  0
 35 66  1  0
 38 67  1  0
 38 68  1  0
M  END
>  <Binding energies>  (1) 
[-7.5]

>  <Ligand effiencies>  (1) 
[-0.1875]

>  <Interactions>  (1) 
["V-A:ILE:369:CG2:3237, V-B:GLU:543:CD:9880, V-B:GLU:543:CG:9879, V-A:GLU:543:CD:4908, V-A:LEU:475:CD2:4259, V-A:HIS:456:CE1:4070, H-B:GLU:543:OE1:9881, V-B:TYR:539:CE2:9848, V-B:TYR:539:CD2:9846, V-A:GLU:543:C:4902, V-B:GLU:543:C:9874, V-A:HIS:456:CD2:4068, V-B:GLU:543:CB:9878, V-A:GLY:544:C:4912, V-A:SER:385:CB:3409, V-A:GLU:543:CB:4906, V-B:HIS:456:CD2:9039, V-B:HIS:456:CE1:9041, V-A:GLU:543:CG:4907, V-A:SER:385:C:3405, V-A:SER:385:CA:3407, H-A:SER:385:OG:3410, H-A:LYS:547:NZ:4951, H-B:LYS:547:NZ:9923"]

$$$$
RR10_Rahimova_2017
     RDKit          3D

 66 70  0  0  0  0  0  0  0  0999 V2000
  133.9120  131.7400   60.7170 C   0  0  0  0  0  0  0  0  0  0  0  0
  132.7250  131.5030   59.7660 C   0  0  1  0  0  0  0  0  0  0  0  0
  133.1620  130.7870   58.4670 C   0  0  0  0  0  0  0  0  0  0  0  0
  131.9620  130.5910   57.5130 C   0  0  0  0  0  0  0  0  0  0  0  0
  130.8140  129.7870   58.1760 C   0  0  1  0  0  0  0  0  0  0  0  0
  131.2180  128.3930   58.4030 N   0  0  0  0  0  0  0  0  0  0  0  0
  130.8910  127.6510   59.4770 C   0  0  0  0  0  0  0  0  0  0  0  0
  130.1820  128.0720   60.3940 O   0  0  0  0  0  0  0  0  0  0  0  0
  131.4630  126.2190   59.5310 C   0  0  1  0  0  0  0  0  0  0  0  0
  132.5130  126.0410   58.4040 C   0  0  0  0  0  0  0  0  0  0  0  0
  133.1550  124.6370   58.5130 C   0  0  0  0  0  0  0  0  0  0  0  0
  133.6980  124.3410   59.9300 C   0  0  0  0  0  0  0  0  0  0  0  0
  132.6510  124.5970   60.9560 N   0  0  0  0  0  0  0  0  0  0  0  0
  133.0560  124.0120   62.5790 S   0  0  0  0  0  0  0  0  0  0  0  0
  134.3290  124.6240   62.9800 O   0  0  0  0  0  0  0  0  0  0  0  0
  132.9050  122.5510   62.5830 O   0  0  0  0  0  0  0  0  0  0  0  0
  131.7940  124.6990   63.6510 C   0  0  0  0  0  0  0  0  0  0  0  0
  130.5090  124.9160   63.1430 C   0  0  0  0  0  0  0  0  0  0  0  0
  129.4810  125.4510   63.9260 C   0  0  0  0  0  0  0  0  0  0  0  0
  129.8010  125.7590   65.2500 C   0  0  0  0  0  0  0  0  0  0  0  0
  129.0930  126.2890   66.3030 N   0  0  0  0  0  0  0  0  0  0  0  0
  129.9410  126.3700   67.3870 C   0  0  0  0  0  0  0  0  0  0  0  0
  129.5280  126.9110   68.7260 C   0  0  0  0  0  0  0  0  0  0  0  0
  130.4270  127.6610   69.4970 C   0  0  0  0  0  0  0  0  0  0  0  0
  130.0450  128.1660   70.7360 C   0  0  0  0  0  0  0  0  0  0  0  0
  128.7600  127.9220   71.2140 C   0  0  0  0  0  0  0  0  0  0  0  0
  127.8550  127.1780   70.4620 C   0  0  0  0  0  0  0  0  0  0  0  0
  128.2390  126.6740   69.2220 C   0  0  0  0  0  0  0  0  0  0  0  0
  131.1450  125.9230   67.1060 N   0  0  0  0  0  0  0  0  0  0  0  0
  131.0910  125.5410   65.7910 C   0  0  0  0  0  0  0  0  0  0  0  0
  132.1010  125.0000   64.9830 C   0  0  0  0  0  0  0  0  0  0  0  0
  132.1090  125.9790   60.9180 C   0  0  0  0  0  0  0  0  0  0  0  0
  130.3980  130.5070   59.4870 C   0  0  0  0  0  0  0  0  0  0  0  0
  131.5930  130.6980   60.4470 C   0  0  0  0  0  0  0  0  0  0  0  0
  133.5664  131.6710   61.7590 H   0  0  0  0  0  0  0  0  0  0  0  0
  134.6848  130.9784   60.5358 H   0  0  0  0  0  0  0  0  0  0  0  0
  134.3330  132.7399   60.5358 H   0  0  0  0  0  0  0  0  0  0  0  0
  132.3384  132.4990   59.5043 H   0  0  0  0  0  0  0  0  0  0  0  0
  133.9279  131.3938   57.9619 H   0  0  0  0  0  0  0  0  0  0  0  0
  133.5660  129.7983   58.7303 H   0  0  0  0  0  0  0  0  0  0  0  0
  131.5786  131.5789   57.2180 H   0  0  0  0  0  0  0  0  0  0  0  0
  132.3134  130.0217   56.6398 H   0  0  0  0  0  0  0  0  0  0  0  0
  129.9406  129.7480   57.5084 H   0  0  0  0  0  0  0  0  0  0  0  0
  131.8870  128.0150   57.7480 H   0  0  0  0  0  0  0  0  0  0  0  0
  130.6569  125.4855   59.3820 H   0  0  0  0  0  0  0  0  0  0  0  0
  132.0214  126.1443   57.4254 H   0  0  0  0  0  0  0  0  0  0  0  0
  133.2934  126.8096   58.5057 H   0  0  0  0  0  0  0  0  0  0  0  0
  132.3958  123.8818   58.2616 H   0  0  0  0  0  0  0  0  0  0  0  0
  134.0055  124.6041   57.8162 H   0  0  0  0  0  0  0  0  0  0  0  0
  134.0084  123.2872   59.9854 H   0  0  0  0  0  0  0  0  0  0  0  0
  134.5558  125.0011   60.1262 H   0  0  0  0  0  0  0  0  0  0  0  0
  130.3003  124.6577   62.0943 H   0  0  0  0  0  0  0  0  0  0  0  0
  128.4728  125.6204   63.5200 H   0  0  0  0  0  0  0  0  0  0  0  0
  128.1280  126.5860   66.3290 H   0  0  0  0  0  0  0  0  0  0  0  0
  131.4424  127.8518   69.1195 H   0  0  0  0  0  0  0  0  0  0  0  0
  130.7548  128.7553   71.3352 H   0  0  0  0  0  0  0  0  0  0  0  0
  128.4576  128.3204   72.1937 H   0  0  0  0  0  0  0  0  0  0  0  0
  126.8415  126.9892   70.8455 H   0  0  0  0  0  0  0  0  0  0  0  0
  127.5250  126.0853   68.6273 H   0  0  0  0  0  0  0  0  0  0  0  0
  133.1083  124.8169   65.3853 H   0  0  0  0  0  0  0  0  0  0  0  0
  131.3512  126.1016   61.7059 H   0  0  0  0  0  0  0  0  0  0  0  0
  132.9185  126.7046   61.0859 H   0  0  0  0  0  0  0  0  0  0  0  0
  129.9845  131.4944   59.2340 H   0  0  0  0  0  0  0  0  0  0  0  0
  129.6504  129.8808   59.9958 H   0  0  0  0  0  0  0  0  0  0  0  0
  131.2532  131.2405   61.3416 H   0  0  0  0  0  0  0  0  0  0  0  0
  131.9834  129.7075   60.7235 H   0  0  0  0  0  0  0  0  0  0  0  0
  1  2  1  0
  2  3  1  0
  3  4  1  0
  4  5  1  0
  5  6  1  0
  6  7  1  0
  7  8  2  0
  7  9  1  0
  9 10  1  0
 10 11  1  0
 11 12  1  0
 12 13  1  0
 13 14  1  0
 14 15  2  0
 14 16  2  0
 14 17  1  0
 17 18  2  0
 18 19  1  0
 19 20  2  0
 20 21  1  0
 21 22  1  0
 22 23  1  0
 23 24  2  0
 24 25  1  0
 25 26  2  0
 26 27  1  0
 27 28  2  0
 22 29  2  0
 29 30  1  0
 30 31  2  0
 13 32  1  0
  5 33  1  0
 33 34  1  0
 34  2  1  0
 32  9  1  0
 31 17  1  0
 30 20  1  0
 28 23  1  0
  1 35  1  0
  1 36  1  0
  1 37  1  0
  2 38  1  6
  3 39  1  0
  3 40  1  0
  4 41  1  0
  4 42  1  0
  5 43  1  6
  6 44  1  0
  9 45  1  6
 10 46  1  0
 10 47  1  0
 11 48  1  0
 11 49  1  0
 12 50  1  0
 12 51  1  0
 18 52  1  0
 19 53  1  0
 21 54  1  0
 24 55  1  0
 25 56  1  0
 26 57  1  0
 27 58  1  0
 28 59  1  0
 31 60  1  0
 32 61  1  0
 32 62  1  0
 33 63  1  0
 33 64  1  0
 34 65  1  0
 34 66  1  0
M  END
>  <Binding energies>  (1) 
[-10.13]

>  <Ligand effiencies>  (1) 
[-0.2813888888888889]

>  <Interactions>  (1) 
["V-A:ILE:369:CG2:3237, V-A:ILE:369:CD1:3239, V-A:ASP:366:CB:3212, V-B:GLU:543:CD:9880, H-A:ARG:545:NH1:4927, H-A:ARG:545:NH2:4928, H-A:GLY:454:N:4050, V-A:ASP:366:CA:3210, V-A:ASP:366:CG:3213, H-A:TYR:484:OH:4348, V-B:GLU:543:CG:9879, V-A:GLU:543:CD:4908, V-A:ARG:545:CZ:4926, V-A:HIS:456:CE1:4070, H-B:GLU:543:OE2:9882, H-B:GLU:543:OE1:9881, V-B:TYR:539:CZ:9849, V-B:TYR:539:CE2:9848, V-A:GLU:543:C:4902, V-B:GLU:543:C:9874, V-B:GLU:543:CA:9876, V-B:GLU:543:CB:9878, V-A:GLU:543:CB:4906, V-B:HIS:456:CD2:9039, V-B:HIS:456:CE1:9041, V-A:PRO:540:CA:4883, V-A:PRO:540:CB:4885, V-A:LEU:363:CD1:3189, V-A:TYR:531:CZ:4794, H-A:TYR:531:OH:4795, V-A:LEU:363:CB:3187, V-A:LEU:363:CA:3185, V-A:TYR:531:CE2:4793, H-A:ASP:366:OD2:3215, V-A:ASN:362:C:3172, V-A:ASN:362:CB:3176"]

$$$$
RR11_Rahimova_2017
     RDKit          3D

 55 60  0  0  0  0  0  0  0  0999 V2000
  129.1700  132.7810   56.7200 N   0  0  0  0  0  0  0  0  0  0  0  0
  129.6520  131.5650   57.1990 C   0  0  0  0  0  0  0  0  0  0  0  0
  128.7900  130.4750   57.3170 C   0  0  0  0  0  0  0  0  0  0  0  0
  129.2730  129.2600   57.7930 C   0  0  0  0  0  0  0  0  0  0  0  0
  130.6190  129.1210   58.1560 C   0  0  0  0  0  0  0  0  0  0  0  0
  131.1390  127.8090   58.6640 C   0  0  0  0  0  0  0  0  0  0  0  0
  130.6920  127.1990   59.7400 N   0  0  0  0  0  0  0  0  0  0  0  0
  131.4220  126.0430   59.8300 C   0  0  0  0  0  0  0  0  0  0  0  0
  131.3480  125.0210   60.7860 C   0  0  0  0  0  0  0  0  0  0  0  0
  132.2000  123.9180   60.6500 C   0  0  0  0  0  0  0  0  0  0  0  0
  132.1460  122.7950   61.6760 C   0  0  0  0  0  0  0  0  0  0  0  0
  131.4220  123.1930   62.9540 C   0  0  0  0  0  0  0  0  0  0  0  0
  130.3530  122.4140   63.4120 C   0  0  0  0  0  0  0  0  0  0  0  0
  129.6630  122.7330   64.5830 C   0  0  0  0  0  0  0  0  0  0  0  0
  130.0730  123.8620   65.3040 C   0  0  0  0  0  0  0  0  0  0  0  0
  129.5620  124.3840   66.4640 N   0  0  0  0  0  0  0  0  0  0  0  0
  130.2970  125.4460   66.7200 C   0  0  0  0  0  0  0  0  0  0  0  0
  130.0930  126.3550   67.8980 C   0  0  0  0  0  0  0  0  0  0  0  0
  128.8490  126.4200   68.5380 C   0  0  0  0  0  0  0  0  0  0  0  0
  128.6560  127.2710   69.6240 C   0  0  0  0  0  0  0  0  0  0  0  0
  129.7080  128.0640   70.0760 C   0  0  0  0  0  0  0  0  0  0  0  0
  129.5150  128.9200   71.1600 N   0  0  0  0  0  0  0  0  0  0  0  0
  130.9520  128.0070   69.4510 C   0  0  0  0  0  0  0  0  0  0  0  0
  131.1430  127.1560   68.3670 C   0  0  0  0  0  0  0  0  0  0  0  0
  131.2780  125.6350   65.7710 N   0  0  0  0  0  0  0  0  0  0  0  0
  131.1640  124.6330   64.8370 C   0  0  0  0  0  0  0  0  0  0  0  0
  131.8620  124.3160   63.6680 C   0  0  0  0  0  0  0  0  0  0  0  0
  133.1210  123.8550   59.5980 C   0  0  0  0  0  0  0  0  0  0  0  0
  133.2230  124.8590   58.6320 C   0  0  0  0  0  0  0  0  0  0  0  0
  132.3550  125.9450   58.7710 C   0  0  0  0  0  0  0  0  0  0  0  0
  132.1460  127.0960   58.0470 N   0  0  0  0  0  0  0  0  0  0  0  0
  131.4740  130.2250   58.0340 C   0  0  0  0  0  0  0  0  0  0  0  0
  130.9940  131.4420   57.5570 C   0  0  0  0  0  0  0  0  0  0  0  0
  128.2300  132.8340   56.3540 H   0  0  0  0  0  0  0  0  0  0  0  0
  129.7520  133.6040   56.7810 H   0  0  0  0  0  0  0  0  0  0  0  0
  127.7316  130.5755   57.0347 H   0  0  0  0  0  0  0  0  0  0  0  0
  128.5920  128.4011   57.8851 H   0  0  0  0  0  0  0  0  0  0  0  0
  130.6375  125.0837   61.6234 H   0  0  0  0  0  0  0  0  0  0  0  0
  131.6228  121.9367   61.2293 H   0  0  0  0  0  0  0  0  0  0  0  0
  133.1826  122.5471   61.9481 H   0  0  0  0  0  0  0  0  0  0  0  0
  130.0490  121.5283   62.8348 H   0  0  0  0  0  0  0  0  0  0  0  0
  128.8213  122.1154   64.9297 H   0  0  0  0  0  0  0  0  0  0  0  0
  128.0179  125.7943   68.1805 H   0  0  0  0  0  0  0  0  0  0  0  0
  127.6765  127.3165   70.1226 H   0  0  0  0  0  0  0  0  0  0  0  0
  129.7650  128.6110   72.0890 H   0  0  0  0  0  0  0  0  0  0  0  0
  129.1610  129.8530   70.9990 H   0  0  0  0  0  0  0  0  0  0  0  0
  131.7807  128.6330   69.8136 H   0  0  0  0  0  0  0  0  0  0  0  0
  132.1255  127.1116   67.8744 H   0  0  0  0  0  0  0  0  0  0  0  0
  131.9380  126.3990   65.7990 H   0  0  0  0  0  0  0  0  0  0  0  0
  132.7156  124.9190   63.3249 H   0  0  0  0  0  0  0  0  0  0  0  0
  133.7886  122.9835   59.5294 H   0  0  0  0  0  0  0  0  0  0  0  0
  133.9475  124.7979   57.8066 H   0  0  0  0  0  0  0  0  0  0  0  0
  132.6130  127.4070   57.2080 H   0  0  0  0  0  0  0  0  0  0  0  0
  132.5326  130.1293   58.3173 H   0  0  0  0  0  0  0  0  0  0  0  0
  131.6714  132.3036   57.4629 H   0  0  0  0  0  0  0  0  0  0  0  0
  1  2  1  0
  2  3  2  0
  3  4  1  0
  4  5  2  0
  5  6  1  0
  6  7  2  0
  7  8  1  0
  8  9  2  0
  9 10  1  0
 10 11  1  0
 11 12  1  0
 12 13  2  0
 13 14  1  0
 14 15  2  0
 15 16  1  0
 16 17  2  0
 17 18  1  0
 18 19  2  0
 19 20  1  0
 20 21  2  0
 21 22  1  0
 21 23  1  0
 23 24  2  0
 17 25  1  0
 25 26  1  0
 26 27  2  0
 10 28  2  0
 28 29  1  0
 29 30  2  0
 30 31  1  0
  5 32  1  0
 32 33  2  0
 33  2  1  0
 31  6  1  0
 30  8  1  0
 27 12  1  0
 26 15  1  0
 24 18  1  0
  1 34  1  0
  1 35  1  0
  3 36  1  0
  4 37  1  0
  9 38  1  0
 11 39  1  0
 11 40  1  0
 13 41  1  0
 14 42  1  0
 19 43  1  0
 20 44  1  0
 22 45  1  0
 22 46  1  0
 23 47  1  0
 24 48  1  0
 25 49  1  0
 27 50  1  0
 28 51  1  0
 29 52  1  0
 31 53  1  0
 32 54  1  0
 33 55  1  0
M  END
>  <Binding energies>  (1) 
[-8.15]

>  <Ligand effiencies>  (1) 
[-0.20897435897435898]

>  <Interactions>  (1) 
["V-A:ILE:369:CG2:3237, V-A:ASP:366:CB:3212, V-A:ASP:366:CA:3210, V-A:ASP:366:CG:3213, H-A:GLU:543:OE1:4909, H-A:TYR:484:OH:4348, V-B:GLU:543:CG:9879, V-A:GLU:543:CD:4908, H-A:GLU:543:OE2:4910, V-A:LEU:475:CD2:4259, V-A:HIS:456:CE1:4070, V-B:ALA:541:CB:9864, V-B:TYR:539:CE2:9848, V-A:MET:535:CE:4835, V-A:TYR:484:CE2:4346, V-A:GLU:543:C:4902, V-B:GLU:543:C:9874, V-B:GLU:543:CA:9876, V-A:TYR:484:CZ:4347, V-B:GLU:543:CB:9878, V-A:GLY:544:C:4912, V-A:GLU:543:CB:4906, V-B:HIS:456:CD2:9039, V-B:HIS:456:CE1:9041, V-A:ARG:545:CG:4922, V-A:TYR:531:CZ:4794, H-A:TYR:531:OH:4795, V-A:ASP:366:C:3208, V-A:GLU:543:CA:4904, H-A:GLY:544:O:4913, H-A:GLU:543:O:4903, H-B:HIS:456:NE2:9042"]

$$$$
RR11_Rahimova_2017-again1
     RDKit          3D

 56 61  0  0  0  0  0  0  0  0999 V2000
  129.1540  128.7570   71.4130 N   0  0  0  0  0  0  0  0  0  0  0  0
  129.4390  127.9590   70.3070 C   0  0  0  0  0  0  0  0  0  0  0  0
  130.6840  128.0500   69.6870 C   0  0  0  0  0  0  0  0  0  0  0  0
  130.9660  127.2530   68.5800 C   0  0  0  0  0  0  0  0  0  0  0  0
  130.0070  126.3620   68.0830 C   0  0  0  0  0  0  0  0  0  0  0  0
  130.3090  125.5100   66.8840 C   0  0  0  0  0  0  0  0  0  0  0  0
  129.5960  124.4700   66.5140 N   0  0  0  0  0  0  0  0  0  0  0  0
  130.2250  123.9770   65.4000 C   0  0  0  0  0  0  0  0  0  0  0  0
  129.8890  122.8720   64.6070 C   0  0  0  0  0  0  0  0  0  0  0  0
  130.7110  122.5680   63.5210 C   0  0  0  0  0  0  0  0  0  0  0  0
  131.8440  123.3320   63.2210 C   0  0  0  0  0  0  0  0  0  0  0  0
  132.7080  122.9520   62.0270 C   0  0  0  0  0  0  0  0  0  0  0  0
  132.6190  123.9630   60.8930 C   0  0  0  0  0  0  0  0  0  0  0  0
  133.1500  123.6430   59.6380 C   0  0  0  0  0  0  0  0  0  0  0  0
  133.1000  124.5310   58.5600 C   0  0  0  0  0  0  0  0  0  0  0  0
  132.4840  125.7640   58.7930 C   0  0  0  0  0  0  0  0  0  0  0  0
  132.2730  126.8630   57.9710 N   0  0  0  0  0  0  0  0  0  0  0  0
  131.6190  127.8540   58.6660 C   0  0  0  0  0  0  0  0  0  0  0  0
  131.2220  129.2000   58.1520 C   0  0  0  0  0  0  0  0  0  0  0  0
  129.9150  129.4220   57.7020 C   0  0  0  0  0  0  0  0  0  0  0  0
  129.5360  130.6760   57.2300 C   0  0  0  0  0  0  0  0  0  0  0  0
  130.4650  131.7150   57.2050 C   0  0  0  0  0  0  0  0  0  0  0  0
  130.0840  132.9710   56.7360 N   0  0  0  0  0  0  0  0  0  0  0  0
  131.7700  131.5040   57.6490 C   0  0  0  0  0  0  0  0  0  0  0  0
  132.1470  130.2500   58.1210 C   0  0  0  0  0  0  0  0  0  0  0  0
  131.4120  127.3650   59.9350 N   0  0  0  0  0  0  0  0  0  0  0  0
  131.9350  126.0850   60.0460 C   0  0  0  0  0  0  0  0  0  0  0  0
  131.9830  125.1910   61.1180 C   0  0  0  0  0  0  0  0  0  0  0  0
  132.1870  124.4560   63.9850 C   0  0  0  0  0  0  0  0  0  0  0  0
  131.3650  124.7500   65.0750 C   0  0  0  0  0  0  0  0  0  0  0  0
  131.3820  125.7260   66.0450 N   0  0  0  0  0  0  0  0  0  0  0  0
  128.7600  126.2800   68.7170 C   0  0  0  0  0  0  0  0  0  0  0  0
  128.4760  127.0740   69.8240 C   0  0  0  0  0  0  0  0  0  0  0  0
  128.7620  128.3350   72.2420 H   0  0  0  0  0  0  0  0  0  0  0  0
  129.3040  129.7540   71.3580 H   0  0  0  0  0  0  0  0  0  0  0  0
  131.4416  128.7491   70.0708 H   0  0  0  0  0  0  0  0  0  0  0  0
  131.9495  127.3241   68.0925 H   0  0  0  0  0  0  0  0  0  0  0  0
  129.0026  122.2615   64.8339 H   0  0  0  0  0  0  0  0  0  0  0  0
  130.4618  121.7059   62.8848 H   0  0  0  0  0  0  0  0  0  0  0  0
  133.7551  122.8848   62.3573 H   0  0  0  0  0  0  0  0  0  0  0  0
  132.3402  121.9889   61.6435 H   0  0  0  0  0  0  0  0  0  0  0  0
  133.6224  122.6599   59.4955 H   0  0  0  0  0  0  0  0  0  0  0  0
  133.5238  124.2729   57.5783 H   0  0  0  0  0  0  0  0  0  0  0  0
  132.5460  126.9690   57.0040 H   0  0  0  0  0  0  0  0  0  0  0  0
  129.1832  128.6010   57.7214 H   0  0  0  0  0  0  0  0  0  0  0  0
  128.5077  130.8460   56.8783 H   0  0  0  0  0  0  0  0  0  0  0  0
  129.1060  133.2240   56.7270 H   0  0  0  0  0  0  0  0  0  0  0  0
  130.7860  133.6040   56.3830 H   0  0  0  0  0  0  0  0  0  0  0  0
  132.4998  132.3267   57.6263 H   0  0  0  0  0  0  0  0  0  0  0  0
  133.1764  130.0835   58.4712 H   0  0  0  0  0  0  0  0  0  0  0  0
  130.9460  127.9030   60.6510 H   0  0  0  0  0  0  0  0  0  0  0  0
  131.5416  125.4397   62.0944 H   0  0  0  0  0  0  0  0  0  0  0  0
  133.0612  125.0763   63.7380 H   0  0  0  0  0  0  0  0  0  0  0  0
  132.0420  126.4800   66.1700 H   0  0  0  0  0  0  0  0  0  0  0  0
  127.9994  125.5823   68.3365 H   0  0  0  0  0  0  0  0  0  0  0  0
  127.4949  127.0036   70.3164 H   0  0  0  0  0  0  0  0  0  0  0  0
  1  2  1  0
  2  3  2  0
  3  4  1  0
  4  5  2  0
  5  6  1  0
  6  7  2  0
  7  8  1  0
  8  9  2  0
  9 10  1  0
 10 11  2  0
 11 12  1  0
 12 13  1  0
 13 14  2  0
 14 15  1  0
 15 16  2  0
 16 17  1  0
 17 18  1  0
 18 19  1  0
 19 20  2  0
 20 21  1  0
 21 22  2  0
 22 23  1  0
 22 24  1  0
 24 25  2  0
 18 26  2  0
 26 27  1  0
 27 28  2  0
 11 29  1  0
 29 30  2  0
 30 31  1  0
  5 32  1  0
 32 33  2  0
 33  2  1  0
 31  6  1  0
 30  8  1  0
 28 13  1  0
 27 16  1  0
 25 19  1  0
  1 34  1  0
  1 35  1  0
  3 36  1  0
  4 37  1  0
  9 38  1  0
 10 39  1  0
 12 40  1  0
 12 41  1  0
 14 42  1  0
 15 43  1  0
 17 44  1  0
 20 45  1  0
 21 46  1  0
 23 47  1  0
 23 48  1  0
 24 49  1  0
 25 50  1  0
 26 51  1  0
 28 52  1  0
 29 53  1  0
 31 54  1  0
 32 55  1  0
 33 56  1  0
M  CHG  1  26   1
M  END
>  <Binding energies>  (1) 
[-9.34]

>  <Ligand effiencies>  (1) 
[-0.23349999999999999]

>  <Interactions>  (1) 
["V-A:ILE:369:CG2:3237, V-A:ASP:366:CB:3212, V-A:ASP:366:CA:3210, V-A:ASP:366:CG:3213, H-A:GLU:543:OE1:4909, H-A:TYR:484:OH:4348, V-B:GLU:543:CG:9879, V-A:GLU:543:CD:4908, H-A:GLU:543:OE2:4910, V-A:LEU:475:CD2:4259, V-A:HIS:456:CE1:4070, V-B:ALA:541:CB:9864, V-B:TYR:539:CZ:9849, V-B:TYR:539:CE2:9848, V-A:MET:535:CE:4835, V-A:TYR:484:CE2:4346, V-A:GLU:543:C:4902, V-B:GLU:543:C:9874, V-B:GLU:543:CA:9876, V-A:TYR:484:CZ:4347, V-B:GLU:543:CB:9878, V-A:GLY:544:C:4912, V-A:GLU:543:CB:4906, V-B:HIS:456:CD2:9039, V-B:HIS:456:CE1:9041, V-A:ARG:545:CG:4922, V-A:LEU:363:CD1:3189, V-A:TYR:531:CZ:4794, V-A:PRO:540:N:4884, H-A:TYR:531:OH:4795, H-B:TYR:539:OH:9850, H-A:GLU:543:O:4903, H-A:ASP:366:O:3209, H-A:ASP:366:OD2:3215, H-B:HIS:456:NE2:9042, V-A:ILE:538:CB:4862, V-A:ILE:538:CA:4860"]

$$$$
RR11_Rahimova_2017-again2
     RDKit          3D

 57 62  0  0  0  0  0  0  0  0999 V2000
  129.1810  128.8210   71.3560 N   0  0  0  0  0  0  0  0  0  0  0  0
  129.4510  128.0270   70.2430 C   0  0  0  0  0  0  0  0  0  0  0  0
  128.4500  127.2210   69.7050 C   0  0  0  0  0  0  0  0  0  0  0  0
  128.7220  126.4240   68.5970 C   0  0  0  0  0  0  0  0  0  0  0  0
  129.9980  126.4280   68.0200 C   0  0  0  0  0  0  0  0  0  0  0  0
  130.2940  125.5650   66.8360 C   0  0  0  0  0  0  0  0  0  0  0  0
  131.3200  125.7280   65.9340 N   0  0  0  0  0  0  0  0  0  0  0  0
  131.2840  124.7170   64.9830 C   0  0  0  0  0  0  0  0  0  0  0  0
  132.1040  124.4440   63.8850 C   0  0  0  0  0  0  0  0  0  0  0  0
  131.7920  123.3080   63.1270 C   0  0  0  0  0  0  0  0  0  0  0  0
  132.6520  122.9550   61.9210 C   0  0  0  0  0  0  0  0  0  0  0  0
  132.5740  123.9990   60.8160 C   0  0  0  0  0  0  0  0  0  0  0  0
  133.1880  123.7470   59.5830 C   0  0  0  0  0  0  0  0  0  0  0  0
  133.1500  124.6660   58.5320 C   0  0  0  0  0  0  0  0  0  0  0  0
  132.4620  125.8590   58.7670 C   0  0  0  0  0  0  0  0  0  0  0  0
  132.2400  126.9710   57.9660 N   0  0  0  0  0  0  0  0  0  0  0  0
  131.4990  127.9070   58.6510 C   0  0  0  0  0  0  0  0  0  0  0  0
  131.0630  129.2460   58.1520 C   0  0  0  0  0  0  0  0  0  0  0  0
  131.9400  130.3350   58.1940 C   0  0  0  0  0  0  0  0  0  0  0  0
  131.5380  131.5810   57.7190 C   0  0  0  0  0  0  0  0  0  0  0  0
  130.2550  131.7430   57.2010 C   0  0  0  0  0  0  0  0  0  0  0  0
  129.8530  132.9890   56.7200 N   0  0  0  0  0  0  0  0  0  0  0  0
  129.3710  130.6660   57.1580 C   0  0  0  0  0  0  0  0  0  0  0  0
  129.7740  129.4200   57.6320 C   0  0  0  0  0  0  0  0  0  0  0  0
  131.2480  127.3690   59.8920 N   0  0  0  0  0  0  0  0  0  0  0  0
  131.8310  126.1130   59.9960 C   0  0  0  0  0  0  0  0  0  0  0  0
  131.8660  125.1870   61.0420 C   0  0  0  0  0  0  0  0  0  0  0  0
  130.6900  122.5050   63.4450 C   0  0  0  0  0  0  0  0  0  0  0  0
  129.8630  122.7770   64.5380 C   0  0  0  0  0  0  0  0  0  0  0  0
  130.1880  123.8990   65.3040 C   0  0  0  0  0  0  0  0  0  0  0  0
  129.6020  124.4440   66.4400 N   0  0  0  0  0  0  0  0  0  0  0  0
  130.9960  127.2440   68.5660 C   0  0  0  0  0  0  0  0  0  0  0  0
  130.7240  128.0420   69.6740 C   0  0  0  0  0  0  0  0  0  0  0  0
  128.5300  128.4920   72.0540 H   0  0  0  0  0  0  0  0  0  0  0  0
  129.5870  129.7430   71.4210 H   0  0  0  0  0  0  0  0  0  0  0  0
  127.4464  127.2146   70.1552 H   0  0  0  0  0  0  0  0  0  0  0  0
  127.9312  125.7881   68.1726 H   0  0  0  0  0  0  0  0  0  0  0  0
  131.9830  126.4860   66.0010 H   0  0  0  0  0  0  0  0  0  0  0  0
  132.9553  125.0913   63.6277 H   0  0  0  0  0  0  0  0  0  0  0  0
  133.6984  122.8675   62.2488 H   0  0  0  0  0  0  0  0  0  0  0  0
  132.2732  122.0078   61.5095 H   0  0  0  0  0  0  0  0  0  0  0  0
  133.7176  122.7940   59.4374 H   0  0  0  0  0  0  0  0  0  0  0  0
  133.6374  124.4608   57.5675 H   0  0  0  0  0  0  0  0  0  0  0  0
  132.5580  127.1210   57.0200 H   0  0  0  0  0  0  0  0  0  0  0  0
  132.9525  130.2066   58.6044 H   0  0  0  0  0  0  0  0  0  0  0  0
  132.2313  132.4344   57.7528 H   0  0  0  0  0  0  0  0  0  0  0  0
  128.8710  133.2200   56.6960 H   0  0  0  0  0  0  0  0  0  0  0  0
  130.5430  133.6200   56.3390 H   0  0  0  0  0  0  0  0  0  0  0  0
  128.3579  130.7999   56.7508 H   0  0  0  0  0  0  0  0  0  0  0  0
  129.0775  128.5693   57.5979 H   0  0  0  0  0  0  0  0  0  0  0  0
  130.7170  127.8610   60.5970 H   0  0  0  0  0  0  0  0  0  0  0  0
  131.3607  125.3818   61.9994 H   0  0  0  0  0  0  0  0  0  0  0  0
  130.4681  121.6317   62.8140 H   0  0  0  0  0  0  0  0  0  0  0  0
  129.0001  122.1401   64.7827 H   0  0  0  0  0  0  0  0  0  0  0  0
  128.7940  124.1030   66.9390 H   0  0  0  0  0  0  0  0  0  0  0  0
  132.0003  127.2547   68.1173 H   0  0  0  0  0  0  0  0  0  0  0  0
  131.5109  128.6823   70.0992 H   0  0  0  0  0  0  0  0  0  0  0  0
  1  2  1  0
  2  3  2  0
  3  4  1  0
  4  5  2  0
  5  6  1  0
  6  7  1  0
  7  8  1  0
  8  9  2  0
  9 10  1  0
 10 11  1  0
 11 12  1  0
 12 13  2  0
 13 14  1  0
 14 15  2  0
 15 16  1  0
 16 17  1  0
 17 18  1  0
 18 19  2  0
 19 20  1  0
 20 21  2  0
 21 22  1  0
 21 23  1  0
 23 24  2  0
 17 25  2  0
 25 26  1  0
 26 27  2  0
 10 28  2  0
 28 29  1  0
 29 30  2  0
 30 31  1  0
  5 32  1  0
 32 33  2  0
 33  2  1  0
 31  6  2  0
 30  8  1  0
 27 12  1  0
 26 15  1  0
 24 18  1  0
  1 34  1  0
  1 35  1  0
  3 36  1  0
  4 37  1  0
  7 38  1  0
  9 39  1  0
 11 40  1  0
 11 41  1  0
 13 42  1  0
 14 43  1  0
 16 44  1  0
 19 45  1  0
 20 46  1  0
 22 47  1  0
 22 48  1  0
 23 49  1  0
 24 50  1  0
 25 51  1  0
 27 52  1  0
 28 53  1  0
 29 54  1  0
 31 55  1  0
 32 56  1  0
 33 57  1  0
M  CHG  2  25   1  31   1
M  END
>  <Binding energies>  (1) 
[-9.81]

>  <Ligand effiencies>  (1) 
[-0.23926829268292685]

>  <Interactions>  (1) 
["V-A:ILE:369:CG2:3237, V-A:ASP:366:CB:3212, V-B:GLU:543:CD:9880, V-A:ASP:366:CA:3210, V-A:ASP:366:CG:3213, H-A:GLU:543:OE1:4909, V-B:GLU:543:CG:9879, V-A:GLU:543:CD:4908, H-A:GLU:543:OE2:4910, V-A:LEU:475:CD2:4259, V-A:HIS:456:CE1:4070, V-B:ALA:541:CB:9864, V-B:TYR:539:CZ:9849, V-B:TYR:539:CE2:9848, V-A:MET:535:CE:4835, V-A:TYR:484:CE2:4346, V-A:GLU:543:C:4902, V-B:GLU:543:C:9874, V-B:GLU:543:CA:9876, V-A:TYR:484:CZ:4347, V-B:GLU:543:CB:9878, V-A:GLY:544:C:4912, V-A:GLU:543:CB:4906, V-B:HIS:456:CD2:9039, V-B:HIS:456:CE1:9041, V-A:ARG:545:CG:4922, V-A:LEU:363:CD1:3189, V-A:TYR:531:CZ:4794, H-A:TYR:531:OH:4795, H-A:GLU:543:O:4903, H-A:ASP:366:O:3209, H-A:ASP:366:OD2:3215, H-B:HIS:456:NE2:9042, V-A:ILE:538:CB:4862, V-A:ILE:538:CA:4860, H-B:GLU:543:O:9875"]

$$$$
RR12_Rahimova_2017
     RDKit          3D

 51 53  0  0  0  0  0  0  0  0999 V2000
  124.5980  123.2890   62.0620 C   0  0  0  0  0  0  0  0  0  0  0  0
  124.6030  123.8780   60.6450 C   0  0  0  0  0  0  0  0  0  0  0  0
  125.9230  124.5960   60.3080 C   0  0  0  0  0  0  0  0  0  0  0  0
  126.9900  123.6300   60.0610 N   0  0  0  0  0  0  0  0  0  0  0  0
  127.3830  123.0990   58.8420 C   0  0  0  0  0  0  0  0  0  0  0  0
  126.7050  123.4180   57.5210 C   0  0  0  0  0  0  0  0  0  0  0  0
  127.7090  123.5430   56.3610 C   0  0  0  0  0  0  0  0  0  0  0  0
  128.4360  124.9010   56.3460 C   0  0  0  0  0  0  0  0  0  0  0  0
  129.4740  125.0270   57.3680 N   0  0  0  0  0  0  0  0  0  0  0  0
  129.4660  125.9230   58.3710 C   0  0  0  0  0  0  0  0  0  0  0  0
  128.5650  126.7490   58.5310 O   0  0  0  0  0  0  0  0  0  0  0  0
  130.6620  125.8590   59.3290 C   0  0  0  0  0  0  0  0  0  0  0  0
  131.2990  124.5860   59.2110 O   0  0  0  0  0  0  0  0  0  0  0  0
  132.1200  124.1420   60.2310 C   0  0  0  0  0  0  0  0  0  0  0  0
  132.7960  122.9410   60.0050 C   0  0  0  0  0  0  0  0  0  0  0  0
  133.6470  122.4160   60.9740 C   0  0  0  0  0  0  0  0  0  0  0  0
  133.8260  123.0950   62.1750 C   0  0  0  0  0  0  0  0  0  0  0  0
  133.1580  124.2930   62.4180 C   0  0  0  0  0  0  0  0  0  0  0  0
  132.3050  124.8170   61.4490 C   0  0  0  0  0  0  0  0  0  0  0  0
  128.3940  122.2720   58.9380 N   0  0  0  0  0  0  0  0  0  0  0  0
  128.7160  122.2620   60.2660 C   0  0  0  0  0  0  0  0  0  0  0  0
  129.7350  121.5550   60.9230 C   0  0  0  0  0  0  0  0  0  0  0  0
  129.8650  121.7200   62.3020 C   0  0  0  0  0  0  0  0  0  0  0  0
  129.0120  122.5620   63.0150 C   0  0  0  0  0  0  0  0  0  0  0  0
  127.9880  123.2780   62.3910 C   0  0  0  0  0  0  0  0  0  0  0  0
  127.8560  123.1110   61.0070 C   0  0  0  0  0  0  0  0  0  0  0  0
  124.6049  124.1059   62.7987 H   0  0  0  0  0  0  0  0  0  0  0  0
  123.6946  122.6771   62.2015 H   0  0  0  0  0  0  0  0  0  0  0  0
  125.4909  122.6618   62.2015 H   0  0  0  0  0  0  0  0  0  0  0  0
  124.4515  123.0617   59.9234 H   0  0  0  0  0  0  0  0  0  0  0  0
  123.7949  124.6223   60.5902 H   0  0  0  0  0  0  0  0  0  0  0  0
  125.7789  125.2122   59.4083 H   0  0  0  0  0  0  0  0  0  0  0  0
  126.2093  125.2271   61.1623 H   0  0  0  0  0  0  0  0  0  0  0  0
  125.9925  122.6135   57.2863 H   0  0  0  0  0  0  0  0  0  0  0  0
  126.1968  124.3874   57.6305 H   0  0  0  0  0  0  0  0  0  0  0  0
  128.4587  122.7438   56.4571 H   0  0  0  0  0  0  0  0  0  0  0  0
  127.1426  123.4596   55.4217 H   0  0  0  0  0  0  0  0  0  0  0  0
  128.9034  125.0330   55.3591 H   0  0  0  0  0  0  0  0  0  0  0  0
  127.6803  125.6709   56.5609 H   0  0  0  0  0  0  0  0  0  0  0  0
  130.2460  124.3790   57.3030 H   0  0  0  0  0  0  0  0  0  0  0  0
  131.3792  126.6530   59.0736 H   0  0  0  0  0  0  0  0  0  0  0  0
  130.3120  125.9995   60.3623 H   0  0  0  0  0  0  0  0  0  0  0  0
  132.6551  122.4058   59.0544 H   0  0  0  0  0  0  0  0  0  0  0  0
  134.1753  121.4687   60.7908 H   0  0  0  0  0  0  0  0  0  0  0  0
  134.5009  122.6823   62.9393 H   0  0  0  0  0  0  0  0  0  0  0  0
  133.3033  124.8230   63.3709 H   0  0  0  0  0  0  0  0  0  0  0  0
  131.7748  125.7620   61.6383 H   0  0  0  0  0  0  0  0  0  0  0  0
  130.4117  120.8899   60.3665 H   0  0  0  0  0  0  0  0  0  0  0  0
  130.6562  121.1751   62.8378 H   0  0  0  0  0  0  0  0  0  0  0  0
  129.1498  122.6653   64.1014 H   0  0  0  0  0  0  0  0  0  0  0  0
  127.3182  123.9405   62.9588 H   0  0  0  0  0  0  0  0  0  0  0  0
  1  2  1  0
  2  3  1  0
  3  4  1  0
  4  5  1  0
  5  6  1  0
  6  7  1  0
  7  8  1  0
  8  9  1  0
  9 10  1  0
 10 11  2  0
 10 12  1  0
 12 13  1  0
 13 14  1  0
 14 15  2  0
 15 16  1  0
 16 17  2  0
 17 18  1  0
 18 19  2  0
  5 20  2  0
 20 21  1  0
 21 22  2  0
 22 23  1  0
 23 24  2  0
 24 25  1  0
 25 26  2  0
 26  4  1  0
 19 14  1  0
 26 21  1  0
  1 27  1  0
  1 28  1  0
  1 29  1  0
  2 30  1  0
  2 31  1  0
  3 32  1  0
  3 33  1  0
  6 34  1  0
  6 35  1  0
  7 36  1  0
  7 37  1  0
  8 38  1  0
  8 39  1  0
  9 40  1  0
 12 41  1  0
 12 42  1  0
 15 43  1  0
 16 44  1  0
 17 45  1  0
 18 46  1  0
 19 47  1  0
 22 48  1  0
 23 49  1  0
 24 50  1  0
 25 51  1  0
M  END
>  <Binding energies>  (1) 
[-5.79]

>  <Ligand effiencies>  (1) 
[-0.21444444444444444]

>  <Interactions>  (1) 
["V-A:ILE:369:CG2:3237, V-A:ILE:369:CD1:3239, V-B:GLU:543:CD:9880, V-B:GLU:543:CG:9879, V-A:LEU:475:CD2:4259, V-B:ALA:541:CB:9864, V-A:GLY:454:CA:4049, V-B:TYR:539:C:9839, V-B:PRO:540:CA:9855, V-B:PRO:540:CB:9857, V-B:PRO:540:N:9856, V-B:TYR:539:CZ:9849, V-B:TYR:539:CE2:9848, V-B:TYR:539:CD1:9845, V-B:TYR:539:CE1:9847, V-B:TYR:539:CD2:9846, V-B:ASN:362:CB:8147, H-B:TYR:539:OH:9850"]

$$$$
RR13_Rahimova_2017
     RDKit          3D

 84 90  0  0  0  0  0  0  0  0999 V2000
  129.2470  121.7870   62.0230 Cl  0  0  0  0  0  0  0  0  0  0  0  0
  130.9160  121.8760   61.5740 C   0  0  0  0  0  0  0  0  0  0  0  0
  131.4150  120.8870   60.7240 C   0  0  0  0  0  0  0  0  0  0  0  0
  132.7540  120.8910   60.3420 C   0  0  0  0  0  0  0  0  0  0  0  0
  133.6060  121.8870   60.8130 C   0  0  0  0  0  0  0  0  0  0  0  0
  133.1160  122.8780   61.6610 C   0  0  0  0  0  0  0  0  0  0  0  0
  131.7660  122.8970   62.0470 C   0  0  0  0  0  0  0  0  0  0  0  0
  131.2530  123.9920   63.0080 C   0  0  1  0  0  0  0  0  0  0  0  0
  132.3670  124.4580   63.9580 C   0  0  0  0  0  0  0  0  0  0  0  0
  133.6350  124.6290   63.6570 N   0  0  0  0  0  0  0  0  0  0  0  0
  134.2570  125.0290   64.8360 N   0  0  0  0  0  0  0  0  0  0  0  0
  133.3360  125.0780   65.8640 N   0  0  0  0  0  0  0  0  0  0  0  0
  132.1830  124.6980   65.3030 N   0  0  0  0  0  0  0  0  0  0  0  0
  130.9550  124.6650   66.0900 C   0  0  0  0  0  0  0  0  0  0  0  0
  130.0070  125.7950   65.6460 C   0  0  0  0  0  0  0  0  0  0  0  0
  129.4380  126.5650   66.8280 C   0  0  0  0  0  0  0  0  0  0  0  0
  128.7180  127.7430   66.6120 C   0  0  0  0  0  0  0  0  0  0  0  0
  128.2040  128.4510   67.6950 C   0  0  0  0  0  0  0  0  0  0  0  0
  128.4110  127.9780   68.9900 C   0  0  0  0  0  0  0  0  0  0  0  0
  129.1280  126.8050   69.2110 C   0  0  0  0  0  0  0  0  0  0  0  0
  129.6430  126.0960   68.1280 C   0  0  0  0  0  0  0  0  0  0  0  0
  130.5910  125.1230   62.3160 N   0  0  0  0  0  0  0  0  0  0  0  0
  131.3860  126.3570   62.4640 C   0  0  0  0  0  0  0  0  0  0  0  0
  130.7730  127.5080   61.6340 C   0  0  0  0  0  0  0  0  0  0  0  0
  129.4070  127.8090   62.0940 N   0  0  0  0  0  0  0  0  0  0  0  0
  128.8100  128.9620   61.3810 C   0  0  1  0  0  0  0  0  0  0  0  0
  127.3800  129.3490   61.8190 C   0  0  0  0  0  0  0  0  0  0  0  0
  127.1590  129.5310   63.1910 C   0  0  0  0  0  0  0  0  0  0  0  0
  125.9050  129.8980   63.6770 C   0  0  0  0  0  0  0  0  0  0  0  0
  124.8450  130.0830   62.7930 C   0  0  0  0  0  0  0  0  0  0  0  0
  125.0400  129.8910   61.4280 C   0  0  0  0  0  0  0  0  0  0  0  0
  126.2920  129.5200   60.9320 C   0  0  0  0  0  0  0  0  0  0  0  0
  126.4150  129.2380   59.2270 Cl  0  0  0  0  0  0  0  0  0  0  0  0
  129.7110  130.1990   61.3760 C   0  0  0  0  0  0  0  0  0  0  0  0
  129.6470  131.1920   62.2330 N   0  0  0  0  0  0  0  0  0  0  0  0
  130.6530  132.0790   61.8670 N   0  0  0  0  0  0  0  0  0  0  0  0
  131.3400  131.5910   60.7740 N   0  0  0  0  0  0  0  0  0  0  0  0
  130.7540  130.4180   60.5020 N   0  0  0  0  0  0  0  0  0  0  0  0
  131.2150  129.6170   59.3730 C   0  0  0  0  0  0  0  0  0  0  0  0
  130.0930  129.4620   58.3300 C   0  0  0  0  0  0  0  0  0  0  0  0
  129.8060  130.7630   57.5980 C   0  0  0  0  0  0  0  0  0  0  0  0
  128.4900  131.1160   57.2900 C   0  0  0  0  0  0  0  0  0  0  0  0
  128.2270  132.3110   56.6260 C   0  0  0  0  0  0  0  0  0  0  0  0
  129.2830  133.1500   56.2700 C   0  0  0  0  0  0  0  0  0  0  0  0
  130.5980  132.8030   56.5750 C   0  0  0  0  0  0  0  0  0  0  0  0
  130.8610  131.6090   57.2400 C   0  0  0  0  0  0  0  0  0  0  0  0
  128.6150  126.5760   61.9390 C   0  0  0  0  0  0  0  0  0  0  0  0
  129.2270  125.4310   62.7790 C   0  0  0  0  0  0  0  0  0  0  0  0
  130.7445  120.0979   60.3529 H   0  0  0  0  0  0  0  0  0  0  0  0
  133.1379  120.1094   59.6699 H   0  0  0  0  0  0  0  0  0  0  0  0
  134.6651  121.8913   60.5157 H   0  0  0  0  0  0  0  0  0  0  0  0
  133.7970  123.6573   62.0338 H   0  0  0  0  0  0  0  0  0  0  0  0
  130.4628  123.5292   63.6174 H   0  0  0  0  0  0  0  0  0  0  0  0
  130.4568  123.6950   65.9452 H   0  0  0  0  0  0  0  0  0  0  0  0
  131.2059  124.8040   67.1519 H   0  0  0  0  0  0  0  0  0  0  0  0
  130.5640  126.4929   65.0036 H   0  0  0  0  0  0  0  0  0  0  0  0
  129.1660  125.3372   65.1047 H   0  0  0  0  0  0  0  0  0  0  0  0
  128.5576  128.1104   65.5877 H   0  0  0  0  0  0  0  0  0  0  0  0
  127.6373  129.3792   67.5297 H   0  0  0  0  0  0  0  0  0  0  0  0
  128.0039  128.5369   69.8455 H   0  0  0  0  0  0  0  0  0  0  0  0
  129.2871  126.4397   70.2363 H   0  0  0  0  0  0  0  0  0  0  0  0
  130.2101  125.1685   68.2961 H   0  0  0  0  0  0  0  0  0  0  0  0
  131.4059  126.6481   63.5246 H   0  0  0  0  0  0  0  0  0  0  0  0
  132.4062  126.1648   62.1004 H   0  0  0  0  0  0  0  0  0  0  0  0
  131.3980  128.4064   61.7452 H   0  0  0  0  0  0  0  0  0  0  0  0
  130.7319  127.2009   60.5785 H   0  0  0  0  0  0  0  0  0  0  0  0
  128.7207  128.5832   60.3522 H   0  0  0  0  0  0  0  0  0  0  0  0
  127.9895  129.3816   63.8966 H   0  0  0  0  0  0  0  0  0  0  0  0
  125.7531  130.0412   64.7570 H   0  0  0  0  0  0  0  0  0  0  0  0
  123.8561  130.3801   63.1723 H   0  0  0  0  0  0  0  0  0  0  0  0
  124.1994  130.0329   60.7328 H   0  0  0  0  0  0  0  0  0  0  0  0
  132.0783  130.1130   58.9054 H   0  0  0  0  0  0  0  0  0  0  0  0
  131.5031  128.6199   59.7374 H   0  0  0  0  0  0  0  0  0  0  0  0
  130.3950  128.7012   57.5952 H   0  0  0  0  0  0  0  0  0  0  0  0
  129.1769  129.1641   58.8611 H   0  0  0  0  0  0  0  0  0  0  0  0
  127.6615  130.4497   57.5721 H   0  0  0  0  0  0  0  0  0  0  0  0
  127.1916  132.5922   56.3833 H   0  0  0  0  0  0  0  0  0  0  0  0
  129.0761  134.0937   55.7440 H   0  0  0  0  0  0  0  0  0  0  0  0
  131.4250  133.4705   56.2911 H   0  0  0  0  0  0  0  0  0  0  0  0
  131.8970  131.3309   57.4837 H   0  0  0  0  0  0  0  0  0  0  0  0
  127.5849  126.7624   62.2769 H   0  0  0  0  0  0  0  0  0  0  0  0
  128.6186  126.2813   60.8792 H   0  0  0  0  0  0  0  0  0  0  0  0
  129.2637  125.7366   63.8351 H   0  0  0  0  0  0  0  0  0  0  0  0
  128.6017  124.5332   62.6653 H   0  0  0  0  0  0  0  0  0  0  0  0
  1  2  1  0
  2  3  2  0
  3  4  1  0
  4  5  2  0
  5  6  1  0
  6  7  2  0
  7  8  1  0
  8  9  1  0
  9 10  2  0
 10 11  1  0
 11 12  2  0
 12 13  1  0
 13 14  1  0
 14 15  1  0
 15 16  1  0
 16 17  2  0
 17 18  1  0
 18 19  2  0
 19 20  1  0
 20 21  2  0
  8 22  1  0
 22 23  1  0
 23 24  1  0
 24 25  1  0
 25 26  1  0
 26 27  1  0
 27 28  2  0
 28 29  1  0
 29 30  2  0
 30 31  1  0
 31 32  2  0
 32 33  1  0
 26 34  1  0
 34 35  2  0
 35 36  1  0
 36 37  2  0
 37 38  1  0
 38 39  1  0
 39 40  1  0
 40 41  1  0
 41 42  2  0
 42 43  1  0
 43 44  2  0
 44 45  1  0
 45 46  2  0
 25 47  1  0
 47 48  1  0
  7  2  1  0
 13  9  1  0
 21 16  1  0
 48 22  1  0
 32 27  1  0
 38 34  1  0
 46 41  1  0
  3 49  1  0
  4 50  1  0
  5 51  1  0
  6 52  1  0
  8 53  1  1
 14 54  1  0
 14 55  1  0
 15 56  1  0
 15 57  1  0
 17 58  1  0
 18 59  1  0
 19 60  1  0
 20 61  1  0
 21 62  1  0
 23 63  1  0
 23 64  1  0
 24 65  1  0
 24 66  1  0
 26 67  1  6
 28 68  1  0
 29 69  1  0
 30 70  1  0
 31 71  1  0
 39 72  1  0
 39 73  1  0
 40 74  1  0
 40 75  1  0
 42 76  1  0
 43 77  1  0
 44 78  1  0
 45 79  1  0
 46 80  1  0
 47 81  1  0
 47 82  1  0
 48 83  1  0
 48 84  1  0
M  END
>  <Binding energies>  (1) 
[-11.69]

>  <Ligand effiencies>  (1) 
[-0.24354166666666666]

>  <Interactions>  (1) 
["V-A:ILE:369:CG2:3237, V-A:ILE:369:CD1:3239, V-B:GLU:543:CD:9880, H-A:ARG:545:NH1:4927, H-A:ARG:545:NH2:4928, H-A:GLY:454:N:4050, V-A:ASP:366:CG:3213, H-A:TYR:484:OH:4348, V-B:GLU:543:CG:9879, H-A:ARG:545:NE:4924, V-A:GLU:543:CD:4908, V-A:LEU:475:CD2:4259, V-A:HIS:456:CE1:4070, V-B:ALA:541:CB:9864, V-B:ASP:366:CG:8184, V-B:TYR:539:CE2:9848, V-A:MET:535:CE:4835, V-B:TYR:539:CD2:9846, V-A:TYR:484:CE2:4346, V-A:TYR:484:CZ:4347, V-B:GLU:543:CB:9878, V-A:GLU:543:CB:4906, V-B:HIS:456:CE1:9041, V-B:ARG:545:CZ:9898, V-A:GLU:543:CG:4907, V-A:TYR:539:CE1:4875, H-A:ALA:541:N:4891, V-A:TYR:539:CZ:4877, V-A:TYR:539:CG:4872, V-A:TYR:539:CD1:4873, V-A:ILE:538:CB:4862, V-A:ILE:538:CA:4860, V-A:ILE:538:C:4858"]

$$$$
RR14_Rahimova_2017
     RDKit          3D

 76 80  0  0  0  0  0  0  0  0999 V2000
  130.9850  132.8730   56.4040 C   0  0  0  0  0  0  0  0  0  0  0  0
  130.1550  133.4360   57.4140 O   0  0  0  0  0  0  0  0  0  0  0  0
  129.8330  132.6740   58.5220 C   0  0  0  0  0  0  0  0  0  0  0  0
  130.8540  131.8860   59.0530 C   0  0  0  0  0  0  0  0  0  0  0  0
  130.6170  131.0670   60.1530 C   0  0  0  0  0  0  0  0  0  0  0  0
  129.3470  131.0260   60.7320 C   0  0  0  0  0  0  0  0  0  0  0  0
  129.0660  130.0820   61.8950 C   0  0  0  0  0  0  0  0  0  0  0  0
  128.6830  130.7770   63.1240 N   0  0  0  0  0  0  0  0  0  0  0  0
  128.7810  132.1080   63.2070 N   0  0  0  0  0  0  0  0  0  0  0  0
  128.3720  132.4110   64.4910 N   0  0  0  0  0  0  0  0  0  0  0  0
  128.0360  131.2450   65.1730 N   0  0  0  0  0  0  0  0  0  0  0  0
  128.2390  130.2650   64.3250 C   0  0  0  0  0  0  0  0  0  0  0  0
  128.0320  128.7870   64.6260 C   0  0  0  0  0  0  0  0  0  0  0  0
  128.7620  128.3500   65.8280 N   0  0  0  0  0  0  0  0  0  0  0  0
  128.2090  128.9440   67.0520 C   0  0  0  0  0  0  0  0  0  0  0  0
  128.2590  127.9950   68.2700 C   0  0  0  0  0  0  0  0  0  0  0  0
  129.3720  128.3430   69.2810 C   0  0  0  0  0  0  0  0  0  0  0  0
  129.0400  127.9700   70.6600 N   0  0  0  0  0  0  0  0  0  0  0  0
  130.2580  127.6190   71.4000 C   0  0  0  0  0  0  0  0  0  0  0  0
  129.9390  127.1710   72.8430 C   0  0  0  0  0  0  0  0  0  0  0  0
  128.9920  126.1080   72.8260 O   0  0  0  0  0  0  0  0  0  0  0  0
  127.7680  126.4860   72.2080 C   0  0  0  0  0  0  0  0  0  0  0  0
  128.0210  126.9120   70.7450 C   0  0  0  0  0  0  0  0  0  0  0  0
  128.7540  126.8830   65.9180 C   0  0  0  0  0  0  0  0  0  0  0  0
  129.8020  126.1540   65.0810 C   0  0  0  0  0  0  0  0  0  0  0  0
  130.0860  126.5500   63.8160 C   0  0  0  0  0  0  0  0  0  0  0  0
  131.0670  125.8380   62.9700 C   0  0  0  0  0  0  0  0  0  0  0  0
  131.4000  126.2330   61.6640 C   0  0  0  0  0  0  0  0  0  0  0  0
  130.7600  127.4520   61.0110 C   0  0  0  0  0  0  0  0  0  0  0  0
  132.3430  125.4910   60.9490 C   0  0  0  0  0  0  0  0  0  0  0  0
  132.9490  124.3720   61.5190 C   0  0  0  0  0  0  0  0  0  0  0  0
  132.6260  123.9730   62.8190 C   0  0  0  0  0  0  0  0  0  0  0  0
  133.3080  122.7480   63.4150 C   0  0  0  0  0  0  0  0  0  0  0  0
  131.6800  124.7110   63.5460 C   0  0  0  0  0  0  0  0  0  0  0  0
  131.3200  124.3440   64.8600 N   0  0  0  0  0  0  0  0  0  0  0  0
  130.4280  124.9660   65.6710 C   0  0  0  0  0  0  0  0  0  0  0  0
  130.1970  124.5270   66.7970 O   0  0  0  0  0  0  0  0  0  0  0  0
  128.3270  131.8340   60.2260 C   0  0  0  0  0  0  0  0  0  0  0  0
  128.5650  132.6510   59.1250 C   0  0  0  0  0  0  0  0  0  0  0  0
  131.8078  132.3149   56.8746 H   0  0  0  0  0  0  0  0  0  0  0  0
  130.3901  132.1912   55.7784 H   0  0  0  0  0  0  0  0  0  0  0  0
  131.3985  133.6778   55.7784 H   0  0  0  0  0  0  0  0  0  0  0  0
  131.8553  131.9121   58.5984 H   0  0  0  0  0  0  0  0  0  0  0  0
  131.4300  130.4520   60.5663 H   0  0  0  0  0  0  0  0  0  0  0  0
  128.2475  129.4062   61.6064 H   0  0  0  0  0  0  0  0  0  0  0  0
  129.9982  129.5372   62.1054 H   0  0  0  0  0  0  0  0  0  0  0  0
  126.9581  128.6050   64.7796 H   0  0  0  0  0  0  0  0  0  0  0  0
  128.4205  128.2136   63.7714 H   0  0  0  0  0  0  0  0  0  0  0  0
  128.7855  129.8497   67.2915 H   0  0  0  0  0  0  0  0  0  0  0  0
  127.1496  129.1659   66.8559 H   0  0  0  0  0  0  0  0  0  0  0  0
  127.2904  128.0443   68.7889 H   0  0  0  0  0  0  0  0  0  0  0  0
  128.4773  126.9880   67.8848 H   0  0  0  0  0  0  0  0  0  0  0  0
  130.2894  127.8121   68.9869 H   0  0  0  0  0  0  0  0  0  0  0  0
  129.5008  129.4352   69.2608 H   0  0  0  0  0  0  0  0  0  0  0  0
  130.7693  126.7978   70.8764 H   0  0  0  0  0  0  0  0  0  0  0  0
  130.8981  128.5121   71.4513 H   0  0  0  0  0  0  0  0  0  0  0  0
  130.8634  126.8273   73.3302 H   0  0  0  0  0  0  0  0  0  0  0  0
  129.5170  128.0209   73.3994 H   0  0  0  0  0  0  0  0  0  0  0  0
  127.0739  125.6327   72.2236 H   0  0  0  0  0  0  0  0  0  0  0  0
  127.3330  127.3327   72.7593 H   0  0  0  0  0  0  0  0  0  0  0  0
  128.3647  126.0379   70.1725 H   0  0  0  0  0  0  0  0  0  0  0  0
  127.0801  127.3050   70.3323 H   0  0  0  0  0  0  0  0  0  0  0  0
  128.9154  126.6098   66.9713 H   0  0  0  0  0  0  0  0  0  0  0  0
  127.7808  126.5671   65.5142 H   0  0  0  0  0  0  0  0  0  0  0  0
  129.5694  127.4302   63.4056 H   0  0  0  0  0  0  0  0  0  0  0  0
  130.3994  128.1388   61.7909 H   0  0  0  0  0  0  0  0  0  0  0  0
  131.5045  127.9661   60.3854 H   0  0  0  0  0  0  0  0  0  0  0  0
  129.9141  127.1311   60.3854 H   0  0  0  0  0  0  0  0  0  0  0  0
  132.6104  125.7926   59.9255 H   0  0  0  0  0  0  0  0  0  0  0  0
  133.6879  123.7981   60.9404 H   0  0  0  0  0  0  0  0  0  0  0  0
  133.2748  122.8077   64.5129 H   0  0  0  0  0  0  0  0  0  0  0  0
  132.7861  121.8390   63.0812 H   0  0  0  0  0  0  0  0  0  0  0  0
  134.3555  122.7128   63.0812 H   0  0  0  0  0  0  0  0  0  0  0  0
  131.7560  123.5290   65.2630 H   0  0  0  0  0  0  0  0  0  0  0  0
  127.3337  131.8247   60.6984 H   0  0  0  0  0  0  0  0  0  0  0  0
  127.7568  133.2812   58.7255 H   0  0  0  0  0  0  0  0  0  0  0  0
  1  2  1  0
  2  3  1  0
  3  4  2  0
  4  5  1  0
  5  6  2  0
  6  7  1  0
  7  8  1  0
  8  9  1  0
  9 10  2  0
 10 11  1  0
 11 12  2  0
 12 13  1  0
 13 14  1  0
 14 15  1  0
 15 16  1  0
 16 17  1  0
 17 18  1  0
 18 19  1  0
 19 20  1  0
 20 21  1  0
 21 22  1  0
 22 23  1  0
 14 24  1  0
 24 25  1  0
 25 26  2  0
 26 27  1  0
 27 28  2  0
 28 29  1  0
 28 30  1  0
 30 31  2  0
 31 32  1  0
 32 33  1  0
 32 34  2  0
 34 35  1  0
 35 36  1  0
 36 37  2  0
  6 38  1  0
 38 39  2  0
 39  3  1  0
 12  8  1  0
 23 18  1  0
 36 25  1  0
 34 27  1  0
  1 40  1  0
  1 41  1  0
  1 42  1  0
  4 43  1  0
  5 44  1  0
  7 45  1  0
  7 46  1  0
 13 47  1  0
 13 48  1  0
 15 49  1  0
 15 50  1  0
 16 51  1  0
 16 52  1  0
 17 53  1  0
 17 54  1  0
 19 55  1  0
 19 56  1  0
 20 57  1  0
 20 58  1  0
 22 59  1  0
 22 60  1  0
 23 61  1  0
 23 62  1  0
 24 63  1  0
 24 64  1  0
 26 65  1  0
 29 66  1  0
 29 67  1  0
 29 68  1  0
 30 69  1  0
 31 70  1  0
 33 71  1  0
 33 72  1  0
 33 73  1  0
 35 74  1  0
 38 75  1  0
 39 76  1  0
M  END
>  <Binding energies>  (1) 
[-10.13]

>  <Ligand effiencies>  (1) 
[-0.25325000000000003]

>  <Interactions>  (1) 
["V-B:GLU:543:CD:9880, V-A:ASP:366:CG:3213, H-A:TYR:484:OH:4348, V-B:GLU:543:CG:9879, V-A:GLU:543:CD:4908, V-A:LEU:475:CD2:4259, V-A:HIS:456:CE1:4070, V-A:GLY:454:CA:4049, V-A:GLU:543:C:4902, V-B:GLU:543:C:9874, V-A:HIS:456:CD2:4068, V-B:GLU:543:CB:9878, V-A:GLU:543:CB:4906, V-B:HIS:456:CE1:9041, V-B:GLY:544:C:9884, V-B:GLY:544:CA:9886, V-A:GLU:543:CG:4907, H-B:TYR:484:OH:9319, V-B:LYS:547:CE:9922, V-A:PRO:540:CA:4883, V-A:PRO:540:CB:4885, V-A:PRO:540:N:4884, V-A:TYR:539:CE1:4875, V-A:TYR:539:CD1:4873, H-A:TYR:539:N:4870, V-A:TYR:539:C:4867, H-B:LYS:547:NZ:9923, V-A:ILE:538:CB:4862, V-A:ILE:538:CA:4860, V-A:ILE:538:CG2:4863"]

$$$$
RR15_Rahimova_2017
     RDKit          3D

 85 89  0  0  0  0  0  0  0  0999 V2000
  131.6450  126.8550   73.7060 C   0  0  0  0  0  0  0  0  0  0  0  0
  130.2970  126.8670   73.2500 O   0  0  0  0  0  0  0  0  0  0  0  0
  130.0240  127.2170   71.9390 C   0  0  0  0  0  0  0  0  0  0  0  0
  131.0000  127.6610   71.0340 C   0  0  0  0  0  0  0  0  0  0  0  0
  130.6570  127.9990   69.7270 C   0  0  0  0  0  0  0  0  0  0  0  0
  129.3320  127.9060   69.2870 C   0  0  0  0  0  0  0  0  0  0  0  0
  128.9610  128.2780   67.8780 C   0  0  0  0  0  0  0  0  0  0  0  0
  128.5430  129.4900   67.5390 N   0  0  0  0  0  0  0  0  0  0  0  0
  128.2950  129.4420   66.1830 N   0  0  0  0  0  0  0  0  0  0  0  0
  128.6350  128.1980   65.8440 N   0  0  0  0  0  0  0  0  0  0  0  0
  128.3750  127.6590   64.5100 C   0  0  0  0  0  0  0  0  0  0  0  0
  129.4090  126.6150   64.0190 C   0  0  0  0  0  0  0  0  0  0  0  0
  129.8940  125.8410   64.8480 O   0  0  0  0  0  0  0  0  0  0  0  0
  129.7330  126.5550   62.6910 N   0  0  0  0  0  0  0  0  0  0  0  0
  128.7150  126.2470   61.6660 C   0  0  0  0  0  0  0  0  0  0  0  0
  128.7530  124.7820   61.1790 C   0  0  0  0  0  0  0  0  0  0  0  0
  127.3820  124.2030   60.7570 C   0  0  0  0  0  0  0  0  0  0  0  0
  127.2900  123.8870   59.3280 N   0  0  0  0  0  0  0  0  0  0  0  0
  128.1030  122.7290   58.9280 C   0  0  0  0  0  0  0  0  0  0  0  0
  127.9040  122.3880   57.4350 C   0  0  0  0  0  0  0  0  0  0  0  0
  126.5210  122.1980   57.1550 O   0  0  0  0  0  0  0  0  0  0  0  0
  125.7450  123.3550   57.4450 C   0  0  0  0  0  0  0  0  0  0  0  0
  125.8830  123.7210   58.9390 C   0  0  0  0  0  0  0  0  0  0  0  0
  131.0600  126.9770   62.1480 C   0  0  2  0  0  0  0  0  0  0  0  0
  130.9710  127.8870   60.8830 C   0  0  0  0  0  0  0  0  0  0  0  0
  130.8440  127.4010   59.7590 O   0  0  0  0  0  0  0  0  0  0  0  0
  131.0000  129.2110   61.1150 N   0  0  0  0  0  0  0  0  0  0  0  0
  130.8290  130.2490   60.1050 C   0  0  0  0  0  0  0  0  0  0  0  0
  131.4970  131.5660   60.5410 C   0  0  2  0  0  0  0  0  0  0  0  0
  133.0230  131.6260   60.3550 C   0  0  0  0  0  0  0  0  0  0  0  0
  133.5830  131.3790   61.7360 C   0  0  0  0  0  0  0  0  0  0  0  0
  132.5260  132.0330   62.6080 C   0  0  0  0  0  0  0  0  0  0  0  0
  131.3160  131.6540   61.9620 O   0  0  0  0  0  0  0  0  0  0  0  0
  132.0210  125.7950   62.0950 C   0  0  0  0  0  0  0  0  0  0  0  0
  132.4310  125.2240   63.3060 C   0  0  0  0  0  0  0  0  0  0  0  0
  133.3070  124.1430   63.3190 C   0  0  0  0  0  0  0  0  0  0  0  0
  133.7800  123.6220   62.1180 C   0  0  0  0  0  0  0  0  0  0  0  0
  134.6300  122.5710   62.1310 F   0  0  0  0  0  0  0  0  0  0  0  0
  133.3820  124.1750   60.9040 C   0  0  0  0  0  0  0  0  0  0  0  0
  132.5060  125.2580   60.8920 C   0  0  0  0  0  0  0  0  0  0  0  0
  129.0160  127.4280   66.8700 N   0  0  0  0  0  0  0  0  0  0  0  0
  128.3610  127.4600   70.1930 C   0  0  0  0  0  0  0  0  0  0  0  0
  128.6910  127.1120   71.5130 C   0  0  0  0  0  0  0  0  0  0  0  0
  127.7690  126.6630   72.4430 O   0  0  0  0  0  0  0  0  0  0  0  0
  126.9520  127.6030   73.1330 C   0  0  0  0  0  0  0  0  0  0  0  0
  131.6600  126.8549   74.8059 H   0  0  0  0  0  0  0  0  0  0  0  0
  132.1505  125.9523   73.3323 H   0  0  0  0  0  0  0  0  0  0  0  0
  132.1665  127.7485   73.3323 H   0  0  0  0  0  0  0  0  0  0  0  0
  132.0473  127.7430   71.3602 H   0  0  0  0  0  0  0  0  0  0  0  0
  131.4373  128.3432   69.0323 H   0  0  0  0  0  0  0  0  0  0  0  0
  127.3845  127.1807   64.5211 H   0  0  0  0  0  0  0  0  0  0  0  0
  128.4384  128.5089   63.8145 H   0  0  0  0  0  0  0  0  0  0  0  0
  127.7207  126.4463   62.0922 H   0  0  0  0  0  0  0  0  0  0  0  0
  128.9312  126.8827   60.7947 H   0  0  0  0  0  0  0  0  0  0  0  0
  129.4290  124.7267   60.3130 H   0  0  0  0  0  0  0  0  0  0  0  0
  129.0934  124.1800   62.0344 H   0  0  0  0  0  0  0  0  0  0  0  0
  127.2038  123.2804   61.3288 H   0  0  0  0  0  0  0  0  0  0  0  0
  126.6286  124.9773   60.9641 H   0  0  0  0  0  0  0  0  0  0  0  0
  129.1642  122.9591   59.1040 H   0  0  0  0  0  0  0  0  0  0  0  0
  127.7867  121.8615   59.5258 H   0  0  0  0  0  0  0  0  0  0  0  0
  128.2895  123.2138   56.8190 H   0  0  0  0  0  0  0  0  0  0  0  0
  128.4483  121.4608   57.2026 H   0  0  0  0  0  0  0  0  0  0  0  0
  126.0992  124.1952   56.8296 H   0  0  0  0  0  0  0  0  0  0  0  0
  124.6885  123.1477   57.2195 H   0  0  0  0  0  0  0  0  0  0  0  0
  125.3473  124.6633   59.1265 H   0  0  0  0  0  0  0  0  0  0  0  0
  125.4561  122.9008   59.5348 H   0  0  0  0  0  0  0  0  0  0  0  0
  131.5236  127.6771   62.8586 H   0  0  0  0  0  0  0  0  0  0  0  0
  131.0780  129.5300   62.0700 H   0  0  0  0  0  0  0  0  0  0  0  0
  131.2841  129.9108   59.1624 H   0  0  0  0  0  0  0  0  0  0  0  0
  129.7524  130.4319   59.9724 H   0  0  0  0  0  0  0  0  0  0  0  0
  131.0440  132.3578   59.9264 H   0  0  0  0  0  0  0  0  0  0  0  0
  133.3600  130.8481   59.6540 H   0  0  0  0  0  0  0  0  0  0  0  0
  133.3554  132.5867   59.9348 H   0  0  0  0  0  0  0  0  0  0  0  0
  133.6708  130.3033   61.9483 H   0  0  0  0  0  0  0  0  0  0  0  0
  134.5985  131.7738   61.8872 H   0  0  0  0  0  0  0  0  0  0  0  0
  132.5650  131.6467   63.6372 H   0  0  0  0  0  0  0  0  0  0  0  0
  132.6492  133.1218   62.7042 H   0  0  0  0  0  0  0  0  0  0  0  0
  132.0571  125.6338   64.2559 H   0  0  0  0  0  0  0  0  0  0  0  0
  133.6247  123.7016   64.2752 H   0  0  0  0  0  0  0  0  0  0  0  0
  133.7578  123.7584   59.9579 H   0  0  0  0  0  0  0  0  0  0  0  0
  132.1920  125.6956   59.9329 H   0  0  0  0  0  0  0  0  0  0  0  0
  127.3148  127.3804   69.8625 H   0  0  0  0  0  0  0  0  0  0  0  0
  127.0713  127.4657   74.2179 H   0  0  0  0  0  0  0  0  0  0  0  0
  127.2546  128.6239   72.8571 H   0  0  0  0  0  0  0  0  0  0  0  0
  125.8989  127.4456   72.8571 H   0  0  0  0  0  0  0  0  0  0  0  0
  1  2  1  0
  2  3  1  0
  3  4  2  0
  4  5  1  0
  5  6  2  0
  6  7  1  0
  7  8  1  0
  8  9  2  0
  9 10  1  0
 10 11  1  0
 11 12  1  0
 12 13  2  0
 12 14  1  0
 14 15  1  0
 15 16  1  0
 16 17  1  0
 17 18  1  0
 18 19  1  0
 19 20  1  0
 20 21  1  0
 21 22  1  0
 22 23  1  0
 14 24  1  0
 24 25  1  0
 25 26  2  0
 25 27  1  0
 27 28  1  0
 28 29  1  0
 29 30  1  0
 30 31  1  0
 31 32  1  0
 32 33  1  0
 24 34  1  0
 34 35  2  0
 35 36  1  0
 36 37  2  0
 37 38  1  0
 37 39  1  0
 39 40  2  0
 10 41  1  0
  6 42  1  0
 42 43  2  0
 43 44  1  0
 44 45  1  0
 43  3  1  0
 41  7  2  0
 23 18  1  0
 33 29  1  0
 40 34  1  0
  1 46  1  0
  1 47  1  0
  1 48  1  0
  4 49  1  0
  5 50  1  0
 11 51  1  0
 11 52  1  0
 15 53  1  0
 15 54  1  0
 16 55  1  0
 16 56  1  0
 17 57  1  0
 17 58  1  0
 19 59  1  0
 19 60  1  0
 20 61  1  0
 20 62  1  0
 22 63  1  0
 22 64  1  0
 23 65  1  0
 23 66  1  0
 24 67  1  1
 27 68  1  0
 28 69  1  0
 28 70  1  0
 29 71  1  6
 30 72  1  0
 30 73  1  0
 31 74  1  0
 31 75  1  0
 32 76  1  0
 32 77  1  0
 35 78  1  0
 36 79  1  0
 39 80  1  0
 40 81  1  0
 42 82  1  0
 45 83  1  0
 45 84  1  0
 45 85  1  0
M  END
>  <Binding energies>  (1) 
[-9.39]

>  <Ligand effiencies>  (1) 
[-0.2041304347826087]

>  <Interactions>  (1) 
["V-A:ILE:369:CG2:3237, V-A:ILE:369:CD1:3239, V-A:GLY:453:C:4042, V-B:GLU:543:CD:9880, V-A:ASP:366:CG:3213, H-A:GLU:543:OE1:4909, V-B:GLU:543:CG:9879, V-A:GLU:543:CD:4908, V-A:ARG:545:CZ:4926, V-A:HIS:456:CE1:4070, V-A:GLY:454:CA:4049, V-B:TYR:539:C:9839, V-B:PRO:540:CA:9855, V-B:PRO:540:CB:9857, V-B:PRO:540:N:9856, V-B:TYR:539:CZ:9849, V-B:TYR:539:CE2:9848, V-B:TYR:539:CD1:9845, V-B:TYR:539:CA:9841, H-B:TYR:539:N:9842, V-B:TYR:539:CE1:9847, V-B:TYR:539:CD2:9846, V-B:TYR:539:CG:9844, V-A:GLU:543:C:4902, V-A:HIS:456:CD2:4068, V-A:HIS:456:CG:4066, V-A:GLY:544:C:4912, V-A:GLU:543:CB:4906, V-B:HIS:456:CD2:9039, V-B:HIS:456:CE1:9041, V-B:GLY:544:C:9884, V-A:GLU:543:CG:4907, H-B:TYR:484:OH:9319, V-B:LYS:547:CE:9922, V-B:HIS:456:CG:9037, V-A:PRO:540:CA:4883, V-A:PRO:540:CB:4885, H-A:ALA:541:N:4891, V-A:LEU:363:CA:3185, V-A:PRO:540:C:4881, H-B:LYS:547:NZ:9923, H-A:ASP:366:OD2:3215, V-A:ALA:541:CA:4890, V-A:ASN:362:C:3172, V-A:ASN:362:CB:3176, V-A:ALA:541:C:4888"]

$$$$
RR16_Rahimova_2017
     RDKit          3D

 80 85  0  0  0  0  0  0  0  0999 V2000
  123.7620  130.5870   62.0910 O   0  0  0  0  0  0  0  0  0  0  0  0
  124.8460  131.4790   62.5180 S   0  0  0  0  0  0  0  0  0  0  0  0
  124.5720  132.8700   62.8960 O   0  0  0  0  0  0  0  0  0  0  0  0
  126.0620  131.4880   61.2390 N   0  0  0  0  0  0  0  0  0  0  0  0
  125.7670  130.9180   59.9040 C   0  0  0  0  0  0  0  0  0  0  0  0
  124.5040  131.6060   59.3240 C   0  0  0  0  0  0  0  0  0  0  0  0
  123.7000  130.8310   58.2630 C   0  0  0  0  0  0  0  0  0  0  0  0
  124.3190  130.8750   56.8550 C   0  0  0  0  0  0  0  0  0  0  0  0
  125.8160  130.5240   56.7700 C   0  0  0  0  0  0  0  0  0  0  0  0
  126.7940  131.4120   57.5650 C   0  0  0  0  0  0  0  0  0  0  0  0
  127.0430  131.0190   59.0350 C   0  0  0  0  0  0  0  0  0  0  0  0
  125.6590  130.6840   63.8990 C   0  0  0  0  0  0  0  0  0  0  0  0
  127.0410  130.7970   64.0650 C   0  0  0  0  0  0  0  0  0  0  0  0
  127.6760  130.0740   65.0710 C   0  0  0  0  0  0  0  0  0  0  0  0
  126.9270  129.2430   65.9070 C   0  0  0  0  0  0  0  0  0  0  0  0
  127.7560  128.2060   67.1090 S   0  0  0  0  0  0  0  0  0  0  0  0
  126.7200  127.4580   67.8330 O   0  0  0  0  0  0  0  0  0  0  0  0
  128.7070  129.0530   67.8400 O   0  0  0  0  0  0  0  0  0  0  0  0
  128.6840  127.0580   66.1240 N   0  0  0  0  0  0  0  0  0  0  0  0
  129.0320  127.5520   64.7660 C   0  0  0  0  0  0  0  0  0  0  0  0
  129.5510  126.3960   63.8880 C   0  0  0  0  0  0  0  0  0  0  0  0
  130.7130  125.6330   64.5700 C   0  0  0  0  0  0  0  0  0  0  0  0
  131.2120  124.4510   63.7330 C   0  0  0  0  0  0  0  0  0  0  0  0
  132.5880  124.1990   63.6360 C   0  0  0  0  0  0  0  0  0  0  0  0
  133.0860  123.1290   62.8920 C   0  0  0  0  0  0  0  0  0  0  0  0
  134.4350  122.8960   62.8110 O   0  0  0  0  0  0  0  0  0  0  0  0
  132.1690  122.2960   62.2340 C   0  0  0  0  0  0  0  0  0  0  0  0
  132.3590  121.1860   61.4630 N   0  0  0  0  0  0  0  0  0  0  0  0
  131.1170  120.7270   61.0840 N   0  0  0  0  0  0  0  0  0  0  0  0
  130.1840  121.5650   61.5760 N   0  0  0  0  0  0  0  0  0  0  0  0
  128.7680  121.2730   61.3990 C   0  0  0  0  0  0  0  0  0  0  0  0
  128.0320  122.3690   60.6420 C   0  0  0  0  0  0  0  0  0  0  0  0
  127.3470  123.3680   61.3430 C   0  0  0  0  0  0  0  0  0  0  0  0
  126.6900  124.3860   60.6510 C   0  0  0  0  0  0  0  0  0  0  0  0
  126.7150  124.4120   59.2560 C   0  0  0  0  0  0  0  0  0  0  0  0
  127.3970  123.4200   58.5520 C   0  0  0  0  0  0  0  0  0  0  0  0
  127.4390  123.4550   56.8270 Cl  0  0  0  0  0  0  0  0  0  0  0  0
  128.0520  122.3980   59.2430 C   0  0  0  0  0  0  0  0  0  0  0  0
  130.7820  122.5620   62.3300 C   0  0  0  0  0  0  0  0  0  0  0  0
  130.2820  123.6360   63.0720 C   0  0  0  0  0  0  0  0  0  0  0  0
  130.3790  125.2360   66.0310 C   0  0  0  0  0  0  0  0  0  0  0  0
  129.8240  126.4260   66.8390 C   0  0  0  0  0  0  0  0  0  0  0  0
  125.5390  129.1640   65.7660 C   0  0  0  0  0  0  0  0  0  0  0  0
  124.9050  129.8830   64.7590 C   0  0  0  0  0  0  0  0  0  0  0  0
  126.7690  132.2270   61.2740 H   0  0  0  0  0  0  0  0  0  0  0  0
  125.5161  129.8478   59.9452 H   0  0  0  0  0  0  0  0  0  0  0  0
  123.8261  131.8144   60.1648 H   0  0  0  0  0  0  0  0  0  0  0  0
  124.8836  132.4938   58.7970 H   0  0  0  0  0  0  0  0  0  0  0  0
  123.6333  129.7795   58.5791 H   0  0  0  0  0  0  0  0  0  0  0  0
  122.7147  131.3150   58.1933 H   0  0  0  0  0  0  0  0  0  0  0  0
  123.7689  130.1631   56.2221 H   0  0  0  0  0  0  0  0  0  0  0  0
  124.2382  131.9214   56.5256 H   0  0  0  0  0  0  0  0  0  0  0  0
  125.9353  129.4927   57.1335 H   0  0  0  0  0  0  0  0  0  0  0  0
  126.0845  130.6805   55.7148 H   0  0  0  0  0  0  0  0  0  0  0  0
  127.7630  131.3902   57.0448 H   0  0  0  0  0  0  0  0  0  0  0  0
  126.3186  132.4031   57.6059 H   0  0  0  0  0  0  0  0  0  0  0  0
  127.5440  130.0398   59.0474 H   0  0  0  0  0  0  0  0  0  0  0  0
  127.6526  131.8236   59.4719 H   0  0  0  0  0  0  0  0  0  0  0  0
  127.6251  131.4542   63.4040 H   0  0  0  0  0  0  0  0  0  0  0  0
  128.7644  130.1570   65.2070 H   0  0  0  0  0  0  0  0  0  0  0  0
  128.1366  127.9877   64.2987 H   0  0  0  0  0  0  0  0  0  0  0  0
  129.8212  128.3130   64.8555 H   0  0  0  0  0  0  0  0  0  0  0  0
  128.7257  125.6935   63.6998 H   0  0  0  0  0  0  0  0  0  0  0  0
  129.9283  126.8237   62.9474 H   0  0  0  0  0  0  0  0  0  0  0  0
  131.5559  126.3373   64.6286 H   0  0  0  0  0  0  0  0  0  0  0  0
  133.2926  124.8617   64.1598 H   0  0  0  0  0  0  0  0  0  0  0  0
  134.6490  122.0190   62.4850 H   0  0  0  0  0  0  0  0  0  0  0  0
  128.6703  120.3316   60.8384 H   0  0  0  0  0  0  0  0  0  0  0  0
  128.3165  121.1997   62.3994 H   0  0  0  0  0  0  0  0  0  0  0  0
  127.3265  123.3506   62.4427 H   0  0  0  0  0  0  0  0  0  0  0  0
  126.1518  125.1688   61.2056 H   0  0  0  0  0  0  0  0  0  0  0  0
  126.1967  125.2151   58.7116 H   0  0  0  0  0  0  0  0  0  0  0  0
  128.5852  121.6136   58.6858 H   0  0  0  0  0  0  0  0  0  0  0  0
  129.2018  123.8339   63.1348 H   0  0  0  0  0  0  0  0  0  0  0  0
  129.6268  124.4335   66.0181 H   0  0  0  0  0  0  0  0  0  0  0  0
  131.3089  124.9010   66.5137 H   0  0  0  0  0  0  0  0  0  0  0  0
  129.4810  126.0677   67.8208 H   0  0  0  0  0  0  0  0  0  0  0  0
  130.6220  127.1727   66.9639 H   0  0  0  0  0  0  0  0  0  0  0  0
  124.9499  128.5350   66.4496 H   0  0  0  0  0  0  0  0  0  0  0  0
  123.8132  129.8211   64.6402 H   0  0  0  0  0  0  0  0  0  0  0  0
  1  2  2  0
  2  3  2  0
  2  4  1  0
  4  5  1  0
  5  6  1  0
  6  7  1  0
  7  8  1  0
  8  9  1  0
  9 10  1  0
 10 11  1  0
  2 12  1  0
 12 13  2  0
 13 14  1  0
 14 15  2  0
 15 16  1  0
 16 17  2  0
 16 18  2  0
 16 19  1  0
 19 20  1  0
 20 21  1  0
 21 22  1  0
 22 23  1  0
 23 24  2  0
 24 25  1  0
 25 26  1  0
 25 27  2  0
 27 28  1  0
 28 29  2  0
 29 30  1  0
 30 31  1  0
 31 32  1  0
 32 33  2  0
 33 34  1  0
 34 35  2  0
 35 36  1  0
 36 37  1  0
 36 38  2  0
 30 39  1  0
 39 40  2  0
 22 41  1  0
 41 42  1  0
 15 43  1  0
 43 44  2  0
 11  5  1  0
 44 12  1  0
 42 19  1  0
 40 23  1  0
 39 27  1  0
 38 32  1  0
  4 45  1  0
  5 46  1  0
  6 47  1  0
  6 48  1  0
  7 49  1  0
  7 50  1  0
  8 51  1  0
  8 52  1  0
  9 53  1  0
  9 54  1  0
 10 55  1  0
 10 56  1  0
 11 57  1  0
 11 58  1  0
 13 59  1  0
 14 60  1  0
 20 61  1  0
 20 62  1  0
 21 63  1  0
 21 64  1  0
 22 65  1  0
 24 66  1  0
 26 67  1  0
 31 68  1  0
 31 69  1  0
 33 70  1  0
 34 71  1  0
 35 72  1  0
 38 73  1  0
 40 74  1  0
 41 75  1  0
 41 76  1  0
 42 77  1  0
 42 78  1  0
 43 79  1  0
 44 80  1  0
M  END
>  <Binding energies>  (1) 
[-8.49]

>  <Ligand effiencies>  (1) 
[-0.176875]

>  <Interactions>  (1) 
["V-B:GLU:543:CD:9880, H-A:GLY:454:N:4050, V-B:GLU:543:CG:9879, V-A:GLU:543:CD:4908, V-A:LEU:475:CD2:4259, V-B:ALA:541:CB:9864, V-A:GLY:454:CA:4049, V-B:ASP:366:CB:8183, V-B:TYR:539:C:9839, V-B:ASP:366:CG:8184, V-B:PRO:540:CA:9855, V-B:PRO:540:N:9856, V-B:TYR:531:CZ:9766, V-B:TYR:539:CZ:9849, V-B:TYR:539:CE2:9848, V-B:PRO:540:C:9853, V-B:TYR:539:CE1:9847, V-B:TYR:539:CD2:9846, V-B:ALA:541:CA:9862, V-B:GLU:543:CB:9878, V-B:HIS:456:CE1:9041, V-B:ARG:545:CZ:9898, V-A:GLU:543:CG:4907, V-B:TYR:484:CZ:9318, V-A:TYR:539:CE1:4875, V-A:TYR:539:CZ:4877, V-B:ASP:366:C:8179, V-B:ASP:366:CA:8181, V-B:TYR:531:CE1:9764, V-B:ILE:369:CG2:8208, V-B:ILE:369:CB:8207, H-A:SER:385:O:3406"]

$$$$
RR17_Rahimova_2017
     RDKit          3D

 63 66  0  0  0  0  0  0  0  0999 V2000
  126.1150  122.7680   57.3590 C   0  0  0  0  0  0  0  0  0  0  0  0
  127.6170  122.6130   57.6140 C   0  0  0  0  0  0  0  0  0  0  0  0
  127.8850  122.9360   58.9760 O   0  0  0  0  0  0  0  0  0  0  0  0
  129.1360  123.4110   59.3250 C   0  0  0  0  0  0  0  0  0  0  0  0
  129.8700  122.6330   60.2190 C   0  0  0  0  0  0  0  0  0  0  0  0
  131.1380  123.0310   60.6310 C   0  0  0  0  0  0  0  0  0  0  0  0
  131.7010  124.2230   60.1540 C   0  0  0  0  0  0  0  0  0  0  0  0
  133.0720  124.6260   60.6140 C   0  0  0  0  0  0  0  0  0  0  0  0
  134.0670  124.5310   59.8900 O   0  0  0  0  0  0  0  0  0  0  0  0
  133.1980  125.1590   62.0590 C   0  0  0  0  0  0  0  0  0  0  0  0
  133.4760  123.8150   63.2670 S   0  0  0  0  0  0  0  0  0  0  0  0
  132.8590  124.5920   64.7340 C   0  0  0  0  0  0  0  0  0  0  0  0
  133.5950  125.1610   65.6610 N   0  0  0  0  0  0  0  0  0  0  0  0
  132.7400  125.6570   66.6380 N   0  0  0  0  0  0  0  0  0  0  0  0
  131.5190  125.3720   66.2620 C   0  0  0  0  0  0  0  0  0  0  0  0
  130.2670  125.7470   67.0410 C   0  0  0  0  0  0  0  0  0  0  0  0
  130.3640  127.0300   67.7330 N   0  0  0  0  0  0  0  0  0  0  0  0
  129.8620  127.2600   69.0270 C   0  0  0  0  0  0  0  0  0  0  0  0
  130.7150  127.8680   69.9480 C   0  0  0  0  0  0  0  0  0  0  0  0
  130.2830  128.1190   71.2470 C   0  0  0  0  0  0  0  0  0  0  0  0
  128.9890  127.7680   71.6400 C   0  0  0  0  0  0  0  0  0  0  0  0
  128.5330  128.0450   73.0720 C   0  0  0  0  0  0  0  0  0  0  0  0
  129.1480  127.2610   73.9590 F   0  0  0  0  0  0  0  0  0  0  0  0
  128.7820  129.3140   73.4020 F   0  0  0  0  0  0  0  0  0  0  0  0
  127.2200  127.8300   73.1620 F   0  0  0  0  0  0  0  0  0  0  0  0
  128.1290  127.1650   70.7150 C   0  0  0  0  0  0  0  0  0  0  0  0
  128.5610  126.9150   69.4160 C   0  0  0  0  0  0  0  0  0  0  0  0
  131.5230  124.6850   65.0660 N   0  0  0  0  0  0  0  0  0  0  0  0
  130.4170  124.2180   64.3390 C   0  0  0  0  0  0  0  0  0  0  0  0
  129.8320  125.0390   63.3750 C   0  0  0  0  0  0  0  0  0  0  0  0
  128.7330  124.5760   62.6560 C   0  0  0  0  0  0  0  0  0  0  0  0
  128.2170  123.2930   62.9000 C   0  0  0  0  0  0  0  0  0  0  0  0
  127.1330  122.7520   62.2360 O   0  0  0  0  0  0  0  0  0  0  0  0
  126.2880  123.6070   61.4730 C   0  0  0  0  0  0  0  0  0  0  0  0
  128.8150  122.4870   63.8710 C   0  0  0  0  0  0  0  0  0  0  0  0
  129.9140  122.9420   64.5920 C   0  0  0  0  0  0  0  0  0  0  0  0
  130.9620  125.0050   59.2540 C   0  0  0  0  0  0  0  0  0  0  0  0
  129.6940  124.6050   58.8430 C   0  0  0  0  0  0  0  0  0  0  0  0
  125.5836  122.8228   58.3206 H   0  0  0  0  0  0  0  0  0  0  0  0
  125.9334  123.6897   56.7866 H   0  0  0  0  0  0  0  0  0  0  0  0
  125.7491  121.9028   56.7866 H   0  0  0  0  0  0  0  0  0  0  0  0
  127.9214  121.5753   57.4129 H   0  0  0  0  0  0  0  0  0  0  0  0
  128.1810  123.2858   56.9513 H   0  0  0  0  0  0  0  0  0  0  0  0
  129.4424  121.6949   60.6026 H   0  0  0  0  0  0  0  0  0  0  0  0
  131.7035  122.4050   61.3370 H   0  0  0  0  0  0  0  0  0  0  0  0
  134.0453  125.8589   62.1061 H   0  0  0  0  0  0  0  0  0  0  0  0
  132.2528  125.6578   62.3193 H   0  0  0  0  0  0  0  0  0  0  0  0
  129.4227  125.7956   66.3376 H   0  0  0  0  0  0  0  0  0  0  0  0
  130.1283  124.9765   67.8137 H   0  0  0  0  0  0  0  0  0  0  0  0
  130.6170  127.8360   67.1810 H   0  0  0  0  0  0  0  0  0  0  0  0
  131.7343  128.1505   69.6461 H   0  0  0  0  0  0  0  0  0  0  0  0
  130.9635  128.5960   71.9677 H   0  0  0  0  0  0  0  0  0  0  0  0
  127.1079  126.8877   71.0159 H   0  0  0  0  0  0  0  0  0  0  0  0
  127.8788  126.4450   68.6923 H   0  0  0  0  0  0  0  0  0  0  0  0
  130.2356  126.0443   63.1842 H   0  0  0  0  0  0  0  0  0  0  0  0
  128.2672  125.2179   61.8938 H   0  0  0  0  0  0  0  0  0  0  0  0
  125.6797  124.2225   62.1521 H   0  0  0  0  0  0  0  0  0  0  0  0
  126.9045  124.2609   60.8387 H   0  0  0  0  0  0  0  0  0  0  0  0
  125.6269  122.9982   60.8387 H   0  0  0  0  0  0  0  0  0  0  0  0
  128.4129  121.4822   64.0676 H   0  0  0  0  0  0  0  0  0  0  0  0
  130.3819  122.3017   65.3543 H   0  0  0  0  0  0  0  0  0  0  0  0
  131.3887  125.9431   58.8695 H   0  0  0  0  0  0  0  0  0  0  0  0
  129.1261  125.2281   58.1365 H   0  0  0  0  0  0  0  0  0  0  0  0
  1  2  1  0
  2  3  1  0
  3  4  1  0
  4  5  2  0
  5  6  1  0
  6  7  2  0
  7  8  1  0
  8  9  2  0
  8 10  1  0
 10 11  1  0
 11 12  1  0
 12 13  2  0
 13 14  1  0
 14 15  2  0
 15 16  1  0
 16 17  1  0
 17 18  1  0
 18 19  2  0
 19 20  1  0
 20 21  2  0
 21 22  1  0
 22 23  1  0
 22 24  1  0
 22 25  1  0
 21 26  1  0
 26 27  2  0
 15 28  1  0
 28 29  1  0
 29 30  2  0
 30 31  1  0
 31 32  2  0
 32 33  1  0
 33 34  1  0
 32 35  1  0
 35 36  2  0
  7 37  1  0
 37 38  2  0
 38  4  1  0
 28 12  1  0
 36 29  1  0
 27 18  1  0
  1 39  1  0
  1 40  1  0
  1 41  1  0
  2 42  1  0
  2 43  1  0
  5 44  1  0
  6 45  1  0
 10 46  1  0
 10 47  1  0
 16 48  1  0
 16 49  1  0
 17 50  1  0
 19 51  1  0
 20 52  1  0
 26 53  1  0
 27 54  1  0
 30 55  1  0
 31 56  1  0
 34 57  1  0
 34 58  1  0
 34 59  1  0
 35 60  1  0
 36 61  1  0
 37 62  1  0
 38 63  1  0
M  END
>  <Binding energies>  (1) 
[-8.42]

>  <Ligand effiencies>  (1) 
[-0.2158974358974359]

>  <Interactions>  (1) 
["V-B:GLU:543:CD:9880, H-A:ARG:545:NH2:4928, H-A:GLY:454:N:4050, V-A:ASP:366:CG:3213, H-A:GLU:543:OE1:4909, H-A:TYR:484:OH:4348, V-B:GLU:543:CG:9879, H-A:ARG:545:NE:4924, V-A:GLU:543:CD:4908, V-A:ARG:545:CZ:4926, H-A:GLU:543:OE2:4910, V-A:LEU:475:CD2:4259, V-A:HIS:456:CE1:4070, V-B:ALA:541:CB:9864, V-B:TYR:539:C:9839, H-B:ALA:541:N:9863, V-B:PRO:540:CD:9859, V-B:PRO:540:CA:9855, V-B:PRO:540:CB:9857, V-B:PRO:540:N:9856, V-B:TYR:539:CZ:9849, V-B:TYR:539:CE2:9848, V-B:TYR:539:CD1:9845, V-B:TYR:539:CE1:9847, V-B:TYR:539:CD2:9846, V-B:TYR:539:CG:9844, V-B:ALA:541:CA:9862, V-A:TYR:484:CE2:4346, V-A:GLU:543:C:4902, V-B:GLU:543:C:9874, V-A:TYR:484:CZ:4347, V-B:GLU:543:CB:9878, V-A:GLY:544:C:4912, V-A:GLU:543:CB:4906, V-B:HIS:456:CD2:9039, V-B:HIS:456:CE1:9041, V-B:LYS:547:CE:9922, V-B:HIS:456:CG:9037"]

$$$$
RR18_Rahimova_2017
     RDKit          3D

 56 61  0  0  0  0  0  0  0  0999 V2000
  132.9430  125.0140   61.3230 C   0  0  0  0  0  0  0  0  0  0  0  0
  132.2920  125.1530   62.6750 C   0  0  0  0  0  0  0  0  0  0  0  0
  132.7300  124.9910   63.9800 C   0  0  0  0  0  0  0  0  0  0  0  0
  131.6420  125.2680   64.8080 C   0  0  0  0  0  0  0  0  0  0  0  0
  130.5790  125.5900   63.9800 C   0  0  0  0  0  0  0  0  0  0  0  0
  129.1290  125.9950   64.2300 C   0  0  1  0  0  0  0  0  0  0  0  0
  129.0150  127.0260   65.3920 C   0  0  0  0  0  0  0  0  0  0  0  0
  129.3790  126.6470   66.7540 C   0  0  0  0  0  0  0  0  0  0  0  0
  129.7800  125.5140   67.0290 O   0  0  0  0  0  0  0  0  0  0  0  0
  129.2520  127.6450   67.6590 N   0  0  0  0  0  0  0  0  0  0  0  0
  129.4880  127.6500   69.0510 C   0  0  0  0  0  0  0  0  0  0  0  0
  130.7240  127.9940   69.6270 C   0  0  0  0  0  0  0  0  0  0  0  0
  130.8930  127.9720   71.0100 C   0  0  0  0  0  0  0  0  0  0  0  0
  129.8370  127.6020   71.8370 C   0  0  0  0  0  0  0  0  0  0  0  0
  128.6100  127.2480   71.2800 C   0  0  0  0  0  0  0  0  0  0  0  0
  128.4250  127.2660   69.8940 C   0  0  0  0  0  0  0  0  0  0  0  0
  127.0630  126.8650   69.3350 C   0  0  0  0  0  0  0  0  0  0  0  0
  128.6700  128.3050   65.0900 C   0  0  0  0  0  0  0  0  0  0  0  0
  128.2960  128.7380   63.8540 N   0  0  0  0  0  0  0  0  0  0  0  0
  128.1740  127.8920   62.8990 C   0  0  0  0  0  0  0  0  0  0  0  0
  127.5620  128.2730   61.3080 S   0  0  0  0  0  0  0  0  0  0  0  0
  127.7320  126.5700   60.7770 C   0  0  0  0  0  0  0  0  0  0  0  0
  127.4190  126.0480   59.5400 C   0  0  0  0  0  0  0  0  0  0  0  0
  126.8040  126.8970   58.5100 C   0  0  0  0  0  0  0  0  0  0  0  0
  126.5130  128.0930   58.5390 O   0  0  0  0  0  0  0  0  0  0  0  0
  126.5640  126.1240   57.4470 N   0  0  0  0  0  0  0  0  0  0  0  0
  126.9800  124.8380   57.6200 C   0  0  0  0  0  0  0  0  0  0  0  0
  126.8960  123.7830   56.7120 C   0  0  0  0  0  0  0  0  0  0  0  0
  127.4120  122.5420   57.0750 C   0  0  0  0  0  0  0  0  0  0  0  0
  128.0070  122.3810   58.3250 C   0  0  0  0  0  0  0  0  0  0  0  0
  128.0780  123.4540   59.2170 C   0  0  0  0  0  0  0  0  0  0  0  0
  127.5410  124.7100   58.8790 C   0  0  0  0  0  0  0  0  0  0  0  0
  128.2560  125.7960   61.9030 C   0  0  0  0  0  0  0  0  0  0  0  0
  128.4530  124.5850   61.9270 O   0  0  0  0  0  0  0  0  0  0  0  0
  128.5010  126.5770   62.9910 N   0  0  0  0  0  0  0  0  0  0  0  0
  130.9830  125.5170   62.6830 O   0  0  0  0  0  0  0  0  0  0  0  0
  134.0113  124.7859   61.4522 H   0  0  0  0  0  0  0  0  0  0  0  0
  132.4589  124.1990   60.7650 H   0  0  0  0  0  0  0  0  0  0  0  0
  132.8340  125.9557   60.7650 H   0  0  0  0  0  0  0  0  0  0  0  0
  133.7411  124.7000   64.3010 H   0  0  0  0  0  0  0  0  0  0  0  0
  131.6304  125.2367   65.9075 H   0  0  0  0  0  0  0  0  0  0  0  0
  128.5904  125.0782   64.5116 H   0  0  0  0  0  0  0  0  0  0  0  0
  128.9960  128.5460   67.2860 H   0  0  0  0  0  0  0  0  0  0  0  0
  131.5651  128.2831   68.9798 H   0  0  0  0  0  0  0  0  0  0  0  0
  131.8633  128.2477   71.4488 H   0  0  0  0  0  0  0  0  0  0  0  0
  129.9707  127.5890   72.9288 H   0  0  0  0  0  0  0  0  0  0  0  0
  127.7788  126.9515   71.9367 H   0  0  0  0  0  0  0  0  0  0  0  0
  126.3713  126.6613   70.1657 H   0  0  0  0  0  0  0  0  0  0  0  0
  126.6643  127.6839   68.7182 H   0  0  0  0  0  0  0  0  0  0  0  0
  127.1716  125.9607   68.7182 H   0  0  0  0  0  0  0  0  0  0  0  0
  128.6945  129.0451   65.9034 H   0  0  0  0  0  0  0  0  0  0  0  0
  126.1390  126.4690   56.5980 H   0  0  0  0  0  0  0  0  0  0  0  0
  126.4302  123.9288   55.7262 H   0  0  0  0  0  0  0  0  0  0  0  0
  127.3504  121.6927   56.3787 H   0  0  0  0  0  0  0  0  0  0  0  0
  128.4230  121.4037   58.6109 H   0  0  0  0  0  0  0  0  0  0  0  0
  128.5599  123.3152   60.1961 H   0  0  0  0  0  0  0  0  0  0  0  0
  1  2  1  0
  2  3  2  0
  3  4  1  0
  4  5  2  0
  5  6  1  0
  6  7  1  0
  7  8  1  0
  8  9  2  0
  8 10  1  0
 10 11  1  0
 11 12  2  0
 12 13  1  0
 13 14  2  0
 14 15  1  0
 15 16  2  0
 16 17  1  0
  7 18  2  0
 18 19  1  0
 19 20  2  0
 20 21  1  0
 21 22  1  0
 22 23  2  0
 23 24  1  0
 24 25  2  0
 24 26  1  0
 26 27  1  0
 27 28  2  0
 28 29  1  0
 29 30  2  0
 30 31  1  0
 31 32  2  0
 22 33  1  0
 33 34  2  0
 33 35  1  0
  5 36  1  0
 36  2  1  0
 35  6  1  0
 16 11  1  0
 35 20  1  0
 32 23  1  0
 32 27  1  0
  1 37  1  0
  1 38  1  0
  1 39  1  0
  3 40  1  0
  4 41  1  0
  6 42  1  1
 10 43  1  0
 12 44  1  0
 13 45  1  0
 14 46  1  0
 15 47  1  0
 17 48  1  0
 17 49  1  0
 17 50  1  0
 18 51  1  0
 26 52  1  0
 28 53  1  0
 29 54  1  0
 30 55  1  0
 31 56  1  0
M  END
>  <Binding energies>  (1) 
[-8.58]

>  <Ligand effiencies>  (1) 
[-0.22578947368421054]

>  <Interactions>  (1) 
["V-B:GLU:543:CD:9880, V-A:ASP:366:CG:3213, V-B:GLU:543:CG:9879, V-A:GLU:543:CD:4908, V-A:ARG:545:CZ:4926, H-A:GLU:543:OE2:4910, V-A:HIS:456:CE1:4070, V-B:TYR:539:C:9839, V-B:PRO:540:CA:9855, V-B:PRO:540:N:9856, V-B:TYR:531:CZ:9766, V-B:TYR:539:CZ:9849, V-B:TYR:539:CE2:9848, V-B:TYR:539:CD1:9845, V-B:TYR:539:CE1:9847, V-B:TYR:539:CD2:9846, V-B:TYR:539:CG:9844, V-A:GLU:543:C:4902, V-B:GLU:543:C:9874, V-B:GLU:543:CA:9876, V-B:GLU:543:CB:9878, V-A:GLY:544:C:4912, V-A:GLU:543:CB:4906, V-B:HIS:456:CE1:9041, V-B:GLY:544:C:9884, V-A:GLU:543:CG:4907, H-B:TYR:531:OH:9767, H-B:MET:535:SD:9806"]

$$$$
RR19_Rahimova_2017
     RDKit          3D

 72 77  0  0  0  0  0  0  0  0999 V2000
  131.9260  124.6210   58.3500 O   0  0  0  0  0  0  0  0  0  0  0  0
  131.1280  125.1530   59.1280 C   0  0  0  0  0  0  0  0  0  0  0  0
  131.1700  125.0840   60.4830 N   0  0  0  0  0  0  0  0  0  0  0  0
  132.1270  124.6530   61.3690 C   0  0  0  0  0  0  0  0  0  0  0  0
  133.7310  124.2740   60.9800 S   0  0  0  0  0  0  0  0  0  0  0  0
  131.5670  124.5830   62.6200 N   0  0  0  0  0  0  0  0  0  0  0  0
  132.0860  124.3590   63.8540 C   0  0  0  0  0  0  0  0  0  0  0  0
  133.2830  124.3400   64.1510 O   0  0  0  0  0  0  0  0  0  0  0  0
  131.0200  124.0860   64.9440 C   0  0  2  0  0  0  0  0  0  0  0  0
  130.1350  122.8310   64.6920 C   0  0  0  0  0  0  0  0  0  0  0  0
  129.5040  122.7500   63.3110 C   0  0  0  0  0  0  0  0  0  0  0  0
  128.3530  123.5040   62.9950 C   0  0  0  0  0  0  0  0  0  0  0  0
  127.8380  123.4780   61.7070 C   0  0  0  0  0  0  0  0  0  0  0  0
  128.4610  122.7270   60.7170 C   0  0  0  0  0  0  0  0  0  0  0  0
  129.6120  122.0040   61.0060 C   0  0  0  0  0  0  0  0  0  0  0  0
  130.1440  122.0180   62.2880 C   0  0  0  0  0  0  0  0  0  0  0  0
  130.1920  125.2950   65.2050 N   0  0  0  0  0  0  0  0  0  0  0  0
  129.9280  125.7130   66.4760 C   0  0  0  0  0  0  0  0  0  0  0  0
  130.2820  125.1760   67.5270 O   0  0  0  0  0  0  0  0  0  0  0  0
  129.1270  126.9530   66.3280 C   0  0  0  0  0  0  0  0  0  0  0  0
  128.5750  127.8050   67.2850 C   0  0  0  0  0  0  0  0  0  0  0  0
  127.8600  128.9270   66.8500 C   0  0  0  0  0  0  0  0  0  0  0  0
  127.7100  129.1820   65.4800 C   0  0  0  0  0  0  0  0  0  0  0  0
  128.2730  128.3150   64.5360 C   0  0  0  0  0  0  0  0  0  0  0  0
  128.9800  127.2010   64.9900 C   0  0  0  0  0  0  0  0  0  0  0  0
  129.6840  126.1270   64.2470 C   0  0  0  0  0  0  0  0  0  0  0  0
  129.7920  126.0170   63.0250 O   0  0  0  0  0  0  0  0  0  0  0  0
  129.9390  125.9740   58.5620 C   0  0  2  0  0  0  0  0  0  0  0  0
  129.4480  125.4930   57.1660 C   0  0  0  0  0  0  0  0  0  0  0  0
  128.0960  124.8020   57.1940 C   0  0  0  0  0  0  0  0  0  0  0  0
  127.9500  123.5110   56.6420 C   0  0  0  0  0  0  0  0  0  0  0  0
  126.7390  122.8390   56.7590 C   0  0  0  0  0  0  0  0  0  0  0  0
  125.6780  123.4210   57.4400 C   0  0  0  0  0  0  0  0  0  0  0  0
  125.8200  124.6750   58.0220 C   0  0  0  0  0  0  0  0  0  0  0  0
  127.0220  125.3630   57.9160 C   0  0  0  0  0  0  0  0  0  0  0  0
  130.1760  127.4460   58.5790 N   0  0  0  0  0  0  0  0  0  0  0  0
  129.9080  128.2280   57.4970 C   0  0  0  0  0  0  0  0  0  0  0  0
  129.4740  127.8650   56.4030 O   0  0  0  0  0  0  0  0  0  0  0  0
  130.2480  129.6110   57.9160 C   0  0  0  0  0  0  0  0  0  0  0  0
  130.1810  130.8190   57.2220 C   0  0  0  0  0  0  0  0  0  0  0  0
  130.5700  131.9920   57.8790 C   0  0  0  0  0  0  0  0  0  0  0  0
  131.0120  131.9430   59.2070 C   0  0  0  0  0  0  0  0  0  0  0  0
  131.0700  130.7210   59.8880 C   0  0  0  0  0  0  0  0  0  0  0  0
  130.6800  129.5630   59.2130 C   0  0  0  0  0  0  0  0  0  0  0  0
  130.6280  128.1500   59.6600 C   0  0  0  0  0  0  0  0  0  0  0  0
  130.9290  127.7060   60.7680 O   0  0  0  0  0  0  0  0  0  0  0  0
  130.3790  125.5250   60.9290 H   0  0  0  0  0  0  0  0  0  0  0  0
  130.5580  124.6120   62.6130 H   0  0  0  0  0  0  0  0  0  0  0  0
  131.5940  123.8467   65.8513 H   0  0  0  0  0  0  0  0  0  0  0  0
  130.7625  121.9385   64.8322 H   0  0  0  0  0  0  0  0  0  0  0  0
  129.3003  122.8981   65.4053 H   0  0  0  0  0  0  0  0  0  0  0  0
  127.8643  124.1123   63.7703 H   0  0  0  0  0  0  0  0  0  0  0  0
  126.9322  124.0545   61.4680 H   0  0  0  0  0  0  0  0  0  0  0  0
  128.0411  122.7049   59.7005 H   0  0  0  0  0  0  0  0  0  0  0  0
  130.1036  121.4181   60.2154 H   0  0  0  0  0  0  0  0  0  0  0  0
  131.0652  121.4581   62.5068 H   0  0  0  0  0  0  0  0  0  0  0  0
  128.6990  127.5994   68.3585 H   0  0  0  0  0  0  0  0  0  0  0  0
  127.4139  129.6115   67.5865 H   0  0  0  0  0  0  0  0  0  0  0  0
  127.1480  130.0664   65.1454 H   0  0  0  0  0  0  0  0  0  0  0  0
  128.1604  128.5079   63.4589 H   0  0  0  0  0  0  0  0  0  0  0  0
  129.1169  125.7730   59.2646 H   0  0  0  0  0  0  0  0  0  0  0  0
  129.3760  126.3683   56.5036 H   0  0  0  0  0  0  0  0  0  0  0  0
  130.1781  124.7519   56.8085 H   0  0  0  0  0  0  0  0  0  0  0  0
  128.7941  123.0371   56.1196 H   0  0  0  0  0  0  0  0  0  0  0  0
  126.6205  121.8417   56.3102 H   0  0  0  0  0  0  0  0  0  0  0  0
  124.7198  122.8865   57.5192 H   0  0  0  0  0  0  0  0  0  0  0  0
  124.9776  125.1242   58.5685 H   0  0  0  0  0  0  0  0  0  0  0  0
  127.1364  126.3463   58.3956 H   0  0  0  0  0  0  0  0  0  0  0  0
  129.8298  130.8492   56.1800 H   0  0  0  0  0  0  0  0  0  0  0  0
  130.5284  132.9558   57.3504 H   0  0  0  0  0  0  0  0  0  0  0  0
  131.3151  132.8690   59.7175 H   0  0  0  0  0  0  0  0  0  0  0  0
  131.4151  130.6745   60.9314 H   0  0  0  0  0  0  0  0  0  0  0  0
  1  2  2  0
  2  3  1  0
  3  4  1  0
  4  5  2  0
  4  6  1  0
  6  7  1  0
  7  8  2  0
  7  9  1  0
  9 10  1  0
 10 11  1  0
 11 12  2  0
 12 13  1  0
 13 14  2  0
 14 15  1  0
 15 16  2  0
  9 17  1  0
 17 18  1  0
 18 19  2  0
 18 20  1  0
 20 21  2  0
 21 22  1  0
 22 23  2  0
 23 24  1  0
 24 25  2  0
 25 26  1  0
 26 27  2  0
  2 28  1  0
 28 29  1  0
 29 30  1  0
 30 31  2  0
 31 32  1  0
 32 33  2  0
 33 34  1  0
 34 35  2  0
 28 36  1  0
 36 37  1  0
 37 38  2  0
 37 39  1  0
 39 40  2  0
 40 41  1  0
 41 42  2  0
 42 43  1  0
 43 44  2  0
 44 45  1  0
 45 46  2  0
 16 11  1  0
 26 17  1  0
 35 30  1  0
 45 36  1  0
 25 20  1  0
 44 39  1  0
  3 47  1  0
  6 48  1  0
  9 49  1  1
 10 50  1  0
 10 51  1  0
 12 52  1  0
 13 53  1  0
 14 54  1  0
 15 55  1  0
 16 56  1  0
 21 57  1  0
 22 58  1  0
 23 59  1  0
 24 60  1  0
 28 61  1  1
 29 62  1  0
 29 63  1  0
 31 64  1  0
 32 65  1  0
 33 66  1  0
 34 67  1  0
 35 68  1  0
 40 69  1  0
 41 70  1  0
 42 71  1  0
 43 72  1  0
M  END
>  <Binding energies>  (1) 
[-10.7]

>  <Ligand effiencies>  (1) 
[-0.22291666666666665]

>  <Interactions>  (1) 
["V-A:ILE:369:CD1:3239, V-B:GLU:543:CD:9880, H-A:GLY:454:N:4050, V-A:ASP:366:CG:3213, H-A:TYR:484:OH:4348, V-B:GLU:543:CG:9879, V-A:GLU:543:CD:4908, V-A:LEU:475:CD2:4259, V-B:ALA:541:CB:9864, V-B:PRO:540:CA:9855, V-B:PRO:540:CB:9857, V-B:PRO:540:N:9856, V-B:TYR:539:CZ:9849, V-B:TYR:539:CE2:9848, V-B:TYR:539:CD1:9845, V-B:TYR:539:CE1:9847, V-A:MET:535:CE:4835, V-B:TYR:539:CD2:9846, V-A:TYR:484:CE2:4346, V-A:TYR:484:CZ:4347, V-B:GLU:543:CB:9878, V-A:GLU:543:CB:4906, V-B:HIS:456:CE1:9041, V-A:GLU:543:CG:4907, V-A:PRO:540:CA:4883, V-A:PRO:540:CB:4885, V-A:PRO:540:N:4884, H-A:TYR:531:OH:4795, H-B:TYR:539:OH:9850"]

$$$$
RR19_Rahimova_2017-again1
     RDKit          3D

 71 76  0  0  0  0  0  0  0  0999 V2000
  132.8930  123.5890   64.4750 O   0  0  0  0  0  0  0  0  0  0  0  0
  131.7710  123.9990   64.1680 C   0  0  0  0  0  0  0  0  0  0  0  0
  131.4480  124.6350   63.0170 N   0  0  0  0  0  0  0  0  0  0  0  0
  132.1400  124.8770   61.8630 C   0  0  0  0  0  0  0  0  0  0  0  0
  133.7450  124.5610   61.4750 S   0  0  0  0  0  0  0  0  0  0  0  0
  131.2320  125.3940   60.9570 N   0  0  0  0  0  0  0  0  0  0  0  0
  130.8620  124.9230   59.8110 C   0  0  0  0  0  0  0  0  0  0  0  0
  131.1510  123.8480   59.2470 O   0  0  0  0  0  0  0  0  0  0  0  0
  129.9120  125.8480   58.9790 C   0  0  2  0  0  0  0  0  0  0  0  0
  129.5130  125.1830   57.6200 C   0  0  0  0  0  0  0  0  0  0  0  0
  128.1410  124.5150   57.6190 C   0  0  0  0  0  0  0  0  0  0  0  0
  127.9830  123.2470   57.0540 C   0  0  0  0  0  0  0  0  0  0  0  0
  126.7350  122.6300   57.0660 C   0  0  0  0  0  0  0  0  0  0  0  0
  125.6470  123.2850   57.6410 C   0  0  0  0  0  0  0  0  0  0  0  0
  125.7960  124.5520   58.2020 C   0  0  0  0  0  0  0  0  0  0  0  0
  127.0440  125.1690   58.1890 C   0  0  0  0  0  0  0  0  0  0  0  0
  130.4010  127.2610   58.8630 N   0  0  0  0  0  0  0  0  0  0  0  0
  131.6170  127.5540   58.3210 C   0  0  0  0  0  0  0  0  0  0  0  0
  132.4520  126.7610   57.8860 O   0  0  0  0  0  0  0  0  0  0  0  0
  131.7240  129.0350   58.3700 C   0  0  0  0  0  0  0  0  0  0  0  0
  132.7470  129.8920   57.9600 C   0  0  0  0  0  0  0  0  0  0  0  0
  132.5740  131.2690   58.1290 C   0  0  0  0  0  0  0  0  0  0  0  0
  131.3940  131.7690   58.6980 C   0  0  0  0  0  0  0  0  0  0  0  0
  130.3810  130.8940   59.1020 C   0  0  0  0  0  0  0  0  0  0  0  0
  130.5740  129.5230   58.9260 C   0  0  0  0  0  0  0  0  0  0  0  0
  129.6980  128.3710   59.2480 C   0  0  0  0  0  0  0  0  0  0  0  0
  128.5770  128.4100   59.7530 O   0  0  0  0  0  0  0  0  0  0  0  0
  130.5820  123.7990   65.1530 C   0  0  2  0  0  0  0  0  0  0  0  0
  129.5700  122.7070   64.7000 C   0  0  0  0  0  0  0  0  0  0  0  0
  129.3280  122.6740   63.2010 C   0  0  0  0  0  0  0  0  0  0  0  0
  130.1100  121.8380   62.3770 C   0  0  0  0  0  0  0  0  0  0  0  0
  129.8230  121.7340   61.0220 C   0  0  0  0  0  0  0  0  0  0  0  0
  128.7500  122.4290   60.4770 C   0  0  0  0  0  0  0  0  0  0  0  0
  127.9490  123.2270   61.2850 C   0  0  0  0  0  0  0  0  0  0  0  0
  128.2190  123.3440   62.6420 C   0  0  0  0  0  0  0  0  0  0  0  0
  129.8980  125.0680   65.5480 N   0  0  0  0  0  0  0  0  0  0  0  0
  129.8520  125.4810   66.8460 C   0  0  0  0  0  0  0  0  0  0  0  0
  130.2640  124.8780   67.8370 O   0  0  0  0  0  0  0  0  0  0  0  0
  129.2100  126.8180   66.8130 C   0  0  0  0  0  0  0  0  0  0  0  0
  128.9150  127.7170   67.8400 C   0  0  0  0  0  0  0  0  0  0  0  0
  128.3150  128.9370   67.5100 C   0  0  0  0  0  0  0  0  0  0  0  0
  128.0180  129.2400   66.1750 C   0  0  0  0  0  0  0  0  0  0  0  0
  128.3190  128.3250   65.1590 C   0  0  0  0  0  0  0  0  0  0  0  0
  128.9200  127.1150   65.5090 C   0  0  0  0  0  0  0  0  0  0  0  0
  129.3760  125.9780   64.6720 C   0  0  0  0  0  0  0  0  0  0  0  0
  129.3100  125.8830   63.4460 O   0  0  0  0  0  0  0  0  0  0  0  0
  130.4800  124.9130   62.9630 H   0  0  0  0  0  0  0  0  0  0  0  0
  128.9774  125.9496   59.5502 H   0  0  0  0  0  0  0  0  0  0  0  0
  129.5162  125.9615   56.8429 H   0  0  0  0  0  0  0  0  0  0  0  0
  130.2482  124.3860   57.4349 H   0  0  0  0  0  0  0  0  0  0  0  0
  128.8447  122.7361   56.5996 H   0  0  0  0  0  0  0  0  0  0  0  0
  126.6081  121.6307   56.6240 H   0  0  0  0  0  0  0  0  0  0  0  0
  124.6612  122.7970   57.6520 H   0  0  0  0  0  0  0  0  0  0  0  0
  124.9319  125.0620   58.6528 H   0  0  0  0  0  0  0  0  0  0  0  0
  127.1672  126.1705   58.6269 H   0  0  0  0  0  0  0  0  0  0  0  0
  133.6695  129.4924   57.5135 H   0  0  0  0  0  0  0  0  0  0  0  0
  133.3671  131.9632   57.8142 H   0  0  0  0  0  0  0  0  0  0  0  0
  131.2648  132.8537   58.8270 H   0  0  0  0  0  0  0  0  0  0  0  0
  129.4521  131.2779   59.5489 H   0  0  0  0  0  0  0  0  0  0  0  0
  131.0592  123.4167   66.0674 H   0  0  0  0  0  0  0  0  0  0  0  0
  129.9584  121.7255   65.0095 H   0  0  0  0  0  0  0  0  0  0  0  0
  128.6069  122.9493   65.1730 H   0  0  0  0  0  0  0  0  0  0  0  0
  130.9469  121.2685   62.8074 H   0  0  0  0  0  0  0  0  0  0  0  0
  130.4479  121.0986   60.3773 H   0  0  0  0  0  0  0  0  0  0  0  0
  128.5338  122.3471   59.4016 H   0  0  0  0  0  0  0  0  0  0  0  0
  127.0972  123.7684   60.8476 H   0  0  0  0  0  0  0  0  0  0  0  0
  127.5684  123.9589   63.2812 H   0  0  0  0  0  0  0  0  0  0  0  0
  129.1494  127.4712   68.8862 H   0  0  0  0  0  0  0  0  0  0  0  0
  128.0754  129.6615   68.3023 H   0  0  0  0  0  0  0  0  0  0  0  0
  127.5461  130.2013   65.9238 H   0  0  0  0  0  0  0  0  0  0  0  0
  128.0870  128.5546   64.1085 H   0  0  0  0  0  0  0  0  0  0  0  0
  1  2  2  0
  2  3  1  0
  3  4  1  0
  4  5  2  0
  4  6  1  0
  6  7  2  0
  7  8  1  0
  7  9  1  0
  9 10  1  0
 10 11  1  0
 11 12  2  0
 12 13  1  0
 13 14  2  0
 14 15  1  0
 15 16  2  0
  9 17  1  0
 17 18  1  0
 18 19  2  0
 18 20  1  0
 20 21  2  0
 21 22  1  0
 22 23  2  0
 23 24  1  0
 24 25  2  0
 25 26  1  0
 26 27  2  0
  2 28  1  0
 28 29  1  0
 29 30  1  0
 30 31  2  0
 31 32  1  0
 32 33  2  0
 33 34  1  0
 34 35  2  0
 28 36  1  0
 36 37  1  0
 37 38  2  0
 37 39  1  0
 39 40  2  0
 40 41  1  0
 41 42  2  0
 42 43  1  0
 43 44  2  0
 44 45  1  0
 45 46  2  0
 16 11  1  0
 26 17  1  0
 35 30  1  0
 45 36  1  0
 25 20  1  0
 44 39  1  0
  3 47  1  0
  9 48  1  1
 10 49  1  0
 10 50  1  0
 12 51  1  0
 13 52  1  0
 14 53  1  0
 15 54  1  0
 16 55  1  0
 21 56  1  0
 22 57  1  0
 23 58  1  0
 24 59  1  0
 28 60  1  1
 29 61  1  0
 29 62  1  0
 31 63  1  0
 32 64  1  0
 33 65  1  0
 34 66  1  0
 35 67  1  0
 40 68  1  0
 41 69  1  0
 42 70  1  0
 43 71  1  0
M  CHG  1   8  -1
M  END
>  <Binding energies>  (1) 
[-9.38]

>  <Ligand effiencies>  (1) 
[-0.1995744680851064]

>  <Interactions>  (1) 
["V-A:ASP:366:CB:3212, V-B:GLU:543:CD:9880, H-A:GLY:454:N:4050, V-A:ASP:366:CG:3213, H-A:TYR:484:OH:4348, V-B:GLU:543:CG:9879, V-A:GLU:543:CD:4908, V-A:LEU:475:CD2:4259, V-A:HIS:456:CE1:4070, V-B:ALA:541:CB:9864, V-B:TYR:539:C:9839, V-B:PRO:540:CD:9859, V-B:PRO:540:CA:9855, V-B:PRO:540:CB:9857, V-B:PRO:540:N:9856, V-B:TYR:539:CZ:9849, V-B:TYR:539:CE2:9848, V-B:TYR:539:CD1:9845, V-B:TYR:539:CE1:9847, V-B:TYR:539:CD2:9846, V-B:TYR:539:CG:9844, V-A:TYR:484:CE2:4346, V-A:TYR:484:CZ:4347, V-B:GLU:543:CB:9878, V-A:GLU:543:CB:4906, V-B:HIS:456:CE1:9041, V-A:GLU:543:CG:4907, V-A:PRO:540:CA:4883, V-A:PRO:540:CB:4885, V-A:LEU:363:CD1:3189, V-A:TYR:531:CZ:4794, H-A:TYR:531:OH:4795, H-B:TYR:539:OH:9850, V-A:TYR:531:CE2:4793"]

$$$$
RR1_Rahimova_2017
     RDKit          3D

 68 71  0  0  0  0  0  0  0  0999 V2000
  133.9120  124.3040   59.3830 C   0  0  0  0  0  0  0  0  0  0  0  0
  134.2760  123.9460   60.7120 O   0  0  0  0  0  0  0  0  0  0  0  0
  133.4740  124.3470   61.7620 C   0  0  0  0  0  0  0  0  0  0  0  0
  132.5150  125.3700   61.6800 C   0  0  0  0  0  0  0  0  0  0  0  0
  131.7560  125.7110   62.7960 C   0  0  0  0  0  0  0  0  0  0  0  0
  131.9350  125.0370   64.0050 C   0  0  0  0  0  0  0  0  0  0  0  0
  131.1530  125.4850   65.0870 N   0  0  0  0  0  0  0  0  0  0  0  0
  130.2750  124.8000   65.8490 C   0  0  0  0  0  0  0  0  0  0  0  0
  129.9520  123.6260   65.6650 O   0  0  0  0  0  0  0  0  0  0  0  0
  129.6690  125.6060   67.0090 C   0  0  0  0  0  0  0  0  0  0  0  0
  130.8280  126.7190   67.8790 S   0  0  0  0  0  0  0  0  0  0  0  0
  129.7890  127.1330   69.2400 C   0  0  0  0  0  0  0  0  0  0  0  0
  130.1790  127.1370   70.4890 N   0  0  0  0  0  0  0  0  0  0  0  0
  129.0950  127.5140   71.1600 C   0  0  0  0  0  0  0  0  0  0  0  0
  129.0880  127.6710   72.6540 C   0  0  0  0  0  0  0  0  0  0  0  0
  128.0420  128.3330   73.3170 C   0  0  0  0  0  0  0  0  0  0  0  0
  128.0650  128.4660   74.7070 C   0  0  0  0  0  0  0  0  0  0  0  0
  129.1420  127.9290   75.4090 C   0  0  0  0  0  0  0  0  0  0  0  0
  130.1690  127.2830   74.8000 N   0  0  0  0  0  0  0  0  0  0  0  0
  130.1280  127.1640   73.4480 C   0  0  0  0  0  0  0  0  0  0  0  0
  128.0250  127.7460   70.4210 N   0  0  0  0  0  0  0  0  0  0  0  0
  128.4690  127.5000   69.1850 N   0  0  0  0  0  0  0  0  0  0  0  0
  127.5840  127.6640   68.0320 C   0  0  0  0  0  0  0  0  0  0  0  0
  127.9420  128.8350   67.1000 C   0  0  0  0  0  0  0  0  0  0  0  0
  128.7260  129.7190   67.4660 O   0  0  0  0  0  0  0  0  0  0  0  0
  127.3400  128.8080   65.8960 N   0  0  0  0  0  0  0  0  0  0  0  0
  127.7250  129.7480   64.9500 N   0  0  0  0  0  0  0  0  0  0  0  0
  127.3960  129.5160   63.6600 C   0  0  0  0  0  0  0  0  0  0  0  0
  126.6870  128.5770   63.2850 O   0  0  0  0  0  0  0  0  0  0  0  0
  127.9340  130.5160   62.6570 C   0  0  0  0  0  0  0  0  0  0  0  0
  127.1290  130.9410   61.5940 C   0  0  0  0  0  0  0  0  0  0  0  0
  127.6060  131.8480   60.6540 C   0  0  0  0  0  0  0  0  0  0  0  0
  128.9120  132.3560   60.7450 C   0  0  0  0  0  0  0  0  0  0  0  0
  129.4530  133.2490   59.8380 O   0  0  0  0  0  0  0  0  0  0  0  0
  129.5430  132.8860   58.4650 C   0  0  0  0  0  0  0  0  0  0  0  0
  129.7370  131.9370   61.7980 C   0  0  0  0  0  0  0  0  0  0  0  0
  131.0220  132.4520   61.8320 O   0  0  0  0  0  0  0  0  0  0  0  0
  132.1340  131.5650   61.8800 C   0  0  0  0  0  0  0  0  0  0  0  0
  129.2400  131.0250   62.7460 C   0  0  0  0  0  0  0  0  0  0  0  0
  132.8910  124.0130   64.0900 C   0  0  0  0  0  0  0  0  0  0  0  0
  133.6480  123.6750   62.9720 C   0  0  0  0  0  0  0  0  0  0  0  0
  133.1280  125.0750   59.4126 H   0  0  0  0  0  0  0  0  0  0  0  0
  134.7931  124.6971   58.8548 H   0  0  0  0  0  0  0  0  0  0  0  0
  133.5336  123.4164   58.8548 H   0  0  0  0  0  0  0  0  0  0  0  0
  132.3631  125.9038   60.7302 H   0  0  0  0  0  0  0  0  0  0  0  0
  131.0105  126.5167   62.7246 H   0  0  0  0  0  0  0  0  0  0  0  0
  131.2480  126.4700   65.2890 H   0  0  0  0  0  0  0  0  0  0  0  0
  128.8491  126.2181   66.6051 H   0  0  0  0  0  0  0  0  0  0  0  0
  129.3421  124.8659   67.7543 H   0  0  0  0  0  0  0  0  0  0  0  0
  127.2024  128.7479   72.7400 H   0  0  0  0  0  0  0  0  0  0  0  0
  127.2509  128.9832   75.2358 H   0  0  0  0  0  0  0  0  0  0  0  0
  129.1610  128.0329   76.5039 H   0  0  0  0  0  0  0  0  0  0  0  0
  130.9561  126.6411   72.9473 H   0  0  0  0  0  0  0  0  0  0  0  0
  127.6162  126.7361   67.4422 H   0  0  0  0  0  0  0  0  0  0  0  0
  126.5868  127.8880   68.4387 H   0  0  0  0  0  0  0  0  0  0  0  0
  126.8700  128.0030   65.5020 H   0  0  0  0  0  0  0  0  0  0  0  0
  128.6030  130.1820   65.1970 H   0  0  0  0  0  0  0  0  0  0  0  0
  126.1043  130.5520   61.5007 H   0  0  0  0  0  0  0  0  0  0  0  0
  126.9530  132.1712   59.8299 H   0  0  0  0  0  0  0  0  0  0  0  0
  129.8070  131.8212   58.3838 H   0  0  0  0  0  0  0  0  0  0  0  0
  128.5740  133.0619   57.9749 H   0  0  0  0  0  0  0  0  0  0  0  0
  130.3175  133.4942   57.9749 H   0  0  0  0  0  0  0  0  0  0  0  0
  132.3931  131.3583   62.9289 H   0  0  0  0  0  0  0  0  0  0  0  0
  131.8741  130.6234   61.3741 H   0  0  0  0  0  0  0  0  0  0  0  0
  132.9942  132.0277   61.3741 H   0  0  0  0  0  0  0  0  0  0  0  0
  129.8878  130.7034   63.5748 H   0  0  0  0  0  0  0  0  0  0  0  0
  133.0419  123.4781   65.0393 H   0  0  0  0  0  0  0  0  0  0  0  0
  134.3924  122.8683   63.0434 H   0  0  0  0  0  0  0  0  0  0  0  0
  1  2  1  0
  2  3  1  0
  3  4  2  0
  4  5  1  0
  5  6  2  0
  6  7  1  0
  7  8  1  0
  8  9  2  0
  8 10  1  0
 10 11  1  0
 11 12  1  0
 12 13  2  0
 13 14  1  0
 14 15  1  0
 15 16  2  0
 16 17  1  0
 17 18  2  0
 18 19  1  0
 19 20  2  0
 14 21  2  0
 21 22  1  0
 22 23  1  0
 23 24  1  0
 24 25  2  0
 24 26  1  0
 26 27  1  0
 27 28  1  0
 28 29  2  0
 28 30  1  0
 30 31  2  0
 31 32  1  0
 32 33  2  0
 33 34  1  0
 34 35  1  0
 33 36  1  0
 36 37  1  0
 37 38  1  0
 36 39  2  0
  6 40  1  0
 40 41  2  0
 41  3  1  0
 22 12  1  0
 39 30  1  0
 20 15  1  0
  1 42  1  0
  1 43  1  0
  1 44  1  0
  4 45  1  0
  5 46  1  0
  7 47  1  0
 10 48  1  0
 10 49  1  0
 16 50  1  0
 17 51  1  0
 18 52  1  0
 20 53  1  0
 23 54  1  0
 23 55  1  0
 26 56  1  0
 27 57  1  0
 31 58  1  0
 32 59  1  0
 35 60  1  0
 35 61  1  0
 35 62  1  0
 38 63  1  0
 38 64  1  0
 38 65  1  0
 39 66  1  0
 40 67  1  0
 41 68  1  0
M  END
>  <Binding energies>  (1) 
[-7.86]

>  <Ligand effiencies>  (1) 
[-0.17863636363636365]

>  <Interactions>  (1) 
["V-A:ILE:369:CG2:3237, V-A:ILE:369:CD1:3239, V-A:ASP:366:CB:3212, V-B:GLU:543:CD:9880, V-A:ASP:366:CA:3210, V-A:ASP:366:CG:3213, H-A:GLU:543:OE1:4909, H-A:TYR:484:OH:4348, V-B:GLU:543:CG:9879, V-A:ILE:369:CB:3236, V-A:GLU:543:CD:4908, H-A:GLU:543:OE2:4910, V-A:HIS:456:CE1:4070, V-A:GLY:454:CA:4049, H-B:GLU:543:OE2:9882, H-B:GLU:543:OE1:9881, H-B:ARG:545:NH2:9900, V-A:TYR:484:CE2:4346, V-A:HIS:456:CD2:4068, V-B:GLU:543:CA:9876, V-B:GLU:543:CB:9878, V-A:GLU:543:CB:4906, V-B:HIS:456:CD2:9039, V-B:HIS:456:CE1:9041, V-A:GLU:543:CG:4907, H-B:TYR:484:OH:9319, V-B:HIS:456:CG:9037, V-A:PRO:540:CA:4883, V-A:PRO:540:CB:4885, V-A:PRO:540:N:4884, H-A:ALA:541:N:4891, H-A:LYS:547:NZ:4951, V-A:TYR:539:C:4867, H-B:LYS:547:NZ:9923"]

$$$$
RR20_Rahimova_2017
     RDKit          3D

 68 73  0  0  0  0  0  0  0  0999 V2000
  125.3420  130.6270   75.7380 C   0  0  0  0  0  0  0  0  0  0  0  0
  126.2420  129.6700   74.9770 C   0  0  0  0  0  0  0  0  0  0  0  0
  125.7400  128.4450   74.5370 C   0  0  0  0  0  0  0  0  0  0  0  0
  126.5610  127.5700   73.8310 C   0  0  0  0  0  0  0  0  0  0  0  0
  127.8940  127.9070   73.5710 C   0  0  0  0  0  0  0  0  0  0  0  0
  128.7640  126.9510   72.7840 C   0  0  0  0  0  0  0  0  0  0  0  0
  128.7510  125.7640   73.1150 O   0  0  0  0  0  0  0  0  0  0  0  0
  129.5090  127.4270   71.7440 N   0  0  0  0  0  0  0  0  0  0  0  0
  130.9640  127.6210   71.8620 C   0  0  0  0  0  0  0  0  0  0  0  0
  131.4580  128.0070   70.4780 C   0  0  0  0  0  0  0  0  0  0  0  0
  130.3050  127.6360   69.5960 C   0  0  0  0  0  0  0  0  0  0  0  0
  130.2110  127.6830   68.2050 C   0  0  0  0  0  0  0  0  0  0  0  0
  128.9880  127.4500   67.5640 C   0  0  0  0  0  0  0  0  0  0  0  0
  128.8890  127.4920   66.0640 C   0  0  0  0  0  0  0  0  0  0  0  0
  128.3700  128.5700   65.4980 N   0  0  0  0  0  0  0  0  0  0  0  0
  128.3510  128.5060   64.1910 C   0  0  0  0  0  0  0  0  0  0  0  0
  127.8850  129.4570   63.2960 N   0  0  0  0  0  0  0  0  0  0  0  0
  127.7560  130.7880   63.5150 C   0  0  0  0  0  0  0  0  0  0  0  0
  128.0680  131.3460   64.5690 O   0  0  0  0  0  0  0  0  0  0  0  0
  127.2080  131.6640   62.3640 C   0  0  0  0  0  0  0  0  0  0  0  0
  128.2400  132.0240   61.3730 N   0  0  0  0  0  0  0  0  0  0  0  0
  129.4640  131.2220   61.5200 C   0  0  0  0  0  0  0  0  0  0  0  0
  130.5950  131.8120   60.6480 C   0  0  0  0  0  0  0  0  0  0  0  0
  130.1370  132.1610   59.2310 C   0  0  0  0  0  0  0  0  0  0  0  0
  131.0650  132.4500   58.2250 C   0  0  0  0  0  0  0  0  0  0  0  0
  130.6470  132.8060   56.9440 C   0  0  0  0  0  0  0  0  0  0  0  0
  129.2880  132.8740   56.6550 C   0  0  0  0  0  0  0  0  0  0  0  0
  128.3540  132.5800   57.6450 C   0  0  0  0  0  0  0  0  0  0  0  0
  128.7600  132.2220   58.9360 C   0  0  0  0  0  0  0  0  0  0  0  0
  127.7360  131.8430   60.0060 C   0  0  0  0  0  0  0  0  0  0  0  0
  128.9870  127.0460   63.5410 S   0  0  0  0  0  0  0  0  0  0  0  0
  129.2920  126.4800   65.1670 C   0  0  0  0  0  0  0  0  0  0  0  0
  129.8700  125.1020   65.4030 C   0  0  0  0  0  0  0  0  0  0  0  0
  127.8500  127.2250   68.3540 C   0  0  0  0  0  0  0  0  0  0  0  0
  127.9370  127.1960   69.7460 C   0  0  0  0  0  0  0  0  0  0  0  0
  129.1820  127.3460   70.3710 C   0  0  0  0  0  0  0  0  0  0  0  0
  128.3830  129.1510   73.9890 C   0  0  0  0  0  0  0  0  0  0  0  0
  127.5610  130.0280   74.6950 C   0  0  0  0  0  0  0  0  0  0  0  0
  125.4808  130.4794   76.8192 H   0  0  0  0  0  0  0  0  0  0  0  0
  125.6008  131.6628   75.4731 H   0  0  0  0  0  0  0  0  0  0  0  0
  124.2923  130.4322   75.4731 H   0  0  0  0  0  0  0  0  0  0  0  0
  124.6959  128.1706   74.7478 H   0  0  0  0  0  0  0  0  0  0  0  0
  126.1600  126.6092   73.4759 H   0  0  0  0  0  0  0  0  0  0  0  0
  131.1839  128.4230   72.5820 H   0  0  0  0  0  0  0  0  0  0  0  0
  131.4604  126.7081   72.2228 H   0  0  0  0  0  0  0  0  0  0  0  0
  131.6701  129.0848   70.4198 H   0  0  0  0  0  0  0  0  0  0  0  0
  132.3977  127.5088   70.1974 H   0  0  0  0  0  0  0  0  0  0  0  0
  131.1063  127.9053   67.6058 H   0  0  0  0  0  0  0  0  0  0  0  0
  127.6060  129.1110   62.3880 H   0  0  0  0  0  0  0  0  0  0  0  0
  126.4080  131.1095   61.8516 H   0  0  0  0  0  0  0  0  0  0  0  0
  126.8384  132.5995   62.8093 H   0  0  0  0  0  0  0  0  0  0  0  0
  129.7775  131.2271   62.5744 H   0  0  0  0  0  0  0  0  0  0  0  0
  129.2596  130.1913   61.1945 H   0  0  0  0  0  0  0  0  0  0  0  0
  130.9689  132.7269   61.1308 H   0  0  0  0  0  0  0  0  0  0  0  0
  131.3779  131.0442   60.5610 H   0  0  0  0  0  0  0  0  0  0  0  0
  132.1407  132.3955   58.4483 H   0  0  0  0  0  0  0  0  0  0  0  0
  131.3891  133.0324   56.1643 H   0  0  0  0  0  0  0  0  0  0  0  0
  128.9521  133.1593   55.6471 H   0  0  0  0  0  0  0  0  0  0  0  0
  127.2808  132.6298   57.4090 H   0  0  0  0  0  0  0  0  0  0  0  0
  126.8434  132.4725   59.8754 H   0  0  0  0  0  0  0  0  0  0  0  0
  127.5076  130.7745   59.8786 H   0  0  0  0  0  0  0  0  0  0  0  0
  129.9475  124.9172   66.4846 H   0  0  0  0  0  0  0  0  0  0  0  0
  129.2131  124.3460   64.9480 H   0  0  0  0  0  0  0  0  0  0  0  0
  130.8696  125.0408   64.9480 H   0  0  0  0  0  0  0  0  0  0  0  0
  126.8753  127.0693   67.8685 H   0  0  0  0  0  0  0  0  0  0  0  0
  127.0297  127.0556   70.3519 H   0  0  0  0  0  0  0  0  0  0  0  0
  129.4200  129.4372   73.7593 H   0  0  0  0  0  0  0  0  0  0  0  0
  127.9514  131.0006   75.0292 H   0  0  0  0  0  0  0  0  0  0  0  0
  1  2  1  0
  2  3  2  0
  3  4  1  0
  4  5  2  0
  5  6  1  0
  6  7  2  0
  6  8  1  0
  8  9  1  0
  9 10  1  0
 10 11  1  0
 11 12  2  0
 12 13  1  0
 13 14  1  0
 14 15  1  0
 15 16  2  0
 16 17  1  0
 17 18  1  0
 18 19  2  0
 18 20  1  0
 20 21  1  0
 21 22  1  0
 22 23  1  0
 23 24  1  0
 24 25  2  0
 25 26  1  0
 26 27  2  0
 27 28  1  0
 28 29  2  0
 29 30  1  0
 16 31  1  0
 31 32  1  0
 32 33  1  0
 13 34  2  0
 34 35  1  0
 35 36  2  0
  5 37  1  0
 37 38  2  0
 38  2  1  0
 36  8  1  0
 36 11  1  0
 32 14  2  0
 30 21  1  0
 29 24  1  0
  1 39  1  0
  1 40  1  0
  1 41  1  0
  3 42  1  0
  4 43  1  0
  9 44  1  0
  9 45  1  0
 10 46  1  0
 10 47  1  0
 12 48  1  0
 17 49  1  0
 20 50  1  0
 20 51  1  0
 22 52  1  0
 22 53  1  0
 23 54  1  0
 23 55  1  0
 25 56  1  0
 26 57  1  0
 27 58  1  0
 28 59  1  0
 30 60  1  0
 30 61  1  0
 33 62  1  0
 33 63  1  0
 33 64  1  0
 34 65  1  0
 35 66  1  0
 37 67  1  0
 38 68  1  0
M  END
>  <Binding energies>  (1) 
[-9.76]

>  <Ligand effiencies>  (1) 
[-0.25025641025641027]

>  <Interactions>  (1) 
["V-B:GLU:543:CD:9880, V-B:GLU:543:CG:9879, V-A:GLU:543:CD:4908, V-A:HIS:456:CE1:4070, V-A:MET:535:CE:4835, V-A:GLU:543:C:4902, V-B:GLU:543:C:9874, V-A:HIS:456:CD2:4068, V-B:GLU:543:CB:9878, V-A:GLY:544:C:4912, V-A:GLU:543:CB:4906, V-B:HIS:456:CD2:9039, V-B:HIS:456:CE1:9041, V-B:GLY:544:C:9884, V-A:GLU:543:CG:4907, H-B:TYR:484:OH:9319, V-B:LYS:547:CE:9922, V-B:HIS:456:CG:9037, V-A:PRO:540:CA:4883, V-A:PRO:540:CB:4885, V-A:PRO:540:CD:4887, V-A:PRO:540:N:4884, V-A:TYR:539:CE1:4875, V-A:TYR:539:CD1:4873, H-B:LYS:547:NZ:9923, V-A:GLY:544:CA:4914, V-B:HIS:456:CB:9036, V-A:ILE:538:CB:4862, V-A:ILE:538:CA:4860, V-A:ARG:545:CA:4919"]

$$$$
RR20_Rahimova_2017-again1
     RDKit          3D

 68 73  0  0  0  0  0  0  0  0999 V2000
  127.1960  128.3970   74.8070 C   0  0  0  0  0  0  0  0  0  0  0  0
  127.9850  128.2270   73.5210 C   0  0  0  0  0  0  0  0  0  0  0  0
  127.4970  127.3990   72.5090 C   0  0  0  0  0  0  0  0  0  0  0  0
  128.2150  127.2490   71.3260 C   0  0  0  0  0  0  0  0  0  0  0  0
  129.4340  127.9150   71.1500 C   0  0  0  0  0  0  0  0  0  0  0  0
  130.1920  127.7530   69.8510 C   0  0  0  0  0  0  0  0  0  0  0  0
  131.4150  127.6150   69.9150 O   0  0  0  0  0  0  0  0  0  0  0  0
  129.5010  127.7370   68.6730 N   0  0  0  0  0  0  0  0  0  0  0  0
  128.7640  128.9200   68.1990 C   0  0  0  0  0  0  0  0  0  0  0  0
  128.2580  128.5810   66.8070 C   0  0  0  0  0  0  0  0  0  0  0  0
  129.0650  127.3690   66.4470 C   0  0  0  0  0  0  0  0  0  0  0  0
  129.0920  126.6580   65.2470 C   0  0  0  0  0  0  0  0  0  0  0  0
  129.7900  125.4430   65.1510 C   0  0  0  0  0  0  0  0  0  0  0  0
  129.8150  124.6740   63.8620 C   0  0  0  0  0  0  0  0  0  0  0  0
  128.8190  124.8510   63.0080 N   0  0  0  0  0  0  0  0  0  0  0  0
  128.9170  124.1350   61.9150 C   0  0  0  0  0  0  0  0  0  0  0  0
  128.0480  124.0480   60.8590 N   0  0  0  0  0  0  0  0  0  0  0  0
  126.8930  123.4740   60.8960 C   0  0  0  0  0  0  0  0  0  0  0  0
  126.2600  122.9510   61.8330 O   0  0  0  0  0  0  0  0  0  0  0  0
  126.1670  123.4410   59.5360 C   0  0  0  0  0  0  0  0  0  0  0  0
  125.5620  124.8410   59.2240 N   0  0  2  0  0  0  0  0  0  0  0  0
  125.0900  124.9680   57.7600 C   0  0  0  0  0  0  0  0  0  0  0  0
  126.2980  124.8900   56.8090 C   0  0  0  0  0  0  0  0  0  0  0  0
  127.4440  125.8110   57.2160 C   0  0  0  0  0  0  0  0  0  0  0  0
  128.4120  126.1730   56.2710 C   0  0  0  0  0  0  0  0  0  0  0  0
  129.4980  126.9730   56.6180 C   0  0  0  0  0  0  0  0  0  0  0  0
  129.6280  127.4260   57.9250 C   0  0  0  0  0  0  0  0  0  0  0  0
  128.6670  127.0860   58.8730 C   0  0  0  0  0  0  0  0  0  0  0  0
  127.5640  126.2900   58.5420 C   0  0  0  0  0  0  0  0  0  0  0  0
  126.5130  125.9960   59.6200 C   0  0  0  0  0  0  0  0  0  0  0  0
  130.3120  123.1220   61.8890 S   0  0  0  0  0  0  0  0  0  0  0  0
  130.8000  123.7580   63.4410 C   0  0  0  0  0  0  0  0  0  0  0  0
  132.1000  123.3160   64.0790 C   0  0  0  0  0  0  0  0  0  0  0  0
  130.4160  124.9420   66.3000 C   0  0  0  0  0  0  0  0  0  0  0  0
  130.3750  125.6420   67.5060 C   0  0  0  0  0  0  0  0  0  0  0  0
  129.7430  126.8910   67.5680 C   0  0  0  0  0  0  0  0  0  0  0  0
  129.9020  128.7680   72.1570 C   0  0  0  0  0  0  0  0  0  0  0  0
  129.1830  128.9190   73.3400 C   0  0  0  0  0  0  0  0  0  0  0  0
  127.8642  128.2530   75.6689 H   0  0  0  0  0  0  0  0  0  0  0  0
  126.7653  129.4086   74.8419 H   0  0  0  0  0  0  0  0  0  0  0  0
  126.3869  127.6526   74.8419 H   0  0  0  0  0  0  0  0  0  0  0  0
  126.5451  126.8650   72.6462 H   0  0  0  0  0  0  0  0  0  0  0  0
  127.8229  126.6042   70.5257 H   0  0  0  0  0  0  0  0  0  0  0  0
  127.9186  129.1353   68.8691 H   0  0  0  0  0  0  0  0  0  0  0  0
  129.4085  129.8113   68.1829 H   0  0  0  0  0  0  0  0  0  0  0  0
  127.1824  128.3511   66.8213 H   0  0  0  0  0  0  0  0  0  0  0  0
  128.3691  129.4074   66.0896 H   0  0  0  0  0  0  0  0  0  0  0  0
  128.5617  127.0527   64.3678 H   0  0  0  0  0  0  0  0  0  0  0  0
  126.8833  123.1691   58.7467 H   0  0  0  0  0  0  0  0  0  0  0  0
  125.3574  122.6974   59.5757 H   0  0  0  0  0  0  0  0  0  0  0  0
  124.7340  124.9200   59.7990 H   0  0  0  0  0  0  0  0  0  0  0  0
  124.3918  124.1497   57.5300 H   0  0  0  0  0  0  0  0  0  0  0  0
  124.5864  125.9367   57.6256 H   0  0  0  0  0  0  0  0  0  0  0  0
  126.6686  123.8544   56.7988 H   0  0  0  0  0  0  0  0  0  0  0  0
  125.9539  125.2156   55.8162 H   0  0  0  0  0  0  0  0  0  0  0  0
  128.3127  125.8186   55.2344 H   0  0  0  0  0  0  0  0  0  0  0  0
  130.2488  127.2447   55.8613 H   0  0  0  0  0  0  0  0  0  0  0  0
  130.4872  128.0511   58.2097 H   0  0  0  0  0  0  0  0  0  0  0  0
  128.7767  127.4508   59.9049 H   0  0  0  0  0  0  0  0  0  0  0  0
  127.0305  125.7228   60.5514 H   0  0  0  0  0  0  0  0  0  0  0  0
  125.9024  126.9022   59.7462 H   0  0  0  0  0  0  0  0  0  0  0  0
  132.0011  123.3496   65.1740 H   0  0  0  0  0  0  0  0  0  0  0  0
  132.3326  122.2883   63.7632 H   0  0  0  0  0  0  0  0  0  0  0  0
  132.9108  123.9890   63.7632 H   0  0  0  0  0  0  0  0  0  0  0  0
  130.9486  123.9808   66.2503 H   0  0  0  0  0  0  0  0  0  0  0  0
  130.8383  125.2139   68.4072 H   0  0  0  0  0  0  0  0  0  0  0  0
  130.8418  129.3213   72.0130 H   0  0  0  0  0  0  0  0  0  0  0  0
  129.5594  129.5836   74.1316 H   0  0  0  0  0  0  0  0  0  0  0  0
  1  2  1  0
  2  3  2  0
  3  4  1  0
  4  5  2  0
  5  6  1  0
  6  7  2  0
  6  8  1  0
  8  9  1  0
  9 10  1  0
 10 11  1  0
 11 12  2  0
 12 13  1  0
 13 14  1  0
 14 15  1  0
 15 16  2  0
 16 17  1  0
 17 18  2  0
 18 19  1  0
 18 20  1  0
 20 21  1  0
 21 22  1  0
 22 23  1  0
 23 24  1  0
 24 25  2  0
 25 26  1  0
 26 27  2  0
 27 28  1  0
 28 29  2  0
 29 30  1  0
 16 31  1  0
 31 32  1  0
 32 33  1  0
 13 34  2  0
 34 35  1  0
 35 36  2  0
  5 37  1  0
 37 38  2  0
 38  2  1  0
 36  8  1  0
 36 11  1  0
 32 14  2  0
 30 21  1  0
 29 24  1  0
  1 39  1  0
  1 40  1  0
  1 41  1  0
  3 42  1  0
  4 43  1  0
  9 44  1  0
  9 45  1  0
 10 46  1  0
 10 47  1  0
 12 48  1  0
 20 49  1  0
 20 50  1  0
 21 51  1  1
 22 52  1  0
 22 53  1  0
 23 54  1  0
 23 55  1  0
 25 56  1  0
 26 57  1  0
 27 58  1  0
 28 59  1  0
 30 60  1  0
 30 61  1  0
 33 62  1  0
 33 63  1  0
 33 64  1  0
 34 65  1  0
 35 66  1  0
 37 67  1  0
 38 68  1  0
M  CHG  2  19  -1  21   1
M  END
>  <Binding energies>  (1) 
[-8.97]

>  <Ligand effiencies>  (1) 
[-0.23]

>  <Interactions>  (1) 
["V-B:GLU:543:CD:9880, V-B:GLU:543:CG:9879, V-A:GLU:543:CD:4908, V-A:LEU:475:CD2:4259, V-A:HIS:456:CE1:4070, H-B:ALA:541:N:9863, V-B:TYR:531:CE2:9765, V-B:ASP:366:CG:8184, H-B:ASP:366:OD1:8185, V-B:PRO:540:CA:9855, V-B:PRO:540:CB:9857, V-B:PRO:540:N:9856, V-B:MET:535:CE:9807, V-A:TYR:484:CE2:4346, V-A:GLU:543:C:4902, V-A:TYR:484:CZ:4347, V-B:GLU:543:CB:9878, V-A:GLY:544:C:4912, V-A:GLU:543:CB:4906, V-B:HIS:456:CD2:9039, V-B:HIS:456:CE1:9041, V-B:GLY:544:C:9884, V-A:GLU:543:CG:4907, V-B:LYS:547:CE:9922, V-B:HIS:456:CG:9037, H-A:ARG:545:N:4920, H-A:HIS:456:ND1:4067, V-A:GLU:543:CA:4904"]

$$$$
RR21_Rahimova_2017
     RDKit          3D

 62 67  0  0  0  0  0  0  0  0999 V2000
  124.2600  130.8190   61.9330 C   0  0  0  0  0  0  0  0  0  0  0  0
  125.0350  131.4910   62.9210 O   0  0  0  0  0  0  0  0  0  0  0  0
  125.8450  130.7530   63.7620 C   0  0  0  0  0  0  0  0  0  0  0  0
  127.2500  130.7990   63.7490 C   0  0  0  0  0  0  0  0  0  0  0  0
  127.9950  130.0230   64.6350 C   0  0  0  0  0  0  0  0  0  0  0  0
  127.3590  129.1840   65.5580 C   0  0  0  0  0  0  0  0  0  0  0  0
  128.1620  128.3550   66.5130 C   0  0  0  0  0  0  0  0  0  0  0  0
  128.1880  128.6700   67.7930 N   0  0  0  0  0  0  0  0  0  0  0  0
  128.9740  127.7650   68.3960 N   0  0  0  0  0  0  0  0  0  0  0  0
  129.2050  127.8000   69.7960 C   0  0  0  0  0  0  0  0  0  0  0  0
  130.3910  128.3410   70.3140 C   0  0  0  0  0  0  0  0  0  0  0  0
  130.6040  128.3740   71.6900 C   0  0  0  0  0  0  0  0  0  0  0  0
  129.6340  127.8660   72.5510 C   0  0  0  0  0  0  0  0  0  0  0  0
  128.4540  127.3240   72.0500 C   0  0  0  0  0  0  0  0  0  0  0  0
  128.2380  127.2890   70.6750 C   0  0  0  0  0  0  0  0  0  0  0  0
  129.4360  126.8540   67.4810 C   0  0  0  0  0  0  0  0  0  0  0  0
  128.9420  127.2090   66.2350 C   0  0  0  0  0  0  0  0  0  0  0  0
  129.1220  126.5200   64.9660 C   0  0  0  0  0  0  0  0  0  0  0  0
  130.1330  125.7010   64.5940 C   0  0  0  0  0  0  0  0  0  0  0  0
  131.5580  125.2250   65.5430 S   0  0  0  0  0  0  0  0  0  0  0  0
  132.0980  124.2220   64.2040 C   0  0  0  0  0  0  0  0  0  0  0  0
  133.1560  123.4750   64.1460 N   0  0  0  0  0  0  0  0  0  0  0  0
  133.4730  122.6980   62.9980 C   0  0  0  0  0  0  0  0  0  0  0  0
  134.4430  121.9500   62.8720 O   0  0  0  0  0  0  0  0  0  0  0  0
  132.4840  122.8430   61.8740 C   0  0  0  0  0  0  0  0  0  0  0  0
  132.7330  122.0660   60.5740 C   0  0  0  0  0  0  0  0  0  0  0  0
  132.0100  120.7230   60.4960 C   0  0  0  0  0  0  0  0  0  0  0  0
  132.4740  119.7280   59.6310 C   0  0  0  0  0  0  0  0  0  0  0  0
  131.8250  118.4980   59.5720 C   0  0  0  0  0  0  0  0  0  0  0  0
  130.7110  118.2580   60.3790 C   0  0  0  0  0  0  0  0  0  0  0  0
  130.0140  116.9110   60.3190 C   0  0  0  0  0  0  0  0  0  0  0  0
  130.2520  119.2480   61.2520 C   0  0  0  0  0  0  0  0  0  0  0  0
  130.9010  120.4780   61.3110 C   0  0  0  0  0  0  0  0  0  0  0  0
  131.4360  123.5970   61.9440 N   0  0  0  0  0  0  0  0  0  0  0  0
  131.2390  124.2990   63.1400 N   0  0  0  0  0  0  0  0  0  0  0  0
  130.1460  125.0900   63.2720 C   0  0  0  0  0  0  0  0  0  0  0  0
  129.2870  125.2570   62.3980 O   0  0  0  0  0  0  0  0  0  0  0  0
  125.9610  129.1330   65.5680 C   0  0  0  0  0  0  0  0  0  0  0  0
  125.2140  129.9080   64.6820 C   0  0  0  0  0  0  0  0  0  0  0  0
  123.8630  129.8360   64.7180 F   0  0  0  0  0  0  0  0  0  0  0  0
  123.5169  130.1747   62.4256 H   0  0  0  0  0  0  0  0  0  0  0  0
  123.7439  131.5602   61.3052 H   0  0  0  0  0  0  0  0  0  0  0  0
  124.9206  130.2031   61.3052 H   0  0  0  0  0  0  0  0  0  0  0  0
  127.7666  131.4542   63.0322 H   0  0  0  0  0  0  0  0  0  0  0  0
  129.0937  130.0701   64.6089 H   0  0  0  0  0  0  0  0  0  0  0  0
  131.1553  128.7405   69.6312 H   0  0  0  0  0  0  0  0  0  0  0  0
  131.5341  128.7993   72.0950 H   0  0  0  0  0  0  0  0  0  0  0  0
  129.8023  127.8935   73.6377 H   0  0  0  0  0  0  0  0  0  0  0  0
  127.6945  126.9246   72.7382 H   0  0  0  0  0  0  0  0  0  0  0  0
  127.3069  126.8596   70.2767 H   0  0  0  0  0  0  0  0  0  0  0  0
  130.0848  125.9925   67.6976 H   0  0  0  0  0  0  0  0  0  0  0  0
  128.3367  126.6859   64.2138 H   0  0  0  0  0  0  0  0  0  0  0  0
  132.3966  122.6878   59.7312 H   0  0  0  0  0  0  0  0  0  0  0  0
  133.8103  121.8462   60.5399 H   0  0  0  0  0  0  0  0  0  0  0  0
  133.3525  119.9170   58.9965 H   0  0  0  0  0  0  0  0  0  0  0  0
  132.1895  117.7156   58.8901 H   0  0  0  0  0  0  0  0  0  0  0  0
  129.8268  116.5492   61.3408 H   0  0  0  0  0  0  0  0  0  0  0  0
  129.0574  117.0166   59.7864 H   0  0  0  0  0  0  0  0  0  0  0  0
  130.6527  116.1910   59.7864 H   0  0  0  0  0  0  0  0  0  0  0  0
  129.3784  119.0554   61.8921 H   0  0  0  0  0  0  0  0  0  0  0  0
  130.5412  121.2572   61.9990 H   0  0  0  0  0  0  0  0  0  0  0  0
  125.4456  128.4744   66.2826 H   0  0  0  0  0  0  0  0  0  0  0  0
  1  2  1  0
  2  3  1  0
  3  4  2  0
  4  5  1  0
  5  6  2  0
  6  7  1  0
  7  8  2  0
  8  9  1  0
  9 10  1  0
 10 11  2  0
 11 12  1  0
 12 13  2  0
 13 14  1  0
 14 15  2  0
  9 16  1  0
 16 17  2  0
 17 18  1  0
 18 19  2  0
 19 20  1  0
 20 21  1  0
 21 22  2  0
 22 23  1  0
 23 24  2  0
 23 25  1  0
 25 26  1  0
 26 27  1  0
 27 28  2  0
 28 29  1  0
 29 30  2  0
 30 31  1  0
 30 32  1  0
 32 33  2  0
 25 34  2  0
 34 35  1  0
 35 36  1  0
 36 37  2  0
  6 38  1  0
 38 39  2  0
 39 40  1  0
 39  3  1  0
 17  7  1  0
 36 19  1  0
 15 10  1  0
 35 21  1  0
 33 27  1  0
  1 41  1  0
  1 42  1  0
  1 43  1  0
  4 44  1  0
  5 45  1  0
 11 46  1  0
 12 47  1  0
 13 48  1  0
 14 49  1  0
 15 50  1  0
 16 51  1  0
 18 52  1  0
 26 53  1  0
 26 54  1  0
 28 55  1  0
 29 56  1  0
 31 57  1  0
 31 58  1  0
 31 59  1  0
 32 60  1  0
 33 61  1  0
 38 62  1  0
M  END
>  <Binding energies>  (1) 
[-9.28]

>  <Ligand effiencies>  (1) 
[-0.23199999999999998]

>  <Interactions>  (1) 
["V-A:ILE:369:CG2:3237, V-B:GLU:543:CD:9880, H-A:GLY:454:N:4050, H-A:TYR:484:OH:4348, V-B:GLU:543:CG:9879, V-A:GLU:543:CD:4908, V-A:LEU:475:CD2:4259, V-A:HIS:456:CE1:4070, V-B:ALA:541:CB:9864, V-A:GLY:454:CA:4049, V-B:TYR:539:C:9839, V-B:TYR:539:CE2:9848, V-B:TYR:539:CD2:9846, V-B:TYR:539:CG:9844, V-A:GLU:543:C:4902, V-B:GLU:543:CB:9878, V-A:GLY:544:C:4912, V-A:SER:385:CB:3409, V-A:PRO:482:CB:4326, V-A:GLU:543:CB:4906, V-A:HIS:383:CE1:3393, V-A:PRO:482:CG:4327, V-B:HIS:456:CD2:9039, V-B:HIS:456:CE1:9041, V-A:HIS:383:NE2:3394, V-B:ARG:545:CZ:9898, V-A:GLU:543:CG:4907, V-B:GLY:454:CA:9020, V-B:ARG:545:CD:9895, V-A:GLY:544:CA:4914, V-B:VAL:344:CG1:7972, V-B:GLY:453:C:9013, V-B:GLY:453:CA:9015, V-B:TYR:539:CB:9843, V-A:HIS:383:CD2:3392"]

$$$$
RR22_Rahimova_2017
     RDKit          3D

 49 54  0  0  0  0  0  0  0  0999 V2000
  133.9960  124.2490   57.5470 O   0  0  0  0  0  0  0  0  0  0  0  0
  133.1800  124.9610   58.1280 C   0  0  0  0  0  0  0  0  0  0  0  0
  132.5930  126.1250   57.6630 N   0  0  0  0  0  0  0  0  0  0  0  0
  131.6080  126.8070   58.4460 C   0  0  1  0  0  0  0  0  0  0  0  0
  132.1030  128.1420   58.5900 O   0  0  0  0  0  0  0  0  0  0  0  0
  131.3250  129.1930   58.1050 C   0  0  0  0  0  0  0  0  0  0  0  0
  131.9740  130.4140   57.9220 C   0  0  0  0  0  0  0  0  0  0  0  0
  131.2520  131.5230   57.4790 C   0  0  0  0  0  0  0  0  0  0  0  0
  129.8850  131.4110   57.2270 C   0  0  0  0  0  0  0  0  0  0  0  0
  129.2350  130.1890   57.4110 C   0  0  0  0  0  0  0  0  0  0  0  0
  129.9500  129.0640   57.8310 C   0  0  0  0  0  0  0  0  0  0  0  0
  129.3330  127.7090   58.1010 C   0  0  1  0  0  0  0  0  0  0  0  0
  128.1360  127.1920   57.3290 C   0  0  0  0  0  0  0  0  0  0  0  0
  128.4180  125.6880   57.3870 C   0  0  0  0  0  0  0  0  0  0  0  0
  127.3800  124.6710   57.1280 C   0  0  0  0  0  0  0  0  0  0  0  0
  126.0250  124.9600   57.3530 C   0  0  0  0  0  0  0  0  0  0  0  0
  125.0500  123.9980   57.1050 C   0  0  0  0  0  0  0  0  0  0  0  0
  125.4220  122.7420   56.6320 C   0  0  0  0  0  0  0  0  0  0  0  0
  126.7610  122.4390   56.4030 C   0  0  0  0  0  0  0  0  0  0  0  0
  127.7380  123.4010   56.6490 C   0  0  0  0  0  0  0  0  0  0  0  0
  129.6470  125.4580   57.6590 N   0  0  0  0  0  0  0  0  0  0  0  0
  130.2970  126.6970   57.7890 N   0  0  0  0  0  0  0  0  0  0  0  0
  131.6330  126.1700   59.8270 C   0  0  0  0  0  0  0  0  0  0  0  0
  131.0960  126.7610   60.9210 C   0  0  0  0  0  0  0  0  0  0  0  0
  131.0330  126.2500   62.3040 C   0  0  0  0  0  0  0  0  0  0  0  0
  129.9430  126.4770   63.1570 C   0  0  0  0  0  0  0  0  0  0  0  0
  129.9540  125.9630   64.4540 C   0  0  0  0  0  0  0  0  0  0  0  0
  131.0670  125.2330   64.8710 C   0  0  0  0  0  0  0  0  0  0  0  0
  132.1390  125.0050   64.0720 N   0  0  0  0  0  0  0  0  0  0  0  0
  132.1090  125.5130   62.8120 C   0  0  0  0  0  0  0  0  0  0  0  0
  132.5300  124.6450   59.7970 S   0  0  0  0  0  0  0  0  0  0  0  0
  132.8790  126.5330   56.7860 H   0  0  0  0  0  0  0  0  0  0  0  0
  133.0513  130.5024   58.1262 H   0  0  0  0  0  0  0  0  0  0  0  0
  131.7615  132.4862   57.3285 H   0  0  0  0  0  0  0  0  0  0  0  0
  129.3172  132.2878   56.8823 H   0  0  0  0  0  0  0  0  0  0  0  0
  128.1538  130.1113   57.2243 H   0  0  0  0  0  0  0  0  0  0  0  0
  129.0008  127.8830   59.1351 H   0  0  0  0  0  0  0  0  0  0  0  0
  127.1879  127.4498   57.8236 H   0  0  0  0  0  0  0  0  0  0  0  0
  128.0220  127.6052   56.3159 H   0  0  0  0  0  0  0  0  0  0  0  0
  125.7320  125.9520   57.7273 H   0  0  0  0  0  0  0  0  0  0  0  0
  123.9892  124.2290   57.2820 H   0  0  0  0  0  0  0  0  0  0  0  0
  124.6504  121.9824   56.4376 H   0  0  0  0  0  0  0  0  0  0  0  0
  127.0464  121.4445   56.0295 H   0  0  0  0  0  0  0  0  0  0  0  0
  128.7966  123.1640   56.4668 H   0  0  0  0  0  0  0  0  0  0  0  0
  130.6479  127.7521   60.7571 H   0  0  0  0  0  0  0  0  0  0  0  0
  129.0798  127.0601   62.8035 H   0  0  0  0  0  0  0  0  0  0  0  0
  129.1042  126.1297   65.1323 H   0  0  0  0  0  0  0  0  0  0  0  0
  131.0757  124.8245   65.8923 H   0  0  0  0  0  0  0  0  0  0  0  0
  132.9751  125.3358   62.1575 H   0  0  0  0  0  0  0  0  0  0  0  0
  1  2  2  0
  2  3  1  0
  3  4  1  0
  4  5  1  1
  5  6  1  0
  6  7  2  0
  7  8  1  0
  8  9  2  0
  9 10  1  0
 10 11  2  0
 11 12  1  0
 12 13  1  0
 13 14  1  0
 14 15  1  0
 15 16  2  0
 16 17  1  0
 17 18  2  0
 18 19  1  0
 19 20  2  0
 14 21  2  0
 21 22  1  0
  4 23  1  0
 23 24  2  0
 24 25  1  0
 25 26  2  0
 26 27  1  0
 27 28  2  0
 28 29  1  0
 29 30  2  0
 23 31  1  0
 31  2  1  0
 22  4  1  0
 30 25  1  0
 11  6  1  0
 22 12  1  0
 20 15  1  0
  3 32  1  0
  7 33  1  0
  8 34  1  0
  9 35  1  0
 10 36  1  0
 12 37  1  1
 13 38  1  0
 13 39  1  0
 16 40  1  0
 17 41  1  0
 18 42  1  0
 19 43  1  0
 20 44  1  0
 24 45  1  0
 26 46  1  0
 27 47  1  0
 28 48  1  0
 30 49  1  0
M  END
>  <Binding energies>  (1) 
[-9.4]

>  <Ligand effiencies>  (1) 
[-0.29375]

>  <Interactions>  (1) 
["V-A:ASP:366:CB:3212, V-B:GLU:543:CD:9880, H-A:ARG:545:NH2:4928, V-A:ASP:366:CA:3210, V-A:ASP:366:CG:3213, V-B:GLU:543:CG:9879, V-A:GLU:543:CD:4908, V-A:ARG:545:CZ:4926, V-B:TYR:539:C:9839, V-B:TYR:531:CE2:9765, V-B:PRO:540:CD:9859, V-B:PRO:540:CB:9857, V-B:PRO:540:N:9856, V-B:LEU:363:CD1:8160, V-B:MET:535:CE:9807, V-B:TYR:539:CZ:9849, V-B:TYR:539:CE2:9848, V-B:TYR:539:CD1:9845, V-B:TYR:539:CE1:9847, V-A:MET:535:CE:4835, V-A:TYR:531:CZ:4794, H-A:TYR:531:OH:4795, H-B:TYR:539:OH:9850, V-A:ASP:366:C:3208, H-A:ASN:370:N:3244, H-A:ASP:366:O:3209"]

$$$$
RR23_Rahimova_2017
     RDKit          3D

 65 70  0  0  0  0  0  0  0  0999 V2000
  131.7950  127.0230   73.6160 C   0  0  0  0  0  0  0  0  0  0  0  0
  130.6860  127.0140   72.5800 C   0  0  0  0  0  0  0  0  0  0  0  0
  129.4730  126.3850   72.8620 C   0  0  0  0  0  0  0  0  0  0  0  0
  128.4520  126.3850   71.9140 C   0  0  0  0  0  0  0  0  0  0  0  0
  128.6410  127.0040   70.6730 C   0  0  0  0  0  0  0  0  0  0  0  0
  127.5140  127.0110   69.6650 C   0  0  0  0  0  0  0  0  0  0  0  0
  126.3630  126.9000   70.0950 O   0  0  0  0  0  0  0  0  0  0  0  0
  127.8020  127.1540   68.3380 N   0  0  0  0  0  0  0  0  0  0  0  0
  127.5240  128.4090   67.6200 C   0  0  0  0  0  0  0  0  0  0  0  0
  128.1070  128.2420   66.2260 C   0  0  0  0  0  0  0  0  0  0  0  0
  129.0020  127.0500   66.3790 C   0  0  0  0  0  0  0  0  0  0  0  0
  129.8700  126.4780   65.4490 C   0  0  0  0  0  0  0  0  0  0  0  0
  130.5080  125.2600   65.7290 C   0  0  0  0  0  0  0  0  0  0  0  0
  131.4710  124.5960   64.7330 C   0  0  2  0  0  0  0  0  0  0  0  0
  131.4920  125.2770   63.4570 N   0  0  0  0  0  0  0  0  0  0  0  0
  131.7070  124.4740   62.4940 C   0  0  0  0  0  0  0  0  0  0  0  0
  131.7670  124.7550   61.1650 N   0  0  0  0  0  0  0  0  0  0  0  0
  131.4780  125.9200   60.5370 C   0  0  0  0  0  0  0  0  0  0  0  0
  131.1380  126.9670   61.0910 O   0  0  0  0  0  0  0  0  0  0  0  0
  131.5890  125.8910   59.0030 C   0  0  0  0  0  0  0  0  0  0  0  0
  130.2730  125.5300   58.4280 N   0  0  0  0  0  0  0  0  0  0  0  0
  129.7190  126.4720   57.5710 N   0  0  0  0  0  0  0  0  0  0  0  0
  128.5710  126.2780   57.0040 N   0  0  0  0  0  0  0  0  0  0  0  0
  127.8660  125.0970   57.2500 C   0  0  0  0  0  0  0  0  0  0  0  0
  126.6300  124.9190   56.6240 C   0  0  0  0  0  0  0  0  0  0  0  0
  125.9020  123.7500   56.8510 C   0  0  0  0  0  0  0  0  0  0  0  0
  126.4050  122.7620   57.7000 C   0  0  0  0  0  0  0  0  0  0  0  0
  127.6400  122.9380   58.3270 C   0  0  0  0  0  0  0  0  0  0  0  0
  128.3710  124.1100   58.0990 C   0  0  0  0  0  0  0  0  0  0  0  0
  129.7080  124.3220   58.7710 C   0  0  0  0  0  0  0  0  0  0  0  0
  130.2230  123.5100   59.5440 O   0  0  0  0  0  0  0  0  0  0  0  0
  131.9460  122.7530   62.9130 S   0  0  0  0  0  0  0  0  0  0  0  0
  131.2380  123.0790   64.5370 C   0  0  2  0  0  0  0  0  0  0  0  0
  129.7730  122.5960   64.5530 C   0  0  0  0  0  0  0  0  0  0  0  0
  130.2190  124.6080   66.9340 C   0  0  0  0  0  0  0  0  0  0  0  0
  129.3350  125.1700   67.8560 C   0  0  0  0  0  0  0  0  0  0  0  0
  128.7650  126.4250   67.6040 C   0  0  0  0  0  0  0  0  0  0  0  0
  129.8520  127.6570   70.4080 C   0  0  0  0  0  0  0  0  0  0  0  0
  130.8720  127.6580   71.3560 C   0  0  0  0  0  0  0  0  0  0  0  0
  131.3550  127.0194   74.6242 H   0  0  0  0  0  0  0  0  0  0  0  0
  132.4242  126.1299   73.4874 H   0  0  0  0  0  0  0  0  0  0  0  0
  132.4096  127.9262   73.4874 H   0  0  0  0  0  0  0  0  0  0  0  0
  129.3228  125.8893   73.8324 H   0  0  0  0  0  0  0  0  0  0  0  0
  127.4932  125.8964   72.1419 H   0  0  0  0  0  0  0  0  0  0  0  0
  126.4392  128.5816   67.5609 H   0  0  0  0  0  0  0  0  0  0  0  0
  127.9676  129.2722   68.1378 H   0  0  0  0  0  0  0  0  0  0  0  0
  127.3157  128.0506   65.4863 H   0  0  0  0  0  0  0  0  0  0  0  0
  128.6337  129.1376   65.8649 H   0  0  0  0  0  0  0  0  0  0  0  0
  130.0555  126.9847   64.4904 H   0  0  0  0  0  0  0  0  0  0  0  0
  132.4614  124.6966   65.2010 H   0  0  0  0  0  0  0  0  0  0  0  0
  132.0150  123.9840   60.5610 H   0  0  0  0  0  0  0  0  0  0  0  0
  131.8911  126.8833   58.6369 H   0  0  0  0  0  0  0  0  0  0  0  0
  132.3417  125.1482   58.7002 H   0  0  0  0  0  0  0  0  0  0  0  0
  126.2323  125.6965   55.9552 H   0  0  0  0  0  0  0  0  0  0  0  0
  124.9285  123.6065   56.3593 H   0  0  0  0  0  0  0  0  0  0  0  0
  125.8268  121.8428   57.8752 H   0  0  0  0  0  0  0  0  0  0  0  0
  128.0364  122.1602   58.9963 H   0  0  0  0  0  0  0  0  0  0  0  0
  131.6878  122.5402   65.3839 H   0  0  0  0  0  0  0  0  0  0  0  0
  129.4350  122.4846   65.5938 H   0  0  0  0  0  0  0  0  0  0  0  0
  129.1385  123.3325   64.0383 H   0  0  0  0  0  0  0  0  0  0  0  0
  129.7009  121.6265   64.0383 H   0  0  0  0  0  0  0  0  0  0  0  0
  130.6944  123.6413   67.1565 H   0  0  0  0  0  0  0  0  0  0  0  0
  129.0858  124.6280   68.7802 H   0  0  0  0  0  0  0  0  0  0  0  0
  129.9977  128.1713   69.4466 H   0  0  0  0  0  0  0  0  0  0  0  0
  131.8235  128.1660   71.1403 H   0  0  0  0  0  0  0  0  0  0  0  0
  1  2  1  0
  2  3  2  0
  3  4  1  0
  4  5  2  0
  5  6  1  0
  6  7  2  0
  6  8  1  0
  8  9  1  0
  9 10  1  0
 10 11  1  0
 11 12  2  0
 12 13  1  0
 13 14  1  0
 14 15  1  0
 15 16  2  0
 16 17  1  0
 17 18  1  0
 18 19  2  0
 18 20  1  0
 20 21  1  0
 21 22  1  0
 22 23  2  0
 23 24  1  0
 24 25  2  0
 25 26  1  0
 26 27  2  0
 27 28  1  0
 28 29  2  0
 29 30  1  0
 30 31  2  0
 16 32  1  0
 32 33  1  0
 33 34  1  0
 13 35  2  0
 35 36  1  0
 36 37  2  0
  5 38  1  0
 38 39  2  0
 39  2  1  0
 37  8  1  0
 37 11  1  0
 33 14  1  0
 30 21  1  0
 29 24  1  0
  1 40  1  0
  1 41  1  0
  1 42  1  0
  3 43  1  0
  4 44  1  0
  9 45  1  0
  9 46  1  0
 10 47  1  0
 10 48  1  0
 12 49  1  0
 14 50  1  1
 17 51  1  0
 20 52  1  0
 20 53  1  0
 25 54  1  0
 26 55  1  0
 27 56  1  0
 28 57  1  0
 33 58  1  1
 34 59  1  0
 34 60  1  0
 34 61  1  0
 35 62  1  0
 36 63  1  0
 38 64  1  0
 39 65  1  0
M  END
>  <Binding energies>  (1) 
[-8.53]

>  <Ligand effiencies>  (1) 
[-0.21325]

>  <Interactions>  (1) 
["V-A:ASP:366:CB:3212, V-B:GLU:543:CD:9880, H-A:ARG:545:NH2:4928, V-A:ASP:366:CG:3213, V-B:GLU:543:CG:9879, V-A:GLU:543:CD:4908, V-A:LEU:475:CD2:4259, V-A:HIS:456:CE1:4070, V-B:ALA:541:CB:9864, V-B:TYR:539:C:9839, V-B:PRO:540:CD:9859, V-B:PRO:540:CA:9855, V-B:PRO:540:CB:9857, V-B:PRO:540:N:9856, V-B:MET:535:CE:9807, V-B:TYR:539:CZ:9849, V-B:TYR:539:CE2:9848, V-B:TYR:539:CD2:9846, V-A:TYR:484:CE2:4346, V-B:GLU:543:C:9874, V-A:HIS:456:CD2:4068, V-B:GLU:543:CA:9876, V-A:TYR:484:CZ:4347, V-B:GLU:543:CB:9878, V-A:HIS:456:CG:4066, V-A:GLY:544:C:4912, V-B:HIS:456:CE1:9041, V-A:GLU:543:CG:4907, H-A:TYR:531:OH:4795, H-B:HIS:456:ND1:9038, H-B:ARG:545:N:9892"]

$$$$
RR24_Rahimova_2017
     RDKit          3D

 65 71  0  0  0  0  0  0  0  0999 V2000
  131.4580  133.2720   56.7280 C   0  0  0  0  0  0  0  0  0  0  0  0
  131.6090  132.2510   57.8650 C   0  0  2  0  0  0  0  0  0  0  0  0
  131.6220  130.7760   57.3670 C   0  0  0  0  0  0  0  0  0  0  0  0
  132.6670  130.2020   57.0440 O   0  0  0  0  0  0  0  0  0  0  0  0
  130.3710  130.2310   57.3110 O   0  0  0  0  0  0  0  0  0  0  0  0
  130.1940  128.9030   57.6240 C   0  0  0  0  0  0  0  0  0  0  0  0
  130.7160  128.4050   58.8200 C   0  0  0  0  0  0  0  0  0  0  0  0
  130.5340  127.0660   59.1510 C   0  0  0  0  0  0  0  0  0  0  0  0
  129.8240  126.2200   58.2940 C   0  0  0  0  0  0  0  0  0  0  0  0
  129.6430  124.7410   58.6560 C   0  0  1  0  0  0  0  0  0  0  0  0
  130.7610  124.2360   59.5980 C   0  0  0  0  0  0  0  0  0  0  0  0
  130.5060  123.5810   60.7450 C   0  0  0  0  0  0  0  0  0  0  0  0
  129.2270  123.3130   61.1660 N   0  0  0  0  0  0  0  0  0  0  0  0
  128.1350  123.7060   60.4290 C   0  0  0  0  0  0  0  0  0  0  0  0
  126.9430  123.3570   60.9780 N   0  0  0  0  0  0  0  0  0  0  0  0
  125.7530  123.7290   60.4320 C   0  0  0  0  0  0  0  0  0  0  0  0
  124.7310  123.6700   61.1180 O   0  0  0  0  0  0  0  0  0  0  0  0
  125.8630  124.3050   59.1760 N   0  0  0  0  0  0  0  0  0  0  0  0
  124.5940  124.6440   58.4980 C   0  0  0  0  0  0  0  0  0  0  0  0
  127.0200  124.7020   58.5270 C   0  0  0  0  0  0  0  0  0  0  0  0
  127.0400  125.2600   57.4250 O   0  0  0  0  0  0  0  0  0  0  0  0
  128.2510  124.3810   59.2550 C   0  0  0  0  0  0  0  0  0  0  0  0
  131.7410  123.2280   61.4250 C   0  0  0  0  0  0  0  0  0  0  0  0
  132.0120  122.5640   62.6220 C   0  0  0  0  0  0  0  0  0  0  0  0
  133.3400  122.3760   63.0120 C   0  0  0  0  0  0  0  0  0  0  0  0
  134.3830  122.8480   62.2100 C   0  0  0  0  0  0  0  0  0  0  0  0
  134.1060  123.5120   61.0120 C   0  0  0  0  0  0  0  0  0  0  0  0
  132.7760  123.6980   60.6280 C   0  0  0  0  0  0  0  0  0  0  0  0
  132.2060  124.3530   59.4320 C   0  0  0  0  0  0  0  0  0  0  0  0
  132.7750  124.8890   58.4820 O   0  0  0  0  0  0  0  0  0  0  0  0
  129.2860  126.7260   57.1060 C   0  0  0  0  0  0  0  0  0  0  0  0
  129.4660  128.0660   56.7750 C   0  0  0  0  0  0  0  0  0  0  0  0
  130.6140  132.4740   58.9550 N   0  0  0  0  0  0  0  0  0  0  0  0
  129.4130  133.0710   58.7130 C   0  0  0  0  0  0  0  0  0  0  0  0
  128.9940  133.4980   57.6360 O   0  0  0  0  0  0  0  0  0  0  0  0
  128.7150  133.0990   60.0230 C   0  0  0  0  0  0  0  0  0  0  0  0
  127.4590  133.5930   60.3770 C   0  0  0  0  0  0  0  0  0  0  0  0
  127.0480  133.4810   61.7110 C   0  0  0  0  0  0  0  0  0  0  0  0
  127.8870  132.8840   62.6600 C   0  0  0  0  0  0  0  0  0  0  0  0
  129.1430  132.3950   62.2850 C   0  0  0  0  0  0  0  0  0  0  0  0
  129.5350  132.5170   60.9510 C   0  0  0  0  0  0  0  0  0  0  0  0
  130.7810  132.1000   60.2600 C   0  0  0  0  0  0  0  0  0  0  0  0
  131.7540  131.5320   60.7580 O   0  0  0  0  0  0  0  0  0  0  0  0
  131.3096  134.2754   57.1536 H   0  0  0  0  0  0  0  0  0  0  0  0
  132.3666  133.2674   56.1080 H   0  0  0  0  0  0  0  0  0  0  0  0
  130.5896  133.0046   56.1080 H   0  0  0  0  0  0  0  0  0  0  0  0
  132.6044  132.4261   58.2992 H   0  0  0  0  0  0  0  0  0  0  0  0
  131.2699  129.0701   59.4988 H   0  0  0  0  0  0  0  0  0  0  0  0
  130.9500  126.6718   60.0899 H   0  0  0  0  0  0  0  0  0  0  0  0
  129.7105  124.2214   57.6888 H   0  0  0  0  0  0  0  0  0  0  0  0
  129.0810  122.8150   62.0330 H   0  0  0  0  0  0  0  0  0  0  0  0
  126.9040  122.8260   61.8350 H   0  0  0  0  0  0  0  0  0  0  0  0
  123.8196  124.8509   59.2514 H   0  0  0  0  0  0  0  0  0  0  0  0
  124.7408  125.5344   57.8690 H   0  0  0  0  0  0  0  0  0  0  0  0
  124.2772  123.7990   57.8690 H   0  0  0  0  0  0  0  0  0  0  0  0
  131.1895  122.1930   63.2511 H   0  0  0  0  0  0  0  0  0  0  0  0
  133.5659  121.8545   63.9538 H   0  0  0  0  0  0  0  0  0  0  0  0
  135.4265  122.6961   62.5233 H   0  0  0  0  0  0  0  0  0  0  0  0
  134.9254  123.8836   60.3791 H   0  0  0  0  0  0  0  0  0  0  0  0
  128.7205  126.0647   56.4331 H   0  0  0  0  0  0  0  0  0  0  0  0
  129.0351  128.4657   55.8452 H   0  0  0  0  0  0  0  0  0  0  0  0
  126.8062  134.0601   59.6249 H   0  0  0  0  0  0  0  0  0  0  0  0
  126.0623  133.8635   62.0146 H   0  0  0  0  0  0  0  0  0  0  0  0
  127.5568  132.7991   63.7058 H   0  0  0  0  0  0  0  0  0  0  0  0
  129.8070  131.9247   63.0252 H   0  0  0  0  0  0  0  0  0  0  0  0
  1  2  1  0
  2  3  1  0
  3  4  2  0
  3  5  1  0
  5  6  1  0
  6  7  2  0
  7  8  1  0
  8  9  2  0
  9 10  1  0
 10 11  1  0
 11 12  2  0
 12 13  1  0
 13 14  1  0
 14 15  1  0
 15 16  1  0
 16 17  2  0
 16 18  1  0
 18 19  1  0
 18 20  1  0
 20 21  2  0
 20 22  1  0
 12 23  1  0
 23 24  2  0
 24 25  1  0
 25 26  2  0
 26 27  1  0
 27 28  2  0
 28 29  1  0
 29 30  2  0
  9 31  1  0
 31 32  2  0
  2 33  1  0
 33 34  1  0
 34 35  2  0
 34 36  1  0
 36 37  2  0
 37 38  1  0
 38 39  2  0
 39 40  1  0
 40 41  2  0
 41 42  1  0
 42 43  2  0
 32  6  1  0
 42 33  1  0
 22 10  1  0
 28 23  1  0
 41 36  1  0
 29 11  1  0
 22 14  2  0
  1 44  1  0
  1 45  1  0
  1 46  1  0
  2 47  1  1
  7 48  1  0
  8 49  1  0
 10 50  1  6
 13 51  1  0
 15 52  1  0
 19 53  1  0
 19 54  1  0
 19 55  1  0
 24 56  1  0
 25 57  1  0
 26 58  1  0
 27 59  1  0
 31 60  1  0
 32 61  1  0
 37 62  1  0
 38 63  1  0
 39 64  1  0
 40 65  1  0
M  END
>  <Binding energies>  (1) 
[-9.69]

>  <Ligand effiencies>  (1) 
[-0.21533333333333332]

>  <Interactions>  (1) 
["V-A:ILE:369:CG2:3237, V-A:ILE:369:CD1:3239, V-A:GLY:453:C:4042, V-A:LEU:475:CD2:4259, V-A:GLY:454:CA:4049, V-B:ASP:366:CB:8183, H-B:GLU:543:OE1:9881, V-B:ASP:366:CG:8184, V-B:PRO:540:CA:9855, V-B:PRO:540:CB:9857, V-B:TYR:539:CZ:9849, V-B:TYR:539:CE2:9848, V-A:MET:535:CE:4835, V-A:PRO:540:CA:4883, V-A:PRO:540:CB:4885, V-A:LEU:363:CD1:3189, V-A:PRO:540:CD:4887, H-B:TYR:531:OH:9767, V-A:PRO:540:N:4884, H-A:TYR:531:OH:4795, V-A:TYR:539:CE1:4875, H-B:TYR:539:OH:9850, V-A:TYR:539:CD1:4873, H-A:TYR:539:N:4870, V-A:ALA:541:CB:4892, V-B:LEU:475:CD2:9230, V-A:TYR:539:C:4867, V-A:ILE:538:CB:4862, V-A:ILE:538:CA:4860, V-A:ILE:538:CG2:4863"]

$$$$
RR24_Rahimova_2017-again1
     RDKit          3D

 63 69  0  0  0  0  0  0  0  0999 V2000
  128.0330  127.9820   66.9850 C   0  0  0  0  0  0  0  0  0  0  0  0
  129.2930  127.4550   67.6850 C   0  0  2  0  0  0  0  0  0  0  0  0
  129.7010  126.0240   67.2270 C   0  0  0  0  0  0  0  0  0  0  0  0
  129.1400  125.0120   67.6640 O   0  0  0  0  0  0  0  0  0  0  0  0
  130.7350  126.0310   66.3360 O   0  0  0  0  0  0  0  0  0  0  0  0
  130.5820  125.4240   65.1110 C   0  0  0  0  0  0  0  0  0  0  0  0
  131.2440  124.2230   64.8500 C   0  0  0  0  0  0  0  0  0  0  0  0
  131.0790  123.5920   63.6210 C   0  0  0  0  0  0  0  0  0  0  0  0
  130.2440  124.1530   62.6490 C   0  0  0  0  0  0  0  0  0  0  0  0
  130.0590  123.4600   61.2910 C   0  0  1  0  0  0  0  0  0  0  0  0
  128.6090  123.6140   60.7750 C   0  0  0  0  0  0  0  0  0  0  0  0
  127.4230  123.1720   61.2500 C   0  0  0  0  0  0  0  0  0  0  0  0
  127.2760  122.4430   62.3030 O   0  0  0  0  0  0  0  0  0  0  0  0
  126.3280  123.6640   60.4160 C   0  0  0  0  0  0  0  0  0  0  0  0
  124.9380  123.5020   60.4890 C   0  0  0  0  0  0  0  0  0  0  0  0
  124.1220  124.1090   59.5330 C   0  0  0  0  0  0  0  0  0  0  0  0
  124.6900  124.8700   58.5100 C   0  0  0  0  0  0  0  0  0  0  0  0
  126.0760  125.0260   58.4390 C   0  0  0  0  0  0  0  0  0  0  0  0
  126.8900  124.4220   59.4000 C   0  0  0  0  0  0  0  0  0  0  0  0
  128.3310  124.3890   59.5770 C   0  0  0  0  0  0  0  0  0  0  0  0
  129.2600  124.9040   58.8620 N   0  0  0  0  0  0  0  0  0  0  0  0
  130.5770  124.6640   59.1190 C   0  0  0  0  0  0  0  0  0  0  0  0
  131.4090  125.1610   58.1580 N   0  0  0  0  0  0  0  0  0  0  0  0
  132.6800  125.0180   58.2890 C   0  0  0  0  0  0  0  0  0  0  0  0
  133.3390  125.5130   57.3590 O   0  0  0  0  0  0  0  0  0  0  0  0
  133.2480  124.3600   59.3790 N   0  0  0  0  0  0  0  0  0  0  0  0
  134.7080  124.1800   59.5590 C   0  0  0  0  0  0  0  0  0  0  0  0
  132.4840  123.8100   60.3900 C   0  0  0  0  0  0  0  0  0  0  0  0
  132.9450  123.1990   61.3590 O   0  0  0  0  0  0  0  0  0  0  0  0
  131.0390  123.9990   60.2230 C   0  0  0  0  0  0  0  0  0  0  0  0
  129.5730  125.3490   62.9180 C   0  0  0  0  0  0  0  0  0  0  0  0
  129.7360  125.9800   64.1470 C   0  0  0  0  0  0  0  0  0  0  0  0
  129.1990  127.5700   69.1700 N   0  0  0  0  0  0  0  0  0  0  0  0
  128.0560  127.2460   69.8390 C   0  0  0  0  0  0  0  0  0  0  0  0
  126.9960  126.8400   69.3590 O   0  0  0  0  0  0  0  0  0  0  0  0
  128.3570  127.4850   71.2730 C   0  0  0  0  0  0  0  0  0  0  0  0
  127.5650  127.3310   72.4120 C   0  0  0  0  0  0  0  0  0  0  0  0
  128.1190  127.6380   73.6590 C   0  0  0  0  0  0  0  0  0  0  0  0
  129.4420  128.0890   73.7530 C   0  0  0  0  0  0  0  0  0  0  0  0
  130.2210  128.2360   72.6000 C   0  0  0  0  0  0  0  0  0  0  0  0
  129.6490  127.9260   71.3650 C   0  0  0  0  0  0  0  0  0  0  0  0
  130.2120  127.9790   69.9920 C   0  0  0  0  0  0  0  0  0  0  0  0
  131.3500  128.3170   69.6660 O   0  0  0  0  0  0  0  0  0  0  0  0
  127.2956  128.2904   67.7407 H   0  0  0  0  0  0  0  0  0  0  0  0
  128.2967  128.8452   66.3563 H   0  0  0  0  0  0  0  0  0  0  0  0
  127.6036  127.1881   66.3563 H   0  0  0  0  0  0  0  0  0  0  0  0
  130.1134  128.1128   67.3621 H   0  0  0  0  0  0  0  0  0  0  0  0
  131.8955  123.7759   65.6153 H   0  0  0  0  0  0  0  0  0  0  0  0
  131.6066  122.6494   63.4131 H   0  0  0  0  0  0  0  0  0  0  0  0
  130.2761  122.3945   61.4568 H   0  0  0  0  0  0  0  0  0  0  0  0
  124.4926  122.9001   61.2948 H   0  0  0  0  0  0  0  0  0  0  0  0
  123.0300  123.9875   59.5859 H   0  0  0  0  0  0  0  0  0  0  0  0
  124.0446  125.3478   57.7582 H   0  0  0  0  0  0  0  0  0  0  0  0
  126.5244  125.6216   57.6302 H   0  0  0  0  0  0  0  0  0  0  0  0
  134.9442  124.1509   60.6329 H   0  0  0  0  0  0  0  0  0  0  0  0
  135.0218  123.2364   59.0888 H   0  0  0  0  0  0  0  0  0  0  0  0
  135.2416  125.0192   59.0888 H   0  0  0  0  0  0  0  0  0  0  0  0
  128.9146  125.7923   62.1564 H   0  0  0  0  0  0  0  0  0  0  0  0
  129.1993  126.9162   64.3602 H   0  0  0  0  0  0  0  0  0  0  0  0
  126.5271  126.9757   72.3306 H   0  0  0  0  0  0  0  0  0  0  0  0
  127.5131  127.5248   74.5701 H   0  0  0  0  0  0  0  0  0  0  0  0
  129.8703  128.3286   74.7375 H   0  0  0  0  0  0  0  0  0  0  0  0
  131.2611  128.5880   72.6653 H   0  0  0  0  0  0  0  0  0  0  0  0
  1  2  1  0
  2  3  1  0
  3  4  2  0
  3  5  1  0
  5  6  1  0
  6  7  2  0
  7  8  1  0
  8  9  2  0
  9 10  1  0
 10 11  1  0
 11 12  2  0
 12 13  1  0
 12 14  1  0
 14 15  2  0
 15 16  1  0
 16 17  2  0
 17 18  1  0
 18 19  2  0
 19 20  1  0
 20 21  2  0
 21 22  1  0
 22 23  1  0
 23 24  2  0
 24 25  1  0
 24 26  1  0
 26 27  1  0
 26 28  1  0
 28 29  2  0
 28 30  1  0
  9 31  1  0
 31 32  2  0
  2 33  1  0
 33 34  1  0
 34 35  2  0
 34 36  1  0
 36 37  2  0
 37 38  1  0
 38 39  2  0
 39 40  1  0
 40 41  2  0
 41 42  1  0
 42 43  2  0
 32  6  1  0
 42 33  1  0
 30 10  1  0
 41 36  1  0
 20 11  1  0
 30 22  2  0
 19 14  1  0
  1 44  1  0
  1 45  1  0
  1 46  1  0
  2 47  1  6
  7 48  1  0
  8 49  1  0
 10 50  1  1
 15 51  1  0
 16 52  1  0
 17 53  1  0
 18 54  1  0
 27 55  1  0
 27 56  1  0
 27 57  1  0
 31 58  1  0
 32 59  1  0
 37 60  1  0
 38 61  1  0
 39 62  1  0
 40 63  1  0
M  CHG  2  13  -1  25  -1
M  END
>  <Binding energies>  (1) 
[-8.49]

>  <Ligand effiencies>  (1) 
[-0.19744186046511628]

>  <Interactions>  (1) 
["V-A:ILE:369:CG2:3237, V-A:ILE:369:CD1:3239, V-A:ASP:366:CB:3212, V-B:GLU:543:CD:9880, V-A:ASP:366:CA:3210, V-A:ASP:366:CG:3213, V-B:GLU:543:CG:9879, V-A:ILE:369:CB:3236, V-A:GLU:543:CD:4908, V-A:HIS:456:CE1:4070, V-B:ASP:366:CB:8183, H-B:ALA:541:N:9863, V-B:ASP:366:CG:8184, V-B:PRO:540:CA:9855, V-B:PRO:540:CB:9857, V-B:LEU:363:CA:8156, V-B:TYR:539:CZ:9849, V-B:TYR:539:CE2:9848, V-A:GLU:543:C:4902, V-B:GLU:543:C:9874, V-A:TYR:484:CZ:4347, V-B:GLU:543:CB:9878, V-A:GLY:544:C:4912, V-A:GLU:543:CB:4906, V-B:HIS:456:CD2:9039, V-B:HIS:456:CE1:9041, V-B:GLY:544:C:9884, V-B:LYS:547:CE:9922, V-B:HIS:456:CG:9037, H-A:TYR:531:OH:4795, H-B:TYR:539:OH:9850, V-A:ASP:366:C:3208, H-A:ARG:545:N:4920, V-A:ILE:369:CG1:3238"]

$$$$
RR25_Rahimova_2017
     RDKit          3D

 63 68  0  0  0  0  0  0  0  0999 V2000
  126.9500  123.6180   61.3150 O   0  0  0  0  0  0  0  0  0  0  0  0
  127.9230  124.1630   61.8370 C   0  0  0  0  0  0  0  0  0  0  0  0
  128.7020  123.3710   62.6440 O   0  0  0  0  0  0  0  0  0  0  0  0
  129.9450  123.7890   63.0830 C   0  0  0  0  0  0  0  0  0  0  0  0
  130.8680  122.7930   63.3960 C   0  0  0  0  0  0  0  0  0  0  0  0
  132.1370  123.1430   63.8520 C   0  0  0  0  0  0  0  0  0  0  0  0
  132.5000  124.4890   64.0050 C   0  0  0  0  0  0  0  0  0  0  0  0
  133.8550  124.8590   64.4830 N   0  0  0  0  0  0  0  0  0  0  0  0
  134.0440  124.9570   65.6930 O   0  0  0  0  0  0  0  0  0  0  0  0
  134.7370  125.0550   63.6530 O   0  0  0  0  0  0  0  0  0  0  0  0
  131.5520  125.4780   63.6960 C   0  0  0  0  0  0  0  0  0  0  0  0
  130.2720  125.1430   63.2450 C   0  0  0  0  0  0  0  0  0  0  0  0
  129.2160  126.1740   62.8870 C   0  0  0  0  0  0  0  0  0  0  0  0
  128.3560  125.6520   61.7020 C   0  0  2  0  0  0  0  0  0  0  0  0
  127.1990  126.6400   61.3710 C   0  0  0  0  0  0  0  0  0  0  0  0
  126.1130  126.1280   61.0880 O   0  0  0  0  0  0  0  0  0  0  0  0
  127.3370  127.9940   61.5080 N   0  0  0  0  0  0  0  0  0  0  0  0
  128.6530  128.6660   61.5340 C   0  0  0  0  0  0  0  0  0  0  0  0
  128.5960  129.8420   62.5320 C   0  0  0  0  0  0  0  0  0  0  0  0
  127.4960  130.7580   62.2170 N   0  0  0  0  0  0  0  0  0  0  0  0
  127.5200  131.9450   63.0820 C   0  0  0  0  0  0  0  0  0  0  0  0
  128.3970  133.0900   62.5090 C   0  0  0  0  0  0  0  0  0  0  0  0
  129.0910  132.8020   61.2200 N   0  0  0  0  0  0  0  0  0  0  0  0
  130.3650  132.2870   61.3390 C   0  0  0  0  0  0  0  0  0  0  0  0
  130.9220  132.1050   62.4270 O   0  0  0  0  0  0  0  0  0  0  0  0
  131.0310  131.9380   60.0210 C   0  0  0  0  0  0  0  0  0  0  0  0
  132.3170  131.3830   60.0270 C   0  0  0  0  0  0  0  0  0  0  0  0
  132.9550  131.0430   58.8350 C   0  0  0  0  0  0  0  0  0  0  0  0
  132.3310  131.2430   57.6050 C   0  0  0  0  0  0  0  0  0  0  0  0
  131.0310  131.8010   57.5510 C   0  0  0  0  0  0  0  0  0  0  0  0
  130.3390  132.0290   56.3380 C   0  0  0  0  0  0  0  0  0  0  0  0
  129.0580  132.5800   56.3560 C   0  0  0  0  0  0  0  0  0  0  0  0
  128.4400  132.9150   57.5580 C   0  0  0  0  0  0  0  0  0  0  0  0
  129.0870  132.7070   58.7830 C   0  0  0  0  0  0  0  0  0  0  0  0
  130.3900  132.1460   58.7730 C   0  0  0  0  0  0  0  0  0  0  0  0
  128.3770  133.0770   60.0720 C   0  0  0  0  0  0  0  0  0  0  0  0
  127.2430  133.5680   60.0770 O   0  0  0  0  0  0  0  0  0  0  0  0
  126.2180  130.0490   62.3080 C   0  0  0  0  0  0  0  0  0  0  0  0
  126.1520  128.8610   61.3180 C   0  0  0  0  0  0  0  0  0  0  0  0
  130.5953  121.7333   63.2833 H   0  0  0  0  0  0  0  0  0  0  0  0
  132.8635  122.3536   64.0951 H   0  0  0  0  0  0  0  0  0  0  0  0
  131.8223  126.5380   63.8112 H   0  0  0  0  0  0  0  0  0  0  0  0
  128.5686  126.3522   63.7582 H   0  0  0  0  0  0  0  0  0  0  0  0
  129.7079  127.1134   62.5946 H   0  0  0  0  0  0  0  0  0  0  0  0
  129.0075  125.6329   60.8159 H   0  0  0  0  0  0  0  0  0  0  0  0
  129.4264  127.9507   61.8505 H   0  0  0  0  0  0  0  0  0  0  0  0
  128.8987  129.0418   60.5298 H   0  0  0  0  0  0  0  0  0  0  0  0
  128.4503  129.4434   63.5468 H   0  0  0  0  0  0  0  0  0  0  0  0
  129.5415  130.4000   62.4638 H   0  0  0  0  0  0  0  0  0  0  0  0
  126.4909  132.3155   63.1987 H   0  0  0  0  0  0  0  0  0  0  0  0
  127.9573  131.6436   64.0453 H   0  0  0  0  0  0  0  0  0  0  0  0
  127.7484  133.9647   62.3535 H   0  0  0  0  0  0  0  0  0  0  0  0
  129.1973  133.2474   63.2471 H   0  0  0  0  0  0  0  0  0  0  0  0
  132.8303  131.2132   60.9849 H   0  0  0  0  0  0  0  0  0  0  0  0
  133.9659  130.6105   58.8657 H   0  0  0  0  0  0  0  0  0  0  0  0
  132.8493  130.9669   56.6749 H   0  0  0  0  0  0  0  0  0  0  0  0
  130.8123  131.7712   55.3791 H   0  0  0  0  0  0  0  0  0  0  0  0
  128.5284  132.7524   55.4074 H   0  0  0  0  0  0  0  0  0  0  0  0
  127.4294  133.3491   57.5455 H   0  0  0  0  0  0  0  0  0  0  0  0
  126.0940  129.6672   63.3321 H   0  0  0  0  0  0  0  0  0  0  0  0
  125.4145  130.7551   62.0512 H   0  0  0  0  0  0  0  0  0  0  0  0
  125.2377  128.2785   61.5046 H   0  0  0  0  0  0  0  0  0  0  0  0
  126.1389  129.2434   60.2867 H   0  0  0  0  0  0  0  0  0  0  0  0
  1  2  2  0
  2  3  1  0
  3  4  1  0
  4  5  2  0
  5  6  1  0
  6  7  2  0
  7  8  1  0
  8  9  2  0
  8 10  1  0
  7 11  1  0
 11 12  2  0
 12 13  1  0
 13 14  1  0
 14 15  1  0
 15 16  2  0
 15 17  1  0
 17 18  1  0
 18 19  1  0
 19 20  1  0
 20 21  1  0
 21 22  1  0
 22 23  1  0
 23 24  1  0
 24 25  2  0
 24 26  1  0
 26 27  2  0
 27 28  1  0
 28 29  2  0
 29 30  1  0
 30 31  2  0
 31 32  1  0
 32 33  2  0
 33 34  1  0
 34 35  2  0
 34 36  1  0
 36 37  2  0
 20 38  1  0
 38 39  1  0
 14  2  1  0
 39 17  1  0
 12  4  1  0
 36 23  1  0
 35 26  1  0
 35 30  1  0
  5 40  1  0
  6 41  1  0
 11 42  1  0
 13 43  1  0
 13 44  1  0
 14 45  1  6
 18 46  1  0
 18 47  1  0
 19 48  1  0
 19 49  1  0
 21 50  1  0
 21 51  1  0
 22 52  1  0
 22 53  1  0
 27 54  1  0
 28 55  1  0
 29 56  1  0
 31 57  1  0
 32 58  1  0
 33 59  1  0
 38 60  1  0
 38 61  1  0
 39 62  1  0
 39 63  1  0
M  CHG  2   8   1  10  -1
M  END
>  <Binding energies>  (1) 
[-10.14]

>  <Ligand effiencies>  (1) 
[-0.26]

>  <Interactions>  (1) 
["V-A:ASP:366:CB:3212, V-A:GLY:453:C:4042, V-B:GLU:543:CD:9880, H-A:ARG:545:NH1:4927, H-A:ARG:545:NH2:4928, H-A:GLY:454:N:4050, V-A:GLY:453:CA:4044, V-A:ASP:366:CG:3213, H-A:TYR:484:OH:4348, H-A:ARG:545:NE:4924, V-A:GLU:543:CD:4908, V-A:ARG:545:CZ:4926, V-A:LEU:475:CD2:4259, V-A:GLY:454:CA:4049, V-B:ASP:366:CG:8184, H-B:ARG:545:NH2:9900, V-A:MET:535:CE:4835, V-A:PRO:540:CA:4883, V-A:PRO:540:CB:4885, V-A:LEU:363:CD1:3189, V-A:PRO:540:N:4884, V-A:TYR:539:CE1:4875, H-A:ALA:541:N:4891, V-A:LEU:363:CA:3185, V-A:TYR:539:CZ:4877, V-A:PRO:540:C:4881, V-A:TYR:539:CG:4872, V-A:TYR:539:CD1:4873, V-A:ALA:541:CB:4892, V-A:TYR:539:C:4867"]

$$$$
RR26_Rahimova_2017
     RDKit          3D

 59 65  0  0  0  0  0  0  0  0999 V2000
  126.9780  126.8780   69.1780 C   0  0  0  0  0  0  0  0  0  0  0  0
  128.4030  127.2980   69.5200 C   0  0  0  0  0  0  0  0  0  0  0  0
  128.7970  127.2730   70.8620 C   0  0  0  0  0  0  0  0  0  0  0  0
  130.0990  127.6070   71.2270 C   0  0  0  0  0  0  0  0  0  0  0  0
  131.0230  127.9640   70.2500 C   0  0  0  0  0  0  0  0  0  0  0  0
  130.6430  127.9920   68.9100 C   0  0  0  0  0  0  0  0  0  0  0  0
  129.3330  127.6670   68.5240 C   0  0  0  0  0  0  0  0  0  0  0  0
  129.0020  127.7380   67.0610 C   0  0  0  0  0  0  0  0  0  0  0  0
  129.1790  126.7050   66.2410 N   0  0  0  0  0  0  0  0  0  0  0  0
  128.7620  127.1890   65.1020 C   0  0  0  0  0  0  0  0  0  0  0  0
  128.6190  126.6030   63.4870 S   0  0  0  0  0  0  0  0  0  0  0  0
  127.9440  128.2000   62.9910 C   0  0  0  0  0  0  0  0  0  0  0  0
  127.5470  128.5840   61.7570 C   0  0  0  0  0  0  0  0  0  0  0  0
  127.5580  127.8060   60.5290 C   0  0  0  0  0  0  0  0  0  0  0  0
  127.1190  126.5050   60.3360 C   0  0  0  0  0  0  0  0  0  0  0  0
  127.2830  126.1970   59.0090 N   0  0  0  0  0  0  0  0  0  0  0  0
  126.9690  124.9840   58.3440 C   0  0  0  0  0  0  0  0  0  0  0  0
  127.9420  123.9900   58.1630 C   0  0  0  0  0  0  0  0  0  0  0  0
  127.6200  122.8060   57.5060 C   0  0  0  0  0  0  0  0  0  0  0  0
  126.3270  122.6090   57.0310 C   0  0  0  0  0  0  0  0  0  0  0  0
  125.3500  123.5870   57.2060 C   0  0  0  0  0  0  0  0  0  0  0  0
  125.6680  124.7730   57.8600 C   0  0  0  0  0  0  0  0  0  0  0  0
  127.7810  127.2520   58.3450 N   0  0  0  0  0  0  0  0  0  0  0  0
  127.9540  128.2100   59.2340 C   0  0  0  0  0  0  0  0  0  0  0  0
  128.5120  129.5320   58.8070 C   0  0  0  0  0  0  0  0  0  0  0  0
  127.8000  130.7160   59.0520 C   0  0  0  0  0  0  0  0  0  0  0  0
  128.3110  131.9530   58.6540 C   0  0  0  0  0  0  0  0  0  0  0  0
  129.5410  132.0150   58.0040 C   0  0  0  0  0  0  0  0  0  0  0  0
  130.2710  130.8400   57.7690 C   0  0  0  0  0  0  0  0  0  0  0  0
  129.7560  129.6060   58.1620 C   0  0  0  0  0  0  0  0  0  0  0  0
  131.4730  130.8480   57.0890 O   0  0  0  0  0  0  0  0  0  0  0  0
  132.1110  132.1290   57.0440 C   0  0  0  0  0  0  0  0  0  0  0  0
  131.0840  133.2360   56.7010 C   0  0  0  0  0  0  0  0  0  0  0  0
  130.0310  133.2620   57.6710 O   0  0  0  0  0  0  0  0  0  0  0  0
  127.8620  129.1380   64.1070 C   0  0  0  0  0  0  0  0  0  0  0  0
  127.4580  130.3020   64.1160 O   0  0  0  0  0  0  0  0  0  0  0  0
  128.3450  128.4610   65.2370 N   0  0  0  0  0  0  0  0  0  0  0  0
  128.4920  128.8300   66.5130 N   0  0  0  0  0  0  0  0  0  0  0  0
  126.4121  126.7112   70.1064 H   0  0  0  0  0  0  0  0  0  0  0  0
  126.4929  127.6714   68.5904 H   0  0  0  0  0  0  0  0  0  0  0  0
  127.0008  125.9484   68.5904 H   0  0  0  0  0  0  0  0  0  0  0  0
  128.0710  126.9866   71.6371 H   0  0  0  0  0  0  0  0  0  0  0  0
  130.3962  127.5886   72.2859 H   0  0  0  0  0  0  0  0  0  0  0  0
  132.0530  128.2240   70.5355 H   0  0  0  0  0  0  0  0  0  0  0  0
  131.3801  128.2728   68.1433 H   0  0  0  0  0  0  0  0  0  0  0  0
  127.1685  129.6133   61.6715 H   0  0  0  0  0  0  0  0  0  0  0  0
  126.7114  125.8379   61.1098 H   0  0  0  0  0  0  0  0  0  0  0  0
  128.9629  124.1468   58.5415 H   0  0  0  0  0  0  0  0  0  0  0  0
  128.3850  122.0287   57.3627 H   0  0  0  0  0  0  0  0  0  0  0  0
  126.0738  121.6725   56.5125 H   0  0  0  0  0  0  0  0  0  0  0  0
  124.3302  123.4218   56.8281 H   0  0  0  0  0  0  0  0  0  0  0  0
  124.8987  125.5470   57.9982 H   0  0  0  0  0  0  0  0  0  0  0  0
  126.8275  130.6691   59.5638 H   0  0  0  0  0  0  0  0  0  0  0  0
  127.7444  132.8746   58.8531 H   0  0  0  0  0  0  0  0  0  0  0  0
  130.3269  128.6865   57.9658 H   0  0  0  0  0  0  0  0  0  0  0  0
  132.5606  132.3439   58.0247 H   0  0  0  0  0  0  0  0  0  0  0  0
  132.8880  132.1117   56.2655 H   0  0  0  0  0  0  0  0  0  0  0  0
  131.5925  134.2114   56.6927 H   0  0  0  0  0  0  0  0  0  0  0  0
  130.6511  133.0252   55.7120 H   0  0  0  0  0  0  0  0  0  0  0  0
  1  2  1  0
  2  3  2  0
  3  4  1  0
  4  5  2  0
  5  6  1  0
  6  7  2  0
  7  8  1  0
  8  9  1  0
  9 10  2  0
 10 11  1  0
 11 12  1  0
 12 13  2  0
 13 14  1  0
 14 15  2  0
 15 16  1  0
 16 17  1  0
 17 18  2  0
 18 19  1  0
 19 20  2  0
 20 21  1  0
 21 22  2  0
 16 23  1  0
 23 24  2  0
 24 25  1  0
 25 26  2  0
 26 27  1  0
 27 28  2  0
 28 29  1  0
 29 30  2  0
 29 31  1  0
 31 32  1  0
 32 33  1  0
 33 34  1  0
 12 35  1  0
 35 36  2  0
 35 37  1  0
 37 38  1  0
  7  2  1  0
 38  8  2  0
 37 10  1  0
 24 14  1  0
 30 25  1  0
 22 17  1  0
 34 28  1  0
  1 39  1  0
  1 40  1  0
  1 41  1  0
  3 42  1  0
  4 43  1  0
  5 44  1  0
  6 45  1  0
 13 46  1  0
 15 47  1  0
 18 48  1  0
 19 49  1  0
 20 50  1  0
 21 51  1  0
 22 52  1  0
 26 53  1  0
 27 54  1  0
 30 55  1  0
 32 56  1  0
 32 57  1  0
 33 58  1  0
 33 59  1  0
M  END
>  <Binding energies>  (1) 
[-9.11]

>  <Ligand effiencies>  (1) 
[-0.23973684210526314]

>  <Interactions>  (1) 
["V-B:GLU:543:CD:9880, V-B:GLU:543:CG:9879, V-A:GLU:543:CD:4908, V-A:HIS:456:CE1:4070, V-B:TYR:539:C:9839, V-B:PRO:540:CD:9859, V-B:PRO:540:CA:9855, V-B:PRO:540:CB:9857, V-B:PRO:540:N:9856, V-B:LEU:363:CD1:8160, V-B:MET:535:CE:9807, V-B:TYR:539:CZ:9849, V-B:TYR:539:CE2:9848, V-B:TYR:539:CD1:9845, V-B:TYR:539:CE1:9847, V-B:TYR:539:CD2:9846, V-B:TYR:539:CG:9844, V-A:GLU:543:C:4902, V-B:GLU:543:C:9874, V-B:GLU:543:CA:9876, V-B:GLU:543:CB:9878, V-A:GLY:544:C:4912, V-A:GLU:543:CB:4906, V-B:HIS:456:CE1:9041, V-B:GLY:544:C:9884, V-A:GLU:543:CG:4907, H-B:TYR:484:OH:9319, V-A:PRO:540:CB:4885, V-A:LEU:363:CD1:3189, V-A:PRO:540:CD:4887, V-A:PRO:540:N:4884, H-A:TYR:531:OH:4795, H-A:TYR:539:N:4870, V-A:GLU:543:CA:4904, V-A:ILE:538:CB:4862, V-A:ILE:538:CA:4860, V-A:ILE:538:CG2:4863, V-A:ILE:538:C:4858"]

$$$$
RR27_Rahimova_2017
     RDKit          3D

 66 71  0  0  0  0  0  0  0  0999 V2000
  127.1200  122.8280   62.2300 O   0  0  0  0  0  0  0  0  0  0  0  0
  128.2850  123.2110   62.0860 C   0  0  0  0  0  0  0  0  0  0  0  0
  129.4050  122.4900   62.8910 C   0  0  0  0  0  0  0  0  0  0  0  0
  130.2210  123.4450   63.7820 C   0  0  0  0  0  0  0  0  0  0  0  0
  129.6040  124.3290   64.6800 C   0  0  0  0  0  0  0  0  0  0  0  0
  130.3720  125.1770   65.4720 C   0  0  0  0  0  0  0  0  0  0  0  0
  131.7600  125.1470   65.3690 C   0  0  0  0  0  0  0  0  0  0  0  0
  132.3860  124.2780   64.4800 C   0  0  0  0  0  0  0  0  0  0  0  0
  131.6180  123.4300   63.6890 C   0  0  0  0  0  0  0  0  0  0  0  0
  130.2450  121.5600   61.9950 C   0  0  0  0  0  0  0  0  0  0  0  0
  131.3580  122.0310   61.2840 C   0  0  0  0  0  0  0  0  0  0  0  0
  132.0890  121.1660   60.4730 C   0  0  0  0  0  0  0  0  0  0  0  0
  131.7080  119.8310   60.3660 C   0  0  0  0  0  0  0  0  0  0  0  0
  130.5980  119.3530   61.0580 C   0  0  0  0  0  0  0  0  0  0  0  0
  129.8680  120.2180   61.8670 C   0  0  0  0  0  0  0  0  0  0  0  0
  128.6220  124.1340   61.1410 N   0  0  0  0  0  0  0  0  0  0  0  0
  129.9290  124.8070   61.0940 C   0  0  0  0  0  0  0  0  0  0  0  0
  129.8230  126.0540   62.0010 C   0  0  0  0  0  0  0  0  0  0  0  0
  128.6350  126.9880   61.6060 C   0  0  0  0  0  0  0  0  0  0  0  0
  128.4160  128.1870   62.5470 C   0  0  0  0  0  0  0  0  0  0  0  0
  128.1240  127.8920   63.8480 N   0  0  0  0  0  0  0  0  0  0  0  0
  127.9470  128.9160   64.7280 C   0  0  0  0  0  0  0  0  0  0  0  0
  127.6560  128.7480   66.0560 O   0  0  0  0  0  0  0  0  0  0  0  0
  128.0710  130.2380   64.2590 C   0  0  0  0  0  0  0  0  0  0  0  0
  127.9650  131.4610   64.8540 N   0  0  0  0  0  0  0  0  0  0  0  0
  128.1840  132.4140   63.8770 N   0  0  0  0  0  0  0  0  0  0  0  0
  128.4270  131.7890   62.7050 N   0  0  0  0  0  0  0  0  0  0  0  0
  128.6690  132.5610   61.4890 C   0  0  0  0  0  0  0  0  0  0  0  0
  129.9230  132.1390   60.7350 C   0  0  0  0  0  0  0  0  0  0  0  0
  129.8470  131.7880   59.3840 C   0  0  0  0  0  0  0  0  0  0  0  0
  130.9990  131.4110   58.6900 C   0  0  0  0  0  0  0  0  0  0  0  0
  132.2310  131.3890   59.3420 C   0  0  0  0  0  0  0  0  0  0  0  0
  132.3150  131.7480   60.6880 C   0  0  0  0  0  0  0  0  0  0  0  0
  133.8440  131.7470   61.4900 Cl  0  0  0  0  0  0  0  0  0  0  0  0
  131.1640  132.1160   61.3840 C   0  0  0  0  0  0  0  0  0  0  0  0
  128.3640  130.4180   62.8900 C   0  0  0  0  0  0  0  0  0  0  0  0
  128.5340  129.4320   62.0050 N   0  0  0  0  0  0  0  0  0  0  0  0
  127.3310  126.1810   61.3180 C   0  0  0  0  0  0  0  0  0  0  0  0
  127.5760  124.9130   60.4610 C   0  0  0  0  0  0  0  0  0  0  0  0
  128.9112  121.8237   63.6137 H   0  0  0  0  0  0  0  0  0  0  0  0
  128.5070  124.3518   64.7584 H   0  0  0  0  0  0  0  0  0  0  0  0
  129.8848  125.8677   66.1760 H   0  0  0  0  0  0  0  0  0  0  0  0
  132.3676  125.8162   65.9959 H   0  0  0  0  0  0  0  0  0  0  0  0
  133.4832  124.2620   64.4033 H   0  0  0  0  0  0  0  0  0  0  0  0
  132.1114  122.7430   62.9857 H   0  0  0  0  0  0  0  0  0  0  0  0
  131.6548  123.0869   61.3669 H   0  0  0  0  0  0  0  0  0  0  0  0
  132.9642  121.5363   59.9190 H   0  0  0  0  0  0  0  0  0  0  0  0
  132.2890  119.1478   59.7291 H   0  0  0  0  0  0  0  0  0  0  0  0
  130.3003  118.2981   60.9655 H   0  0  0  0  0  0  0  0  0  0  0  0
  128.9876  119.8444   62.4104 H   0  0  0  0  0  0  0  0  0  0  0  0
  130.7151  124.1337   61.4665 H   0  0  0  0  0  0  0  0  0  0  0  0
  130.1901  125.0899   60.0636 H   0  0  0  0  0  0  0  0  0  0  0  0
  129.6793  125.7222   63.0399 H   0  0  0  0  0  0  0  0  0  0  0  0
  130.7523  126.6306   61.8827 H   0  0  0  0  0  0  0  0  0  0  0  0
  128.9381  127.4573   60.6584 H   0  0  0  0  0  0  0  0  0  0  0  0
  126.9600  128.1040   66.2040 H   0  0  0  0  0  0  0  0  0  0  0  0
  127.8039  132.4369   60.8210 H   0  0  0  0  0  0  0  0  0  0  0  0
  128.8155  133.6070   61.7963 H   0  0  0  0  0  0  0  0  0  0  0  0
  128.8769  131.8088   58.8659 H   0  0  0  0  0  0  0  0  0  0  0  0
  130.9341  131.1312   57.6282 H   0  0  0  0  0  0  0  0  0  0  0  0
  133.1371  131.0886   58.7954 H   0  0  0  0  0  0  0  0  0  0  0  0
  131.2310  132.3894   62.4474 H   0  0  0  0  0  0  0  0  0  0  0  0
  126.8900  125.8746   62.2780 H   0  0  0  0  0  0  0  0  0  0  0  0
  126.6589  126.8378   60.7462 H   0  0  0  0  0  0  0  0  0  0  0  0
  126.6514  124.3216   60.3873 H   0  0  0  0  0  0  0  0  0  0  0  0
  127.8855  125.1812   59.4401 H   0  0  0  0  0  0  0  0  0  0  0  0
  1  2  2  0
  2  3  1  0
  3  4  1  0
  4  5  2  0
  5  6  1  0
  6  7  2  0
  7  8  1  0
  8  9  2  0
  3 10  1  0
 10 11  2  0
 11 12  1  0
 12 13  2  0
 13 14  1  0
 14 15  2  0
  2 16  1  0
 16 17  1  0
 17 18  1  0
 18 19  1  0
 19 20  1  0
 20 21  2  0
 21 22  1  0
 22 23  1  0
 22 24  2  0
 24 25  1  0
 25 26  2  0
 26 27  1  0
 27 28  1  0
 28 29  1  0
 29 30  2  0
 30 31  1  0
 31 32  2  0
 32 33  1  0
 33 34  1  0
 33 35  2  0
 27 36  1  0
 36 37  2  0
 19 38  1  0
 38 39  1  0
  9  4  1  0
 15 10  1  0
 39 16  1  0
 37 20  1  0
 36 24  1  0
 35 29  1  0
  3 40  1  0
  5 41  1  0
  6 42  1  0
  7 43  1  0
  8 44  1  0
  9 45  1  0
 11 46  1  0
 12 47  1  0
 13 48  1  0
 14 49  1  0
 15 50  1  0
 17 51  1  0
 17 52  1  0
 18 53  1  0
 18 54  1  0
 19 55  1  0
 23 56  1  0
 28 57  1  0
 28 58  1  0
 30 59  1  0
 31 60  1  0
 32 61  1  0
 35 62  1  0
 38 63  1  0
 38 64  1  0
 39 65  1  0
 39 66  1  0
M  END
>  <Binding energies>  (1) 
[-9.71]

>  <Ligand effiencies>  (1) 
[-0.24275000000000002]

>  <Interactions>  (1) 
["V-B:GLU:543:CD:9880, V-B:GLU:543:CG:9879, V-A:GLU:543:CD:4908, V-A:LEU:475:CD2:4259, V-B:ALA:541:CB:9864, H-B:GLU:543:OE2:9882, H-B:ALA:541:N:9863, V-B:TYR:539:CE2:9848, V-B:TYR:539:CD2:9846, V-A:GLU:543:CG:4907, H-B:TYR:484:OH:9319, V-A:PRO:540:CA:4883, V-A:PRO:540:CB:4885, V-A:LEU:363:CA:3185, V-A:PRO:540:C:4881, V-A:ASN:362:C:3172, V-A:ASN:362:CB:3176, V-A:ASN:362:CA:3174"]

$$$$
RR27_Rahimova_2017-again1
     RDKit          3D

 66 71  0  0  0  0  0  0  0  0999 V2000
  127.0210  122.7590   62.5890 O   0  0  0  0  0  0  0  0  0  0  0  0
  128.1860  123.0380   62.2900 C   0  0  0  0  0  0  0  0  0  0  0  0
  129.3350  122.3610   63.0980 C   0  0  0  0  0  0  0  0  0  0  0  0
  130.0080  123.3280   64.0900 C   0  0  0  0  0  0  0  0  0  0  0  0
  131.0750  124.1580   63.7150 C   0  0  0  0  0  0  0  0  0  0  0  0
  131.6560  125.0200   64.6400 C   0  0  0  0  0  0  0  0  0  0  0  0
  131.1750  125.0580   65.9460 C   0  0  0  0  0  0  0  0  0  0  0  0
  130.1170  124.2420   66.3330 C   0  0  0  0  0  0  0  0  0  0  0  0
  129.5350  123.3800   65.4080 C   0  0  0  0  0  0  0  0  0  0  0  0
  130.3290  121.6240   62.1810 C   0  0  0  0  0  0  0  0  0  0  0  0
  131.5980  122.1530   61.9020 C   0  0  0  0  0  0  0  0  0  0  0  0
  132.4720  121.4790   61.0530 C   0  0  0  0  0  0  0  0  0  0  0  0
  132.0840  120.2700   60.4820 C   0  0  0  0  0  0  0  0  0  0  0  0
  130.8280  119.7330   60.7490 C   0  0  0  0  0  0  0  0  0  0  0  0
  129.9500  120.4110   61.5900 C   0  0  0  0  0  0  0  0  0  0  0  0
  128.4740  123.7850   61.1850 N   0  0  0  0  0  0  0  0  0  0  0  0
  129.7910  124.3830   60.9250 C   0  0  0  0  0  0  0  0  0  0  0  0
  129.8440  125.7410   61.6630 C   0  0  0  0  0  0  0  0  0  0  0  0
  128.5660  126.6340   61.5350 C   0  0  0  0  0  0  0  0  0  0  0  0
  128.3850  127.6110   62.7010 C   0  0  0  0  0  0  0  0  0  0  0  0
  128.5260  127.2100   63.9250 N   0  0  0  0  0  0  0  0  0  0  0  0
  128.3360  128.1620   64.8800 C   0  0  0  0  0  0  0  0  0  0  0  0
  128.0090  129.4920   64.6610 C   0  0  0  0  0  0  0  0  0  0  0  0
  127.8900  130.1320   65.8110 N   0  0  0  0  0  0  0  0  0  0  0  0
  128.1440  129.2160   66.8270 N   0  0  0  0  0  0  0  0  0  0  0  0
  128.4270  128.0390   66.2420 N   0  0  0  0  0  0  0  0  0  0  0  0
  128.7200  126.8570   67.0420 C   0  0  0  0  0  0  0  0  0  0  0  0
  129.1650  127.1830   68.4600 C   0  0  0  0  0  0  0  0  0  0  0  0
  130.4710  127.6230   68.7030 C   0  0  0  0  0  0  0  0  0  0  0  0
  130.8840  127.9130   70.0040 C   0  0  0  0  0  0  0  0  0  0  0  0
  129.9940  127.7680   71.0670 C   0  0  0  0  0  0  0  0  0  0  0  0
  128.6890  127.3350   70.8320 C   0  0  0  0  0  0  0  0  0  0  0  0
  127.5890  127.1530   72.1490 Cl  0  0  0  0  0  0  0  0  0  0  0  0
  128.2740  127.0450   69.5310 C   0  0  0  0  0  0  0  0  0  0  0  0
  127.8510  129.9720   63.2880 C   0  0  0  0  0  0  0  0  0  0  0  0
  127.5710  131.1030   62.8990 O   0  0  0  0  0  0  0  0  0  0  0  0
  128.0680  128.9340   62.4060 N   0  0  0  0  0  0  0  0  0  0  0  0
  127.2420  125.8870   61.1790 C   0  0  0  0  0  0  0  0  0  0  0  0
  127.4000  124.5090   60.4890 C   0  0  0  0  0  0  0  0  0  0  0  0
  128.8742  121.5828   63.7242 H   0  0  0  0  0  0  0  0  0  0  0  0
  131.4548  124.1272   62.6831 H   0  0  0  0  0  0  0  0  0  0  0  0
  132.4922  125.6690   64.3405 H   0  0  0  0  0  0  0  0  0  0  0  0
  131.6352  125.7386   66.6775 H   0  0  0  0  0  0  0  0  0  0  0  0
  129.7416  124.2778   67.3664 H   0  0  0  0  0  0  0  0  0  0  0  0
  128.6979  122.7351   65.7137 H   0  0  0  0  0  0  0  0  0  0  0  0
  131.9046  123.1065   62.3569 H   0  0  0  0  0  0  0  0  0  0  0  0
  133.4645  121.8999   60.8345 H   0  0  0  0  0  0  0  0  0  0  0  0
  132.7755  119.7349   59.8146 H   0  0  0  0  0  0  0  0  0  0  0  0
  130.5300  118.7756   60.2968 H   0  0  0  0  0  0  0  0  0  0  0  0
  128.9530  119.9923   61.7919 H   0  0  0  0  0  0  0  0  0  0  0  0
  130.5843  123.7206   61.3016 H   0  0  0  0  0  0  0  0  0  0  0  0
  129.9435  124.5250   59.8449 H   0  0  0  0  0  0  0  0  0  0  0  0
  130.0090  125.5385   62.7315 H   0  0  0  0  0  0  0  0  0  0  0  0
  130.6557  126.3097   61.1857 H   0  0  0  0  0  0  0  0  0  0  0  0
  128.7834  127.2337   60.6389 H   0  0  0  0  0  0  0  0  0  0  0  0
  127.8123  126.2378   67.0949 H   0  0  0  0  0  0  0  0  0  0  0  0
  129.5533  126.3316   66.5525 H   0  0  0  0  0  0  0  0  0  0  0  0
  131.1745  127.7407   67.8656 H   0  0  0  0  0  0  0  0  0  0  0  0
  131.9123  128.2562   70.1908 H   0  0  0  0  0  0  0  0  0  0  0  0
  130.3212  127.9953   72.0923 H   0  0  0  0  0  0  0  0  0  0  0  0
  127.2436  126.7070   69.3468 H   0  0  0  0  0  0  0  0  0  0  0  0
  127.9760  129.1810   61.4320 H   0  0  0  0  0  0  0  0  0  0  0  0
  126.6819  125.7327   62.1130 H   0  0  0  0  0  0  0  0  0  0  0  0
  126.7302  126.5272   60.4454 H   0  0  0  0  0  0  0  0  0  0  0  0
  126.4591  123.9437   60.5600 H   0  0  0  0  0  0  0  0  0  0  0  0
  127.6458  124.6355   59.4243 H   0  0  0  0  0  0  0  0  0  0  0  0
  1  2  2  0
  2  3  1  0
  3  4  1  0
  4  5  2  0
  5  6  1  0
  6  7  2  0
  7  8  1  0
  8  9  2  0
  3 10  1  0
 10 11  2  0
 11 12  1  0
 12 13  2  0
 13 14  1  0
 14 15  2  0
  2 16  1  0
 16 17  1  0
 17 18  1  0
 18 19  1  0
 19 20  1  0
 20 21  2  0
 21 22  1  0
 22 23  2  0
 23 24  1  0
 24 25  2  0
 25 26  1  0
 26 27  1  0
 27 28  1  0
 28 29  2  0
 29 30  1  0
 30 31  2  0
 31 32  1  0
 32 33  1  0
 32 34  2  0
 23 35  1  0
 35 36  2  0
 35 37  1  0
 19 38  1  0
 38 39  1  0
  9  4  1  0
 15 10  1  0
 39 16  1  0
 37 20  1  0
 26 22  1  0
 34 28  1  0
  3 40  1  0
  5 41  1  0
  6 42  1  0
  7 43  1  0
  8 44  1  0
  9 45  1  0
 11 46  1  0
 12 47  1  0
 13 48  1  0
 14 49  1  0
 15 50  1  0
 17 51  1  0
 17 52  1  0
 18 53  1  0
 18 54  1  0
 19 55  1  0
 27 56  1  0
 27 57  1  0
 29 58  1  0
 30 59  1  0
 31 60  1  0
 34 61  1  0
 37 62  1  0
 38 63  1  0
 38 64  1  0
 39 65  1  0
 39 66  1  0
M  END
>  <Binding energies>  (1) 
[-9.84]

>  <Ligand effiencies>  (1) 
[-0.246]

>  <Interactions>  (1) 
["V-B:GLU:543:CD:9880, V-B:GLU:543:CG:9879, V-A:GLU:543:CD:4908, V-A:LEU:475:CD2:4259, V-A:HIS:456:CE1:4070, V-B:ALA:541:CB:9864, H-B:ALA:541:N:9863, V-B:TYR:539:CE2:9848, V-B:TYR:539:CD2:9846, V-A:TYR:484:CE2:4346, V-A:GLU:543:C:4902, V-B:GLU:543:C:9874, V-B:GLU:543:CA:9876, V-A:TYR:484:CZ:4347, V-B:GLU:543:CB:9878, V-A:GLY:544:C:4912, V-A:GLU:543:CB:4906, V-B:HIS:456:CD2:9039, V-B:HIS:456:CE1:9041, V-B:GLY:544:C:9884, V-A:GLU:543:CG:4907, H-B:TYR:484:OH:9319"]

$$$$
RR28_Rahimova_2017
     RDKit          3D

 82 85  0  0  0  0  0  0  0  0999 V2000
  132.7640  131.6760   62.6750 C   0  0  0  0  0  0  0  0  0  0  0  0
  132.3120  131.1590   61.3140 C   0  0  0  0  0  0  0  0  0  0  0  0
  132.9100  131.5160   60.3000 O   0  0  0  0  0  0  0  0  0  0  0  0
  131.2560  130.3210   61.3130 N   0  0  0  0  0  0  0  0  0  0  0  0
  130.5990  129.6760   60.1540 C   0  0  0  0  0  0  0  0  0  0  0  0
  131.1680  128.2350   60.0130 C   0  0  0  0  0  0  0  0  0  0  0  0
  131.2720  127.4210   61.1520 C   0  0  0  0  0  0  0  0  0  0  0  0
  131.7790  126.1290   61.0640 C   0  0  0  0  0  0  0  0  0  0  0  0
  132.1970  125.6190   59.8340 C   0  0  0  0  0  0  0  0  0  0  0  0
  132.7570  124.1990   59.7570 C   0  0  0  0  0  0  0  0  0  0  0  0
  131.8270  123.2740   60.0070 F   0  0  0  0  0  0  0  0  0  0  0  0
  133.2570  123.9630   58.5450 F   0  0  0  0  0  0  0  0  0  0  0  0
  133.7310  124.0630   60.6580 F   0  0  0  0  0  0  0  0  0  0  0  0
  132.1010  126.4190   58.6920 C   0  0  0  0  0  0  0  0  0  0  0  0
  131.5930  127.7130   58.7810 C   0  0  0  0  0  0  0  0  0  0  0  0
  130.7750  130.5530   58.8630 C   0  0  0  0  0  0  0  0  0  0  0  0
  130.0420  131.9170   58.9440 C   0  0  0  0  0  0  0  0  0  0  0  0
  128.6190  131.6120   59.1650 N   0  0  0  0  0  0  0  0  0  0  0  0
  127.7650  131.5180   58.1090 C   0  0  0  0  0  0  0  0  0  0  0  0
  128.0970  131.8420   56.9670 O   0  0  0  0  0  0  0  0  0  0  0  0
  126.2850  131.1480   58.3760 C   0  0  0  0  0  0  0  0  0  0  0  0
  125.8970  129.6680   58.1100 C   0  0  0  0  0  0  0  0  0  0  0  0
  127.0430  128.7730   57.5850 C   0  0  0  0  0  0  0  0  0  0  0  0
  127.4540  128.9710   56.4380 O   0  0  0  0  0  0  0  0  0  0  0  0
  127.6570  127.8960   58.4300 N   0  0  0  0  0  0  0  0  0  0  0  0
  127.0390  127.3960   59.6630 C   0  0  0  0  0  0  0  0  0  0  0  0
  126.1720  126.1830   59.2610 C   0  0  0  0  0  0  0  0  0  0  0  0
  126.9470  125.0420   58.5140 C   0  0  0  0  0  0  0  0  0  0  0  0
  125.9740  124.1540   57.8420 N   0  0  0  0  0  0  0  0  0  0  0  0
  126.2220  123.1640   56.9620 C   0  0  0  0  0  0  0  0  0  0  0  0
  125.0040  122.4250   56.4160 C   0  0  0  0  0  0  0  0  0  0  0  0
  127.3480  122.8400   56.5880 O   0  0  0  0  0  0  0  0  0  0  0  0
  127.6890  124.1930   59.5970 C   0  0  0  0  0  0  0  0  0  0  0  0
  127.6870  124.5300   60.9610 C   0  0  0  0  0  0  0  0  0  0  0  0
  128.3600  123.7460   61.8950 C   0  0  0  0  0  0  0  0  0  0  0  0
  129.0560  122.6060   61.4880 C   0  0  0  0  0  0  0  0  0  0  0  0
  129.7960  121.7330   62.5000 C   0  0  0  0  0  0  0  0  0  0  0  0
  131.1050  121.9960   62.4800 F   0  0  0  0  0  0  0  0  0  0  0  0
  129.3300  121.9890   63.7220 F   0  0  0  0  0  0  0  0  0  0  0  0
  129.6350  120.4310   62.2550 F   0  0  0  0  0  0  0  0  0  0  0  0
  129.0750  122.2630   60.1350 C   0  0  0  0  0  0  0  0  0  0  0  0
  128.4010  123.0480   59.2050 C   0  0  0  0  0  0  0  0  0  0  0  0
  127.9230  125.6900   57.4570 C   0  0  0  0  0  0  0  0  0  0  0  0
  128.6740  126.9680   57.9170 C   0  0  0  0  0  0  0  0  0  0  0  0
  128.3550  130.9670   60.4590 C   0  0  0  0  0  0  0  0  0  0  0  0
  129.0630  129.5870   60.4310 C   0  0  0  0  0  0  0  0  0  0  0  0
  132.2633  131.1033   63.4695 H   0  0  0  0  0  0  0  0  0  0  0  0
  133.8536  131.5577   62.7688 H   0  0  0  0  0  0  0  0  0  0  0  0
  132.5013  132.7400   62.7688 H   0  0  0  0  0  0  0  0  0  0  0  0
  130.8330  130.1160   62.2060 H   0  0  0  0  0  0  0  0  0  0  0  0
  130.9478  127.8107   62.1282 H   0  0  0  0  0  0  0  0  0  0  0  0
  131.8509  125.5063   61.9679 H   0  0  0  0  0  0  0  0  0  0  0  0
  132.4281  126.0250   57.7185 H   0  0  0  0  0  0  0  0  0  0  0  0
  131.5240  128.3332   57.8752 H   0  0  0  0  0  0  0  0  0  0  0  0
  131.8482  130.7417   58.7126 H   0  0  0  0  0  0  0  0  0  0  0  0
  130.3314  129.9938   58.0260 H   0  0  0  0  0  0  0  0  0  0  0  0
  130.4377  132.5124   59.7800 H   0  0  0  0  0  0  0  0  0  0  0  0
  130.1860  132.5022   58.0238 H   0  0  0  0  0  0  0  0  0  0  0  0
  126.0675  131.3689   59.4314 H   0  0  0  0  0  0  0  0  0  0  0  0
  125.6961  131.7429   57.6623 H   0  0  0  0  0  0  0  0  0  0  0  0
  125.5329  129.2364   59.0540 H   0  0  0  0  0  0  0  0  0  0  0  0
  125.1366  129.6891   57.3154 H   0  0  0  0  0  0  0  0  0  0  0  0
  127.8153  127.0873   60.3786 H   0  0  0  0  0  0  0  0  0  0  0  0
  126.4315  128.1751   60.1467 H   0  0  0  0  0  0  0  0  0  0  0  0
  125.7333  125.7573   60.1755 H   0  0  0  0  0  0  0  0  0  0  0  0
  125.4182  126.5605   58.5545 H   0  0  0  0  0  0  0  0  0  0  0  0
  125.0070  124.3510   58.0510 H   0  0  0  0  0  0  0  0  0  0  0  0
  124.3940  122.0549   57.2532 H   0  0  0  0  0  0  0  0  0  0  0  0
  124.4040  123.1115   55.8006 H   0  0  0  0  0  0  0  0  0  0  0  0
  125.3358  121.5758   55.8006 H   0  0  0  0  0  0  0  0  0  0  0  0
  127.1456  125.4269   61.2964 H   0  0  0  0  0  0  0  0  0  0  0  0
  128.3431  124.0263   62.9586 H   0  0  0  0  0  0  0  0  0  0  0  0
  129.6244  121.3696   59.8033 H   0  0  0  0  0  0  0  0  0  0  0  0
  128.4263  122.7663   58.1420 H   0  0  0  0  0  0  0  0  0  0  0  0
  128.6768  124.9353   57.1882 H   0  0  0  0  0  0  0  0  0  0  0  0
  127.2842  126.0071   56.6195 H   0  0  0  0  0  0  0  0  0  0  0  0
  129.3943  126.7192   58.7103 H   0  0  0  0  0  0  0  0  0  0  0  0
  129.2348  127.4177   57.0844 H   0  0  0  0  0  0  0  0  0  0  0  0
  128.7585  131.5820   61.2769 H   0  0  0  0  0  0  0  0  0  0  0  0
  127.2740  130.8502   60.6260 H   0  0  0  0  0  0  0  0  0  0  0  0
  128.9133  129.0997   61.4057 H   0  0  0  0  0  0  0  0  0  0  0  0
  128.6191  129.0139   59.6036 H   0  0  0  0  0  0  0  0  0  0  0  0
  1  2  1  0
  2  3  2  0
  2  4  1  0
  4  5  1  0
  5  6  1  0
  6  7  2  0
  7  8  1  0
  8  9  2  0
  9 10  1  0
 10 11  1  0
 10 12  1  0
 10 13  1  0
  9 14  1  0
 14 15  2  0
  5 16  1  0
 16 17  1  0
 17 18  1  0
 18 19  1  0
 19 20  2  0
 19 21  1  0
 21 22  1  0
 22 23  1  0
 23 24  2  0
 23 25  1  0
 25 26  1  0
 26 27  1  0
 27 28  1  0
 28 29  1  0
 29 30  1  0
 30 31  1  0
 30 32  2  0
 28 33  1  0
 33 34  2  0
 34 35  1  0
 35 36  2  0
 36 37  1  0
 37 38  1  0
 37 39  1  0
 37 40  1  0
 36 41  1  0
 41 42  2  0
 28 43  1  0
 43 44  1  0
 18 45  1  0
 45 46  1  0
 46  5  1  0
 15  6  1  0
 44 25  1  0
 42 33  1  0
  1 47  1  0
  1 48  1  0
  1 49  1  0
  4 50  1  0
  7 51  1  0
  8 52  1  0
 14 53  1  0
 15 54  1  0
 16 55  1  0
 16 56  1  0
 17 57  1  0
 17 58  1  0
 21 59  1  0
 21 60  1  0
 22 61  1  0
 22 62  1  0
 26 63  1  0
 26 64  1  0
 27 65  1  0
 27 66  1  0
 29 67  1  0
 31 68  1  0
 31 69  1  0
 31 70  1  0
 34 71  1  0
 35 72  1  0
 41 73  1  0
 42 74  1  0
 43 75  1  0
 43 76  1  0
 44 77  1  0
 44 78  1  0
 45 79  1  0
 45 80  1  0
 46 81  1  0
 46 82  1  0
M  END
>  <Binding energies>  (1) 
[-7.74]

>  <Ligand effiencies>  (1) 
[-0.16125]

>  <Interactions>  (1) 
["V-A:ILE:369:CG2:3237, V-A:ILE:369:CD1:3239, V-A:ASP:366:CB:3212, V-A:ASP:366:CG:3213, H-A:GLU:543:OE1:4909, V-A:ILE:369:CB:3236, V-A:GLU:543:CD:4908, V-A:LEU:475:CD2:4259, V-B:ALA:541:CB:9864, V-B:TYR:539:C:9839, V-B:PRO:540:CD:9859, V-B:ASP:366:CG:8184, H-B:ASP:366:OD1:8185, V-B:PRO:540:CA:9855, V-B:PRO:540:CB:9857, V-B:PRO:540:N:9856, V-B:LEU:363:CD1:8160, V-B:MET:535:CE:9807, V-B:TYR:539:CZ:9849, V-B:TYR:539:CE2:9848, V-B:TYR:539:CD2:9846, V-B:PRO:540:CG:9858, V-B:ILE:538:CG2:9835, V-B:ALA:541:CA:9862, V-A:GLU:543:CG:4907, V-A:PRO:540:CA:4883, V-A:PRO:540:CB:4885, H-B:TYR:531:OH:9767, V-A:TYR:539:CE1:4875, H-A:ASP:366:OD2:3215, V-A:ASN:362:CB:3176, V-A:ALA:541:C:4888"]

$$$$
RR29_Rahimova_2017
     RDKit          3D

 35 36  0  0  0  0  0  0  0  0999 V2000
  127.0910  133.1490   63.1450 C   0  0  0  0  0  0  0  0  0  0  0  0
  127.7320  131.7790   63.3120 C   0  0  0  0  0  0  0  0  0  0  0  0
  127.9920  131.0670   61.9660 C   0  0  0  0  0  0  0  0  0  0  0  0
  129.4820  131.1260   61.5680 C   0  0  0  0  0  0  0  0  0  0  0  0
  129.6930  131.7950   60.2190 C   0  0  0  0  0  0  0  0  0  0  0  0
  128.6770  132.6000   59.6660 C   0  0  0  0  0  0  0  0  0  0  0  0
  128.8510  133.2270   58.4240 C   0  0  0  0  0  0  0  0  0  0  0  0
  130.0530  133.0140   57.7590 C   0  0  0  0  0  0  0  0  0  0  0  0
  131.0410  132.2320   58.2890 C   0  0  0  0  0  0  0  0  0  0  0  0
  130.9000  131.6060   59.5230 C   0  0  0  0  0  0  0  0  0  0  0  0
  132.1090  132.2260   57.4490 O   0  0  0  0  0  0  0  0  0  0  0  0
  131.6720  132.8580   56.2760 C   0  0  0  0  0  0  0  0  0  0  0  0
  130.4720  133.5230   56.5710 O   0  0  0  0  0  0  0  0  0  0  0  0
  127.9770  131.3560   64.4970 N   0  0  0  0  0  0  0  0  0  0  0  0
  128.4780  130.0820   64.6540 N   0  0  0  0  0  0  0  0  0  0  0  0
  127.8450  129.1030   65.3200 C   0  0  0  0  0  0  0  0  0  0  0  0
  126.6500  129.2230   65.8980 N   0  0  0  0  0  0  0  0  0  0  0  0
  128.4510  127.9280   65.4110 N   0  0  0  0  0  0  0  0  0  0  0  0
  126.8883  133.5822   64.1356 H   0  0  0  0  0  0  0  0  0  0  0  0
  127.7742  133.8082   62.5893 H   0  0  0  0  0  0  0  0  0  0  0  0
  126.1472  133.0469   62.5893 H   0  0  0  0  0  0  0  0  0  0  0  0
  127.6882  130.0136   62.0554 H   0  0  0  0  0  0  0  0  0  0  0  0
  127.4084  131.5806   61.1878 H   0  0  0  0  0  0  0  0  0  0  0  0
  130.0305  131.6937   62.3340 H   0  0  0  0  0  0  0  0  0  0  0  0
  129.8513  130.0926   61.4925 H   0  0  0  0  0  0  0  0  0  0  0  0
  127.7346  132.7383   60.2162 H   0  0  0  0  0  0  0  0  0  0  0  0
  128.0653  133.8640   57.9917 H   0  0  0  0  0  0  0  0  0  0  0  0
  131.7056  130.9840   59.9404 H   0  0  0  0  0  0  0  0  0  0  0  0
  132.4277  133.5817   55.9366 H   0  0  0  0  0  0  0  0  0  0  0  0
  131.5164  132.1196   55.4757 H   0  0  0  0  0  0  0  0  0  0  0  0
  129.3910  129.9020   64.2600 H   0  0  0  0  0  0  0  0  0  0  0  0
  126.0980  128.4020   66.1010 H   0  0  0  0  0  0  0  0  0  0  0  0
  126.2960  130.1430   66.1210 H   0  0  0  0  0  0  0  0  0  0  0  0
  129.4510  127.8640   65.2880 H   0  0  0  0  0  0  0  0  0  0  0  0
  127.9120  127.0980   65.6100 H   0  0  0  0  0  0  0  0  0  0  0  0
  1  2  1  0
  2  3  1  0
  3  4  1  0
  4  5  1  0
  5  6  2  0
  6  7  1  0
  7  8  2  0
  8  9  1  0
  9 10  2  0
  9 11  1  0
 11 12  1  0
 12 13  1  0
  2 14  2  0
 14 15  1  0
 15 16  1  0
 16 17  1  0
 16 18  2  0
 10  5  1  0
 13  8  1  0
  1 19  1  0
  1 20  1  0
  1 21  1  0
  3 22  1  0
  3 23  1  0
  4 24  1  0
  4 25  1  0
  6 26  1  0
  7 27  1  0
 10 28  1  0
 12 29  1  0
 12 30  1  0
 15 31  1  0
 17 32  1  0
 17 33  1  0
 18 34  1  0
 18 35  1  0
M  CHG  1  18   1
M  END
>  <Binding energies>  (1) 
[-7.11]

>  <Ligand effiencies>  (1) 
[-0.3091304347826087]

>  <Interactions>  (1) 
["V-B:GLU:543:CD:9880, H-A:GLU:543:OE1:4909, V-A:GLU:543:CD:4908, H-A:GLU:543:OE2:4910, H-B:GLU:543:OE2:9882, H-B:GLU:543:OE1:9881, V-B:HIS:456:CE1:9041, V-A:GLU:543:CG:4907, H-B:TYR:484:OH:9319, V-B:TYR:484:CZ:9318, V-A:PRO:540:CA:4883, V-A:PRO:540:CB:4885, V-A:LEU:363:CD1:3189, V-A:PRO:540:CD:4887, V-A:PRO:540:N:4884, V-A:TYR:539:CE1:4875, V-A:TYR:539:CG:4872, V-A:TYR:539:CD1:4873, H-A:TYR:539:N:4870, V-A:ALA:541:CB:4892, V-B:LEU:475:CD2:9230, V-A:TYR:539:CA:4869, V-A:TYR:539:C:4867, V-A:ILE:538:CB:4862, V-A:ILE:538:CA:4860, V-A:ILE:538:CG2:4863"]

$$$$
RR29_Rahimova_2017-again1
     RDKit          3D

 34 35  0  0  0  0  0  0  0  0999 V2000
  133.5200  123.3990   61.1600 C   0  0  0  0  0  0  0  0  0  0  0  0
  133.1970  123.5390   62.6400 C   0  0  0  0  0  0  0  0  0  0  0  0
  131.9380  122.7620   63.0710 C   0  0  0  0  0  0  0  0  0  0  0  0
  131.3470  121.9490   61.9000 C   0  0  0  0  0  0  0  0  0  0  0  0
  130.0250  122.5200   61.4110 C   0  0  0  0  0  0  0  0  0  0  0  0
  129.9790  123.2590   60.2130 C   0  0  0  0  0  0  0  0  0  0  0  0
  128.7710  123.7930   59.7430 C   0  0  0  0  0  0  0  0  0  0  0  0
  127.6290  123.5730   60.5060 C   0  0  0  0  0  0  0  0  0  0  0  0
  127.6690  122.8580   61.6710 C   0  0  0  0  0  0  0  0  0  0  0  0
  128.8510  122.3090   62.1550 C   0  0  0  0  0  0  0  0  0  0  0  0
  126.4150  122.7720   62.1870 O   0  0  0  0  0  0  0  0  0  0  0  0
  125.6290  123.6420   61.4180 C   0  0  0  0  0  0  0  0  0  0  0  0
  126.3500  123.9560   60.2570 O   0  0  0  0  0  0  0  0  0  0  0  0
  133.9510  124.2740   63.3800 N   0  0  0  0  0  0  0  0  0  0  0  0
  133.6250  124.3900   64.6270 N   0  0  0  0  0  0  0  0  0  0  0  0
  132.7250  125.2550   64.9240 C   0  0  0  0  0  0  0  0  0  0  0  0
  132.0230  126.1260   64.0440 N   0  0  0  0  0  0  0  0  0  0  0  0
  132.3040  125.4460   66.2570 N   0  0  0  0  0  0  0  0  0  0  0  0
  134.5236  122.9640   61.0433 H   0  0  0  0  0  0  0  0  0  0  0  0
  132.7778  122.7418   60.6833 H   0  0  0  0  0  0  0  0  0  0  0  0
  133.4922  124.3899   60.6833 H   0  0  0  0  0  0  0  0  0  0  0  0
  132.2047  122.0729   63.8859 H   0  0  0  0  0  0  0  0  0  0  0  0
  131.1814  123.4878   63.4039 H   0  0  0  0  0  0  0  0  0  0  0  0
  132.0651  121.9555   61.0667 H   0  0  0  0  0  0  0  0  0  0  0  0
  131.1596  120.9268   62.2605 H   0  0  0  0  0  0  0  0  0  0  0  0
  130.9032  123.4193   59.6384 H   0  0  0  0  0  0  0  0  0  0  0  0
  128.7278  124.3654   58.8046 H   0  0  0  0  0  0  0  0  0  0  0  0
  128.8671  121.7286   63.0893 H   0  0  0  0  0  0  0  0  0  0  0  0
  124.6815  123.1520   61.1493 H   0  0  0  0  0  0  0  0  0  0  0  0
  125.3976  124.5551   61.9860 H   0  0  0  0  0  0  0  0  0  0  0  0
  132.1960  126.1360   63.0490 H   0  0  0  0  0  0  0  0  0  0  0  0
  131.3290  126.7820   64.3700 H   0  0  0  0  0  0  0  0  0  0  0  0
  132.6950  124.9180   67.0240 H   0  0  0  0  0  0  0  0  0  0  0  0
  131.6010  126.1230   66.5120 H   0  0  0  0  0  0  0  0  0  0  0  0
  1  2  1  0
  2  3  1  0
  3  4  1  0
  4  5  1  0
  5  6  2  0
  6  7  1  0
  7  8  2  0
  8  9  1  0
  9 10  2  0
  9 11  1  0
 11 12  1  0
 12 13  1  0
  2 14  2  0
 14 15  1  0
 15 16  2  0
 16 17  1  0
 16 18  1  0
 10  5  1  0
 13  8  1  0
  1 19  1  0
  1 20  1  0
  1 21  1  0
  3 22  1  0
  3 23  1  0
  4 24  1  0
  4 25  1  0
  6 26  1  0
  7 27  1  0
 10 28  1  0
 12 29  1  0
 12 30  1  0
 17 31  1  0
 17 32  1  0
 18 33  1  0
 18 34  1  0
M  END
>  <Binding energies>  (1) 
[-6.33]

>  <Ligand effiencies>  (1) 
[-0.2877272727272727]

>  <Interactions>  (1) 
["V-A:ILE:369:CG2:3237, V-A:ILE:369:CD1:3239, H-A:GLY:454:N:4050, H-A:GLU:543:OE1:4909, H-A:TYR:484:OH:4348, V-A:GLU:543:CD:4908, V-A:ARG:545:CZ:4926, H-A:GLU:543:OE2:4910, V-A:LEU:475:CD2:4259, V-A:HIS:456:CE1:4070, V-B:ALA:541:CB:9864, H-A:ASP:366:OD1:3214, H-B:ALA:541:N:9863, V-B:PRO:540:CA:9855, V-B:PRO:540:CB:9857, V-B:TYR:539:CE2:9848, V-B:PRO:540:C:9853, V-B:TYR:539:CD2:9846, V-A:TYR:484:CZ:4347"]

$$$$
RR2_Rahimova_2017
     RDKit          3D

 76 80  0  0  0  0  0  0  0  0999 V2000
  129.1840  126.5180   69.4030 C   0  0  0  0  0  0  0  0  0  0  0  0
  129.5120  126.3660   68.0270 O   0  0  0  0  0  0  0  0  0  0  0  0
  129.0080  127.2690   67.1090 C   0  0  0  0  0  0  0  0  0  0  0  0
  128.9810  127.0570   65.7240 C   0  0  0  0  0  0  0  0  0  0  0  0
  128.4560  128.0270   64.8750 C   0  0  0  0  0  0  0  0  0  0  0  0
  127.9500  129.2300   65.3870 C   0  0  0  0  0  0  0  0  0  0  0  0
  127.3900  130.2730   64.4400 C   0  0  0  0  0  0  0  0  0  0  0  0
  127.8220  131.4310   64.4630 O   0  0  0  0  0  0  0  0  0  0  0  0
  126.4070  129.8510   63.6120 N   0  0  0  0  0  0  0  0  0  0  0  0
  125.7950  130.7890   62.7880 N   0  0  0  0  0  0  0  0  0  0  0  0
  124.5020  130.5990   62.4560 C   0  0  0  0  0  0  0  0  0  0  0  0
  123.8610  129.5670   62.6750 O   0  0  0  0  0  0  0  0  0  0  0  0
  123.8120  131.7900   61.7760 C   0  0  0  0  0  0  0  0  0  0  0  0
  124.6980  132.4760   60.3290 S   0  0  0  0  0  0  0  0  0  0  0  0
  125.2130  130.9880   59.5270 C   0  0  0  0  0  0  0  0  0  0  0  0
  124.4030  130.2410   58.8210 N   0  0  0  0  0  0  0  0  0  0  0  0
  125.1190  129.1270   58.4050 N   0  0  0  0  0  0  0  0  0  0  0  0
  126.3450  129.2580   58.8520 C   0  0  0  0  0  0  0  0  0  0  0  0
  127.4260  128.2580   58.5920 C   0  0  0  0  0  0  0  0  0  0  0  0
  127.5200  127.1140   59.3890 C   0  0  0  0  0  0  0  0  0  0  0  0
  128.5270  126.1820   59.1600 C   0  0  0  0  0  0  0  0  0  0  0  0
  129.4400  126.3750   58.1180 C   0  0  0  0  0  0  0  0  0  0  0  0
  130.4810  125.4740   57.8470 N   0  0  0  0  0  0  0  0  0  0  0  0
  132.1730  125.7030   58.3430 S   0  0  0  0  0  0  0  0  0  0  0  0
  132.4870  127.1100   58.0690 O   0  0  0  0  0  0  0  0  0  0  0  0
  132.9710  124.6250   57.7490 O   0  0  0  0  0  0  0  0  0  0  0  0
  132.1690  125.5130   60.1240 C   0  0  0  0  0  0  0  0  0  0  0  0
  131.3520  126.3160   60.9230 C   0  0  0  0  0  0  0  0  0  0  0  0
  131.3750  126.1630   62.3070 C   0  0  0  0  0  0  0  0  0  0  0  0
  132.2090  125.2050   62.8900 C   0  0  0  0  0  0  0  0  0  0  0  0
  132.2440  125.0510   64.3990 C   0  0  0  0  0  0  0  0  0  0  0  0
  133.0280  124.4070   62.0880 C   0  0  0  0  0  0  0  0  0  0  0  0
  133.0060  124.5600   60.7050 C   0  0  0  0  0  0  0  0  0  0  0  0
  129.3430  127.5160   57.3200 C   0  0  0  0  0  0  0  0  0  0  0  0
  128.3400  128.4530   57.5530 C   0  0  0  0  0  0  0  0  0  0  0  0
  126.4750  130.4260   59.5840 N   0  0  0  0  0  0  0  0  0  0  0  0
  127.6100  130.9120   60.2660 C   0  0  0  0  0  0  0  0  0  0  0  0
  127.9520  132.2620   60.1750 C   0  0  0  0  0  0  0  0  0  0  0  0
  129.0710  132.7360   60.8550 C   0  0  0  0  0  0  0  0  0  0  0  0
  129.8530  131.8740   61.6240 C   0  0  0  0  0  0  0  0  0  0  0  0
  130.9430  132.4360   62.2600 O   0  0  0  0  0  0  0  0  0  0  0  0
  132.1750  131.7210   62.2920 C   0  0  0  0  0  0  0  0  0  0  0  0
  129.5020  130.5170   61.7090 C   0  0  0  0  0  0  0  0  0  0  0  0
  128.3830  130.0380   61.0330 C   0  0  0  0  0  0  0  0  0  0  0  0
  127.9750  129.4310   66.7760 C   0  0  0  0  0  0  0  0  0  0  0  0
  128.4990  128.4590   67.6230 C   0  0  0  0  0  0  0  0  0  0  0  0
  130.0095  126.1354   70.0212 H   0  0  0  0  0  0  0  0  0  0  0  0
  129.0221  127.5829   69.6259 H   0  0  0  0  0  0  0  0  0  0  0  0
  128.2668  125.9532   69.6259 H   0  0  0  0  0  0  0  0  0  0  0  0
  129.3766  126.1196   65.3059 H   0  0  0  0  0  0  0  0  0  0  0  0
  128.4379  127.8476   63.7899 H   0  0  0  0  0  0  0  0  0  0  0  0
  125.7680  129.1170   63.8810 H   0  0  0  0  0  0  0  0  0  0  0  0
  126.2320  131.7000   62.8250 H   0  0  0  0  0  0  0  0  0  0  0  0
  122.8164  131.4622   61.4423 H   0  0  0  0  0  0  0  0  0  0  0  0
  123.7792  132.5945   62.5255 H   0  0  0  0  0  0  0  0  0  0  0  0
  126.7953  126.9499   60.2001 H   0  0  0  0  0  0  0  0  0  0  0  0
  128.6055  125.2908   59.8001 H   0  0  0  0  0  0  0  0  0  0  0  0
  130.2490  124.6220   57.3580 H   0  0  0  0  0  0  0  0  0  0  0  0
  130.6932  127.0661   60.4611 H   0  0  0  0  0  0  0  0  0  0  0  0
  130.7369  126.7960   62.9412 H   0  0  0  0  0  0  0  0  0  0  0  0
  132.0239  126.0196   64.8716 H   0  0  0  0  0  0  0  0  0  0  0  0
  131.4909  124.3118   64.7097 H   0  0  0  0  0  0  0  0  0  0  0  0
  133.2426  124.7099   64.7097 H   0  0  0  0  0  0  0  0  0  0  0  0
  133.6895  123.6586   62.5489 H   0  0  0  0  0  0  0  0  0  0  0  0
  133.6476  123.9305   60.0709 H   0  0  0  0  0  0  0  0  0  0  0  0
  130.0623  127.6756   56.5032 H   0  0  0  0  0  0  0  0  0  0  0  0
  128.2668  129.3483   56.9182 H   0  0  0  0  0  0  0  0  0  0  0  0
  127.3411  132.9477   59.5696 H   0  0  0  0  0  0  0  0  0  0  0  0
  129.3408  133.8001   60.7851 H   0  0  0  0  0  0  0  0  0  0  0  0
  132.4719  131.5487   63.3371 H   0  0  0  0  0  0  0  0  0  0  0  0
  132.0513  130.7543   61.7818 H   0  0  0  0  0  0  0  0  0  0  0  0
  132.9529  132.3080   61.7818 H   0  0  0  0  0  0  0  0  0  0  0  0
  130.1135  129.8297   62.3120 H   0  0  0  0  0  0  0  0  0  0  0  0
  128.1089  128.9750   61.1029 H   0  0  0  0  0  0  0  0  0  0  0  0
  127.5768  130.3652   67.1988 H   0  0  0  0  0  0  0  0  0  0  0  0
  128.5112  128.6324   68.7092 H   0  0  0  0  0  0  0  0  0  0  0  0
  1  2  1  0
  2  3  1  0
  3  4  2  0
  4  5  1  0
  5  6  2  0
  6  7  1  0
  7  8  2  0
  7  9  1  0
  9 10  1  0
 10 11  1  0
 11 12  2  0
 11 13  1  0
 13 14  1  0
 14 15  1  0
 15 16  2  0
 16 17  1  0
 17 18  2  0
 18 19  1  0
 19 20  2  0
 20 21  1  0
 21 22  2  0
 22 23  1  0
 23 24  1  0
 24 25  2  0
 24 26  2  0
 24 27  1  0
 27 28  2  0
 28 29  1  0
 29 30  2  0
 30 31  1  0
 30 32  1  0
 32 33  2  0
 22 34  1  0
 34 35  2  0
 18 36  1  0
 36 37  1  0
 37 38  2  0
 38 39  1  0
 39 40  2  0
 40 41  1  0
 41 42  1  0
 40 43  1  0
 43 44  2  0
  6 45  1  0
 45 46  2  0
 46  3  1  0
 36 15  1  0
 44 37  1  0
 35 19  1  0
 33 27  1  0
  1 47  1  0
  1 48  1  0
  1 49  1  0
  4 50  1  0
  5 51  1  0
  9 52  1  0
 10 53  1  0
 13 54  1  0
 13 55  1  0
 20 56  1  0
 21 57  1  0
 23 58  1  0
 28 59  1  0
 29 60  1  0
 31 61  1  0
 31 62  1  0
 31 63  1  0
 32 64  1  0
 33 65  1  0
 34 66  1  0
 35 67  1  0
 38 68  1  0
 39 69  1  0
 42 70  1  0
 42 71  1  0
 42 72  1  0
 43 73  1  0
 44 74  1  0
 45 75  1  0
 46 76  1  0
M  END
>  <Binding energies>  (1) 
[-8.78]

>  <Ligand effiencies>  (1) 
[-0.17918367346938774]

>  <Interactions>  (1) 
["V-A:ASP:366:CB:3212, V-B:GLU:543:CD:9880, V-A:ASP:366:CG:3213, V-B:GLU:543:CG:9879, V-A:GLU:543:CD:4908, V-A:ARG:545:CZ:4926, V-A:HIS:456:CE1:4070, H-B:GLU:543:OE2:9882, H-B:ARG:545:NH2:9900, V-B:TYR:539:CZ:9849, V-B:TYR:539:CE2:9848, V-B:GLU:543:C:9874, V-B:GLU:543:CB:9878, V-A:GLU:543:CB:4906, V-B:HIS:456:CE1:9041, V-A:GLU:543:CG:4907, H-B:TYR:484:OH:9319, V-B:TYR:484:CZ:9318, V-A:PRO:540:CA:4883, V-A:PRO:540:CB:4885, H-B:TYR:531:OH:9767, H-A:TYR:531:OH:4795, H-A:ALA:541:N:4891, H-B:TYR:539:OH:9850, H-B:ARG:545:NH1:9899"]

$$$$
RR30_Rahimova_2017
     RDKit          3D

 29 30  0  0  0  0  0  0  0  0999 V2000
  126.6820  131.3790   57.3710 C   0  0  0  0  0  0  0  0  0  0  0  0
  127.6790  131.9480   58.3900 C   0  0  0  0  0  0  0  0  0  0  0  0
  128.9650  132.4070   57.7390 C   0  0  0  0  0  0  0  0  0  0  0  0
  129.3010  133.6200   57.3740 N   0  0  0  0  0  0  0  0  0  0  0  0
  130.5740  133.5130   56.8190 N   0  0  0  0  0  0  0  0  0  0  0  0
  130.8930  132.2460   56.8860 C   0  0  0  0  0  0  0  0  0  0  0  0
  132.3920  131.4840   56.3530 S   0  0  0  0  0  0  0  0  0  0  0  0
  132.6550  130.3170   57.7260 C   0  0  0  0  0  0  0  0  0  0  0  0
  132.5200  130.9930   59.0930 C   0  0  0  0  0  0  0  0  0  0  0  0
  133.5000  131.5560   59.5860 O   0  0  0  0  0  0  0  0  0  0  0  0
  131.3100  130.8870   59.6870 N   0  0  0  0  0  0  0  0  0  0  0  0
  130.9500  131.4100   60.9200 C   0  0  0  0  0  0  0  0  0  0  0  0
  131.6830  132.1190   61.7490 N   0  0  0  0  0  0  0  0  0  0  0  0
  130.9870  132.4730   62.8980 N   0  0  0  0  0  0  0  0  0  0  0  0
  129.7510  132.0290   62.9170 C   0  0  0  0  0  0  0  0  0  0  0  0
  128.7970  132.2820   64.0610 C   0  0  0  0  0  0  0  0  0  0  0  0
  129.3350  131.1220   61.4880 S   0  0  0  0  0  0  0  0  0  0  0  0
  129.9240  131.4880   57.4610 O   0  0  0  0  0  0  0  0  0  0  0  0
  125.8459  130.9018   57.9032 H   0  0  0  0  0  0  0  0  0  0  0  0
  126.2976  132.1938   56.7398 H   0  0  0  0  0  0  0  0  0  0  0  0
  127.1880  130.6337   56.7398 H   0  0  0  0  0  0  0  0  0  0  0  0
  127.2144  132.8054   58.8990 H   0  0  0  0  0  0  0  0  0  0  0  0
  127.9286  131.1465   59.1008 H   0  0  0  0  0  0  0  0  0  0  0  0
  131.9095  129.5114   57.6540 H   0  0  0  0  0  0  0  0  0  0  0  0
  133.6788  129.9234   57.6434 H   0  0  0  0  0  0  0  0  0  0  0  0
  130.5910  130.3740   59.1980 H   0  0  0  0  0  0  0  0  0  0  0  0
  129.3245  132.1421   65.0161 H   0  0  0  0  0  0  0  0  0  0  0  0
  128.4162  133.3122   63.9999 H   0  0  0  0  0  0  0  0  0  0  0  0
  127.9558  131.5759   63.9999 H   0  0  0  0  0  0  0  0  0  0  0  0
  1  2  1  0
  2  3  1  0
  3  4  2  0
  4  5  1  0
  5  6  2  0
  6  7  1  0
  7  8  1  0
  8  9  1  0
  9 10  2  0
  9 11  1  0
 11 12  1  0
 12 13  2  0
 13 14  1  0
 14 15  2  0
 15 16  1  0
 15 17  1  0
  6 18  1  0
 18  3  1  0
 17 12  1  0
  1 19  1  0
  1 20  1  0
  1 21  1  0
  2 22  1  0
  2 23  1  0
  8 24  1  0
  8 25  1  0
 11 26  1  0
 16 27  1  0
 16 28  1  0
 16 29  1  0
M  END
>  <Binding energies>  (1) 
[-6.37]

>  <Ligand effiencies>  (1) 
[-0.3352631578947369]

>  <Interactions>  (1) 
["V-A:ASP:366:CB:3212, V-A:ASP:366:CG:3213, V-A:GLU:543:CD:4908, V-A:GLU:543:CG:4907, V-A:PRO:540:CA:4883, V-A:PRO:540:CB:4885, V-A:LEU:363:CD1:3189, V-A:TYR:531:CZ:4794, H-A:TYR:531:OH:4795, V-A:TYR:539:CE1:4875, H-A:ALA:541:N:4891, V-A:TYR:539:CZ:4877, V-A:TYR:539:CD1:4873, H-A:TYR:539:N:4870, V-A:TYR:531:CE2:4793, V-A:ALA:541:CB:4892, H-A:LEU:363:N:3186"]

$$$$
RR31_Rahimova_2017
     RDKit          3D

 44 45  0  0  0  0  0  0  0  0999 V2000
  129.6410  128.4040   72.9560 C   0  0  0  0  0  0  0  0  0  0  0  0
  129.6700  127.9400   71.5050 C   0  0  0  0  0  0  0  0  0  0  0  0
  130.8320  128.1260   70.7550 C   0  0  0  0  0  0  0  0  0  0  0  0
  130.8920  127.7090   69.4270 C   0  0  0  0  0  0  0  0  0  0  0  0
  129.7950  127.0860   68.8110 C   0  0  0  0  0  0  0  0  0  0  0  0
  129.8360  126.6720   67.4780 N   0  0  0  0  0  0  0  0  0  0  0  0
  130.4370  125.3850   67.0770 C   0  0  0  0  0  0  0  0  0  0  0  0
  130.7620  125.2840   65.5680 C   0  0  0  0  0  0  0  0  0  0  0  0
  129.5690  125.5420   64.7570 N   0  0  0  0  0  0  0  0  0  0  0  0
  129.8380  125.4180   63.3210 C   0  0  0  0  0  0  0  0  0  0  0  0
  131.2540  125.8860   62.9300 C   0  0  0  0  0  0  0  0  0  0  0  0
  131.2900  126.5360   61.5370 C   0  0  0  0  0  0  0  0  0  0  0  0
  131.3700  128.0610   61.6720 N   0  0  0  0  0  0  0  0  0  0  0  0
  129.1210  126.9010   65.0580 C   0  0  0  0  0  0  0  0  0  0  0  0
  128.7450  127.0360   66.5520 C   0  0  0  0  0  0  0  0  0  0  0  0
  128.6300  126.9140   69.5740 C   0  0  0  0  0  0  0  0  0  0  0  0
  128.5570  127.3290   70.9090 C   0  0  0  0  0  0  0  0  0  0  0  0
  127.2610  127.1150   71.6820 C   0  0  0  0  0  0  0  0  0  0  0  0
  129.6956  127.5299   73.6216 H   0  0  0  0  0  0  0  0  0  0  0  0
  130.4996  129.0645   73.1470 H   0  0  0  0  0  0  0  0  0  0  0  0
  128.7068  128.9525   73.1470 H   0  0  0  0  0  0  0  0  0  0  0  0
  131.7079  128.6058   71.2161 H   0  0  0  0  0  0  0  0  0  0  0  0
  131.8151  127.8707   68.8510 H   0  0  0  0  0  0  0  0  0  0  0  0
  131.3712  125.2489   67.6416 H   0  0  0  0  0  0  0  0  0  0  0  0
  129.6923  124.6051   67.2945 H   0  0  0  0  0  0  0  0  0  0  0  0
  131.5356  126.0243   65.3160 H   0  0  0  0  0  0  0  0  0  0  0  0
  131.1193  124.2661   65.3531 H   0  0  0  0  0  0  0  0  0  0  0  0
  129.7260  124.3622   63.0334 H   0  0  0  0  0  0  0  0  0  0  0  0
  129.1209  126.0655   62.7951 H   0  0  0  0  0  0  0  0  0  0  0  0
  131.6014  126.6201   63.6719 H   0  0  0  0  0  0  0  0  0  0  0  0
  131.9061  125.0005   62.9051 H   0  0  0  0  0  0  0  0  0  0  0  0
  132.1710  126.1722   60.9879 H   0  0  0  0  0  0  0  0  0  0  0  0
  130.3734  126.2695   60.9903 H   0  0  0  0  0  0  0  0  0  0  0  0
  130.7500  128.5020   61.0070 H   0  0  0  0  0  0  0  0  0  0  0  0
  132.3130  128.3760   61.4960 H   0  0  0  0  0  0  0  0  0  0  0  0
  131.1010  128.3430   62.6040 H   0  0  0  0  0  0  0  0  0  0  0  0
  129.9308  127.6079   64.8244 H   0  0  0  0  0  0  0  0  0  0  0  0
  128.2323  127.1227   64.4489 H   0  0  0  0  0  0  0  0  0  0  0  0
  128.4611  128.0811   66.7448 H   0  0  0  0  0  0  0  0  0  0  0  0
  127.9195  126.3333   66.7386 H   0  0  0  0  0  0  0  0  0  0  0  0
  127.7514  126.4409   69.1112 H   0  0  0  0  0  0  0  0  0  0  0  0
  127.4682  127.1492   72.7618 H   0  0  0  0  0  0  0  0  0  0  0  0
  126.5434  127.9068   71.4211 H   0  0  0  0  0  0  0  0  0  0  0  0
  126.8361  126.1345   71.4211 H   0  0  0  0  0  0  0  0  0  0  0  0
  1  2  1  0
  2  3  2  0
  3  4  1  0
  4  5  2  0
  5  6  1  0
  6  7  1  0
  7  8  1  0
  8  9  1  0
  9 10  1  0
 10 11  1  0
 11 12  1  0
 12 13  1  0
  9 14  1  0
 14 15  1  0
  5 16  1  0
 16 17  2  0
 17 18  1  0
 17  2  1  0
 15  6  1  0
  1 19  1  0
  1 20  1  0
  1 21  1  0
  3 22  1  0
  4 23  1  0
  7 24  1  0
  7 25  1  0
  8 26  1  0
  8 27  1  0
 10 28  1  0
 10 29  1  0
 11 30  1  0
 11 31  1  0
 12 32  1  0
 12 33  1  0
 13 34  1  0
 13 35  1  0
 13 36  1  0
 14 37  1  0
 14 38  1  0
 15 39  1  0
 15 40  1  0
 16 41  1  0
 18 42  1  0
 18 43  1  0
 18 44  1  0
M  CHG  1  13   1
M  END
>  <Binding energies>  (1) 
[-6.5]

>  <Ligand effiencies>  (1) 
[-0.30952380952380953]

>  <Interactions>  (1) 
["V-B:GLU:543:CD:9880, V-A:ASP:366:CG:3213, H-A:GLU:543:OE1:4909, V-B:GLU:543:CG:9879, V-A:GLU:543:CD:4908, H-A:GLU:543:OE2:4910, V-A:HIS:456:CE1:4070, H-A:ASP:366:OD1:3214, V-A:TYR:484:CE2:4346, V-A:GLU:543:C:4902, V-B:GLU:543:C:9874, V-A:TYR:484:CZ:4347, V-B:GLU:543:CB:9878, V-A:GLY:544:C:4912, V-A:GLU:543:CB:4906, V-B:HIS:456:CD2:9039, V-B:HIS:456:CE1:9041, V-B:GLY:544:C:9884, V-B:GLY:544:CA:9886, V-B:HIS:456:CG:9037, H-A:ASP:366:OD2:3215"]

$$$$
RR32_Rahimova_2017
     RDKit          3D

 37 39  0  0  0  0  0  0  0  0999 V2000
  124.6320  123.4900   62.1480 C   0  0  0  0  0  0  0  0  0  0  0  0
  125.7020  123.5030   61.0610 C   0  0  0  0  0  0  0  0  0  0  0  0
  127.0050  123.1480   61.4140 C   0  0  0  0  0  0  0  0  0  0  0  0
  128.0070  123.1450   60.4490 C   0  0  0  0  0  0  0  0  0  0  0  0
  129.2980  122.7920   60.8030 N   0  0  0  0  0  0  0  0  0  0  0  0
  129.6420  121.3590   60.7610 C   0  0  0  0  0  0  0  0  0  0  0  0
  131.0410  121.0500   61.3450 C   0  0  0  0  0  0  0  0  0  0  0  0
  132.0680  121.7980   60.6200 N   0  0  0  0  0  0  0  0  0  0  0  0
  133.3900  121.4820   61.1490 C   0  0  0  0  0  0  0  0  0  0  0  0
  131.7850  123.2230   60.7790 C   0  0  0  0  0  0  0  0  0  0  0  0
  130.3960  123.5640   60.1900 C   0  0  0  0  0  0  0  0  0  0  0  0
  127.7760  123.4800   59.1530 N   0  0  0  0  0  0  0  0  0  0  0  0
  126.5170  123.8340   58.7780 C   0  0  0  0  0  0  0  0  0  0  0  0
  126.3050  124.1800   57.4220 C   0  0  0  0  0  0  0  0  0  0  0  0
  125.0390  124.5500   56.9820 C   0  0  0  0  0  0  0  0  0  0  0  0
  123.9680  124.5830   57.8670 C   0  0  0  0  0  0  0  0  0  0  0  0
  124.1410  124.2480   59.2070 C   0  0  0  0  0  0  0  0  0  0  0  0
  125.4210  123.8640   59.7020 C   0  0  0  0  0  0  0  0  0  0  0  0
  125.1138  123.4959   63.1369 H   0  0  0  0  0  0  0  0  0  0  0  0
  123.9944  124.3805   62.0455 H   0  0  0  0  0  0  0  0  0  0  0  0
  124.0162  122.5843   62.0455 H   0  0  0  0  0  0  0  0  0  0  0  0
  127.2389  122.8713   62.4526 H   0  0  0  0  0  0  0  0  0  0  0  0
  128.8907  120.8021   61.3402 H   0  0  0  0  0  0  0  0  0  0  0  0
  129.6557  121.0573   59.7033 H   0  0  0  0  0  0  0  0  0  0  0  0
  131.0632  121.3378   62.4064 H   0  0  0  0  0  0  0  0  0  0  0  0
  131.2424  119.9734   61.2433 H   0  0  0  0  0  0  0  0  0  0  0  0
  133.3565  121.4900   62.2485 H   0  0  0  0  0  0  0  0  0  0  0  0
  133.6965  120.4853   60.7987 H   0  0  0  0  0  0  0  0  0  0  0  0
  134.1141  122.2324   60.7987 H   0  0  0  0  0  0  0  0  0  0  0  0
  131.7980  123.4783   61.8489 H   0  0  0  0  0  0  0  0  0  0  0  0
  132.5522  123.8018   60.2439 H   0  0  0  0  0  0  0  0  0  0  0  0
  130.2020  124.6349   60.3500 H   0  0  0  0  0  0  0  0  0  0  0  0
  130.4215  123.3032   59.1217 H   0  0  0  0  0  0  0  0  0  0  0  0
  127.1457  124.1561   56.7130 H   0  0  0  0  0  0  0  0  0  0  0  0
  124.8841  124.8183   55.9265 H   0  0  0  0  0  0  0  0  0  0  0  0
  122.9720  124.8773   57.5044 H   0  0  0  0  0  0  0  0  0  0  0  0
  123.2803  124.2800   59.8913 H   0  0  0  0  0  0  0  0  0  0  0  0
  1  2  1  0
  2  3  2  0
  3  4  1  0
  4  5  1  0
  5  6  1  0
  6  7  1  0
  7  8  1  0
  8  9  1  0
  8 10  1  0
 10 11  1  0
  4 12  2  0
 12 13  1  0
 13 14  2  0
 14 15  1  0
 15 16  2  0
 16 17  1  0
 17 18  2  0
 18  2  1  0
 11  5  1  0
 18 13  1  0
  1 19  1  0
  1 20  1  0
  1 21  1  0
  3 22  1  0
  6 23  1  0
  6 24  1  0
  7 25  1  0
  7 26  1  0
  9 27  1  0
  9 28  1  0
  9 29  1  0
 10 30  1  0
 10 31  1  0
 11 32  1  0
 11 33  1  0
 14 34  1  0
 15 35  1  0
 16 36  1  0
 17 37  1  0
M  END
>  <Binding energies>  (1) 
[-5.83]

>  <Ligand effiencies>  (1) 
[-0.3238888888888889]

>  <Interactions>  (1) 
["V-A:ILE:369:CG2:3237, V-B:GLU:543:CD:9880, V-A:LEU:475:CD2:4259, V-B:ASP:366:CB:8183, V-B:TYR:539:C:9839, V-B:TYR:531:CE2:9765, V-B:ASP:366:CG:8184, V-B:PRO:540:CA:9855, V-B:PRO:540:CB:9857, V-B:LEU:363:CD1:8160, V-B:TYR:531:CZ:9766, V-B:LEU:363:CA:8156, V-B:MET:535:CE:9807, V-B:TYR:539:CE2:9848, V-B:PRO:540:C:9853, V-B:TYR:539:CD2:9846, V-B:ASN:362:CB:8147, V-B:LEU:363:CB:8158"]

$$$$
RR32_Rahimova_2017-again1
     RDKit          3D

 38 40  0  0  0  0  0  0  0  0999 V2000
  128.4630  123.7800   58.5340 C   0  0  0  0  0  0  0  0  0  0  0  0
  128.0070  123.4260   59.9420 C   0  0  0  0  0  0  0  0  0  0  0  0
  128.9380  123.0390   60.9070 C   0  0  0  0  0  0  0  0  0  0  0  0
  128.5160  122.7180   62.2020 C   0  0  0  0  0  0  0  0  0  0  0  0
  129.4300  122.3170   63.1820 N   0  0  0  0  0  0  0  0  0  0  0  0
  130.8810  122.3620   62.9120 C   0  0  0  0  0  0  0  0  0  0  0  0
  131.5000  123.7470   63.2170 C   0  0  0  0  0  0  0  0  0  0  0  0
  131.2930  124.0590   64.7120 N   0  0  0  0  0  0  0  0  0  0  0  0
  131.8770  125.4390   65.0690 C   0  0  0  0  0  0  0  0  0  0  0  0
  129.7840  124.0080   65.0240 C   0  0  0  0  0  0  0  0  0  0  0  0
  129.2430  122.6170   64.6170 C   0  0  0  0  0  0  0  0  0  0  0  0
  127.1990  122.7490   62.5460 N   0  0  0  0  0  0  0  0  0  0  0  0
  126.2690  123.1260   61.6280 C   0  0  0  0  0  0  0  0  0  0  0  0
  124.9110  123.1620   62.0250 C   0  0  0  0  0  0  0  0  0  0  0  0
  123.9260  123.5450   61.1180 C   0  0  0  0  0  0  0  0  0  0  0  0
  124.2630  123.8950   59.8150 C   0  0  0  0  0  0  0  0  0  0  0  0
  125.5900  123.8680   59.3940 C   0  0  0  0  0  0  0  0  0  0  0  0
  126.6240  123.4830   60.2910 C   0  0  0  0  0  0  0  0  0  0  0  0
  129.3308  124.4537   58.5882 H   0  0  0  0  0  0  0  0  0  0  0  0
  128.7446  122.8616   57.9980 H   0  0  0  0  0  0  0  0  0  0  0  0
  127.6431  124.2805   57.9980 H   0  0  0  0  0  0  0  0  0  0  0  0
  130.0060  122.9862   60.6490 H   0  0  0  0  0  0  0  0  0  0  0  0
  131.3795  121.6076   63.5384 H   0  0  0  0  0  0  0  0  0  0  0  0
  131.0271  122.1603   61.8406 H   0  0  0  0  0  0  0  0  0  0  0  0
  132.5756  123.7310   62.9871 H   0  0  0  0  0  0  0  0  0  0  0  0
  131.0157  124.5192   62.6012 H   0  0  0  0  0  0  0  0  0  0  0  0
  131.7570  123.3450   65.2550 H   0  0  0  0  0  0  0  0  0  0  0  0
  131.9223  125.5461   66.1628 H   0  0  0  0  0  0  0  0  0  0  0  0
  132.8900  125.5281   64.6495 H   0  0  0  0  0  0  0  0  0  0  0  0
  131.2357  126.2282   64.6495 H   0  0  0  0  0  0  0  0  0  0  0  0
  129.6224  124.1682   66.1002 H   0  0  0  0  0  0  0  0  0  0  0  0
  129.2575  124.7948   64.4639 H   0  0  0  0  0  0  0  0  0  0  0  0
  129.7692  121.8512   65.2058 H   0  0  0  0  0  0  0  0  0  0  0  0
  128.1606  122.6170   64.8127 H   0  0  0  0  0  0  0  0  0  0  0  0
  124.6327  122.8867   63.0530 H   0  0  0  0  0  0  0  0  0  0  0  0
  122.8729  123.5709   61.4348 H   0  0  0  0  0  0  0  0  0  0  0  0
  123.4738  124.1960   59.1103 H   0  0  0  0  0  0  0  0  0  0  0  0
  125.8403  124.1466   58.3597 H   0  0  0  0  0  0  0  0  0  0  0  0
  1  2  1  0
  2  3  2  0
  3  4  1  0
  4  5  1  0
  5  6  1  0
  6  7  1  0
  7  8  1  0
  8  9  1  0
  8 10  1  0
 10 11  1  0
  4 12  2  0
 12 13  1  0
 13 14  2  0
 14 15  1  0
 15 16  2  0
 16 17  1  0
 17 18  2  0
 18  2  1  0
 11  5  1  0
 18 13  1  0
  1 19  1  0
  1 20  1  0
  1 21  1  0
  3 22  1  0
  6 23  1  0
  6 24  1  0
  7 25  1  0
  7 26  1  0
  8 27  1  0
  9 28  1  0
  9 29  1  0
  9 30  1  0
 10 31  1  0
 10 32  1  0
 11 33  1  0
 11 34  1  0
 14 35  1  0
 15 36  1  0
 16 37  1  0
 17 38  1  0
M  CHG  1   8   1
M  END
>  <Binding energies>  (1) 
[-6.55]

>  <Ligand effiencies>  (1) 
[-0.3447368421052632]

>  <Interactions>  (1) 
["V-B:GLU:543:CD:9880, H-A:TYR:484:OH:4348, V-B:GLU:543:CG:9879, V-A:GLU:543:CD:4908, V-A:ARG:545:CZ:4926, V-A:LEU:475:CD2:4259, V-B:ALA:541:CB:9864, H-B:ALA:541:N:9863, V-B:ASP:366:CG:8184, V-B:PRO:540:CA:9855, V-B:PRO:540:CB:9857, V-B:LEU:363:CA:8156, V-B:TYR:539:CZ:9849, V-B:TYR:539:CE2:9848, V-B:PRO:540:C:9853, V-B:TYR:539:CD2:9846, V-B:ASN:362:CB:8147, V-B:ASN:362:C:8143, V-A:TYR:484:CE2:4346, V-A:TYR:484:CZ:4347, V-B:ASN:362:CA:8145"]

$$$$
RR32_Rahimova_2017-again2
     RDKit          3D

 39 41  0  0  0  0  0  0  0  0999 V2000
  127.6030  125.2160   56.9010 C   0  0  0  0  0  0  0  0  0  0  0  0
  127.3980  125.1660   58.4100 C   0  0  0  0  0  0  0  0  0  0  0  0
  128.4250  125.5610   59.2710 C   0  0  0  0  0  0  0  0  0  0  0  0
  128.2580  125.5170   60.6620 C   0  0  0  0  0  0  0  0  0  0  0  0
  129.2790  125.9270   61.5920 N   0  0  0  0  0  0  0  0  0  0  0  0
  130.7070  125.9870   61.1790 C   0  0  0  0  0  0  0  0  0  0  0  0
  131.0270  127.3470   60.5050 C   0  0  0  0  0  0  0  0  0  0  0  0
  130.7310  128.4970   61.4980 N   0  0  0  0  0  0  0  0  0  0  0  0
  130.9830  129.8700   60.8430 C   0  0  0  0  0  0  0  0  0  0  0  0
  129.2780  128.3910   62.0200 C   0  0  0  0  0  0  0  0  0  0  0  0
  129.0520  126.9770   62.6180 C   0  0  0  0  0  0  0  0  0  0  0  0
  127.0720  125.0900   61.1410 N   0  0  0  0  0  0  0  0  0  0  0  0
  126.0050  124.6830   60.3720 C   0  0  0  0  0  0  0  0  0  0  0  0
  124.8040  124.2510   60.9780 C   0  0  0  0  0  0  0  0  0  0  0  0
  123.7440  123.8510   60.1690 C   0  0  0  0  0  0  0  0  0  0  0  0
  123.8620  123.8730   58.7810 C   0  0  0  0  0  0  0  0  0  0  0  0
  125.0430  124.2970   58.1700 C   0  0  0  0  0  0  0  0  0  0  0  0
  126.1540  124.7160   58.9540 C   0  0  0  0  0  0  0  0  0  0  0  0
  128.6502  125.4714   56.6815 H   0  0  0  0  0  0  0  0  0  0  0  0
  127.3662  124.2338   56.4661 H   0  0  0  0  0  0  0  0  0  0  0  0
  126.9406  125.9789   56.4661 H   0  0  0  0  0  0  0  0  0  0  0  0
  129.3791  125.9119   58.8509 H   0  0  0  0  0  0  0  0  0  0  0  0
  131.3449  125.8652   62.0668 H   0  0  0  0  0  0  0  0  0  0  0  0
  130.9000  125.1805   60.4563 H   0  0  0  0  0  0  0  0  0  0  0  0
  132.0888  127.3737   60.2190 H   0  0  0  0  0  0  0  0  0  0  0  0
  130.4025  127.4675   59.6075 H   0  0  0  0  0  0  0  0  0  0  0  0
  131.3510  128.3890   62.2890 H   0  0  0  0  0  0  0  0  0  0  0  0
  131.1225  130.6298   61.6261 H   0  0  0  0  0  0  0  0  0  0  0  0
  131.8865  129.8177   60.2178 H   0  0  0  0  0  0  0  0  0  0  0  0
  130.1198  130.1420   60.2178 H   0  0  0  0  0  0  0  0  0  0  0  0
  129.1103  129.1504   62.7979 H   0  0  0  0  0  0  0  0  0  0  0  0
  128.5746  128.5582   61.1910 H   0  0  0  0  0  0  0  0  0  0  0  0
  129.7516  126.8226   63.4527 H   0  0  0  0  0  0  0  0  0  0  0  0
  128.0126  126.9058   62.9709 H   0  0  0  0  0  0  0  0  0  0  0  0
  126.9560  125.0730   62.1430 H   0  0  0  0  0  0  0  0  0  0  0  0
  124.7079  124.2310   62.0736 H   0  0  0  0  0  0  0  0  0  0  0  0
  122.8039  123.5142   60.6303 H   0  0  0  0  0  0  0  0  0  0  0  0
  123.0136  123.5521   58.1587 H   0  0  0  0  0  0  0  0  0  0  0  0
  125.1156  124.3073   57.0724 H   0  0  0  0  0  0  0  0  0  0  0  0
  1  2  1  0
  2  3  2  0
  3  4  1  0
  4  5  1  0
  5  6  1  0
  6  7  1  0
  7  8  1  0
  8  9  1  0
  8 10  1  0
 10 11  1  0
  4 12  2  0
 12 13  1  0
 13 14  2  0
 14 15  1  0
 15 16  2  0
 16 17  1  0
 17 18  2  0
 18  2  1  0
 11  5  1  0
 18 13  1  0
  1 19  1  0
  1 20  1  0
  1 21  1  0
  3 22  1  0
  6 23  1  0
  6 24  1  0
  7 25  1  0
  7 26  1  0
  8 27  1  0
  9 28  1  0
  9 29  1  0
  9 30  1  0
 10 31  1  0
 10 32  1  0
 11 33  1  0
 11 34  1  0
 12 35  1  0
 14 36  1  0
 15 37  1  0
 16 38  1  0
 17 39  1  0
M  CHG  2   8   1  12   1
M  END
>  <Binding energies>  (1) 
[-6.91]

>  <Ligand effiencies>  (1) 
[-0.34550000000000003]

>  <Interactions>  (1) 
["V-B:GLU:543:CD:9880, V-A:ASP:366:CG:3213, H-A:GLU:543:OE1:4909, V-A:GLU:543:CD:4908, H-A:GLU:543:OE2:4910, H-B:GLU:543:OE1:9881, V-B:ASP:366:CG:8184, V-B:PRO:540:CB:9857, V-B:LEU:363:CD1:8160, V-B:LEU:363:CA:8156, V-B:ASN:362:CB:8147, V-B:ASN:362:C:8143, V-B:LEU:363:CB:8158, H-A:ASP:366:OD2:3215"]

$$$$
RR33_Rahimova_2017
     RDKit          3D

 36 37  0  0  0  0  0  0  0  0999 V2000
  132.4140  126.5100   74.3200 C   0  0  0  0  0  0  0  0  0  0  0  0
  130.8870  126.4900   74.4340 C   0  0  0  0  0  0  0  0  0  0  0  0
  130.3660  127.6610   73.8110 O   0  0  0  0  0  0  0  0  0  0  0  0
  130.0110  127.6180   72.4760 C   0  0  0  0  0  0  0  0  0  0  0  0
  130.9800  128.0300   71.5620 C   0  0  0  0  0  0  0  0  0  0  0  0
  130.7130  128.0240   70.1960 C   0  0  0  0  0  0  0  0  0  0  0  0
  129.4660  127.6040   69.7230 C   0  0  0  0  0  0  0  0  0  0  0  0
  129.1800  127.5990   68.2550 C   0  0  0  0  0  0  0  0  0  0  0  0
  129.6480  126.7710   67.3490 N   0  0  0  0  0  0  0  0  0  0  0  0
  129.1120  127.1650   66.2040 C   0  0  0  0  0  0  0  0  0  0  0  0
  129.4110  126.4350   64.9130 C   0  0  0  0  0  0  0  0  0  0  0  0
  130.6730  125.7160   65.0090 N   0  0  0  0  0  0  0  0  0  0  0  0
  130.4420  124.3110   65.3020 C   0  0  0  0  0  0  0  0  0  0  0  0
  128.2950  128.2670   66.4270 C   0  0  0  0  0  0  0  0  0  0  0  0
  127.4260  129.1500   65.5650 C   0  0  0  0  0  0  0  0  0  0  0  0
  128.3430  128.5430   67.7500 O   0  0  0  0  0  0  0  0  0  0  0  0
  128.4930  127.1870   70.6350 C   0  0  0  0  0  0  0  0  0  0  0  0
  128.7600  127.1930   72.0030 C   0  0  0  0  0  0  0  0  0  0  0  0
  132.8568  126.5158   75.3269 H   0  0  0  0  0  0  0  0  0  0  0  0
  132.7528  125.6162   73.7756 H   0  0  0  0  0  0  0  0  0  0  0  0
  132.7293  127.4124   73.7756 H   0  0  0  0  0  0  0  0  0  0  0  0
  130.4901  125.5957   73.9312 H   0  0  0  0  0  0  0  0  0  0  0  0
  130.5909  126.4662   75.4931 H   0  0  0  0  0  0  0  0  0  0  0  0
  131.9641  128.3627   71.9237 H   0  0  0  0  0  0  0  0  0  0  0  0
  131.4864  128.3511   69.4854 H   0  0  0  0  0  0  0  0  0  0  0  0
  128.6020  125.7186   64.7075 H   0  0  0  0  0  0  0  0  0  0  0  0
  129.4845  127.1714   64.0991 H   0  0  0  0  0  0  0  0  0  0  0  0
  131.2280  126.1180   65.7520 H   0  0  0  0  0  0  0  0  0  0  0  0
  130.4176  124.1629   66.3917 H   0  0  0  0  0  0  0  0  0  0  0  0
  129.4805  123.9992   64.8680 H   0  0  0  0  0  0  0  0  0  0  0  0
  131.2530  123.7078   64.8680 H   0  0  0  0  0  0  0  0  0  0  0  0
  126.7994  129.7867   66.2069 H   0  0  0  0  0  0  0  0  0  0  0  0
  128.0628  129.7834   64.9299 H   0  0  0  0  0  0  0  0  0  0  0  0
  126.7825  128.5234   64.9299 H   0  0  0  0  0  0  0  0  0  0  0  0
  127.5104  126.8520   70.2712 H   0  0  0  0  0  0  0  0  0  0  0  0
  127.9879  126.8637   72.7139 H   0  0  0  0  0  0  0  0  0  0  0  0
  1  2  1  0
  2  3  1  0
  3  4  1  0
  4  5  2  0
  5  6  1  0
  6  7  2  0
  7  8  1  0
  8  9  2  0
  9 10  1  0
 10 11  1  0
 11 12  1  0
 12 13  1  0
 10 14  2  0
 14 15  1  0
 14 16  1  0
  7 17  1  0
 17 18  2  0
 18  4  1  0
 16  8  1  0
  1 19  1  0
  1 20  1  0
  1 21  1  0
  2 22  1  0
  2 23  1  0
  5 24  1  0
  6 25  1  0
 11 26  1  0
 11 27  1  0
 12 28  1  0
 13 29  1  0
 13 30  1  0
 13 31  1  0
 15 32  1  0
 15 33  1  0
 15 34  1  0
 17 35  1  0
 18 36  1  0
M  END
>  <Binding energies>  (1) 
[-4.76]

>  <Ligand effiencies>  (1) 
[-0.25052631578947365]

>  <Interactions>  (1) 
["V-B:GLU:543:CD:9880, H-A:GLU:543:OE1:4909, V-B:GLU:543:CG:9879, V-A:GLU:543:CD:4908, H-A:GLU:543:OE2:4910, V-A:HIS:456:CE1:4070, V-A:TYR:484:CE2:4346, V-A:GLU:543:C:4902, V-A:HIS:456:CB:4065, V-A:HIS:456:CD2:4068, V-A:TYR:484:CZ:4347, V-B:GLU:543:CB:9878, V-A:HIS:456:CG:4066, V-A:GLY:544:C:4912, V-A:GLU:543:CB:4906, V-B:HIS:456:CE1:9041, V-A:GLU:543:CG:4907, H-A:LYS:547:NZ:4951, V-A:GLY:544:CA:4914"]

$$$$
RR33_Rahimova_2017-again1
     RDKit          3D

 37 38  0  0  0  0  0  0  0  0999 V2000
  127.4490  128.4430   74.1970 C   0  0  0  0  0  0  0  0  0  0  0  0
  128.8960  127.9680   74.0300 C   0  0  0  0  0  0  0  0  0  0  0  0
  128.9150  126.8630   73.1310 O   0  0  0  0  0  0  0  0  0  0  0  0
  128.9090  127.0960   71.7690 C   0  0  0  0  0  0  0  0  0  0  0  0
  127.7070  126.8610   71.1020 C   0  0  0  0  0  0  0  0  0  0  0  0
  127.6040  127.0680   69.7300 C   0  0  0  0  0  0  0  0  0  0  0  0
  128.7100  127.5160   69.0000 C   0  0  0  0  0  0  0  0  0  0  0  0
  128.6030  127.7420   67.5260 C   0  0  0  0  0  0  0  0  0  0  0  0
  129.0930  126.9930   66.5620 N   0  0  0  0  0  0  0  0  0  0  0  0
  128.7410  127.5940   65.4350 C   0  0  0  0  0  0  0  0  0  0  0  0
  129.1390  127.0270   64.0860 C   0  0  0  0  0  0  0  0  0  0  0  0
  130.6210  126.6190   64.1300 N   0  0  0  0  0  0  0  0  0  0  0  0
  130.8880  125.2140   63.5720 C   0  0  0  0  0  0  0  0  0  0  0  0
  128.0230  128.7470   65.7300 C   0  0  0  0  0  0  0  0  0  0  0  0
  127.3670  129.8400   64.9230 C   0  0  0  0  0  0  0  0  0  0  0  0
  127.9350  128.8350   67.0780 O   0  0  0  0  0  0  0  0  0  0  0  0
  129.9180  127.7540   69.6650 C   0  0  0  0  0  0  0  0  0  0  0  0
  130.0190  127.5470   71.0380 C   0  0  0  0  0  0  0  0  0  0  0  0
  127.2101  128.5214   75.2679 H   0  0  0  0  0  0  0  0  0  0  0  0
  127.3291  129.4277   73.7215 H   0  0  0  0  0  0  0  0  0  0  0  0
  126.7689  127.7210   73.7215 H   0  0  0  0  0  0  0  0  0  0  0  0
  129.5092  128.7859   73.6237 H   0  0  0  0  0  0  0  0  0  0  0  0
  129.3047  127.6640   75.0050 H   0  0  0  0  0  0  0  0  0  0  0  0
  126.8312  126.5083   71.6665 H   0  0  0  0  0  0  0  0  0  0  0  0
  126.6493  126.8787   69.2174 H   0  0  0  0  0  0  0  0  0  0  0  0
  128.5208  126.1458   63.8598 H   0  0  0  0  0  0  0  0  0  0  0  0
  128.9863  127.7863   63.3049 H   0  0  0  0  0  0  0  0  0  0  0  0
  131.1600  127.2900   63.6020 H   0  0  0  0  0  0  0  0  0  0  0  0
  130.9370  126.6540   65.0900 H   0  0  0  0  0  0  0  0  0  0  0  0
  131.0221  124.5081   64.4049 H   0  0  0  0  0  0  0  0  0  0  0  0
  130.0342  124.8959   62.9556 H   0  0  0  0  0  0  0  0  0  0  0  0
  131.7989  125.2313   62.9556 H   0  0  0  0  0  0  0  0  0  0  0  0
  126.9221  130.5813   65.6031 H   0  0  0  0  0  0  0  0  0  0  0  0
  128.1204  130.3300   64.2887 H   0  0  0  0  0  0  0  0  0  0  0  0
  126.5802  129.4056   64.2887 H   0  0  0  0  0  0  0  0  0  0  0  0
  130.7931  128.1068   69.0995 H   0  0  0  0  0  0  0  0  0  0  0  0
  130.9726  127.7377   71.5520 H   0  0  0  0  0  0  0  0  0  0  0  0
  1  2  1  0
  2  3  1  0
  3  4  1  0
  4  5  2  0
  5  6  1  0
  6  7  2  0
  7  8  1  0
  8  9  2  0
  9 10  1  0
 10 11  1  0
 11 12  1  0
 12 13  1  0
 10 14  2  0
 14 15  1  0
 14 16  1  0
  7 17  1  0
 17 18  2  0
 18  4  1  0
 16  8  1  0
  1 19  1  0
  1 20  1  0
  1 21  1  0
  2 22  1  0
  2 23  1  0
  5 24  1  0
  6 25  1  0
 11 26  1  0
 11 27  1  0
 12 28  1  0
 12 29  1  0
 13 30  1  0
 13 31  1  0
 13 32  1  0
 15 33  1  0
 15 34  1  0
 15 35  1  0
 17 36  1  0
 18 37  1  0
M  CHG  1  12   1
M  END
>  <Binding energies>  (1) 
[-6.09]

>  <Ligand effiencies>  (1) 
[-0.3045]

>  <Interactions>  (1) 
["V-B:GLU:543:CD:9880, H-A:GLU:543:OE1:4909, V-B:GLU:543:CG:9879, V-A:GLU:543:CD:4908, H-A:GLU:543:OE2:4910, V-A:HIS:456:CE1:4070, V-B:GLU:543:C:9874, V-B:GLU:543:CB:9878, V-A:GLU:543:CB:4906, V-B:HIS:456:CD2:9039, V-B:HIS:456:CE1:9041, V-B:GLY:544:C:9884, V-B:GLY:544:CA:9886, V-A:GLU:543:CG:4907, H-B:TYR:484:OH:9319, V-B:HIS:456:CG:9037, H-B:LYS:547:NZ:9923"]

$$$$
RR3_Rahimova_2017
     RDKit          3D

 63 69  0  0  0  0  0  0  0  0999 V2000
  131.6260  120.8540   60.8040 C   0  0  0  0  0  0  0  0  0  0  0  0
  130.3100  120.9390   61.2470 C   0  0  0  0  0  0  0  0  0  0  0  0
  129.9720  121.8700   62.2260 C   0  0  0  0  0  0  0  0  0  0  0  0
  130.9400  122.7250   62.7720 C   0  0  0  0  0  0  0  0  0  0  0  0
  130.5740  123.7260   63.8230 C   0  0  0  0  0  0  0  0  0  0  0  0
  130.5900  125.1000   63.5470 C   0  0  0  0  0  0  0  0  0  0  0  0
  130.2520  126.0300   64.5260 C   0  0  0  0  0  0  0  0  0  0  0  0
  129.8980  125.6060   65.8100 C   0  0  0  0  0  0  0  0  0  0  0  0
  129.5400  126.6020   66.8690 C   0  0  0  0  0  0  0  0  0  0  0  0
  129.9920  126.4460   68.1080 N   0  0  0  0  0  0  0  0  0  0  0  0
  129.5620  127.4750   68.7960 C   0  0  0  0  0  0  0  0  0  0  0  0
  129.8270  127.7110   70.2130 C   0  0  0  0  0  0  0  0  0  0  0  0
  131.0630  127.9900   70.7710 C   0  0  0  0  0  0  0  0  0  0  0  0
  130.9440  128.1620   72.1250 N   0  0  0  0  0  0  0  0  0  0  0  0
  129.6290  128.0000   72.5040 C   0  0  0  0  0  0  0  0  0  0  0  0
  129.0250  128.0790   73.7630 C   0  0  0  0  0  0  0  0  0  0  0  0
  127.6490  127.8600   73.8200 C   0  0  0  0  0  0  0  0  0  0  0  0
  126.9040  127.5750   72.6810 C   0  0  0  0  0  0  0  0  0  0  0  0
  127.5050  127.4970   71.4260 C   0  0  0  0  0  0  0  0  0  0  0  0
  128.8910  127.7090   71.3130 C   0  0  0  0  0  0  0  0  0  0  0  0
  128.8170  128.3120   68.0120 N   0  0  0  0  0  0  0  0  0  0  0  0
  128.7600  127.7650   66.7550 C   0  0  0  0  0  0  0  0  0  0  0  0
  127.9770  128.3770   65.6400 C   0  0  0  0  0  0  0  0  0  0  0  0
  126.8380  129.1350   65.9180 C   0  0  0  0  0  0  0  0  0  0  0  0
  126.0990  129.6950   64.8810 C   0  0  0  0  0  0  0  0  0  0  0  0
  126.4810  129.5150   63.5440 C   0  0  0  0  0  0  0  0  0  0  0  0
  125.6730  130.1030   62.4310 C   0  0  0  0  0  0  0  0  0  0  0  0
  124.3670  130.5660   62.6570 C   0  0  0  0  0  0  0  0  0  0  0  0
  123.6160  131.1170   61.6210 C   0  0  0  0  0  0  0  0  0  0  0  0
  124.1640  131.2120   60.3460 C   0  0  0  0  0  0  0  0  0  0  0  0
  125.4570  130.7600   60.1000 C   0  0  0  0  0  0  0  0  0  0  0  0
  126.2040  130.2090   61.1360 C   0  0  0  0  0  0  0  0  0  0  0  0
  127.6360  128.7660   63.2800 C   0  0  0  0  0  0  0  0  0  0  0  0
  128.3790  128.2040   64.3140 C   0  0  0  0  0  0  0  0  0  0  0  0
  129.8660  124.2390   66.0910 C   0  0  0  0  0  0  0  0  0  0  0  0
  130.2050  123.3110   65.1100 C   0  0  0  0  0  0  0  0  0  0  0  0
  132.2600  122.6200   62.3100 C   0  0  0  0  0  0  0  0  0  0  0  0
  132.6030  121.6920   61.3310 C   0  0  0  0  0  0  0  0  0  0  0  0
  131.8958  120.1189   60.0315 H   0  0  0  0  0  0  0  0  0  0  0  0
  129.5408  120.2746   60.8264 H   0  0  0  0  0  0  0  0  0  0  0  0
  128.9312  121.9355   62.5758 H   0  0  0  0  0  0  0  0  0  0  0  0
  130.8736  125.4483   62.5429 H   0  0  0  0  0  0  0  0  0  0  0  0
  130.2635  127.1039   64.2880 H   0  0  0  0  0  0  0  0  0  0  0  0
  132.0052  128.0631   70.2081 H   0  0  0  0  0  0  0  0  0  0  0  0
  131.7330  128.3770   72.7170 H   0  0  0  0  0  0  0  0  0  0  0  0
  129.6091  128.3038   74.6676 H   0  0  0  0  0  0  0  0  0  0  0  0
  127.1388  127.9142   74.7930 H   0  0  0  0  0  0  0  0  0  0  0  0
  125.8206  127.4081   72.7722 H   0  0  0  0  0  0  0  0  0  0  0  0
  126.9022  127.2722   70.5337 H   0  0  0  0  0  0  0  0  0  0  0  0
  128.3660  129.1640   68.3110 H   0  0  0  0  0  0  0  0  0  0  0  0
  126.5238  129.2899   66.9607 H   0  0  0  0  0  0  0  0  0  0  0  0
  125.2019  130.2877   65.1133 H   0  0  0  0  0  0  0  0  0  0  0  0
  123.9314  130.4928   63.6644 H   0  0  0  0  0  0  0  0  0  0  0  0
  122.5935  131.4756   61.8105 H   0  0  0  0  0  0  0  0  0  0  0  0
  123.5718  131.6470   59.5274 H   0  0  0  0  0  0  0  0  0  0  0  0
  125.8866  130.8381   59.0904 H   0  0  0  0  0  0  0  0  0  0  0  0
  127.2251  129.8513   60.9376 H   0  0  0  0  0  0  0  0  0  0  0  0
  127.9603  128.6201   62.2391 H   0  0  0  0  0  0  0  0  0  0  0  0
  129.2845  127.6225   64.0862 H   0  0  0  0  0  0  0  0  0  0  0  0
  129.5714  123.8932   67.0928 H   0  0  0  0  0  0  0  0  0  0  0  0
  130.1830  122.2373   65.3482 H   0  0  0  0  0  0  0  0  0  0  0  0
  133.0348  123.2801   62.7270 H   0  0  0  0  0  0  0  0  0  0  0  0
  133.6417  121.6217   60.9758 H   0  0  0  0  0  0  0  0  0  0  0  0
  1  2  2  0
  2  3  1  0
  3  4  2  0
  4  5  1  0
  5  6  2  0
  6  7  1  0
  7  8  2  0
  8  9  1  0
  9 10  1  0
 10 11  2  0
 11 12  1  0
 12 13  2  0
 13 14  1  0
 14 15  1  0
 15 16  2  0
 16 17  1  0
 17 18  2  0
 18 19  1  0
 19 20  2  0
 11 21  1  0
 21 22  1  0
 22 23  1  0
 23 24  2  0
 24 25  1  0
 25 26  2  0
 26 27  1  0
 27 28  2  0
 28 29  1  0
 29 30  2  0
 30 31  1  0
 31 32  2  0
 26 33  1  0
 33 34  2  0
  8 35  1  0
 35 36  2  0
  4 37  1  0
 37 38  2  0
 38  1  1  0
 36  5  1  0
 22  9  2  0
 34 23  1  0
 20 12  1  0
 32 27  1  0
 20 15  1  0
  1 39  1  0
  2 40  1  0
  3 41  1  0
  6 42  1  0
  7 43  1  0
 13 44  1  0
 14 45  1  0
 16 46  1  0
 17 47  1  0
 18 48  1  0
 19 49  1  0
 21 50  1  0
 24 51  1  0
 25 52  1  0
 28 53  1  0
 29 54  1  0
 30 55  1  0
 31 56  1  0
 32 57  1  0
 33 58  1  0
 34 59  1  0
 35 60  1  0
 36 61  1  0
 37 62  1  0
 38 63  1  0
M  END
>  <Binding energies>  (1) 
[-9.7]

>  <Ligand effiencies>  (1) 
[-0.2425]

>  <Interactions>  (1) 
["V-B:GLU:543:CD:9880, V-B:GLU:543:CG:9879, V-A:GLU:543:CD:4908, V-A:LEU:475:CD2:4259, V-A:HIS:456:CE1:4070, V-B:ALA:541:CB:9864, V-B:ASP:366:CG:8184, V-B:TYR:539:CE2:9848, V-B:TYR:539:CD2:9846, V-A:TYR:484:CE2:4346, V-A:GLU:543:C:4902, V-B:GLU:543:CA:9876, V-A:TYR:484:CZ:4347, V-B:GLU:543:CB:9878, V-A:GLY:544:C:4912, V-A:GLU:543:CB:4906, V-B:HIS:456:CD2:9039, V-B:HIS:456:CE1:9041, V-B:GLY:544:C:9884, V-A:GLU:543:CG:4907, V-B:LYS:547:CE:9922, V-B:HIS:456:CG:9037, V-B:TYR:484:CZ:9318, V-B:ILE:369:CG2:8208, V-A:GLY:544:CA:4914, H-A:GLY:544:O:4913, H-B:HIS:456:NE2:9042"]

$$$$
RR4_Rahimova_2017
     RDKit          3D

 66 70  0  0  0  0  0  0  0  0999 V2000
  128.6050  128.1120   73.8690 C   0  0  0  0  0  0  0  0  0  0  0  0
  128.7580  126.9330   73.0870 O   0  0  0  0  0  0  0  0  0  0  0  0
  128.6670  127.0210   71.7110 C   0  0  0  0  0  0  0  0  0  0  0  0
  129.8230  127.3940   71.0300 C   0  0  0  0  0  0  0  0  0  0  0  0
  129.8250  127.5070   69.6430 C   0  0  0  0  0  0  0  0  0  0  0  0
  128.6660  127.2530   68.8940 C   0  0  0  0  0  0  0  0  0  0  0  0
  128.6710  127.3770   67.3980 C   0  0  0  0  0  0  0  0  0  0  0  0
  127.9500  128.3630   66.7170 C   0  0  0  0  0  0  0  0  0  0  0  0
  127.9910  128.4400   65.3180 C   0  0  0  0  0  0  0  0  0  0  0  0
  127.2180  129.5380   64.6620 C   0  0  0  0  0  0  0  0  0  0  0  0
  127.8820  130.6650   64.1680 C   0  0  0  0  0  0  0  0  0  0  0  0
  127.1710  131.6870   63.5450 C   0  0  0  0  0  0  0  0  0  0  0  0
  125.7870  131.6000   63.3980 C   0  0  0  0  0  0  0  0  0  0  0  0
  125.1670  132.6610   62.7660 O   0  0  0  0  0  0  0  0  0  0  0  0
  125.9200  133.4740   61.8720 C   0  0  0  0  0  0  0  0  0  0  0  0
  125.1180  130.4690   63.8870 C   0  0  0  0  0  0  0  0  0  0  0  0
  125.8310  129.4470   64.5100 C   0  0  0  0  0  0  0  0  0  0  0  0
  128.7540  127.4790   64.6110 C   0  0  0  0  0  0  0  0  0  0  0  0
  128.8310  127.5140   63.1480 C   0  0  0  0  0  0  0  0  0  0  0  0
  128.8920  127.5410   61.9930 N   0  0  0  0  0  0  0  0  0  0  0  0
  129.4340  126.4920   65.3620 C   0  0  0  0  0  0  0  0  0  0  0  0
  130.4270  125.2020   64.6420 S   0  0  0  0  0  0  0  0  0  0  0  0
  129.5060  123.6350   64.8040 C   0  0  0  0  0  0  0  0  0  0  0  0
  128.9440  123.0870   63.4860 C   0  0  0  0  0  0  0  0  0  0  0  0
  129.0840  121.8970   63.1920 O   0  0  0  0  0  0  0  0  0  0  0  0
  128.3210  124.0050   62.7100 N   0  0  0  0  0  0  0  0  0  0  0  0
  127.7100  123.8210   61.4680 C   0  0  0  0  0  0  0  0  0  0  0  0
  126.1420  124.4760   61.0760 S   0  0  0  0  0  0  0  0  0  0  0  0
  126.1950  123.7960   59.4790 C   0  0  0  0  0  0  0  0  0  0  0  0
  127.3850  123.0840   59.2600 C   0  0  0  0  0  0  0  0  0  0  0  0
  128.2480  123.1130   60.3820 C   0  0  0  0  0  0  0  0  0  0  0  0
  129.5560  122.4660   60.4070 C   0  0  0  0  0  0  0  0  0  0  0  0
  130.5930  121.9520   60.4260 N   0  0  0  0  0  0  0  0  0  0  0  0
  127.6870  122.4220   57.9110 C   0  0  0  0  0  0  0  0  0  0  0  0
  126.7570  122.9780   56.8100 C   0  0  0  0  0  0  0  0  0  0  0  0
  125.2900  123.0480   57.2690 C   0  0  0  0  0  0  0  0  0  0  0  0
  125.0980  124.0260   58.4470 C   0  0  0  0  0  0  0  0  0  0  0  0
  129.4030  126.4600   66.7140 N   0  0  0  0  0  0  0  0  0  0  0  0
  127.5070  126.8730   69.5900 C   0  0  0  0  0  0  0  0  0  0  0  0
  127.5020  126.7600   70.9770 C   0  0  0  0  0  0  0  0  0  0  0  0
  128.6389  127.8506   74.9370 H   0  0  0  0  0  0  0  0  0  0  0  0
  129.4196  128.8140   73.6373 H   0  0  0  0  0  0  0  0  0  0  0  0
  127.6382  128.5828   73.6373 H   0  0  0  0  0  0  0  0  0  0  0  0
  130.7441  127.6015   71.5943 H   0  0  0  0  0  0  0  0  0  0  0  0
  130.7503  127.8002   69.1254 H   0  0  0  0  0  0  0  0  0  0  0  0
  127.3448  129.0851   67.2847 H   0  0  0  0  0  0  0  0  0  0  0  0
  128.9741  130.7447   64.2724 H   0  0  0  0  0  0  0  0  0  0  0  0
  127.7054  132.5705   63.1656 H   0  0  0  0  0  0  0  0  0  0  0  0
  126.5564  134.1611   62.4489 H   0  0  0  0  0  0  0  0  0  0  0  0
  126.5516  132.8342   61.2382 H   0  0  0  0  0  0  0  0  0  0  0  0
  125.2337  134.0548   61.2382 H   0  0  0  0  0  0  0  0  0  0  0  0
  124.0264  130.3883   63.7784 H   0  0  0  0  0  0  0  0  0  0  0  0
  125.2983  128.5609   64.8855 H   0  0  0  0  0  0  0  0  0  0  0  0
  130.1845  122.8802   65.2282 H   0  0  0  0  0  0  0  0  0  0  0  0
  128.6402  123.8467   65.4487 H   0  0  0  0  0  0  0  0  0  0  0  0
  128.2770  124.9460   63.0720 H   0  0  0  0  0  0  0  0  0  0  0  0
  128.7329  122.6234   57.6360 H   0  0  0  0  0  0  0  0  0  0  0  0
  127.5185  121.3389   58.0028 H   0  0  0  0  0  0  0  0  0  0  0  0
  127.0926  123.9903   56.5407 H   0  0  0  0  0  0  0  0  0  0  0  0
  126.8090  122.2965   55.9481 H   0  0  0  0  0  0  0  0  0  0  0  0
  124.6695  123.3830   56.4248 H   0  0  0  0  0  0  0  0  0  0  0  0
  124.9924  122.0450   57.6087 H   0  0  0  0  0  0  0  0  0  0  0  0
  125.1525  125.0607   58.0777 H   0  0  0  0  0  0  0  0  0  0  0  0
  124.1153  123.8547   58.9106 H   0  0  0  0  0  0  0  0  0  0  0  0
  126.5855  126.6606   69.0281 H   0  0  0  0  0  0  0  0  0  0  0  0
  126.5800  126.4647   71.4993 H   0  0  0  0  0  0  0  0  0  0  0  0
  1  2  1  0
  2  3  1  0
  3  4  2  0
  4  5  1  0
  5  6  2  0
  6  7  1  0
  7  8  2  0
  8  9  1  0
  9 10  1  0
 10 11  2  0
 11 12  1  0
 12 13  2  0
 13 14  1  0
 14 15  1  0
 13 16  1  0
 16 17  2  0
  9 18  2  0
 18 19  1  0
 19 20  3  0
 18 21  1  0
 21 22  1  0
 22 23  1  0
 23 24  1  0
 24 25  2  0
 24 26  1  0
 26 27  1  0
 27 28  1  0
 28 29  1  0
 29 30  2  0
 30 31  1  0
 31 32  1  0
 32 33  3  0
 30 34  1  0
 34 35  1  0
 35 36  1  0
 36 37  1  0
 21 38  2  0
  6 39  1  0
 39 40  2  0
 40  3  1  0
 38  7  1  0
 17 10  1  0
 31 27  2  0
 37 29  1  0
  1 41  1  0
  1 42  1  0
  1 43  1  0
  4 44  1  0
  5 45  1  0
  8 46  1  0
 11 47  1  0
 12 48  1  0
 15 49  1  0
 15 50  1  0
 15 51  1  0
 16 52  1  0
 17 53  1  0
 23 54  1  0
 23 55  1  0
 26 56  1  0
 34 57  1  0
 34 58  1  0
 35 59  1  0
 35 60  1  0
 36 61  1  0
 36 62  1  0
 37 63  1  0
 37 64  1  0
 39 65  1  0
 40 66  1  0
M  END
>  <Binding energies>  (1) 
[-10.04]

>  <Ligand effiencies>  (1) 
[-0.24487804878048777]

>  <Interactions>  (1) 
["V-B:GLU:543:CD:9880, V-B:GLU:543:CG:9879, V-A:GLU:543:CD:4908, V-A:HIS:456:CE1:4070, V-B:ALA:541:CB:9864, V-B:TYR:539:C:9839, H-B:ALA:541:N:9863, H-B:GLU:543:OE1:9881, V-B:PRO:540:CD:9859, V-B:PRO:540:CA:9855, V-B:PRO:540:CB:9857, V-B:PRO:540:N:9856, V-B:LEU:363:CD1:8160, V-B:TYR:539:CZ:9849, V-B:TYR:539:CE2:9848, V-B:TYR:539:CD1:9845, V-B:TYR:539:CA:9841, V-B:TYR:539:CD2:9846, V-B:TYR:539:CG:9844, V-A:TYR:484:CE2:4346, V-B:GLU:543:C:9874, V-B:GLU:543:CB:9878, V-A:GLU:543:CB:4906, V-B:HIS:456:CD2:9039, V-B:HIS:456:CE1:9041, V-B:GLY:544:C:9884, V-B:GLY:544:CA:9886, V-B:ARG:545:CZ:9898, V-A:GLU:543:CG:4907, V-B:LEU:475:CD2:9230, H-B:LYS:547:NZ:9923"]

$$$$
RR5_Rahimova_2017
     RDKit          3D

 77 82  0  0  0  0  0  0  0  0999 V2000
  128.1090  122.2840   58.6640 O   0  0  0  0  0  0  0  0  0  0  0  0
  127.6460  123.1480   59.4070 C   0  0  0  0  0  0  0  0  0  0  0  0
  126.1610  123.5410   59.2900 C   0  0  0  0  0  0  0  0  0  0  0  0
  125.5660  124.1870   60.5920 C   0  0  2  0  0  0  0  0  0  0  0  0
  126.2180  125.4420   61.0180 N   0  0  0  0  0  0  0  0  0  0  0  0
  126.5270  126.4460   60.1100 C   0  0  0  0  0  0  0  0  0  0  0  0
  126.2720  126.4510   58.9030 O   0  0  0  0  0  0  0  0  0  0  0  0
  127.1730  127.4260   60.7660 O   0  0  0  0  0  0  0  0  0  0  0  0
  126.4840  128.5730   61.2550 C   0  0  0  0  0  0  0  0  0  0  0  0
  126.8380  129.8230   60.4200 C   0  0  0  0  0  0  0  0  0  0  0  0
  127.9990  129.6090   59.4650 C   0  0  0  0  0  0  0  0  0  0  0  0
  129.3120  129.2130   59.7360 C   0  0  0  0  0  0  0  0  0  0  0  0
  130.2210  129.0550   58.6880 C   0  0  0  0  0  0  0  0  0  0  0  0
  129.8220  129.2940   57.3720 C   0  0  0  0  0  0  0  0  0  0  0  0
  128.5120  129.6930   57.0990 C   0  0  0  0  0  0  0  0  0  0  0  0
  127.6050  129.8510   58.1490 C   0  0  0  0  0  0  0  0  0  0  0  0
  126.1920  130.2610   58.1540 C   0  0  0  0  0  0  0  0  0  0  0  0
  125.3360  130.6240   57.1110 C   0  0  0  0  0  0  0  0  0  0  0  0
  124.0220  130.9990   57.3950 C   0  0  0  0  0  0  0  0  0  0  0  0
  123.5660  131.0090   58.7150 C   0  0  0  0  0  0  0  0  0  0  0  0
  124.4230  130.6420   59.7530 C   0  0  0  0  0  0  0  0  0  0  0  0
  125.7380  130.2630   59.4730 C   0  0  0  0  0  0  0  0  0  0  0  0
  125.5730  123.1730   61.7620 C   0  0  0  0  0  0  0  0  0  0  0  0
  124.6270  122.4830   62.0850 O   0  0  0  0  0  0  0  0  0  0  0  0
  126.8040  123.1630   62.3540 O   0  0  0  0  0  0  0  0  0  0  0  0
  128.3420  123.7860   60.3750 N   0  0  0  0  0  0  0  0  0  0  0  0
  129.7620  123.7200   60.8330 C   0  0  0  0  0  0  0  0  0  0  0  0
  129.6890  124.4280   62.2280 C   0  0  0  0  0  0  0  0  0  0  0  0
  129.9430  123.7280   63.4200 C   0  0  0  0  0  0  0  0  0  0  0  0
  129.8770  124.3690   64.6540 C   0  0  0  0  0  0  0  0  0  0  0  0
  129.5450  125.7170   64.7190 C   0  0  0  0  0  0  0  0  0  0  0  0
  129.2900  126.4350   63.5560 C   0  0  0  0  0  0  0  0  0  0  0  0
  129.3670  125.7970   62.3220 C   0  0  0  0  0  0  0  0  0  0  0  0
  130.1470  122.2070   60.9460 C   0  0  0  0  0  0  0  0  0  0  0  0
  131.4160  121.7380   60.5730 C   0  0  0  0  0  0  0  0  0  0  0  0
  131.7300  120.3840   60.6630 C   0  0  0  0  0  0  0  0  0  0  0  0
  130.7780  119.4810   61.1250 C   0  0  0  0  0  0  0  0  0  0  0  0
  129.5140  119.9220   61.5040 C   0  0  0  0  0  0  0  0  0  0  0  0
  129.2060  121.2760   61.4220 C   0  0  0  0  0  0  0  0  0  0  0  0
  130.5960  124.5290   59.7830 C   0  0  0  0  0  0  0  0  0  0  0  0
  129.9690  125.1680   58.6980 C   0  0  0  0  0  0  0  0  0  0  0  0
  130.7060  125.8820   57.7570 C   0  0  0  0  0  0  0  0  0  0  0  0
  132.0860  125.9750   57.8880 C   0  0  0  0  0  0  0  0  0  0  0  0
  132.7330  125.3660   58.9570 C   0  0  0  0  0  0  0  0  0  0  0  0
  131.9930  124.6530   59.8960 C   0  0  0  0  0  0  0  0  0  0  0  0
  126.0584  124.2640   58.4673 H   0  0  0  0  0  0  0  0  0  0  0  0
  125.5995  122.6123   59.1107 H   0  0  0  0  0  0  0  0  0  0  0  0
  124.5344  124.4579   60.3230 H   0  0  0  0  0  0  0  0  0  0  0  0
  126.5950  125.4910   61.9530 H   0  0  0  0  0  0  0  0  0  0  0  0
  125.4001  128.3950   61.1959 H   0  0  0  0  0  0  0  0  0  0  0  0
  126.7870  128.7483   62.2978 H   0  0  0  0  0  0  0  0  0  0  0  0
  127.0490  130.5567   61.2119 H   0  0  0  0  0  0  0  0  0  0  0  0
  129.6284  129.0262   60.7728 H   0  0  0  0  0  0  0  0  0  0  0  0
  131.2538  128.7415   58.9000 H   0  0  0  0  0  0  0  0  0  0  0  0
  130.5406  129.1679   56.5487 H   0  0  0  0  0  0  0  0  0  0  0  0
  128.1962  129.8819   56.0624 H   0  0  0  0  0  0  0  0  0  0  0  0
  125.6958  130.6143   56.0716 H   0  0  0  0  0  0  0  0  0  0  0  0
  123.3444  131.2872   56.5778 H   0  0  0  0  0  0  0  0  0  0  0  0
  122.5304  131.3064   58.9365 H   0  0  0  0  0  0  0  0  0  0  0  0
  124.0630  130.6511   60.7924 H   0  0  0  0  0  0  0  0  0  0  0  0
  126.9080  123.8740   62.9880 H   0  0  0  0  0  0  0  0  0  0  0  0
  127.8330  124.5340   60.8240 H   0  0  0  0  0  0  0  0  0  0  0  0
  130.1975  122.6587   63.3773 H   0  0  0  0  0  0  0  0  0  0  0  0
  130.0875  123.8089   65.5770 H   0  0  0  0  0  0  0  0  0  0  0  0
  129.4836  126.2187   65.6960 H   0  0  0  0  0  0  0  0  0  0  0  0
  129.0287  127.5021   63.6112 H   0  0  0  0  0  0  0  0  0  0  0  0
  129.1732  126.3709   61.4038 H   0  0  0  0  0  0  0  0  0  0  0  0
  132.1715  122.4480   60.2053 H   0  0  0  0  0  0  0  0  0  0  0  0
  132.7290  120.0294   60.3693 H   0  0  0  0  0  0  0  0  0  0  0  0
  131.0261  118.4114   61.1911 H   0  0  0  0  0  0  0  0  0  0  0  0
  128.7630  119.2045   61.8662 H   0  0  0  0  0  0  0  0  0  0  0  0
  128.2105  121.6244   61.7344 H   0  0  0  0  0  0  0  0  0  0  0  0
  128.8762  125.1024   58.5910 H   0  0  0  0  0  0  0  0  0  0  0  0
  130.1975  126.3707   56.9129 H   0  0  0  0  0  0  0  0  0  0  0  0
  132.6699  126.5336   57.1417 H   0  0  0  0  0  0  0  0  0  0  0  0
  133.8251  125.4472   59.0605 H   0  0  0  0  0  0  0  0  0  0  0  0
  132.5102  124.1775   60.7424 H   0  0  0  0  0  0  0  0  0  0  0  0
  1  2  2  0
  2  3  1  0
  3  4  1  0
  4  5  1  0
  5  6  1  0
  6  7  2  0
  6  8  1  0
  8  9  1  0
  9 10  1  0
 10 11  1  0
 11 12  2  0
 12 13  1  0
 13 14  2  0
 14 15  1  0
 15 16  2  0
 16 17  1  0
 17 18  2  0
 18 19  1  0
 19 20  2  0
 20 21  1  0
 21 22  2  0
  4 23  1  0
 23 24  2  0
 23 25  1  0
  2 26  1  0
 26 27  1  0
 27 28  1  0
 28 29  2  0
 29 30  1  0
 30 31  2  0
 31 32  1  0
 32 33  2  0
 27 34  1  0
 34 35  2  0
 35 36  1  0
 36 37  2  0
 37 38  1  0
 38 39  2  0
 27 40  1  0
 40 41  2  0
 41 42  1  0
 42 43  2  0
 43 44  1  0
 44 45  2  0
 22 10  1  0
 33 28  1  0
 39 34  1  0
 45 40  1  0
 16 11  1  0
 22 17  1  0
  3 46  1  0
  3 47  1  0
  4 48  1  6
  5 49  1  0
  9 50  1  0
  9 51  1  0
 10 52  1  0
 12 53  1  0
 13 54  1  0
 14 55  1  0
 15 56  1  0
 18 57  1  0
 19 58  1  0
 20 59  1  0
 21 60  1  0
 25 61  1  0
 26 62  1  0
 29 63  1  0
 30 64  1  0
 31 65  1  0
 32 66  1  0
 33 67  1  0
 35 68  1  0
 36 69  1  0
 37 70  1  0
 38 71  1  0
 39 72  1  0
 41 73  1  0
 42 74  1  0
 43 75  1  0
 44 76  1  0
 45 77  1  0
M  END
>  <Binding energies>  (1) 
[-9.41]

>  <Ligand effiencies>  (1) 
[-0.19604166666666667]

>  <Interactions>  (1) 
["V-A:ASP:366:CB:3212, V-B:GLU:543:CD:9880, V-A:ASP:366:CA:3210, V-A:ASP:366:CG:3213, V-B:GLU:543:CG:9879, V-A:GLU:543:CD:4908, V-A:LEU:475:CD2:4259, V-B:ALA:541:CB:9864, V-B:ASP:366:CB:8183, V-B:TYR:539:C:9839, H-B:ALA:541:N:9863, H-B:GLU:543:OE1:9881, V-B:ASP:366:CG:8184, H-B:ASP:366:OD1:8185, V-B:PRO:540:CA:9855, V-B:PRO:540:CB:9857, V-B:PRO:540:N:9856, V-B:TYR:531:CZ:9766, V-B:TYR:539:CZ:9849, V-B:TYR:539:CE2:9848, V-B:PRO:540:C:9853, V-A:MET:535:CE:4835, V-B:TYR:539:CD2:9846, V-B:ALA:541:CA:9862, H-B:TYR:531:OH:9767, V-A:TYR:539:CE1:4875, V-A:TYR:539:CZ:4877, V-B:ASP:366:C:8179, V-B:ASP:366:CA:8181, V-B:ILE:369:CG2:8208, V-B:ILE:369:CB:8207"]

$$$$
RR5_Rahimova_2017-again1
     RDKit          3D

 76 81  0  0  0  0  0  0  0  0999 V2000
  127.3460  128.4920   60.4680 O   0  0  0  0  0  0  0  0  0  0  0  0
  127.3920  128.0340   61.6100 C   0  0  0  0  0  0  0  0  0  0  0  0
  126.9050  128.9110   62.7830 C   0  0  0  0  0  0  0  0  0  0  0  0
  125.6330  129.7830   62.5260 C   0  0  2  0  0  0  0  0  0  0  0  0
  126.0500  131.1130   62.0330 N   0  0  0  0  0  0  0  0  0  0  0  0
  126.8650  131.9490   62.7880 C   0  0  0  0  0  0  0  0  0  0  0  0
  127.3070  131.7200   63.9170 O   0  0  0  0  0  0  0  0  0  0  0  0
  127.1030  133.0720   62.0820 O   0  0  0  0  0  0  0  0  0  0  0  0
  128.3950  133.3420   61.5520 C   0  0  0  0  0  0  0  0  0  0  0  0
  128.9870  132.0660   60.9230 C   0  0  0  0  0  0  0  0  0  0  0  0
  129.0140  132.0940   59.4050 C   0  0  0  0  0  0  0  0  0  0  0  0
  127.9600  132.2240   58.4970 C   0  0  0  0  0  0  0  0  0  0  0  0
  128.2200  132.2400   57.1250 C   0  0  0  0  0  0  0  0  0  0  0  0
  129.5300  132.1220   56.6590 C   0  0  0  0  0  0  0  0  0  0  0  0
  130.5850  131.9870   57.5630 C   0  0  0  0  0  0  0  0  0  0  0  0
  130.3220  131.9720   58.9340 C   0  0  0  0  0  0  0  0  0  0  0  0
  131.2220  131.8330   60.0900 C   0  0  0  0  0  0  0  0  0  0  0  0
  132.6070  131.6730   60.1610 C   0  0  0  0  0  0  0  0  0  0  0  0
  133.2250  131.5490   61.4070 C   0  0  0  0  0  0  0  0  0  0  0  0
  132.4600  131.5850   62.5750 C   0  0  0  0  0  0  0  0  0  0  0  0
  131.0750  131.7480   62.5000 C   0  0  0  0  0  0  0  0  0  0  0  0
  130.4540  131.8750   61.2540 C   0  0  0  0  0  0  0  0  0  0  0  0
  124.7190  129.8920   63.8120 C   0  0  0  0  0  0  0  0  0  0  0  0
  125.2930  129.5820   64.8820 O   0  0  0  0  0  0  0  0  0  0  0  0
  123.5480  130.3080   63.6410 O   0  0  0  0  0  0  0  0  0  0  0  0
  127.7330  126.7550   61.8730 N   0  0  0  0  0  0  0  0  0  0  0  0
  128.2140  125.6950   60.9500 C   0  0  0  0  0  0  0  0  0  0  0  0
  129.3970  126.2330   60.0850 C   0  0  0  0  0  0  0  0  0  0  0  0
  129.7710  125.5890   58.8920 C   0  0  0  0  0  0  0  0  0  0  0  0
  130.8170  126.0740   58.1130 C   0  0  0  0  0  0  0  0  0  0  0  0
  131.5030  127.2160   58.5130 C   0  0  0  0  0  0  0  0  0  0  0  0
  131.1500  127.8750   59.6860 C   0  0  0  0  0  0  0  0  0  0  0  0
  130.1040  127.3880   60.4650 C   0  0  0  0  0  0  0  0  0  0  0  0
  128.8120  124.4290   61.6440 C   0  0  0  0  0  0  0  0  0  0  0  0
  129.2620  124.4800   62.9750 C   0  0  0  0  0  0  0  0  0  0  0  0
  129.7970  123.3550   63.5950 C   0  0  0  0  0  0  0  0  0  0  0  0
  129.8840  122.1570   62.8930 C   0  0  0  0  0  0  0  0  0  0  0  0
  129.4360  122.0770   61.5780 C   0  0  0  0  0  0  0  0  0  0  0  0
  128.9020  123.2040   60.9610 C   0  0  0  0  0  0  0  0  0  0  0  0
  126.9710  125.3770   60.0490 C   0  0  0  0  0  0  0  0  0  0  0  0
  126.0150  124.4150   60.4200 C   0  0  0  0  0  0  0  0  0  0  0  0
  124.9070  124.1580   59.6180 C   0  0  0  0  0  0  0  0  0  0  0  0
  124.7300  124.8710   58.4370 C   0  0  0  0  0  0  0  0  0  0  0  0
  125.6470  125.8440   58.0580 C   0  0  0  0  0  0  0  0  0  0  0  0
  126.7550  126.0990   58.8610 C   0  0  0  0  0  0  0  0  0  0  0  0
  126.6864  128.2438   63.6298 H   0  0  0  0  0  0  0  0  0  0  0  0
  127.7174  129.6304   62.9632 H   0  0  0  0  0  0  0  0  0  0  0  0
  125.0159  129.2934   61.7582 H   0  0  0  0  0  0  0  0  0  0  0  0
  125.7860  131.3860   61.0960 H   0  0  0  0  0  0  0  0  0  0  0  0
  128.3163  134.1241   60.7825 H   0  0  0  0  0  0  0  0  0  0  0  0
  129.0537  133.6814   62.3649 H   0  0  0  0  0  0  0  0  0  0  0  0
  128.3321  131.2812   61.3294 H   0  0  0  0  0  0  0  0  0  0  0  0
  126.9264  132.3137   58.8625 H   0  0  0  0  0  0  0  0  0  0  0  0
  127.3905  132.3458   56.4103 H   0  0  0  0  0  0  0  0  0  0  0  0
  129.7316  132.1354   55.5777 H   0  0  0  0  0  0  0  0  0  0  0  0
  131.6181  131.8929   57.1971 H   0  0  0  0  0  0  0  0  0  0  0  0
  133.2083  131.6448   59.2403 H   0  0  0  0  0  0  0  0  0  0  0  0
  134.3160  131.4228   61.4688 H   0  0  0  0  0  0  0  0  0  0  0  0
  132.9490  131.4848   63.5552 H   0  0  0  0  0  0  0  0  0  0  0  0
  130.4734  131.7764   63.4204 H   0  0  0  0  0  0  0  0  0  0  0  0
  127.7980  126.5070   62.8500 H   0  0  0  0  0  0  0  0  0  0  0  0
  129.2283  124.6881   58.5698 H   0  0  0  0  0  0  0  0  0  0  0  0
  131.1002  125.5564   57.1846 H   0  0  0  0  0  0  0  0  0  0  0  0
  132.3299  127.6004   57.8978 H   0  0  0  0  0  0  0  0  0  0  0  0
  131.6956  128.7781   59.9971 H   0  0  0  0  0  0  0  0  0  0  0  0
  129.8266  127.9138   61.3905 H   0  0  0  0  0  0  0  0  0  0  0  0
  129.1900  125.4240   63.5350 H   0  0  0  0  0  0  0  0  0  0  0  0
  130.1495  123.4126   64.6354 H   0  0  0  0  0  0  0  0  0  0  0  0
  130.3096  121.2675   63.3805 H   0  0  0  0  0  0  0  0  0  0  0  0
  129.5038  121.1265   61.0284 H   0  0  0  0  0  0  0  0  0  0  0  0
  128.5448  123.1351   59.9229 H   0  0  0  0  0  0  0  0  0  0  0  0
  126.1449  123.8568   61.3589 H   0  0  0  0  0  0  0  0  0  0  0  0
  124.1742  123.3940   59.9169 H   0  0  0  0  0  0  0  0  0  0  0  0
  123.8585  124.6634   57.7988 H   0  0  0  0  0  0  0  0  0  0  0  0
  125.4978  126.4105   57.1270 H   0  0  0  0  0  0  0  0  0  0  0  0
  127.4728  126.8771   58.5621 H   0  0  0  0  0  0  0  0  0  0  0  0
  1  2  2  0
  2  3  1  0
  3  4  1  0
  4  5  1  0
  5  6  1  0
  6  7  2  0
  6  8  1  0
  8  9  1  0
  9 10  1  0
 10 11  1  0
 11 12  2  0
 12 13  1  0
 13 14  2  0
 14 15  1  0
 15 16  2  0
 16 17  1  0
 17 18  2  0
 18 19  1  0
 19 20  2  0
 20 21  1  0
 21 22  2  0
  4 23  1  0
 23 24  2  0
 23 25  1  0
  2 26  1  0
 26 27  1  0
 27 28  1  0
 28 29  2  0
 29 30  1  0
 30 31  2  0
 31 32  1  0
 32 33  2  0
 27 34  1  0
 34 35  2  0
 35 36  1  0
 36 37  2  0
 37 38  1  0
 38 39  2  0
 27 40  1  0
 40 41  2  0
 41 42  1  0
 42 43  2  0
 43 44  1  0
 44 45  2  0
 22 10  1  0
 33 28  1  0
 39 34  1  0
 45 40  1  0
 16 11  1  0
 22 17  1  0
  3 46  1  0
  3 47  1  0
  4 48  1  6
  5 49  1  0
  9 50  1  0
  9 51  1  0
 10 52  1  0
 12 53  1  0
 13 54  1  0
 14 55  1  0
 15 56  1  0
 18 57  1  0
 19 58  1  0
 20 59  1  0
 21 60  1  0
 26 61  1  0
 29 62  1  0
 30 63  1  0
 31 64  1  0
 32 65  1  0
 33 66  1  0
 35 67  1  0
 36 68  1  0
 37 69  1  0
 38 70  1  0
 39 71  1  0
 41 72  1  0
 42 73  1  0
 43 74  1  0
 44 75  1  0
 45 76  1  0
M  CHG  1  25  -1
M  END
>  <Binding energies>  (1) 
[-8.31]

>  <Ligand effiencies>  (1) 
[-0.1768085106382979]

>  <Interactions>  (1) 
["V-A:ASP:366:CB:3212, V-B:GLU:543:CD:9880, V-A:ASP:366:CG:3213, V-B:GLU:543:CG:9879, V-A:GLU:543:CD:4908, V-A:LEU:475:CD2:4259, V-B:ALA:541:CB:9864, V-B:ASP:366:CB:8183, H-B:GLU:543:OE2:9882, H-B:GLU:543:OE1:9881, V-B:TYR:531:CE2:9765, V-B:ASP:366:CG:8184, V-B:PRO:540:CA:9855, V-B:PRO:540:CB:9857, H-B:ARG:545:NH2:9900, V-B:TYR:531:CZ:9766, V-A:MET:535:CE:4835, V-B:ARG:545:CZ:9898, V-A:GLU:543:CG:4907, H-B:TYR:484:OH:9319, V-A:PRO:540:CA:4883, V-A:PRO:540:CB:4885, V-A:TYR:539:CE1:4875, V-A:TYR:539:CZ:4877, V-A:TYR:539:CD1:4873, H-B:GLY:454:N:9021, H-B:ARG:545:NE:9896, V-A:ASN:362:CB:3176, H-B:ARG:545:NH1:9899"]

$$$$
RR6_Rahimova_2017
     RDKit          3D

 63 66  0  0  0  0  0  0  0  0999 V2000
  130.2820  132.4380   56.9080 C   0  0  0  0  0  0  0  0  0  0  0  0
  130.4590  131.0470   56.6770 O   0  0  0  0  0  0  0  0  0  0  0  0
  129.5060  130.1510   57.0410 C   0  0  0  0  0  0  0  0  0  0  0  0
  128.2940  130.3820   56.9720 O   0  0  0  0  0  0  0  0  0  0  0  0
  130.0710  128.8500   57.5330 C   0  0  0  0  0  0  0  0  0  0  0  0
  129.5270  127.6130   57.1560 C   0  0  0  0  0  0  0  0  0  0  0  0
  130.0690  126.4230   57.6360 C   0  0  0  0  0  0  0  0  0  0  0  0
  131.1670  126.4520   58.5100 C   0  0  0  0  0  0  0  0  0  0  0  0
  131.7720  125.3150   59.0750 N   0  0  0  0  0  0  0  0  0  0  0  0
  132.8940  124.6640   58.6960 C   0  0  0  0  0  0  0  0  0  0  0  0
  133.6170  124.9800   57.7510 O   0  0  0  0  0  0  0  0  0  0  0  0
  133.2280  123.4000   59.4940 C   0  0  0  0  0  0  0  0  0  0  0  0
  133.4700  123.7010   61.2770 S   0  0  0  0  0  0  0  0  0  0  0  0
  131.8690  124.0910   61.9530 C   0  0  0  0  0  0  0  0  0  0  0  0
  130.8430  123.9330   61.0840 N   0  0  0  0  0  0  0  0  0  0  0  0
  129.5710  124.1720   61.4930 C   0  0  0  0  0  0  0  0  0  0  0  0
  128.4880  123.9140   60.4870 C   0  0  0  0  0  0  0  0  0  0  0  0
  127.1420  124.1740   60.7930 C   0  0  0  0  0  0  0  0  0  0  0  0
  126.1360  123.9220   59.8640 C   0  0  0  0  0  0  0  0  0  0  0  0
  126.4570  123.4100   58.6080 C   0  0  0  0  0  0  0  0  0  0  0  0
  125.3550  123.1290   57.6030 C   0  0  0  0  0  0  0  0  0  0  0  0
  127.7860  123.1470   58.2850 C   0  0  0  0  0  0  0  0  0  0  0  0
  128.7880  123.4010   59.2160 C   0  0  0  0  0  0  0  0  0  0  0  0
  129.3080  124.5920   62.8000 C   0  0  0  0  0  0  0  0  0  0  0  0
  130.3540  124.7670   63.7180 C   0  0  0  0  0  0  0  0  0  0  0  0
  130.0000  125.2000   65.1020 C   0  0  0  0  0  0  0  0  0  0  0  0
  130.2410  124.3510   66.1870 C   0  0  0  0  0  0  0  0  0  0  0  0
  129.9280  124.7530   67.4830 C   0  0  0  0  0  0  0  0  0  0  0  0
  129.3760  126.0110   67.7210 C   0  0  0  0  0  0  0  0  0  0  0  0
  129.1010  126.3250   69.0380 O   0  0  0  0  0  0  0  0  0  0  0  0
  129.1790  127.6830   69.4580 C   0  0  0  0  0  0  0  0  0  0  0  0
  129.1370  126.8690   66.6360 C   0  0  0  0  0  0  0  0  0  0  0  0
  129.4510  126.4640   65.3420 C   0  0  0  0  0  0  0  0  0  0  0  0
  131.6790  124.5150   63.2840 C   0  0  0  0  0  0  0  0  0  0  0  0
  132.8210  124.7060   64.1830 C   0  0  0  0  0  0  0  0  0  0  0  0
  133.7220  124.8560   64.8940 N   0  0  0  0  0  0  0  0  0  0  0  0
  131.7200  127.6800   58.8740 C   0  0  0  0  0  0  0  0  0  0  0  0
  131.1750  128.8680   58.3950 C   0  0  0  0  0  0  0  0  0  0  0  0
  130.2576  132.6297   57.9909 H   0  0  0  0  0  0  0  0  0  0  0  0
  131.1167  132.9939   56.4560 H   0  0  0  0  0  0  0  0  0  0  0  0
  129.3347  132.7671   56.4560 H   0  0  0  0  0  0  0  0  0  0  0  0
  128.6640  127.5826   56.4746 H   0  0  0  0  0  0  0  0  0  0  0  0
  129.6360  125.4593   57.3297 H   0  0  0  0  0  0  0  0  0  0  0  0
  131.2390  124.8850   59.8170 H   0  0  0  0  0  0  0  0  0  0  0  0
  132.4022  122.6837   59.3717 H   0  0  0  0  0  0  0  0  0  0  0  0
  134.1801  123.0139   59.1010 H   0  0  0  0  0  0  0  0  0  0  0  0
  126.8791  124.5823   61.7800 H   0  0  0  0  0  0  0  0  0  0  0  0
  125.0865  124.1273   60.1216 H   0  0  0  0  0  0  0  0  0  0  0  0
  124.4233  122.8914   58.1373 H   0  0  0  0  0  0  0  0  0  0  0  0
  125.1996  124.0163   56.9716 H   0  0  0  0  0  0  0  0  0  0  0  0
  125.6434  122.2757   56.9716 H   0  0  0  0  0  0  0  0  0  0  0  0
  128.0427  122.7394   57.2961 H   0  0  0  0  0  0  0  0  0  0  0  0
  129.8356  123.1957   58.9506 H   0  0  0  0  0  0  0  0  0  0  0  0
  128.2712  124.7871   63.1115 H   0  0  0  0  0  0  0  0  0  0  0  0
  130.6813  123.3577   66.0152 H   0  0  0  0  0  0  0  0  0  0  0  0
  130.1178  124.0723   68.3260 H   0  0  0  0  0  0  0  0  0  0  0  0
  129.1815  127.7273   70.5571 H   0  0  0  0  0  0  0  0  0  0  0  0
  130.1045  128.1340   69.0707 H   0  0  0  0  0  0  0  0  0  0  0  0
  128.3112  128.2370   69.0707 H   0  0  0  0  0  0  0  0  0  0  0  0
  128.7005  127.8638   66.8089 H   0  0  0  0  0  0  0  0  0  0  0  0
  129.2654  127.1454   64.4987 H   0  0  0  0  0  0  0  0  0  0  0  0
  132.5921  127.7097   59.5437 H   0  0  0  0  0  0  0  0  0  0  0  0
  131.6154  129.8299   58.6962 H   0  0  0  0  0  0  0  0  0  0  0  0
  1  2  1  0
  2  3  1  0
  3  4  2  0
  3  5  1  0
  5  6  2  0
  6  7  1  0
  7  8  2  0
  8  9  1  0
  9 10  1  0
 10 11  2  0
 10 12  1  0
 12 13  1  0
 13 14  1  0
 14 15  2  0
 15 16  1  0
 16 17  1  0
 17 18  2  0
 18 19  1  0
 19 20  2  0
 20 21  1  0
 20 22  1  0
 22 23  2  0
 16 24  2  0
 24 25  1  0
 25 26  1  0
 26 27  2  0
 27 28  1  0
 28 29  2  0
 29 30  1  0
 30 31  1  0
 29 32  1  0
 32 33  2  0
 25 34  2  0
 34 35  1  0
 35 36  3  0
  8 37  1  0
 37 38  2  0
 38  5  1  0
 34 14  1  0
 23 17  1  0
 33 26  1  0
  1 39  1  0
  1 40  1  0
  1 41  1  0
  6 42  1  0
  7 43  1  0
  9 44  1  0
 12 45  1  0
 12 46  1  0
 18 47  1  0
 19 48  1  0
 21 49  1  0
 21 50  1  0
 21 51  1  0
 22 52  1  0
 23 53  1  0
 24 54  1  0
 27 55  1  0
 28 56  1  0
 31 57  1  0
 31 58  1  0
 31 59  1  0
 32 60  1  0
 33 61  1  0
 37 62  1  0
 38 63  1  0
M  END
>  <Binding energies>  (1) 
[-8.38]

>  <Ligand effiencies>  (1) 
[-0.2148717948717949]

>  <Interactions>  (1) 
["V-A:ILE:369:CG2:3237, V-A:ASP:366:CB:3212, V-B:GLU:543:CD:9880, H-A:ARG:545:NH2:4928, H-A:GLY:454:N:4050, V-A:ASP:366:CA:3210, V-A:ASP:366:CG:3213, H-A:TYR:484:OH:4348, V-B:GLU:543:CG:9879, H-A:ARG:545:NE:4924, V-A:ILE:369:CB:3236, V-A:GLU:543:CD:4908, V-A:ARG:545:CZ:4926, V-A:HIS:456:CE1:4070, V-B:PRO:540:CD:9859, V-B:PRO:540:CA:9855, V-B:PRO:540:CB:9857, V-B:PRO:540:N:9856, V-B:LEU:363:CD1:8160, V-B:TYR:539:CZ:9849, V-B:TYR:539:CE2:9848, V-A:MET:535:CE:4835, V-B:TYR:539:CD2:9846, V-B:PRO:540:CG:9858, V-A:TYR:484:CE2:4346, V-B:GLU:543:CA:9876, V-A:TYR:484:CZ:4347, V-B:GLU:543:CB:9878, V-B:HIS:456:CE1:9041, H-A:TYR:531:OH:4795, H-B:TYR:539:OH:9850"]

$$$$
RR7_Rahimova_2017
     RDKit          3D

 80 86  0  0  0  0  0  0  0  0999 V2000
  125.3770  122.2930   56.3570 C   0  0  0  0  0  0  0  0  0  0  0  0
  126.7350  121.9890   56.6610 O   0  0  0  0  0  0  0  0  0  0  0  0
  127.5240  122.9540   57.2560 C   0  0  0  0  0  0  0  0  0  0  0  0
  127.8770  122.7370   58.5870 C   0  0  0  0  0  0  0  0  0  0  0  0
  128.6730  123.6520   59.2680 C   0  0  0  0  0  0  0  0  0  0  0  0
  129.1270  124.8190   58.6340 C   0  0  0  0  0  0  0  0  0  0  0  0
  130.0490  125.8460   59.3630 C   0  0  0  0  0  0  0  0  0  0  0  0
  129.4630  126.0640   60.6670 O   0  0  0  0  0  0  0  0  0  0  0  0
  128.0420  126.0230   60.8300 C   0  0  0  0  0  0  0  0  0  0  0  0
  127.5060  127.4620   60.9100 C   0  0  1  0  0  0  0  0  0  0  0  0
  127.0670  127.6650   62.2510 O   0  0  0  0  0  0  0  0  0  0  0  0
  127.7360  128.7290   62.8650 C   0  0  1  0  0  0  0  0  0  0  0  0
  127.8970  128.4650   64.2820 N   0  0  0  0  0  0  0  0  0  0  0  0
  127.4170  129.2080   65.3470 C   0  0  0  0  0  0  0  0  0  0  0  0
  127.7500  128.7660   66.5340 N   0  0  0  0  0  0  0  0  0  0  0  0
  128.5430  127.6820   66.2690 C   0  0  0  0  0  0  0  0  0  0  0  0
  129.2250  126.7840   67.1120 C   0  0  0  0  0  0  0  0  0  0  0  0
  129.1160  126.9510   68.5060 N   0  0  0  0  0  0  0  0  0  0  0  0
  130.0570  127.3520   69.3930 C   0  0  0  0  0  0  0  0  0  0  0  0
  131.2210  127.6290   69.0930 O   0  0  0  0  0  0  0  0  0  0  0  0
  129.6100  127.4190   70.8380 C   0  0  0  0  0  0  0  0  0  0  0  0
  130.5550  127.6640   71.8460 C   0  0  0  0  0  0  0  0  0  0  0  0
  130.1640  127.7350   73.1800 C   0  0  0  0  0  0  0  0  0  0  0  0
  128.8250  127.5660   73.5170 C   0  0  0  0  0  0  0  0  0  0  0  0
  127.8720  127.3260   72.5320 C   0  0  0  0  0  0  0  0  0  0  0  0
  128.2610  127.2540   71.1960 C   0  0  0  0  0  0  0  0  0  0  0  0
  129.9730  125.7840   66.5570 N   0  0  0  0  0  0  0  0  0  0  0  0
  130.0220  125.7070   65.2010 C   0  0  0  0  0  0  0  0  0  0  0  0
  129.4040  126.5140   64.2980 N   0  0  0  0  0  0  0  0  0  0  0  0
  128.6730  127.4800   64.8710 C   0  0  0  0  0  0  0  0  0  0  0  0
  129.0370  128.8860   62.0880 C   0  0  0  0  0  0  0  0  0  0  0  0
  128.5560  128.5590   60.6850 C   0  0  2  0  0  0  0  0  0  0  0  0
  128.0190  129.6950   60.0290 O   0  0  0  0  0  0  0  0  0  0  0  0
  131.4800  125.2940   59.5960 C   0  0  0  0  0  0  0  0  0  0  0  0
  131.9780  125.1450   60.9010 C   0  0  0  0  0  0  0  0  0  0  0  0
  133.2640  124.6640   61.1210 C   0  0  0  0  0  0  0  0  0  0  0  0
  134.0690  124.3280   60.0370 C   0  0  0  0  0  0  0  0  0  0  0  0
  133.5970  124.4680   58.7360 C   0  0  0  0  0  0  0  0  0  0  0  0
  132.3100  124.9500   58.5160 C   0  0  0  0  0  0  0  0  0  0  0  0
  130.2400  127.2120   58.6450 C   0  0  0  0  0  0  0  0  0  0  0  0
  131.4110  127.9600   58.8420 C   0  0  0  0  0  0  0  0  0  0  0  0
  131.5870  129.1880   58.2120 C   0  0  0  0  0  0  0  0  0  0  0  0
  130.5870  129.6870   57.3830 C   0  0  0  0  0  0  0  0  0  0  0  0
  129.4120  128.9680   57.1830 C   0  0  0  0  0  0  0  0  0  0  0  0
  129.2380  127.7410   57.8150 C   0  0  0  0  0  0  0  0  0  0  0  0
  128.7810  125.0250   57.2910 C   0  0  0  0  0  0  0  0  0  0  0  0
  127.9850  124.1090   56.6090 C   0  0  0  0  0  0  0  0  0  0  0  0
  124.8114  122.4196   57.2919 H   0  0  0  0  0  0  0  0  0  0  0  0
  125.3316  123.2235   55.7721 H   0  0  0  0  0  0  0  0  0  0  0  0
  124.9392  121.4706   55.7721 H   0  0  0  0  0  0  0  0  0  0  0  0
  127.5225  121.8331   59.1039 H   0  0  0  0  0  0  0  0  0  0  0  0
  128.9498  123.4589   60.3150 H   0  0  0  0  0  0  0  0  0  0  0  0
  127.5870  125.5071   59.9716 H   0  0  0  0  0  0  0  0  0  0  0  0
  127.7891  125.4802   61.7527 H   0  0  0  0  0  0  0  0  0  0  0  0
  126.7397  127.5454   60.1252 H   0  0  0  0  0  0  0  0  0  0  0  0
  127.1846  129.6803   62.8332 H   0  0  0  0  0  0  0  0  0  0  0  0
  126.7990  130.1070   65.2060 H   0  0  0  0  0  0  0  0  0  0  0  0
  128.2040  126.7340   68.8830 H   0  0  0  0  0  0  0  0  0  0  0  0
  131.6135  127.8011   71.5798 H   0  0  0  0  0  0  0  0  0  0  0  0
  130.9111  127.9241   73.9649 H   0  0  0  0  0  0  0  0  0  0  0  0
  128.5169  127.6226   74.5714 H   0  0  0  0  0  0  0  0  0  0  0  0
  126.8152  127.1936   72.8071 H   0  0  0  0  0  0  0  0  0  0  0  0
  127.5076  127.0669   70.4167 H   0  0  0  0  0  0  0  0  0  0  0  0
  130.6351  124.8944   64.7841 H   0  0  0  0  0  0  0  0  0  0  0  0
  129.4299  129.9113   62.1550 H   0  0  0  0  0  0  0  0  0  0  0  0
  129.8668  128.2600   62.4480 H   0  0  0  0  0  0  0  0  0  0  0  0
  129.3698  128.2295   60.0224 H   0  0  0  0  0  0  0  0  0  0  0  0
  127.1110  129.8150   60.3180 H   0  0  0  0  0  0  0  0  0  0  0  0
  131.3433  125.4119   61.7588 H   0  0  0  0  0  0  0  0  0  0  0  0
  133.6431  124.5497   62.1472 H   0  0  0  0  0  0  0  0  0  0  0  0
  135.0869  123.9486   60.2102 H   0  0  0  0  0  0  0  0  0  0  0  0
  134.2387  124.1987   57.8841 H   0  0  0  0  0  0  0  0  0  0  0  0
  131.9391  125.0627   57.4866 H   0  0  0  0  0  0  0  0  0  0  0  0
  132.1995  127.5706   59.5027 H   0  0  0  0  0  0  0  0  0  0  0  0
  132.5124  129.7617   58.3685 H   0  0  0  0  0  0  0  0  0  0  0  0
  130.7260  130.6565   56.8822 H   0  0  0  0  0  0  0  0  0  0  0  0
  128.6243  129.3684   56.5279 H   0  0  0  0  0  0  0  0  0  0  0  0
  128.3049  127.1786   57.6630 H   0  0  0  0  0  0  0  0  0  0  0  0
  129.1436  125.9228   56.7691 H   0  0  0  0  0  0  0  0  0  0  0  0
  127.7166  124.2922   55.5581 H   0  0  0  0  0  0  0  0  0  0  0  0
  1  2  1  0
  2  3  1  0
  3  4  2  0
  4  5  1  0
  5  6  2  0
  6  7  1  0
  7  8  1  0
  8  9  1  0
  9 10  1  0
 10 11  1  0
 11 12  1  0
 12 13  1  0
 13 14  1  0
 14 15  2  0
 15 16  1  0
 16 17  2  0
 17 18  1  0
 18 19  1  0
 19 20  2  0
 19 21  1  0
 21 22  2  0
 22 23  1  0
 23 24  2  0
 24 25  1  0
 25 26  2  0
 17 27  1  0
 27 28  2  0
 28 29  1  0
 29 30  2  0
 12 31  1  0
 31 32  1  0
 32 33  1  0
  7 34  1  0
 34 35  2  0
 35 36  1  0
 36 37  2  0
 37 38  1  0
 38 39  2  0
  7 40  1  0
 40 41  2  0
 41 42  1  0
 42 43  2  0
 43 44  1  0
 44 45  2  0
  6 46  1  0
 46 47  2  0
 47  3  1  0
 32 10  1  0
 39 34  1  0
 45 40  1  0
 30 13  1  0
 30 16  1  0
 26 21  1  0
  1 48  1  0
  1 49  1  0
  1 50  1  0
  4 51  1  0
  5 52  1  0
  9 53  1  0
  9 54  1  0
 10 55  1  6
 12 56  1  1
 14 57  1  0
 18 58  1  0
 22 59  1  0
 23 60  1  0
 24 61  1  0
 25 62  1  0
 26 63  1  0
 28 64  1  0
 31 65  1  0
 31 66  1  0
 32 67  1  6
 33 68  1  0
 35 69  1  0
 36 70  1  0
 37 71  1  0
 38 72  1  0
 39 73  1  0
 41 74  1  0
 42 75  1  0
 43 76  1  0
 44 77  1  0
 45 78  1  0
 46 79  1  0
 47 80  1  0
M  END
>  <Binding energies>  (1) 
[-8.84]

>  <Ligand effiencies>  (1) 
[-0.18040816326530612]

>  <Interactions>  (1) 
["V-A:ILE:369:CG2:3237, V-A:ILE:369:CD1:3239, V-A:ASP:366:CB:3212, V-B:GLU:543:CD:9880, V-A:ASP:366:CA:3210, V-A:ASP:366:CG:3213, V-B:GLU:543:CG:9879, V-A:ILE:369:CB:3236, V-A:GLU:543:CD:4908, V-A:HIS:456:CE1:4070, V-B:TYR:539:C:9839, V-B:PRO:540:CD:9859, V-B:PRO:540:CA:9855, V-B:PRO:540:CB:9857, V-B:PRO:540:N:9856, V-B:LEU:363:CD1:8160, H-B:ARG:545:NH2:9900, V-B:MET:535:CE:9807, V-B:TYR:539:CZ:9849, V-B:TYR:539:CE2:9848, V-B:TYR:539:CD1:9845, H-B:TYR:539:N:9842, V-B:TYR:539:CE1:9847, V-A:MET:535:CE:4835, V-B:TYR:539:CD2:9846, V-B:PRO:540:CG:9858, V-B:ILE:538:CG2:9835, V-B:TYR:539:CG:9844, V-A:HIS:456:CD2:4068, V-B:GLU:543:CB:9878, V-A:GLY:544:C:4912, V-A:GLU:543:CB:4906, V-B:HIS:456:CD2:9039, V-B:HIS:456:CE1:9041, H-B:TYR:484:OH:9319, V-A:TYR:531:CZ:4794, V-A:ASP:366:C:3208, H-B:GLU:543:O:9875"]

$$$$
RR8_A_Rahimova_2017
     RDKit          3D

 73 77  0  0  0  0  0  0  0  0999 V2000
  133.9310  124.9030   64.7720 O   0  0  0  0  0  0  0  0  0  0  0  0
  133.1980  124.2410   64.0290 C   0  0  0  0  0  0  0  0  0  0  0  0
  132.2770  123.3260   64.4660 O   0  0  0  0  0  0  0  0  0  0  0  0
  130.9870  123.7910   64.7520 C   0  0  1  0  0  0  0  0  0  0  0  0
  131.0120  125.0810   65.2910 O   0  0  0  0  0  0  0  0  0  0  0  0
  129.9300  125.8760   64.8130 C   0  0  2  0  0  0  0  0  0  0  0  0
  129.1430  126.4110   66.0220 C   0  0  0  0  0  0  0  0  0  0  0  0
  129.8570  126.0960   67.2090 O   0  0  0  0  0  0  0  0  0  0  0  0
  130.2040  127.2290   67.9930 C   0  0  0  0  0  0  0  0  0  0  0  0
  129.4060  127.2260   69.2880 C   0  0  0  0  0  0  0  0  0  0  0  0
  128.0490  126.8920   69.2700 C   0  0  0  0  0  0  0  0  0  0  0  0
  127.3180  126.8820   70.4550 C   0  0  0  0  0  0  0  0  0  0  0  0
  127.9460  127.2020   71.6570 C   0  0  0  0  0  0  0  0  0  0  0  0
  129.3000  127.5300   71.6850 C   0  0  0  0  0  0  0  0  0  0  0  0
  130.0320  127.5390   70.5010 C   0  0  0  0  0  0  0  0  0  0  0  0
  129.1570  124.9240   63.8910 C   0  0  1  0  0  0  0  0  0  0  0  0
  128.6560  125.5620   62.7180 O   0  0  0  0  0  0  0  0  0  0  0  0
  129.0750  126.9070   62.5220 C   0  0  0  0  0  0  0  0  0  0  0  0
  127.9180  127.8570   62.7970 C   0  0  0  0  0  0  0  0  0  0  0  0
  127.9240  128.6400   63.9560 C   0  0  0  0  0  0  0  0  0  0  0  0
  126.8650  129.5040   64.2190 C   0  0  0  0  0  0  0  0  0  0  0  0
  125.7980  129.5810   63.3250 C   0  0  0  0  0  0  0  0  0  0  0  0
  125.7800  128.8000   62.1720 C   0  0  0  0  0  0  0  0  0  0  0  0
  126.8390  127.9340   61.9090 C   0  0  0  0  0  0  0  0  0  0  0  0
  130.2160  123.9310   63.4470 C   0  0  2  0  0  0  0  0  0  0  0  0
  129.6120  122.7170   63.0060 O   0  0  0  0  0  0  0  0  0  0  0  0
  129.6540  122.4820   61.6030 C   0  0  0  0  0  0  0  0  0  0  0  0
  128.4270  123.0880   60.9390 C   0  0  0  0  0  0  0  0  0  0  0  0
  127.2110  123.1450   61.6270 C   0  0  0  0  0  0  0  0  0  0  0  0
  126.0930  123.7100   61.0180 C   0  0  0  0  0  0  0  0  0  0  0  0
  126.1940  124.2200   59.7260 C   0  0  0  0  0  0  0  0  0  0  0  0
  127.4030  124.1730   59.0360 C   0  0  0  0  0  0  0  0  0  0  0  0
  128.5230  123.6080   59.6440 C   0  0  0  0  0  0  0  0  0  0  0  0
  133.2220  124.3690   62.5340 C   0  0  0  0  0  0  0  0  0  0  0  0
  132.4940  125.3640   61.8630 C   0  0  0  0  0  0  0  0  0  0  0  0
  132.5360  125.4560   60.4740 C   0  0  0  0  0  0  0  0  0  0  0  0
  133.3030  124.5580   59.7210 C   0  0  0  0  0  0  0  0  0  0  0  0
  133.3470  124.6590   58.2420 N   0  0  0  0  0  0  0  0  0  0  0  0
  133.9930  123.8250   57.6150 O   0  0  0  0  0  0  0  0  0  0  0  0
  132.7360  125.5730   57.6960 O   0  0  0  0  0  0  0  0  0  0  0  0
  134.0270  123.5640   60.3920 C   0  0  0  0  0  0  0  0  0  0  0  0
  133.9870  123.4700   61.7790 C   0  0  0  0  0  0  0  0  0  0  0  0
  130.5356  123.0783   65.4579 H   0  0  0  0  0  0  0  0  0  0  0  0
  130.2082  126.7779   64.2481 H   0  0  0  0  0  0  0  0  0  0  0  0
  129.0307  127.5019   65.9366 H   0  0  0  0  0  0  0  0  0  0  0  0
  128.1452  125.9490   66.0524 H   0  0  0  0  0  0  0  0  0  0  0  0
  131.2784  127.1959   68.2265 H   0  0  0  0  0  0  0  0  0  0  0  0
  129.9745  128.1446   67.4281 H   0  0  0  0  0  0  0  0  0  0  0  0
  127.5582  126.6369   68.3192 H   0  0  0  0  0  0  0  0  0  0  0  0
  126.2491  126.6225   70.4423 H   0  0  0  0  0  0  0  0  0  0  0  0
  127.3675  127.1956   72.5926 H   0  0  0  0  0  0  0  0  0  0  0  0
  129.7882  127.7807   72.6383 H   0  0  0  0  0  0  0  0  0  0  0  0
  131.1024  127.7920   70.5182 H   0  0  0  0  0  0  0  0  0  0  0  0
  128.2880  124.5011   64.4164 H   0  0  0  0  0  0  0  0  0  0  0  0
  129.9041  127.1341   63.2083 H   0  0  0  0  0  0  0  0  0  0  0  0
  129.4075  127.0340   61.4812 H   0  0  0  0  0  0  0  0  0  0  0  0
  128.7664  128.5729   64.6602 H   0  0  0  0  0  0  0  0  0  0  0  0
  126.8699  130.1233   65.1281 H   0  0  0  0  0  0  0  0  0  0  0  0
  124.9621  130.2653   63.5323 H   0  0  0  0  0  0  0  0  0  0  0  0
  124.9337  128.8666   61.4725 H   0  0  0  0  0  0  0  0  0  0  0  0
  126.8271  127.3104   61.0029 H   0  0  0  0  0  0  0  0  0  0  0  0
  130.8416  124.2254   62.5915 H   0  0  0  0  0  0  0  0  0  0  0  0
  130.5606  122.9423   61.1832 H   0  0  0  0  0  0  0  0  0  0  0  0
  129.6673  121.3978   61.4179 H   0  0  0  0  0  0  0  0  0  0  0  0
  127.1374  122.7439   62.6486 H   0  0  0  0  0  0  0  0  0  0  0  0
  125.1342  123.7532   61.5554 H   0  0  0  0  0  0  0  0  0  0  0  0
  125.3099  124.6645   59.2455 H   0  0  0  0  0  0  0  0  0  0  0  0
  127.4737  124.5797   58.0164 H   0  0  0  0  0  0  0  0  0  0  0  0
  129.4816  123.5711   59.1058 H   0  0  0  0  0  0  0  0  0  0  0  0
  131.8855  126.0768   62.4389 H   0  0  0  0  0  0  0  0  0  0  0  0
  131.9608  126.2421   59.9630 H   0  0  0  0  0  0  0  0  0  0  0  0
  134.6337  122.8501   59.8156 H   0  0  0  0  0  0  0  0  0  0  0  0
  134.5615  122.6822   62.2883 H   0  0  0  0  0  0  0  0  0  0  0  0
  1  2  2  0
  2  3  1  0
  3  4  1  0
  4  5  1  0
  5  6  1  0
  6  7  1  0
  7  8  1  0
  8  9  1  0
  9 10  1  0
 10 11  2  0
 11 12  1  0
 12 13  2  0
 13 14  1  0
 14 15  2  0
  6 16  1  0
 16 17  1  0
 17 18  1  0
 18 19  1  0
 19 20  2  0
 20 21  1  0
 21 22  2  0
 22 23  1  0
 23 24  2  0
 16 25  1  0
 25 26  1  0
 26 27  1  0
 27 28  1  0
 28 29  2  0
 29 30  1  0
 30 31  2  0
 31 32  1  0
 32 33  2  0
  2 34  1  0
 34 35  2  0
 35 36  1  0
 36 37  2  0
 37 38  1  0
 38 39  2  0
 38 40  1  0
 37 41  1  0
 41 42  2  0
 25  4  1  0
 33 28  1  0
 42 34  1  0
 15 10  1  0
 24 19  1  0
  4 43  1  1
  6 44  1  6
  7 45  1  0
  7 46  1  0
  9 47  1  0
  9 48  1  0
 11 49  1  0
 12 50  1  0
 13 51  1  0
 14 52  1  0
 15 53  1  0
 16 54  1  1
 18 55  1  0
 18 56  1  0
 20 57  1  0
 21 58  1  0
 22 59  1  0
 23 60  1  0
 24 61  1  0
 25 62  1  6
 27 63  1  0
 27 64  1  0
 29 65  1  0
 30 66  1  0
 31 67  1  0
 32 68  1  0
 33 69  1  0
 35 70  1  0
 36 71  1  0
 41 72  1  0
 42 73  1  0
M  CHG  2  38   1  40  -1
M  END
>  <Binding energies>  (1) 
[-9.43]

>  <Ligand effiencies>  (1) 
[-0.22452380952380951]

>  <Interactions>  (1) 
["V-A:ILE:369:CG2:3237, V-A:ILE:369:CD1:3239, V-A:ASP:366:CB:3212, V-B:GLU:543:CD:9880, H-A:ARG:545:NH1:4927, H-A:ARG:545:NH2:4928, H-A:GLY:454:N:4050, V-A:ASP:366:CA:3210, V-A:ASP:366:CG:3213, H-A:TYR:484:OH:4348, V-B:GLU:543:CG:9879, H-A:ARG:545:NE:4924, V-A:ILE:369:CB:3236, V-A:GLU:543:CD:4908, V-A:ARG:545:CZ:4926, V-A:HIS:456:CE1:4070, V-A:GLY:454:CA:4049, V-B:ASP:366:CG:8184, V-B:PRO:540:CA:9855, V-B:PRO:540:CB:9857, V-B:TYR:539:CZ:9849, V-B:TYR:539:CE2:9848, V-B:PRO:540:C:9853, V-A:TYR:484:CE2:4346, V-B:GLU:543:C:9874, V-A:TYR:484:CZ:4347, V-B:GLU:543:CB:9878, V-A:GLU:543:CB:4906, V-B:HIS:456:CD2:9039, V-B:HIS:456:CE1:9041, V-B:GLY:544:C:9884, V-B:GLY:544:CA:9886, H-A:TYR:531:OH:4795, H-B:TYR:539:OH:9850, V-A:ASP:366:C:3208, H-A:ASN:370:N:3244"]

$$$$
RR8_B_Rahimova_2017
     RDKit          3D

 73 77  0  0  0  0  0  0  0  0999 V2000
  131.2390  125.8030   57.1310 O   0  0  0  0  0  0  0  0  0  0  0  0
  131.5880  126.4820   58.1030 C   0  0  0  0  0  0  0  0  0  0  0  0
  131.5280  127.8470   58.1530 O   0  0  0  0  0  0  0  0  0  0  0  0
  130.4270  128.4400   58.7960 C   0  0  2  0  0  0  0  0  0  0  0  0
  129.4740  127.4900   59.1820 O   0  0  0  0  0  0  0  0  0  0  0  0
  128.4880  127.2970   58.1690 C   0  0  2  0  0  0  0  0  0  0  0  0
  128.4690  125.8180   57.7450 C   0  0  0  0  0  0  0  0  0  0  0  0
  129.0570  125.0290   58.7730 O   0  0  0  0  0  0  0  0  0  0  0  0
  128.1910  124.0700   59.3610 C   0  0  0  0  0  0  0  0  0  0  0  0
  127.1960  123.5870   58.3160 C   0  0  0  0  0  0  0  0  0  0  0  0
  125.8430  123.9130   58.4440 C   0  0  0  0  0  0  0  0  0  0  0  0
  124.9230  123.4530   57.5050 C   0  0  0  0  0  0  0  0  0  0  0  0
  125.3610  122.6700   56.4380 C   0  0  0  0  0  0  0  0  0  0  0  0
  126.7090  122.3470   56.3010 C   0  0  0  0  0  0  0  0  0  0  0  0
  127.6290  122.8030   57.2420 C   0  0  0  0  0  0  0  0  0  0  0  0
  128.8750  128.2930   57.0690 C   0  0  1  0  0  0  0  0  0  0  0  0
  127.6960  128.8180   56.4530 O   0  0  0  0  0  0  0  0  0  0  0  0
  127.4380  130.2140   56.6250 C   0  0  0  0  0  0  0  0  0  0  0  0
  126.2180  130.4730   57.5040 C   0  0  0  0  0  0  0  0  0  0  0  0
  125.0100  130.8700   56.9260 C   0  0  0  0  0  0  0  0  0  0  0  0
  123.8890  131.0740   57.7280 C   0  0  0  0  0  0  0  0  0  0  0  0
  123.9830  130.8840   59.1050 C   0  0  0  0  0  0  0  0  0  0  0  0
  125.1860  130.4920   59.6890 C   0  0  0  0  0  0  0  0  0  0  0  0
  126.3060  130.2850   58.8860 C   0  0  0  0  0  0  0  0  0  0  0  0
  129.6900  129.3460   57.8120 C   0  0  2  0  0  0  0  0  0  0  0  0
  130.5510  130.0360   56.9090 O   0  0  0  0  0  0  0  0  0  0  0  0
  131.2540  131.1410   57.4540 C   0  0  0  0  0  0  0  0  0  0  0  0
  130.3620  131.8100   58.4860 C   0  0  0  0  0  0  0  0  0  0  0  0
  129.2740  132.5870   58.0800 C   0  0  0  0  0  0  0  0  0  0  0  0
  128.4740  133.2120   59.0350 C   0  0  0  0  0  0  0  0  0  0  0  0
  128.7650  133.0570   60.3880 C   0  0  0  0  0  0  0  0  0  0  0  0
  129.8480  132.2820   60.7990 C   0  0  0  0  0  0  0  0  0  0  0  0
  130.6470  131.6580   59.8460 C   0  0  0  0  0  0  0  0  0  0  0  0
  132.1650  125.8870   59.3550 C   0  0  0  0  0  0  0  0  0  0  0  0
  131.7190  126.2680   60.6290 C   0  0  0  0  0  0  0  0  0  0  0  0
  132.2770  125.7060   61.7710 C   0  0  0  0  0  0  0  0  0  0  0  0
  133.3030  124.7580   61.6710 C   0  0  0  0  0  0  0  0  0  0  0  0
  133.9160  124.1790   62.8920 N   0  0  0  0  0  0  0  0  0  0  0  0
  134.3240  124.9420   63.7640 O   0  0  0  0  0  0  0  0  0  0  0  0
  133.9890  122.9570   62.9910 O   0  0  0  0  0  0  0  0  0  0  0  0
  133.7440  124.3720   60.3990 C   0  0  0  0  0  0  0  0  0  0  0  0
  133.1810  124.9280   59.2550 C   0  0  0  0  0  0  0  0  0  0  0  0
  130.8289  128.9758   59.6686 H   0  0  0  0  0  0  0  0  0  0  0  0
  127.4524  127.4933   58.4836 H   0  0  0  0  0  0  0  0  0  0  0  0
  127.4301  125.4952   57.5822 H   0  0  0  0  0  0  0  0  0  0  0  0
  129.0385  125.6936   56.8122 H   0  0  0  0  0  0  0  0  0  0  0  0
  128.7813  123.2177   59.7286 H   0  0  0  0  0  0  0  0  0  0  0  0
  127.6502  124.5274   60.2026 H   0  0  0  0  0  0  0  0  0  0  0  0
  125.5045  124.5333   59.2870 H   0  0  0  0  0  0  0  0  0  0  0  0
  123.8571  123.7060   57.6047 H   0  0  0  0  0  0  0  0  0  0  0  0
  124.6351  122.3037   55.6971 H   0  0  0  0  0  0  0  0  0  0  0  0
  127.0459  121.7337   55.4523 H   0  0  0  0  0  0  0  0  0  0  0  0
  128.6940  122.5470   57.1406 H   0  0  0  0  0  0  0  0  0  0  0  0
  129.4545  127.8568   56.2421 H   0  0  0  0  0  0  0  0  0  0  0  0
  128.3170  130.6812   57.0931 H   0  0  0  0  0  0  0  0  0  0  0  0
  127.2355  130.6437   55.6329 H   0  0  0  0  0  0  0  0  0  0  0  0
  124.9437  131.0215   55.8385 H   0  0  0  0  0  0  0  0  0  0  0  0
  122.9349  131.3834   57.2764 H   0  0  0  0  0  0  0  0  0  0  0  0
  123.0980  131.0452   59.7381 H   0  0  0  0  0  0  0  0  0  0  0  0
  125.2512  130.3468   60.7774 H   0  0  0  0  0  0  0  0  0  0  0  0
  127.2586  129.9739   59.3396 H   0  0  0  0  0  0  0  0  0  0  0  0
  129.1290  130.1590   58.2961 H   0  0  0  0  0  0  0  0  0  0  0  0
  132.1810  130.7928   57.9330 H   0  0  0  0  0  0  0  0  0  0  0  0
  131.5153  131.8544   56.6585 H   0  0  0  0  0  0  0  0  0  0  0  0
  129.0495  132.7051   57.0097 H   0  0  0  0  0  0  0  0  0  0  0  0
  127.6163  133.8252   58.7213 H   0  0  0  0  0  0  0  0  0  0  0  0
  128.1332  133.5516   61.1405 H   0  0  0  0  0  0  0  0  0  0  0  0
  130.0697  132.1644   61.8700 H   0  0  0  0  0  0  0  0  0  0  0  0
  131.5034  131.0447   60.1630 H   0  0  0  0  0  0  0  0  0  0  0  0
  130.9204  127.0183   60.7251 H   0  0  0  0  0  0  0  0  0  0  0  0
  131.9094  126.0086   62.7626 H   0  0  0  0  0  0  0  0  0  0  0  0
  134.5431  123.6221   60.3037 H   0  0  0  0  0  0  0  0  0  0  0  0
  133.5367  124.6118   58.2633 H   0  0  0  0  0  0  0  0  0  0  0  0
  1  2  2  0
  2  3  1  0
  3  4  1  0
  4  5  1  0
  5  6  1  0
  6  7  1  0
  7  8  1  0
  8  9  1  0
  9 10  1  0
 10 11  2  0
 11 12  1  0
 12 13  2  0
 13 14  1  0
 14 15  2  0
  6 16  1  0
 16 17  1  0
 17 18  1  0
 18 19  1  0
 19 20  2  0
 20 21  1  0
 21 22  2  0
 22 23  1  0
 23 24  2  0
 16 25  1  0
 25 26  1  0
 26 27  1  0
 27 28  1  0
 28 29  2  0
 29 30  1  0
 30 31  2  0
 31 32  1  0
 32 33  2  0
  2 34  1  0
 34 35  2  0
 35 36  1  0
 36 37  2  0
 37 38  1  0
 38 39  2  0
 38 40  1  0
 37 41  1  0
 41 42  2  0
 25  4  1  0
 33 28  1  0
 42 34  1  0
 15 10  1  0
 24 19  1  0
  4 43  1  1
  6 44  1  1
  7 45  1  0
  7 46  1  0
  9 47  1  0
  9 48  1  0
 11 49  1  0
 12 50  1  0
 13 51  1  0
 14 52  1  0
 15 53  1  0
 16 54  1  6
 18 55  1  0
 18 56  1  0
 20 57  1  0
 21 58  1  0
 22 59  1  0
 23 60  1  0
 24 61  1  0
 25 62  1  1
 27 63  1  0
 27 64  1  0
 29 65  1  0
 30 66  1  0
 31 67  1  0
 32 68  1  0
 33 69  1  0
 35 70  1  0
 36 71  1  0
 41 72  1  0
 42 73  1  0
M  CHG  2  38   1  40  -1
M  END
>  <Binding energies>  (1) 
[-8.79]

>  <Ligand effiencies>  (1) 
[-0.20928571428571427]

>  <Interactions>  (1) 
["V-A:ILE:369:CD1:3239, V-A:ASP:366:CB:3212, H-A:ARG:545:NH1:4927, H-A:ARG:545:NH2:4928, H-A:GLY:454:N:4050, V-A:ASP:366:CA:3210, V-A:ASP:366:CG:3213, H-A:ARG:545:NE:4924, V-A:GLY:454:CA:4049, V-B:ASP:366:CB:8183, V-B:TYR:539:C:9839, V-B:PRO:540:CD:9859, V-B:ASP:366:CG:8184, V-B:PRO:540:CA:9855, V-B:PRO:540:CB:9857, V-B:PRO:540:N:9856, V-B:LEU:363:CD1:8160, V-B:TYR:531:CZ:9766, V-B:MET:535:CE:9807, V-B:TYR:539:CZ:9849, V-B:TYR:539:CE2:9848, V-B:TYR:539:CD1:9845, V-B:TYR:539:CE1:9847, V-A:MET:535:CE:4835, V-B:TYR:539:CD2:9846, V-B:ILE:538:CG2:9835, V-B:TYR:539:CG:9844, V-A:PRO:540:CA:4883, V-A:PRO:540:CB:4885, H-B:TYR:531:OH:9767, V-A:PRO:540:N:4884, H-A:TYR:531:OH:4795, V-A:TYR:539:CE1:4875, H-B:TYR:539:OH:9850, V-A:TYR:539:CZ:4877, V-A:TYR:539:CG:4872, V-A:TYR:539:CD1:4873, V-B:ASP:366:C:8179, V-B:ASP:366:CA:8181, V-B:ILE:369:CG2:8208, V-A:TYR:539:C:4867, V-B:ILE:369:CB:8207"]

$$$$
RR9_Rahimova_2017
     RDKit          3D

 64 68  0  0  0  0  0  0  0  0999 V2000
  127.5940  127.2480   72.6170 C   0  0  0  0  0  0  0  0  0  0  0  0
  128.9070  128.0190   72.4500 C   0  0  0  0  0  0  0  0  0  0  0  0
  128.9350  128.5990   71.1490 O   0  0  0  0  0  0  0  0  0  0  0  0
  129.3160  127.8250   70.0700 C   0  0  0  0  0  0  0  0  0  0  0  0
  130.6220  127.9920   69.6130 C   0  0  0  0  0  0  0  0  0  0  0  0
  131.0930  127.2570   68.5300 C   0  0  0  0  0  0  0  0  0  0  0  0
  130.2700  126.3320   67.8710 C   0  0  0  0  0  0  0  0  0  0  0  0
  130.7710  125.5400   66.7000 C   0  0  0  0  0  0  0  0  0  0  0  0
  129.9440  124.6390   66.0120 C   0  0  0  0  0  0  0  0  0  0  0  0
  130.4150  123.9090   64.9060 C   0  0  0  0  0  0  0  0  0  0  0  0
  129.4510  123.0360   64.1500 C   0  0  0  0  0  0  0  0  0  0  0  0
  129.4500  121.8160   64.3200 O   0  0  0  0  0  0  0  0  0  0  0  0
  128.6390  123.6740   63.2840 N   0  0  0  0  0  0  0  0  0  0  0  0
  127.7120  123.0340   62.3440 C   0  0  0  0  0  0  0  0  0  0  0  0
  128.2820  122.9280   60.9110 C   0  0  0  0  0  0  0  0  0  0  0  0
  127.2690  123.1890   59.8020 C   0  0  0  0  0  0  0  0  0  0  0  0
  126.0730  123.8550   60.0860 C   0  0  0  0  0  0  0  0  0  0  0  0
  125.1650  124.1220   59.0640 C   0  0  0  0  0  0  0  0  0  0  0  0
  125.4540  123.7180   57.7630 C   0  0  0  0  0  0  0  0  0  0  0  0
  126.6410  123.0490   57.4720 C   0  0  0  0  0  0  0  0  0  0  0  0
  127.5500  122.7830   58.4940 C   0  0  0  0  0  0  0  0  0  0  0  0
  131.7720  124.1100   64.5540 C   0  0  0  0  0  0  0  0  0  0  0  0
  132.7280  123.6220   63.5880 C   0  0  0  0  0  0  0  0  0  0  0  0
  132.5760  122.5490   62.5610 C   0  0  0  0  0  0  0  0  0  0  0  0
  131.3210  122.2790   62.0070 C   0  0  0  0  0  0  0  0  0  0  0  0
  131.1780  121.2670   61.0610 C   0  0  0  0  0  0  0  0  0  0  0  0
  132.2910  120.5240   60.6630 C   0  0  0  0  0  0  0  0  0  0  0  0
  132.1320  119.4080   59.6460 C   0  0  0  0  0  0  0  0  0  0  0  0
  133.5450  120.7890   61.2150 C   0  0  0  0  0  0  0  0  0  0  0  0
  133.6860  121.8030   62.1590 C   0  0  0  0  0  0  0  0  0  0  0  0
  133.8750  124.2510   63.7160 N   0  0  0  0  0  0  0  0  0  0  0  0
  133.7690  125.0980   64.7530 N   0  0  0  0  0  0  0  0  0  0  0  0
  132.5140  125.0480   65.3120 C   0  0  0  0  0  0  0  0  0  0  0  0
  132.0720  125.7520   66.3530 N   0  0  0  0  0  0  0  0  0  0  0  0
  128.9570  126.1710   68.3350 C   0  0  0  0  0  0  0  0  0  0  0  0
  128.4820  126.9040   69.4200 C   0  0  0  0  0  0  0  0  0  0  0  0
  127.3772  127.1207   73.6879 H   0  0  0  0  0  0  0  0  0  0  0  0
  126.7762  127.8093   72.1415 H   0  0  0  0  0  0  0  0  0  0  0  0
  127.6857  126.2603   72.1415 H   0  0  0  0  0  0  0  0  0  0  0  0
  128.9697  128.8118   73.2099 H   0  0  0  0  0  0  0  0  0  0  0  0
  129.7604  127.3361   72.5739 H   0  0  0  0  0  0  0  0  0  0  0  0
  131.2865  128.7117   70.1134 H   0  0  0  0  0  0  0  0  0  0  0  0
  132.1272  127.4035   68.1850 H   0  0  0  0  0  0  0  0  0  0  0  0
  128.9048  124.5007   66.3449 H   0  0  0  0  0  0  0  0  0  0  0  0
  128.6520  124.6830   63.2750 H   0  0  0  0  0  0  0  0  0  0  0  0
  127.4880  122.0204   62.7080 H   0  0  0  0  0  0  0  0  0  0  0  0
  126.8096  123.6611   62.2935 H   0  0  0  0  0  0  0  0  0  0  0  0
  129.0962  123.6609   60.8109 H   0  0  0  0  0  0  0  0  0  0  0  0
  128.6183  121.8881   60.7864 H   0  0  0  0  0  0  0  0  0  0  0  0
  125.8491  124.1681   61.1164 H   0  0  0  0  0  0  0  0  0  0  0  0
  124.2248  124.6491   59.2834 H   0  0  0  0  0  0  0  0  0  0  0  0
  124.7370  123.9295   56.9560 H   0  0  0  0  0  0  0  0  0  0  0  0
  126.8593  122.7326   56.4413 H   0  0  0  0  0  0  0  0  0  0  0  0
  128.4884  122.2538   58.2718 H   0  0  0  0  0  0  0  0  0  0  0  0
  130.4451  122.8669   62.3189 H   0  0  0  0  0  0  0  0  0  0  0  0
  130.1896  121.0534   60.6280 H   0  0  0  0  0  0  0  0  0  0  0  0
  131.9956  118.4507   60.1704 H   0  0  0  0  0  0  0  0  0  0  0  0
  131.2534  119.6090   59.0154 H   0  0  0  0  0  0  0  0  0  0  0  0
  133.0318  119.3557   59.0154 H   0  0  0  0  0  0  0  0  0  0  0  0
  134.4198  120.1984   60.9052 H   0  0  0  0  0  0  0  0  0  0  0  0
  134.6753  122.0171   62.5896 H   0  0  0  0  0  0  0  0  0  0  0  0
  134.5520  125.6720   65.0300 H   0  0  0  0  0  0  0  0  0  0  0  0
  128.2906  125.4536   67.8337 H   0  0  0  0  0  0  0  0  0  0  0  0
  127.4486  126.7598   69.7683 H   0  0  0  0  0  0  0  0  0  0  0  0
  1  2  1  0
  2  3  1  0
  3  4  1  0
  4  5  2  0
  5  6  1  0
  6  7  2  0
  7  8  1  0
  8  9  2  0
  9 10  1  0
 10 11  1  0
 11 12  2  0
 11 13  1  0
 13 14  1  0
 14 15  1  0
 15 16  1  0
 16 17  2  0
 17 18  1  0
 18 19  2  0
 19 20  1  0
 20 21  2  0
 10 22  2  0
 22 23  1  0
 23 24  1  0
 24 25  2  0
 25 26  1  0
 26 27  2  0
 27 28  1  0
 27 29  1  0
 29 30  2  0
 23 31  2  0
 31 32  1  0
 32 33  1  0
 33 34  2  0
  7 35  1  0
 35 36  2  0
 36  4  1  0
 34  8  1  0
 21 16  1  0
 33 22  1  0
 30 24  1  0
  1 37  1  0
  1 38  1  0
  1 39  1  0
  2 40  1  0
  2 41  1  0
  5 42  1  0
  6 43  1  0
  9 44  1  0
 13 45  1  0
 14 46  1  0
 14 47  1  0
 15 48  1  0
 15 49  1  0
 17 50  1  0
 18 51  1  0
 19 52  1  0
 20 53  1  0
 21 54  1  0
 25 55  1  0
 26 56  1  0
 28 57  1  0
 28 58  1  0
 28 59  1  0
 29 60  1  0
 30 61  1  0
 32 62  1  0
 35 63  1  0
 36 64  1  0
M  END
>  <Binding energies>  (1) 
[-9.25]

>  <Ligand effiencies>  (1) 
[-0.24342105263157895]

>  <Interactions>  (1) 
["V-A:ILE:369:CG2:3237, V-B:GLU:543:CD:9880, H-A:GLY:454:N:4050, V-A:GLY:453:CA:4044, H-A:TYR:484:OH:4348, V-B:GLU:543:CG:9879, H-A:ARG:545:NE:4924, V-A:GLU:543:CD:4908, V-A:ARG:545:CZ:4926, V-A:LEU:475:CD2:4259, V-A:HIS:456:CE1:4070, V-B:ALA:541:CB:9864, V-A:GLY:454:CA:4049, V-B:TYR:539:C:9839, H-B:GLU:543:OE1:9881, V-B:PRO:540:CA:9855, V-B:PRO:540:CB:9857, V-B:PRO:540:N:9856, V-B:TYR:539:CE2:9848, V-B:TYR:539:CD2:9846, V-B:TYR:539:CG:9844, V-A:TYR:484:CE2:4346, V-A:GLU:543:C:4902, V-B:GLU:543:C:9874, V-B:GLU:543:CA:9876, V-B:GLU:543:CB:9878, V-A:SER:385:CB:3409, V-A:GLU:543:CB:4906, V-B:HIS:456:CD2:9039, V-B:HIS:456:CE1:9041, V-B:GLY:544:C:9884, V-A:ARG:545:CG:4922, V-B:LYS:547:CE:9922, V-A:ARG:545:CD:4923, V-A:SER:385:C:3405, V-A:SER:385:CA:3407"]

$$$$
