1a_Grossjean_2025
     RDKit          3D

 26 27  0  0  0  0  0  0  0  0999 V2000
  129.8610  132.4590   73.1460 C   0  0  0  0  0  0  0  0  0  0  0  0
  129.1850  131.1620   73.5990 C   0  0  0  0  0  0  0  0  0  0  0  0
  129.9140  130.0480   73.1000 O   0  0  0  0  0  0  0  0  0  0  0  0
  129.3280  128.8290   72.9680 C   0  0  0  0  0  0  0  0  0  0  0  0
  128.7370  128.2570   73.8890 O   0  0  0  0  0  0  0  0  0  0  0  0
  129.4850  128.2400   71.5960 C   0  0  0  0  0  0  0  0  0  0  0  0
  130.7130  128.3680   70.9330 C   0  0  0  0  0  0  0  0  0  0  0  0
  130.8880  127.8370   69.6590 C   0  0  0  0  0  0  0  0  0  0  0  0
  129.8430  127.1700   69.0200 C   0  0  0  0  0  0  0  0  0  0  0  0
  130.1300  126.6760   67.7330 N   0  0  0  0  0  0  0  0  0  0  0  0
  129.9690  125.4360   67.2230 C   0  0  0  0  0  0  0  0  0  0  0  0
  129.5140  124.4660   67.8300 O   0  0  0  0  0  0  0  0  0  0  0  0
  130.4010  125.2660   65.7650 C   0  0  0  0  0  0  0  0  0  0  0  0
  130.3980  123.5230   65.2480 S   0  0  0  0  0  0  0  0  0  0  0  0
  131.0050  123.4610   63.5770 C   0  0  0  0  0  0  0  0  0  0  0  0
  130.1070  122.9690   62.6860 N   0  0  0  0  0  0  0  0  0  0  0  0
  130.4670  122.8730   61.3850 C   0  0  0  0  0  0  0  0  0  0  0  0
  129.4160  122.3020   60.4500 C   0  0  0  0  0  0  0  0  0  0  0  0
  131.7190  123.2680   60.9200 C   0  0  0  0  0  0  0  0  0  0  0  0
  132.6450  123.7950   61.8260 C   0  0  0  0  0  0  0  0  0  0  0  0
  134.0060  124.2360   61.2910 C   0  0  0  0  0  0  0  0  0  0  0  0
  132.2900  123.9090   63.1900 C   0  0  0  0  0  0  0  0  0  0  0  0
  133.2250  124.5040   64.1490 C   0  0  0  0  0  0  0  0  0  0  0  0
  133.9650  124.9740   64.9040 N   0  0  0  0  0  0  0  0  0  0  0  0
  128.6120  127.0300   69.6790 C   0  0  0  0  0  0  0  0  0  0  0  0
  128.4370  127.5620   70.9530 C   0  0  0  0  0  0  0  0  0  0  0  0
  1  2  1  0
  2  3  1  0
  3  4  1  0
  4  5  2  0
  4  6  1  0
  6  7  2  0
  7  8  1  0
  8  9  2  0
  9 10  1  0
 10 11  1  0
 11 12  2  0
 11 13  1  0
 13 14  1  0
 14 15  1  0
 15 16  2  0
 16 17  1  0
 17 18  1  0
 17 19  2  0
 19 20  1  0
 20 21  1  0
 20 22  2  0
 22 23  1  0
 23 24  3  0
  9 25  1  0
 25 26  2  0
 26  6  1  0
 22 15  1  0
M  END
>  <Binding energies>  (1) 
[-7.87]

>  <Ligand effiencies>  (1) 
[-0.2914814814814815]

>  <Interactions>  (1) 
["V-A:ILE:369:CD1:3239, H-A:ARG:545:NH1:4927, H-A:ARG:545:NH2:4928, H-A:GLY:454:N:4050, V-A:ASP:366:CG:3213, H-A:TYR:484:OH:4348, V-B:GLU:543:CG:9879, H-A:ARG:545:NE:4924, V-A:GLU:543:CD:4908, V-A:ARG:545:CZ:4926, H-A:GLU:543:OE2:4910, V-A:HIS:456:CE1:4070, V-A:GLY:454:CA:4049, V-B:TYR:539:CE2:9848, V-B:TYR:539:CD2:9846, V-A:GLU:543:C:4902, V-B:GLU:543:CB:9878, V-A:GLY:544:C:4912, V-A:GLU:543:CB:4906, V-B:HIS:456:CD2:9039, V-B:HIS:456:CE1:9041, H-A:LYS:547:NZ:4951, H-B:LYS:547:NZ:9923, V-A:GLY:544:CA:4914, V-A:LYS:547:CE:4950"]

$$$$
1aa_Ghoteimi_2023
     RDKit          3D

 40 43  0  0  0  0  0  0  0  0999 V2000
  127.2840  131.7430   56.8400 C   0  0  0  0  0  0  0  0  0  0  0  0
  128.6210  132.2390   56.2820 C   0  0  0  0  0  0  0  0  0  0  0  0
  129.0960  133.3170   57.0790 O   0  0  0  0  0  0  0  0  0  0  0  0
  130.0850  133.1320   57.9900 C   0  0  0  0  0  0  0  0  0  0  0  0
  131.2700  133.4020   57.7740 O   0  0  0  0  0  0  0  0  0  0  0  0
  129.5940  132.5640   59.2910 C   0  0  0  0  0  0  0  0  0  0  0  0
  129.0240  133.3740   60.2860 C   0  0  0  0  0  0  0  0  0  0  0  0
  128.5770  132.8190   61.4830 C   0  0  0  0  0  0  0  0  0  0  0  0
  128.6920  131.4390   61.7060 C   0  0  0  0  0  0  0  0  0  0  0  0
  128.2770  130.7700   62.8720 N   0  0  0  0  0  0  0  0  0  0  0  0
  128.1190  131.2270   64.1360 C   0  0  0  0  0  0  0  0  0  0  0  0
  128.3210  132.3870   64.4950 O   0  0  0  0  0  0  0  0  0  0  0  0
  127.6500  130.2180   65.1960 C   0  0  0  0  0  0  0  0  0  0  0  0
  127.7580  128.8790   64.6970 O   0  0  0  0  0  0  0  0  0  0  0  0
  128.4610  127.9190   65.4110 C   0  0  0  0  0  0  0  0  0  0  0  0
  128.3280  127.9030   66.7660 N   0  0  0  0  0  0  0  0  0  0  0  0
  129.0110  126.9870   67.5020 C   0  0  0  0  0  0  0  0  0  0  0  0
  128.8090  127.0350   68.9890 C   0  0  0  0  0  0  0  0  0  0  0  0
  129.8870  127.2680   69.8570 C   0  0  0  0  0  0  0  0  0  0  0  0
  129.7020  127.3110   71.2360 C   0  0  0  0  0  0  0  0  0  0  0  0
  128.4380  127.1240   71.7900 C   0  0  0  0  0  0  0  0  0  0  0  0
  128.3510  127.1830   73.1680 O   0  0  0  0  0  0  0  0  0  0  0  0
  128.1310  128.4410   73.7970 C   0  0  0  0  0  0  0  0  0  0  0  0
  127.3510  126.8950   70.9360 C   0  0  0  0  0  0  0  0  0  0  0  0
  127.5380  126.8540   69.5570 C   0  0  0  0  0  0  0  0  0  0  0  0
  129.8360  126.0430   66.8780 C   0  0  0  0  0  0  0  0  0  0  0  0
  129.9820  126.0300   65.4840 C   0  0  0  0  0  0  0  0  0  0  0  0
  130.8680  124.9920   64.8790 C   0  0  0  0  0  0  0  0  0  0  0  0
  132.2220  125.2640   64.6590 C   0  0  0  0  0  0  0  0  0  0  0  0
  133.0570  124.2980   64.1040 C   0  0  0  0  0  0  0  0  0  0  0  0
  132.5590  123.0410   63.7640 C   0  0  0  0  0  0  0  0  0  0  0  0
  133.4600  122.1470   63.2190 O   0  0  0  0  0  0  0  0  0  0  0  0
  134.0200  122.4170   61.9390 C   0  0  0  0  0  0  0  0  0  0  0  0
  131.2030  122.7610   63.9900 C   0  0  0  0  0  0  0  0  0  0  0  0
  130.3690  123.7280   64.5440 C   0  0  0  0  0  0  0  0  0  0  0  0
  129.2800  127.0010   64.7320 C   0  0  0  0  0  0  0  0  0  0  0  0
  129.4040  127.0930   63.2760 C   0  0  0  0  0  0  0  0  0  0  0  0
  129.5010  127.1680   62.1250 N   0  0  0  0  0  0  0  0  0  0  0  0
  129.2600  130.6320   60.7190 C   0  0  0  0  0  0  0  0  0  0  0  0
  129.7070  131.1870   59.5240 C   0  0  0  0  0  0  0  0  0  0  0  0
  1  2  1  0
  2  3  1  0
  3  4  1  0
  4  5  2  0
  4  6  1  0
  6  7  2  0
  7  8  1  0
  8  9  2  0
  9 10  1  0
 10 11  1  0
 11 12  2  0
 11 13  1  0
 13 14  1  0
 14 15  1  0
 15 16  2  0
 16 17  1  0
 17 18  1  0
 18 19  2  0
 19 20  1  0
 20 21  2  0
 21 22  1  0
 22 23  1  0
 21 24  1  0
 24 25  2  0
 17 26  2  0
 26 27  1  0
 27 28  1  0
 28 29  2  0
 29 30  1  0
 30 31  2  0
 31 32  1  0
 32 33  1  0
 31 34  1  0
 34 35  2  0
 27 36  2  0
 36 37  1  0
 37 38  3  0
  9 39  1  0
 39 40  2  0
 40  6  1  0
 36 15  1  0
 25 18  1  0
 35 28  1  0
M  END
>  <Binding energies>  (2) 
[-8.64]

>  <Ligand effiencies>  (2) 
[-0.2107317073170732]

>  <Interactions>  (2) 
["V-A:ILE:369:CG2:3237, V-A:ILE:369:CD1:3239, V-B:GLU:543:CD:9880, H-A:GLY:454:N:4050, H-A:GLU:543:OE1:4909, V-B:GLU:543:CG:9879, V-A:GLU:543:CD:4908, V-A:ARG:545:CZ:4926, V-A:LEU:475:CD2:4259, V-A:HIS:456:CE1:4070, V-A:GLY:454:CA:4049, V-A:MET:535:CE:4835, V-B:GLU:543:C:9874, V-B:GLU:543:CB:9878, V-B:HIS:456:CD2:9039, V-B:HIS:456:CE1:9041, V-B:GLY:544:C:9884, V-B:GLY:544:CA:9886, V-A:GLU:543:CG:4907, H-B:TYR:484:OH:9319, V-B:TYR:484:CZ:9318, V-A:PRO:540:CA:4883, V-A:PRO:540:CB:4885, V-A:PRO:540:CD:4887, V-A:PRO:540:N:4884, V-A:TYR:539:CE1:4875, V-A:TYR:539:CZ:4877, V-A:PRO:540:C:4881, H-A:TYR:539:N:4870, V-A:TYR:539:CA:4869, V-A:TYR:539:C:4867, H-B:LYS:547:NZ:9923"]

$$$$
1b_Grossjean_2025
     RDKit          3D

 25 26  0  0  0  0  0  0  0  0999 V2000
  129.4920  131.1110   73.2620 C   0  0  0  0  0  0  0  0  0  0  0  0
  130.0740  129.8220   73.1240 O   0  0  0  0  0  0  0  0  0  0  0  0
  129.3030  128.7290   72.8890 C   0  0  0  0  0  0  0  0  0  0  0  0
  128.5210  128.2570   73.7200 O   0  0  0  0  0  0  0  0  0  0  0  0
  129.4900  128.1550   71.5140 C   0  0  0  0  0  0  0  0  0  0  0  0
  130.6940  128.2960   70.8080 C   0  0  0  0  0  0  0  0  0  0  0  0
  130.8340  127.7520   69.5350 C   0  0  0  0  0  0  0  0  0  0  0  0
  129.7800  127.0580   68.9410 C   0  0  0  0  0  0  0  0  0  0  0  0
  130.0340  126.5530   67.6510 N   0  0  0  0  0  0  0  0  0  0  0  0
  130.0260  125.2810   67.1970 C   0  0  0  0  0  0  0  0  0  0  0  0
  129.7760  124.2820   67.8720 O   0  0  0  0  0  0  0  0  0  0  0  0
  130.3510  125.1130   65.7120 C   0  0  0  0  0  0  0  0  0  0  0  0
  130.2480  123.3770   65.1800 S   0  0  0  0  0  0  0  0  0  0  0  0
  130.8660  123.2970   63.5120 C   0  0  0  0  0  0  0  0  0  0  0  0
  129.9980  122.7330   62.6350 N   0  0  0  0  0  0  0  0  0  0  0  0
  130.3660  122.6220   61.3370 C   0  0  0  0  0  0  0  0  0  0  0  0
  129.3400  121.9960   60.4110 C   0  0  0  0  0  0  0  0  0  0  0  0
  131.6050  123.0540   60.8680 C   0  0  0  0  0  0  0  0  0  0  0  0
  132.5150  123.6160   61.7690 C   0  0  0  0  0  0  0  0  0  0  0  0
  133.8730  124.0670   61.2340 C   0  0  0  0  0  0  0  0  0  0  0  0
  132.1530  123.7420   63.1290 C   0  0  0  0  0  0  0  0  0  0  0  0
  133.1060  124.2870   64.0990 C   0  0  0  0  0  0  0  0  0  0  0  0
  133.8600  124.7180   64.8630 N   0  0  0  0  0  0  0  0  0  0  0  0
  128.5730  126.9130   69.6400 C   0  0  0  0  0  0  0  0  0  0  0  0
  128.4340  127.4560   70.9140 C   0  0  0  0  0  0  0  0  0  0  0  0
  1  2  1  0
  2  3  1  0
  3  4  2  0
  3  5  1  0
  5  6  2  0
  6  7  1  0
  7  8  2  0
  8  9  1  0
  9 10  1  0
 10 11  2  0
 10 12  1  0
 12 13  1  0
 13 14  1  0
 14 15  2  0
 15 16  1  0
 16 17  1  0
 16 18  2  0
 18 19  1  0
 19 20  1  0
 19 21  2  0
 21 22  1  0
 22 23  3  0
  8 24  1  0
 24 25  2  0
 25  5  1  0
 21 14  1  0
M  END
>  <Binding energies>  (3) 
[-7.8]

>  <Ligand effiencies>  (3) 
[-0.3]

>  <Interactions>  (3) 
["V-A:ILE:369:CD1:3239, H-A:ARG:545:NH2:4928, H-A:GLY:454:N:4050, H-A:TYR:484:OH:4348, V-B:GLU:543:CG:9879, H-A:ARG:545:NE:4924, V-A:GLU:543:CD:4908, V-A:ARG:545:CZ:4926, H-A:GLU:543:OE2:4910, V-A:LEU:475:CD2:4259, V-A:HIS:456:CE1:4070, V-A:GLY:454:CA:4049, V-B:TYR:539:C:9839, V-B:PRO:540:CA:9855, V-B:TYR:539:CE2:9848, V-B:TYR:539:CD2:9846, V-A:TYR:484:CE2:4346, V-A:GLU:543:C:4902, V-B:GLU:543:C:9874, V-B:GLU:543:CB:9878, V-A:GLY:544:C:4912, V-A:GLU:543:CB:4906, V-B:HIS:456:CD2:9039, V-B:HIS:456:CE1:9041, H-A:LYS:547:NZ:4951, H-B:LYS:547:NZ:9923, V-A:GLY:544:CA:4914, V-A:LYS:547:CE:4950"]

$$$$
1c_Grossjean_2025
     RDKit          3D

 23 24  0  0  0  0  0  0  0  0999 V2000
  128.6090  128.7750   73.4920 C   0  0  0  0  0  0  0  0  0  0  0  0
  129.8570  128.8450   72.8130 O   0  0  0  0  0  0  0  0  0  0  0  0
  129.9610  128.3210   71.5390 C   0  0  0  0  0  0  0  0  0  0  0  0
  128.8170  127.7130   71.0210 C   0  0  0  0  0  0  0  0  0  0  0  0
  128.8220  127.1570   69.7450 C   0  0  0  0  0  0  0  0  0  0  0  0
  129.9850  127.2100   68.9620 C   0  0  0  0  0  0  0  0  0  0  0  0
  130.1030  126.6710   67.6660 N   0  0  0  0  0  0  0  0  0  0  0  0
  129.8890  125.4070   67.2400 C   0  0  0  0  0  0  0  0  0  0  0  0
  129.5190  124.4690   67.9460 O   0  0  0  0  0  0  0  0  0  0  0  0
  130.1320  125.1680   65.7490 C   0  0  0  0  0  0  0  0  0  0  0  0
  129.9870  123.4100   65.3130 S   0  0  0  0  0  0  0  0  0  0  0  0
  130.6110  123.1870   63.6590 C   0  0  0  0  0  0  0  0  0  0  0  0
  129.7350  122.5630   62.8310 N   0  0  0  0  0  0  0  0  0  0  0  0
  130.0990  122.3380   61.5470 C   0  0  0  0  0  0  0  0  0  0  0  0
  129.0640  121.6460   60.6800 C   0  0  0  0  0  0  0  0  0  0  0  0
  131.3420  122.7110   61.0420 C   0  0  0  0  0  0  0  0  0  0  0  0
  132.2630  123.3330   61.8930 C   0  0  0  0  0  0  0  0  0  0  0  0
  133.6260  123.7170   61.3200 C   0  0  0  0  0  0  0  0  0  0  0  0
  131.9050  123.5760   63.2390 C   0  0  0  0  0  0  0  0  0  0  0  0
  132.8750  124.1760   64.1590 C   0  0  0  0  0  0  0  0  0  0  0  0
  133.6410  124.6510   64.8840 N   0  0  0  0  0  0  0  0  0  0  0  0
  131.1350  127.8070   69.4810 C   0  0  0  0  0  0  0  0  0  0  0  0
  131.1260  128.3620   70.7570 C   0  0  0  0  0  0  0  0  0  0  0  0
  1  2  1  0
  2  3  1  0
  3  4  2  0
  4  5  1  0
  5  6  2  0
  6  7  1  0
  7  8  1  0
  8  9  2  0
  8 10  1  0
 10 11  1  0
 11 12  1  0
 12 13  2  0
 13 14  1  0
 14 15  1  0
 14 16  2  0
 16 17  1  0
 17 18  1  0
 17 19  2  0
 19 20  1  0
 20 21  3  0
  6 22  1  0
 22 23  2  0
 23  3  1  0
 19 12  1  0
M  END
>  <Binding energies>  (4) 
[-7.11]

>  <Ligand effiencies>  (4) 
[-0.29625]

>  <Interactions>  (4) 
["V-A:ILE:369:CD1:3239, H-A:ARG:545:NH2:4928, H-A:GLY:454:N:4050, H-A:GLU:543:OE1:4909, H-A:TYR:484:OH:4348, V-B:GLU:543:CG:9879, H-A:ARG:545:NE:4924, V-A:GLU:543:CD:4908, H-A:GLU:543:OE2:4910, V-A:LEU:475:CD2:4259, V-A:HIS:456:CE1:4070, V-A:GLY:454:CA:4049, V-B:TYR:539:C:9839, V-B:PRO:540:CA:9855, V-B:TYR:539:CE2:9848, V-B:PRO:540:C:9853, V-B:TYR:539:CD2:9846, V-A:GLU:543:C:4902, V-B:GLU:543:CA:9876, V-B:GLU:543:CB:9878, V-A:GLY:544:C:4912, V-A:GLU:543:CB:4906, V-B:HIS:456:CD2:9039, V-B:HIS:456:CE1:9041, V-A:ARG:545:CG:4922, H-A:LYS:547:NZ:4951, V-A:GLY:544:CA:4914"]

$$$$
1d_Grossjean_2025
     RDKit          3D

 21 22  0  0  0  0  0  0  0  0999 V2000
  128.6010  122.3710   62.0320 C   0  0  0  0  0  0  0  0  0  0  0  0
  129.7530  122.9910   62.7990 C   0  0  0  0  0  0  0  0  0  0  0  0
  129.5480  123.6750   63.9960 C   0  0  0  0  0  0  0  0  0  0  0  0
  130.6490  124.2180   64.6660 C   0  0  0  0  0  0  0  0  0  0  0  0
  130.4020  124.9490   65.9840 C   0  0  0  0  0  0  0  0  0  0  0  0
  131.9400  124.0690   64.1080 C   0  0  0  0  0  0  0  0  0  0  0  0
  133.1130  124.5880   64.8160 C   0  0  0  0  0  0  0  0  0  0  0  0
  134.0370  124.9990   65.3780 N   0  0  0  0  0  0  0  0  0  0  0  0
  132.0510  123.3810   62.8770 C   0  0  0  0  0  0  0  0  0  0  0  0
  133.5930  123.1020   62.0350 S   0  0  0  0  0  0  0  0  0  0  0  0
  133.1990  122.5150   60.3600 C   0  0  0  0  0  0  0  0  0  0  0  0
  132.8330  121.0300   60.3410 C   0  0  0  0  0  0  0  0  0  0  0  0
  133.6960  120.2030   60.0460 O   0  0  0  0  0  0  0  0  0  0  0  0
  131.5580  120.7440   60.6840 N   0  0  0  0  0  0  0  0  0  0  0  0
  130.8990  119.5030   60.7510 C   0  0  0  0  0  0  0  0  0  0  0  0
  129.8910  119.4040   61.7140 C   0  0  0  0  0  0  0  0  0  0  0  0
  129.1720  118.2210   61.8610 C   0  0  0  0  0  0  0  0  0  0  0  0
  129.4570  117.1340   61.0380 C   0  0  0  0  0  0  0  0  0  0  0  0
  130.4530  117.2220   60.0680 C   0  0  0  0  0  0  0  0  0  0  0  0
  131.1740  118.4040   59.9200 C   0  0  0  0  0  0  0  0  0  0  0  0
  130.9790  122.8390   62.2460 N   0  0  0  0  0  0  0  0  0  0  0  0
  1  2  1  0
  2  3  2  0
  3  4  1  0
  4  5  1  0
  4  6  2  0
  6  7  1  0
  7  8  3  0
  6  9  1  0
  9 10  1  0
 10 11  1  0
 11 12  1  0
 12 13  2  0
 12 14  1  0
 14 15  1  0
 15 16  2  0
 16 17  1  0
 17 18  2  0
 18 19  1  0
 19 20  2  0
  9 21  2  0
 21  2  1  0
 20 15  1  0
M  END
>  <Binding energies>  (5) 
[-6.68]

>  <Ligand effiencies>  (5) 
[-0.30363636363636365]

>  <Interactions>  (5) 
["V-A:ILE:369:CG2:3237, V-B:GLU:543:CD:9880, H-A:ARG:545:NH2:4928, H-A:GLY:454:N:4050, H-A:TYR:484:OH:4348, V-B:GLU:543:CG:9879, H-A:ARG:545:NE:4924, V-A:ARG:545:CZ:4926, V-A:LEU:475:CD2:4259, V-B:ALA:541:CB:9864, V-A:GLY:454:CA:4049, V-B:TYR:539:C:9839, V-B:TYR:539:CE2:9848, V-B:PRO:540:C:9853, V-B:TYR:539:CD2:9846, V-B:TYR:539:CG:9844, V-B:ALA:541:CA:9862, V-A:TYR:484:CE2:4346, V-A:PRO:482:CB:4326, V-A:HIS:383:CE1:3393, V-A:PRO:482:CG:4327, V-A:HIS:383:NE2:3394, H-A:SER:385:OG:3410, V-A:LEU:475:CG:4257, V-A:LEU:475:CD1:4258, V-B:VAL:344:CG1:7972, V-B:TYR:539:CB:9843"]

$$$$
1e_Grossjean_2025
     RDKit          3D

 22 23  0  0  0  0  0  0  0  0999 V2000
  127.4680  126.9800   71.3200 C   0  0  0  0  0  0  0  0  0  0  0  0
  128.7400  127.2400   70.5360 C   0  0  0  0  0  0  0  0  0  0  0  0
  129.7630  128.0430   71.0480 C   0  0  0  0  0  0  0  0  0  0  0  0
  130.9040  128.2400   70.2700 C   0  0  0  0  0  0  0  0  0  0  0  0
  130.9950  127.6390   69.0120 C   0  0  0  0  0  0  0  0  0  0  0  0
  129.9350  126.8420   68.5610 C   0  0  0  0  0  0  0  0  0  0  0  0
  130.0790  126.2730   67.2830 N   0  0  0  0  0  0  0  0  0  0  0  0
  129.8690  124.9940   66.9040 C   0  0  0  0  0  0  0  0  0  0  0  0
  129.5130  124.0840   67.6550 O   0  0  0  0  0  0  0  0  0  0  0  0
  130.1300  124.6850   65.4290 C   0  0  0  0  0  0  0  0  0  0  0  0
  129.6660  122.9810   64.9970 S   0  0  0  0  0  0  0  0  0  0  0  0
  130.0870  122.6900   63.2900 C   0  0  0  0  0  0  0  0  0  0  0  0
  131.4210  122.5530   63.0790 N   0  0  0  0  0  0  0  0  0  0  0  0
  131.8630  122.3310   61.8190 C   0  0  0  0  0  0  0  0  0  0  0  0
  133.3640  122.1810   61.6630 C   0  0  0  0  0  0  0  0  0  0  0  0
  131.0040  122.2490   60.7260 C   0  0  0  0  0  0  0  0  0  0  0  0
  129.6300  122.4130   60.9270 C   0  0  0  0  0  0  0  0  0  0  0  0
  128.7110  122.3360   59.7090 C   0  0  0  0  0  0  0  0  0  0  0  0
  129.1460  122.6490   62.2340 C   0  0  0  0  0  0  0  0  0  0  0  0
  127.7160  122.8820   62.4540 C   0  0  0  0  0  0  0  0  0  0  0  0
  126.5860  123.0650   62.6250 N   0  0  0  0  0  0  0  0  0  0  0  0
  128.8140  126.6490   69.3170 N   0  0  0  0  0  0  0  0  0  0  0  0
  1  2  1  0
  2  3  2  0
  3  4  1  0
  4  5  2  0
  5  6  1  0
  6  7  1  0
  7  8  1  0
  8  9  2  0
  8 10  1  0
 10 11  1  0
 11 12  1  0
 12 13  2  0
 13 14  1  0
 14 15  1  0
 14 16  2  0
 16 17  1  0
 17 18  1  0
 17 19  2  0
 19 20  1  0
 20 21  3  0
  6 22  2  0
 22  2  1  0
 19 12  1  0
M  END
>  <Binding energies>  (6) 
[-6.87]

>  <Ligand effiencies>  (6) 
[-0.29869565217391303]

>  <Interactions>  (6) 
["V-A:ILE:369:CG2:3237, V-B:GLU:543:CD:9880, H-A:GLU:543:OE1:4909, H-A:TYR:484:OH:4348, V-B:GLU:543:CG:9879, V-A:GLU:543:CD:4908, H-A:GLU:543:OE2:4910, V-A:LEU:475:CD2:4259, V-A:HIS:456:CE1:4070, V-B:ALA:541:CB:9864, V-B:TYR:539:C:9839, H-B:ALA:541:N:9863, V-B:PRO:540:CA:9855, V-B:PRO:540:N:9856, V-B:TYR:539:CE2:9848, V-B:TYR:539:CD2:9846, V-B:ALA:541:CA:9862, V-A:TYR:484:CE2:4346, V-A:GLU:543:C:4902, V-B:GLU:543:C:9874, V-B:GLU:543:CA:9876, V-B:GLU:543:CB:9878, V-A:GLY:544:C:4912, V-A:GLU:543:CB:4906, V-B:HIS:456:CD2:9039, V-B:HIS:456:CE1:9041, V-B:GLY:544:C:9884, V-B:GLY:544:CA:9886, V-A:ARG:545:CG:4922"]

$$$$
1f_Grossjean_2025
     RDKit          3D

 21 22  0  0  0  0  0  0  0  0999 V2000
  130.0890  125.7150   57.9670 C   0  0  0  0  0  0  0  0  0  0  0  0
  130.9580  124.9060   58.9130 C   0  0  0  0  0  0  0  0  0  0  0  0
  132.3480  124.9630   58.8560 C   0  0  0  0  0  0  0  0  0  0  0  0
  133.0960  124.1860   59.7460 C   0  0  0  0  0  0  0  0  0  0  0  0
  134.6190  124.2510   59.6520 C   0  0  0  0  0  0  0  0  0  0  0  0
  132.4250  123.3700   60.6860 C   0  0  0  0  0  0  0  0  0  0  0  0
  133.1910  122.5070   61.5880 C   0  0  0  0  0  0  0  0  0  0  0  0
  133.7970  121.8260   62.3010 N   0  0  0  0  0  0  0  0  0  0  0  0
  131.0100  123.3960   60.6910 C   0  0  0  0  0  0  0  0  0  0  0  0
  129.9950  122.4390   61.7990 S   0  0  0  0  0  0  0  0  0  0  0  0
  128.4630  123.3730   62.1290 C   0  0  0  0  0  0  0  0  0  0  0  0
  127.3240  123.1210   61.1290 C   0  0  0  0  0  0  0  0  0  0  0  0
  126.2070  122.7880   61.5260 O   0  0  0  0  0  0  0  0  0  0  0  0
  127.6710  123.2720   59.8340 N   0  0  0  0  0  0  0  0  0  0  0  0
  126.8900  123.1290   58.6710 C   0  0  0  0  0  0  0  0  0  0  0  0
  125.6580  123.7660   58.4280 C   0  0  0  0  0  0  0  0  0  0  0  0
  124.9880  123.5370   57.2240 C   0  0  0  0  0  0  0  0  0  0  0  0
  125.5660  122.6780   56.2890 C   0  0  0  0  0  0  0  0  0  0  0  0
  126.7540  122.0560   56.4970 N   0  0  0  0  0  0  0  0  0  0  0  0
  127.3940  122.2890   57.6720 C   0  0  0  0  0  0  0  0  0  0  0  0
  130.2940  124.1360   59.8070 N   0  0  0  0  0  0  0  0  0  0  0  0
  1  2  1  0
  2  3  2  0
  3  4  1  0
  4  5  1  0
  4  6  2  0
  6  7  1  0
  7  8  3  0
  6  9  1  0
  9 10  1  0
 10 11  1  0
 11 12  1  0
 12 13  2  0
 12 14  1  0
 14 15  1  0
 15 16  2  0
 16 17  1  0
 17 18  2  0
 18 19  1  0
 19 20  2  0
  9 21  2  0
 21  2  1  0
 20 15  1  0
M  END
>  <Binding energies>  (7) 
[-6.59]

>  <Ligand effiencies>  (7) 
[-0.29954545454545456]

>  <Interactions>  (7) 
["V-A:ILE:369:CG2:3237, V-A:ILE:369:CD1:3239, V-A:ASP:366:CB:3212, H-A:GLY:454:N:4050, V-A:ASP:366:CA:3210, V-A:ASP:366:CG:3213, V-A:ILE:369:CB:3236, V-A:LEU:475:CD2:4259, V-B:TYR:539:C:9839, H-B:ALA:541:N:9863, V-B:PRO:540:CD:9859, V-B:PRO:540:CA:9855, V-B:PRO:540:CB:9857, V-B:PRO:540:N:9856, V-B:LEU:363:CD1:8160, V-B:MET:535:CE:9807, V-B:TYR:539:CZ:9849, V-B:TYR:539:CE2:9848, V-B:TYR:539:CD1:9845, V-B:TYR:539:CA:9841, H-B:TYR:539:N:9842, V-B:PRO:540:C:9853, V-B:TYR:539:CD2:9846, V-B:ILE:538:CG2:9835, V-B:TYR:539:CG:9844, V-A:ASP:366:C:3208, V-A:ILE:369:CG1:3238"]

$$$$
1g_Grossjean_2025
     RDKit          3D

 22 23  0  0  0  0  0  0  0  0999 V2000
  128.9500  121.9750   60.5890 C   0  0  0  0  0  0  0  0  0  0  0  0
  130.0810  122.5980   61.3850 C   0  0  0  0  0  0  0  0  0  0  0  0
  131.2530  123.0340   60.7690 C   0  0  0  0  0  0  0  0  0  0  0  0
  132.2690  123.5860   61.5570 C   0  0  0  0  0  0  0  0  0  0  0  0
  133.5500  124.0440   60.8620 C   0  0  0  0  0  0  0  0  0  0  0  0
  132.0790  123.6960   62.9530 C   0  0  0  0  0  0  0  0  0  0  0  0
  133.1500  124.2220   63.8040 C   0  0  0  0  0  0  0  0  0  0  0  0
  133.9980  124.6370   64.4730 N   0  0  0  0  0  0  0  0  0  0  0  0
  130.8480  123.2510   63.4890 C   0  0  0  0  0  0  0  0  0  0  0  0
  130.4390  123.3230   65.2190 S   0  0  0  0  0  0  0  0  0  0  0  0
  130.8940  124.9810   65.8120 C   0  0  0  0  0  0  0  0  0  0  0  0
  129.8970  125.5140   66.8410 C   0  0  0  0  0  0  0  0  0  0  0  0
  129.5200  124.7930   67.7660 O   0  0  0  0  0  0  0  0  0  0  0  0
  129.4750  126.7780   66.6620 N   0  0  0  0  0  0  0  0  0  0  0  0
  128.5710  127.5050   67.5530 C   0  0  0  0  0  0  0  0  0  0  0  0
  128.9980  127.5030   69.0180 C   0  0  0  0  0  0  0  0  0  0  0  0
  128.1360  126.9950   69.9950 C   0  0  0  0  0  0  0  0  0  0  0  0
  128.5250  126.9920   71.3320 C   0  0  0  0  0  0  0  0  0  0  0  0
  129.7770  127.4920   71.6870 C   0  0  0  0  0  0  0  0  0  0  0  0
  130.6420  127.9950   70.7180 C   0  0  0  0  0  0  0  0  0  0  0  0
  130.2530  128.0000   69.3810 C   0  0  0  0  0  0  0  0  0  0  0  0
  129.8770  122.6960   62.7200 N   0  0  0  0  0  0  0  0  0  0  0  0
  1  2  1  0
  2  3  2  0
  3  4  1  0
  4  5  1  0
  4  6  2  0
  6  7  1  0
  7  8  3  0
  6  9  1  0
  9 10  1  0
 10 11  1  0
 11 12  1  0
 12 13  2  0
 12 14  1  0
 14 15  1  0
 15 16  1  0
 16 17  2  0
 17 18  1  0
 18 19  2  0
 19 20  1  0
 20 21  2  0
  9 22  2  0
 22  2  1  0
 21 16  1  0
M  END
>  <Binding energies>  (8) 
[-6.91]

>  <Ligand effiencies>  (8) 
[-0.30043478260869566]

>  <Interactions>  (8) 
["V-A:ILE:369:CD1:3239, V-B:GLU:543:CD:9880, H-A:ARG:545:NH2:4928, H-A:GLY:454:N:4050, H-A:GLU:543:OE1:4909, H-A:TYR:484:OH:4348, V-B:GLU:543:CG:9879, H-A:ARG:545:NE:4924, V-A:GLU:543:CD:4908, H-A:GLU:543:OE2:4910, V-A:LEU:475:CD2:4259, V-A:HIS:456:CE1:4070, V-A:GLY:454:CA:4049, V-B:TYR:539:C:9839, V-B:PRO:540:CA:9855, V-B:TYR:539:CE2:9848, V-B:TYR:539:CD2:9846, V-A:GLU:543:C:4902, V-B:GLU:543:C:9874, V-A:TYR:484:CZ:4347, V-B:GLU:543:CB:9878, V-A:GLY:544:C:4912, V-A:GLU:543:CB:4906, V-B:HIS:456:CE1:9041"]

$$$$
1h_Grossjean_2025
     RDKit          3D

 28 29  0  0  0  0  0  0  0  0999 V2000
  126.7500  126.8590   61.2280 C   0  0  0  0  0  0  0  0  0  0  0  0
  127.0090  125.4670   61.0860 O   0  0  0  0  0  0  0  0  0  0  0  0
  127.7360  125.0200   59.9980 C   0  0  0  0  0  0  0  0  0  0  0  0
  128.9900  125.5310   59.6300 C   0  0  0  0  0  0  0  0  0  0  0  0
  129.6620  125.0400   58.5090 C   0  0  0  0  0  0  0  0  0  0  0  0
  131.0350  125.5890   58.1340 C   0  0  0  0  0  0  0  0  0  0  0  0
  132.0740  125.3250   59.1290 N   0  0  0  0  0  0  0  0  0  0  0  0
  133.2230  124.6650   58.8960 C   0  0  0  0  0  0  0  0  0  0  0  0
  133.5460  124.2240   57.7930 O   0  0  0  0  0  0  0  0  0  0  0  0
  134.1490  124.4660   60.0960 C   0  0  0  0  0  0  0  0  0  0  0  0
  133.8270  122.8940   60.9520 S   0  0  0  0  0  0  0  0  0  0  0  0
  132.2250  123.0070   61.7310 C   0  0  0  0  0  0  0  0  0  0  0  0
  131.2090  122.3770   61.0840 N   0  0  0  0  0  0  0  0  0  0  0  0
  129.9680  122.4190   61.6230 C   0  0  0  0  0  0  0  0  0  0  0  0
  128.8880  121.6900   60.8460 C   0  0  0  0  0  0  0  0  0  0  0  0
  129.6870  123.0840   62.8150 C   0  0  0  0  0  0  0  0  0  0  0  0
  130.7240  123.7380   63.4890 C   0  0  0  0  0  0  0  0  0  0  0  0
  130.3950  124.4590   64.7940 C   0  0  0  0  0  0  0  0  0  0  0  0
  132.0280  123.7060   62.9440 C   0  0  0  0  0  0  0  0  0  0  0  0
  133.1330  124.3850   63.6270 C   0  0  0  0  0  0  0  0  0  0  0  0
  134.0060  124.9210   64.1660 N   0  0  0  0  0  0  0  0  0  0  0  0
  129.0960  124.0030   57.7670 C   0  0  0  0  0  0  0  0  0  0  0  0
  127.8450  123.4680   58.1150 C   0  0  0  0  0  0  0  0  0  0  0  0
  127.2240  122.4430   57.4250 O   0  0  0  0  0  0  0  0  0  0  0  0
  126.3990  122.7520   56.3070 C   0  0  0  0  0  0  0  0  0  0  0  0
  127.1700  123.9930   59.2270 C   0  0  0  0  0  0  0  0  0  0  0  0
  125.9490  123.4760   59.5840 O   0  0  0  0  0  0  0  0  0  0  0  0
  124.8410  124.2360   59.1200 C   0  0  0  0  0  0  0  0  0  0  0  0
  1  2  1  0
  2  3  1  0
  3  4  2  0
  4  5  1  0
  5  6  1  0
  6  7  1  0
  7  8  1  0
  8  9  2  0
  8 10  1  0
 10 11  1  0
 11 12  1  0
 12 13  2  0
 13 14  1  0
 14 15  1  0
 14 16  2  0
 16 17  1  0
 17 18  1  0
 17 19  2  0
 19 20  1  0
 20 21  3  0
  5 22  2  0
 22 23  1  0
 23 24  1  0
 24 25  1  0
 23 26  2  0
 26 27  1  0
 27 28  1  0
 26  3  1  0
 19 12  1  0
M  END
>  <Binding energies>  (9) 
[-5.94]

>  <Ligand effiencies>  (9) 
[-0.20482758620689656]

>  <Interactions>  (9) 
["V-A:ILE:369:CG2:3237, V-A:ILE:369:CD1:3239, V-A:ASP:366:CB:3212, H-A:ARG:545:NH1:4927, H-A:ARG:545:NH2:4928, H-A:GLY:454:N:4050, V-A:ASP:366:CA:3210, V-A:ASP:366:CG:3213, V-B:GLU:543:CG:9879, H-A:ARG:545:NE:4924, V-A:ILE:369:CB:3236, V-A:ARG:545:CZ:4926, V-B:TYR:539:C:9839, V-B:ASP:366:CG:8184, V-B:PRO:540:CA:9855, V-B:PRO:540:CB:9857, V-B:PRO:540:N:9856, V-B:MET:535:CE:9807, V-B:TYR:539:CZ:9849, V-B:TYR:539:CE2:9848, H-B:TYR:539:N:9842, V-B:PRO:540:C:9853, V-B:TYR:539:CE1:9847, V-B:TYR:539:CD2:9846, H-B:TYR:539:OH:9850"]

$$$$
1i_Grossjean_2025
     RDKit          3D

 20 21  0  0  0  0  0  0  0  0999 V2000
  128.5190  122.0230   62.0400 C   0  0  0  0  0  0  0  0  0  0  0  0
  129.6830  122.7240   62.7130 C   0  0  0  0  0  0  0  0  0  0  0  0
  129.4850  123.6630   63.7230 C   0  0  0  0  0  0  0  0  0  0  0  0
  130.5980  124.2710   64.3140 C   0  0  0  0  0  0  0  0  0  0  0  0
  130.3550  125.2840   65.4310 C   0  0  0  0  0  0  0  0  0  0  0  0
  131.8940  123.9220   63.8690 C   0  0  0  0  0  0  0  0  0  0  0  0
  133.0740  124.5090   64.5090 C   0  0  0  0  0  0  0  0  0  0  0  0
  134.0050  124.9730   65.0170 N   0  0  0  0  0  0  0  0  0  0  0  0
  132.0000  122.9770   62.8210 C   0  0  0  0  0  0  0  0  0  0  0  0
  133.5480  122.4260   62.1390 S   0  0  0  0  0  0  0  0  0  0  0  0
  133.2610  122.0060   60.3940 C   0  0  0  0  0  0  0  0  0  0  0  0
  132.8470  120.5430   60.2150 C   0  0  0  0  0  0  0  0  0  0  0  0
  133.5930  119.7750   59.6060 O   0  0  0  0  0  0  0  0  0  0  0  0
  131.6590  120.2030   60.7600 N   0  0  0  0  0  0  0  0  0  0  0  0
  131.0500  118.9570   60.7390 C   0  0  0  0  0  0  0  0  0  0  0  0
  130.0030  118.6070   61.5900 C   0  0  0  0  0  0  0  0  0  0  0  0
  129.6880  117.3100   61.2570 C   0  0  0  0  0  0  0  0  0  0  0  0
  130.5050  116.8990   60.2580 O   0  0  0  0  0  0  0  0  0  0  0  0
  131.3650  117.9510   59.9390 N   0  0  0  0  0  0  0  0  0  0  0  0
  130.9150  122.3790   62.2680 N   0  0  0  0  0  0  0  0  0  0  0  0
  1  2  1  0
  2  3  2  0
  3  4  1  0
  4  5  1  0
  4  6  2  0
  6  7  1  0
  7  8  3  0
  6  9  1  0
  9 10  1  0
 10 11  1  0
 11 12  1  0
 12 13  2  0
 12 14  1  0
 14 15  1  0
 15 16  1  0
 16 17  2  0
 17 18  1  0
 18 19  1  0
  9 20  2  0
 20  2  1  0
 19 15  2  0
M  END
>  <Binding energies>  (10) 
[-6.69]

>  <Ligand effiencies>  (10) 
[-0.3185714285714286]

>  <Interactions>  (10) 
["V-A:ILE:369:CG2:3237, V-B:GLU:543:CD:9880, H-A:ARG:545:NH1:4927, H-A:ARG:545:NH2:4928, H-A:GLY:454:N:4050, H-A:TYR:484:OH:4348, V-B:GLU:543:CG:9879, H-A:ARG:545:NE:4924, V-A:ARG:545:CZ:4926, V-A:LEU:475:CD2:4259, V-B:ALA:541:CB:9864, V-A:GLY:454:CA:4049, V-B:PRO:540:CA:9855, V-B:TYR:539:CE2:9848, V-B:PRO:540:C:9853, V-B:TYR:539:CD2:9846, V-B:ALA:541:CA:9862, V-A:SER:385:CB:3409, V-A:PRO:482:CB:4326, V-A:PRO:482:CG:4327, H-A:SER:385:OG:3410, V-A:LEU:475:CG:4257, V-A:LEU:475:CD1:4258, H-A:HIS:383:HE2:3395"]

$$$$
1k_Grossjean_2025
     RDKit          3D

 25 25  0  0  0  0  0  0  0  0999 V2000
  133.2300  131.6250   61.9630 C   0  0  0  0  0  0  0  0  0  0  0  0
  131.9030  132.1260   61.9360 O   0  0  0  0  0  0  0  0  0  0  0  0
  130.9680  131.2240   61.3600 C   0  0  0  0  0  0  0  0  0  0  0  0
  130.6430  131.6680   59.9270 C   0  0  0  0  0  0  0  0  0  0  0  0
  131.8060  131.5450   59.1190 O   0  0  0  0  0  0  0  0  0  0  0  0
  131.6150  130.7420   57.9610 C   0  0  0  0  0  0  0  0  0  0  0  0
  132.0930  129.3130   58.2470 C   0  0  0  0  0  0  0  0  0  0  0  0
  130.9660  128.4610   58.4130 O   0  0  0  0  0  0  0  0  0  0  0  0
  131.1330  127.4850   59.4320 C   0  0  0  0  0  0  0  0  0  0  0  0
  131.5510  126.1440   58.8000 C   0  0  0  0  0  0  0  0  0  0  0  0
  132.5330  125.3960   59.5860 N   0  0  0  0  0  0  0  0  0  0  0  0
  133.4740  124.5810   59.0770 C   0  0  0  0  0  0  0  0  0  0  0  0
  133.6100  124.3830   57.8680 O   0  0  0  0  0  0  0  0  0  0  0  0
  134.3840  123.8940   60.1080 C   0  0  0  0  0  0  0  0  0  0  0  0
  133.6290  122.5080   61.0280 S   0  0  0  0  0  0  0  0  0  0  0  0
  132.0220  123.0080   61.6290 C   0  0  0  0  0  0  0  0  0  0  0  0
  130.9570  122.5600   60.9160 N   0  0  0  0  0  0  0  0  0  0  0  0
  129.7110  122.9100   61.3110 C   0  0  0  0  0  0  0  0  0  0  0  0
  128.5750  122.3790   60.4590 C   0  0  0  0  0  0  0  0  0  0  0  0
  129.4740  123.7080   62.4290 C   0  0  0  0  0  0  0  0  0  0  0  0
  130.5620  124.1700   63.1760 C   0  0  0  0  0  0  0  0  0  0  0  0
  130.2800  125.0430   64.3970 C   0  0  0  0  0  0  0  0  0  0  0  0
  131.8710  123.8190   62.7780 C   0  0  0  0  0  0  0  0  0  0  0  0
  133.0300  124.2920   63.5400 C   0  0  0  0  0  0  0  0  0  0  0  0
  133.9450  124.6660   64.1430 N   0  0  0  0  0  0  0  0  0  0  0  0
  1  2  1  0
  2  3  1  0
  3  4  1  0
  4  5  1  0
  5  6  1  0
  6  7  1  0
  7  8  1  0
  8  9  1  0
  9 10  1  0
 10 11  1  0
 11 12  1  0
 12 13  2  0
 12 14  1  0
 14 15  1  0
 15 16  1  0
 16 17  2  0
 17 18  1  0
 18 19  1  0
 18 20  2  0
 20 21  1  0
 21 22  1  0
 21 23  2  0
 23 24  1  0
 24 25  3  0
 23 16  1  0
M  END
>  <Binding energies>  (11) 
[-5.25]

>  <Ligand effiencies>  (11) 
[-0.20192307692307693]

>  <Interactions>  (11) 
["V-A:ILE:369:CG2:3237, V-A:ILE:369:CD1:3239, V-A:ASP:366:CB:3212, H-A:ARG:545:NH1:4927, H-A:ARG:545:NH2:4928, H-A:GLY:454:N:4050, V-A:ASP:366:CA:3210, V-A:ASP:366:CG:3213, H-A:TYR:484:OH:4348, V-B:GLU:543:CG:9879, H-A:ARG:545:NE:4924, V-A:ILE:369:CB:3236, H-A:ASP:366:OD1:3214, V-B:TYR:539:C:9839, V-B:PRO:540:CA:9855, V-B:TYR:539:CE2:9848, V-B:TYR:539:CD2:9846, V-A:PRO:540:CA:4883, V-A:PRO:540:CB:4885, V-A:TYR:531:CZ:4794, H-A:TYR:531:OH:4795, H-A:ALA:541:N:4891, H-B:TYR:539:OH:9850, H-A:ASP:366:OD2:3215, V-A:ASN:362:CB:3176, V-A:ILE:369:CG1:3238"]

$$$$
1l_Grossjean_2025
     RDKit          3D

 17 17  0  0  0  0  0  0  0  0999 V2000
  132.6080  125.2430   64.8640 C   0  0  0  0  0  0  0  0  0  0  0  0
  133.9520  124.9950   64.4760 O   0  0  0  0  0  0  0  0  0  0  0  0
  134.0170  124.7780   63.1000 N   0  0  0  0  0  0  0  0  0  0  0  0
  133.9540  123.5170   62.6340 C   0  0  0  0  0  0  0  0  0  0  0  0
  133.6150  122.5490   63.3210 O   0  0  0  0  0  0  0  0  0  0  0  0
  134.3240  123.3500   61.1530 C   0  0  0  0  0  0  0  0  0  0  0  0
  132.9050  123.2700   60.0080 S   0  0  0  0  0  0  0  0  0  0  0  0
  131.6760  122.1900   60.7200 C   0  0  0  0  0  0  0  0  0  0  0  0
  130.6900  122.8030   61.4270 N   0  0  0  0  0  0  0  0  0  0  0  0
  129.7250  122.0420   61.9960 C   0  0  0  0  0  0  0  0  0  0  0  0
  128.6600  122.7980   62.7670 C   0  0  0  0  0  0  0  0  0  0  0  0
  129.6990  120.6540   61.8850 C   0  0  0  0  0  0  0  0  0  0  0  0
  130.7070  120.0120   61.1590 C   0  0  0  0  0  0  0  0  0  0  0  0
  130.6590  118.4890   61.0500 C   0  0  0  0  0  0  0  0  0  0  0  0
  131.7250  120.7860   60.5580 C   0  0  0  0  0  0  0  0  0  0  0  0
  132.7940  120.1390   59.7910 C   0  0  0  0  0  0  0  0  0  0  0  0
  133.6370  119.6280   59.1860 N   0  0  0  0  0  0  0  0  0  0  0  0
  1  2  1  0
  2  3  1  0
  3  4  1  0
  4  5  2  0
  4  6  1  0
  6  7  1  0
  7  8  1  0
  8  9  2  0
  9 10  1  0
 10 11  1  0
 10 12  2  0
 12 13  1  0
 13 14  1  0
 13 15  2  0
 15 16  1  0
 16 17  3  0
 15  8  1  0
M  END
>  <Binding energies>  (12) 
[-5.68]

>  <Ligand effiencies>  (12) 
[-0.31555555555555553]

>  <Interactions>  (12) 
["V-A:ILE:369:CG2:3237, V-A:ILE:369:CD1:3239, H-A:ARG:545:NH1:4927, H-A:ARG:545:NH2:4928, H-A:GLY:454:N:4050, V-A:GLY:453:CA:4044, H-A:TYR:484:OH:4348, V-B:GLU:543:CG:9879, H-A:ARG:545:NE:4924, V-A:ILE:369:CB:3236, V-A:ARG:545:CZ:4926, V-A:LEU:475:CD2:4259, V-B:ALA:541:CB:9864, V-A:GLY:454:CA:4049, H-A:ASP:366:OD1:3214, V-B:TYR:539:CE2:9848, V-B:TYR:539:CD2:9846, V-A:SER:385:CB:3409, H-A:SER:385:OG:3410"]

$$$$
1m_Grossjean_2025
     RDKit          3D

 20 20  0  0  0  0  0  0  0  0999 V2000
  134.0220  124.1720   61.4620 C   0  0  0  0  0  0  0  0  0  0  0  0
  133.4900  123.3980   62.5270 O   0  0  0  0  0  0  0  0  0  0  0  0
  133.1590  123.9800   63.6990 C   0  0  0  0  0  0  0  0  0  0  0  0
  133.9250  124.6250   64.4210 O   0  0  0  0  0  0  0  0  0  0  0  0
  131.6720  123.7550   64.0430 C   0  0  0  0  0  0  0  0  0  0  0  0
  130.9680  122.9540   63.0300 N   0  0  0  0  0  0  0  0  0  0  0  0
  129.7690  122.3620   63.1910 C   0  0  0  0  0  0  0  0  0  0  0  0
  129.1280  122.4190   64.2420 O   0  0  0  0  0  0  0  0  0  0  0  0
  129.2430  121.5910   61.9730 C   0  0  0  0  0  0  0  0  0  0  0  0
  129.1410  122.5730   60.4370 S   0  0  0  0  0  0  0  0  0  0  0  0
  127.4550  123.1090   60.2370 C   0  0  0  0  0  0  0  0  0  0  0  0
  126.7030  122.9610   61.3580 N   0  0  0  0  0  0  0  0  0  0  0  0
  125.4050  123.3420   61.3260 C   0  0  0  0  0  0  0  0  0  0  0  0
  124.6330  123.1650   62.6200 C   0  0  0  0  0  0  0  0  0  0  0  0
  124.8040  123.8690   60.1840 C   0  0  0  0  0  0  0  0  0  0  0  0
  125.5620  124.0010   59.0160 C   0  0  0  0  0  0  0  0  0  0  0  0
  124.8790  124.5670   57.7730 C   0  0  0  0  0  0  0  0  0  0  0  0
  126.9210  123.6090   59.0260 C   0  0  0  0  0  0  0  0  0  0  0  0
  127.7190  123.6920   57.8000 C   0  0  0  0  0  0  0  0  0  0  0  0
  128.3500  123.7590   56.8330 N   0  0  0  0  0  0  0  0  0  0  0  0
  1  2  1  0
  2  3  1  0
  3  4  2  0
  3  5  1  0
  5  6  1  0
  6  7  1  0
  7  8  2  0
  7  9  1  0
  9 10  1  0
 10 11  1  0
 11 12  2  0
 12 13  1  0
 13 14  1  0
 13 15  2  0
 15 16  1  0
 16 17  1  0
 16 18  2  0
 18 19  1  0
 19 20  3  0
 18 11  1  0
M  END
>  <Binding energies>  (13) 
[-5.49]

>  <Ligand effiencies>  (13) 
[-0.26142857142857145]

>  <Interactions>  (13) 
["V-A:ILE:369:CD1:3239, V-B:GLU:543:CD:9880, H-A:ARG:545:NH2:4928, H-A:GLY:454:N:4050, H-A:TYR:484:OH:4348, V-B:GLU:543:CG:9879, H-A:ARG:545:NE:4924, V-A:LEU:475:CD2:4259, V-B:ALA:541:CB:9864, V-A:GLY:454:CA:4049, H-B:ALA:541:N:9863, V-B:TYR:531:CE2:9765, V-B:PRO:540:CA:9855, V-B:PRO:540:CB:9857, V-B:LEU:363:CD1:8160, V-B:TYR:539:CZ:9849, V-B:TYR:539:CE2:9848, V-B:PRO:540:C:9853, V-B:ALA:541:C:9860, V-B:ASN:362:CB:8147, H-B:TYR:539:OH:9850, V-B:ASN:362:CG:8148"]

$$$$
1n_Grossjean_2025
     RDKit          3D

 27 28  0  0  0  0  0  0  0  0999 V2000
  126.4460  128.0120   73.8370 C   0  0  0  0  0  0  0  0  0  0  0  0
  127.9320  128.3230   74.0440 C   0  0  0  0  0  0  0  0  0  0  0  0
  128.6990  127.6420   73.0590 O   0  0  0  0  0  0  0  0  0  0  0  0
  129.5710  128.3130   72.2630 C   0  0  0  0  0  0  0  0  0  0  0  0
  130.3120  129.2120   72.6710 O   0  0  0  0  0  0  0  0  0  0  0  0
  129.5540  127.8420   70.8360 C   0  0  0  0  0  0  0  0  0  0  0  0
  130.6650  127.9920   69.9920 C   0  0  0  0  0  0  0  0  0  0  0  0
  130.6160  127.5470   68.6740 C   0  0  0  0  0  0  0  0  0  0  0  0
  129.4580  126.9530   68.1710 C   0  0  0  0  0  0  0  0  0  0  0  0
  129.5160  126.5450   66.8240 N   0  0  0  0  0  0  0  0  0  0  0  0
  129.8760  125.3550   66.2960 C   0  0  0  0  0  0  0  0  0  0  0  0
  130.2280  124.3660   66.9400 O   0  0  0  0  0  0  0  0  0  0  0  0
  129.8260  125.2660   64.7650 C   0  0  0  0  0  0  0  0  0  0  0  0
  130.3210  123.9090   64.2210 C   0  0  0  0  0  0  0  0  0  0  0  0
  129.0220  122.6510   64.0370 S   0  0  0  0  0  0  0  0  0  0  0  0
  128.1800  122.9670   62.5010 C   0  0  0  0  0  0  0  0  0  0  0  0
  126.8370  123.1040   62.6360 N   0  0  0  0  0  0  0  0  0  0  0  0
  126.0950  123.3640   61.5340 C   0  0  0  0  0  0  0  0  0  0  0  0
  124.6040  123.5150   61.7640 C   0  0  0  0  0  0  0  0  0  0  0  0
  126.6530  123.4900   60.2640 C   0  0  0  0  0  0  0  0  0  0  0  0
  128.0350  123.3290   60.1110 C   0  0  0  0  0  0  0  0  0  0  0  0
  128.6230  123.4580   58.7070 C   0  0  0  0  0  0  0  0  0  0  0  0
  128.8290  123.0520   61.2470 C   0  0  0  0  0  0  0  0  0  0  0  0
  130.2690  122.8300   61.1020 C   0  0  0  0  0  0  0  0  0  0  0  0
  131.4070  122.6530   60.9850 N   0  0  0  0  0  0  0  0  0  0  0  0
  128.3470  126.7900   69.0110 C   0  0  0  0  0  0  0  0  0  0  0  0
  128.4000  127.2330   70.3300 C   0  0  0  0  0  0  0  0  0  0  0  0
  1  2  1  0
  2  3  1  0
  3  4  1  0
  4  5  2  0
  4  6  1  0
  6  7  2  0
  7  8  1  0
  8  9  2  0
  9 10  1  0
 10 11  1  0
 11 12  2  0
 11 13  1  0
 13 14  1  0
 14 15  1  0
 15 16  1  0
 16 17  2  0
 17 18  1  0
 18 19  1  0
 18 20  2  0
 20 21  1  0
 21 22  1  0
 21 23  2  0
 23 24  1  0
 24 25  3  0
  9 26  1  0
 26 27  2  0
 27  6  1  0
 23 16  1  0
M  END
>  <Binding energies>  (14) 
[-7.66]

>  <Ligand effiencies>  (14) 
[-0.2735714285714286]

>  <Interactions>  (14) 
["V-B:GLU:543:CD:9880, H-A:GLU:543:OE1:4909, H-A:TYR:484:OH:4348, V-B:GLU:543:CG:9879, V-A:GLU:543:CD:4908, H-A:GLU:543:OE2:4910, V-A:HIS:456:CE1:4070, V-B:ALA:541:CB:9864, H-B:GLU:543:OE2:9882, H-B:ALA:541:N:9863, V-B:PRO:540:CA:9855, V-B:PRO:540:CB:9857, V-B:TYR:539:CZ:9849, V-B:TYR:539:CE2:9848, V-B:PRO:540:C:9853, V-B:TYR:539:CD2:9846, V-B:ASN:362:CB:8147, V-A:GLU:543:C:4902, V-B:GLU:543:C:9874, V-B:GLU:543:CB:9878, V-A:GLY:544:C:4912, V-A:GLU:543:CB:4906, V-B:HIS:456:CD2:9039, V-B:HIS:456:CE1:9041, V-B:LYS:547:CE:9922, V-B:HIS:456:CG:9037, H-A:LYS:547:NZ:4951, H-B:LYS:547:NZ:9923, V-B:HIS:456:CB:9036"]

$$$$
1q_Grossjean_2025
     RDKit          3D

 21 21  0  0  0  0  0  0  0  0999 V2000
  129.9040  122.3120   64.8800 C   0  0  0  0  0  0  0  0  0  0  0  0
  129.4900  123.6420   64.6050 O   0  0  0  0  0  0  0  0  0  0  0  0
  130.0870  124.6910   65.2240 C   0  0  0  0  0  0  0  0  0  0  0  0
  129.7900  125.1280   66.3370 O   0  0  0  0  0  0  0  0  0  0  0  0
  131.2010  125.3610   64.3920 C   0  0  0  0  0  0  0  0  0  0  0  0
  131.9140  124.4150   63.5190 N   0  0  0  0  0  0  0  0  0  0  0  0
  133.2260  124.1200   63.5810 C   0  0  0  0  0  0  0  0  0  0  0  0
  133.9930  124.6270   64.4020 O   0  0  0  0  0  0  0  0  0  0  0  0
  133.7310  123.0860   62.5640 C   0  0  0  0  0  0  0  0  0  0  0  0
  134.0210  123.6630   61.1640 C   0  0  0  0  0  0  0  0  0  0  0  0
  132.5320  123.8850   60.1460 S   0  0  0  0  0  0  0  0  0  0  0  0
  131.2650  122.7870   60.7480 C   0  0  0  0  0  0  0  0  0  0  0  0
  130.1230  123.4270   61.1060 N   0  0  0  0  0  0  0  0  0  0  0  0
  129.0870  122.6970   61.5820 C   0  0  0  0  0  0  0  0  0  0  0  0
  127.8520  123.4850   61.9770 C   0  0  0  0  0  0  0  0  0  0  0  0
  129.1400  121.3110   61.7090 C   0  0  0  0  0  0  0  0  0  0  0  0
  130.3020  120.6380   61.3190 C   0  0  0  0  0  0  0  0  0  0  0  0
  130.3290  119.1150   61.4510 C   0  0  0  0  0  0  0  0  0  0  0  0
  131.3960  121.3780   60.8170 C   0  0  0  0  0  0  0  0  0  0  0  0
  132.5990  120.6850   60.3510 C   0  0  0  0  0  0  0  0  0  0  0  0
  133.5480  120.1330   59.9830 N   0  0  0  0  0  0  0  0  0  0  0  0
  1  2  1  0
  2  3  1  0
  3  4  2  0
  3  5  1  0
  5  6  1  0
  6  7  1  0
  7  8  2  0
  7  9  1  0
  9 10  1  0
 10 11  1  0
 11 12  1  0
 12 13  2  0
 13 14  1  0
 14 15  1  0
 14 16  2  0
 16 17  1  0
 17 18  1  0
 17 19  2  0
 19 20  1  0
 20 21  3  0
 19 12  1  0
M  END
>  <Binding energies>  (15) 
[-5.01]

>  <Ligand effiencies>  (15) 
[-0.22772727272727272]

>  <Interactions>  (15) 
["V-A:ILE:369:CG2:3237, V-A:ILE:369:CD1:3239, V-B:GLU:543:CD:9880, H-A:ARG:545:NH2:4928, H-A:GLY:454:N:4050, H-A:TYR:484:OH:4348, V-B:GLU:543:CG:9879, H-A:ARG:545:NE:4924, V-A:LEU:475:CD2:4259, V-B:ALA:541:CB:9864, V-A:GLY:454:CA:4049, V-B:PRO:540:CA:9855, V-B:TYR:539:CE2:9848, V-B:PRO:540:C:9853, V-B:TYR:539:CD2:9846, V-B:ALA:541:CA:9862, V-A:TYR:484:CE2:4346, V-A:TYR:484:CZ:4347, H-A:SER:385:OG:3410, V-A:LEU:475:CG:4257"]

$$$$
2a_Grossjean_2025
     RDKit          3D

 29 30  0  0  0  0  0  0  0  0999 V2000
  130.9970  128.0100   69.7650 C   0  0  0  0  0  0  0  0  0  0  0  0
  129.5290  128.2530   70.1260 C   0  0  0  0  0  0  0  0  0  0  0  0
  128.7250  127.2380   69.5350 O   0  0  0  0  0  0  0  0  0  0  0  0
  129.0820  126.6570   68.3600 C   0  0  0  0  0  0  0  0  0  0  0  0
  129.5990  125.5390   68.2820 O   0  0  0  0  0  0  0  0  0  0  0  0
  128.7640  127.5050   67.1610 C   0  0  0  0  0  0  0  0  0  0  0  0
  128.2120  128.7880   67.2860 C   0  0  0  0  0  0  0  0  0  0  0  0
  127.9270  129.5480   66.1550 C   0  0  0  0  0  0  0  0  0  0  0  0
  128.1810  129.0420   64.8800 C   0  0  0  0  0  0  0  0  0  0  0  0
  127.8420  129.8900   63.8100 N   0  0  0  0  0  0  0  0  0  0  0  0
  127.8110  131.2380   63.7470 C   0  0  0  0  0  0  0  0  0  0  0  0
  128.0660  132.0030   64.6780 O   0  0  0  0  0  0  0  0  0  0  0  0
  127.4190  131.8280   62.3880 C   0  0  0  0  0  0  0  0  0  0  0  0
  128.5250  133.1680   61.8360 S   0  0  0  0  0  0  0  0  0  0  0  0
  130.0280  132.4710   61.1600 C   0  0  0  0  0  0  0  0  0  0  0  0
  130.9890  132.1530   62.0650 N   0  0  0  0  0  0  0  0  0  0  0  0
  132.1560  131.6330   61.6240 C   0  0  0  0  0  0  0  0  0  0  0  0
  133.1900  131.3290   62.6920 C   0  0  0  0  0  0  0  0  0  0  0  0
  132.4130  131.4010   60.2760 C   0  0  0  0  0  0  0  0  0  0  0  0
  131.4310  131.7140   59.3230 C   0  0  0  0  0  0  0  0  0  0  0  0
  131.7310  131.4500   57.8350 C   0  0  0  0  0  0  0  0  0  0  0  0
  132.9390  130.9040   57.7010 F   0  0  0  0  0  0  0  0  0  0  0  0
  130.8200  130.6170   57.3280 F   0  0  0  0  0  0  0  0  0  0  0  0
  131.7090  132.5640   57.1000 F   0  0  0  0  0  0  0  0  0  0  0  0
  130.2030  132.2630   59.7720 C   0  0  0  0  0  0  0  0  0  0  0  0
  129.1440  132.6110   58.8190 C   0  0  0  0  0  0  0  0  0  0  0  0
  128.3080  132.8860   58.0670 N   0  0  0  0  0  0  0  0  0  0  0  0
  128.7410  127.7630   64.7470 C   0  0  0  0  0  0  0  0  0  0  0  0
  129.0290  127.0060   65.8800 C   0  0  0  0  0  0  0  0  0  0  0  0
  1  2  1  0
  2  3  1  0
  3  4  1  0
  4  5  2  0
  4  6  1  0
  6  7  2  0
  7  8  1  0
  8  9  2  0
  9 10  1  0
 10 11  1  0
 11 12  2  0
 11 13  1  0
 13 14  1  0
 14 15  1  0
 15 16  2  0
 16 17  1  0
 17 18  1  0
 17 19  2  0
 19 20  1  0
 20 21  1  0
 21 22  1  0
 21 23  1  0
 21 24  1  0
 20 25  2  0
 25 26  1  0
 26 27  3  0
  9 28  1  0
 28 29  2  0
 29  6  1  0
 25 15  1  0
M  END
>  <Binding energies>  (16) 
[-7.38]

>  <Ligand effiencies>  (16) 
[-0.246]

>  <Interactions>  (16) 
["V-A:ASP:366:CB:3212, V-B:GLU:543:CD:9880, V-B:GLU:543:CG:9879, V-A:GLU:543:CD:4908, V-A:HIS:456:CE1:4070, V-A:GLU:543:C:4902, V-B:GLU:543:CB:9878, V-A:GLY:544:C:4912, V-A:GLU:543:CB:4906, V-B:HIS:456:CE1:9041, V-A:GLU:543:CG:4907, H-B:TYR:484:OH:9319, V-B:TYR:484:CZ:9318, V-A:PRO:540:CA:4883, V-A:PRO:540:CB:4885, V-A:LEU:363:CD1:3189, V-A:PRO:540:CD:4887, V-A:PRO:540:N:4884, H-A:ALA:541:N:4891, V-A:PRO:540:C:4881, V-A:TYR:531:CE2:4793, V-A:TYR:539:C:4867, V-A:ASN:362:CB:3176, V-A:ASN:362:CG:3177"]

$$$$
2b_Grossjean_2025
     RDKit          3D

 28 29  0  0  0  0  0  0  0  0999 V2000
  129.4910  131.1950   73.2790 C   0  0  0  0  0  0  0  0  0  0  0  0
  130.1290  129.9390   73.1000 O   0  0  0  0  0  0  0  0  0  0  0  0
  129.4060  128.8140   72.8640 C   0  0  0  0  0  0  0  0  0  0  0  0
  128.6520  128.3030   73.6970 O   0  0  0  0  0  0  0  0  0  0  0  0
  129.6180  128.2520   71.4880 C   0  0  0  0  0  0  0  0  0  0  0  0
  128.5920  127.6030   70.7850 C   0  0  0  0  0  0  0  0  0  0  0  0
  128.8220  127.0910   69.5120 C   0  0  0  0  0  0  0  0  0  0  0  0
  130.0750  127.2200   68.9130 C   0  0  0  0  0  0  0  0  0  0  0  0
  130.2000  126.6610   67.6270 N   0  0  0  0  0  0  0  0  0  0  0  0
  129.9710  125.3970   67.2100 C   0  0  0  0  0  0  0  0  0  0  0  0
  129.6190  124.4620   67.9300 O   0  0  0  0  0  0  0  0  0  0  0  0
  130.1980  125.1510   65.7150 C   0  0  0  0  0  0  0  0  0  0  0  0
  130.0590  123.3950   65.2480 S   0  0  0  0  0  0  0  0  0  0  0  0
  130.6410  123.1610   63.5740 C   0  0  0  0  0  0  0  0  0  0  0  0
  129.7510  122.6050   62.7130 N   0  0  0  0  0  0  0  0  0  0  0  0
  130.1250  122.3940   61.4310 C   0  0  0  0  0  0  0  0  0  0  0  0
  129.0780  121.7580   60.5370 C   0  0  0  0  0  0  0  0  0  0  0  0
  131.3880  122.7310   60.9520 C   0  0  0  0  0  0  0  0  0  0  0  0
  132.3220  123.3140   61.8220 C   0  0  0  0  0  0  0  0  0  0  0  0
  133.7130  123.6860   61.2760 C   0  0  0  0  0  0  0  0  0  0  0  0
  133.7570  123.4730   59.9600 F   0  0  0  0  0  0  0  0  0  0  0  0
  133.9710  124.9730   61.5140 F   0  0  0  0  0  0  0  0  0  0  0  0
  134.6950  122.9710   61.8310 F   0  0  0  0  0  0  0  0  0  0  0  0
  131.9440  123.5350   63.1720 C   0  0  0  0  0  0  0  0  0  0  0  0
  132.8820  124.1340   64.1260 C   0  0  0  0  0  0  0  0  0  0  0  0
  133.6230  124.6080   64.8790 N   0  0  0  0  0  0  0  0  0  0  0  0
  131.1090  127.8600   69.6110 C   0  0  0  0  0  0  0  0  0  0  0  0
  130.8780  128.3710   70.8850 C   0  0  0  0  0  0  0  0  0  0  0  0
  1  2  1  0
  2  3  1  0
  3  4  2  0
  3  5  1  0
  5  6  2  0
  6  7  1  0
  7  8  2  0
  8  9  1  0
  9 10  1  0
 10 11  2  0
 10 12  1  0
 12 13  1  0
 13 14  1  0
 14 15  2  0
 15 16  1  0
 16 17  1  0
 16 18  2  0
 18 19  1  0
 19 20  1  0
 20 21  1  0
 20 22  1  0
 20 23  1  0
 19 24  2  0
 24 25  1  0
 25 26  3  0
  8 27  1  0
 27 28  2  0
 28  5  1  0
 24 14  1  0
M  END
>  <Binding energies>  (17) 
[-7.54]

>  <Ligand effiencies>  (17) 
[-0.26]

>  <Interactions>  (17) 
["V-A:ILE:369:CG2:3237, V-A:ILE:369:CD1:3239, V-A:GLY:453:C:4042, H-A:ARG:545:NH2:4928, H-A:GLY:454:N:4050, V-A:ASP:366:CG:3213, H-A:GLU:543:OE1:4909, H-A:TYR:484:OH:4348, V-B:GLU:543:CG:9879, H-A:ARG:545:NE:4924, V-A:ILE:369:CB:3236, V-A:GLU:543:CD:4908, H-A:GLU:543:OE2:4910, V-A:LEU:475:CD2:4259, V-A:HIS:456:CE1:4070, V-A:GLY:454:CA:4049, V-B:TYR:539:C:9839, V-B:PRO:540:CA:9855, V-B:TYR:539:CE2:9848, V-B:TYR:539:CD2:9846, V-A:GLU:543:C:4902, V-B:GLU:543:CB:9878, V-A:GLY:544:C:4912, V-A:GLU:543:CB:4906, V-B:HIS:456:CD2:9039, V-B:HIS:456:CE1:9041, H-A:LYS:547:NZ:4951, H-B:LYS:547:NZ:9923, V-A:GLY:544:CA:4914, V-A:LYS:547:CE:4950"]

$$$$
2c_Grossjean_2025
     RDKit          3D

 26 27  0  0  0  0  0  0  0  0999 V2000
  128.6700  128.7920   73.4960 C   0  0  0  0  0  0  0  0  0  0  0  0
  129.8720  128.8500   72.7350 O   0  0  0  0  0  0  0  0  0  0  0  0
  129.8960  128.2950   71.4700 C   0  0  0  0  0  0  0  0  0  0  0  0
  131.1050  128.3730   70.7790 C   0  0  0  0  0  0  0  0  0  0  0  0
  131.2270  127.8430   69.4970 C   0  0  0  0  0  0  0  0  0  0  0  0
  130.1230  127.2320   68.8850 C   0  0  0  0  0  0  0  0  0  0  0  0
  130.1540  126.6530   67.6030 N   0  0  0  0  0  0  0  0  0  0  0  0
  129.8820  125.3790   67.2470 C   0  0  0  0  0  0  0  0  0  0  0  0
  129.6040  124.4750   68.0360 O   0  0  0  0  0  0  0  0  0  0  0  0
  129.9820  125.0930   65.7400 C   0  0  0  0  0  0  0  0  0  0  0  0
  130.0400  123.3270   65.2780 S   0  0  0  0  0  0  0  0  0  0  0  0
  130.5620  123.1750   63.5740 C   0  0  0  0  0  0  0  0  0  0  0  0
  129.6260  122.6980   62.7130 N   0  0  0  0  0  0  0  0  0  0  0  0
  129.9520  122.5480   61.4110 C   0  0  0  0  0  0  0  0  0  0  0  0
  128.8590  121.9940   60.5180 C   0  0  0  0  0  0  0  0  0  0  0  0
  131.2110  122.8720   60.9100 C   0  0  0  0  0  0  0  0  0  0  0  0
  132.1910  123.3730   61.7790 C   0  0  0  0  0  0  0  0  0  0  0  0
  133.5780  123.7290   61.2090 C   0  0  0  0  0  0  0  0  0  0  0  0
  134.4940  122.8790   61.6760 F   0  0  0  0  0  0  0  0  0  0  0  0
  133.5590  123.6560   59.8780 F   0  0  0  0  0  0  0  0  0  0  0  0
  133.9700  124.9620   61.5390 F   0  0  0  0  0  0  0  0  0  0  0  0
  131.8640  123.5310   63.1500 C   0  0  0  0  0  0  0  0  0  0  0  0
  132.8500  124.0490   64.1040 C   0  0  0  0  0  0  0  0  0  0  0  0
  133.6280  124.4580   64.8560 N   0  0  0  0  0  0  0  0  0  0  0  0
  128.9150  127.1370   69.5780 C   0  0  0  0  0  0  0  0  0  0  0  0
  128.7980  127.6680   70.8600 C   0  0  0  0  0  0  0  0  0  0  0  0
  1  2  1  0
  2  3  1  0
  3  4  2  0
  4  5  1  0
  5  6  2  0
  6  7  1  0
  7  8  1  0
  8  9  2  0
  8 10  1  0
 10 11  1  0
 11 12  1  0
 12 13  2  0
 13 14  1  0
 14 15  1  0
 14 16  2  0
 16 17  1  0
 17 18  1  0
 18 19  1  0
 18 20  1  0
 18 21  1  0
 17 22  2  0
 22 23  1  0
 23 24  3  0
  6 25  1  0
 25 26  2  0
 26  3  1  0
 22 12  1  0
M  END
>  <Binding energies>  (18) 
[-6.74]

>  <Ligand effiencies>  (18) 
[-0.24962962962962965]

>  <Interactions>  (18) 
["V-A:ILE:369:CG2:3237, V-A:ILE:369:CD1:3239, V-B:GLU:543:CD:9880, H-A:GLY:454:N:4050, V-A:ASP:366:CG:3213, H-A:GLU:543:OE1:4909, H-A:TYR:484:OH:4348, V-B:GLU:543:CG:9879, H-A:ARG:545:NE:4924, V-A:ILE:369:CB:3236, V-A:GLU:543:CD:4908, H-A:GLU:543:OE2:4910, V-A:LEU:475:CD2:4259, V-A:HIS:456:CE1:4070, V-A:GLY:454:CA:4049, V-B:TYR:539:C:9839, V-B:PRO:540:CA:9855, V-B:TYR:539:CE2:9848, V-B:PRO:540:C:9853, V-B:TYR:539:CD2:9846, V-A:GLU:543:C:4902, V-B:GLU:543:CA:9876, V-B:GLU:543:CB:9878, V-A:GLY:544:C:4912, V-A:GLU:543:CB:4906, V-B:HIS:456:CD2:9039, V-B:HIS:456:CE1:9041, V-A:ARG:545:CG:4922, H-A:LYS:547:NZ:4951, V-A:GLY:544:CA:4914"]

$$$$
2d_Ghoteimi_2023
     RDKit          3D

 38 42  0  0  0  0  0  0  0  0999 V2000
  124.4450  129.4890   66.7160 C   0  0  0  0  0  0  0  0  0  0  0  0
  123.7660  129.8630   65.5270 O   0  0  0  0  0  0  0  0  0  0  0  0
  124.4580  130.2390   64.4320 C   0  0  0  0  0  0  0  0  0  0  0  0
  124.2490  131.2570   63.7670 O   0  0  0  0  0  0  0  0  0  0  0  0
  125.5700  129.2310   64.1020 C   0  0  0  0  0  0  0  0  0  0  0  0
  127.2010  129.8460   64.6430 S   0  0  0  0  0  0  0  0  0  0  0  0
  128.1530  128.4620   65.2370 C   0  0  0  0  0  0  0  0  0  0  0  0
  128.2590  128.4250   66.5870 N   0  0  0  0  0  0  0  0  0  0  0  0
  128.9630  127.4270   67.1780 C   0  0  0  0  0  0  0  0  0  0  0  0
  129.0510  127.4630   68.6700 C   0  0  0  0  0  0  0  0  0  0  0  0
  130.1890  127.9720   69.3040 C   0  0  0  0  0  0  0  0  0  0  0  0
  130.2780  128.0090   70.6930 C   0  0  0  0  0  0  0  0  0  0  0  0
  129.2270  127.5460   71.4990 C   0  0  0  0  0  0  0  0  0  0  0  0
  129.3070  127.5580   72.8960 N   0  0  0  0  0  0  0  0  0  0  0  0
  130.5140  127.0870   73.6040 C   0  0  0  0  0  0  0  0  0  0  0  0
  130.2850  126.8250   75.1070 C   0  0  0  0  0  0  0  0  0  0  0  0
  129.7590  127.9870   75.7270 O   0  0  0  0  0  0  0  0  0  0  0  0
  128.5150  128.3630   75.1580 C   0  0  0  0  0  0  0  0  0  0  0  0
  128.6880  128.6650   73.6540 C   0  0  0  0  0  0  0  0  0  0  0  0
  128.0940  127.0230   70.8590 C   0  0  0  0  0  0  0  0  0  0  0  0
  128.0060  126.9850   69.4700 C   0  0  0  0  0  0  0  0  0  0  0  0
  129.5790  126.4310   66.4160 C   0  0  0  0  0  0  0  0  0  0  0  0
  129.4570  126.4270   65.0210 C   0  0  0  0  0  0  0  0  0  0  0  0
  130.1180  125.3160   64.2740 C   0  0  0  0  0  0  0  0  0  0  0  0
  129.3480  124.3650   63.6020 C   0  0  0  0  0  0  0  0  0  0  0  0
  129.9540  123.3330   62.8920 C   0  0  0  0  0  0  0  0  0  0  0  0
  131.3530  123.2200   62.8370 C   0  0  0  0  0  0  0  0  0  0  0  0
  131.9830  122.1990   62.1200 N   0  0  0  0  0  0  0  0  0  0  0  0
  133.3600  122.3540   61.6110 C   0  0  0  0  0  0  0  0  0  0  0  0
  134.0070  121.0230   61.1720 C   0  0  0  0  0  0  0  0  0  0  0  0
  133.1820  120.3730   60.2170 O   0  0  0  0  0  0  0  0  0  0  0  0
  131.8950  120.0860   60.7430 C   0  0  0  0  0  0  0  0  0  0  0  0
  131.1940  121.3940   61.1680 C   0  0  0  0  0  0  0  0  0  0  0  0
  132.1180  124.1890   63.5000 C   0  0  0  0  0  0  0  0  0  0  0  0
  131.5110  125.2220   64.2090 C   0  0  0  0  0  0  0  0  0  0  0  0
  128.7180  127.4680   64.4050 C   0  0  0  0  0  0  0  0  0  0  0  0
  128.5450  127.4960   62.9500 C   0  0  0  0  0  0  0  0  0  0  0  0
  128.4110  127.5150   61.8000 N   0  0  0  0  0  0  0  0  0  0  0  0
  1  2  1  0
  2  3  1  0
  3  4  2  0
  3  5  1  0
  5  6  1  0
  6  7  1  0
  7  8  2  0
  8  9  1  0
  9 10  1  0
 10 11  2  0
 11 12  1  0
 12 13  2  0
 13 14  1  0
 14 15  1  0
 15 16  1  0
 16 17  1  0
 17 18  1  0
 18 19  1  0
 13 20  1  0
 20 21  2  0
  9 22  2  0
 22 23  1  0
 23 24  1  0
 24 25  2  0
 25 26  1  0
 26 27  2  0
 27 28  1  0
 28 29  1  0
 29 30  1  0
 30 31  1  0
 31 32  1  0
 32 33  1  0
 27 34  1  0
 34 35  2  0
 23 36  2  0
 36 37  1  0
 37 38  3  0
 36  7  1  0
 21 10  1  0
 35 24  1  0
 19 14  1  0
 33 28  1  0
M  END
>  <Binding energies>  (19) 
[-9.2]

>  <Ligand effiencies>  (19) 
[-0.2421052631578947]

>  <Interactions>  (19) 
["V-A:ILE:369:CG2:3237, V-A:ILE:369:CD1:3239, V-B:GLU:543:CD:9880, V-B:GLU:543:CG:9879, V-A:GLU:543:CD:4908, V-A:LEU:475:CD2:4259, V-A:HIS:456:CE1:4070, V-B:TYR:539:CE2:9848, V-B:TYR:539:CD2:9846, V-A:GLU:543:C:4902, V-B:GLU:543:C:9874, V-A:HIS:456:CD2:4068, V-B:GLU:543:CB:9878, V-A:GLY:544:C:4912, V-A:SER:385:CB:3409, V-A:GLU:543:CB:4906, V-B:HIS:456:CD2:9039, V-B:HIS:456:CE1:9041, V-B:ARG:545:CZ:9898, V-A:GLU:543:CG:4907, H-B:TYR:484:OH:9319, V-B:TYR:484:CZ:9318, V-A:SER:385:C:3405, V-A:SER:385:CA:3407, H-A:SER:385:OG:3410, V-B:GLY:454:CA:9020, V-B:ARG:545:CD:9895, V-B:ARG:545:CG:9894, H-A:LYS:547:NZ:4951, H-B:LYS:547:NZ:9923, H-B:GLY:454:N:9021, H-B:ARG:545:NE:9896, V-B:TYR:484:CE1:9316"]

$$$$
2d_Grossjean_2025
     RDKit          3D

 24 25  0  0  0  0  0  0  0  0999 V2000
  128.1590  122.9290   62.4550 C   0  0  0  0  0  0  0  0  0  0  0  0
  129.3310  122.1730   61.8590 C   0  0  0  0  0  0  0  0  0  0  0  0
  129.3330  120.7820   61.7720 C   0  0  0  0  0  0  0  0  0  0  0  0
  130.4390  120.1290   61.2080 C   0  0  0  0  0  0  0  0  0  0  0  0
  130.4200  118.5910   61.1100 C   0  0  0  0  0  0  0  0  0  0  0  0
  131.3820  118.0740   61.8750 F   0  0  0  0  0  0  0  0  0  0  0  0
  129.2410  118.1220   61.5220 F   0  0  0  0  0  0  0  0  0  0  0  0
  130.6140  118.1500   59.8660 F   0  0  0  0  0  0  0  0  0  0  0  0
  131.5280  120.9130   60.7490 C   0  0  0  0  0  0  0  0  0  0  0  0
  132.6860  120.2820   60.1100 C   0  0  0  0  0  0  0  0  0  0  0  0
  133.5990  119.7820   59.6040 N   0  0  0  0  0  0  0  0  0  0  0  0
  131.4480  122.3170   60.9010 C   0  0  0  0  0  0  0  0  0  0  0  0
  132.7370  123.4470   60.4090 S   0  0  0  0  0  0  0  0  0  0  0  0
  133.9150  123.6280   61.7890 C   0  0  0  0  0  0  0  0  0  0  0  0
  133.3030  124.3170   63.0130 C   0  0  0  0  0  0  0  0  0  0  0  0
  134.0390  124.6430   63.9450 O   0  0  0  0  0  0  0  0  0  0  0  0
  131.9650  124.4870   62.9790 N   0  0  0  0  0  0  0  0  0  0  0  0
  131.1200  125.0820   63.9340 C   0  0  0  0  0  0  0  0  0  0  0  0
  131.2680  124.6300   65.2480 C   0  0  0  0  0  0  0  0  0  0  0  0
  130.4730  125.1540   66.2640 C   0  0  0  0  0  0  0  0  0  0  0  0
  129.5210  126.1260   65.9630 C   0  0  0  0  0  0  0  0  0  0  0  0
  129.3560  126.5740   64.6560 C   0  0  0  0  0  0  0  0  0  0  0  0
  130.1490  126.0540   63.6380 C   0  0  0  0  0  0  0  0  0  0  0  0
  130.3630  122.9340   61.4290 N   0  0  0  0  0  0  0  0  0  0  0  0
  1  2  1  0
  2  3  2  0
  3  4  1  0
  4  5  1  0
  5  6  1  0
  5  7  1  0
  5  8  1  0
  4  9  2  0
  9 10  1  0
 10 11  3  0
  9 12  1  0
 12 13  1  0
 13 14  1  0
 14 15  1  0
 15 16  2  0
 15 17  1  0
 17 18  1  0
 18 19  2  0
 19 20  1  0
 20 21  2  0
 21 22  1  0
 22 23  2  0
 12 24  2  0
 24  2  1  0
 23 18  1  0
M  END
>  <Binding energies>  (20) 
[-6.06]

>  <Ligand effiencies>  (20) 
[-0.24239999999999998]

>  <Interactions>  (20) 
["V-A:ILE:369:CG2:3237, V-A:ILE:369:CD1:3239, V-B:GLU:543:CD:9880, H-A:ARG:545:NH1:4927, H-A:ARG:545:NH2:4928, H-A:GLY:454:N:4050, V-B:GLU:543:CG:9879, V-A:GLU:543:CD:4908, V-A:LEU:475:CD2:4259, V-B:ALA:541:CB:9864, V-B:TYR:539:C:9839, V-B:TYR:539:CE2:9848, V-B:PRO:540:C:9853, V-B:TYR:539:CD2:9846, V-B:TYR:539:CG:9844, V-B:ALA:541:CA:9862, V-A:TYR:484:CE2:4346, V-A:TYR:484:CZ:4347, V-B:GLU:543:CB:9878, V-A:SER:385:CB:3409, V-A:PRO:482:CB:4326, V-A:PRO:482:CG:4327, V-A:HIS:383:NE2:3394, H-A:SER:385:OG:3410, V-A:LEU:475:CG:4257, V-A:LEU:475:CD1:4258, V-B:TYR:539:CB:9843"]

$$$$
2e_Grossjean_2025
     RDKit          3D

 25 26  0  0  0  0  0  0  0  0999 V2000
  126.9590  126.8870   70.8760 C   0  0  0  0  0  0  0  0  0  0  0  0
  128.3730  127.2600   70.4710 C   0  0  0  0  0  0  0  0  0  0  0  0
  129.1820  128.0540   71.2880 C   0  0  0  0  0  0  0  0  0  0  0  0
  130.4760  128.3470   70.8560 C   0  0  0  0  0  0  0  0  0  0  0  0
  130.9260  127.8460   69.6320 C   0  0  0  0  0  0  0  0  0  0  0  0
  130.0590  127.0640   68.8590 C   0  0  0  0  0  0  0  0  0  0  0  0
  130.5770  126.5500   67.6580 N   0  0  0  0  0  0  0  0  0  0  0  0
  130.3320  125.3470   67.0920 C   0  0  0  0  0  0  0  0  0  0  0  0
  129.5320  124.5140   67.5210 O   0  0  0  0  0  0  0  0  0  0  0  0
  131.1630  125.0140   65.8490 C   0  0  0  0  0  0  0  0  0  0  0  0
  130.2650  125.3800   64.3070 S   0  0  0  0  0  0  0  0  0  0  0  0
  130.6930  124.0680   63.1850 C   0  0  0  0  0  0  0  0  0  0  0  0
  129.6330  123.4090   62.6540 N   0  0  0  0  0  0  0  0  0  0  0  0
  129.8690  122.3680   61.8260 C   0  0  0  0  0  0  0  0  0  0  0  0
  128.6400  121.6770   61.2680 C   0  0  0  0  0  0  0  0  0  0  0  0
  131.1560  121.9410   61.5010 C   0  0  0  0  0  0  0  0  0  0  0  0
  132.2630  122.6050   62.0480 C   0  0  0  0  0  0  0  0  0  0  0  0
  133.6780  122.1090   61.6970 C   0  0  0  0  0  0  0  0  0  0  0  0
  134.3880  123.0960   61.1500 F   0  0  0  0  0  0  0  0  0  0  0  0
  134.3000  121.6880   62.7990 F   0  0  0  0  0  0  0  0  0  0  0  0
  133.6670  121.0940   60.8290 F   0  0  0  0  0  0  0  0  0  0  0  0
  132.0320  123.7030   62.9150 C   0  0  0  0  0  0  0  0  0  0  0  0
  133.1460  124.4200   63.5430 C   0  0  0  0  0  0  0  0  0  0  0  0
  134.0260  124.9850   64.0390 N   0  0  0  0  0  0  0  0  0  0  0  0
  128.7950  126.7670   69.2790 N   0  0  0  0  0  0  0  0  0  0  0  0
  1  2  1  0
  2  3  2  0
  3  4  1  0
  4  5  2  0
  5  6  1  0
  6  7  1  0
  7  8  1  0
  8  9  2  0
  8 10  1  0
 10 11  1  0
 11 12  1  0
 12 13  2  0
 13 14  1  0
 14 15  1  0
 14 16  2  0
 16 17  1  0
 17 18  1  0
 18 19  1  0
 18 20  1  0
 18 21  1  0
 17 22  2  0
 22 23  1  0
 23 24  3  0
  6 25  2  0
 25  2  1  0
 22 12  1  0
M  END
>  <Binding energies>  (21) 
[-6.73]

>  <Ligand effiencies>  (21) 
[-0.25884615384615384]

>  <Interactions>  (21) 
["V-A:ILE:369:CG2:3237, V-A:ILE:369:CD1:3239, H-A:ARG:545:NH1:4927, H-A:ARG:545:NH2:4928, H-A:GLY:454:N:4050, H-A:TYR:484:OH:4348, H-A:ARG:545:NE:4924, V-A:ILE:369:CB:3236, V-A:GLU:543:CD:4908, V-A:ARG:545:CZ:4926, H-A:GLU:543:OE2:4910, V-A:LEU:475:CD2:4259, V-A:HIS:456:CE1:4070, V-B:ALA:541:CB:9864, V-A:GLY:454:CA:4049, V-B:TYR:539:C:9839, V-B:PRO:540:CA:9855, V-B:PRO:540:C:9853, V-A:TYR:484:CE2:4346, V-A:GLU:543:C:4902, V-B:GLU:543:C:9874, V-A:TYR:484:CZ:4347, V-B:GLU:543:CB:9878, V-A:GLY:544:C:4912, V-A:SER:385:CB:3409, V-A:GLU:543:CB:4906, V-B:HIS:456:CD2:9039, V-B:HIS:456:CE1:9041, V-B:GLY:544:C:9884, V-B:GLY:544:CA:9886, V-B:HIS:456:CG:9037, V-A:SER:385:C:3405, V-A:SER:385:CA:3407, V-A:ILE:369:CG1:3238"]

$$$$
2f_Grossjean_2025
     RDKit          3D

 24 25  0  0  0  0  0  0  0  0999 V2000
  124.4230  123.1390   62.5980 C   0  0  0  0  0  0  0  0  0  0  0  0
  125.2650  123.3820   61.3600 C   0  0  0  0  0  0  0  0  0  0  0  0
  124.6960  123.8020   60.1610 C   0  0  0  0  0  0  0  0  0  0  0  0
  125.5170  124.0060   59.0410 C   0  0  0  0  0  0  0  0  0  0  0  0
  124.8660  124.4590   57.7200 C   0  0  0  0  0  0  0  0  0  0  0  0
  123.5570  124.6500   57.8950 F   0  0  0  0  0  0  0  0  0  0  0  0
  125.4180  125.6020   57.3100 F   0  0  0  0  0  0  0  0  0  0  0  0
  125.0120  123.5670   56.7380 F   0  0  0  0  0  0  0  0  0  0  0  0
  126.9110  123.7810   59.1720 C   0  0  0  0  0  0  0  0  0  0  0  0
  127.8020  123.9250   58.0180 C   0  0  0  0  0  0  0  0  0  0  0  0
  128.5050  124.0400   57.1050 N   0  0  0  0  0  0  0  0  0  0  0  0
  127.4040  123.3800   60.4370 C   0  0  0  0  0  0  0  0  0  0  0  0
  129.1230  123.0660   60.7850 S   0  0  0  0  0  0  0  0  0  0  0  0
  129.2120  121.8050   62.1020 C   0  0  0  0  0  0  0  0  0  0  0  0
  129.9180  122.2560   63.3890 C   0  0  0  0  0  0  0  0  0  0  0  0
  129.8170  121.5970   64.4250 O   0  0  0  0  0  0  0  0  0  0  0  0
  130.6110  123.4090   63.2730 N   0  0  0  0  0  0  0  0  0  0  0  0
  131.3740  124.0960   64.2360 C   0  0  0  0  0  0  0  0  0  0  0  0
  130.8610  124.7290   65.3840 C   0  0  0  0  0  0  0  0  0  0  0  0
  131.7320  125.3730   66.2650 C   0  0  0  0  0  0  0  0  0  0  0  0
  133.0970  125.3650   65.9800 C   0  0  0  0  0  0  0  0  0  0  0  0
  133.6180  124.7550   64.8850 N   0  0  0  0  0  0  0  0  0  0  0  0
  132.7590  124.1320   64.0380 C   0  0  0  0  0  0  0  0  0  0  0  0
  126.5930  123.1670   61.5020 N   0  0  0  0  0  0  0  0  0  0  0  0
  1  2  1  0
  2  3  2  0
  3  4  1  0
  4  5  1  0
  5  6  1  0
  5  7  1  0
  5  8  1  0
  4  9  2  0
  9 10  1  0
 10 11  3  0
  9 12  1  0
 12 13  1  0
 13 14  1  0
 14 15  1  0
 15 16  2  0
 15 17  1  0
 17 18  1  0
 18 19  2  0
 19 20  1  0
 20 21  2  0
 21 22  1  0
 22 23  2  0
 12 24  2  0
 24  2  1  0
 23 18  1  0
M  END
>  <Binding energies>  (22) 
[-6.18]

>  <Ligand effiencies>  (22) 
[-0.24719999999999998]

>  <Interactions>  (22) 
["V-B:GLU:543:CD:9880, H-A:ARG:545:NH2:4928, H-A:GLY:454:N:4050, H-A:TYR:484:OH:4348, H-A:ARG:545:NE:4924, V-A:ARG:545:CZ:4926, V-A:LEU:475:CD2:4259, V-A:HIS:456:CE1:4070, V-B:ALA:541:CB:9864, V-B:ASP:366:CB:8183, H-B:ALA:541:N:9863, V-B:TYR:531:CE2:9765, V-B:ASP:366:CG:8184, V-B:PRO:540:CA:9855, V-B:PRO:540:CB:9857, V-B:LEU:363:CD1:8160, V-B:TYR:531:CZ:9766, V-B:LEU:363:CA:8156, V-B:MET:535:CE:9807, V-B:PRO:540:C:9853, V-B:ALA:541:C:9860, V-B:ASN:362:CB:8147, V-A:TYR:484:CZ:4347, V-A:ARG:545:CG:4922, V-B:LEU:363:CB:8158, V-A:ARG:545:CD:4923, H-B:TYR:539:OH:9850, V-B:LEU:363:CG:8159, V-B:ASN:362:CG:8148"]

$$$$
2g_Grossjean_2025
     RDKit          3D

 25 26  0  0  0  0  0  0  0  0999 V2000
  128.7410  121.6580   61.2770 C   0  0  0  0  0  0  0  0  0  0  0  0
  129.9410  122.3400   61.9050 C   0  0  0  0  0  0  0  0  0  0  0  0
  131.2430  121.9480   61.6040 C   0  0  0  0  0  0  0  0  0  0  0  0
  132.3210  122.6060   62.2170 C   0  0  0  0  0  0  0  0  0  0  0  0
  133.7540  122.1510   61.8790 C   0  0  0  0  0  0  0  0  0  0  0  0
  134.4810  123.1890   61.4610 F   0  0  0  0  0  0  0  0  0  0  0  0
  134.3290  121.6280   62.9620 F   0  0  0  0  0  0  0  0  0  0  0  0
  133.7890  121.2270   60.9170 F   0  0  0  0  0  0  0  0  0  0  0  0
  132.0440  123.6620   63.1220 C   0  0  0  0  0  0  0  0  0  0  0  0
  133.1300  124.3440   63.8320 C   0  0  0  0  0  0  0  0  0  0  0  0
  133.9880  124.8820   64.3910 N   0  0  0  0  0  0  0  0  0  0  0  0
  130.6900  124.0120   63.3430 C   0  0  0  0  0  0  0  0  0  0  0  0
  130.1680  125.3260   64.4250 S   0  0  0  0  0  0  0  0  0  0  0  0
  130.6830  124.8790   66.1180 C   0  0  0  0  0  0  0  0  0  0  0  0
  129.8440  125.5180   67.2330 C   0  0  0  0  0  0  0  0  0  0  0  0
  129.5110  124.8780   68.2330 O   0  0  0  0  0  0  0  0  0  0  0  0
  129.5020  126.8040   67.0350 N   0  0  0  0  0  0  0  0  0  0  0  0
  128.7160  127.6260   67.9560 C   0  0  0  0  0  0  0  0  0  0  0  0
  129.2150  127.6080   69.3970 C   0  0  0  0  0  0  0  0  0  0  0  0
  128.3810  127.1400   70.4170 C   0  0  0  0  0  0  0  0  0  0  0  0
  128.8490  127.0870   71.7280 C   0  0  0  0  0  0  0  0  0  0  0  0
  130.1500  127.4920   72.0130 C   0  0  0  0  0  0  0  0  0  0  0  0
  130.9910  127.9480   70.9990 C   0  0  0  0  0  0  0  0  0  0  0  0
  130.5250  128.0000   69.6890 C   0  0  0  0  0  0  0  0  0  0  0  0
  129.6610  123.3500   62.7600 N   0  0  0  0  0  0  0  0  0  0  0  0
  1  2  1  0
  2  3  2  0
  3  4  1  0
  4  5  1  0
  5  6  1  0
  5  7  1  0
  5  8  1  0
  4  9  2  0
  9 10  1  0
 10 11  3  0
  9 12  1  0
 12 13  1  0
 13 14  1  0
 14 15  1  0
 15 16  2  0
 15 17  1  0
 17 18  1  0
 18 19  1  0
 19 20  2  0
 20 21  1  0
 21 22  2  0
 22 23  1  0
 23 24  2  0
 12 25  2  0
 25  2  1  0
 24 19  1  0
M  END
>  <Binding energies>  (23) 
[-6.76]

>  <Ligand effiencies>  (23) 
[-0.26]

>  <Interactions>  (23) 
["V-A:ILE:369:CG2:3237, V-A:ILE:369:CD1:3239, V-A:GLY:453:C:4042, H-A:ARG:545:NH1:4927, H-A:ARG:545:NH2:4928, H-A:GLY:454:N:4050, H-A:GLU:543:OE1:4909, H-A:TYR:484:OH:4348, V-B:GLU:543:CG:9879, H-A:ARG:545:NE:4924, V-A:GLU:543:CD:4908, V-A:ARG:545:CZ:4926, H-A:GLU:543:OE2:4910, V-A:LEU:475:CD2:4259, V-A:HIS:456:CE1:4070, V-B:ALA:541:CB:9864, V-A:GLY:454:CA:4049, V-B:PRO:540:CA:9855, V-B:PRO:540:C:9853, V-A:TYR:484:CE2:4346, V-A:GLU:543:C:4902, V-A:HIS:456:CD2:4068, V-A:TYR:484:CZ:4347, V-B:GLU:543:CB:9878, V-A:GLY:544:C:4912, V-A:SER:385:CB:3409, V-A:GLU:543:CB:4906, V-B:HIS:456:CE1:9041, V-A:SER:385:C:3405, V-A:SER:385:CA:3407"]

$$$$
2h_Grossjean_2025
     RDKit          3D

 31 32  0  0  0  0  0  0  0  0999 V2000
  127.9750  128.1580   74.2720 C   0  0  0  0  0  0  0  0  0  0  0  0
  128.2410  127.0280   73.4490 O   0  0  0  0  0  0  0  0  0  0  0  0
  128.3440  127.1950   72.0790 C   0  0  0  0  0  0  0  0  0  0  0  0
  127.3640  126.7780   71.1640 C   0  0  0  0  0  0  0  0  0  0  0  0
  127.5340  126.9890   69.7970 C   0  0  0  0  0  0  0  0  0  0  0  0
  128.6820  127.6180   69.3150 C   0  0  0  0  0  0  0  0  0  0  0  0
  128.8370  127.8550   67.8130 C   0  0  0  0  0  0  0  0  0  0  0  0
  129.6610  126.8500   67.1420 N   0  0  0  0  0  0  0  0  0  0  0  0
  129.8310  125.5850   67.5650 C   0  0  0  0  0  0  0  0  0  0  0  0
  129.3670  125.1600   68.6250 O   0  0  0  0  0  0  0  0  0  0  0  0
  130.6460  124.6780   66.6320 C   0  0  0  0  0  0  0  0  0  0  0  0
  132.2380  125.3750   66.0760 S   0  0  0  0  0  0  0  0  0  0  0  0
  132.3210  125.1260   64.3160 C   0  0  0  0  0  0  0  0  0  0  0  0
  133.3630  124.3520   63.9230 N   0  0  0  0  0  0  0  0  0  0  0  0
  133.5320  124.1130   62.6040 C   0  0  0  0  0  0  0  0  0  0  0  0
  134.7210  123.2460   62.2380 C   0  0  0  0  0  0  0  0  0  0  0  0
  132.6760  124.6260   61.6310 C   0  0  0  0  0  0  0  0  0  0  0  0
  131.5800  125.4120   62.0200 C   0  0  0  0  0  0  0  0  0  0  0  0
  130.6390  125.9620   60.9300 C   0  0  0  0  0  0  0  0  0  0  0  0
  130.5870  127.2920   61.0050 F   0  0  0  0  0  0  0  0  0  0  0  0
  131.0380  125.6460   59.6960 F   0  0  0  0  0  0  0  0  0  0  0  0
  129.4110  125.4700   61.0940 F   0  0  0  0  0  0  0  0  0  0  0  0
  131.3850  125.6650   63.4020 C   0  0  0  0  0  0  0  0  0  0  0  0
  130.2240  126.4300   63.8640 C   0  0  0  0  0  0  0  0  0  0  0  0
  129.3050  127.0320   64.2260 N   0  0  0  0  0  0  0  0  0  0  0  0
  129.6810  128.0180   70.2160 C   0  0  0  0  0  0  0  0  0  0  0  0
  130.8160  128.6360   69.7480 O   0  0  0  0  0  0  0  0  0  0  0  0
  131.8410  127.7420   69.3320 C   0  0  0  0  0  0  0  0  0  0  0  0
  129.4990  127.8230   71.5950 C   0  0  0  0  0  0  0  0  0  0  0  0
  130.4660  128.2310   72.4820 O   0  0  0  0  0  0  0  0  0  0  0  0
  131.2760  127.1760   72.9840 C   0  0  0  0  0  0  0  0  0  0  0  0
  1  2  1  0
  2  3  1  0
  3  4  2  0
  4  5  1  0
  5  6  2  0
  6  7  1  0
  7  8  1  0
  8  9  1  0
  9 10  2  0
  9 11  1  0
 11 12  1  0
 12 13  1  0
 13 14  2  0
 14 15  1  0
 15 16  1  0
 15 17  2  0
 17 18  1  0
 18 19  1  0
 19 20  1  0
 19 21  1  0
 19 22  1  0
 18 23  2  0
 23 24  1  0
 24 25  3  0
  6 26  1  0
 26 27  1  0
 27 28  1  0
 26 29  2  0
 29 30  1  0
 30 31  1  0
 29  3  1  0
 23 13  1  0
M  END
>  <Binding energies>  (24) 
[-5.54]

>  <Ligand effiencies>  (24) 
[-0.173125]

>  <Interactions>  (24) 
["V-A:ILE:369:CD1:3239, V-A:GLY:453:C:4042, H-A:ARG:545:NH2:4928, H-A:GLY:454:N:4050, V-A:GLY:453:CA:4044, H-A:GLU:543:OE1:4909, H-A:TYR:484:OH:4348, V-B:GLU:543:CG:9879, H-A:ARG:545:NE:4924, V-A:GLU:543:CD:4908, V-A:ARG:545:CZ:4926, H-A:GLU:543:OE2:4910, V-A:HIS:456:CE1:4070, V-A:GLY:454:CA:4049, V-A:TYR:484:CE2:4346, V-A:GLU:543:C:4902, V-B:GLU:543:C:9874, V-A:HIS:456:CD2:4068, V-B:GLU:543:CA:9876, V-A:TYR:484:CZ:4347, V-B:GLU:543:CB:9878, V-A:HIS:456:CG:4066, V-A:GLY:544:C:4912, V-A:GLU:543:CB:4906, V-B:HIS:456:CD2:9039, V-B:HIS:456:CE1:9041, V-B:GLY:544:C:9884, V-B:GLY:544:CA:9886, V-A:ARG:545:CG:4922, H-A:LYS:547:NZ:4951, H-B:LYS:547:NZ:9923, V-A:ARG:545:CA:4919, V-A:ARG:545:CB:4921, H-A:GLY:544:N:4915"]

$$$$
2i_Grossjean_2025
     RDKit          3D

 23 24  0  0  0  0  0  0  0  0999 V2000
  128.4630  122.0240   62.1620 C   0  0  0  0  0  0  0  0  0  0  0  0
  129.6410  122.7170   62.8210 C   0  0  0  0  0  0  0  0  0  0  0  0
  129.4650  123.6240   63.8620 C   0  0  0  0  0  0  0  0  0  0  0  0
  130.5870  124.2360   64.4410 C   0  0  0  0  0  0  0  0  0  0  0  0
  130.3740  125.2380   65.5920 C   0  0  0  0  0  0  0  0  0  0  0  0
  129.4920  124.7490   66.4650 F   0  0  0  0  0  0  0  0  0  0  0  0
  131.5270  125.4640   66.2220 F   0  0  0  0  0  0  0  0  0  0  0  0
  129.9100  126.4170   65.1710 F   0  0  0  0  0  0  0  0  0  0  0  0
  131.8720  123.9060   63.9400 C   0  0  0  0  0  0  0  0  0  0  0  0
  133.0790  124.5160   64.5080 C   0  0  0  0  0  0  0  0  0  0  0  0
  134.0320  124.9960   64.9560 N   0  0  0  0  0  0  0  0  0  0  0  0
  131.9590  122.9770   62.8780 C   0  0  0  0  0  0  0  0  0  0  0  0
  133.5210  122.4920   62.1610 S   0  0  0  0  0  0  0  0  0  0  0  0
  133.2330  122.0580   60.4190 C   0  0  0  0  0  0  0  0  0  0  0  0
  132.8100  120.5980   60.2470 C   0  0  0  0  0  0  0  0  0  0  0  0
  133.5300  119.8380   59.5980 O   0  0  0  0  0  0  0  0  0  0  0  0
  131.6340  120.2560   60.8160 N   0  0  0  0  0  0  0  0  0  0  0  0
  131.0320  119.0090   60.7860 C   0  0  0  0  0  0  0  0  0  0  0  0
  130.0580  118.4550   61.6300 C   0  0  0  0  0  0  0  0  0  0  0  0
  129.8350  117.1950   61.1260 C   0  0  0  0  0  0  0  0  0  0  0  0
  130.6210  117.0060   60.0390 O   0  0  0  0  0  0  0  0  0  0  0  0
  131.3690  118.1670   59.8340 N   0  0  0  0  0  0  0  0  0  0  0  0
  130.8600  122.3940   62.3330 N   0  0  0  0  0  0  0  0  0  0  0  0
  1  2  1  0
  2  3  2  0
  3  4  1  0
  4  5  1  0
  5  6  1  0
  5  7  1  0
  5  8  1  0
  4  9  2  0
  9 10  1  0
 10 11  3  0
  9 12  1  0
 12 13  1  0
 13 14  1  0
 14 15  1  0
 15 16  2  0
 15 17  1  0
 17 18  1  0
 18 19  1  0
 19 20  2  0
 20 21  1  0
 21 22  1  0
 12 23  2  0
 23  2  1  0
 22 18  2  0
M  END
>  <Binding energies>  (25) 
[-6.37]

>  <Ligand effiencies>  (25) 
[-0.2654166666666667]

>  <Interactions>  (25) 
["V-A:ILE:369:CG2:3237, V-B:GLU:543:CD:9880, H-A:ARG:545:NH1:4927, H-A:ARG:545:NH2:4928, H-A:GLY:454:N:4050, H-A:TYR:484:OH:4348, V-B:GLU:543:CG:9879, H-A:ARG:545:NE:4924, V-A:GLU:543:CD:4908, V-A:ARG:545:CZ:4926, V-A:LEU:475:CD2:4259, V-A:HIS:456:CE1:4070, V-B:ALA:541:CB:9864, V-A:GLY:454:CA:4049, V-B:PRO:540:CA:9855, V-B:TYR:539:CE2:9848, V-B:PRO:540:C:9853, V-B:TYR:539:CD2:9846, V-B:ALA:541:CA:9862, V-A:TYR:484:CE2:4346, V-B:GLU:543:CA:9876, V-A:TYR:484:CZ:4347, V-B:GLU:543:CB:9878, V-A:SER:385:CB:3409, V-A:PRO:482:CB:4326, V-A:PRO:482:CG:4327, V-A:HIS:383:NE2:3394, H-A:SER:385:OG:3410, V-A:LEU:475:CG:4257, V-A:LEU:475:CD1:4258, H-A:HIS:383:HE2:3395"]

$$$$
2k_Grossjean_2025
     RDKit          3D

 28 28  0  0  0  0  0  0  0  0999 V2000
  125.2310  122.6320   57.0110 C   0  0  0  0  0  0  0  0  0  0  0  0
  126.4840  121.9710   56.9360 O   0  0  0  0  0  0  0  0  0  0  0  0
  127.5000  122.7510   56.3170 C   0  0  0  0  0  0  0  0  0  0  0  0
  128.2630  123.5470   57.3840 C   0  0  0  0  0  0  0  0  0  0  0  0
  128.2010  122.8460   58.6170 O   0  0  0  0  0  0  0  0  0  0  0  0
  128.4730  123.6490   59.7600 C   0  0  0  0  0  0  0  0  0  0  0  0
  127.1970  123.7330   60.6080 C   0  0  0  0  0  0  0  0  0  0  0  0
  127.2280  122.6690   61.5470 O   0  0  0  0  0  0  0  0  0  0  0  0
  128.4750  122.4730   62.1960 C   0  0  0  0  0  0  0  0  0  0  0  0
  129.1900  121.2690   61.5550 C   0  0  0  0  0  0  0  0  0  0  0  0
  130.5590  121.5740   61.1340 N   0  0  0  0  0  0  0  0  0  0  0  0
  131.4920  120.6680   60.7840 C   0  0  0  0  0  0  0  0  0  0  0  0
  131.2790  119.4540   60.7530 O   0  0  0  0  0  0  0  0  0  0  0  0
  132.8760  121.2350   60.4380 C   0  0  0  0  0  0  0  0  0  0  0  0
  133.3890  122.6950   61.4100 S   0  0  0  0  0  0  0  0  0  0  0  0
  132.2980  124.0640   61.0450 C   0  0  0  0  0  0  0  0  0  0  0  0
  131.4920  124.4620   62.0630 N   0  0  0  0  0  0  0  0  0  0  0  0
  130.6390  125.4890   61.8560 C   0  0  0  0  0  0  0  0  0  0  0  0
  129.7650  125.8660   63.0360 C   0  0  0  0  0  0  0  0  0  0  0  0
  130.5590  126.1670   60.6430 C   0  0  0  0  0  0  0  0  0  0  0  0
  131.3880  125.7780   59.5790 C   0  0  0  0  0  0  0  0  0  0  0  0
  131.2900  126.5420   58.2450 C   0  0  0  0  0  0  0  0  0  0  0  0
  130.7460  125.8120   57.2700 F   0  0  0  0  0  0  0  0  0  0  0  0
  130.5360  127.6320   58.3970 F   0  0  0  0  0  0  0  0  0  0  0  0
  132.5060  126.9110   57.8400 F   0  0  0  0  0  0  0  0  0  0  0  0
  132.2830  124.6960   59.7790 C   0  0  0  0  0  0  0  0  0  0  0  0
  133.1700  124.2450   58.7020 C   0  0  0  0  0  0  0  0  0  0  0  0
  133.8700  123.8900   57.8510 N   0  0  0  0  0  0  0  0  0  0  0  0
  1  2  1  0
  2  3  1  0
  3  4  1  0
  4  5  1  0
  5  6  1  0
  6  7  1  0
  7  8  1  0
  8  9  1  0
  9 10  1  0
 10 11  1  0
 11 12  1  0
 12 13  2  0
 12 14  1  0
 14 15  1  0
 15 16  1  0
 16 17  2  0
 17 18  1  0
 18 19  1  0
 18 20  2  0
 20 21  1  0
 21 22  1  0
 22 23  1  0
 22 24  1  0
 22 25  1  0
 21 26  2  0
 26 27  1  0
 27 28  3  0
 26 16  1  0
M  END
>  <Binding energies>  (26) 
[-5.13]

>  <Ligand effiencies>  (26) 
[-0.17689655172413793]

>  <Interactions>  (26) 
["V-A:ILE:369:CG2:3237, V-A:ASP:366:CB:3212, V-A:ASP:366:CA:3210, V-A:ASP:366:CG:3213, V-A:LEU:475:CD2:4259, V-B:ALA:541:CB:9864, H-B:ALA:541:N:9863, V-B:PRO:540:CD:9859, V-B:PRO:540:CA:9855, V-B:PRO:540:CB:9857, V-B:PRO:540:N:9856, V-B:LEU:363:CD1:8160, V-B:MET:535:CE:9807, V-B:TYR:539:CZ:9849, V-B:TYR:539:CE2:9848, V-B:TYR:539:CD1:9845, H-B:TYR:539:N:9842, V-B:PRO:540:C:9853, V-B:TYR:539:CE1:9847, V-B:TYR:539:CD2:9846, V-B:PRO:540:CG:9858, V-B:TYR:539:CG:9844, V-A:TYR:531:CZ:4794, H-B:TYR:539:OH:9850, H-A:SER:385:OG:3410, H-A:ASN:370:N:3244, H-A:HIS:383:HE2:3395"]

$$$$
3aa_Grossjean_2025
     RDKit          3D

 34 36  0  0  0  0  0  0  0  0999 V2000
  131.2810  125.7530   74.9720 C   0  0  0  0  0  0  0  0  0  0  0  0
  131.4060  126.7470   73.8140 C   0  0  0  0  0  0  0  0  0  0  0  0
  130.1220  127.2700   73.4970 O   0  0  0  0  0  0  0  0  0  0  0  0
  129.9840  128.3060   72.6300 C   0  0  0  0  0  0  0  0  0  0  0  0
  129.8820  129.4840   72.9880 O   0  0  0  0  0  0  0  0  0  0  0  0
  129.9520  127.8760   71.1910 C   0  0  0  0  0  0  0  0  0  0  0  0
  131.0530  128.0470   70.3390 C   0  0  0  0  0  0  0  0  0  0  0  0
  130.9910  127.6330   69.0110 C   0  0  0  0  0  0  0  0  0  0  0  0
  129.8330  127.0360   68.5100 C   0  0  0  0  0  0  0  0  0  0  0  0
  129.8760  126.6500   67.1550 N   0  0  0  0  0  0  0  0  0  0  0  0
  129.8560  125.4140   66.6110 C   0  0  0  0  0  0  0  0  0  0  0  0
  129.8180  124.3560   67.2410 O   0  0  0  0  0  0  0  0  0  0  0  0
  129.8980  125.3660   65.0830 C   0  0  0  0  0  0  0  0  0  0  0  0
  129.6050  123.6850   64.4530 S   0  0  0  0  0  0  0  0  0  0  0  0
  130.0640  123.6870   62.7340 C   0  0  0  0  0  0  0  0  0  0  0  0
  129.0090  123.5790   61.8900 N   0  0  0  0  0  0  0  0  0  0  0  0
  129.2190  123.5650   60.5490 C   0  0  0  0  0  0  0  0  0  0  0  0
  128.0010  123.4590   59.6810 C   0  0  0  0  0  0  0  0  0  0  0  0
  126.7710  123.9810   60.1110 C   0  0  0  0  0  0  0  0  0  0  0  0
  125.6350  123.8860   59.3100 C   0  0  0  0  0  0  0  0  0  0  0  0
  125.7160  123.2670   58.0680 C   0  0  0  0  0  0  0  0  0  0  0  0
  126.9240  122.7440   57.6190 C   0  0  0  0  0  0  0  0  0  0  0  0
  128.0580  122.8420   58.4200 C   0  0  0  0  0  0  0  0  0  0  0  0
  130.5110  123.6690   60.0220 C   0  0  0  0  0  0  0  0  0  0  0  0
  131.6200  123.7640   60.8770 C   0  0  0  0  0  0  0  0  0  0  0  0
  133.0280  123.8650   60.2590 C   0  0  0  0  0  0  0  0  0  0  0  0
  133.8130  122.8360   60.5870 F   0  0  0  0  0  0  0  0  0  0  0  0
  132.9450  123.8930   58.9290 F   0  0  0  0  0  0  0  0  0  0  0  0
  133.6290  124.9790   60.6780 F   0  0  0  0  0  0  0  0  0  0  0  0
  131.3970  123.7610   62.2760 C   0  0  0  0  0  0  0  0  0  0  0  0
  132.5220  123.7990   63.2150 C   0  0  0  0  0  0  0  0  0  0  0  0
  133.4100  123.8290   63.9580 N   0  0  0  0  0  0  0  0  0  0  0  0
  128.7220  126.8740   69.3530 C   0  0  0  0  0  0  0  0  0  0  0  0
  128.7860  127.2910   70.6790 C   0  0  0  0  0  0  0  0  0  0  0  0
  1  2  1  0
  2  3  1  0
  3  4  1  0
  4  5  2  0
  4  6  1  0
  6  7  2  0
  7  8  1  0
  8  9  2  0
  9 10  1  0
 10 11  1  0
 11 12  2  0
 11 13  1  0
 13 14  1  0
 14 15  1  0
 15 16  2  0
 16 17  1  0
 17 18  1  0
 18 19  2  0
 19 20  1  0
 20 21  2  0
 21 22  1  0
 22 23  2  0
 17 24  2  0
 24 25  1  0
 25 26  1  0
 26 27  1  0
 26 28  1  0
 26 29  1  0
 25 30  2  0
 30 31  1  0
 31 32  3  0
  9 33  1  0
 33 34  2  0
 34  6  1  0
 30 15  1  0
 23 18  1  0
M  END
>  <Binding energies>  (27) 
[-8.44]

>  <Ligand effiencies>  (27) 
[-0.24114285714285713]

>  <Interactions>  (27) 
["V-A:ILE:369:CG2:3237, V-A:ILE:369:CD1:3239, V-A:ASP:366:CB:3212, V-B:GLU:543:CD:9880, H-A:GLY:454:N:4050, V-A:ASP:366:CA:3210, V-A:ASP:366:CG:3213, H-A:GLU:543:OE1:4909, H-A:TYR:484:OH:4348, V-B:GLU:543:CG:9879, V-A:ILE:369:CB:3236, V-A:GLU:543:CD:4908, H-A:GLU:543:OE2:4910, V-A:HIS:456:CE1:4070, V-B:TYR:539:C:9839, V-B:PRO:540:CD:9859, V-B:PRO:540:CA:9855, V-B:PRO:540:CB:9857, V-B:PRO:540:N:9856, V-B:TYR:539:CZ:9849, V-B:TYR:539:CE2:9848, V-B:TYR:539:CD2:9846, V-B:TYR:539:CG:9844, V-A:GLU:543:C:4902, V-B:GLU:543:C:9874, V-A:HIS:456:CD2:4068, V-B:GLU:543:CB:9878, V-A:HIS:456:CG:4066, V-A:GLY:544:C:4912, V-A:GLU:543:CB:4906, V-B:HIS:456:CE1:9041, V-A:ARG:545:CG:4922, H-A:LYS:547:NZ:4951"]

$$$$
3ad_Grossjean_2025
     RDKit          3D

 29 31  0  0  0  0  0  0  0  0999 V2000
  133.6260  124.0060   64.1410 N   0  0  0  0  0  0  0  0  0  0  0  0
  132.7490  123.8870   63.3950 C   0  0  0  0  0  0  0  0  0  0  0  0
  131.6410  123.7360   62.4470 C   0  0  0  0  0  0  0  0  0  0  0  0
  131.8750  123.7600   61.0500 C   0  0  0  0  0  0  0  0  0  0  0  0
  133.2850  123.8990   60.4450 C   0  0  0  0  0  0  0  0  0  0  0  0
  133.2680  124.0250   59.1160 F   0  0  0  0  0  0  0  0  0  0  0  0
  133.8900  124.9780   60.9440 F   0  0  0  0  0  0  0  0  0  0  0  0
  134.0160  122.8210   60.7330 F   0  0  0  0  0  0  0  0  0  0  0  0
  130.7750  123.6590   60.1850 C   0  0  0  0  0  0  0  0  0  0  0  0
  129.4790  123.5390   60.6990 C   0  0  0  0  0  0  0  0  0  0  0  0
  128.2670  123.4430   59.8200 C   0  0  0  0  0  0  0  0  0  0  0  0
  127.0290  123.9480   60.2480 C   0  0  0  0  0  0  0  0  0  0  0  0
  125.9010  123.8620   59.4370 C   0  0  0  0  0  0  0  0  0  0  0  0
  125.9960  123.2680   58.1820 C   0  0  0  0  0  0  0  0  0  0  0  0
  127.2120  122.7620   57.7340 C   0  0  0  0  0  0  0  0  0  0  0  0
  128.3380  122.8510   58.5480 C   0  0  0  0  0  0  0  0  0  0  0  0
  129.2600  123.5230   62.0380 N   0  0  0  0  0  0  0  0  0  0  0  0
  130.3070  123.5990   62.8930 C   0  0  0  0  0  0  0  0  0  0  0  0
  129.8350  123.5500   64.6070 S   0  0  0  0  0  0  0  0  0  0  0  0
  130.5440  125.0210   65.4050 C   0  0  0  0  0  0  0  0  0  0  0  0
  130.0360  125.2040   66.8360 C   0  0  0  0  0  0  0  0  0  0  0  0
  129.5160  124.2490   67.4130 O   0  0  0  0  0  0  0  0  0  0  0  0
  130.2070  126.4380   67.3590 N   0  0  0  0  0  0  0  0  0  0  0  0
  129.8710  126.9310   68.6330 C   0  0  0  0  0  0  0  0  0  0  0  0
  130.8840  127.6270   69.2990 C   0  0  0  0  0  0  0  0  0  0  0  0
  130.6570  128.1540   70.5680 C   0  0  0  0  0  0  0  0  0  0  0  0
  129.4170  127.9810   71.1760 C   0  0  0  0  0  0  0  0  0  0  0  0
  128.4010  127.2850   70.5260 C   0  0  0  0  0  0  0  0  0  0  0  0
  128.6230  126.7560   69.2570 C   0  0  0  0  0  0  0  0  0  0  0  0
  1  2  3  0
  2  3  1  0
  3  4  2  0
  4  5  1  0
  5  6  1  0
  5  7  1  0
  5  8  1  0
  4  9  1  0
  9 10  2  0
 10 11  1  0
 11 12  2  0
 12 13  1  0
 13 14  2  0
 14 15  1  0
 15 16  2  0
 10 17  1  0
 17 18  2  0
 18 19  1  0
 19 20  1  0
 20 21  1  0
 21 22  2  0
 21 23  1  0
 23 24  1  0
 24 25  2  0
 25 26  1  0
 26 27  2  0
 27 28  1  0
 28 29  2  0
 18  3  1  0
 29 24  1  0
 16 11  1  0
M  END
>  <Binding energies>  (28) 
[-7.78]

>  <Ligand effiencies>  (28) 
[-0.25933333333333336]

>  <Interactions>  (28) 
["V-A:ILE:369:CG2:3237, V-A:ILE:369:CD1:3239, V-A:ASP:366:CB:3212, H-A:GLY:454:N:4050, V-A:ASP:366:CA:3210, V-A:ASP:366:CG:3213, H-A:GLU:543:OE1:4909, H-A:TYR:484:OH:4348, V-B:GLU:543:CG:9879, V-A:ILE:369:CB:3236, V-A:GLU:543:CD:4908, H-A:GLU:543:OE2:4910, V-A:HIS:456:CE1:4070, V-B:TYR:539:C:9839, V-B:PRO:540:CA:9855, V-B:PRO:540:CB:9857, V-B:PRO:540:N:9856, V-B:TYR:539:CZ:9849, V-B:TYR:539:CE2:9848, V-B:TYR:539:CD2:9846, V-B:TYR:539:CG:9844, V-A:TYR:484:CE2:4346, V-A:GLU:543:C:4902, V-B:GLU:543:C:9874, V-B:GLU:543:CB:9878, V-A:GLY:544:C:4912, V-A:GLU:543:CB:4906, V-B:HIS:456:CE1:9041"]

$$$$
3ai_Grossjean_2025
     RDKit          3D

 28 30  0  0  0  0  0  0  0  0999 V2000
  129.2810  126.8120   63.1910 N   0  0  0  0  0  0  0  0  0  0  0  0
  129.2060  126.9150   64.3410 C   0  0  0  0  0  0  0  0  0  0  0  0
  129.1090  127.0470   65.7980 C   0  0  0  0  0  0  0  0  0  0  0  0
  128.3690  128.1040   66.3820 C   0  0  0  0  0  0  0  0  0  0  0  0
  127.5940  129.1390   65.5440 C   0  0  0  0  0  0  0  0  0  0  0  0
  127.3790  128.7330   64.2900 F   0  0  0  0  0  0  0  0  0  0  0  0
  126.4050  129.3750   66.1000 F   0  0  0  0  0  0  0  0  0  0  0  0
  128.2770  130.2820   65.4800 F   0  0  0  0  0  0  0  0  0  0  0  0
  128.3470  128.2140   67.7810 C   0  0  0  0  0  0  0  0  0  0  0  0
  129.0450  127.2980   68.5740 C   0  0  0  0  0  0  0  0  0  0  0  0
  129.0650  127.3740   70.0710 C   0  0  0  0  0  0  0  0  0  0  0  0
  130.1650  127.9290   70.7450 C   0  0  0  0  0  0  0  0  0  0  0  0
  130.1880  128.0070   72.1350 C   0  0  0  0  0  0  0  0  0  0  0  0
  129.1080  127.5320   72.8710 C   0  0  0  0  0  0  0  0  0  0  0  0
  128.0060  126.9800   72.2270 C   0  0  0  0  0  0  0  0  0  0  0  0
  127.9850  126.9040   70.8380 C   0  0  0  0  0  0  0  0  0  0  0  0
  129.7600  126.2910   68.0090 N   0  0  0  0  0  0  0  0  0  0  0  0
  129.7770  126.1490   66.6620 C   0  0  0  0  0  0  0  0  0  0  0  0
  130.7460  124.7630   66.1070 S   0  0  0  0  0  0  0  0  0  0  0  0
  132.4250  125.3690   65.7270 C   0  0  0  0  0  0  0  0  0  0  0  0
  132.9170  125.0680   64.3040 C   0  0  0  0  0  0  0  0  0  0  0  0
  133.9950  124.5000   64.1160 O   0  0  0  0  0  0  0  0  0  0  0  0
  132.0820  125.4750   63.3210 N   0  0  0  0  0  0  0  0  0  0  0  0
  132.2630  125.3320   61.9510 C   0  0  0  0  0  0  0  0  0  0  0  0
  131.7330  126.2190   61.0150 C   0  0  0  0  0  0  0  0  0  0  0  0
  132.1300  125.7300   59.7920 C   0  0  0  0  0  0  0  0  0  0  0  0
  132.8620  124.6060   59.9810 O   0  0  0  0  0  0  0  0  0  0  0  0
  132.9400  124.3640   61.3540 N   0  0  0  0  0  0  0  0  0  0  0  0
  1  2  3  0
  2  3  1  0
  3  4  2  0
  4  5  1  0
  5  6  1  0
  5  7  1  0
  5  8  1  0
  4  9  1  0
  9 10  2  0
 10 11  1  0
 11 12  2  0
 12 13  1  0
 13 14  2  0
 14 15  1  0
 15 16  2  0
 10 17  1  0
 17 18  2  0
 18 19  1  0
 19 20  1  0
 20 21  1  0
 21 22  2  0
 21 23  1  0
 23 24  1  0
 24 25  1  0
 25 26  2  0
 26 27  1  0
 27 28  1  0
 18  3  1  0
 28 24  2  0
 16 11  1  0
M  END
>  <Binding energies>  (29) 
[-6.95]

>  <Ligand effiencies>  (29) 
[-0.2396551724137931]

>  <Interactions>  (29) 
["V-A:ASP:366:CB:3212, V-B:GLU:543:CD:9880, H-A:ARG:545:NH2:4928, H-A:GLY:454:N:4050, V-A:ASP:366:CG:3213, H-A:GLU:543:OE1:4909, H-A:TYR:484:OH:4348, V-B:GLU:543:CG:9879, V-A:GLU:543:CD:4908, V-A:ARG:545:CZ:4926, H-A:GLU:543:OE2:4910, V-A:HIS:456:CE1:4070, V-A:GLU:543:C:4902, V-B:GLU:543:C:9874, V-B:GLU:543:CB:9878, V-A:GLY:544:C:4912, V-A:GLU:543:CB:4906, V-B:HIS:456:CE1:9041, V-B:GLY:544:C:9884, V-A:GLU:543:CG:4907, V-B:TYR:484:CE2:9317, V-B:TYR:484:CZ:9318"]

$$$$
3aj_Grossjean_2025
     RDKit          3D

 28 30  0  0  0  0  0  0  0  0999 V2000
  129.4760  126.6060   62.4300 N   0  0  0  0  0  0  0  0  0  0  0  0
  129.3290  126.7380   63.5700 C   0  0  0  0  0  0  0  0  0  0  0  0
  129.1390  126.9070   65.0130 C   0  0  0  0  0  0  0  0  0  0  0  0
  128.3750  127.9860   65.5220 C   0  0  0  0  0  0  0  0  0  0  0  0
  127.6690  129.0080   64.6100 C   0  0  0  0  0  0  0  0  0  0  0  0
  128.5230  129.8370   64.0040 F   0  0  0  0  0  0  0  0  0  0  0  0
  126.9820  128.3730   63.6600 F   0  0  0  0  0  0  0  0  0  0  0  0
  126.8280  129.7550   65.3260 F   0  0  0  0  0  0  0  0  0  0  0  0
  128.2630  128.1310   66.9130 C   0  0  0  0  0  0  0  0  0  0  0  0
  128.8990  127.2280   67.7720 C   0  0  0  0  0  0  0  0  0  0  0  0
  128.8210  127.3420   69.2640 C   0  0  0  0  0  0  0  0  0  0  0  0
  129.8760  127.9090   69.9950 C   0  0  0  0  0  0  0  0  0  0  0  0
  129.8080  128.0230   71.3820 C   0  0  0  0  0  0  0  0  0  0  0  0
  128.6800  127.5670   72.0570 C   0  0  0  0  0  0  0  0  0  0  0  0
  127.6200  127.0020   71.3540 C   0  0  0  0  0  0  0  0  0  0  0  0
  127.6920  126.8930   69.9690 C   0  0  0  0  0  0  0  0  0  0  0  0
  129.6370  126.2000   67.2800 N   0  0  0  0  0  0  0  0  0  0  0  0
  129.7400  126.0250   65.9410 C   0  0  0  0  0  0  0  0  0  0  0  0
  130.7250  124.6160   65.4830 S   0  0  0  0  0  0  0  0  0  0  0  0
  132.4490  125.1800   65.2810 C   0  0  0  0  0  0  0  0  0  0  0  0
  133.0390  124.9780   63.8780 C   0  0  0  0  0  0  0  0  0  0  0  0
  134.2200  124.6520   63.7310 O   0  0  0  0  0  0  0  0  0  0  0  0
  132.1690  125.1830   62.8650 N   0  0  0  0  0  0  0  0  0  0  0  0
  132.4330  125.0630   61.5070 C   0  0  0  0  0  0  0  0  0  0  0  0
  131.9370  125.7790   60.5210 N   0  0  0  0  0  0  0  0  0  0  0  0
  132.4130  125.3940   59.3530 C   0  0  0  0  0  0  0  0  0  0  0  0
  133.3200  124.3370   59.3770 C   0  0  0  0  0  0  0  0  0  0  0  0
  133.5530  123.8300   61.0230 S   0  0  0  0  0  0  0  0  0  0  0  0
  1  2  3  0
  2  3  1  0
  3  4  2  0
  4  5  1  0
  5  6  1  0
  5  7  1  0
  5  8  1  0
  4  9  1  0
  9 10  2  0
 10 11  1  0
 11 12  2  0
 12 13  1  0
 13 14  2  0
 14 15  1  0
 15 16  2  0
 10 17  1  0
 17 18  2  0
 18 19  1  0
 19 20  1  0
 20 21  1  0
 21 22  2  0
 21 23  1  0
 23 24  1  0
 24 25  2  0
 25 26  1  0
 26 27  2  0
 27 28  1  0
 18  3  1  0
 28 24  1  0
 16 11  1  0
M  END
>  <Binding energies>  (30) 
[-6.88]

>  <Ligand effiencies>  (30) 
[-0.23724137931034484]

>  <Interactions>  (30) 
["V-A:ILE:369:CG2:3237, V-A:ILE:369:CD1:3239, V-A:ASP:366:CB:3212, V-B:GLU:543:CD:9880, H-A:ARG:545:NH1:4927, H-A:ARG:545:NH2:4928, H-A:GLY:454:N:4050, V-A:ASP:366:CA:3210, V-A:ASP:366:CG:3213, H-A:TYR:484:OH:4348, V-B:GLU:543:CG:9879, V-A:GLU:543:CD:4908, V-A:ARG:545:CZ:4926, V-A:HIS:456:CE1:4070, V-B:TYR:539:CE2:9848, V-A:GLU:543:C:4902, V-B:GLU:543:C:9874, V-B:GLU:543:CB:9878, V-A:GLU:543:CB:4906, V-B:HIS:456:CD2:9039, V-B:HIS:456:CE1:9041, V-B:GLY:544:C:9884, V-A:GLU:543:CG:4907, V-B:TYR:484:CZ:9318"]

$$$$
3ak_Grossjean_2025
     RDKit          3D

 33 34  0  0  0  0  0  0  0  0999 V2000
  125.4080  122.7550   56.6780 C   0  0  0  0  0  0  0  0  0  0  0  0
  126.6160  122.0120   56.6360 O   0  0  0  0  0  0  0  0  0  0  0  0
  127.7460  122.7460   57.0840 C   0  0  0  0  0  0  0  0  0  0  0  0
  127.5720  123.0720   58.5730 C   0  0  0  0  0  0  0  0  0  0  0  0
  128.6300  122.4660   59.3070 O   0  0  0  0  0  0  0  0  0  0  0  0
  128.8440  122.9820   60.6180 C   0  0  0  0  0  0  0  0  0  0  0  0
  130.0930  123.8740   60.7370 C   0  0  0  0  0  0  0  0  0  0  0  0
  131.2430  123.0510   60.8740 O   0  0  0  0  0  0  0  0  0  0  0  0
  132.4370  123.7700   61.1530 C   0  0  0  0  0  0  0  0  0  0  0  0
  132.1030  125.2220   61.5440 C   0  0  0  0  0  0  0  0  0  0  0  0
  131.8860  125.4070   62.9800 N   0  0  0  0  0  0  0  0  0  0  0  0
  132.7100  124.9960   63.9630 C   0  0  0  0  0  0  0  0  0  0  0  0
  133.7750  124.4170   63.7420 O   0  0  0  0  0  0  0  0  0  0  0  0
  132.3080  125.2570   65.4240 C   0  0  0  0  0  0  0  0  0  0  0  0
  130.6270  124.7250   65.9180 S   0  0  0  0  0  0  0  0  0  0  0  0
  129.7350  126.1440   66.5360 C   0  0  0  0  0  0  0  0  0  0  0  0
  129.7180  126.2830   67.8840 N   0  0  0  0  0  0  0  0  0  0  0  0
  129.0600  127.3270   68.4500 C   0  0  0  0  0  0  0  0  0  0  0  0
  129.0930  127.4040   69.9470 C   0  0  0  0  0  0  0  0  0  0  0  0
  130.2130  127.9230   70.6150 C   0  0  0  0  0  0  0  0  0  0  0  0
  130.2480  128.0010   72.0050 C   0  0  0  0  0  0  0  0  0  0  0  0
  129.1580  127.5600   72.7480 C   0  0  0  0  0  0  0  0  0  0  0  0
  128.0350  127.0440   72.1120 C   0  0  0  0  0  0  0  0  0  0  0  0
  128.0030  126.9690   70.7220 C   0  0  0  0  0  0  0  0  0  0  0  0
  128.4080  128.2780   67.6580 C   0  0  0  0  0  0  0  0  0  0  0  0
  128.4120  128.1580   66.2600 C   0  0  0  0  0  0  0  0  0  0  0  0
  127.6810  129.2250   65.4210 C   0  0  0  0  0  0  0  0  0  0  0  0
  126.4780  129.4690   65.9400 F   0  0  0  0  0  0  0  0  0  0  0  0
  128.3850  130.3580   65.4080 F   0  0  0  0  0  0  0  0  0  0  0  0
  127.5020  128.8510   64.1520 F   0  0  0  0  0  0  0  0  0  0  0  0
  129.0920  127.0620   65.6770 C   0  0  0  0  0  0  0  0  0  0  0  0
  129.1290  126.8860   64.2220 C   0  0  0  0  0  0  0  0  0  0  0  0
  129.1580  126.7450   63.0730 N   0  0  0  0  0  0  0  0  0  0  0  0
  1  2  1  0
  2  3  1  0
  3  4  1  0
  4  5  1  0
  5  6  1  0
  6  7  1  0
  7  8  1  0
  8  9  1  0
  9 10  1  0
 10 11  1  0
 11 12  1  0
 12 13  2  0
 12 14  1  0
 14 15  1  0
 15 16  1  0
 16 17  2  0
 17 18  1  0
 18 19  1  0
 19 20  2  0
 20 21  1  0
 21 22  2  0
 22 23  1  0
 23 24  2  0
 18 25  2  0
 25 26  1  0
 26 27  1  0
 27 28  1  0
 27 29  1  0
 27 30  1  0
 26 31  2  0
 31 32  1  0
 32 33  3  0
 31 16  1  0
 24 19  1  0
M  END
>  <Binding energies>  (31) 
[-7.03]

>  <Ligand effiencies>  (31) 
[-0.20676470588235296]

>  <Interactions>  (31) 
["V-B:GLU:543:CD:9880, H-A:ARG:545:NH2:4928, H-A:GLY:454:N:4050, V-A:ASP:366:CG:3213, H-A:GLU:543:OE1:4909, H-A:TYR:484:OH:4348, V-B:GLU:543:CG:9879, V-A:GLU:543:CD:4908, V-A:ARG:545:CZ:4926, H-A:GLU:543:OE2:4910, V-A:HIS:456:CE1:4070, V-B:TYR:539:C:9839, V-B:PRO:540:CD:9859, V-B:PRO:540:CA:9855, V-B:PRO:540:CB:9857, V-B:PRO:540:N:9856, V-B:LEU:363:CD1:8160, V-B:MET:535:CE:9807, V-B:TYR:539:CZ:9849, V-B:TYR:539:CE2:9848, V-B:TYR:539:CD1:9845, H-B:TYR:539:N:9842, V-B:TYR:539:CE1:9847, V-B:TYR:539:CD2:9846, V-B:TYR:539:CG:9844, V-A:GLU:543:C:4902, V-B:GLU:543:C:9874, V-B:GLU:543:CB:9878, V-A:GLY:544:C:4912, V-A:GLU:543:CB:4906, V-B:HIS:456:CD2:9039, V-B:HIS:456:CE1:9041, V-A:GLU:543:CG:4907, V-B:TYR:484:CE2:9317, V-B:TYR:484:CZ:9318"]

$$$$
3bk_Grossjean_2025
     RDKit          3D

 30 31  0  0  0  0  0  0  0  0999 V2000
  125.2070  122.5390   56.5680 C   0  0  0  0  0  0  0  0  0  0  0  0
  126.5020  121.9610   56.6340 O   0  0  0  0  0  0  0  0  0  0  0  0
  127.5510  122.9200   56.6310 C   0  0  0  0  0  0  0  0  0  0  0  0
  128.0620  123.1300   58.0630 C   0  0  0  0  0  0  0  0  0  0  0  0
  126.9580  123.1880   58.9540 O   0  0  0  0  0  0  0  0  0  0  0  0
  127.0730  124.2000   59.9460 C   0  0  0  0  0  0  0  0  0  0  0  0
  126.8100  123.5860   61.3270 C   0  0  0  0  0  0  0  0  0  0  0  0
  127.5530  122.3810   61.4570 O   0  0  0  0  0  0  0  0  0  0  0  0
  128.8840  122.5730   61.9170 C   0  0  0  0  0  0  0  0  0  0  0  0
  129.8430  121.7190   61.0750 C   0  0  0  0  0  0  0  0  0  0  0  0
  131.2250  121.7990   61.5510 N   0  0  0  0  0  0  0  0  0  0  0  0
  132.2550  121.0710   61.0850 C   0  0  0  0  0  0  0  0  0  0  0  0
  132.1540  120.2500   60.1730 O   0  0  0  0  0  0  0  0  0  0  0  0
  133.6180  121.3260   61.7330 C   0  0  0  0  0  0  0  0  0  0  0  0
  134.2750  122.9710   61.3130 S   0  0  0  0  0  0  0  0  0  0  0  0
  132.9280  124.1420   61.2740 C   0  0  0  0  0  0  0  0  0  0  0  0
  132.3300  124.3990   62.4650 N   0  0  0  0  0  0  0  0  0  0  0  0
  131.2920  125.2750   62.5300 C   0  0  0  0  0  0  0  0  0  0  0  0
  130.7040  125.5170   63.8870 C   0  0  0  0  0  0  0  0  0  0  0  0
  131.1650  124.8060   65.0070 C   0  0  0  0  0  0  0  0  0  0  0  0
  130.6170  125.0240   66.2690 C   0  0  0  0  0  0  0  0  0  0  0  0
  129.5990  125.9580   66.4290 C   0  0  0  0  0  0  0  0  0  0  0  0
  129.1270  126.6780   65.3360 C   0  0  0  0  0  0  0  0  0  0  0  0
  129.6780  126.4590   64.0770 C   0  0  0  0  0  0  0  0  0  0  0  0
  130.8300  125.9270   61.3810 C   0  0  0  0  0  0  0  0  0  0  0  0
  131.4340  125.6730   60.1440 C   0  0  0  0  0  0  0  0  0  0  0  0
  130.8990  126.4050   58.9150 C   0  0  0  0  0  0  0  0  0  0  0  0
  132.5090  124.7610   60.0760 C   0  0  0  0  0  0  0  0  0  0  0  0
  133.1620  124.4770   58.7950 C   0  0  0  0  0  0  0  0  0  0  0  0
  133.6780  124.2520   57.7830 N   0  0  0  0  0  0  0  0  0  0  0  0
  1  2  1  0
  2  3  1  0
  3  4  1  0
  4  5  1  0
  5  6  1  0
  6  7  1  0
  7  8  1  0
  8  9  1  0
  9 10  1  0
 10 11  1  0
 11 12  1  0
 12 13  2  0
 12 14  1  0
 14 15  1  0
 15 16  1  0
 16 17  2  0
 17 18  1  0
 18 19  1  0
 19 20  2  0
 20 21  1  0
 21 22  2  0
 22 23  1  0
 23 24  2  0
 18 25  2  0
 25 26  1  0
 26 27  1  0
 26 28  2  0
 28 29  1  0
 29 30  3  0
 28 16  1  0
 24 19  1  0
M  END
>  <Binding energies>  (32) 
[-6.78]

>  <Ligand effiencies>  (32) 
[-0.21870967741935485]

>  <Interactions>  (32) 
["V-A:ILE:369:CG2:3237, V-A:ASP:366:CB:3212, V-B:GLU:543:CD:9880, V-A:ASP:366:CA:3210, V-A:ASP:366:CG:3213, V-B:GLU:543:CG:9879, V-A:GLU:543:CD:4908, V-A:LEU:475:CD2:4259, V-A:HIS:456:CE1:4070, V-B:ALA:541:CB:9864, H-B:ALA:541:N:9863, V-B:PRO:540:CD:9859, V-B:PRO:540:CA:9855, V-B:PRO:540:CB:9857, V-B:PRO:540:N:9856, V-B:LEU:363:CD1:8160, V-B:MET:535:CE:9807, V-B:TYR:539:CZ:9849, V-B:TYR:539:CE2:9848, V-B:TYR:539:CD1:9845, H-B:TYR:539:N:9842, V-B:TYR:539:CE1:9847, V-B:TYR:539:CD2:9846, V-B:PRO:540:CG:9858, V-B:ILE:538:CG2:9835, V-B:TYR:539:CG:9844, V-A:TYR:484:CE2:4346, V-A:TYR:484:CZ:4347, V-B:GLU:543:CB:9878, V-A:SER:385:CB:3409, V-A:SER:385:C:3405, H-B:TYR:539:OH:9850, H-A:SER:385:OG:3410"]

$$$$
3cb_Grossjean_2025
     RDKit          3D

 30 32  0  0  0  0  0  0  0  0999 V2000
  129.4140  131.0290   73.2510 C   0  0  0  0  0  0  0  0  0  0  0  0
  129.9270  129.7100   73.1370 O   0  0  0  0  0  0  0  0  0  0  0  0
  129.1200  128.6730   72.7920 C   0  0  0  0  0  0  0  0  0  0  0  0
  128.2330  128.2290   73.5270 O   0  0  0  0  0  0  0  0  0  0  0  0
  129.4160  128.1180   71.4280 C   0  0  0  0  0  0  0  0  0  0  0  0
  128.4690  127.3780   70.7050 C   0  0  0  0  0  0  0  0  0  0  0  0
  128.7740  126.8800   69.4420 C   0  0  0  0  0  0  0  0  0  0  0  0
  130.0300  127.1050   68.8760 C   0  0  0  0  0  0  0  0  0  0  0  0
  130.2300  126.5590   67.5920 N   0  0  0  0  0  0  0  0  0  0  0  0
  129.9890  125.3120   67.1330 C   0  0  0  0  0  0  0  0  0  0  0  0
  129.5070  124.3950   67.8000 O   0  0  0  0  0  0  0  0  0  0  0  0
  130.3510  125.0970   65.6550 C   0  0  0  0  0  0  0  0  0  0  0  0
  132.1060  125.3820   65.2430 S   0  0  0  0  0  0  0  0  0  0  0  0
  132.3760  124.8050   63.5800 C   0  0  0  0  0  0  0  0  0  0  0  0
  133.3540  123.8720   63.4850 N   0  0  0  0  0  0  0  0  0  0  0  0
  133.6460  123.3610   62.2680 C   0  0  0  0  0  0  0  0  0  0  0  0
  134.7430  122.3130   62.2390 C   0  0  0  0  0  0  0  0  0  0  0  0
  132.9860  123.7590   61.1090 C   0  0  0  0  0  0  0  0  0  0  0  0
  131.9820  124.7340   61.1810 C   0  0  0  0  0  0  0  0  0  0  0  0
  131.3070  125.1310   59.9080 C   0  0  0  0  0  0  0  0  0  0  0  0
  130.0340  124.6350   59.6020 C   0  0  0  0  0  0  0  0  0  0  0  0
  129.3920  125.0080   58.4240 C   0  0  0  0  0  0  0  0  0  0  0  0
  130.0220  125.8860   57.5460 C   0  0  0  0  0  0  0  0  0  0  0  0
  131.2830  126.3960   57.8380 C   0  0  0  0  0  0  0  0  0  0  0  0
  131.9220  126.0220   59.0180 C   0  0  0  0  0  0  0  0  0  0  0  0
  131.6730  125.2900   62.4490 C   0  0  0  0  0  0  0  0  0  0  0  0
  130.6980  126.3790   62.5710 C   0  0  0  0  0  0  0  0  0  0  0  0
  129.9290  127.2370   62.6660 N   0  0  0  0  0  0  0  0  0  0  0  0
  130.9810  127.8490   69.5910 C   0  0  0  0  0  0  0  0  0  0  0  0
  130.6740  128.3470   70.8540 C   0  0  0  0  0  0  0  0  0  0  0  0
  1  2  1  0
  2  3  1  0
  3  4  2  0
  3  5  1  0
  5  6  2  0
  6  7  1  0
  7  8  2  0
  8  9  1  0
  9 10  1  0
 10 11  2  0
 10 12  1  0
 12 13  1  0
 13 14  1  0
 14 15  2  0
 15 16  1  0
 16 17  1  0
 16 18  2  0
 18 19  1  0
 19 20  1  0
 20 21  2  0
 21 22  1  0
 22 23  2  0
 23 24  1  0
 24 25  2  0
 19 26  2  0
 26 27  1  0
 27 28  3  0
  8 29  1  0
 29 30  2  0
 30  5  1  0
 26 14  1  0
 25 20  1  0
M  END
>  <Binding energies>  (33) 
[-7.81]

>  <Ligand effiencies>  (33) 
[-0.2519354838709677]

>  <Interactions>  (33) 
["V-A:ILE:369:CG2:3237, V-A:ILE:369:CD1:3239, V-A:ASP:366:CB:3212, V-A:GLY:453:C:4042, H-A:ARG:545:NH2:4928, H-A:GLY:454:N:4050, V-A:ASP:366:CG:3213, H-A:GLU:543:OE1:4909, H-A:TYR:484:OH:4348, V-B:GLU:543:CG:9879, H-A:ARG:545:NE:4924, V-A:GLU:543:CD:4908, V-A:ARG:545:CZ:4926, H-A:GLU:543:OE2:4910, V-A:HIS:456:CE1:4070, V-A:GLY:454:CA:4049, V-B:TYR:539:CZ:9849, V-B:TYR:539:CE2:9848, V-A:TYR:484:CE2:4346, V-A:GLU:543:C:4902, V-B:GLU:543:C:9874, V-B:GLU:543:CB:9878, V-A:GLY:544:C:4912, V-A:GLU:543:CB:4906, V-B:HIS:456:CD2:9039, V-B:HIS:456:CE1:9041, V-A:SER:385:C:3405, H-A:LYS:547:NZ:4951, H-B:LYS:547:NZ:9923, V-A:GLY:544:CA:4914, V-A:LYS:547:CE:4950"]

$$$$
3ch_Grossjean_2025
     RDKit          3D

 32 34  0  0  0  0  0  0  0  0999 V2000
  124.0940  129.7860   66.6240 C   0  0  0  0  0  0  0  0  0  0  0  0
  123.8820  130.2040   65.2800 O   0  0  0  0  0  0  0  0  0  0  0  0
  124.8490  129.9440   64.3240 C   0  0  0  0  0  0  0  0  0  0  0  0
  125.9690  129.1270   64.5430 C   0  0  0  0  0  0  0  0  0  0  0  0
  126.9050  128.9010   63.5230 C   0  0  0  0  0  0  0  0  0  0  0  0
  128.0530  128.0950   63.6450 N   0  0  0  0  0  0  0  0  0  0  0  0
  128.6430  127.2910   62.7340 C   0  0  0  0  0  0  0  0  0  0  0  0
  128.2650  127.1270   61.5740 O   0  0  0  0  0  0  0  0  0  0  0  0
  129.9080  126.5750   63.2080 C   0  0  0  0  0  0  0  0  0  0  0  0
  129.9150  124.8180   62.7470 S   0  0  0  0  0  0  0  0  0  0  0  0
  129.6900  124.7690   60.9820 C   0  0  0  0  0  0  0  0  0  0  0  0
  130.7340  125.2750   60.2800 N   0  0  0  0  0  0  0  0  0  0  0  0
  130.6580  125.2910   58.9300 C   0  0  0  0  0  0  0  0  0  0  0  0
  131.8570  125.8750   58.2080 C   0  0  0  0  0  0  0  0  0  0  0  0
  129.5500  124.8110   58.2350 C   0  0  0  0  0  0  0  0  0  0  0  0
  128.4640  124.2780   58.9420 C   0  0  0  0  0  0  0  0  0  0  0  0
  127.2940  123.7840   58.1550 C   0  0  0  0  0  0  0  0  0  0  0  0
  127.4760  122.8280   57.1480 C   0  0  0  0  0  0  0  0  0  0  0  0
  126.3920  122.3690   56.4050 C   0  0  0  0  0  0  0  0  0  0  0  0
  125.1180  122.8690   56.6630 C   0  0  0  0  0  0  0  0  0  0  0  0
  124.9210  123.8250   57.6560 C   0  0  0  0  0  0  0  0  0  0  0  0
  126.0080  124.2820   58.3970 C   0  0  0  0  0  0  0  0  0  0  0  0
  128.5370  124.2360   60.3580 C   0  0  0  0  0  0  0  0  0  0  0  0
  127.4730  123.6030   61.1440 C   0  0  0  0  0  0  0  0  0  0  0  0
  126.6330  123.1060   61.7650 N   0  0  0  0  0  0  0  0  0  0  0  0
  126.7210  129.5170   62.2840 C   0  0  0  0  0  0  0  0  0  0  0  0
  125.6100  130.3410   62.0420 C   0  0  0  0  0  0  0  0  0  0  0  0
  125.3660  130.9740   60.8350 O   0  0  0  0  0  0  0  0  0  0  0  0
  124.7330  130.2540   59.7820 C   0  0  0  0  0  0  0  0  0  0  0  0
  124.6830  130.5480   63.0710 C   0  0  0  0  0  0  0  0  0  0  0  0
  123.5820  131.3380   62.8410 O   0  0  0  0  0  0  0  0  0  0  0  0
  123.8710  132.7270   62.7620 C   0  0  0  0  0  0  0  0  0  0  0  0
  1  2  1  0
  2  3  1  0
  3  4  2  0
  4  5  1  0
  5  6  1  0
  6  7  1  0
  7  8  2  0
  7  9  1  0
  9 10  1  0
 10 11  1  0
 11 12  2  0
 12 13  1  0
 13 14  1  0
 13 15  2  0
 15 16  1  0
 16 17  1  0
 17 18  2  0
 18 19  1  0
 19 20  2  0
 20 21  1  0
 21 22  2  0
 16 23  2  0
 23 24  1  0
 24 25  3  0
  5 26  2  0
 26 27  1  0
 27 28  1  0
 28 29  1  0
 27 30  2  0
 30 31  1  0
 31 32  1  0
 30  3  1  0
 23 11  1  0
 22 17  1  0
M  END
>  <Binding energies>  (34) 
[-6.97]

>  <Ligand effiencies>  (34) 
[-0.2112121212121212]

>  <Interactions>  (34) 
["V-A:ASP:366:CB:3212, V-B:GLU:543:CD:9880, H-A:GLU:543:OE1:4909, V-A:GLU:543:CD:4908, H-A:GLU:543:OE2:4910, V-B:ASP:366:CB:8183, H-B:GLU:543:OE2:9882, V-B:TYR:539:C:9839, H-B:ALA:541:N:9863, V-B:PRO:540:CD:9859, V-B:ASP:366:CG:8184, V-B:PRO:540:CA:9855, V-B:PRO:540:CB:9857, V-B:PRO:540:N:9856, V-B:LEU:363:CD1:8160, V-B:MET:535:CE:9807, V-B:TYR:539:CZ:9849, V-B:TYR:539:CE2:9848, V-B:TYR:539:CD1:9845, V-B:TYR:539:CE1:9847, V-B:TYR:539:CD2:9846, V-B:TYR:539:CG:9844, V-B:HIS:456:CE1:9041, V-B:ARG:545:CZ:9898, H-B:TYR:484:OH:9319, V-B:TYR:484:CZ:9318, V-B:GLY:454:CA:9020, V-B:ARG:545:CD:9895, V-B:ARG:545:CG:9894, H-B:GLY:454:N:9021, H-B:ARG:545:NE:9896, V-B:TYR:484:CE1:9316"]

$$$$
3ci_Grossjean_2025
     RDKit          3D

 25 27  0  0  0  0  0  0  0  0999 V2000
  128.3290  122.0750   61.7230 C   0  0  0  0  0  0  0  0  0  0  0  0
  129.4570  122.7310   62.4980 C   0  0  0  0  0  0  0  0  0  0  0  0
  129.2080  123.5800   63.5720 C   0  0  0  0  0  0  0  0  0  0  0  0
  130.2840  124.1510   64.2670 C   0  0  0  0  0  0  0  0  0  0  0  0
  129.9700  125.0440   65.4220 C   0  0  0  0  0  0  0  0  0  0  0  0
  130.1920  124.6180   66.7380 C   0  0  0  0  0  0  0  0  0  0  0  0
  129.8900  125.4510   67.8120 C   0  0  0  0  0  0  0  0  0  0  0  0
  129.3560  126.7140   67.5740 C   0  0  0  0  0  0  0  0  0  0  0  0
  129.1200  127.1500   66.2720 C   0  0  0  0  0  0  0  0  0  0  0  0
  129.4240  126.3140   65.2010 C   0  0  0  0  0  0  0  0  0  0  0  0
  131.6010  123.8460   63.8380 C   0  0  0  0  0  0  0  0  0  0  0  0
  132.7640  124.4470   64.4990 C   0  0  0  0  0  0  0  0  0  0  0  0
  133.6820  124.9210   65.0230 N   0  0  0  0  0  0  0  0  0  0  0  0
  131.7640  122.9680   62.7390 C   0  0  0  0  0  0  0  0  0  0  0  0
  133.3780  122.4990   62.1280 S   0  0  0  0  0  0  0  0  0  0  0  0
  133.2470  122.0090   60.3780 C   0  0  0  0  0  0  0  0  0  0  0  0
  132.8530  120.5400   60.1850 C   0  0  0  0  0  0  0  0  0  0  0  0
  133.6350  119.7770   59.6140 O   0  0  0  0  0  0  0  0  0  0  0  0
  131.6360  120.1920   60.6580 N   0  0  0  0  0  0  0  0  0  0  0  0
  131.0550  118.9310   60.6370 C   0  0  0  0  0  0  0  0  0  0  0  0
  130.0930  118.5220   61.5600 C   0  0  0  0  0  0  0  0  0  0  0  0
  129.7810  117.2300   61.2030 C   0  0  0  0  0  0  0  0  0  0  0  0
  130.5160  116.8810   60.1200 O   0  0  0  0  0  0  0  0  0  0  0  0
  131.3210  117.9670   59.7720 N   0  0  0  0  0  0  0  0  0  0  0  0
  130.7060  122.4290   62.0810 N   0  0  0  0  0  0  0  0  0  0  0  0
  1  2  1  0
  2  3  2  0
  3  4  1  0
  4  5  1  0
  5  6  2  0
  6  7  1  0
  7  8  2  0
  8  9  1  0
  9 10  2  0
  4 11  2  0
 11 12  1  0
 12 13  3  0
 11 14  1  0
 14 15  1  0
 15 16  1  0
 16 17  1  0
 17 18  2  0
 17 19  1  0
 19 20  1  0
 20 21  1  0
 21 22  2  0
 22 23  1  0
 23 24  1  0
 14 25  2  0
 25  2  1  0
 10  5  1  0
 24 20  2  0
M  END
>  <Binding energies>  (35) 
[-7.91]

>  <Ligand effiencies>  (35) 
[-0.30423076923076925]

>  <Interactions>  (35) 
["V-A:ILE:369:CG2:3237, V-B:GLU:543:CD:9880, H-A:ARG:545:NH2:4928, H-A:GLY:454:N:4050, H-A:TYR:484:OH:4348, V-B:GLU:543:CG:9879, H-A:ARG:545:NE:4924, V-A:GLU:543:CD:4908, V-A:ARG:545:CZ:4926, V-A:LEU:475:CD2:4259, V-A:HIS:456:CE1:4070, V-B:ALA:541:CB:9864, V-B:PRO:540:CA:9855, V-B:TYR:539:CE2:9848, V-B:PRO:540:C:9853, V-B:TYR:539:CD2:9846, V-B:ALA:541:CA:9862, V-A:TYR:484:CE2:4346, V-B:GLU:543:CA:9876, V-A:TYR:484:CZ:4347, V-B:GLU:543:CB:9878, V-A:SER:385:CB:3409, V-A:PRO:482:CB:4326, V-A:PRO:482:CG:4327, V-A:HIS:383:NE2:3394, H-A:SER:385:OG:3410, V-A:LEU:475:CG:4257, V-A:LEU:475:CD1:4258, H-A:HIS:383:HE2:3395"]

$$$$
3ck_Grossjean_2025
     RDKit          3D

 30 31  0  0  0  0  0  0  0  0999 V2000
  129.2650  133.1240   57.6140 C   0  0  0  0  0  0  0  0  0  0  0  0
  130.5220  133.2510   56.9680 O   0  0  0  0  0  0  0  0  0  0  0  0
  131.1970  132.0130   56.7960 C   0  0  0  0  0  0  0  0  0  0  0  0
  131.9040  131.6280   58.1020 C   0  0  0  0  0  0  0  0  0  0  0  0
  131.0770  130.7360   58.8390 O   0  0  0  0  0  0  0  0  0  0  0  0
  131.2980  129.3640   58.5410 C   0  0  0  0  0  0  0  0  0  0  0  0
  131.0110  128.5260   59.7930 C   0  0  0  0  0  0  0  0  0  0  0  0
  130.7890  127.1830   59.3910 O   0  0  0  0  0  0  0  0  0  0  0  0
  130.9640  126.9390   58.0030 C   0  0  0  0  0  0  0  0  0  0  0  0
  132.3110  126.2290   57.7700 C   0  0  0  0  0  0  0  0  0  0  0  0
  132.6910  125.3160   58.8520 N   0  0  0  0  0  0  0  0  0  0  0  0
  133.4670  124.2250   58.7210 C   0  0  0  0  0  0  0  0  0  0  0  0
  133.9770  123.8830   57.6520 O   0  0  0  0  0  0  0  0  0  0  0  0
  133.6930  123.4150   60.0070 C   0  0  0  0  0  0  0  0  0  0  0  0
  133.7540  124.3930   61.5480 S   0  0  0  0  0  0  0  0  0  0  0  0
  132.0880  124.6740   62.1290 C   0  0  0  0  0  0  0  0  0  0  0  0
  131.1180  124.6050   61.1820 N   0  0  0  0  0  0  0  0  0  0  0  0
  129.8340  124.8120   61.5510 C   0  0  0  0  0  0  0  0  0  0  0  0
  128.8070  124.7210   60.4390 C   0  0  0  0  0  0  0  0  0  0  0  0
  129.4670  125.0940   62.8640 C   0  0  0  0  0  0  0  0  0  0  0  0
  130.4520  125.1770   63.8560 C   0  0  0  0  0  0  0  0  0  0  0  0
  130.0130  125.5050   65.2460 C   0  0  0  0  0  0  0  0  0  0  0  0
  129.3520  126.7110   65.5080 C   0  0  0  0  0  0  0  0  0  0  0  0
  128.9490  127.0280   66.8040 C   0  0  0  0  0  0  0  0  0  0  0  0
  129.2130  126.1410   67.8440 C   0  0  0  0  0  0  0  0  0  0  0  0
  129.8780  124.9420   67.6000 C   0  0  0  0  0  0  0  0  0  0  0  0
  130.2790  124.6280   66.3050 C   0  0  0  0  0  0  0  0  0  0  0  0
  131.8020  124.9500   63.4860 C   0  0  0  0  0  0  0  0  0  0  0  0
  132.8710  124.9820   64.4910 C   0  0  0  0  0  0  0  0  0  0  0  0
  133.7140  125.0070   65.2840 N   0  0  0  0  0  0  0  0  0  0  0  0
  1  2  1  0
  2  3  1  0
  3  4  1  0
  4  5  1  0
  5  6  1  0
  6  7  1  0
  7  8  1  0
  8  9  1  0
  9 10  1  0
 10 11  1  0
 11 12  1  0
 12 13  2  0
 12 14  1  0
 14 15  1  0
 15 16  1  0
 16 17  2  0
 17 18  1  0
 18 19  1  0
 18 20  2  0
 20 21  1  0
 21 22  1  0
 22 23  2  0
 23 24  1  0
 24 25  2  0
 25 26  1  0
 26 27  2  0
 21 28  2  0
 28 29  1  0
 29 30  3  0
 28 16  1  0
 27 22  1  0
M  END
>  <Binding energies>  (36) 
[-6.35]

>  <Ligand effiencies>  (36) 
[-0.20483870967741935]

>  <Interactions>  (36) 
["V-A:ILE:369:CG2:3237, V-A:ILE:369:CD1:3239, V-A:ASP:366:CB:3212, V-B:GLU:543:CD:9880, H-A:ARG:545:NH2:4928, H-A:GLY:454:N:4050, V-A:ASP:366:CA:3210, V-A:ASP:366:CG:3213, H-A:TYR:484:OH:4348, V-B:GLU:543:CG:9879, H-A:ARG:545:NE:4924, V-A:ILE:369:CB:3236, V-A:GLU:543:CD:4908, V-A:ARG:545:CZ:4926, V-A:HIS:456:CE1:4070, H-A:ASP:366:OD1:3214, V-B:TYR:539:CZ:9849, V-B:TYR:539:CE2:9848, V-A:TYR:484:CE2:4346, V-B:GLU:543:CA:9876, V-A:TYR:484:CZ:4347, V-B:GLU:543:CB:9878, V-A:PRO:540:CB:4885, V-A:LEU:363:CD1:3189, V-A:TYR:531:CZ:4794, V-A:PRO:540:N:4884, H-B:TYR:539:OH:9850, V-A:TYR:539:CG:4872, V-A:TYR:539:CD1:4873, H-A:TYR:539:N:4870, V-A:TYR:539:CA:4869, V-A:TYR:539:C:4867, H-A:ASN:370:N:3244"]

$$$$
4aa_Grossjean_2025
     RDKit          3D

 26 28  0  0  0  0  0  0  0  0999 V2000
  126.4170  128.3910   74.5800 C   0  0  0  0  0  0  0  0  0  0  0  0
  126.8810  127.6780   73.3070 C   0  0  0  0  0  0  0  0  0  0  0  0
  128.2830  127.4520   73.3750 O   0  0  0  0  0  0  0  0  0  0  0  0
  129.1530  128.2330   72.6840 C   0  0  0  0  0  0  0  0  0  0  0  0
  129.6830  129.2450   73.1560 O   0  0  0  0  0  0  0  0  0  0  0  0
  129.4060  127.7460   71.2870 C   0  0  0  0  0  0  0  0  0  0  0  0
  130.6100  128.0800   70.6530 C   0  0  0  0  0  0  0  0  0  0  0  0
  130.8710  127.6490   69.3550 C   0  0  0  0  0  0  0  0  0  0  0  0
  129.9400  126.8680   68.6690 C   0  0  0  0  0  0  0  0  0  0  0  0
  130.3020  126.4940   67.3600 N   0  0  0  0  0  0  0  0  0  0  0  0
  130.3220  125.2720   66.7750 C   0  0  0  0  0  0  0  0  0  0  0  0
  130.0470  124.2220   67.3560 O   0  0  0  0  0  0  0  0  0  0  0  0
  130.7290  125.2590   65.3690 C   0  0  0  0  0  0  0  0  0  0  0  0
  129.5190  125.4050   64.0910 S   0  0  0  0  0  0  0  0  0  0  0  0
  130.7440  125.2620   62.8510 C   0  0  0  0  0  0  0  0  0  0  0  0
  130.4410  125.3010   61.5520 N   0  0  0  0  0  0  0  0  0  0  0  0
  131.4840  125.1750   60.6950 C   0  0  0  0  0  0  0  0  0  0  0  0
  131.1170  125.2170   59.2220 C   0  0  0  0  0  0  0  0  0  0  0  0
  132.8070  125.0150   61.1010 C   0  0  0  0  0  0  0  0  0  0  0  0
  133.1210  124.9750   62.4640 C   0  0  0  0  0  0  0  0  0  0  0  0
  134.5790  124.7990   62.8580 C   0  0  0  0  0  0  0  0  0  0  0  0
  132.0540  125.1010   63.3940 C   0  0  0  0  0  0  0  0  0  0  0  0
  132.0160  125.0980   64.8320 C   0  0  0  0  0  0  0  0  0  0  0  0
  133.1490  124.9530   65.5930 N   0  0  0  0  0  0  0  0  0  0  0  0
  128.7290  126.5330   69.2920 C   0  0  0  0  0  0  0  0  0  0  0  0
  128.4680  126.9690   70.5890 C   0  0  0  0  0  0  0  0  0  0  0  0
  1  2  1  0
  2  3  1  0
  3  4  1  0
  4  5  2  0
  4  6  1  0
  6  7  2  0
  7  8  1  0
  8  9  2  0
  9 10  1  0
 10 11  1  0
 11 12  2  0
 11 13  1  0
 13 14  1  0
 14 15  1  0
 15 16  2  0
 16 17  1  0
 17 18  1  0
 17 19  2  0
 19 20  1  0
 20 21  1  0
 20 22  2  0
 22 23  1  0
 23 24  1  0
  9 25  1  0
 25 26  2  0
 26  6  1  0
 23 13  2  0
 22 15  1  0
M  END
>  <Binding energies>  (37) 
[-7.04]

>  <Ligand effiencies>  (37) 
[-0.24275862068965517]

>  <Interactions>  (37) 
["V-A:ILE:369:CD1:3239, V-A:GLY:453:C:4042, V-B:GLU:543:CD:9880, V-A:GLY:453:CA:4044, V-A:ASP:366:CG:3213, H-A:GLU:543:OE1:4909, H-A:TYR:484:OH:4348, V-B:GLU:543:CG:9879, V-A:GLU:543:CD:4908, V-A:ARG:545:CZ:4926, H-A:GLU:543:OE2:4910, V-A:HIS:456:CE1:4070, V-B:TYR:539:CE2:9848, V-A:TYR:484:CE2:4346, V-A:GLU:543:C:4902, V-B:GLU:543:C:9874, V-A:TYR:484:CZ:4347, V-B:GLU:543:CB:9878, V-A:GLY:544:C:4912, V-A:GLU:543:CB:4906, V-B:HIS:456:CD2:9039, V-B:HIS:456:CE1:9041, V-B:GLY:544:C:9884, V-B:LYS:547:CE:9922, V-B:HIS:456:CG:9037, V-A:ARG:545:CD:4923, H-A:LYS:547:NZ:4951, H-B:LYS:547:NZ:9923, V-B:HIS:456:CB:9036"]

$$$$
4ab_Grossjean_2025
     RDKit          3D

 25 27  0  0  0  0  0  0  0  0999 V2000
  129.4880  130.7090   73.1410 C   0  0  0  0  0  0  0  0  0  0  0  0
  129.9630  129.3760   73.0180 O   0  0  0  0  0  0  0  0  0  0  0  0
  129.1280  128.3680   72.6600 C   0  0  0  0  0  0  0  0  0  0  0  0
  128.2550  127.9090   73.4040 O   0  0  0  0  0  0  0  0  0  0  0  0
  129.3770  127.8580   71.2690 C   0  0  0  0  0  0  0  0  0  0  0  0
  130.6140  128.1100   70.6600 C   0  0  0  0  0  0  0  0  0  0  0  0
  130.8730  127.6520   69.3710 C   0  0  0  0  0  0  0  0  0  0  0  0
  129.9100  126.9290   68.6690 C   0  0  0  0  0  0  0  0  0  0  0  0
  130.2760  126.5220   67.3720 N   0  0  0  0  0  0  0  0  0  0  0  0
  130.2530  125.2920   66.8030 C   0  0  0  0  0  0  0  0  0  0  0  0
  129.9210  124.2630   67.3920 O   0  0  0  0  0  0  0  0  0  0  0  0
  130.6840  125.2440   65.4050 C   0  0  0  0  0  0  0  0  0  0  0  0
  129.4920  125.3070   64.1040 S   0  0  0  0  0  0  0  0  0  0  0  0
  130.7420  125.1610   62.8880 C   0  0  0  0  0  0  0  0  0  0  0  0
  130.4600  125.1440   61.5850 N   0  0  0  0  0  0  0  0  0  0  0  0
  131.5200  125.0230   60.7480 C   0  0  0  0  0  0  0  0  0  0  0  0
  131.1770  125.0010   59.2700 C   0  0  0  0  0  0  0  0  0  0  0  0
  132.8410  124.9240   61.1800 C   0  0  0  0  0  0  0  0  0  0  0  0
  133.1320  124.9420   62.5490 C   0  0  0  0  0  0  0  0  0  0  0  0
  134.5900  124.8280   62.9700 C   0  0  0  0  0  0  0  0  0  0  0  0
  132.0470  125.0620   63.4580 C   0  0  0  0  0  0  0  0  0  0  0  0
  131.9840  125.1060   64.8940 C   0  0  0  0  0  0  0  0  0  0  0  0
  133.1070  125.0230   65.6780 N   0  0  0  0  0  0  0  0  0  0  0  0
  128.6660  126.6770   69.2690 C   0  0  0  0  0  0  0  0  0  0  0  0
  128.4070  127.1370   70.5570 C   0  0  0  0  0  0  0  0  0  0  0  0
  1  2  1  0
  2  3  1  0
  3  4  2  0
  3  5  1  0
  5  6  2  0
  6  7  1  0
  7  8  2  0
  8  9  1  0
  9 10  1  0
 10 11  2  0
 10 12  1  0
 12 13  1  0
 13 14  1  0
 14 15  2  0
 15 16  1  0
 16 17  1  0
 16 18  2  0
 18 19  1  0
 19 20  1  0
 19 21  2  0
 21 22  1  0
 22 23  1  0
  8 24  1  0
 24 25  2  0
 25  5  1  0
 22 12  2  0
 21 14  1  0
M  END
>  <Binding energies>  (38) 
[-7.06]

>  <Ligand effiencies>  (38) 
[-0.2521428571428571]

>  <Interactions>  (38) 
["V-A:GLY:453:C:4042, V-B:GLU:543:CD:9880, V-A:GLY:453:CA:4044, V-A:ASP:366:CG:3213, H-A:GLU:543:OE1:4909, H-A:TYR:484:OH:4348, V-B:GLU:543:CG:9879, V-A:GLU:543:CD:4908, V-A:ARG:545:CZ:4926, H-A:GLU:543:OE2:4910, V-A:HIS:456:CE1:4070, V-B:TYR:539:CE2:9848, V-A:TYR:484:CE2:4346, V-A:GLU:543:C:4902, V-B:GLU:543:C:9874, V-A:TYR:484:CZ:4347, V-B:GLU:543:CB:9878, V-A:GLY:544:C:4912, V-A:GLU:543:CB:4906, V-B:HIS:456:CD2:9039, V-B:HIS:456:CE1:9041, V-A:ARG:545:CD:4923, H-A:LYS:547:NZ:4951, H-B:LYS:547:NZ:9923, V-A:LYS:547:CE:4950"]

$$$$
4ac_Grossjean_2025
     RDKit          3D

 23 25  0  0  0  0  0  0  0  0999 V2000
  126.6970  122.7590   57.0920 C   0  0  0  0  0  0  0  0  0  0  0  0
  127.7980  122.2180   57.8140 O   0  0  0  0  0  0  0  0  0  0  0  0
  128.0640  122.6850   59.0870 C   0  0  0  0  0  0  0  0  0  0  0  0
  127.4710  123.8950   59.4430 C   0  0  0  0  0  0  0  0  0  0  0  0
  127.6810  124.4440   60.7050 C   0  0  0  0  0  0  0  0  0  0  0  0
  128.4820  123.7800   61.6350 C   0  0  0  0  0  0  0  0  0  0  0  0
  128.6480  124.4160   62.8790 N   0  0  0  0  0  0  0  0  0  0  0  0
  129.7890  124.7080   63.5480 C   0  0  0  0  0  0  0  0  0  0  0  0
  130.9170  124.4080   63.1500 O   0  0  0  0  0  0  0  0  0  0  0  0
  129.6100  125.4160   64.8180 C   0  0  0  0  0  0  0  0  0  0  0  0
  130.0140  124.6270   66.3430 S   0  0  0  0  0  0  0  0  0  0  0  0
  129.5370  126.0410   67.2560 C   0  0  0  0  0  0  0  0  0  0  0  0
  129.6120  126.0810   68.5860 N   0  0  0  0  0  0  0  0  0  0  0  0
  129.2110  127.2360   69.1710 C   0  0  0  0  0  0  0  0  0  0  0  0
  129.3060  127.2620   70.6850 C   0  0  0  0  0  0  0  0  0  0  0  0
  128.7390  128.3400   68.4620 C   0  0  0  0  0  0  0  0  0  0  0  0
  128.6610  128.2940   67.0660 C   0  0  0  0  0  0  0  0  0  0  0  0
  128.1390  129.5240   66.3380 C   0  0  0  0  0  0  0  0  0  0  0  0
  129.0750  127.1000   66.4180 C   0  0  0  0  0  0  0  0  0  0  0  0
  129.1290  126.7170   65.0320 C   0  0  0  0  0  0  0  0  0  0  0  0
  128.7390  127.5630   64.0240 N   0  0  0  0  0  0  0  0  0  0  0  0
  129.0930  122.5680   61.2810 C   0  0  0  0  0  0  0  0  0  0  0  0
  128.8810  122.0230   60.0170 C   0  0  0  0  0  0  0  0  0  0  0  0
  1  2  1  0
  2  3  1  0
  3  4  2  0
  4  5  1  0
  5  6  2  0
  6  7  1  0
  7  8  1  0
  8  9  2  0
  8 10  1  0
 10 11  1  0
 11 12  1  0
 12 13  2  0
 13 14  1  0
 14 15  1  0
 14 16  2  0
 16 17  1  0
 17 18  1  0
 17 19  2  0
 19 20  1  0
 20 21  1  0
  6 22  1  0
 22 23  2  0
 23  3  1  0
 20 10  2  0
 19 12  1  0
M  END
>  <Binding energies>  (39) 
[-6.11]

>  <Ligand effiencies>  (39) 
[-0.23500000000000001]

>  <Interactions>  (39) 
["V-B:GLU:543:CD:9880, H-A:GLU:543:OE1:4909, V-B:GLU:543:CG:9879, V-A:GLU:543:CD:4908, H-A:GLU:543:OE2:4910, V-A:HIS:456:CE1:4070, H-B:GLU:543:OE2:9882, V-B:TYR:539:C:9839, H-B:GLU:543:OE1:9881, V-B:PRO:540:CD:9859, V-B:PRO:540:CA:9855, V-B:PRO:540:N:9856, V-B:TYR:539:CE2:9848, H-B:TYR:539:N:9842, V-B:TYR:539:CD2:9846, V-A:TYR:484:CE2:4346, V-A:TYR:484:CZ:4347, V-B:GLU:543:CB:9878, V-A:GLU:543:CB:4906, V-B:HIS:456:CE1:9041, V-A:GLU:543:CG:4907, V-B:TYR:484:CZ:9318"]

$$$$
4ad_Grossjean_2025
     RDKit          3D

 21 23  0  0  0  0  0  0  0  0999 V2000
  123.6750  133.3140   61.9220 C   0  0  0  0  0  0  0  0  0  0  0  0
  124.3320  131.9520   61.8060 C   0  0  0  0  0  0  0  0  0  0  0  0
  124.7220  131.2430   62.9410 C   0  0  0  0  0  0  0  0  0  0  0  0
  125.3290  129.9890   62.8090 C   0  0  0  0  0  0  0  0  0  0  0  0
  125.7390  129.2550   64.0770 C   0  0  0  0  0  0  0  0  0  0  0  0
  125.5260  129.4820   61.4960 C   0  0  0  0  0  0  0  0  0  0  0  0
  126.1020  128.2600   61.0050 C   0  0  0  0  0  0  0  0  0  0  0  0
  126.5980  127.2950   61.8460 N   0  0  0  0  0  0  0  0  0  0  0  0
  126.1060  128.1530   59.6050 C   0  0  0  0  0  0  0  0  0  0  0  0
  126.6250  127.0630   58.7750 C   0  0  0  0  0  0  0  0  0  0  0  0
  127.6940  127.1860   58.1740 O   0  0  0  0  0  0  0  0  0  0  0  0
  125.8580  125.9460   58.7380 N   0  0  0  0  0  0  0  0  0  0  0  0
  126.0480  124.7530   58.0130 C   0  0  0  0  0  0  0  0  0  0  0  0
  127.3380  124.2140   58.0510 C   0  0  0  0  0  0  0  0  0  0  0  0
  127.6240  123.0320   57.3740 C   0  0  0  0  0  0  0  0  0  0  0  0
  126.6170  122.3810   56.6660 C   0  0  0  0  0  0  0  0  0  0  0  0
  125.3250  122.9010   56.6320 C   0  0  0  0  0  0  0  0  0  0  0  0
  125.0360  124.0840   57.3070 C   0  0  0  0  0  0  0  0  0  0  0  0
  125.3830  129.5770   58.8560 S   0  0  0  0  0  0  0  0  0  0  0  0
  125.0830  130.3050   60.4170 C   0  0  0  0  0  0  0  0  0  0  0  0
  124.5040  131.5010   60.5400 N   0  0  0  0  0  0  0  0  0  0  0  0
  1  2  1  0
  2  3  2  0
  3  4  1  0
  4  5  1  0
  4  6  2  0
  6  7  1  0
  7  8  1  0
  7  9  2  0
  9 10  1  0
 10 11  2  0
 10 12  1  0
 12 13  1  0
 13 14  2  0
 14 15  1  0
 15 16  2  0
 16 17  1  0
 17 18  2  0
  9 19  1  0
 19 20  1  0
 20 21  2  0
 21  2  1  0
 20  6  1  0
 18 13  1  0
M  END
>  <Binding energies>  (40) 
[-6.5]

>  <Ligand effiencies>  (40) 
[-0.2708333333333333]

>  <Interactions>  (40) 
["V-B:GLU:543:CD:9880, V-B:ASP:366:CB:8183, H-B:GLU:543:OE2:9882, V-B:TYR:539:C:9839, H-B:GLU:543:OE1:9881, V-B:TYR:531:CE2:9765, V-B:PRO:540:CD:9859, V-B:ASP:366:CG:8184, H-B:ASP:366:OD1:8185, V-B:PRO:540:CA:9855, V-B:PRO:540:CB:9857, V-B:PRO:540:N:9856, V-B:LEU:363:CD1:8160, V-B:MET:535:CE:9807, V-B:TYR:539:CZ:9849, V-B:TYR:539:CE2:9848, V-B:TYR:539:CE1:9847, V-B:TYR:539:CD2:9846, V-B:TYR:539:CG:9844, V-B:ARG:545:CZ:9898, H-B:TYR:531:OH:9767, V-B:ILE:369:CG2:8208, V-B:ILE:369:CG1:8209"]

$$$$
4ae_Grossjean_2025
     RDKit          3D

 22 24  0  0  0  0  0  0  0  0999 V2000
  130.9510  128.0010   70.6170 C   0  0  0  0  0  0  0  0  0  0  0  0
  130.0670  127.6610   69.4330 C   0  0  0  0  0  0  0  0  0  0  0  0
  128.7390  128.0900   69.3650 C   0  0  0  0  0  0  0  0  0  0  0  0
  127.9830  127.7320   68.2480 C   0  0  0  0  0  0  0  0  0  0  0  0
  128.5640  126.9610   67.2390 C   0  0  0  0  0  0  0  0  0  0  0  0
  129.9020  126.5720   67.3670 C   0  0  0  0  0  0  0  0  0  0  0  0
  130.4240  125.7800   66.3290 N   0  0  0  0  0  0  0  0  0  0  0  0
  130.1960  124.4690   66.0650 C   0  0  0  0  0  0  0  0  0  0  0  0
  129.4600  123.7510   66.7430 O   0  0  0  0  0  0  0  0  0  0  0  0
  130.8960  123.9350   64.8950 C   0  0  0  0  0  0  0  0  0  0  0  0
  130.2170  122.5790   63.9930 S   0  0  0  0  0  0  0  0  0  0  0  0
  131.5800  122.5620   62.8980 C   0  0  0  0  0  0  0  0  0  0  0  0
  131.6720  121.6830   61.9000 N   0  0  0  0  0  0  0  0  0  0  0  0
  132.7810  121.7730   61.1280 C   0  0  0  0  0  0  0  0  0  0  0  0
  132.8700  120.7580   60.0030 C   0  0  0  0  0  0  0  0  0  0  0  0
  133.7900  122.7140   61.3270 C   0  0  0  0  0  0  0  0  0  0  0  0
  133.6900  123.6360   62.3760 C   0  0  0  0  0  0  0  0  0  0  0  0
  134.8170  124.6410   62.5550 C   0  0  0  0  0  0  0  0  0  0  0  0
  132.5400  123.5710   63.2080 C   0  0  0  0  0  0  0  0  0  0  0  0
  132.1250  124.3410   64.3510 C   0  0  0  0  0  0  0  0  0  0  0  0
  132.8760  125.3760   64.8490 N   0  0  0  0  0  0  0  0  0  0  0  0
  130.6460  126.9120   68.4600 N   0  0  0  0  0  0  0  0  0  0  0  0
  1  2  1  0
  2  3  2  0
  3  4  1  0
  4  5  2  0
  5  6  1  0
  6  7  1  0
  7  8  1  0
  8  9  2  0
  8 10  1  0
 10 11  1  0
 11 12  1  0
 12 13  2  0
 13 14  1  0
 14 15  1  0
 14 16  2  0
 16 17  1  0
 17 18  1  0
 17 19  2  0
 19 20  1  0
 20 21  1  0
  6 22  2  0
 22  2  1  0
 20 10  2  0
 19 12  1  0
M  END
>  <Binding energies>  (41) 
[-6.75]

>  <Ligand effiencies>  (41) 
[-0.27]

>  <Interactions>  (41) 
["V-A:ILE:369:CG2:3237, V-A:ILE:369:CD1:3239, V-A:GLY:453:C:4042, V-B:GLU:543:CD:9880, V-A:GLY:453:CA:4044, H-A:GLU:543:OE1:4909, H-A:TYR:484:OH:4348, V-B:GLU:543:CG:9879, V-A:GLU:543:CD:4908, V-A:ARG:545:CZ:4926, H-A:GLU:543:OE2:4910, V-A:LEU:475:CD2:4259, V-A:HIS:456:CE1:4070, V-B:ALA:541:CB:9864, V-B:TYR:539:CE2:9848, V-B:TYR:539:CD2:9846, V-A:TYR:484:CE2:4346, V-A:GLU:543:C:4902, V-A:TYR:484:CZ:4347, V-B:GLU:543:CB:9878, V-A:GLY:544:C:4912, V-A:GLU:543:CB:4906, V-B:HIS:456:CE1:9041"]

$$$$
4af_Grossjean_2025
     RDKit          3D

 21 23  0  0  0  0  0  0  0  0999 V2000
  132.4070  121.2010   60.3720 C   0  0  0  0  0  0  0  0  0  0  0  0
  132.4240  122.1840   61.5280 C   0  0  0  0  0  0  0  0  0  0  0  0
  133.4630  123.1010   61.6760 C   0  0  0  0  0  0  0  0  0  0  0  0
  133.4580  123.9970   62.7520 C   0  0  0  0  0  0  0  0  0  0  0  0
  134.6140  124.9770   62.8710 C   0  0  0  0  0  0  0  0  0  0  0  0
  132.3720  123.9290   63.6660 C   0  0  0  0  0  0  0  0  0  0  0  0
  132.0570  124.6770   64.8540 C   0  0  0  0  0  0  0  0  0  0  0  0
  132.8650  125.6840   65.3200 N   0  0  0  0  0  0  0  0  0  0  0  0
  130.8630  124.2830   65.4760 C   0  0  0  0  0  0  0  0  0  0  0  0
  130.2620  124.8010   66.7070 C   0  0  0  0  0  0  0  0  0  0  0  0
  129.4880  124.1070   67.3680 O   0  0  0  0  0  0  0  0  0  0  0  0
  130.6320  126.0600   67.0470 N   0  0  0  0  0  0  0  0  0  0  0  0
  130.2070  126.8570   68.1270 C   0  0  0  0  0  0  0  0  0  0  0  0
  131.0480  127.6220   68.9560 C   0  0  0  0  0  0  0  0  0  0  0  0
  130.4970  128.3580   70.0070 C   0  0  0  0  0  0  0  0  0  0  0  0
  129.1170  128.3070   70.2080 C   0  0  0  0  0  0  0  0  0  0  0  0
  128.2860  127.5710   69.4280 N   0  0  0  0  0  0  0  0  0  0  0  0
  128.8360  126.8610   68.4110 C   0  0  0  0  0  0  0  0  0  0  0  0
  130.0940  122.9590   64.5970 S   0  0  0  0  0  0  0  0  0  0  0  0
  131.3720  122.9460   63.4040 C   0  0  0  0  0  0  0  0  0  0  0  0
  131.3720  122.0920   62.3790 N   0  0  0  0  0  0  0  0  0  0  0  0
  1  2  1  0
  2  3  2  0
  3  4  1  0
  4  5  1  0
  4  6  2  0
  6  7  1  0
  7  8  1  0
  7  9  2  0
  9 10  1  0
 10 11  2  0
 10 12  1  0
 12 13  1  0
 13 14  2  0
 14 15  1  0
 15 16  2  0
 16 17  1  0
 17 18  2  0
  9 19  1  0
 19 20  1  0
 20 21  2  0
 21  2  1  0
 20  6  1  0
 18 13  1  0
M  END
>  <Binding energies>  (42) 
[-6.32]

>  <Ligand effiencies>  (42) 
[-0.26333333333333336]

>  <Interactions>  (42) 
["V-A:ILE:369:CG2:3237, V-A:ILE:369:CD1:3239, V-A:GLY:453:C:4042, V-A:GLY:453:CA:4044, V-A:ASP:366:CG:3213, H-A:GLU:543:OE1:4909, H-A:TYR:484:OH:4348, V-B:GLU:543:CG:9879, V-A:GLU:543:CD:4908, V-A:ARG:545:CZ:4926, H-A:GLU:543:OE2:4910, V-A:LEU:475:CD2:4259, V-A:HIS:456:CE1:4070, V-B:TYR:539:CE2:9848, V-B:TYR:539:CD2:9846, V-A:TYR:484:CE2:4346, V-A:GLU:543:C:4902, V-A:TYR:484:CZ:4347, V-B:GLU:543:CB:9878, V-A:GLY:544:C:4912, V-A:GLU:543:CB:4906, V-B:HIS:456:CD2:9039, V-B:HIS:456:CE1:9041, V-A:ARG:545:CG:4922, V-A:ARG:545:CD:4923, V-A:GLU:543:CA:4904"]

$$$$
4ag_Grossjean_2025
     RDKit          3D

 22 24  0  0  0  0  0  0  0  0999 V2000
  132.1920  121.0840   60.6940 C   0  0  0  0  0  0  0  0  0  0  0  0
  132.1830  122.1090   61.8130 C   0  0  0  0  0  0  0  0  0  0  0  0
  133.2280  123.0200   61.9600 C   0  0  0  0  0  0  0  0  0  0  0  0
  133.1990  123.9580   62.9970 C   0  0  0  0  0  0  0  0  0  0  0  0
  134.3620  124.9310   63.1160 C   0  0  0  0  0  0  0  0  0  0  0  0
  132.0810  123.9420   63.8740 C   0  0  0  0  0  0  0  0  0  0  0  0
  131.7350  124.7430   65.0170 C   0  0  0  0  0  0  0  0  0  0  0  0
  132.5370  125.7600   65.4710 N   0  0  0  0  0  0  0  0  0  0  0  0
  130.5170  124.3860   65.6140 C   0  0  0  0  0  0  0  0  0  0  0  0
  129.8620  124.9890   66.7740 C   0  0  0  0  0  0  0  0  0  0  0  0
  129.8610  124.4320   67.8740 O   0  0  0  0  0  0  0  0  0  0  0  0
  129.2490  126.1730   66.5620 N   0  0  0  0  0  0  0  0  0  0  0  0
  128.5580  126.9640   67.5790 C   0  0  0  0  0  0  0  0  0  0  0  0
  129.4220  127.3120   68.7860 C   0  0  0  0  0  0  0  0  0  0  0  0
  130.7740  127.6200   68.6080 C   0  0  0  0  0  0  0  0  0  0  0  0
  131.5590  127.9620   69.7060 C   0  0  0  0  0  0  0  0  0  0  0  0
  130.9880  128.0050   70.9760 C   0  0  0  0  0  0  0  0  0  0  0  0
  129.6380  127.7140   71.1580 C   0  0  0  0  0  0  0  0  0  0  0  0
  128.8520  127.3730   70.0610 C   0  0  0  0  0  0  0  0  0  0  0  0
  129.7550  123.0430   64.7610 S   0  0  0  0  0  0  0  0  0  0  0  0
  131.0770  122.9610   63.6170 C   0  0  0  0  0  0  0  0  0  0  0  0
  131.1010  122.0660   62.6280 N   0  0  0  0  0  0  0  0  0  0  0  0
  1  2  1  0
  2  3  2  0
  3  4  1  0
  4  5  1  0
  4  6  2  0
  6  7  1  0
  7  8  1  0
  7  9  2  0
  9 10  1  0
 10 11  2  0
 10 12  1  0
 12 13  1  0
 13 14  1  0
 14 15  2  0
 15 16  1  0
 16 17  2  0
 17 18  1  0
 18 19  2  0
  9 20  1  0
 20 21  1  0
 21 22  2  0
 22  2  1  0
 21  6  1  0
 19 14  1  0
M  END
>  <Binding energies>  (43) 
[-6.55]

>  <Ligand effiencies>  (43) 
[-0.262]

>  <Interactions>  (43) 
["V-A:GLY:453:C:4042, V-B:GLU:543:CD:9880, V-A:GLY:453:CA:4044, H-A:GLU:543:OE1:4909, H-A:TYR:484:OH:4348, V-B:GLU:543:CG:9879, V-A:GLU:543:CD:4908, V-A:ARG:545:CZ:4926, H-A:GLU:543:OE2:4910, V-A:LEU:475:CD2:4259, V-A:HIS:456:CE1:4070, H-B:GLU:543:OE2:9882, V-B:TYR:539:CE2:9848, V-B:TYR:539:CD2:9846, V-A:TYR:484:CE2:4346, V-A:GLU:543:C:4902, V-B:GLU:543:CA:9876, V-A:TYR:484:CZ:4347, V-B:GLU:543:CB:9878, V-A:GLY:544:C:4912, V-A:GLU:543:CB:4906, V-B:HIS:456:CE1:9041, V-A:ARG:545:CG:4922, V-A:GLU:543:CG:4907, V-A:ARG:545:CD:4923, V-A:ARG:545:CA:4919"]

$$$$
4ah_Grossjean_2025
     RDKit          3D

 28 30  0  0  0  0  0  0  0  0999 V2000
  124.3280  123.4810   61.9380 C   0  0  0  0  0  0  0  0  0  0  0  0
  124.8590  123.8690   60.6760 O   0  0  0  0  0  0  0  0  0  0  0  0
  126.1630  123.5350   60.3560 C   0  0  0  0  0  0  0  0  0  0  0  0
  127.1930  123.4070   61.3020 C   0  0  0  0  0  0  0  0  0  0  0  0
  128.4880  123.0680   60.9070 C   0  0  0  0  0  0  0  0  0  0  0  0
  129.5830  122.8880   61.9520 C   0  0  0  0  0  0  0  0  0  0  0  0
  129.4140  123.7390   63.1290 N   0  0  0  0  0  0  0  0  0  0  0  0
  130.4160  124.2900   63.8460 C   0  0  0  0  0  0  0  0  0  0  0  0
  131.6040  124.0890   63.5900 O   0  0  0  0  0  0  0  0  0  0  0  0
  130.0120  125.1140   64.9850 C   0  0  0  0  0  0  0  0  0  0  0  0
  130.2270  124.5180   66.6310 S   0  0  0  0  0  0  0  0  0  0  0  0
  129.5090  125.9680   67.2970 C   0  0  0  0  0  0  0  0  0  0  0  0
  129.3730  126.1490   68.6110 N   0  0  0  0  0  0  0  0  0  0  0  0
  128.8030  127.3170   68.9950 C   0  0  0  0  0  0  0  0  0  0  0  0
  128.6560  127.5010   70.4950 C   0  0  0  0  0  0  0  0  0  0  0  0
  128.3700  128.2970   68.1060 C   0  0  0  0  0  0  0  0  0  0  0  0
  128.5110  128.1040   66.7270 C   0  0  0  0  0  0  0  0  0  0  0  0
  128.0230  129.2030   65.7950 C   0  0  0  0  0  0  0  0  0  0  0  0
  129.1040  126.8900   66.2850 C   0  0  0  0  0  0  0  0  0  0  0  0
  129.3920  126.3720   64.9740 C   0  0  0  0  0  0  0  0  0  0  0  0
  129.0890  127.0630   63.8290 N   0  0  0  0  0  0  0  0  0  0  0  0
  128.7550  122.8270   59.5580 C   0  0  0  0  0  0  0  0  0  0  0  0
  127.7470  122.9530   58.5900 C   0  0  0  0  0  0  0  0  0  0  0  0
  127.9450  122.7440   57.2370 O   0  0  0  0  0  0  0  0  0  0  0  0
  127.9800  123.8620   56.3570 C   0  0  0  0  0  0  0  0  0  0  0  0
  126.4560  123.3140   59.0020 C   0  0  0  0  0  0  0  0  0  0  0  0
  125.4540  123.4230   58.0680 O   0  0  0  0  0  0  0  0  0  0  0  0
  124.9630  124.7460   57.8980 C   0  0  0  0  0  0  0  0  0  0  0  0
  1  2  1  0
  2  3  1  0
  3  4  2  0
  4  5  1  0
  5  6  1  0
  6  7  1  0
  7  8  1  0
  8  9  2  0
  8 10  1  0
 10 11  1  0
 11 12  1  0
 12 13  2  0
 13 14  1  0
 14 15  1  0
 14 16  2  0
 16 17  1  0
 17 18  1  0
 17 19  2  0
 19 20  1  0
 20 21  1  0
  5 22  2  0
 22 23  1  0
 23 24  1  0
 24 25  1  0
 23 26  2  0
 26 27  1  0
 27 28  1  0
 26  3  1  0
 20 10  2  0
 19 12  1  0
M  END
>  <Binding energies>  (44) 
[-6.2]

>  <Ligand effiencies>  (44) 
[-0.2]

>  <Interactions>  (44) 
["V-B:GLU:543:CD:9880, H-A:GLU:543:OE1:4909, V-B:GLU:543:CG:9879, V-A:GLU:543:CD:4908, H-A:GLU:543:OE2:4910, V-A:HIS:456:CE1:4070, H-B:GLU:543:OE2:9882, V-B:TYR:539:C:9839, H-B:GLU:543:OE1:9881, V-B:TYR:531:CE2:9765, V-B:PRO:540:CA:9855, V-B:PRO:540:CB:9857, V-B:PRO:540:N:9856, V-B:LEU:363:CD1:8160, V-B:TYR:539:CZ:9849, V-B:TYR:539:CE2:9848, V-B:TYR:539:CE1:9847, V-B:TYR:539:CD2:9846, V-B:ASN:362:CB:8147, V-A:TYR:484:CE2:4346, V-A:TYR:484:CZ:4347, V-B:GLU:543:CB:9878, V-A:GLU:543:CB:4906, V-B:HIS:456:CE1:9041, V-A:GLU:543:CG:4907, V-B:ASN:362:CG:8148"]

$$$$
4ai_Grossjean_2025
     RDKit          3D

 20 22  0  0  0  0  0  0  0  0999 V2000
  134.6940  124.9550   62.9170 C   0  0  0  0  0  0  0  0  0  0  0  0
  133.2190  124.5970   62.9050 C   0  0  0  0  0  0  0  0  0  0  0  0
  132.4860  124.5410   64.0890 C   0  0  0  0  0  0  0  0  0  0  0  0
  131.1250  124.2140   64.0540 C   0  0  0  0  0  0  0  0  0  0  0  0
  130.3670  124.1670   65.3710 C   0  0  0  0  0  0  0  0  0  0  0  0
  130.5390  123.9490   62.7860 C   0  0  0  0  0  0  0  0  0  0  0  0
  129.2030  123.5930   62.3910 C   0  0  0  0  0  0  0  0  0  0  0  0
  128.1880  123.4360   63.3020 N   0  0  0  0  0  0  0  0  0  0  0  0
  129.0410  123.4320   61.0060 C   0  0  0  0  0  0  0  0  0  0  0  0
  127.8310  123.0650   60.2670 C   0  0  0  0  0  0  0  0  0  0  0  0
  126.7980  122.7580   60.8650 O   0  0  0  0  0  0  0  0  0  0  0  0
  127.9400  123.1080   58.9160 N   0  0  0  0  0  0  0  0  0  0  0  0
  126.9550  122.8230   57.9790 C   0  0  0  0  0  0  0  0  0  0  0  0
  125.7170  123.4650   57.9560 C   0  0  0  0  0  0  0  0  0  0  0  0
  125.0410  122.9020   56.8980 C   0  0  0  0  0  0  0  0  0  0  0  0
  125.8320  121.9700   56.3130 O   0  0  0  0  0  0  0  0  0  0  0  0
  127.0420  121.9300   57.0060 N   0  0  0  0  0  0  0  0  0  0  0  0
  130.5630  123.6950   60.1520 S   0  0  0  0  0  0  0  0  0  0  0  0
  131.3990  124.0400   61.6500 C   0  0  0  0  0  0  0  0  0  0  0  0
  132.6960  124.3490   61.6800 N   0  0  0  0  0  0  0  0  0  0  0  0
  1  2  1  0
  2  3  2  0
  3  4  1  0
  4  5  1  0
  4  6  2  0
  6  7  1  0
  7  8  1  0
  7  9  2  0
  9 10  1  0
 10 11  2  0
 10 12  1  0
 12 13  1  0
 13 14  1  0
 14 15  2  0
 15 16  1  0
 16 17  1  0
  9 18  1  0
 18 19  1  0
 19 20  2  0
 20  2  1  0
 19  6  1  0
 17 13  2  0
M  END
>  <Binding energies>  (45) 
[-6.31]

>  <Ligand effiencies>  (45) 
[-0.2743478260869565]

>  <Interactions>  (45) 
["V-A:ILE:369:CD1:3239, V-A:GLY:453:C:4042, V-B:GLU:543:CD:9880, V-A:GLY:453:CA:4044, V-A:ASP:366:CG:3213, V-B:GLU:543:CG:9879, V-A:ARG:545:CZ:4926, V-B:ALA:541:CB:9864, V-B:TYR:539:C:9839, H-B:ALA:541:N:9863, H-B:GLU:543:OE1:9881, V-B:PRO:540:CD:9859, V-B:PRO:540:CA:9855, V-B:PRO:540:CB:9857, V-B:PRO:540:N:9856, V-B:LEU:363:CD1:8160, V-B:MET:535:CE:9807, V-B:TYR:539:CE2:9848, H-B:TYR:539:N:9842, V-B:TYR:539:CD2:9846, V-B:PRO:540:CG:9858, V-A:TYR:484:CE2:4346, V-A:TYR:484:CZ:4347"]

$$$$
4aj_Grossjean_2025
     RDKit          3D

 20 22  0  0  0  0  0  0  0  0999 V2000
  131.2690  121.0100   60.7600 C   0  0  0  0  0  0  0  0  0  0  0  0
  131.4910  122.0170   61.8730 C   0  0  0  0  0  0  0  0  0  0  0  0
  132.5940  122.8670   61.8620 C   0  0  0  0  0  0  0  0  0  0  0  0
  132.7820  123.7850   62.9020 C   0  0  0  0  0  0  0  0  0  0  0  0
  134.0020  124.6910   62.8440 C   0  0  0  0  0  0  0  0  0  0  0  0
  131.8170  123.8120   63.9440 C   0  0  0  0  0  0  0  0  0  0  0  0
  131.7020  124.6070   65.1380 C   0  0  0  0  0  0  0  0  0  0  0  0
  132.6250  125.5640   65.4720 N   0  0  0  0  0  0  0  0  0  0  0  0
  130.5660  124.3140   65.9090 C   0  0  0  0  0  0  0  0  0  0  0  0
  130.1460  124.9160   67.1760 C   0  0  0  0  0  0  0  0  0  0  0  0
  129.5180  124.2580   68.0090 O   0  0  0  0  0  0  0  0  0  0  0  0
  130.5070  126.2110   67.3540 N   0  0  0  0  0  0  0  0  0  0  0  0
  130.2460  127.0050   68.4620 C   0  0  0  0  0  0  0  0  0  0  0  0
  131.1090  127.6690   69.2010 N   0  0  0  0  0  0  0  0  0  0  0  0
  130.5090  128.3250   70.1750 C   0  0  0  0  0  0  0  0  0  0  0  0
  129.1240  128.1990   70.2410 C   0  0  0  0  0  0  0  0  0  0  0  0
  128.5900  127.1620   68.9500 S   0  0  0  0  0  0  0  0  0  0  0  0
  129.6130  123.0230   65.1770 S   0  0  0  0  0  0  0  0  0  0  0  0
  130.7310  122.8920   63.8380 C   0  0  0  0  0  0  0  0  0  0  0  0
  130.5500  122.0160   62.8490 N   0  0  0  0  0  0  0  0  0  0  0  0
  1  2  1  0
  2  3  2  0
  3  4  1  0
  4  5  1  0
  4  6  2  0
  6  7  1  0
  7  8  1  0
  7  9  2  0
  9 10  1  0
 10 11  2  0
 10 12  1  0
 12 13  1  0
 13 14  2  0
 14 15  1  0
 15 16  2  0
 16 17  1  0
  9 18  1  0
 18 19  1  0
 19 20  2  0
 20  2  1  0
 19  6  1  0
 17 13  1  0
M  END
>  <Binding energies>  (46) 
[-6.17]

>  <Ligand effiencies>  (46) 
[-0.2682608695652174]

>  <Interactions>  (46) 
["V-A:GLY:453:CA:4044, H-A:GLU:543:OE1:4909, H-A:TYR:484:OH:4348, V-B:GLU:543:CG:9879, V-A:GLU:543:CD:4908, V-A:ARG:545:CZ:4926, H-A:GLU:543:OE2:4910, V-A:LEU:475:CD2:4259, V-A:HIS:456:CE1:4070, V-B:TYR:539:CE2:9848, V-B:TYR:539:CD2:9846, V-A:TYR:484:CE2:4346, V-A:GLU:543:C:4902, V-B:GLU:543:CA:9876, V-A:TYR:484:CZ:4347, V-B:GLU:543:CB:9878, V-A:GLY:544:C:4912, V-A:GLU:543:CB:4906, V-B:HIS:456:CD2:9039, V-B:HIS:456:CE1:9041, V-A:ARG:545:CD:4923, V-A:GLU:543:CA:4904"]

$$$$
4ak_Grossjean_2025
     RDKit          3D

 25 26  0  0  0  0  0  0  0  0999 V2000
  126.8620  126.8730   59.5840 C   0  0  0  0  0  0  0  0  0  0  0  0
  127.3930  125.8530   58.7530 O   0  0  0  0  0  0  0  0  0  0  0  0
  128.8000  125.6900   58.8850 C   0  0  0  0  0  0  0  0  0  0  0  0
  129.2500  124.4620   58.0830 C   0  0  0  0  0  0  0  0  0  0  0  0
  128.1790  123.5310   58.0060 O   0  0  0  0  0  0  0  0  0  0  0  0
  127.5630  123.4690   56.7270 C   0  0  0  0  0  0  0  0  0  0  0  0
  126.0390  123.5050   56.8960 C   0  0  0  0  0  0  0  0  0  0  0  0
  125.6980  123.0240   58.1900 O   0  0  0  0  0  0  0  0  0  0  0  0
  124.8420  123.8930   58.9190 C   0  0  0  0  0  0  0  0  0  0  0  0
  125.2460  123.8770   60.4050 C   0  0  0  0  0  0  0  0  0  0  0  0
  126.6860  123.7240   60.6190 N   0  0  0  0  0  0  0  0  0  0  0  0
  127.2590  123.1980   61.7200 C   0  0  0  0  0  0  0  0  0  0  0  0
  126.5990  122.7660   62.6660 O   0  0  0  0  0  0  0  0  0  0  0  0
  128.7210  123.1600   61.7280 C   0  0  0  0  0  0  0  0  0  0  0  0
  129.6440  124.5640   62.2630 S   0  0  0  0  0  0  0  0  0  0  0  0
  131.1570  123.7290   61.9910 C   0  0  0  0  0  0  0  0  0  0  0  0
  132.3350  124.3100   62.2240 N   0  0  0  0  0  0  0  0  0  0  0  0
  133.4320  123.5540   61.9690 C   0  0  0  0  0  0  0  0  0  0  0  0
  134.7620  124.2320   62.2420 C   0  0  0  0  0  0  0  0  0  0  0  0
  133.3770  122.2450   61.4940 C   0  0  0  0  0  0  0  0  0  0  0  0
  132.1390  121.6390   61.2510 C   0  0  0  0  0  0  0  0  0  0  0  0
  132.1320  120.2110   60.7280 C   0  0  0  0  0  0  0  0  0  0  0  0
  130.9680  122.4010   61.5050 C   0  0  0  0  0  0  0  0  0  0  0  0
  129.5680  122.1000   61.3690 C   0  0  0  0  0  0  0  0  0  0  0  0
  129.1180  120.8820   60.9250 N   0  0  0  0  0  0  0  0  0  0  0  0
  1  2  1  0
  2  3  1  0
  3  4  1  0
  4  5  1  0
  5  6  1  0
  6  7  1  0
  7  8  1  0
  8  9  1  0
  9 10  1  0
 10 11  1  0
 11 12  1  0
 12 13  2  0
 12 14  1  0
 14 15  1  0
 15 16  1  0
 16 17  2  0
 17 18  1  0
 18 19  1  0
 18 20  2  0
 20 21  1  0
 21 22  1  0
 21 23  2  0
 23 24  1  0
 24 25  1  0
 24 14  2  0
 23 16  1  0
M  END
>  <Binding energies>  (47) 
[-4.44]

>  <Ligand effiencies>  (47) 
[-0.15857142857142859]

>  <Interactions>  (47) 
["V-A:ILE:369:CG2:3237, V-A:ILE:369:CD1:3239, V-A:GLY:453:C:4042, V-A:GLY:453:CA:4044, V-A:LEU:475:CD2:4259, V-B:ALA:541:CB:9864, V-B:TYR:539:C:9839, H-B:ALA:541:N:9863, V-B:PRO:540:CA:9855, V-B:PRO:540:CB:9857, V-B:PRO:540:N:9856, V-B:MET:535:CE:9807, V-B:TYR:539:CZ:9849, V-B:TYR:539:CE2:9848, V-B:PRO:540:C:9853, V-B:TYR:539:CE1:9847, V-B:TYR:539:CD2:9846, V-A:SER:385:CB:3409, H-B:TYR:539:O:9840, H-B:PRO:540:O:9854"]

$$$$
4al_Grossjean_2025
     RDKit          3D

 16 17  0  0  0  0  0  0  0  0999 V2000
  125.3750  131.9470   63.4280 C   0  0  0  0  0  0  0  0  0  0  0  0
  126.3970  132.8830   63.7350 O   0  0  0  0  0  0  0  0  0  0  0  0
  127.7020  132.5070   63.7640 C   0  0  0  0  0  0  0  0  0  0  0  0
  128.3110  132.2100   64.7950 O   0  0  0  0  0  0  0  0  0  0  0  0
  128.3260  132.4880   62.4240 C   0  0  0  0  0  0  0  0  0  0  0  0
  127.4610  133.1610   61.0390 S   0  0  0  0  0  0  0  0  0  0  0  0
  128.7870  132.7670   59.9680 C   0  0  0  0  0  0  0  0  0  0  0  0
  128.7460  133.0460   58.6650 N   0  0  0  0  0  0  0  0  0  0  0  0
  129.8390  132.6890   57.9450 C   0  0  0  0  0  0  0  0  0  0  0  0
  129.7720  133.0140   56.4640 C   0  0  0  0  0  0  0  0  0  0  0  0
  130.9590  132.0660   58.4940 C   0  0  0  0  0  0  0  0  0  0  0  0
  130.9980  131.7760   59.8620 C   0  0  0  0  0  0  0  0  0  0  0  0
  132.2410  131.0960   60.4140 C   0  0  0  0  0  0  0  0  0  0  0  0
  129.8700  132.1350   60.6480 C   0  0  0  0  0  0  0  0  0  0  0  0
  129.5790  131.9900   62.0470 C   0  0  0  0  0  0  0  0  0  0  0  0
  130.4570  131.4120   62.9280 N   0  0  0  0  0  0  0  0  0  0  0  0
  1  2  1  0
  2  3  1  0
  3  4  2  0
  3  5  1  0
  5  6  1  0
  6  7  1  0
  7  8  2  0
  8  9  1  0
  9 10  1  0
  9 11  2  0
 11 12  1  0
 12 13  1  0
 12 14  2  0
 14 15  1  0
 15 16  1  0
 15  5  2  0
 14  7  1  0
M  END
>  <Binding energies>  (48) 
[-5.12]

>  <Ligand effiencies>  (48) 
[-0.28444444444444444]

>  <Interactions>  (48) 
["V-A:ASP:366:CG:3213, H-A:GLU:543:OE1:4909, V-A:GLU:543:CD:4908, V-A:MET:535:CE:4835, V-A:GLU:543:CG:4907, H-B:TYR:484:OH:9319, V-A:PRO:540:CA:4883, V-A:PRO:540:CB:4885, V-A:PRO:540:N:4884, V-A:TYR:539:CD1:4873, V-B:GLY:454:CA:9020, V-A:ALA:541:CB:4892, V-B:LEU:475:CD2:9230, V-A:TYR:539:C:4867, V-A:ILE:538:CB:4862, V-A:ILE:538:CA:4860, V-A:ILE:538:C:4858"]

$$$$
4bc_Grossjean_2025
     RDKit          3D

 26 28  0  0  0  0  0  0  0  0999 V2000
  126.7420  122.8380   57.0900 C   0  0  0  0  0  0  0  0  0  0  0  0
  127.7600  122.2030   57.8560 O   0  0  0  0  0  0  0  0  0  0  0  0
  128.0390  122.6720   59.1260 C   0  0  0  0  0  0  0  0  0  0  0  0
  127.4190  123.8630   59.4990 C   0  0  0  0  0  0  0  0  0  0  0  0
  127.6400  124.4130   60.7600 C   0  0  0  0  0  0  0  0  0  0  0  0
  128.4810  123.7700   61.6690 C   0  0  0  0  0  0  0  0  0  0  0  0
  128.6560  124.4070   62.9110 N   0  0  0  0  0  0  0  0  0  0  0  0
  129.8010  124.6660   63.5880 C   0  0  0  0  0  0  0  0  0  0  0  0
  130.9200  124.3270   63.2010 O   0  0  0  0  0  0  0  0  0  0  0  0
  129.6350  125.3890   64.8530 C   0  0  0  0  0  0  0  0  0  0  0  0
  130.0980  124.6320   66.3750 S   0  0  0  0  0  0  0  0  0  0  0  0
  129.6110  126.0450   67.2800 C   0  0  0  0  0  0  0  0  0  0  0  0
  129.7270  126.0960   68.6070 N   0  0  0  0  0  0  0  0  0  0  0  0
  129.3150  127.2420   69.1960 C   0  0  0  0  0  0  0  0  0  0  0  0
  129.4600  127.2800   70.7060 C   0  0  0  0  0  0  0  0  0  0  0  0
  128.7950  128.3290   68.4970 C   0  0  0  0  0  0  0  0  0  0  0  0
  128.6710  128.2810   67.1000 C   0  0  0  0  0  0  0  0  0  0  0  0
  128.0900  129.5010   66.3750 C   0  0  0  0  0  0  0  0  0  0  0  0
  128.6300  129.6980   65.1710 F   0  0  0  0  0  0  0  0  0  0  0  0
  126.7780  129.3400   66.2030 F   0  0  0  0  0  0  0  0  0  0  0  0
  128.3080  130.6010   67.0960 F   0  0  0  0  0  0  0  0  0  0  0  0
  129.0970  127.0860   66.4460 C   0  0  0  0  0  0  0  0  0  0  0  0
  129.1270  126.6810   65.0620 C   0  0  0  0  0  0  0  0  0  0  0  0
  128.6950  127.4920   64.0440 N   0  0  0  0  0  0  0  0  0  0  0  0
  129.1190  122.5770   61.2960 C   0  0  0  0  0  0  0  0  0  0  0  0
  128.8960  122.0310   60.0360 C   0  0  0  0  0  0  0  0  0  0  0  0
  1  2  1  0
  2  3  1  0
  3  4  2  0
  4  5  1  0
  5  6  2  0
  6  7  1  0
  7  8  1  0
  8  9  2  0
  8 10  1  0
 10 11  1  0
 11 12  1  0
 12 13  2  0
 13 14  1  0
 14 15  1  0
 14 16  2  0
 16 17  1  0
 17 18  1  0
 18 19  1  0
 18 20  1  0
 18 21  1  0
 17 22  2  0
 22 23  1  0
 23 24  1  0
  6 25  1  0
 25 26  2  0
 26  3  1  0
 23 10  2  0
 22 12  1  0
M  END
>  <Binding energies>  (49) 
[-5.83]

>  <Ligand effiencies>  (49) 
[-0.20103448275862068]

>  <Interactions>  (49) 
["V-B:GLU:543:CD:9880, H-A:GLU:543:OE1:4909, V-B:GLU:543:CG:9879, V-A:GLU:543:CD:4908, H-A:GLU:543:OE2:4910, V-A:HIS:456:CE1:4070, H-B:GLU:543:OE2:9882, V-B:TYR:539:C:9839, H-B:GLU:543:OE1:9881, V-B:PRO:540:CD:9859, V-B:PRO:540:CA:9855, V-B:PRO:540:N:9856, V-B:TYR:539:CE2:9848, H-B:TYR:539:N:9842, V-B:TYR:539:CD2:9846, V-A:TYR:484:CE2:4346, V-A:TYR:484:CZ:4347, V-B:GLU:543:CB:9878, V-A:GLU:543:CB:4906, V-B:HIS:456:CE1:9041, V-A:GLU:543:CG:4907, V-B:TYR:484:CE2:9317, V-B:TYR:484:CZ:9318, V-A:GLU:543:CA:4904, V-B:TYR:484:CD2:9315"]

$$$$
4bf_Grossjean_2025
     RDKit          3D

 24 26  0  0  0  0  0  0  0  0999 V2000
  133.1480  125.3560   65.6540 C   0  0  0  0  0  0  0  0  0  0  0  0
  132.4780  124.6340   64.4980 C   0  0  0  0  0  0  0  0  0  0  0  0
  133.2040  123.7880   63.6640 C   0  0  0  0  0  0  0  0  0  0  0  0
  132.5730  123.1300   62.5970 C   0  0  0  0  0  0  0  0  0  0  0  0
  133.4130  122.2100   61.7040 C   0  0  0  0  0  0  0  0  0  0  0  0
  132.8750  120.9980   61.5500 F   0  0  0  0  0  0  0  0  0  0  0  0
  133.5370  122.7480   60.4910 F   0  0  0  0  0  0  0  0  0  0  0  0
  134.6230  122.0440   62.2380 F   0  0  0  0  0  0  0  0  0  0  0  0
  131.1780  123.3680   62.4160 C   0  0  0  0  0  0  0  0  0  0  0  0
  130.2160  122.8850   61.4570 C   0  0  0  0  0  0  0  0  0  0  0  0
  130.5480  122.0100   60.4530 N   0  0  0  0  0  0  0  0  0  0  0  0
  128.9170  123.3850   61.6430 C   0  0  0  0  0  0  0  0  0  0  0  0
  127.7160  123.1300   60.8420 C   0  0  0  0  0  0  0  0  0  0  0  0
  126.6650  122.7780   61.3800 O   0  0  0  0  0  0  0  0  0  0  0  0
  127.8570  123.3250   59.5080 N   0  0  0  0  0  0  0  0  0  0  0  0
  126.9270  123.1250   58.4700 C   0  0  0  0  0  0  0  0  0  0  0  0
  125.6210  123.6460   58.4340 C   0  0  0  0  0  0  0  0  0  0  0  0
  124.7920  123.3580   57.3470 C   0  0  0  0  0  0  0  0  0  0  0  0
  125.2880  122.5500   56.3240 C   0  0  0  0  0  0  0  0  0  0  0  0
  126.5400  122.0290   56.3390 N   0  0  0  0  0  0  0  0  0  0  0  0
  127.3350  122.3180   57.4010 C   0  0  0  0  0  0  0  0  0  0  0  0
  128.8480  124.4800   63.0220 S   0  0  0  0  0  0  0  0  0  0  0  0
  130.5520  124.2580   63.3430 C   0  0  0  0  0  0  0  0  0  0  0  0
  131.1550  124.8810   64.3550 N   0  0  0  0  0  0  0  0  0  0  0  0
  1  2  1  0
  2  3  2  0
  3  4  1  0
  4  5  1  0
  5  6  1  0
  5  7  1  0
  5  8  1  0
  4  9  2  0
  9 10  1  0
 10 11  1  0
 10 12  2  0
 12 13  1  0
 13 14  2  0
 13 15  1  0
 15 16  1  0
 16 17  2  0
 17 18  1  0
 18 19  2  0
 19 20  1  0
 20 21  2  0
 12 22  1  0
 22 23  1  0
 23 24  2  0
 24  2  1  0
 23  9  1  0
 21 16  1  0
M  END
>  <Binding energies>  (50) 
[-6.14]

>  <Ligand effiencies>  (50) 
[-0.2274074074074074]

>  <Interactions>  (50) 
["V-A:ILE:369:CG2:3237, V-A:ILE:369:CD1:3239, V-A:GLY:453:C:4042, V-B:GLU:543:CD:9880, V-B:GLU:543:CG:9879, V-A:ARG:545:CZ:4926, V-A:LEU:475:CD2:4259, V-A:GLY:454:CA:4049, V-B:TYR:539:C:9839, H-B:ALA:541:N:9863, V-B:PRO:540:CD:9859, V-B:PRO:540:CA:9855, V-B:PRO:540:CB:9857, V-B:PRO:540:N:9856, V-B:LEU:363:CD1:8160, V-B:MET:535:CE:9807, V-B:TYR:539:CZ:9849, V-B:TYR:539:CE2:9848, V-B:TYR:539:CD1:9845, V-B:TYR:539:CA:9841, H-B:TYR:539:N:9842, V-B:TYR:539:CE1:9847, V-B:TYR:539:CD2:9846, V-B:ILE:538:CG2:9835, V-B:TYR:539:CG:9844, V-A:SER:385:CB:3409, V-A:ARG:545:CG:4922, V-A:ARG:545:CD:4923, V-A:SER:385:C:3405, H-B:TYR:539:O:9840"]

$$$$
4bh_Grossjean_2025
     RDKit          3D

 31 33  0  0  0  0  0  0  0  0999 V2000
  127.6280  122.7810   56.5770 C   0  0  0  0  0  0  0  0  0  0  0  0
  127.8480  123.9840   57.3050 O   0  0  0  0  0  0  0  0  0  0  0  0
  127.9650  123.9330   58.6820 C   0  0  0  0  0  0  0  0  0  0  0  0
  129.1260  124.2940   59.3840 C   0  0  0  0  0  0  0  0  0  0  0  0
  129.1750  124.2160   60.7760 C   0  0  0  0  0  0  0  0  0  0  0  0
  130.4280  124.6560   61.5230 C   0  0  0  0  0  0  0  0  0  0  0  0
  130.1520  125.2160   62.8470 N   0  0  0  0  0  0  0  0  0  0  0  0
  130.2020  124.5340   64.0100 C   0  0  0  0  0  0  0  0  0  0  0  0
  130.4540  123.3290   64.0620 O   0  0  0  0  0  0  0  0  0  0  0  0
  129.8930  125.3010   65.2180 C   0  0  0  0  0  0  0  0  0  0  0  0
  130.2360  124.6210   66.8050 S   0  0  0  0  0  0  0  0  0  0  0  0
  129.5780  126.0330   67.5990 C   0  0  0  0  0  0  0  0  0  0  0  0
  129.5530  126.1350   68.9270 N   0  0  0  0  0  0  0  0  0  0  0  0
  129.0210  127.2750   69.4250 C   0  0  0  0  0  0  0  0  0  0  0  0
  129.0010  127.3700   70.9410 C   0  0  0  0  0  0  0  0  0  0  0  0
  128.5210  128.3070   68.6360 C   0  0  0  0  0  0  0  0  0  0  0  0
  128.5430  128.2040   67.2360 C   0  0  0  0  0  0  0  0  0  0  0  0
  127.9840  129.3660   66.4070 C   0  0  0  0  0  0  0  0  0  0  0  0
  126.7080  129.1920   66.0570 F   0  0  0  0  0  0  0  0  0  0  0  0
  128.0540  130.4960   67.1100 F   0  0  0  0  0  0  0  0  0  0  0  0
  128.6920  129.5010   65.2860 F   0  0  0  0  0  0  0  0  0  0  0  0
  129.0940  127.0130   66.6780 C   0  0  0  0  0  0  0  0  0  0  0  0
  129.2770  126.5580   65.3210 C   0  0  0  0  0  0  0  0  0  0  0  0
  128.8890  127.2950   64.2320 N   0  0  0  0  0  0  0  0  0  0  0  0
  128.0440  123.7980   61.4810 C   0  0  0  0  0  0  0  0  0  0  0  0
  126.8720  123.4230   60.8050 C   0  0  0  0  0  0  0  0  0  0  0  0
  125.7220  122.9880   61.4380 O   0  0  0  0  0  0  0  0  0  0  0  0
  124.6020  123.8620   61.5280 C   0  0  0  0  0  0  0  0  0  0  0  0
  126.8480  123.4900   59.4050 C   0  0  0  0  0  0  0  0  0  0  0  0
  125.7010  123.1430   58.7310 O   0  0  0  0  0  0  0  0  0  0  0  0
  124.9600  124.2530   58.2420 C   0  0  0  0  0  0  0  0  0  0  0  0
  1  2  1  0
  2  3  1  0
  3  4  2  0
  4  5  1  0
  5  6  1  0
  6  7  1  0
  7  8  1  0
  8  9  2  0
  8 10  1  0
 10 11  1  0
 11 12  1  0
 12 13  2  0
 13 14  1  0
 14 15  1  0
 14 16  2  0
 16 17  1  0
 17 18  1  0
 18 19  1  0
 18 20  1  0
 18 21  1  0
 17 22  2  0
 22 23  1  0
 23 24  1  0
  5 25  2  0
 25 26  1  0
 26 27  1  0
 27 28  1  0
 26 29  2  0
 29 30  1  0
 30 31  1  0
 29  3  1  0
 23 10  2  0
 22 12  1  0
M  END
>  <Binding energies>  (51) 
[-5.7]

>  <Ligand effiencies>  (51) 
[-0.16764705882352943]

>  <Interactions>  (51) 
["V-B:GLU:543:CD:9880, H-A:GLU:543:OE1:4909, V-B:GLU:543:CG:9879, V-A:GLU:543:CD:4908, H-A:GLU:543:OE2:4910, V-A:HIS:456:CE1:4070, H-B:GLU:543:OE2:9882, H-B:ALA:541:N:9863, H-B:GLU:543:OE1:9881, V-B:PRO:540:CA:9855, V-B:PRO:540:CB:9857, V-B:PRO:540:N:9856, V-B:LEU:363:CD1:8160, V-B:TYR:539:CZ:9849, V-B:TYR:539:CE2:9848, V-B:TYR:539:CD1:9845, V-B:TYR:539:CE1:9847, V-B:TYR:539:CD2:9846, V-B:TYR:539:CG:9844, V-B:ASN:362:CB:8147, V-A:TYR:484:CE2:4346, V-A:TYR:484:CZ:4347, V-B:GLU:543:CB:9878, V-A:GLU:543:CB:4906, V-B:HIS:456:CE1:9041, V-A:GLU:543:CG:4907, V-B:TYR:484:CE2:9317, V-B:TYR:484:CZ:9318, V-A:GLU:543:CA:4904, V-B:TYR:484:CE1:9316"]

$$$$
4bi_Grossjean_2025
     RDKit          3D

 23 25  0  0  0  0  0  0  0  0999 V2000
  135.0390  124.6350   62.6060 C   0  0  0  0  0  0  0  0  0  0  0  0
  133.5270  124.5000   62.6120 C   0  0  0  0  0  0  0  0  0  0  0  0
  132.7810  124.8370   63.7390 C   0  0  0  0  0  0  0  0  0  0  0  0
  131.3820  124.7110   63.7290 C   0  0  0  0  0  0  0  0  0  0  0  0
  130.6040  125.1010   64.9890 C   0  0  0  0  0  0  0  0  0  0  0  0
  129.8720  124.0990   65.4820 F   0  0  0  0  0  0  0  0  0  0  0  0
  131.4510  125.4840   65.9430 F   0  0  0  0  0  0  0  0  0  0  0  0
  129.7700  126.1050   64.7120 F   0  0  0  0  0  0  0  0  0  0  0  0
  130.7800  124.2250   62.5300 C   0  0  0  0  0  0  0  0  0  0  0  0
  129.4120  123.9660   62.1550 C   0  0  0  0  0  0  0  0  0  0  0  0
  128.3580  124.1690   63.0090 N   0  0  0  0  0  0  0  0  0  0  0  0
  129.2550  123.4970   60.8400 C   0  0  0  0  0  0  0  0  0  0  0  0
  128.0210  123.1250   60.1430 C   0  0  0  0  0  0  0  0  0  0  0  0
  127.0080  122.8200   60.7760 O   0  0  0  0  0  0  0  0  0  0  0  0
  128.0830  123.1620   58.7890 N   0  0  0  0  0  0  0  0  0  0  0  0
  127.0660  122.8730   57.8870 C   0  0  0  0  0  0  0  0  0  0  0  0
  125.8200  123.4960   57.9190 C   0  0  0  0  0  0  0  0  0  0  0  0
  125.1130  122.9380   56.8780 C   0  0  0  0  0  0  0  0  0  0  0  0
  125.8940  122.0260   56.2520 O   0  0  0  0  0  0  0  0  0  0  0  0
  127.1300  121.9940   56.9020 N   0  0  0  0  0  0  0  0  0  0  0  0
  130.8130  123.3380   60.0310 S   0  0  0  0  0  0  0  0  0  0  0  0
  131.6590  123.9160   61.4470 C   0  0  0  0  0  0  0  0  0  0  0  0
  132.9860  124.0390   61.4610 N   0  0  0  0  0  0  0  0  0  0  0  0
  1  2  1  0
  2  3  2  0
  3  4  1  0
  4  5  1  0
  5  6  1  0
  5  7  1  0
  5  8  1  0
  4  9  2  0
  9 10  1  0
 10 11  1  0
 10 12  2  0
 12 13  1  0
 13 14  2  0
 13 15  1  0
 15 16  1  0
 16 17  1  0
 17 18  2  0
 18 19  1  0
 19 20  1  0
 12 21  1  0
 21 22  1  0
 22 23  2  0
 23  2  1  0
 22  9  1  0
 20 16  2  0
M  END
>  <Binding energies>  (52) 
[-5.99]

>  <Ligand effiencies>  (52) 
[-0.23038461538461538]

>  <Interactions>  (52) 
["V-A:ILE:369:CD1:3239, V-A:GLY:453:C:4042, V-B:GLU:543:CD:9880, V-A:GLY:453:CA:4044, V-B:GLU:543:CG:9879, V-A:GLU:543:CD:4908, V-A:ARG:545:CZ:4926, H-B:GLU:543:OE2:9882, V-B:TYR:539:C:9839, H-B:ALA:541:N:9863, H-B:GLU:543:OE1:9881, V-B:PRO:540:CD:9859, V-B:PRO:540:CA:9855, V-B:PRO:540:CB:9857, V-B:PRO:540:N:9856, V-B:LEU:363:CD1:8160, V-B:MET:535:CE:9807, V-B:TYR:539:CE2:9848, H-B:TYR:539:N:9842, V-B:TYR:539:CD2:9846, V-A:TYR:484:CE2:4346, V-B:GLU:543:CB:9878, H-B:TYR:539:OH:9850"]

$$$$
4bj_Grossjean_2025
     RDKit          3D

 23 25  0  0  0  0  0  0  0  0999 V2000
  130.7440  120.6590   60.7760 C   0  0  0  0  0  0  0  0  0  0  0  0
  131.0140  121.7580   61.7880 C   0  0  0  0  0  0  0  0  0  0  0  0
  132.0250  122.6920   61.5790 C   0  0  0  0  0  0  0  0  0  0  0  0
  132.2680  123.7000   62.5260 C   0  0  0  0  0  0  0  0  0  0  0  0
  133.3940  124.7040   62.2540 C   0  0  0  0  0  0  0  0  0  0  0  0
  134.2050  124.8730   63.3000 F   0  0  0  0  0  0  0  0  0  0  0  0
  134.1400  124.2800   61.2340 F   0  0  0  0  0  0  0  0  0  0  0  0
  132.8730  125.8940   61.9550 F   0  0  0  0  0  0  0  0  0  0  0  0
  131.4390  123.7180   63.6870 C   0  0  0  0  0  0  0  0  0  0  0  0
  131.3920  124.5750   64.8470 C   0  0  0  0  0  0  0  0  0  0  0  0
  132.2530  125.6280   65.0250 N   0  0  0  0  0  0  0  0  0  0  0  0
  130.3880  124.2380   65.7680 C   0  0  0  0  0  0  0  0  0  0  0  0
  130.0680  124.8810   67.0450 C   0  0  0  0  0  0  0  0  0  0  0  0
  129.5280  124.2460   67.9540 O   0  0  0  0  0  0  0  0  0  0  0  0
  130.4190  126.1870   67.1440 N   0  0  0  0  0  0  0  0  0  0  0  0
  130.2390  127.0180   68.2410 C   0  0  0  0  0  0  0  0  0  0  0  0
  131.1620  127.6280   68.9530 N   0  0  0  0  0  0  0  0  0  0  0  0
  130.6320  128.3450   69.9230 C   0  0  0  0  0  0  0  0  0  0  0  0
  129.2440  128.3260   70.0150 C   0  0  0  0  0  0  0  0  0  0  0  0
  128.6080  127.3070   68.7570 S   0  0  0  0  0  0  0  0  0  0  0  0
  129.4780  122.8270   65.2340 S   0  0  0  0  0  0  0  0  0  0  0  0
  130.4340  122.7060   63.7760 C   0  0  0  0  0  0  0  0  0  0  0  0
  130.2100  121.7490   62.8760 N   0  0  0  0  0  0  0  0  0  0  0  0
  1  2  1  0
  2  3  2  0
  3  4  1  0
  4  5  1  0
  5  6  1  0
  5  7  1  0
  5  8  1  0
  4  9  2  0
  9 10  1  0
 10 11  1  0
 10 12  2  0
 12 13  1  0
 13 14  2  0
 13 15  1  0
 15 16  1  0
 16 17  2  0
 17 18  1  0
 18 19  2  0
 19 20  1  0
 12 21  1  0
 21 22  1  0
 22 23  2  0
 23  2  1  0
 22  9  1  0
 20 16  1  0
M  END
>  <Binding energies>  (53) 
[-5.89]

>  <Ligand effiencies>  (53) 
[-0.22653846153846152]

>  <Interactions>  (53) 
["V-A:ILE:369:CD1:3239, V-A:GLY:453:C:4042, V-A:GLY:453:CA:4044, V-A:ASP:366:CG:3213, H-A:GLU:543:OE1:4909, H-A:TYR:484:OH:4348, V-B:GLU:543:CG:9879, V-A:GLU:543:CD:4908, V-A:ARG:545:CZ:4926, H-A:GLU:543:OE2:4910, V-A:LEU:475:CD2:4259, V-A:HIS:456:CE1:4070, V-B:ALA:541:CB:9864, V-B:TYR:539:CE2:9848, V-B:TYR:539:CD2:9846, V-A:TYR:484:CE2:4346, V-A:GLU:543:C:4902, V-B:GLU:543:CA:9876, V-A:TYR:484:CZ:4347, V-B:GLU:543:CB:9878, V-A:GLY:544:C:4912, V-A:GLU:543:CB:4906, V-B:HIS:456:CE1:9041, V-A:GLU:543:CA:4904"]

$$$$
4bk_Grossjean_2025
     RDKit          3D

 28 29  0  0  0  0  0  0  0  0999 V2000
  126.0870  128.0140   74.2850 C   0  0  0  0  0  0  0  0  0  0  0  0
  127.4270  127.9460   74.7470 O   0  0  0  0  0  0  0  0  0  0  0  0
  128.3360  128.7050   73.9600 C   0  0  0  0  0  0  0  0  0  0  0  0
  129.3060  127.7580   73.2430 C   0  0  0  0  0  0  0  0  0  0  0  0
  128.7120  126.4730   73.1280 O   0  0  0  0  0  0  0  0  0  0  0  0
  128.3430  126.1280   71.7990 C   0  0  0  0  0  0  0  0  0  0  0  0
  129.1950  126.9320   70.8080 C   0  0  0  0  0  0  0  0  0  0  0  0
  128.3410  127.6360   69.9170 O   0  0  0  0  0  0  0  0  0  0  0  0
  128.4720  127.2360   68.5580 C   0  0  0  0  0  0  0  0  0  0  0  0
  129.9640  127.0920   68.2110 C   0  0  0  0  0  0  0  0  0  0  0  0
  130.2180  126.2220   67.0620 N   0  0  0  0  0  0  0  0  0  0  0  0
  130.0210  124.8880   67.0350 C   0  0  0  0  0  0  0  0  0  0  0  0
  129.5760  124.2670   68.0020 O   0  0  0  0  0  0  0  0  0  0  0  0
  130.3580  124.2120   65.7810 C   0  0  0  0  0  0  0  0  0  0  0  0
  129.4290  122.8100   65.2550 S   0  0  0  0  0  0  0  0  0  0  0  0
  130.3860  122.6670   63.8000 C   0  0  0  0  0  0  0  0  0  0  0  0
  130.1530  121.7060   62.9070 N   0  0  0  0  0  0  0  0  0  0  0  0
  130.9590  121.6980   61.8190 C   0  0  0  0  0  0  0  0  0  0  0  0
  130.6740  120.5960   60.8140 C   0  0  0  0  0  0  0  0  0  0  0  0
  131.9810  122.6180   61.6070 C   0  0  0  0  0  0  0  0  0  0  0  0
  132.2330  123.6320   62.5450 C   0  0  0  0  0  0  0  0  0  0  0  0
  133.3710  124.6190   62.2690 C   0  0  0  0  0  0  0  0  0  0  0  0
  134.1860  124.7830   63.3140 F   0  0  0  0  0  0  0  0  0  0  0  0
  134.1110  124.1820   61.2500 F   0  0  0  0  0  0  0  0  0  0  0  0
  132.8680  125.8150   61.9650 F   0  0  0  0  0  0  0  0  0  0  0  0
  131.4000  123.6700   63.7030 C   0  0  0  0  0  0  0  0  0  0  0  0
  131.3540  124.5420   64.8500 C   0  0  0  0  0  0  0  0  0  0  0  0
  132.2140  125.5970   65.0150 N   0  0  0  0  0  0  0  0  0  0  0  0
  1  2  1  0
  2  3  1  0
  3  4  1  0
  4  5  1  0
  5  6  1  0
  6  7  1  0
  7  8  1  0
  8  9  1  0
  9 10  1  0
 10 11  1  0
 11 12  1  0
 12 13  2  0
 12 14  1  0
 14 15  1  0
 15 16  1  0
 16 17  2  0
 17 18  1  0
 18 19  1  0
 18 20  2  0
 20 21  1  0
 21 22  1  0
 22 23  1  0
 22 24  1  0
 22 25  1  0
 21 26  2  0
 26 27  1  0
 27 28  1  0
 27 14  2  0
 26 16  1  0
M  END
>  <Binding energies>  (54) 
[-5.3]

>  <Ligand effiencies>  (54) 
[-0.17096774193548386]

>  <Interactions>  (54) 
["V-A:ILE:369:CD1:3239, V-A:GLY:453:C:4042, V-A:GLY:453:CA:4044, V-A:ASP:366:CG:3213, H-A:GLU:543:OE1:4909, H-A:TYR:484:OH:4348, V-B:GLU:543:CG:9879, V-A:GLU:543:CD:4908, V-A:ARG:545:CZ:4926, H-A:GLU:543:OE2:4910, V-A:LEU:475:CD2:4259, V-A:HIS:456:CE1:4070, V-B:ALA:541:CB:9864, V-B:TYR:539:CE2:9848, V-B:TYR:539:CD2:9846, V-A:TYR:484:CE2:4346, V-B:GLU:543:C:9874, V-B:GLU:543:CA:9876, V-A:TYR:484:CZ:4347, V-B:GLU:543:CB:9878, V-A:GLU:543:CB:4906, V-B:HIS:456:CD2:9039, V-B:HIS:456:CE1:9041, V-B:GLY:544:C:9884, V-B:GLY:544:CA:9886, V-B:LYS:547:CE:9922, V-B:HIS:456:CG:9037, H-B:LYS:547:NZ:9923, V-B:HIS:456:CB:9036"]

$$$$
4cd_Grossjean_2025
     RDKit          3D

 29 32  0  0  0  0  0  0  0  0999 V2000
  129.0490  127.2500   63.7560 N   0  0  0  0  0  0  0  0  0  0  0  0
  129.4040  126.5310   64.8690 C   0  0  0  0  0  0  0  0  0  0  0  0
  130.0680  125.2950   64.8060 C   0  0  0  0  0  0  0  0  0  0  0  0
  130.4830  124.5400   63.6200 C   0  0  0  0  0  0  0  0  0  0  0  0
  129.9200  124.7110   62.5380 O   0  0  0  0  0  0  0  0  0  0  0  0
  131.5090  123.6750   63.8120 N   0  0  0  0  0  0  0  0  0  0  0  0
  132.1050  122.7770   62.9070 C   0  0  0  0  0  0  0  0  0  0  0  0
  131.2340  122.1220   62.0320 C   0  0  0  0  0  0  0  0  0  0  0  0
  131.7290  121.2230   61.0910 C   0  0  0  0  0  0  0  0  0  0  0  0
  133.0980  120.9840   61.0190 C   0  0  0  0  0  0  0  0  0  0  0  0
  133.9780  121.6390   61.8760 C   0  0  0  0  0  0  0  0  0  0  0  0
  133.4870  122.5380   62.8190 C   0  0  0  0  0  0  0  0  0  0  0  0
  130.3790  124.6580   66.4200 S   0  0  0  0  0  0  0  0  0  0  0  0
  129.6130  126.0410   67.1630 C   0  0  0  0  0  0  0  0  0  0  0  0
  129.5180  126.1550   68.4860 N   0  0  0  0  0  0  0  0  0  0  0  0
  128.8930  127.2600   68.9700 C   0  0  0  0  0  0  0  0  0  0  0  0
  128.7990  127.3600   70.4650 C   0  0  0  0  0  0  0  0  0  0  0  0
  129.8380  127.9360   71.2140 C   0  0  0  0  0  0  0  0  0  0  0  0
  129.7570  128.0330   72.6000 C   0  0  0  0  0  0  0  0  0  0  0  0
  128.6310  127.5530   73.2600 C   0  0  0  0  0  0  0  0  0  0  0  0
  127.5860  126.9800   72.5430 C   0  0  0  0  0  0  0  0  0  0  0  0
  127.6700  126.8880   71.1570 C   0  0  0  0  0  0  0  0  0  0  0  0
  128.3850  128.2520   68.1270 C   0  0  0  0  0  0  0  0  0  0  0  0
  128.4840  128.1430   66.7300 C   0  0  0  0  0  0  0  0  0  0  0  0
  127.9010  129.2660   65.8630 C   0  0  0  0  0  0  0  0  0  0  0  0
  128.4980  129.3730   64.6740 F   0  0  0  0  0  0  0  0  0  0  0  0
  126.6070  129.0400   65.6410 F   0  0  0  0  0  0  0  0  0  0  0  0
  128.0440  130.4360   66.4860 F   0  0  0  0  0  0  0  0  0  0  0  0
  129.1260  126.9840   66.2100 C   0  0  0  0  0  0  0  0  0  0  0  0
  1  2  1  0
  2  3  2  0
  3  4  1  0
  4  5  2  0
  4  6  1  0
  6  7  1  0
  7  8  2  0
  8  9  1  0
  9 10  2  0
 10 11  1  0
 11 12  2  0
  3 13  1  0
 13 14  1  0
 14 15  2  0
 15 16  1  0
 16 17  1  0
 17 18  2  0
 18 19  1  0
 19 20  2  0
 20 21  1  0
 21 22  2  0
 16 23  2  0
 23 24  1  0
 24 25  1  0
 25 26  1  0
 25 27  1  0
 25 28  1  0
 24 29  2  0
 29  2  1  0
 12  7  1  0
 29 14  1  0
 22 17  1  0
M  END
>  <Binding energies>  (55) 
[-7.28]

>  <Ligand effiencies>  (55) 
[-0.2275]

>  <Interactions>  (55) 
["V-A:ILE:369:CG2:3237, V-A:ILE:369:CD1:3239, V-B:GLU:543:CD:9880, H-A:GLU:543:OE1:4909, H-A:TYR:484:OH:4348, V-B:GLU:543:CG:9879, V-A:GLU:543:CD:4908, H-A:GLU:543:OE2:4910, V-A:LEU:475:CD2:4259, V-A:HIS:456:CE1:4070, V-A:GLY:454:CA:4049, H-B:GLU:543:OE2:9882, H-B:GLU:543:OE1:9881, V-B:TYR:539:CE2:9848, V-B:TYR:539:CD2:9846, V-A:TYR:484:CE2:4346, V-B:GLU:543:C:9874, V-A:TYR:484:CZ:4347, V-B:GLU:543:CB:9878, V-A:SER:385:CB:3409, V-A:GLU:543:CB:4906, V-B:HIS:456:CD2:9039, V-B:HIS:456:CE1:9041, V-B:GLY:544:C:9884, V-B:GLY:544:CA:9886, V-A:GLU:543:CG:4907, V-B:LYS:547:CE:9922, V-B:TYR:484:CE2:9317, V-B:TYR:484:CZ:9318, V-A:SER:385:C:3405"]

$$$$
4cg_Grossjean_2025
     RDKit          3D

 30 33  0  0  0  0  0  0  0  0999 V2000
  128.7350  127.2330   63.7560 N   0  0  0  0  0  0  0  0  0  0  0  0
  129.1290  126.4950   64.8430 C   0  0  0  0  0  0  0  0  0  0  0  0
  129.6290  125.1890   64.7440 C   0  0  0  0  0  0  0  0  0  0  0  0
  129.8730  124.3940   63.5400 C   0  0  0  0  0  0  0  0  0  0  0  0
  131.0170  124.1120   63.1780 O   0  0  0  0  0  0  0  0  0  0  0  0
  128.7780  124.0300   62.8400 N   0  0  0  0  0  0  0  0  0  0  0  0
  128.7810  123.2190   61.6240 C   0  0  0  0  0  0  0  0  0  0  0  0
  127.5490  123.4300   60.7510 C   0  0  0  0  0  0  0  0  0  0  0  0
  126.3140  123.6990   61.3470 C   0  0  0  0  0  0  0  0  0  0  0  0
  125.1920  123.9230   60.5520 C   0  0  0  0  0  0  0  0  0  0  0  0
  125.3120  123.8880   59.1650 C   0  0  0  0  0  0  0  0  0  0  0  0
  126.5450  123.6360   58.5650 C   0  0  0  0  0  0  0  0  0  0  0  0
  127.6660  123.4130   59.3590 C   0  0  0  0  0  0  0  0  0  0  0  0
  130.0580  124.5440   66.3250 S   0  0  0  0  0  0  0  0  0  0  0  0
  129.5440  126.0190   67.1110 C   0  0  0  0  0  0  0  0  0  0  0  0
  129.6220  126.1650   68.4310 N   0  0  0  0  0  0  0  0  0  0  0  0
  129.2040  127.3470   68.9530 C   0  0  0  0  0  0  0  0  0  0  0  0
  129.3030  127.4810   70.4460 C   0  0  0  0  0  0  0  0  0  0  0  0
  128.2010  127.2000   71.2700 C   0  0  0  0  0  0  0  0  0  0  0  0
  128.2870  127.3230   72.6530 C   0  0  0  0  0  0  0  0  0  0  0  0
  129.4830  127.7320   73.2370 C   0  0  0  0  0  0  0  0  0  0  0  0
  130.5890  128.0200   72.4450 C   0  0  0  0  0  0  0  0  0  0  0  0
  130.4980  127.8950   71.0620 C   0  0  0  0  0  0  0  0  0  0  0  0
  128.6920  128.3700   68.1460 C   0  0  0  0  0  0  0  0  0  0  0  0
  128.6040  128.2260   66.7520 C   0  0  0  0  0  0  0  0  0  0  0  0
  128.0320  129.3850   65.9280 C   0  0  0  0  0  0  0  0  0  0  0  0
  128.6150  129.5170   64.7350 F   0  0  0  0  0  0  0  0  0  0  0  0
  126.7300  129.1890   65.7170 F   0  0  0  0  0  0  0  0  0  0  0  0
  128.2030  130.5320   66.5840 F   0  0  0  0  0  0  0  0  0  0  0  0
  129.0550  126.9940   66.1940 C   0  0  0  0  0  0  0  0  0  0  0  0
  1  2  1  0
  2  3  2  0
  3  4  1  0
  4  5  2  0
  4  6  1  0
  6  7  1  0
  7  8  1  0
  8  9  2  0
  9 10  1  0
 10 11  2  0
 11 12  1  0
 12 13  2  0
  3 14  1  0
 14 15  1  0
 15 16  2  0
 16 17  1  0
 17 18  1  0
 18 19  2  0
 19 20  1  0
 20 21  2  0
 21 22  1  0
 22 23  2  0
 17 24  2  0
 24 25  1  0
 25 26  1  0
 26 27  1  0
 26 28  1  0
 26 29  1  0
 25 30  2  0
 30  2  1  0
 13  8  1  0
 30 15  1  0
 23 18  1  0
M  END
>  <Binding energies>  (56) 
[-7.53]

>  <Ligand effiencies>  (56) 
[-0.22818181818181818]

>  <Interactions>  (56) 
["V-B:GLU:543:CD:9880, H-A:GLU:543:OE1:4909, V-B:GLU:543:CG:9879, V-A:GLU:543:CD:4908, H-A:GLU:543:OE2:4910, V-A:HIS:456:CE1:4070, H-B:GLU:543:OE2:9882, H-B:GLU:543:OE1:9881, V-B:PRO:540:CA:9855, V-B:PRO:540:CB:9857, V-A:TYR:484:CE2:4346, V-A:GLU:543:C:4902, V-A:TYR:484:CZ:4347, V-B:GLU:543:CB:9878, V-A:GLY:544:C:4912, V-A:GLU:543:CB:4906, V-B:HIS:456:CD2:9039, V-B:HIS:456:CE1:9041, V-A:GLU:543:CG:4907, V-B:TYR:484:CE2:9317, V-B:TYR:484:CZ:9318, V-A:GLU:543:CA:4904"]

$$$$
4ch_Grossjean_2025
     RDKit          3D

 36 39  0  0  0  0  0  0  0  0999 V2000
  124.2440  123.6180   61.8780 C   0  0  0  0  0  0  0  0  0  0  0  0
  124.6640  123.8270   60.5340 O   0  0  0  0  0  0  0  0  0  0  0  0
  125.9740  123.5570   60.1830 C   0  0  0  0  0  0  0  0  0  0  0  0
  127.0140  123.3800   61.1100 C   0  0  0  0  0  0  0  0  0  0  0  0
  128.3140  123.1070   60.6840 C   0  0  0  0  0  0  0  0  0  0  0  0
  129.4350  122.9460   61.7040 C   0  0  0  0  0  0  0  0  0  0  0  0
  129.2810  123.7730   62.9010 N   0  0  0  0  0  0  0  0  0  0  0  0
  130.2910  124.2700   63.6470 C   0  0  0  0  0  0  0  0  0  0  0  0
  131.4770  124.0880   63.3620 O   0  0  0  0  0  0  0  0  0  0  0  0
  129.8980  125.0750   64.8030 C   0  0  0  0  0  0  0  0  0  0  0  0
  130.1850  124.4760   66.4340 S   0  0  0  0  0  0  0  0  0  0  0  0
  129.5120  125.9280   67.1330 C   0  0  0  0  0  0  0  0  0  0  0  0
  129.4330  126.0930   68.4510 N   0  0  0  0  0  0  0  0  0  0  0  0
  128.8990  127.2590   68.9020 C   0  0  0  0  0  0  0  0  0  0  0  0
  128.8190  127.4110   70.3940 C   0  0  0  0  0  0  0  0  0  0  0  0
  127.6100  127.1910   71.0750 C   0  0  0  0  0  0  0  0  0  0  0  0
  127.5280  127.3310   72.4580 C   0  0  0  0  0  0  0  0  0  0  0  0
  128.6580  127.6950   73.1820 C   0  0  0  0  0  0  0  0  0  0  0  0
  129.8670  127.9220   72.5330 C   0  0  0  0  0  0  0  0  0  0  0  0
  129.9440  127.7830   71.1500 C   0  0  0  0  0  0  0  0  0  0  0  0
  128.4320  128.2440   68.0270 C   0  0  0  0  0  0  0  0  0  0  0  0
  128.5090  128.0810   66.6340 C   0  0  0  0  0  0  0  0  0  0  0  0
  127.9780  129.2010   65.7330 C   0  0  0  0  0  0  0  0  0  0  0  0
  128.6010  129.2640   64.5530 F   0  0  0  0  0  0  0  0  0  0  0  0
  126.6820  129.0090   65.4900 F   0  0  0  0  0  0  0  0  0  0  0  0
  128.1430  130.3790   66.3330 F   0  0  0  0  0  0  0  0  0  0  0  0
  129.0780  126.8680   66.1510 C   0  0  0  0  0  0  0  0  0  0  0  0
  129.3240  126.3560   64.8250 C   0  0  0  0  0  0  0  0  0  0  0  0
  129.0120  127.0570   63.6870 N   0  0  0  0  0  0  0  0  0  0  0  0
  128.5880  123.0270   59.3180 C   0  0  0  0  0  0  0  0  0  0  0  0
  127.5680  123.2010   58.3680 C   0  0  0  0  0  0  0  0  0  0  0  0
  127.7670  123.1330   57.0010 O   0  0  0  0  0  0  0  0  0  0  0  0
  128.0260  124.3280   56.2720 C   0  0  0  0  0  0  0  0  0  0  0  0
  126.2640  123.4590   58.8150 C   0  0  0  0  0  0  0  0  0  0  0  0
  125.2600  123.6470   57.8960 O   0  0  0  0  0  0  0  0  0  0  0  0
  124.7950  124.9870   57.8120 C   0  0  0  0  0  0  0  0  0  0  0  0
  1  2  1  0
  2  3  1  0
  3  4  2  0
  4  5  1  0
  5  6  1  0
  6  7  1  0
  7  8  1  0
  8  9  2  0
  8 10  1  0
 10 11  1  0
 11 12  1  0
 12 13  2  0
 13 14  1  0
 14 15  1  0
 15 16  2  0
 16 17  1  0
 17 18  2  0
 18 19  1  0
 19 20  2  0
 14 21  2  0
 21 22  1  0
 22 23  1  0
 23 24  1  0
 23 25  1  0
 23 26  1  0
 22 27  2  0
 27 28  1  0
 28 29  1  0
  5 30  2  0
 30 31  1  0
 31 32  1  0
 32 33  1  0
 31 34  2  0
 34 35  1  0
 35 36  1  0
 34  3  1  0
 28 10  2  0
 27 12  1  0
 20 15  1  0
M  END
>  <Binding energies>  (57) 
[-7.43]

>  <Ligand effiencies>  (57) 
[-0.1905128205128205]

>  <Interactions>  (57) 
["V-B:GLU:543:CD:9880, H-A:GLU:543:OE1:4909, V-B:GLU:543:CG:9879, V-A:GLU:543:CD:4908, H-A:GLU:543:OE2:4910, V-A:HIS:456:CE1:4070, V-B:ASP:366:CB:8183, H-B:GLU:543:OE2:9882, H-B:GLU:543:OE1:9881, V-B:TYR:531:CE2:9765, V-B:ASP:366:CG:8184, V-B:PRO:540:CA:9855, V-B:PRO:540:CB:9857, V-B:PRO:540:N:9856, V-B:LEU:363:CD1:8160, V-B:TYR:531:CZ:9766, V-B:TYR:539:CZ:9849, V-B:TYR:539:CE2:9848, V-B:TYR:539:CE1:9847, V-B:TYR:539:CD2:9846, V-B:ASN:362:CB:8147, V-B:ASN:362:C:8143, V-A:TYR:484:CE2:4346, V-A:TYR:484:CZ:4347, V-B:GLU:543:CB:9878, V-A:GLU:543:CB:4906, V-B:HIS:456:CD2:9039, V-B:HIS:456:CE1:9041, V-B:GLY:544:C:9884, V-A:GLU:543:CG:4907, V-B:LYS:547:CE:9922, V-B:TYR:484:CE2:9317, V-B:HIS:456:CG:9037, V-B:TYR:484:CZ:9318, V-B:ASN:362:CG:8148"]

$$$$
4cj_Grossjean_2025
     RDKit          3D

 28 31  0  0  0  0  0  0  0  0999 V2000
  129.0630  127.1670   63.8440 N   0  0  0  0  0  0  0  0  0  0  0  0
  129.4610  126.5060   64.9780 C   0  0  0  0  0  0  0  0  0  0  0  0
  130.2390  125.3370   64.9540 C   0  0  0  0  0  0  0  0  0  0  0  0
  130.7690  124.6160   63.7950 C   0  0  0  0  0  0  0  0  0  0  0  0
  130.2180  124.6990   62.6940 O   0  0  0  0  0  0  0  0  0  0  0  0
  131.8740  123.8670   64.0310 N   0  0  0  0  0  0  0  0  0  0  0  0
  132.5690  123.0930   63.1110 C   0  0  0  0  0  0  0  0  0  0  0  0
  133.8720  122.9430   63.0030 N   0  0  0  0  0  0  0  0  0  0  0  0
  134.1850  122.1280   62.0150 C   0  0  0  0  0  0  0  0  0  0  0  0
  133.1200  121.5960   61.2940 C   0  0  0  0  0  0  0  0  0  0  0  0
  131.6310  122.2010   61.9560 S   0  0  0  0  0  0  0  0  0  0  0  0
  130.5760  124.7640   66.5860 S   0  0  0  0  0  0  0  0  0  0  0  0
  129.6750  126.0880   67.2850 C   0  0  0  0  0  0  0  0  0  0  0  0
  129.5540  126.2260   68.6030 N   0  0  0  0  0  0  0  0  0  0  0  0
  128.8410  127.2900   69.0550 C   0  0  0  0  0  0  0  0  0  0  0  0
  128.7350  127.4230   70.5470 C   0  0  0  0  0  0  0  0  0  0  0  0
  127.6450  126.8740   71.2410 C   0  0  0  0  0  0  0  0  0  0  0  0
  127.5380  126.9990   72.6240 C   0  0  0  0  0  0  0  0  0  0  0  0
  128.5210  127.6800   73.3340 C   0  0  0  0  0  0  0  0  0  0  0  0
  129.6090  128.2350   72.6710 C   0  0  0  0  0  0  0  0  0  0  0  0
  129.7130  128.1070   71.2890 C   0  0  0  0  0  0  0  0  0  0  0  0
  128.2330  128.1960   68.1800 C   0  0  0  0  0  0  0  0  0  0  0  0
  128.3520  128.0600   66.7880 C   0  0  0  0  0  0  0  0  0  0  0  0
  127.6630  129.0910   65.8870 C   0  0  0  0  0  0  0  0  0  0  0  0
  127.4190  128.6330   64.6570 F   0  0  0  0  0  0  0  0  0  0  0  0
  126.4950  129.4450   66.4200 F   0  0  0  0  0  0  0  0  0  0  0  0
  128.4360  130.1710   65.7640 F   0  0  0  0  0  0  0  0  0  0  0  0
  129.1140  126.9580   66.3040 C   0  0  0  0  0  0  0  0  0  0  0  0
  1  2  1  0
  2  3  2  0
  3  4  1  0
  4  5  2  0
  4  6  1  0
  6  7  1  0
  7  8  2  0
  8  9  1  0
  9 10  2  0
 10 11  1  0
  3 12  1  0
 12 13  1  0
 13 14  2  0
 14 15  1  0
 15 16  1  0
 16 17  2  0
 17 18  1  0
 18 19  2  0
 19 20  1  0
 20 21  2  0
 15 22  2  0
 22 23  1  0
 23 24  1  0
 24 25  1  0
 24 26  1  0
 24 27  1  0
 23 28  2  0
 28  2  1  0
 11  7  1  0
 28 13  1  0
 21 16  1  0
M  END
>  <Binding energies>  (58) 
[-6.89]

>  <Ligand effiencies>  (58) 
[-0.22225806451612903]

>  <Interactions>  (58) 
["V-A:ILE:369:CG2:3237, V-A:ILE:369:CD1:3239, V-B:GLU:543:CD:9880, H-A:GLY:454:N:4050, H-A:GLU:543:OE1:4909, H-A:TYR:484:OH:4348, V-B:GLU:543:CG:9879, V-A:GLU:543:CD:4908, H-A:GLU:543:OE2:4910, V-A:LEU:475:CD2:4259, V-A:HIS:456:CE1:4070, V-A:GLY:454:CA:4049, H-B:GLU:543:OE2:9882, H-B:GLU:543:OE1:9881, V-A:TYR:484:CE2:4346, V-B:GLU:543:C:9874, V-A:TYR:484:CZ:4347, V-B:GLU:543:CB:9878, V-A:GLU:543:CB:4906, V-B:HIS:456:CD2:9039, V-B:HIS:456:CE1:9041, V-B:GLY:544:C:9884, V-B:GLY:544:CA:9886, V-A:GLU:543:CG:4907, V-B:LYS:547:CE:9922, V-B:TYR:484:CE2:9317, V-B:TYR:484:CZ:9318"]

$$$$
4ck_Grossjean_2025
     RDKit          3D

 33 35  0  0  0  0  0  0  0  0999 V2000
  127.5830  122.7950   56.9180 C   0  0  0  0  0  0  0  0  0  0  0  0
  126.4180  121.9850   56.8770 O   0  0  0  0  0  0  0  0  0  0  0  0
  125.2260  122.7210   56.6440 C   0  0  0  0  0  0  0  0  0  0  0  0
  125.2290  123.9730   57.5310 C   0  0  0  0  0  0  0  0  0  0  0  0
  125.3430  123.5770   58.8910 O   0  0  0  0  0  0  0  0  0  0  0  0
  126.0280  124.5230   59.7020 C   0  0  0  0  0  0  0  0  0  0  0  0
  125.7690  124.2000   61.1790 C   0  0  0  0  0  0  0  0  0  0  0  0
  126.6060  123.1170   61.5630 O   0  0  0  0  0  0  0  0  0  0  0  0
  127.6750  122.8680   60.6590 C   0  0  0  0  0  0  0  0  0  0  0  0
  129.0100  122.8970   61.4180 C   0  0  0  0  0  0  0  0  0  0  0  0
  128.9490  123.7490   62.6060 N   0  0  0  0  0  0  0  0  0  0  0  0
  129.9810  124.4340   63.1410 C   0  0  0  0  0  0  0  0  0  0  0  0
  131.1100  124.4300   62.6460 O   0  0  0  0  0  0  0  0  0  0  0  0
  129.6810  125.2020   64.3500 C   0  0  0  0  0  0  0  0  0  0  0  0
  130.0750  124.5430   65.9360 S   0  0  0  0  0  0  0  0  0  0  0  0
  129.4970  125.9900   66.7270 C   0  0  0  0  0  0  0  0  0  0  0  0
  129.5310  126.1190   68.0510 N   0  0  0  0  0  0  0  0  0  0  0  0
  129.0590  127.2790   68.5760 C   0  0  0  0  0  0  0  0  0  0  0  0
  129.1290  127.4000   70.0710 C   0  0  0  0  0  0  0  0  0  0  0  0
  128.0730  126.9490   70.8800 C   0  0  0  0  0  0  0  0  0  0  0  0
  128.1300  127.0610   72.2670 C   0  0  0  0  0  0  0  0  0  0  0  0
  129.2490  127.6270   72.8680 C   0  0  0  0  0  0  0  0  0  0  0  0
  130.3120  128.0770   72.0910 C   0  0  0  0  0  0  0  0  0  0  0  0
  130.2510  127.9620   70.7050 C   0  0  0  0  0  0  0  0  0  0  0  0
  128.5630  128.3080   67.7690 C   0  0  0  0  0  0  0  0  0  0  0  0
  128.5210  128.1820   66.3710 C   0  0  0  0  0  0  0  0  0  0  0  0
  127.9610  129.3480   65.5470 C   0  0  0  0  0  0  0  0  0  0  0  0
  128.5640  129.4910   64.3660 F   0  0  0  0  0  0  0  0  0  0  0  0
  126.6640  129.1510   65.3120 F   0  0  0  0  0  0  0  0  0  0  0  0
  128.1180  130.4890   66.2170 F   0  0  0  0  0  0  0  0  0  0  0  0
  129.0120  126.9690   65.8100 C   0  0  0  0  0  0  0  0  0  0  0  0
  129.1370  126.4910   64.4540 C   0  0  0  0  0  0  0  0  0  0  0  0
  128.7530  127.2330   63.3670 N   0  0  0  0  0  0  0  0  0  0  0  0
  1  2  1  0
  2  3  1  0
  3  4  1  0
  4  5  1  0
  5  6  1  0
  6  7  1  0
  7  8  1  0
  8  9  1  0
  9 10  1  0
 10 11  1  0
 11 12  1  0
 12 13  2  0
 12 14  1  0
 14 15  1  0
 15 16  1  0
 16 17  2  0
 17 18  1  0
 18 19  1  0
 19 20  2  0
 20 21  1  0
 21 22  2  0
 22 23  1  0
 23 24  2  0
 18 25  2  0
 25 26  1  0
 26 27  1  0
 27 28  1  0
 27 29  1  0
 27 30  1  0
 26 31  2  0
 31 32  1  0
 32 33  1  0
 32 14  2  0
 31 16  1  0
 24 19  1  0
M  END
>  <Binding energies>  (59) 
[-7.19]

>  <Ligand effiencies>  (59) 
[-0.19972222222222225]

>  <Interactions>  (59) 
["V-B:GLU:543:CD:9880, H-A:GLU:543:OE1:4909, V-B:GLU:543:CG:9879, V-A:GLU:543:CD:4908, V-A:HIS:456:CE1:4070, H-B:GLU:543:OE2:9882, V-B:TYR:539:C:9839, H-B:ALA:541:N:9863, H-B:GLU:543:OE1:9881, V-B:PRO:540:CD:9859, V-B:PRO:540:CA:9855, V-B:PRO:540:CB:9857, V-B:PRO:540:N:9856, V-B:LEU:363:CD1:8160, V-B:MET:535:CE:9807, V-B:TYR:539:CZ:9849, V-B:TYR:539:CE2:9848, V-B:TYR:539:CD1:9845, H-B:TYR:539:N:9842, V-B:PRO:540:C:9853, V-B:TYR:539:CE1:9847, V-B:TYR:539:CD2:9846, V-B:ILE:538:CG2:9835, V-B:TYR:539:CG:9844, V-A:TYR:484:CE2:4346, V-A:GLU:543:C:4902, V-B:GLU:543:C:9874, V-A:TYR:484:CZ:4347, V-B:GLU:543:CB:9878, V-A:GLY:544:C:4912, V-A:GLU:543:CB:4906, V-B:HIS:456:CE1:9041, V-A:GLU:543:CG:4907, V-B:TYR:484:CE2:9317, V-B:TYR:484:CZ:9318"]

$$$$
4dd_Grossjean_2025
     RDKit          3D

 26 29  0  0  0  0  0  0  0  0999 V2000
  127.9950  129.3170   65.9930 C   0  0  0  0  0  0  0  0  0  0  0  0
  128.5360  128.1810   66.8490 C   0  0  0  0  0  0  0  0  0  0  0  0
  128.4620  128.3110   68.2420 C   0  0  0  0  0  0  0  0  0  0  0  0
  128.9420  127.3020   69.0850 C   0  0  0  0  0  0  0  0  0  0  0  0
  128.8810  127.4170   70.5790 C   0  0  0  0  0  0  0  0  0  0  0  0
  127.7020  127.1100   71.2780 C   0  0  0  0  0  0  0  0  0  0  0  0
  127.6400  127.2120   72.6650 C   0  0  0  0  0  0  0  0  0  0  0  0
  128.7600  127.6250   73.3770 C   0  0  0  0  0  0  0  0  0  0  0  0
  129.9420  127.9330   72.7120 C   0  0  0  0  0  0  0  0  0  0  0  0
  130.0010  127.8280   71.3240 C   0  0  0  0  0  0  0  0  0  0  0  0
  129.5070  126.1640   68.5950 N   0  0  0  0  0  0  0  0  0  0  0  0
  129.5720  126.0360   67.2710 C   0  0  0  0  0  0  0  0  0  0  0  0
  130.2560  124.6190   66.5070 S   0  0  0  0  0  0  0  0  0  0  0  0
  129.9380  125.2740   64.8990 C   0  0  0  0  0  0  0  0  0  0  0  0
  130.2900  124.5050   63.7040 C   0  0  0  0  0  0  0  0  0  0  0  0
  129.6160  124.5990   62.6760 O   0  0  0  0  0  0  0  0  0  0  0  0
  131.3870  123.7180   63.8210 N   0  0  0  0  0  0  0  0  0  0  0  0
  131.9540  122.8260   62.8930 C   0  0  0  0  0  0  0  0  0  0  0  0
  133.3460  122.7060   62.9330 C   0  0  0  0  0  0  0  0  0  0  0  0
  134.0020  121.8380   62.0640 C   0  0  0  0  0  0  0  0  0  0  0  0
  133.2630  121.0820   61.1570 C   0  0  0  0  0  0  0  0  0  0  0  0
  131.8750  121.1830   61.1140 C   0  0  0  0  0  0  0  0  0  0  0  0
  131.2170  122.0500   61.9820 C   0  0  0  0  0  0  0  0  0  0  0  0
  129.3330  126.5380   64.9790 C   0  0  0  0  0  0  0  0  0  0  0  0
  128.9780  127.2850   63.8830 N   0  0  0  0  0  0  0  0  0  0  0  0
  129.1100  126.9950   66.3250 C   0  0  0  0  0  0  0  0  0  0  0  0
  1  2  1  0
  2  3  2  0
  3  4  1  0
  4  5  1  0
  5  6  2  0
  6  7  1  0
  7  8  2  0
  8  9  1  0
  9 10  2  0
  4 11  2  0
 11 12  1  0
 12 13  1  0
 13 14  1  0
 14 15  1  0
 15 16  2  0
 15 17  1  0
 17 18  1  0
 18 19  2  0
 19 20  1  0
 20 21  2  0
 21 22  1  0
 22 23  2  0
 14 24  2  0
 24 25  1  0
 24 26  1  0
 26  2  1  0
 10  5  1  0
 26 12  2  0
 23 18  1  0
M  END
>  <Binding energies>  (60) 
[-7.53]

>  <Ligand effiencies>  (60) 
[-0.2596551724137931]

>  <Interactions>  (60) 
["V-A:ILE:369:CG2:3237, V-A:ILE:369:CD1:3239, V-B:GLU:543:CD:9880, H-A:GLU:543:OE1:4909, H-A:TYR:484:OH:4348, V-B:GLU:543:CG:9879, V-A:GLU:543:CD:4908, H-A:GLU:543:OE2:4910, V-A:LEU:475:CD2:4259, V-A:HIS:456:CE1:4070, V-A:GLY:454:CA:4049, H-B:GLU:543:OE2:9882, H-B:GLU:543:OE1:9881, V-B:TYR:539:CE2:9848, V-B:TYR:539:CD2:9846, V-A:TYR:484:CE2:4346, V-A:TYR:484:CZ:4347, V-B:GLU:543:CB:9878, V-A:SER:385:CB:3409, V-A:GLU:543:CB:4906, V-B:HIS:456:CD2:9039, V-B:HIS:456:CE1:9041, V-B:GLY:544:C:9884, V-A:GLU:543:CG:4907, V-B:LYS:547:CE:9922, V-A:SER:385:C:3405"]

$$$$
4dg_Grossjean_2025
     RDKit          3D

 27 30  0  0  0  0  0  0  0  0999 V2000
  128.0750  129.3780   65.9420 C   0  0  0  0  0  0  0  0  0  0  0  0
  128.5970  128.2150   66.7720 C   0  0  0  0  0  0  0  0  0  0  0  0
  128.6450  128.3660   68.1630 C   0  0  0  0  0  0  0  0  0  0  0  0
  129.1150  127.3340   68.9840 C   0  0  0  0  0  0  0  0  0  0  0  0
  129.1760  127.4660   70.4790 C   0  0  0  0  0  0  0  0  0  0  0  0
  128.0660  127.1450   71.2770 C   0  0  0  0  0  0  0  0  0  0  0  0
  128.1160  127.2700   72.6640 C   0  0  0  0  0  0  0  0  0  0  0  0
  129.2820  127.7190   73.2750 C   0  0  0  0  0  0  0  0  0  0  0  0
  130.3960  128.0470   72.5080 C   0  0  0  0  0  0  0  0  0  0  0  0
  130.3410  127.9220   71.1230 C   0  0  0  0  0  0  0  0  0  0  0  0
  129.5250  126.1410   68.4730 N   0  0  0  0  0  0  0  0  0  0  0  0
  129.4810  125.9960   67.1490 C   0  0  0  0  0  0  0  0  0  0  0  0
  129.9850  124.5180   66.3620 S   0  0  0  0  0  0  0  0  0  0  0  0
  129.6070  125.1830   64.7740 C   0  0  0  0  0  0  0  0  0  0  0  0
  129.8610  124.3960   63.5680 C   0  0  0  0  0  0  0  0  0  0  0  0
  131.0090  124.1680   63.1810 O   0  0  0  0  0  0  0  0  0  0  0  0
  128.7690  123.9760   62.8970 N   0  0  0  0  0  0  0  0  0  0  0  0
  128.7820  123.1600   61.6840 C   0  0  0  0  0  0  0  0  0  0  0  0
  127.5710  123.3890   60.7860 C   0  0  0  0  0  0  0  0  0  0  0  0
  126.3250  123.6630   61.3590 C   0  0  0  0  0  0  0  0  0  0  0  0
  125.2240  123.9040   60.5420 C   0  0  0  0  0  0  0  0  0  0  0  0
  125.3730  123.8810   59.1570 C   0  0  0  0  0  0  0  0  0  0  0  0
  126.6150  123.6260   58.5800 C   0  0  0  0  0  0  0  0  0  0  0  0
  127.7170  123.3860   59.3960 C   0  0  0  0  0  0  0  0  0  0  0  0
  129.1280  126.4980   64.8720 C   0  0  0  0  0  0  0  0  0  0  0  0
  128.7700  127.2630   63.7920 N   0  0  0  0  0  0  0  0  0  0  0  0
  129.0350  126.9820   66.2240 C   0  0  0  0  0  0  0  0  0  0  0  0
  1  2  1  0
  2  3  2  0
  3  4  1  0
  4  5  1  0
  5  6  2  0
  6  7  1  0
  7  8  2  0
  8  9  1  0
  9 10  2  0
  4 11  2  0
 11 12  1  0
 12 13  1  0
 13 14  1  0
 14 15  1  0
 15 16  2  0
 15 17  1  0
 17 18  1  0
 18 19  1  0
 19 20  2  0
 20 21  1  0
 21 22  2  0
 22 23  1  0
 23 24  2  0
 14 25  2  0
 25 26  1  0
 25 27  1  0
 27  2  1  0
 10  5  1  0
 27 12  2  0
 24 19  1  0
M  END
>  <Binding energies>  (61) 
[-7.8]

>  <Ligand effiencies>  (61) 
[-0.26]

>  <Interactions>  (61) 
["V-B:GLU:543:CD:9880, H-A:GLU:543:OE1:4909, V-B:GLU:543:CG:9879, V-A:GLU:543:CD:4908, H-A:GLU:543:OE2:4910, V-A:HIS:456:CE1:4070, H-B:GLU:543:OE2:9882, H-B:GLU:543:OE1:9881, V-B:PRO:540:CA:9855, V-B:PRO:540:CB:9857, V-A:TYR:484:CE2:4346, V-B:GLU:543:CA:9876, V-A:TYR:484:CZ:4347, V-B:GLU:543:CB:9878, V-A:GLY:544:C:4912, V-A:GLU:543:CB:4906, V-B:HIS:456:CD2:9039, V-B:HIS:456:CE1:9041, V-A:GLU:543:CG:4907"]

$$$$
4dj_Grossjean_2025
     RDKit          3D

 25 28  0  0  0  0  0  0  0  0999 V2000
  127.7480  129.0170   65.8300 C   0  0  0  0  0  0  0  0  0  0  0  0
  128.4270  127.9960   66.7300 C   0  0  0  0  0  0  0  0  0  0  0  0
  128.3070  128.1530   68.1150 C   0  0  0  0  0  0  0  0  0  0  0  0
  128.9100  127.2480   68.9970 C   0  0  0  0  0  0  0  0  0  0  0  0
  128.7940  127.3890   70.4890 C   0  0  0  0  0  0  0  0  0  0  0  0
  129.8350  127.9550   71.2420 C   0  0  0  0  0  0  0  0  0  0  0  0
  129.7340  128.0880   72.6250 C   0  0  0  0  0  0  0  0  0  0  0  0
  128.5850  127.6510   73.2770 C   0  0  0  0  0  0  0  0  0  0  0  0
  127.5400  127.0830   72.5570 C   0  0  0  0  0  0  0  0  0  0  0  0
  127.6460  126.9530   71.1750 C   0  0  0  0  0  0  0  0  0  0  0  0
  129.6190  126.1750   68.5520 N   0  0  0  0  0  0  0  0  0  0  0  0
  129.7350  126.0250   67.2340 C   0  0  0  0  0  0  0  0  0  0  0  0
  130.6250  124.6950   66.5260 S   0  0  0  0  0  0  0  0  0  0  0  0
  130.2650  125.2620   64.8940 C   0  0  0  0  0  0  0  0  0  0  0  0
  130.7720  124.5340   63.7300 C   0  0  0  0  0  0  0  0  0  0  0  0
  130.3270  124.7610   62.6010 O   0  0  0  0  0  0  0  0  0  0  0  0
  131.7340  123.6140   63.9900 N   0  0  0  0  0  0  0  0  0  0  0  0
  132.3740  122.7940   63.0720 C   0  0  0  0  0  0  0  0  0  0  0  0
  133.6590  122.5180   62.9930 N   0  0  0  0  0  0  0  0  0  0  0  0
  133.9180  121.6970   61.9940 C   0  0  0  0  0  0  0  0  0  0  0  0
  132.8270  121.2870   61.2350 C   0  0  0  0  0  0  0  0  0  0  0  0
  131.3860  122.0220   61.8730 S   0  0  0  0  0  0  0  0  0  0  0  0
  129.4920  126.4320   64.9240 C   0  0  0  0  0  0  0  0  0  0  0  0
  129.0680  127.0960   63.8000 N   0  0  0  0  0  0  0  0  0  0  0  0
  129.1730  126.8880   66.2500 C   0  0  0  0  0  0  0  0  0  0  0  0
  1  2  1  0
  2  3  2  0
  3  4  1  0
  4  5  1  0
  5  6  2  0
  6  7  1  0
  7  8  2  0
  8  9  1  0
  9 10  2  0
  4 11  2  0
 11 12  1  0
 12 13  1  0
 13 14  1  0
 14 15  1  0
 15 16  2  0
 15 17  1  0
 17 18  1  0
 18 19  2  0
 19 20  1  0
 20 21  2  0
 21 22  1  0
 14 23  2  0
 23 24  1  0
 23 25  1  0
 25  2  1  0
 10  5  1  0
 25 12  2  0
 22 18  1  0
M  END
>  <Binding energies>  (62) 
[-6.75]

>  <Ligand effiencies>  (62) 
[-0.24107142857142858]

>  <Interactions>  (62) 
["V-A:ILE:369:CG2:3237, V-A:ILE:369:CD1:3239, V-B:GLU:543:CD:9880, H-A:GLY:454:N:4050, H-A:GLU:543:OE1:4909, H-A:TYR:484:OH:4348, V-B:GLU:543:CG:9879, V-A:GLU:543:CD:4908, H-A:GLU:543:OE2:4910, V-A:LEU:475:CD2:4259, V-A:HIS:456:CE1:4070, V-A:GLY:454:CA:4049, H-B:GLU:543:OE2:9882, H-B:GLU:543:OE1:9881, V-A:TYR:484:CE2:4346, V-B:GLU:543:C:9874, V-A:TYR:484:CZ:4347, V-B:GLU:543:CB:9878, V-A:GLU:543:CB:4906, V-B:HIS:456:CD2:9039, V-B:HIS:456:CE1:9041, V-B:GLY:544:C:9884, V-A:GLU:543:CG:4907, V-B:LYS:547:CE:9922, V-A:SER:385:C:3405"]

$$$$
4ea_Grossjean_2025
     RDKit          3D

 31 34  0  0  0  0  0  0  0  0999 V2000
  129.7970  131.7210   73.4860 C   0  0  0  0  0  0  0  0  0  0  0  0
  129.1240  130.3500   73.6010 C   0  0  0  0  0  0  0  0  0  0  0  0
  130.0110  129.3470   73.1260 O   0  0  0  0  0  0  0  0  0  0  0  0
  129.5730  128.0870   72.8680 C   0  0  0  0  0  0  0  0  0  0  0  0
  129.2140  127.3000   73.7490 O   0  0  0  0  0  0  0  0  0  0  0  0
  129.5700  127.7480   71.4060 C   0  0  0  0  0  0  0  0  0  0  0  0
  130.7240  127.9840   70.6470 C   0  0  0  0  0  0  0  0  0  0  0  0
  130.7530  127.6800   69.2890 C   0  0  0  0  0  0  0  0  0  0  0  0
  129.6320  127.1360   68.6610 C   0  0  0  0  0  0  0  0  0  0  0  0
  129.7770  126.8690   67.2860 N   0  0  0  0  0  0  0  0  0  0  0  0
  129.8810  125.6890   66.6260 C   0  0  0  0  0  0  0  0  0  0  0  0
  129.8630  124.5860   67.1720 O   0  0  0  0  0  0  0  0  0  0  0  0
  130.0210  125.7980   65.1710 C   0  0  0  0  0  0  0  0  0  0  0  0
  129.1590  127.0570   64.2820 S   0  0  0  0  0  0  0  0  0  0  0  0
  129.8300  126.5110   62.7630 C   0  0  0  0  0  0  0  0  0  0  0  0
  129.5350  127.1090   61.6070 N   0  0  0  0  0  0  0  0  0  0  0  0
  130.1220  126.5890   60.5010 C   0  0  0  0  0  0  0  0  0  0  0  0
  129.7730  127.2830   59.1980 C   0  0  0  0  0  0  0  0  0  0  0  0
  130.9870  125.4970   60.5230 C   0  0  0  0  0  0  0  0  0  0  0  0
  131.2930  124.8740   61.7370 C   0  0  0  0  0  0  0  0  0  0  0  0
  132.2140  123.7150   61.7450 C   0  0  0  0  0  0  0  0  0  0  0  0
  131.7840  122.4720   61.2700 C   0  0  0  0  0  0  0  0  0  0  0  0
  132.6500  121.3820   61.2740 C   0  0  0  0  0  0  0  0  0  0  0  0
  133.9480  121.5340   61.7580 C   0  0  0  0  0  0  0  0  0  0  0  0
  134.3850  122.7670   62.2370 C   0  0  0  0  0  0  0  0  0  0  0  0
  133.5180  123.8550   62.2320 C   0  0  0  0  0  0  0  0  0  0  0  0
  130.6980  125.3890   62.9220 C   0  0  0  0  0  0  0  0  0  0  0  0
  130.7890  125.0030   64.3060 C   0  0  0  0  0  0  0  0  0  0  0  0
  131.5620  123.9500   64.7230 N   0  0  0  0  0  0  0  0  0  0  0  0
  128.4720  126.8960   69.4140 C   0  0  0  0  0  0  0  0  0  0  0  0
  128.4440  127.2000   70.7720 C   0  0  0  0  0  0  0  0  0  0  0  0
  1  2  1  0
  2  3  1  0
  3  4  1  0
  4  5  2  0
  4  6  1  0
  6  7  2  0
  7  8  1  0
  8  9  2  0
  9 10  1  0
 10 11  1  0
 11 12  2  0
 11 13  1  0
 13 14  1  0
 14 15  1  0
 15 16  2  0
 16 17  1  0
 17 18  1  0
 17 19  2  0
 19 20  1  0
 20 21  1  0
 21 22  2  0
 22 23  1  0
 23 24  2  0
 24 25  1  0
 25 26  2  0
 20 27  2  0
 27 28  1  0
 28 29  1  0
  9 30  1  0
 30 31  2  0
 31  6  1  0
 28 13  2  0
 27 15  1  0
 26 21  1  0
M  END
>  <Binding energies>  (63) 
[-7.76]

>  <Ligand effiencies>  (63) 
[-0.22823529411764706]

>  <Interactions>  (63) 
["V-A:ILE:369:CG2:3237, V-A:ILE:369:CD1:3239, V-A:GLY:453:C:4042, V-B:GLU:543:CD:9880, H-A:GLU:543:OE1:4909, H-A:TYR:484:OH:4348, V-B:GLU:543:CG:9879, V-A:GLU:543:CD:4908, H-A:GLU:543:OE2:4910, V-A:LEU:475:CD2:4259, V-A:HIS:456:CE1:4070, V-A:GLY:454:CA:4049, V-B:TYR:539:CE2:9848, V-A:GLU:543:C:4902, V-B:GLU:543:C:9874, V-A:TYR:484:CZ:4347, V-B:GLU:543:CB:9878, V-A:GLY:544:C:4912, V-A:SER:385:CB:3409, V-A:GLU:543:CB:4906, V-B:HIS:456:CD2:9039, V-B:HIS:456:CE1:9041, V-A:SER:385:C:3405, V-A:SER:385:CA:3407, H-A:LYS:547:NZ:4951, H-B:LYS:547:NZ:9923, V-A:GLY:544:CA:4914, V-A:LYS:547:CE:4950"]

$$$$
4eb_Grossjean_2025
     RDKit          3D

 30 33  0  0  0  0  0  0  0  0999 V2000
  129.2400  131.0820   73.4890 C   0  0  0  0  0  0  0  0  0  0  0  0
  129.7510  129.8020   73.1480 O   0  0  0  0  0  0  0  0  0  0  0  0
  128.9210  128.7990   72.7590 C   0  0  0  0  0  0  0  0  0  0  0  0
  127.9430  128.4330   73.4170 O   0  0  0  0  0  0  0  0  0  0  0  0
  129.3130  128.1790   71.4480 C   0  0  0  0  0  0  0  0  0  0  0  0
  130.6600  128.1920   71.0620 C   0  0  0  0  0  0  0  0  0  0  0  0
  131.0540  127.6260   69.8530 C   0  0  0  0  0  0  0  0  0  0  0  0
  130.1140  127.0370   69.0070 C   0  0  0  0  0  0  0  0  0  0  0  0
  130.6270  126.4970   67.8110 N   0  0  0  0  0  0  0  0  0  0  0  0
  130.4930  125.2570   67.2790 C   0  0  0  0  0  0  0  0  0  0  0  0
  129.8520  124.3440   67.8010 O   0  0  0  0  0  0  0  0  0  0  0  0
  131.1760  125.0490   66.0000 C   0  0  0  0  0  0  0  0  0  0  0  0
  132.8990  125.4010   65.8410 S   0  0  0  0  0  0  0  0  0  0  0  0
  132.8910  124.9180   64.1600 C   0  0  0  0  0  0  0  0  0  0  0  0
  133.9940  124.9580   63.4100 N   0  0  0  0  0  0  0  0  0  0  0  0
  133.8550  124.5570   62.1240 C   0  0  0  0  0  0  0  0  0  0  0  0
  135.1220  124.6110   61.2890 C   0  0  0  0  0  0  0  0  0  0  0  0
  132.6510  124.1220   61.5730 C   0  0  0  0  0  0  0  0  0  0  0  0
  131.4970  124.0820   62.3640 C   0  0  0  0  0  0  0  0  0  0  0  0
  130.2240  123.6170   61.7650 C   0  0  0  0  0  0  0  0  0  0  0  0
  129.9700  122.2480   61.6310 C   0  0  0  0  0  0  0  0  0  0  0  0
  128.7730  121.8100   61.0700 C   0  0  0  0  0  0  0  0  0  0  0  0
  127.8320  122.7420   60.6390 C   0  0  0  0  0  0  0  0  0  0  0  0
  128.0780  124.1080   60.7650 C   0  0  0  0  0  0  0  0  0  0  0  0
  129.2740  124.5440   61.3260 C   0  0  0  0  0  0  0  0  0  0  0  0
  131.6010  124.4940   63.7200 C   0  0  0  0  0  0  0  0  0  0  0  0
  130.6430  124.5790   64.7900 C   0  0  0  0  0  0  0  0  0  0  0  0
  129.3260  124.2280   64.6230 N   0  0  0  0  0  0  0  0  0  0  0  0
  128.7630  127.0200   69.3850 C   0  0  0  0  0  0  0  0  0  0  0  0
  128.3700  127.5870   70.5950 C   0  0  0  0  0  0  0  0  0  0  0  0
  1  2  1  0
  2  3  1  0
  3  4  2  0
  3  5  1  0
  5  6  2  0
  6  7  1  0
  7  8  2  0
  8  9  1  0
  9 10  1  0
 10 11  2  0
 10 12  1  0
 12 13  1  0
 13 14  1  0
 14 15  2  0
 15 16  1  0
 16 17  1  0
 16 18  2  0
 18 19  1  0
 19 20  1  0
 20 21  2  0
 21 22  1  0
 22 23  2  0
 23 24  1  0
 24 25  2  0
 19 26  2  0
 26 27  1  0
 27 28  1  0
  8 29  1  0
 29 30  2  0
 30  5  1  0
 27 12  2  0
 26 14  1  0
 25 20  1  0
M  END
>  <Binding energies>  (64) 
[-7.75]

>  <Ligand effiencies>  (64) 
[-0.23484848484848486]

>  <Interactions>  (64) 
["V-A:ILE:369:CD1:3239, V-B:GLU:543:CD:9880, H-A:ARG:545:NH1:4927, H-A:ARG:545:NH2:4928, H-A:GLY:454:N:4050, V-A:GLY:453:CA:4044, V-A:ASP:366:CA:3210, V-A:ASP:366:CG:3213, H-A:TYR:484:OH:4348, V-B:GLU:543:CG:9879, V-A:GLU:543:CD:4908, V-A:ARG:545:CZ:4926, H-A:GLU:543:OE2:4910, V-A:HIS:456:CE1:4070, V-B:ALA:541:CB:9864, V-B:TYR:539:C:9839, H-B:GLU:543:OE1:9881, V-B:PRO:540:CA:9855, V-B:PRO:540:C:9853, V-A:TYR:484:CE2:4346, V-A:GLU:543:C:4902, V-A:TYR:484:CZ:4347, V-B:GLU:543:CB:9878, V-A:GLY:544:C:4912, V-A:GLU:543:CB:4906, V-B:HIS:456:CD2:9039, V-B:HIS:456:CE1:9041, V-A:ARG:545:CG:4922, V-A:ARG:545:CD:4923, H-A:LYS:547:NZ:4951, V-A:LYS:547:CE:4950"]

$$$$
8b_Ghoteimi_2023
     RDKit          3D

 34 38  0  0  0  0  0  0  0  0999 V2000
  130.8940  126.8660   74.0620 C   0  0  0  0  0  0  0  0  0  0  0  0
  130.2880  127.9660   73.3920 O   0  0  0  0  0  0  0  0  0  0  0  0
  129.9620  127.8430   72.0540 C   0  0  0  0  0  0  0  0  0  0  0  0
  130.9900  128.0620   71.1400 C   0  0  0  0  0  0  0  0  0  0  0  0
  130.7550  127.9600   69.7720 C   0  0  0  0  0  0  0  0  0  0  0  0
  129.4810  127.6360   69.2830 C   0  0  0  0  0  0  0  0  0  0  0  0
  129.2210  127.5270   67.8140 C   0  0  0  0  0  0  0  0  0  0  0  0
  128.5800  128.5460   67.1010 C   0  0  0  0  0  0  0  0  0  0  0  0
  128.3500  128.4200   65.7280 C   0  0  0  0  0  0  0  0  0  0  0  0
  127.6590  129.5130   65.0050 C   0  0  0  0  0  0  0  0  0  0  0  0
  126.2830  129.4470   64.7800 C   0  0  0  0  0  0  0  0  0  0  0  0
  125.6330  130.4800   64.1090 C   0  0  0  0  0  0  0  0  0  0  0  0
  126.3470  131.5890   63.6530 C   0  0  0  0  0  0  0  0  0  0  0  0
  125.6200  132.5650   62.9990 O   0  0  0  0  0  0  0  0  0  0  0  0
  124.2080  132.4210   62.8870 C   0  0  0  0  0  0  0  0  0  0  0  0
  127.7310  131.6510   63.8770 C   0  0  0  0  0  0  0  0  0  0  0  0
  128.3790  130.6180   64.5490 C   0  0  0  0  0  0  0  0  0  0  0  0
  128.7930  127.2350   65.0820 C   0  0  0  0  0  0  0  0  0  0  0  0
  128.7290  126.7860   63.7150 C   0  0  0  0  0  0  0  0  0  0  0  0
  128.1580  127.5390   62.7210 N   0  0  0  0  0  0  0  0  0  0  0  0
  129.3020  125.5220   63.5050 C   0  0  0  0  0  0  0  0  0  0  0  0
  129.4150  124.7690   62.2540 C   0  0  0  0  0  0  0  0  0  0  0  0
  130.5170  124.5730   61.7360 O   0  0  0  0  0  0  0  0  0  0  0  0
  128.2430  124.3260   61.7340 N   0  0  0  0  0  0  0  0  0  0  0  0
  128.0590  123.5900   60.5710 C   0  0  0  0  0  0  0  0  0  0  0  0
  127.4060  124.0940   59.4470 C   0  0  0  0  0  0  0  0  0  0  0  0
  127.4300  123.0690   58.5300 C   0  0  0  0  0  0  0  0  0  0  0  0
  128.0670  122.0040   59.0710 O   0  0  0  0  0  0  0  0  0  0  0  0
  128.4630  122.3470   60.3650 N   0  0  0  0  0  0  0  0  0  0  0  0
  129.9420  124.8550   65.0080 S   0  0  0  0  0  0  0  0  0  0  0  0
  129.4380  126.2690   65.9050 C   0  0  0  0  0  0  0  0  0  0  0  0
  129.6560  126.3860   67.2150 N   0  0  0  0  0  0  0  0  0  0  0  0
  128.4520  127.4140   70.2080 C   0  0  0  0  0  0  0  0  0  0  0  0
  128.6850  127.5160   71.5770 C   0  0  0  0  0  0  0  0  0  0  0  0
  1  2  1  0
  2  3  1  0
  3  4  2  0
  4  5  1  0
  5  6  2  0
  6  7  1  0
  7  8  2  0
  8  9  1  0
  9 10  1  0
 10 11  2  0
 11 12  1  0
 12 13  2  0
 13 14  1  0
 14 15  1  0
 13 16  1  0
 16 17  2  0
  9 18  2  0
 18 19  1  0
 19 20  1  0
 19 21  2  0
 21 22  1  0
 22 23  2  0
 22 24  1  0
 24 25  1  0
 25 26  1  0
 26 27  2  0
 27 28  1  0
 28 29  1  0
 21 30  1  0
 30 31  1  0
 31 32  2  0
  6 33  1  0
 33 34  2  0
 34  3  1  0
 32  7  1  0
 17 10  1  0
 31 18  1  0
 29 25  2  0
M  END
>  <Binding energies>  (65) 
[-7.46]

>  <Ligand effiencies>  (65) 
[-0.20162162162162162]

>  <Interactions>  (65) 
["V-B:GLU:543:CD:9880, H-A:GLU:543:OE1:4909, V-B:GLU:543:CG:9879, V-A:GLU:543:CD:4908, V-A:HIS:456:CE1:4070, H-B:GLU:543:OE2:9882, V-B:TYR:539:C:9839, H-B:GLU:543:OE1:9881, V-B:PRO:540:CA:9855, V-B:PRO:540:CB:9857, V-B:PRO:540:N:9856, V-A:GLU:543:C:4902, V-A:HIS:456:CD2:4068, V-B:GLU:543:CB:9878, V-A:GLY:544:C:4912, V-A:GLU:543:CB:4906, V-B:HIS:456:CD2:9039, V-B:HIS:456:CE1:9041, V-A:GLU:543:CG:4907, H-B:TYR:484:OH:9319, V-B:GLY:454:CA:9020, H-A:LYS:547:NZ:4951, V-A:GLY:544:CA:4914"]

$$$$
9d_Ghoteimi_2023
     RDKit          3D

 38 43  0  0  0  0  0  0  0  0999 V2000
  124.9050  130.3910   62.1030 C   0  0  0  0  0  0  0  0  0  0  0  0
  126.2910  130.6480   61.9280 O   0  0  0  0  0  0  0  0  0  0  0  0
  127.1610  129.6340   61.6840 C   0  0  0  0  0  0  0  0  0  0  0  0
  127.4850  129.2610   60.5530 O   0  0  0  0  0  0  0  0  0  0  0  0
  127.6840  129.0110   62.9200 C   0  0  0  0  0  0  0  0  0  0  0  0
  127.4240  129.7980   64.4760 S   0  0  0  0  0  0  0  0  0  0  0  0
  128.2510  128.5050   65.3120 C   0  0  0  0  0  0  0  0  0  0  0  0
  128.3730  128.4980   66.6390 N   0  0  0  0  0  0  0  0  0  0  0  0
  129.0180  127.4390   67.1940 C   0  0  0  0  0  0  0  0  0  0  0  0
  129.1200  127.4390   68.6860 C   0  0  0  0  0  0  0  0  0  0  0  0
  128.0920  126.9040   69.4680 C   0  0  0  0  0  0  0  0  0  0  0  0
  128.1760  126.9020   70.8570 C   0  0  0  0  0  0  0  0  0  0  0  0
  129.3000  127.4240   71.5170 C   0  0  0  0  0  0  0  0  0  0  0  0
  129.3910  127.4450   72.9130 N   0  0  0  0  0  0  0  0  0  0  0  0
  130.6140  126.9980   73.6100 C   0  0  0  0  0  0  0  0  0  0  0  0
  130.4190  126.7600   75.1210 C   0  0  0  0  0  0  0  0  0  0  0  0
  129.8830  127.9220   75.7310 O   0  0  0  0  0  0  0  0  0  0  0  0
  128.6200  128.2610   75.1810 C   0  0  0  0  0  0  0  0  0  0  0  0
  128.7570  128.5440   73.6700 C   0  0  0  0  0  0  0  0  0  0  0  0
  130.3210  127.9740   70.7280 C   0  0  0  0  0  0  0  0  0  0  0  0
  130.2350  127.9790   69.3390 C   0  0  0  0  0  0  0  0  0  0  0  0
  129.5670  126.4120   66.4220 C   0  0  0  0  0  0  0  0  0  0  0  0
  129.4590  126.4250   65.0270 C   0  0  0  0  0  0  0  0  0  0  0  0
  130.0860  125.3220   64.2510 C   0  0  0  0  0  0  0  0  0  0  0  0
  131.4680  125.2810   64.0590 C   0  0  0  0  0  0  0  0  0  0  0  0
  132.0520  124.2360   63.3480 C   0  0  0  0  0  0  0  0  0  0  0  0
  131.2690  123.1950   62.8240 C   0  0  0  0  0  0  0  0  0  0  0  0
  131.8290  122.1400   62.1000 N   0  0  0  0  0  0  0  0  0  0  0  0
  133.2060  122.2740   61.5870 C   0  0  0  0  0  0  0  0  0  0  0  0
  133.8310  120.9280   61.1610 C   0  0  0  0  0  0  0  0  0  0  0  0
  132.9970  120.2840   60.2100 O   0  0  0  0  0  0  0  0  0  0  0  0
  131.7040  120.0220   60.7380 C   0  0  0  0  0  0  0  0  0  0  0  0
  131.0270  121.3470   61.1490 C   0  0  0  0  0  0  0  0  0  0  0  0
  129.8810  123.2470   63.0230 C   0  0  0  0  0  0  0  0  0  0  0  0
  129.2980  124.2930   63.7320 C   0  0  0  0  0  0  0  0  0  0  0  0
  128.7500  127.5040   64.4280 C   0  0  0  0  0  0  0  0  0  0  0  0
  128.3930  127.8120   63.0680 C   0  0  0  0  0  0  0  0  0  0  0  0
  128.6990  126.9920   62.0130 N   0  0  0  0  0  0  0  0  0  0  0  0
  1  2  1  0
  2  3  1  0
  3  4  2  0
  3  5  1  0
  5  6  1  0
  6  7  1  0
  7  8  2  0
  8  9  1  0
  9 10  1  0
 10 11  2  0
 11 12  1  0
 12 13  2  0
 13 14  1  0
 14 15  1  0
 15 16  1  0
 16 17  1  0
 17 18  1  0
 18 19  1  0
 13 20  1  0
 20 21  2  0
  9 22  2  0
 22 23  1  0
 23 24  1  0
 24 25  2  0
 25 26  1  0
 26 27  2  0
 27 28  1  0
 28 29  1  0
 29 30  1  0
 30 31  1  0
 31 32  1  0
 32 33  1  0
 27 34  1  0
 34 35  2  0
 23 36  2  0
 36 37  1  0
 37 38  1  0
 37  5  2  0
 36  7  1  0
 21 10  1  0
 35 24  1  0
 19 14  1  0
 33 28  1  0
M  END
>  <Binding energies>  (66) 
[-7.5]

>  <Ligand effiencies>  (66) 
[-0.1875]

>  <Interactions>  (66) 
["V-A:ILE:369:CG2:3237, V-B:GLU:543:CD:9880, V-B:GLU:543:CG:9879, V-A:GLU:543:CD:4908, V-A:LEU:475:CD2:4259, V-A:HIS:456:CE1:4070, H-B:GLU:543:OE1:9881, V-B:TYR:539:CE2:9848, V-B:TYR:539:CD2:9846, V-A:GLU:543:C:4902, V-B:GLU:543:C:9874, V-A:HIS:456:CD2:4068, V-B:GLU:543:CB:9878, V-A:GLY:544:C:4912, V-A:SER:385:CB:3409, V-A:GLU:543:CB:4906, V-B:HIS:456:CD2:9039, V-B:HIS:456:CE1:9041, V-A:GLU:543:CG:4907, V-A:SER:385:C:3405, V-A:SER:385:CA:3407, H-A:SER:385:OG:3410, H-A:LYS:547:NZ:4951, H-B:LYS:547:NZ:9923"]

$$$$
RR10_Rahimova_2017
     RDKit          3D

 34 38  0  0  0  0  0  0  0  0999 V2000
  133.9120  131.7400   60.7170 C   0  0  0  0  0  0  0  0  0  0  0  0
  132.7250  131.5030   59.7660 C   0  0  1  0  0  0  0  0  0  0  0  0
  133.1620  130.7870   58.4670 C   0  0  0  0  0  0  0  0  0  0  0  0
  131.9620  130.5910   57.5130 C   0  0  0  0  0  0  0  0  0  0  0  0
  130.8140  129.7870   58.1760 C   0  0  1  0  0  0  0  0  0  0  0  0
  131.2180  128.3930   58.4030 N   0  0  0  0  0  0  0  0  0  0  0  0
  130.8910  127.6510   59.4770 C   0  0  0  0  0  0  0  0  0  0  0  0
  130.1820  128.0720   60.3940 O   0  0  0  0  0  0  0  0  0  0  0  0
  131.4630  126.2190   59.5310 C   0  0  1  0  0  0  0  0  0  0  0  0
  132.5130  126.0410   58.4040 C   0  0  0  0  0  0  0  0  0  0  0  0
  133.1550  124.6370   58.5130 C   0  0  0  0  0  0  0  0  0  0  0  0
  133.6980  124.3410   59.9300 C   0  0  0  0  0  0  0  0  0  0  0  0
  132.6510  124.5970   60.9560 N   0  0  0  0  0  0  0  0  0  0  0  0
  133.0560  124.0120   62.5790 S   0  0  0  0  0  0  0  0  0  0  0  0
  134.3290  124.6240   62.9800 O   0  0  0  0  0  0  0  0  0  0  0  0
  132.9050  122.5510   62.5830 O   0  0  0  0  0  0  0  0  0  0  0  0
  131.7940  124.6990   63.6510 C   0  0  0  0  0  0  0  0  0  0  0  0
  130.5090  124.9160   63.1430 C   0  0  0  0  0  0  0  0  0  0  0  0
  129.4810  125.4510   63.9260 C   0  0  0  0  0  0  0  0  0  0  0  0
  129.8010  125.7590   65.2500 C   0  0  0  0  0  0  0  0  0  0  0  0
  129.0930  126.2890   66.3030 N   0  0  0  0  0  0  0  0  0  0  0  0
  129.9410  126.3700   67.3870 C   0  0  0  0  0  0  0  0  0  0  0  0
  129.5280  126.9110   68.7260 C   0  0  0  0  0  0  0  0  0  0  0  0
  130.4270  127.6610   69.4970 C   0  0  0  0  0  0  0  0  0  0  0  0
  130.0450  128.1660   70.7360 C   0  0  0  0  0  0  0  0  0  0  0  0
  128.7600  127.9220   71.2140 C   0  0  0  0  0  0  0  0  0  0  0  0
  127.8550  127.1780   70.4620 C   0  0  0  0  0  0  0  0  0  0  0  0
  128.2390  126.6740   69.2220 C   0  0  0  0  0  0  0  0  0  0  0  0
  131.1450  125.9230   67.1060 N   0  0  0  0  0  0  0  0  0  0  0  0
  131.0910  125.5410   65.7910 C   0  0  0  0  0  0  0  0  0  0  0  0
  132.1010  125.0000   64.9830 C   0  0  0  0  0  0  0  0  0  0  0  0
  132.1090  125.9790   60.9180 C   0  0  0  0  0  0  0  0  0  0  0  0
  130.3980  130.5070   59.4870 C   0  0  0  0  0  0  0  0  0  0  0  0
  131.5930  130.6980   60.4470 C   0  0  0  0  0  0  0  0  0  0  0  0
  2  1  1  1
  2  3  1  0
  3  4  1  0
  4  5  1  0
  5  6  1  1
  6  7  1  0
  7  8  2  0
  9  7  1  1
  9 10  1  0
 10 11  1  0
 11 12  1  0
 12 13  1  0
 13 14  1  0
 14 15  2  0
 14 16  2  0
 14 17  1  0
 17 18  2  0
 18 19  1  0
 19 20  2  0
 20 21  1  0
 21 22  1  0
 22 23  1  0
 23 24  2  0
 24 25  1  0
 25 26  2  0
 26 27  1  0
 27 28  2  0
 22 29  2  0
 29 30  1  0
 30 31  2  0
 13 32  1  0
  5 33  1  0
 33 34  1  0
 34  2  1  0
 32  9  1  0
 31 17  1  0
 30 20  1  0
 28 23  1  0
M  END
>  <Binding energies>  (67) 
[-10.13]

>  <Ligand effiencies>  (67) 
[-0.2813888888888889]

>  <Interactions>  (67) 
["V-A:ILE:369:CG2:3237, V-A:ILE:369:CD1:3239, V-A:ASP:366:CB:3212, V-B:GLU:543:CD:9880, H-A:ARG:545:NH1:4927, H-A:ARG:545:NH2:4928, H-A:GLY:454:N:4050, V-A:ASP:366:CA:3210, V-A:ASP:366:CG:3213, H-A:TYR:484:OH:4348, V-B:GLU:543:CG:9879, V-A:GLU:543:CD:4908, V-A:ARG:545:CZ:4926, V-A:HIS:456:CE1:4070, H-B:GLU:543:OE2:9882, H-B:GLU:543:OE1:9881, V-B:TYR:539:CZ:9849, V-B:TYR:539:CE2:9848, V-A:GLU:543:C:4902, V-B:GLU:543:C:9874, V-B:GLU:543:CA:9876, V-B:GLU:543:CB:9878, V-A:GLU:543:CB:4906, V-B:HIS:456:CD2:9039, V-B:HIS:456:CE1:9041, V-A:PRO:540:CA:4883, V-A:PRO:540:CB:4885, V-A:LEU:363:CD1:3189, V-A:TYR:531:CZ:4794, H-A:TYR:531:OH:4795, V-A:LEU:363:CB:3187, V-A:LEU:363:CA:3185, V-A:TYR:531:CE2:4793, H-A:ASP:366:OD2:3215, V-A:ASN:362:C:3172, V-A:ASN:362:CB:3176"]

$$$$
RR12_Rahimova_2017
     RDKit          3D

 26 28  0  0  0  0  0  0  0  0999 V2000
  124.5980  123.2890   62.0620 C   0  0  0  0  0  0  0  0  0  0  0  0
  124.6030  123.8780   60.6450 C   0  0  0  0  0  0  0  0  0  0  0  0
  125.9230  124.5960   60.3080 C   0  0  0  0  0  0  0  0  0  0  0  0
  126.9900  123.6300   60.0610 N   0  0  0  0  0  0  0  0  0  0  0  0
  127.3830  123.0990   58.8420 C   0  0  0  0  0  0  0  0  0  0  0  0
  126.7050  123.4180   57.5210 C   0  0  0  0  0  0  0  0  0  0  0  0
  127.7090  123.5430   56.3610 C   0  0  0  0  0  0  0  0  0  0  0  0
  128.4360  124.9010   56.3460 C   0  0  0  0  0  0  0  0  0  0  0  0
  129.4740  125.0270   57.3680 N   0  0  0  0  0  0  0  0  0  0  0  0
  129.4660  125.9230   58.3710 C   0  0  0  0  0  0  0  0  0  0  0  0
  128.5650  126.7490   58.5310 O   0  0  0  0  0  0  0  0  0  0  0  0
  130.6620  125.8590   59.3290 C   0  0  0  0  0  0  0  0  0  0  0  0
  131.2990  124.5860   59.2110 O   0  0  0  0  0  0  0  0  0  0  0  0
  132.1200  124.1420   60.2310 C   0  0  0  0  0  0  0  0  0  0  0  0
  132.7960  122.9410   60.0050 C   0  0  0  0  0  0  0  0  0  0  0  0
  133.6470  122.4160   60.9740 C   0  0  0  0  0  0  0  0  0  0  0  0
  133.8260  123.0950   62.1750 C   0  0  0  0  0  0  0  0  0  0  0  0
  133.1580  124.2930   62.4180 C   0  0  0  0  0  0  0  0  0  0  0  0
  132.3050  124.8170   61.4490 C   0  0  0  0  0  0  0  0  0  0  0  0
  128.3940  122.2720   58.9380 N   0  0  0  0  0  0  0  0  0  0  0  0
  128.7160  122.2620   60.2660 C   0  0  0  0  0  0  0  0  0  0  0  0
  129.7350  121.5550   60.9230 C   0  0  0  0  0  0  0  0  0  0  0  0
  129.8650  121.7200   62.3020 C   0  0  0  0  0  0  0  0  0  0  0  0
  129.0120  122.5620   63.0150 C   0  0  0  0  0  0  0  0  0  0  0  0
  127.9880  123.2780   62.3910 C   0  0  0  0  0  0  0  0  0  0  0  0
  127.8560  123.1110   61.0070 C   0  0  0  0  0  0  0  0  0  0  0  0
  1  2  1  0
  2  3  1  0
  3  4  1  0
  4  5  1  0
  5  6  1  0
  6  7  1  0
  7  8  1  0
  8  9  1  0
  9 10  1  0
 10 11  2  0
 10 12  1  0
 12 13  1  0
 13 14  1  0
 14 15  2  0
 15 16  1  0
 16 17  2  0
 17 18  1  0
 18 19  2  0
  5 20  2  0
 20 21  1  0
 21 22  2  0
 22 23  1  0
 23 24  2  0
 24 25  1  0
 25 26  2  0
 26  4  1  0
 19 14  1  0
 26 21  1  0
M  END
>  <Binding energies>  (68) 
[-5.79]

>  <Ligand effiencies>  (68) 
[-0.21444444444444444]

>  <Interactions>  (68) 
["V-A:ILE:369:CG2:3237, V-A:ILE:369:CD1:3239, V-B:GLU:543:CD:9880, V-B:GLU:543:CG:9879, V-A:LEU:475:CD2:4259, V-B:ALA:541:CB:9864, V-A:GLY:454:CA:4049, V-B:TYR:539:C:9839, V-B:PRO:540:CA:9855, V-B:PRO:540:CB:9857, V-B:PRO:540:N:9856, V-B:TYR:539:CZ:9849, V-B:TYR:539:CE2:9848, V-B:TYR:539:CD1:9845, V-B:TYR:539:CE1:9847, V-B:TYR:539:CD2:9846, V-B:ASN:362:CB:8147, H-B:TYR:539:OH:9850"]

$$$$
RR13_Rahimova_2017
     RDKit          3D

 48 54  0  0  0  0  0  0  0  0999 V2000
  129.2470  121.7870   62.0230 Cl  0  0  0  0  0  0  0  0  0  0  0  0
  130.9160  121.8760   61.5740 C   0  0  0  0  0  0  0  0  0  0  0  0
  131.4150  120.8870   60.7240 C   0  0  0  0  0  0  0  0  0  0  0  0
  132.7540  120.8910   60.3420 C   0  0  0  0  0  0  0  0  0  0  0  0
  133.6060  121.8870   60.8130 C   0  0  0  0  0  0  0  0  0  0  0  0
  133.1160  122.8780   61.6610 C   0  0  0  0  0  0  0  0  0  0  0  0
  131.7660  122.8970   62.0470 C   0  0  0  0  0  0  0  0  0  0  0  0
  131.2530  123.9920   63.0080 C   0  0  1  0  0  0  0  0  0  0  0  0
  132.3670  124.4580   63.9580 C   0  0  0  0  0  0  0  0  0  0  0  0
  133.6350  124.6290   63.6570 N   0  0  0  0  0  0  0  0  0  0  0  0
  134.2570  125.0290   64.8360 N   0  0  0  0  0  0  0  0  0  0  0  0
  133.3360  125.0780   65.8640 N   0  0  0  0  0  0  0  0  0  0  0  0
  132.1830  124.6980   65.3030 N   0  0  0  0  0  0  0  0  0  0  0  0
  130.9550  124.6650   66.0900 C   0  0  0  0  0  0  0  0  0  0  0  0
  130.0070  125.7950   65.6460 C   0  0  0  0  0  0  0  0  0  0  0  0
  129.4380  126.5650   66.8280 C   0  0  0  0  0  0  0  0  0  0  0  0
  128.7180  127.7430   66.6120 C   0  0  0  0  0  0  0  0  0  0  0  0
  128.2040  128.4510   67.6950 C   0  0  0  0  0  0  0  0  0  0  0  0
  128.4110  127.9780   68.9900 C   0  0  0  0  0  0  0  0  0  0  0  0
  129.1280  126.8050   69.2110 C   0  0  0  0  0  0  0  0  0  0  0  0
  129.6430  126.0960   68.1280 C   0  0  0  0  0  0  0  0  0  0  0  0
  130.5910  125.1230   62.3160 N   0  0  0  0  0  0  0  0  0  0  0  0
  131.3860  126.3570   62.4640 C   0  0  0  0  0  0  0  0  0  0  0  0
  130.7730  127.5080   61.6340 C   0  0  0  0  0  0  0  0  0  0  0  0
  129.4070  127.8090   62.0940 N   0  0  0  0  0  0  0  0  0  0  0  0
  128.8100  128.9620   61.3810 C   0  0  1  0  0  0  0  0  0  0  0  0
  127.3800  129.3490   61.8190 C   0  0  0  0  0  0  0  0  0  0  0  0
  127.1590  129.5310   63.1910 C   0  0  0  0  0  0  0  0  0  0  0  0
  125.9050  129.8980   63.6770 C   0  0  0  0  0  0  0  0  0  0  0  0
  124.8450  130.0830   62.7930 C   0  0  0  0  0  0  0  0  0  0  0  0
  125.0400  129.8910   61.4280 C   0  0  0  0  0  0  0  0  0  0  0  0
  126.2920  129.5200   60.9320 C   0  0  0  0  0  0  0  0  0  0  0  0
  126.4150  129.2380   59.2270 Cl  0  0  0  0  0  0  0  0  0  0  0  0
  129.7110  130.1990   61.3760 C   0  0  0  0  0  0  0  0  0  0  0  0
  129.6470  131.1920   62.2330 N   0  0  0  0  0  0  0  0  0  0  0  0
  130.6530  132.0790   61.8670 N   0  0  0  0  0  0  0  0  0  0  0  0
  131.3400  131.5910   60.7740 N   0  0  0  0  0  0  0  0  0  0  0  0
  130.7540  130.4180   60.5020 N   0  0  0  0  0  0  0  0  0  0  0  0
  131.2150  129.6170   59.3730 C   0  0  0  0  0  0  0  0  0  0  0  0
  130.0930  129.4620   58.3300 C   0  0  0  0  0  0  0  0  0  0  0  0
  129.8060  130.7630   57.5980 C   0  0  0  0  0  0  0  0  0  0  0  0
  128.4900  131.1160   57.2900 C   0  0  0  0  0  0  0  0  0  0  0  0
  128.2270  132.3110   56.6260 C   0  0  0  0  0  0  0  0  0  0  0  0
  129.2830  133.1500   56.2700 C   0  0  0  0  0  0  0  0  0  0  0  0
  130.5980  132.8030   56.5750 C   0  0  0  0  0  0  0  0  0  0  0  0
  130.8610  131.6090   57.2400 C   0  0  0  0  0  0  0  0  0  0  0  0
  128.6150  126.5760   61.9390 C   0  0  0  0  0  0  0  0  0  0  0  0
  129.2270  125.4310   62.7790 C   0  0  0  0  0  0  0  0  0  0  0  0
  1  2  1  0
  2  3  2  0
  3  4  1  0
  4  5  2  0
  5  6  1  0
  6  7  2  0
  7  8  1  0
  8  9  1  0
  9 10  2  0
 10 11  1  0
 11 12  2  0
 12 13  1  0
 13 14  1  0
 14 15  1  0
 15 16  1  0
 16 17  2  0
 17 18  1  0
 18 19  2  0
 19 20  1  0
 20 21  2  0
  8 22  1  6
 22 23  1  0
 23 24  1  0
 24 25  1  0
 26 25  1  1
 26 27  1  0
 27 28  2  0
 28 29  1  0
 29 30  2  0
 30 31  1  0
 31 32  2  0
 32 33  1  0
 26 34  1  0
 34 35  2  0
 35 36  1  0
 36 37  2  0
 37 38  1  0
 38 39  1  0
 39 40  1  0
 40 41  1  0
 41 42  2  0
 42 43  1  0
 43 44  2  0
 44 45  1  0
 45 46  2  0
 25 47  1  0
 47 48  1  0
  7  2  1  0
 13  9  1  0
 21 16  1  0
 48 22  1  0
 32 27  1  0
 38 34  1  0
 46 41  1  0
M  END
>  <Binding energies>  (69) 
[-11.69]

>  <Ligand effiencies>  (69) 
[-0.24354166666666666]

>  <Interactions>  (69) 
["V-A:ILE:369:CG2:3237, V-A:ILE:369:CD1:3239, V-B:GLU:543:CD:9880, H-A:ARG:545:NH1:4927, H-A:ARG:545:NH2:4928, H-A:GLY:454:N:4050, V-A:ASP:366:CG:3213, H-A:TYR:484:OH:4348, V-B:GLU:543:CG:9879, H-A:ARG:545:NE:4924, V-A:GLU:543:CD:4908, V-A:LEU:475:CD2:4259, V-A:HIS:456:CE1:4070, V-B:ALA:541:CB:9864, V-B:ASP:366:CG:8184, V-B:TYR:539:CE2:9848, V-A:MET:535:CE:4835, V-B:TYR:539:CD2:9846, V-A:TYR:484:CE2:4346, V-A:TYR:484:CZ:4347, V-B:GLU:543:CB:9878, V-A:GLU:543:CB:4906, V-B:HIS:456:CE1:9041, V-B:ARG:545:CZ:9898, V-A:GLU:543:CG:4907, V-A:TYR:539:CE1:4875, H-A:ALA:541:N:4891, V-A:TYR:539:CZ:4877, V-A:TYR:539:CG:4872, V-A:TYR:539:CD1:4873, V-A:ILE:538:CB:4862, V-A:ILE:538:CA:4860, V-A:ILE:538:C:4858"]

$$$$
RR14_Rahimova_2017
     RDKit          3D

 39 43  0  0  0  0  0  0  0  0999 V2000
  130.9850  132.8730   56.4040 C   0  0  0  0  0  0  0  0  0  0  0  0
  130.1550  133.4360   57.4140 O   0  0  0  0  0  0  0  0  0  0  0  0
  129.8330  132.6740   58.5220 C   0  0  0  0  0  0  0  0  0  0  0  0
  130.8540  131.8860   59.0530 C   0  0  0  0  0  0  0  0  0  0  0  0
  130.6170  131.0670   60.1530 C   0  0  0  0  0  0  0  0  0  0  0  0
  129.3470  131.0260   60.7320 C   0  0  0  0  0  0  0  0  0  0  0  0
  129.0660  130.0820   61.8950 C   0  0  0  0  0  0  0  0  0  0  0  0
  128.6830  130.7770   63.1240 N   0  0  0  0  0  0  0  0  0  0  0  0
  128.7810  132.1080   63.2070 N   0  0  0  0  0  0  0  0  0  0  0  0
  128.3720  132.4110   64.4910 N   0  0  0  0  0  0  0  0  0  0  0  0
  128.0360  131.2450   65.1730 N   0  0  0  0  0  0  0  0  0  0  0  0
  128.2390  130.2650   64.3250 C   0  0  0  0  0  0  0  0  0  0  0  0
  128.0320  128.7870   64.6260 C   0  0  0  0  0  0  0  0  0  0  0  0
  128.7620  128.3500   65.8280 N   0  0  0  0  0  0  0  0  0  0  0  0
  128.2090  128.9440   67.0520 C   0  0  0  0  0  0  0  0  0  0  0  0
  128.2590  127.9950   68.2700 C   0  0  0  0  0  0  0  0  0  0  0  0
  129.3720  128.3430   69.2810 C   0  0  0  0  0  0  0  0  0  0  0  0
  129.0400  127.9700   70.6600 N   0  0  0  0  0  0  0  0  0  0  0  0
  130.2580  127.6190   71.4000 C   0  0  0  0  0  0  0  0  0  0  0  0
  129.9390  127.1710   72.8430 C   0  0  0  0  0  0  0  0  0  0  0  0
  128.9920  126.1080   72.8260 O   0  0  0  0  0  0  0  0  0  0  0  0
  127.7680  126.4860   72.2080 C   0  0  0  0  0  0  0  0  0  0  0  0
  128.0210  126.9120   70.7450 C   0  0  0  0  0  0  0  0  0  0  0  0
  128.7540  126.8830   65.9180 C   0  0  0  0  0  0  0  0  0  0  0  0
  129.8020  126.1540   65.0810 C   0  0  0  0  0  0  0  0  0  0  0  0
  130.0860  126.5500   63.8160 C   0  0  0  0  0  0  0  0  0  0  0  0
  131.0670  125.8380   62.9700 C   0  0  0  0  0  0  0  0  0  0  0  0
  131.4000  126.2330   61.6640 C   0  0  0  0  0  0  0  0  0  0  0  0
  130.7600  127.4520   61.0110 C   0  0  0  0  0  0  0  0  0  0  0  0
  132.3430  125.4910   60.9490 C   0  0  0  0  0  0  0  0  0  0  0  0
  132.9490  124.3720   61.5190 C   0  0  0  0  0  0  0  0  0  0  0  0
  132.6260  123.9730   62.8190 C   0  0  0  0  0  0  0  0  0  0  0  0
  133.3080  122.7480   63.4150 C   0  0  0  0  0  0  0  0  0  0  0  0
  131.6800  124.7110   63.5460 C   0  0  0  0  0  0  0  0  0  0  0  0
  131.3200  124.3440   64.8600 N   0  0  0  0  0  0  0  0  0  0  0  0
  130.4280  124.9660   65.6710 C   0  0  0  0  0  0  0  0  0  0  0  0
  130.1970  124.5270   66.7970 O   0  0  0  0  0  0  0  0  0  0  0  0
  128.3270  131.8340   60.2260 C   0  0  0  0  0  0  0  0  0  0  0  0
  128.5650  132.6510   59.1250 C   0  0  0  0  0  0  0  0  0  0  0  0
  1  2  1  0
  2  3  1  0
  3  4  2  0
  4  5  1  0
  5  6  2  0
  6  7  1  0
  7  8  1  0
  8  9  1  0
  9 10  2  0
 10 11  1  0
 11 12  2  0
 12 13  1  0
 13 14  1  0
 14 15  1  0
 15 16  1  0
 16 17  1  0
 17 18  1  0
 18 19  1  0
 19 20  1  0
 20 21  1  0
 21 22  1  0
 22 23  1  0
 14 24  1  0
 24 25  1  0
 25 26  2  0
 26 27  1  0
 27 28  2  0
 28 29  1  0
 28 30  1  0
 30 31  2  0
 31 32  1  0
 32 33  1  0
 32 34  2  0
 34 35  1  0
 35 36  1  0
 36 37  2  0
  6 38  1  0
 38 39  2  0
 39  3  1  0
 12  8  1  0
 23 18  1  0
 36 25  1  0
 34 27  1  0
M  END
>  <Binding energies>  (70) 
[-10.13]

>  <Ligand effiencies>  (70) 
[-0.25325000000000003]

>  <Interactions>  (70) 
["V-B:GLU:543:CD:9880, V-A:ASP:366:CG:3213, H-A:TYR:484:OH:4348, V-B:GLU:543:CG:9879, V-A:GLU:543:CD:4908, V-A:LEU:475:CD2:4259, V-A:HIS:456:CE1:4070, V-A:GLY:454:CA:4049, V-A:GLU:543:C:4902, V-B:GLU:543:C:9874, V-A:HIS:456:CD2:4068, V-B:GLU:543:CB:9878, V-A:GLU:543:CB:4906, V-B:HIS:456:CE1:9041, V-B:GLY:544:C:9884, V-B:GLY:544:CA:9886, V-A:GLU:543:CG:4907, H-B:TYR:484:OH:9319, V-B:LYS:547:CE:9922, V-A:PRO:540:CA:4883, V-A:PRO:540:CB:4885, V-A:PRO:540:N:4884, V-A:TYR:539:CE1:4875, V-A:TYR:539:CD1:4873, H-A:TYR:539:N:4870, V-A:TYR:539:C:4867, H-B:LYS:547:NZ:9923, V-A:ILE:538:CB:4862, V-A:ILE:538:CA:4860, V-A:ILE:538:CG2:4863"]

$$$$
RR15_Rahimova_2017
     RDKit          3D

 45 49  0  0  0  0  0  0  0  0999 V2000
  131.6450  126.8550   73.7060 C   0  0  0  0  0  0  0  0  0  0  0  0
  130.2970  126.8670   73.2500 O   0  0  0  0  0  0  0  0  0  0  0  0
  130.0240  127.2170   71.9390 C   0  0  0  0  0  0  0  0  0  0  0  0
  131.0000  127.6610   71.0340 C   0  0  0  0  0  0  0  0  0  0  0  0
  130.6570  127.9990   69.7270 C   0  0  0  0  0  0  0  0  0  0  0  0
  129.3320  127.9060   69.2870 C   0  0  0  0  0  0  0  0  0  0  0  0
  128.9610  128.2780   67.8780 C   0  0  0  0  0  0  0  0  0  0  0  0
  128.5430  129.4900   67.5390 N   0  0  0  0  0  0  0  0  0  0  0  0
  128.2950  129.4420   66.1830 N   0  0  0  0  0  0  0  0  0  0  0  0
  128.6350  128.1980   65.8440 N   0  0  0  0  0  0  0  0  0  0  0  0
  128.3750  127.6590   64.5100 C   0  0  0  0  0  0  0  0  0  0  0  0
  129.4090  126.6150   64.0190 C   0  0  0  0  0  0  0  0  0  0  0  0
  129.8940  125.8410   64.8480 O   0  0  0  0  0  0  0  0  0  0  0  0
  129.7330  126.5550   62.6910 N   0  0  0  0  0  0  0  0  0  0  0  0
  128.7150  126.2470   61.6660 C   0  0  0  0  0  0  0  0  0  0  0  0
  128.7530  124.7820   61.1790 C   0  0  0  0  0  0  0  0  0  0  0  0
  127.3820  124.2030   60.7570 C   0  0  0  0  0  0  0  0  0  0  0  0
  127.2900  123.8870   59.3280 N   0  0  0  0  0  0  0  0  0  0  0  0
  128.1030  122.7290   58.9280 C   0  0  0  0  0  0  0  0  0  0  0  0
  127.9040  122.3880   57.4350 C   0  0  0  0  0  0  0  0  0  0  0  0
  126.5210  122.1980   57.1550 O   0  0  0  0  0  0  0  0  0  0  0  0
  125.7450  123.3550   57.4450 C   0  0  0  0  0  0  0  0  0  0  0  0
  125.8830  123.7210   58.9390 C   0  0  0  0  0  0  0  0  0  0  0  0
  131.0600  126.9770   62.1480 C   0  0  2  0  0  0  0  0  0  0  0  0
  130.9710  127.8870   60.8830 C   0  0  0  0  0  0  0  0  0  0  0  0
  130.8440  127.4010   59.7590 O   0  0  0  0  0  0  0  0  0  0  0  0
  131.0000  129.2110   61.1150 N   0  0  0  0  0  0  0  0  0  0  0  0
  130.8290  130.2490   60.1050 C   0  0  0  0  0  0  0  0  0  0  0  0
  131.4970  131.5660   60.5410 C   0  0  2  0  0  0  0  0  0  0  0  0
  133.0230  131.6260   60.3550 C   0  0  0  0  0  0  0  0  0  0  0  0
  133.5830  131.3790   61.7360 C   0  0  0  0  0  0  0  0  0  0  0  0
  132.5260  132.0330   62.6080 C   0  0  0  0  0  0  0  0  0  0  0  0
  131.3160  131.6540   61.9620 O   0  0  0  0  0  0  0  0  0  0  0  0
  132.0210  125.7950   62.0950 C   0  0  0  0  0  0  0  0  0  0  0  0
  132.4310  125.2240   63.3060 C   0  0  0  0  0  0  0  0  0  0  0  0
  133.3070  124.1430   63.3190 C   0  0  0  0  0  0  0  0  0  0  0  0
  133.7800  123.6220   62.1180 C   0  0  0  0  0  0  0  0  0  0  0  0
  134.6300  122.5710   62.1310 F   0  0  0  0  0  0  0  0  0  0  0  0
  133.3820  124.1750   60.9040 C   0  0  0  0  0  0  0  0  0  0  0  0
  132.5060  125.2580   60.8920 C   0  0  0  0  0  0  0  0  0  0  0  0
  129.0160  127.4280   66.8700 N   0  0  0  0  0  0  0  0  0  0  0  0
  128.3610  127.4600   70.1930 C   0  0  0  0  0  0  0  0  0  0  0  0
  128.6910  127.1120   71.5130 C   0  0  0  0  0  0  0  0  0  0  0  0
  127.7690  126.6630   72.4430 O   0  0  0  0  0  0  0  0  0  0  0  0
  126.9520  127.6030   73.1330 C   0  0  0  0  0  0  0  0  0  0  0  0
  1  2  1  0
  2  3  1  0
  3  4  2  0
  4  5  1  0
  5  6  2  0
  6  7  1  0
  7  8  1  0
  8  9  2  0
  9 10  1  0
 10 11  1  0
 11 12  1  0
 12 13  2  0
 12 14  1  0
 14 15  1  0
 15 16  1  0
 16 17  1  0
 17 18  1  0
 18 19  1  0
 19 20  1  0
 20 21  1  0
 21 22  1  0
 22 23  1  0
 24 14  1  6
 24 25  1  0
 25 26  2  0
 25 27  1  0
 27 28  1  0
 29 28  1  1
 29 30  1  0
 30 31  1  0
 31 32  1  0
 32 33  1  0
 24 34  1  0
 34 35  2  0
 35 36  1  0
 36 37  2  0
 37 38  1  0
 37 39  1  0
 39 40  2  0
 10 41  1  0
  6 42  1  0
 42 43  2  0
 43 44  1  0
 44 45  1  0
 43  3  1  0
 41  7  2  0
 23 18  1  0
 33 29  1  0
 40 34  1  0
M  END
>  <Binding energies>  (71) 
[-9.39]

>  <Ligand effiencies>  (71) 
[-0.2041304347826087]

>  <Interactions>  (71) 
["V-A:ILE:369:CG2:3237, V-A:ILE:369:CD1:3239, V-A:GLY:453:C:4042, V-B:GLU:543:CD:9880, V-A:ASP:366:CG:3213, H-A:GLU:543:OE1:4909, V-B:GLU:543:CG:9879, V-A:GLU:543:CD:4908, V-A:ARG:545:CZ:4926, V-A:HIS:456:CE1:4070, V-A:GLY:454:CA:4049, V-B:TYR:539:C:9839, V-B:PRO:540:CA:9855, V-B:PRO:540:CB:9857, V-B:PRO:540:N:9856, V-B:TYR:539:CZ:9849, V-B:TYR:539:CE2:9848, V-B:TYR:539:CD1:9845, V-B:TYR:539:CA:9841, H-B:TYR:539:N:9842, V-B:TYR:539:CE1:9847, V-B:TYR:539:CD2:9846, V-B:TYR:539:CG:9844, V-A:GLU:543:C:4902, V-A:HIS:456:CD2:4068, V-A:HIS:456:CG:4066, V-A:GLY:544:C:4912, V-A:GLU:543:CB:4906, V-B:HIS:456:CD2:9039, V-B:HIS:456:CE1:9041, V-B:GLY:544:C:9884, V-A:GLU:543:CG:4907, H-B:TYR:484:OH:9319, V-B:LYS:547:CE:9922, V-B:HIS:456:CG:9037, V-A:PRO:540:CA:4883, V-A:PRO:540:CB:4885, H-A:ALA:541:N:4891, V-A:LEU:363:CA:3185, V-A:PRO:540:C:4881, H-B:LYS:547:NZ:9923, H-A:ASP:366:OD2:3215, V-A:ALA:541:CA:4890, V-A:ASN:362:C:3172, V-A:ASN:362:CB:3176, V-A:ALA:541:C:4888"]

$$$$
RR17_Rahimova_2017
     RDKit          3D

 38 41  0  0  0  0  0  0  0  0999 V2000
  126.1150  122.7680   57.3590 C   0  0  0  0  0  0  0  0  0  0  0  0
  127.6170  122.6130   57.6140 C   0  0  0  0  0  0  0  0  0  0  0  0
  127.8850  122.9360   58.9760 O   0  0  0  0  0  0  0  0  0  0  0  0
  129.1360  123.4110   59.3250 C   0  0  0  0  0  0  0  0  0  0  0  0
  129.8700  122.6330   60.2190 C   0  0  0  0  0  0  0  0  0  0  0  0
  131.1380  123.0310   60.6310 C   0  0  0  0  0  0  0  0  0  0  0  0
  131.7010  124.2230   60.1540 C   0  0  0  0  0  0  0  0  0  0  0  0
  133.0720  124.6260   60.6140 C   0  0  0  0  0  0  0  0  0  0  0  0
  134.0670  124.5310   59.8900 O   0  0  0  0  0  0  0  0  0  0  0  0
  133.1980  125.1590   62.0590 C   0  0  0  0  0  0  0  0  0  0  0  0
  133.4760  123.8150   63.2670 S   0  0  0  0  0  0  0  0  0  0  0  0
  132.8590  124.5920   64.7340 C   0  0  0  0  0  0  0  0  0  0  0  0
  133.5950  125.1610   65.6610 N   0  0  0  0  0  0  0  0  0  0  0  0
  132.7400  125.6570   66.6380 N   0  0  0  0  0  0  0  0  0  0  0  0
  131.5190  125.3720   66.2620 C   0  0  0  0  0  0  0  0  0  0  0  0
  130.2670  125.7470   67.0410 C   0  0  0  0  0  0  0  0  0  0  0  0
  130.3640  127.0300   67.7330 N   0  0  0  0  0  0  0  0  0  0  0  0
  129.8620  127.2600   69.0270 C   0  0  0  0  0  0  0  0  0  0  0  0
  130.7150  127.8680   69.9480 C   0  0  0  0  0  0  0  0  0  0  0  0
  130.2830  128.1190   71.2470 C   0  0  0  0  0  0  0  0  0  0  0  0
  128.9890  127.7680   71.6400 C   0  0  0  0  0  0  0  0  0  0  0  0
  128.5330  128.0450   73.0720 C   0  0  0  0  0  0  0  0  0  0  0  0
  129.1480  127.2610   73.9590 F   0  0  0  0  0  0  0  0  0  0  0  0
  128.7820  129.3140   73.4020 F   0  0  0  0  0  0  0  0  0  0  0  0
  127.2200  127.8300   73.1620 F   0  0  0  0  0  0  0  0  0  0  0  0
  128.1290  127.1650   70.7150 C   0  0  0  0  0  0  0  0  0  0  0  0
  128.5610  126.9150   69.4160 C   0  0  0  0  0  0  0  0  0  0  0  0
  131.5230  124.6850   65.0660 N   0  0  0  0  0  0  0  0  0  0  0  0
  130.4170  124.2180   64.3390 C   0  0  0  0  0  0  0  0  0  0  0  0
  129.8320  125.0390   63.3750 C   0  0  0  0  0  0  0  0  0  0  0  0
  128.7330  124.5760   62.6560 C   0  0  0  0  0  0  0  0  0  0  0  0
  128.2170  123.2930   62.9000 C   0  0  0  0  0  0  0  0  0  0  0  0
  127.1330  122.7520   62.2360 O   0  0  0  0  0  0  0  0  0  0  0  0
  126.2880  123.6070   61.4730 C   0  0  0  0  0  0  0  0  0  0  0  0
  128.8150  122.4870   63.8710 C   0  0  0  0  0  0  0  0  0  0  0  0
  129.9140  122.9420   64.5920 C   0  0  0  0  0  0  0  0  0  0  0  0
  130.9620  125.0050   59.2540 C   0  0  0  0  0  0  0  0  0  0  0  0
  129.6940  124.6050   58.8430 C   0  0  0  0  0  0  0  0  0  0  0  0
  1  2  1  0
  2  3  1  0
  3  4  1  0
  4  5  2  0
  5  6  1  0
  6  7  2  0
  7  8  1  0
  8  9  2  0
  8 10  1  0
 10 11  1  0
 11 12  1  0
 12 13  2  0
 13 14  1  0
 14 15  2  0
 15 16  1  0
 16 17  1  0
 17 18  1  0
 18 19  2  0
 19 20  1  0
 20 21  2  0
 21 22  1  0
 22 23  1  0
 22 24  1  0
 22 25  1  0
 21 26  1  0
 26 27  2  0
 15 28  1  0
 28 29  1  0
 29 30  2  0
 30 31  1  0
 31 32  2  0
 32 33  1  0
 33 34  1  0
 32 35  1  0
 35 36  2  0
  7 37  1  0
 37 38  2  0
 38  4  1  0
 28 12  1  0
 36 29  1  0
 27 18  1  0
M  END
>  <Binding energies>  (72) 
[-8.42]

>  <Ligand effiencies>  (72) 
[-0.2158974358974359]

>  <Interactions>  (72) 
["V-B:GLU:543:CD:9880, H-A:ARG:545:NH2:4928, H-A:GLY:454:N:4050, V-A:ASP:366:CG:3213, H-A:GLU:543:OE1:4909, H-A:TYR:484:OH:4348, V-B:GLU:543:CG:9879, H-A:ARG:545:NE:4924, V-A:GLU:543:CD:4908, V-A:ARG:545:CZ:4926, H-A:GLU:543:OE2:4910, V-A:LEU:475:CD2:4259, V-A:HIS:456:CE1:4070, V-B:ALA:541:CB:9864, V-B:TYR:539:C:9839, H-B:ALA:541:N:9863, V-B:PRO:540:CD:9859, V-B:PRO:540:CA:9855, V-B:PRO:540:CB:9857, V-B:PRO:540:N:9856, V-B:TYR:539:CZ:9849, V-B:TYR:539:CE2:9848, V-B:TYR:539:CD1:9845, V-B:TYR:539:CE1:9847, V-B:TYR:539:CD2:9846, V-B:TYR:539:CG:9844, V-B:ALA:541:CA:9862, V-A:TYR:484:CE2:4346, V-A:GLU:543:C:4902, V-B:GLU:543:C:9874, V-A:TYR:484:CZ:4347, V-B:GLU:543:CB:9878, V-A:GLY:544:C:4912, V-A:GLU:543:CB:4906, V-B:HIS:456:CD2:9039, V-B:HIS:456:CE1:9041, V-B:LYS:547:CE:9922, V-B:HIS:456:CG:9037"]

$$$$
RR19_Rahimova_2017
     RDKit          3D

 46 51  0  0  0  0  0  0  0  0999 V2000
  131.9260  124.6210   58.3500 O   0  0  0  0  0  0  0  0  0  0  0  0
  131.1280  125.1530   59.1280 C   0  0  0  0  0  0  0  0  0  0  0  0
  131.1700  125.0840   60.4830 N   0  0  0  0  0  0  0  0  0  0  0  0
  132.1270  124.6530   61.3690 C   0  0  0  0  0  0  0  0  0  0  0  0
  133.7310  124.2740   60.9800 S   0  0  0  0  0  0  0  0  0  0  0  0
  131.5670  124.5830   62.6200 N   0  0  0  0  0  0  0  0  0  0  0  0
  132.0860  124.3590   63.8540 C   0  0  0  0  0  0  0  0  0  0  0  0
  133.2830  124.3400   64.1510 O   0  0  0  0  0  0  0  0  0  0  0  0
  131.0200  124.0860   64.9440 C   0  0  2  0  0  0  0  0  0  0  0  0
  130.1350  122.8310   64.6920 C   0  0  0  0  0  0  0  0  0  0  0  0
  129.5040  122.7500   63.3110 C   0  0  0  0  0  0  0  0  0  0  0  0
  128.3530  123.5040   62.9950 C   0  0  0  0  0  0  0  0  0  0  0  0
  127.8380  123.4780   61.7070 C   0  0  0  0  0  0  0  0  0  0  0  0
  128.4610  122.7270   60.7170 C   0  0  0  0  0  0  0  0  0  0  0  0
  129.6120  122.0040   61.0060 C   0  0  0  0  0  0  0  0  0  0  0  0
  130.1440  122.0180   62.2880 C   0  0  0  0  0  0  0  0  0  0  0  0
  130.1920  125.2950   65.2050 N   0  0  0  0  0  0  0  0  0  0  0  0
  129.9280  125.7130   66.4760 C   0  0  0  0  0  0  0  0  0  0  0  0
  130.2820  125.1760   67.5270 O   0  0  0  0  0  0  0  0  0  0  0  0
  129.1270  126.9530   66.3280 C   0  0  0  0  0  0  0  0  0  0  0  0
  128.5750  127.8050   67.2850 C   0  0  0  0  0  0  0  0  0  0  0  0
  127.8600  128.9270   66.8500 C   0  0  0  0  0  0  0  0  0  0  0  0
  127.7100  129.1820   65.4800 C   0  0  0  0  0  0  0  0  0  0  0  0
  128.2730  128.3150   64.5360 C   0  0  0  0  0  0  0  0  0  0  0  0
  128.9800  127.2010   64.9900 C   0  0  0  0  0  0  0  0  0  0  0  0
  129.6840  126.1270   64.2470 C   0  0  0  0  0  0  0  0  0  0  0  0
  129.7920  126.0170   63.0250 O   0  0  0  0  0  0  0  0  0  0  0  0
  129.9390  125.9740   58.5620 C   0  0  2  0  0  0  0  0  0  0  0  0
  129.4480  125.4930   57.1660 C   0  0  0  0  0  0  0  0  0  0  0  0
  128.0960  124.8020   57.1940 C   0  0  0  0  0  0  0  0  0  0  0  0
  127.9500  123.5110   56.6420 C   0  0  0  0  0  0  0  0  0  0  0  0
  126.7390  122.8390   56.7590 C   0  0  0  0  0  0  0  0  0  0  0  0
  125.6780  123.4210   57.4400 C   0  0  0  0  0  0  0  0  0  0  0  0
  125.8200  124.6750   58.0220 C   0  0  0  0  0  0  0  0  0  0  0  0
  127.0220  125.3630   57.9160 C   0  0  0  0  0  0  0  0  0  0  0  0
  130.1760  127.4460   58.5790 N   0  0  0  0  0  0  0  0  0  0  0  0
  129.9080  128.2280   57.4970 C   0  0  0  0  0  0  0  0  0  0  0  0
  129.4740  127.8650   56.4030 O   0  0  0  0  0  0  0  0  0  0  0  0
  130.2480  129.6110   57.9160 C   0  0  0  0  0  0  0  0  0  0  0  0
  130.1810  130.8190   57.2220 C   0  0  0  0  0  0  0  0  0  0  0  0
  130.5700  131.9920   57.8790 C   0  0  0  0  0  0  0  0  0  0  0  0
  131.0120  131.9430   59.2070 C   0  0  0  0  0  0  0  0  0  0  0  0
  131.0700  130.7210   59.8880 C   0  0  0  0  0  0  0  0  0  0  0  0
  130.6800  129.5630   59.2130 C   0  0  0  0  0  0  0  0  0  0  0  0
  130.6280  128.1500   59.6600 C   0  0  0  0  0  0  0  0  0  0  0  0
  130.9290  127.7060   60.7680 O   0  0  0  0  0  0  0  0  0  0  0  0
  1  2  2  0
  2  3  1  0
  3  4  1  0
  4  5  2  0
  4  6  1  0
  6  7  1  0
  7  8  2  0
  7  9  1  0
  9 10  1  6
 10 11  1  0
 11 12  2  0
 12 13  1  0
 13 14  2  0
 14 15  1  0
 15 16  2  0
  9 17  1  0
 17 18  1  0
 18 19  2  0
 18 20  1  0
 20 21  2  0
 21 22  1  0
 22 23  2  0
 23 24  1  0
 24 25  2  0
 25 26  1  0
 26 27  2  0
  2 28  1  0
 28 29  1  6
 29 30  1  0
 30 31  2  0
 31 32  1  0
 32 33  2  0
 33 34  1  0
 34 35  2  0
 28 36  1  0
 36 37  1  0
 37 38  2  0
 37 39  1  0
 39 40  2  0
 40 41  1  0
 41 42  2  0
 42 43  1  0
 43 44  2  0
 44 45  1  0
 45 46  2  0
 16 11  1  0
 26 17  1  0
 35 30  1  0
 45 36  1  0
 25 20  1  0
 44 39  1  0
M  END
>  <Binding energies>  (73) 
[-10.7]

>  <Ligand effiencies>  (73) 
[-0.22291666666666665]

>  <Interactions>  (73) 
["V-A:ILE:369:CD1:3239, V-B:GLU:543:CD:9880, H-A:GLY:454:N:4050, V-A:ASP:366:CG:3213, H-A:TYR:484:OH:4348, V-B:GLU:543:CG:9879, V-A:GLU:543:CD:4908, V-A:LEU:475:CD2:4259, V-B:ALA:541:CB:9864, V-B:PRO:540:CA:9855, V-B:PRO:540:CB:9857, V-B:PRO:540:N:9856, V-B:TYR:539:CZ:9849, V-B:TYR:539:CE2:9848, V-B:TYR:539:CD1:9845, V-B:TYR:539:CE1:9847, V-A:MET:535:CE:4835, V-B:TYR:539:CD2:9846, V-A:TYR:484:CE2:4346, V-A:TYR:484:CZ:4347, V-B:GLU:543:CB:9878, V-A:GLU:543:CB:4906, V-B:HIS:456:CE1:9041, V-A:GLU:543:CG:4907, V-A:PRO:540:CA:4883, V-A:PRO:540:CB:4885, V-A:PRO:540:N:4884, H-A:TYR:531:OH:4795, H-B:TYR:539:OH:9850"]

$$$$
RR1_Rahimova_2017
     RDKit          3D

 41 44  0  0  0  0  0  0  0  0999 V2000
  133.9120  124.3040   59.3830 C   0  0  0  0  0  0  0  0  0  0  0  0
  134.2760  123.9460   60.7120 O   0  0  0  0  0  0  0  0  0  0  0  0
  133.4740  124.3470   61.7620 C   0  0  0  0  0  0  0  0  0  0  0  0
  132.5150  125.3700   61.6800 C   0  0  0  0  0  0  0  0  0  0  0  0
  131.7560  125.7110   62.7960 C   0  0  0  0  0  0  0  0  0  0  0  0
  131.9350  125.0370   64.0050 C   0  0  0  0  0  0  0  0  0  0  0  0
  131.1530  125.4850   65.0870 N   0  0  0  0  0  0  0  0  0  0  0  0
  130.2750  124.8000   65.8490 C   0  0  0  0  0  0  0  0  0  0  0  0
  129.9520  123.6260   65.6650 O   0  0  0  0  0  0  0  0  0  0  0  0
  129.6690  125.6060   67.0090 C   0  0  0  0  0  0  0  0  0  0  0  0
  130.8280  126.7190   67.8790 S   0  0  0  0  0  0  0  0  0  0  0  0
  129.7890  127.1330   69.2400 C   0  0  0  0  0  0  0  0  0  0  0  0
  130.1790  127.1370   70.4890 N   0  0  0  0  0  0  0  0  0  0  0  0
  129.0950  127.5140   71.1600 C   0  0  0  0  0  0  0  0  0  0  0  0
  129.0880  127.6710   72.6540 C   0  0  0  0  0  0  0  0  0  0  0  0
  128.0420  128.3330   73.3170 C   0  0  0  0  0  0  0  0  0  0  0  0
  128.0650  128.4660   74.7070 C   0  0  0  0  0  0  0  0  0  0  0  0
  129.1420  127.9290   75.4090 C   0  0  0  0  0  0  0  0  0  0  0  0
  130.1690  127.2830   74.8000 N   0  0  0  0  0  0  0  0  0  0  0  0
  130.1280  127.1640   73.4480 C   0  0  0  0  0  0  0  0  0  0  0  0
  128.0250  127.7460   70.4210 N   0  0  0  0  0  0  0  0  0  0  0  0
  128.4690  127.5000   69.1850 N   0  0  0  0  0  0  0  0  0  0  0  0
  127.5840  127.6640   68.0320 C   0  0  0  0  0  0  0  0  0  0  0  0
  127.9420  128.8350   67.1000 C   0  0  0  0  0  0  0  0  0  0  0  0
  128.7260  129.7190   67.4660 O   0  0  0  0  0  0  0  0  0  0  0  0
  127.3400  128.8080   65.8960 N   0  0  0  0  0  0  0  0  0  0  0  0
  127.7250  129.7480   64.9500 N   0  0  0  0  0  0  0  0  0  0  0  0
  127.3960  129.5160   63.6600 C   0  0  0  0  0  0  0  0  0  0  0  0
  126.6870  128.5770   63.2850 O   0  0  0  0  0  0  0  0  0  0  0  0
  127.9340  130.5160   62.6570 C   0  0  0  0  0  0  0  0  0  0  0  0
  127.1290  130.9410   61.5940 C   0  0  0  0  0  0  0  0  0  0  0  0
  127.6060  131.8480   60.6540 C   0  0  0  0  0  0  0  0  0  0  0  0
  128.9120  132.3560   60.7450 C   0  0  0  0  0  0  0  0  0  0  0  0
  129.4530  133.2490   59.8380 O   0  0  0  0  0  0  0  0  0  0  0  0
  129.5430  132.8860   58.4650 C   0  0  0  0  0  0  0  0  0  0  0  0
  129.7370  131.9370   61.7980 C   0  0  0  0  0  0  0  0  0  0  0  0
  131.0220  132.4520   61.8320 O   0  0  0  0  0  0  0  0  0  0  0  0
  132.1340  131.5650   61.8800 C   0  0  0  0  0  0  0  0  0  0  0  0
  129.2400  131.0250   62.7460 C   0  0  0  0  0  0  0  0  0  0  0  0
  132.8910  124.0130   64.0900 C   0  0  0  0  0  0  0  0  0  0  0  0
  133.6480  123.6750   62.9720 C   0  0  0  0  0  0  0  0  0  0  0  0
  1  2  1  0
  2  3  1  0
  3  4  2  0
  4  5  1  0
  5  6  2  0
  6  7  1  0
  7  8  1  0
  8  9  2  0
  8 10  1  0
 10 11  1  0
 11 12  1  0
 12 13  2  0
 13 14  1  0
 14 15  1  0
 15 16  2  0
 16 17  1  0
 17 18  2  0
 18 19  1  0
 19 20  2  0
 14 21  2  0
 21 22  1  0
 22 23  1  0
 23 24  1  0
 24 25  2  0
 24 26  1  0
 26 27  1  0
 27 28  1  0
 28 29  2  0
 28 30  1  0
 30 31  2  0
 31 32  1  0
 32 33  2  0
 33 34  1  0
 34 35  1  0
 33 36  1  0
 36 37  1  0
 37 38  1  0
 36 39  2  0
  6 40  1  0
 40 41  2  0
 41  3  1  0
 22 12  1  0
 39 30  1  0
 20 15  1  0
M  END
>  <Binding energies>  (74) 
[-7.86]

>  <Ligand effiencies>  (74) 
[-0.17863636363636365]

>  <Interactions>  (74) 
["V-A:ILE:369:CG2:3237, V-A:ILE:369:CD1:3239, V-A:ASP:366:CB:3212, V-B:GLU:543:CD:9880, V-A:ASP:366:CA:3210, V-A:ASP:366:CG:3213, H-A:GLU:543:OE1:4909, H-A:TYR:484:OH:4348, V-B:GLU:543:CG:9879, V-A:ILE:369:CB:3236, V-A:GLU:543:CD:4908, H-A:GLU:543:OE2:4910, V-A:HIS:456:CE1:4070, V-A:GLY:454:CA:4049, H-B:GLU:543:OE2:9882, H-B:GLU:543:OE1:9881, H-B:ARG:545:NH2:9900, V-A:TYR:484:CE2:4346, V-A:HIS:456:CD2:4068, V-B:GLU:543:CA:9876, V-B:GLU:543:CB:9878, V-A:GLU:543:CB:4906, V-B:HIS:456:CD2:9039, V-B:HIS:456:CE1:9041, V-A:GLU:543:CG:4907, H-B:TYR:484:OH:9319, V-B:HIS:456:CG:9037, V-A:PRO:540:CA:4883, V-A:PRO:540:CB:4885, V-A:PRO:540:N:4884, H-A:ALA:541:N:4891, H-A:LYS:547:NZ:4951, V-A:TYR:539:C:4867, H-B:LYS:547:NZ:9923"]

$$$$
RR22_Rahimova_2017
     RDKit          3D

 31 36  0  0  0  0  0  0  0  0999 V2000
  133.9960  124.2490   57.5470 O   0  0  0  0  0  0  0  0  0  0  0  0
  133.1800  124.9610   58.1280 C   0  0  0  0  0  0  0  0  0  0  0  0
  132.5930  126.1250   57.6630 N   0  0  0  0  0  0  0  0  0  0  0  0
  131.6080  126.8070   58.4460 C   0  0  1  0  0  0  0  0  0  0  0  0
  132.1030  128.1420   58.5900 O   0  0  0  0  0  0  0  0  0  0  0  0
  131.3250  129.1930   58.1050 C   0  0  0  0  0  0  0  0  0  0  0  0
  131.9740  130.4140   57.9220 C   0  0  0  0  0  0  0  0  0  0  0  0
  131.2520  131.5230   57.4790 C   0  0  0  0  0  0  0  0  0  0  0  0
  129.8850  131.4110   57.2270 C   0  0  0  0  0  0  0  0  0  0  0  0
  129.2350  130.1890   57.4110 C   0  0  0  0  0  0  0  0  0  0  0  0
  129.9500  129.0640   57.8310 C   0  0  0  0  0  0  0  0  0  0  0  0
  129.3330  127.7090   58.1010 C   0  0  1  0  0  0  0  0  0  0  0  0
  128.1360  127.1920   57.3290 C   0  0  0  0  0  0  0  0  0  0  0  0
  128.4180  125.6880   57.3870 C   0  0  0  0  0  0  0  0  0  0  0  0
  127.3800  124.6710   57.1280 C   0  0  0  0  0  0  0  0  0  0  0  0
  126.0250  124.9600   57.3530 C   0  0  0  0  0  0  0  0  0  0  0  0
  125.0500  123.9980   57.1050 C   0  0  0  0  0  0  0  0  0  0  0  0
  125.4220  122.7420   56.6320 C   0  0  0  0  0  0  0  0  0  0  0  0
  126.7610  122.4390   56.4030 C   0  0  0  0  0  0  0  0  0  0  0  0
  127.7380  123.4010   56.6490 C   0  0  0  0  0  0  0  0  0  0  0  0
  129.6470  125.4580   57.6590 N   0  0  0  0  0  0  0  0  0  0  0  0
  130.2970  126.6970   57.7890 N   0  0  0  0  0  0  0  0  0  0  0  0
  131.6330  126.1700   59.8270 C   0  0  0  0  0  0  0  0  0  0  0  0
  131.0960  126.7610   60.9210 C   0  0  0  0  0  0  0  0  0  0  0  0
  131.0330  126.2500   62.3040 C   0  0  0  0  0  0  0  0  0  0  0  0
  129.9430  126.4770   63.1570 C   0  0  0  0  0  0  0  0  0  0  0  0
  129.9540  125.9630   64.4540 C   0  0  0  0  0  0  0  0  0  0  0  0
  131.0670  125.2330   64.8710 C   0  0  0  0  0  0  0  0  0  0  0  0
  132.1390  125.0050   64.0720 N   0  0  0  0  0  0  0  0  0  0  0  0
  132.1090  125.5130   62.8120 C   0  0  0  0  0  0  0  0  0  0  0  0
  132.5300  124.6450   59.7970 S   0  0  0  0  0  0  0  0  0  0  0  0
  1  2  2  0
  2  3  1  0
  4  3  1  6
  4  5  1  0
  5  6  1  0
  6  7  2  0
  7  8  1  0
  8  9  2  0
  9 10  1  0
 10 11  2  0
 11 12  1  0
 12 13  1  6
 13 14  1  0
 14 15  1  0
 15 16  2  0
 16 17  1  0
 17 18  2  0
 18 19  1  0
 19 20  2  0
 14 21  2  0
 21 22  1  0
  4 23  1  0
 23 24  2  0
 24 25  1  0
 25 26  2  0
 26 27  1  0
 27 28  2  0
 28 29  1  0
 29 30  2  0
 23 31  1  0
 31  2  1  0
 22  4  1  0
 30 25  1  0
 11  6  1  0
 22 12  1  0
 20 15  1  0
M  END
>  <Binding energies>  (75) 
[-9.4]

>  <Ligand effiencies>  (75) 
[-0.29375]

>  <Interactions>  (75) 
["V-A:ASP:366:CB:3212, V-B:GLU:543:CD:9880, H-A:ARG:545:NH2:4928, V-A:ASP:366:CA:3210, V-A:ASP:366:CG:3213, V-B:GLU:543:CG:9879, V-A:GLU:543:CD:4908, V-A:ARG:545:CZ:4926, V-B:TYR:539:C:9839, V-B:TYR:531:CE2:9765, V-B:PRO:540:CD:9859, V-B:PRO:540:CB:9857, V-B:PRO:540:N:9856, V-B:LEU:363:CD1:8160, V-B:MET:535:CE:9807, V-B:TYR:539:CZ:9849, V-B:TYR:539:CE2:9848, V-B:TYR:539:CD1:9845, V-B:TYR:539:CE1:9847, V-A:MET:535:CE:4835, V-A:TYR:531:CZ:4794, H-A:TYR:531:OH:4795, H-B:TYR:539:OH:9850, V-A:ASP:366:C:3208, H-A:ASN:370:N:3244, H-A:ASP:366:O:3209"]

$$$$
RR24_Rahimova_2017
     RDKit          3D

 43 49  0  0  0  0  0  0  0  0999 V2000
  131.4580  133.2720   56.7280 C   0  0  0  0  0  0  0  0  0  0  0  0
  131.6090  132.2510   57.8650 C   0  0  2  0  0  0  0  0  0  0  0  0
  131.6220  130.7760   57.3670 C   0  0  0  0  0  0  0  0  0  0  0  0
  132.6670  130.2020   57.0440 O   0  0  0  0  0  0  0  0  0  0  0  0
  130.3710  130.2310   57.3110 O   0  0  0  0  0  0  0  0  0  0  0  0
  130.1940  128.9030   57.6240 C   0  0  0  0  0  0  0  0  0  0  0  0
  130.7160  128.4050   58.8200 C   0  0  0  0  0  0  0  0  0  0  0  0
  130.5340  127.0660   59.1510 C   0  0  0  0  0  0  0  0  0  0  0  0
  129.8240  126.2200   58.2940 C   0  0  0  0  0  0  0  0  0  0  0  0
  129.6430  124.7410   58.6560 C   0  0  1  0  0  0  0  0  0  0  0  0
  130.7610  124.2360   59.5980 C   0  0  0  0  0  0  0  0  0  0  0  0
  130.5060  123.5810   60.7450 C   0  0  0  0  0  0  0  0  0  0  0  0
  129.2270  123.3130   61.1660 N   0  0  0  0  0  0  0  0  0  0  0  0
  128.1350  123.7060   60.4290 C   0  0  0  0  0  0  0  0  0  0  0  0
  126.9430  123.3570   60.9780 N   0  0  0  0  0  0  0  0  0  0  0  0
  125.7530  123.7290   60.4320 C   0  0  0  0  0  0  0  0  0  0  0  0
  124.7310  123.6700   61.1180 O   0  0  0  0  0  0  0  0  0  0  0  0
  125.8630  124.3050   59.1760 N   0  0  0  0  0  0  0  0  0  0  0  0
  124.5940  124.6440   58.4980 C   0  0  0  0  0  0  0  0  0  0  0  0
  127.0200  124.7020   58.5270 C   0  0  0  0  0  0  0  0  0  0  0  0
  127.0400  125.2600   57.4250 O   0  0  0  0  0  0  0  0  0  0  0  0
  128.2510  124.3810   59.2550 C   0  0  0  0  0  0  0  0  0  0  0  0
  131.7410  123.2280   61.4250 C   0  0  0  0  0  0  0  0  0  0  0  0
  132.0120  122.5640   62.6220 C   0  0  0  0  0  0  0  0  0  0  0  0
  133.3400  122.3760   63.0120 C   0  0  0  0  0  0  0  0  0  0  0  0
  134.3830  122.8480   62.2100 C   0  0  0  0  0  0  0  0  0  0  0  0
  134.1060  123.5120   61.0120 C   0  0  0  0  0  0  0  0  0  0  0  0
  132.7760  123.6980   60.6280 C   0  0  0  0  0  0  0  0  0  0  0  0
  132.2060  124.3530   59.4320 C   0  0  0  0  0  0  0  0  0  0  0  0
  132.7750  124.8890   58.4820 O   0  0  0  0  0  0  0  0  0  0  0  0
  129.2860  126.7260   57.1060 C   0  0  0  0  0  0  0  0  0  0  0  0
  129.4660  128.0660   56.7750 C   0  0  0  0  0  0  0  0  0  0  0  0
  130.6140  132.4740   58.9550 N   0  0  0  0  0  0  0  0  0  0  0  0
  129.4130  133.0710   58.7130 C   0  0  0  0  0  0  0  0  0  0  0  0
  128.9940  133.4980   57.6360 O   0  0  0  0  0  0  0  0  0  0  0  0
  128.7150  133.0990   60.0230 C   0  0  0  0  0  0  0  0  0  0  0  0
  127.4590  133.5930   60.3770 C   0  0  0  0  0  0  0  0  0  0  0  0
  127.0480  133.4810   61.7110 C   0  0  0  0  0  0  0  0  0  0  0  0
  127.8870  132.8840   62.6600 C   0  0  0  0  0  0  0  0  0  0  0  0
  129.1430  132.3950   62.2850 C   0  0  0  0  0  0  0  0  0  0  0  0
  129.5350  132.5170   60.9510 C   0  0  0  0  0  0  0  0  0  0  0  0
  130.7810  132.1000   60.2600 C   0  0  0  0  0  0  0  0  0  0  0  0
  131.7540  131.5320   60.7580 O   0  0  0  0  0  0  0  0  0  0  0  0
  2  1  1  6
  2  3  1  0
  3  4  2  0
  3  5  1  0
  5  6  1  0
  6  7  2  0
  7  8  1  0
  8  9  2  0
 10  9  1  1
 10 11  1  0
 11 12  2  0
 12 13  1  0
 13 14  1  0
 14 15  1  0
 15 16  1  0
 16 17  2  0
 16 18  1  0
 18 19  1  0
 18 20  1  0
 20 21  2  0
 20 22  1  0
 12 23  1  0
 23 24  2  0
 24 25  1  0
 25 26  2  0
 26 27  1  0
 27 28  2  0
 28 29  1  0
 29 30  2  0
  9 31  1  0
 31 32  2  0
  2 33  1  0
 33 34  1  0
 34 35  2  0
 34 36  1  0
 36 37  2  0
 37 38  1  0
 38 39  2  0
 39 40  1  0
 40 41  2  0
 41 42  1  0
 42 43  2  0
 32  6  1  0
 42 33  1  0
 22 10  1  0
 28 23  1  0
 41 36  1  0
 29 11  1  0
 22 14  2  0
M  END
>  <Binding energies>  (76) 
[-9.69]

>  <Ligand effiencies>  (76) 
[-0.21533333333333332]

>  <Interactions>  (76) 
["V-A:ILE:369:CG2:3237, V-A:ILE:369:CD1:3239, V-A:GLY:453:C:4042, V-A:LEU:475:CD2:4259, V-A:GLY:454:CA:4049, V-B:ASP:366:CB:8183, H-B:GLU:543:OE1:9881, V-B:ASP:366:CG:8184, V-B:PRO:540:CA:9855, V-B:PRO:540:CB:9857, V-B:TYR:539:CZ:9849, V-B:TYR:539:CE2:9848, V-A:MET:535:CE:4835, V-A:PRO:540:CA:4883, V-A:PRO:540:CB:4885, V-A:LEU:363:CD1:3189, V-A:PRO:540:CD:4887, H-B:TYR:531:OH:9767, V-A:PRO:540:N:4884, H-A:TYR:531:OH:4795, V-A:TYR:539:CE1:4875, H-B:TYR:539:OH:9850, V-A:TYR:539:CD1:4873, H-A:TYR:539:N:4870, V-A:ALA:541:CB:4892, V-B:LEU:475:CD2:9230, V-A:TYR:539:C:4867, V-A:ILE:538:CB:4862, V-A:ILE:538:CA:4860, V-A:ILE:538:CG2:4863"]

$$$$
RR25_Rahimova_2017
     RDKit          3D

 39 44  0  0  0  0  0  0  0  0999 V2000
  126.9500  123.6180   61.3150 O   0  0  0  0  0  0  0  0  0  0  0  0
  127.9230  124.1630   61.8370 C   0  0  0  0  0  0  0  0  0  0  0  0
  128.7020  123.3710   62.6440 O   0  0  0  0  0  0  0  0  0  0  0  0
  129.9450  123.7890   63.0830 C   0  0  0  0  0  0  0  0  0  0  0  0
  130.8680  122.7930   63.3960 C   0  0  0  0  0  0  0  0  0  0  0  0
  132.1370  123.1430   63.8520 C   0  0  0  0  0  0  0  0  0  0  0  0
  132.5000  124.4890   64.0050 C   0  0  0  0  0  0  0  0  0  0  0  0
  133.8550  124.8590   64.4830 N   0  0  0  0  0  0  0  0  0  0  0  0
  134.0440  124.9570   65.6930 O   0  0  0  0  0  0  0  0  0  0  0  0
  134.7370  125.0550   63.6530 O   0  0  0  0  0  0  0  0  0  0  0  0
  131.5520  125.4780   63.6960 C   0  0  0  0  0  0  0  0  0  0  0  0
  130.2720  125.1430   63.2450 C   0  0  0  0  0  0  0  0  0  0  0  0
  129.2160  126.1740   62.8870 C   0  0  0  0  0  0  0  0  0  0  0  0
  128.3560  125.6520   61.7020 C   0  0  2  0  0  0  0  0  0  0  0  0
  127.1990  126.6400   61.3710 C   0  0  0  0  0  0  0  0  0  0  0  0
  126.1130  126.1280   61.0880 O   0  0  0  0  0  0  0  0  0  0  0  0
  127.3370  127.9940   61.5080 N   0  0  0  0  0  0  0  0  0  0  0  0
  128.6530  128.6660   61.5340 C   0  0  0  0  0  0  0  0  0  0  0  0
  128.5960  129.8420   62.5320 C   0  0  0  0  0  0  0  0  0  0  0  0
  127.4960  130.7580   62.2170 N   0  0  0  0  0  0  0  0  0  0  0  0
  127.5200  131.9450   63.0820 C   0  0  0  0  0  0  0  0  0  0  0  0
  128.3970  133.0900   62.5090 C   0  0  0  0  0  0  0  0  0  0  0  0
  129.0910  132.8020   61.2200 N   0  0  0  0  0  0  0  0  0  0  0  0
  130.3650  132.2870   61.3390 C   0  0  0  0  0  0  0  0  0  0  0  0
  130.9220  132.1050   62.4270 O   0  0  0  0  0  0  0  0  0  0  0  0
  131.0310  131.9380   60.0210 C   0  0  0  0  0  0  0  0  0  0  0  0
  132.3170  131.3830   60.0270 C   0  0  0  0  0  0  0  0  0  0  0  0
  132.9550  131.0430   58.8350 C   0  0  0  0  0  0  0  0  0  0  0  0
  132.3310  131.2430   57.6050 C   0  0  0  0  0  0  0  0  0  0  0  0
  131.0310  131.8010   57.5510 C   0  0  0  0  0  0  0  0  0  0  0  0
  130.3390  132.0290   56.3380 C   0  0  0  0  0  0  0  0  0  0  0  0
  129.0580  132.5800   56.3560 C   0  0  0  0  0  0  0  0  0  0  0  0
  128.4400  132.9150   57.5580 C   0  0  0  0  0  0  0  0  0  0  0  0
  129.0870  132.7070   58.7830 C   0  0  0  0  0  0  0  0  0  0  0  0
  130.3900  132.1460   58.7730 C   0  0  0  0  0  0  0  0  0  0  0  0
  128.3770  133.0770   60.0720 C   0  0  0  0  0  0  0  0  0  0  0  0
  127.2430  133.5680   60.0770 O   0  0  0  0  0  0  0  0  0  0  0  0
  126.2180  130.0490   62.3080 C   0  0  0  0  0  0  0  0  0  0  0  0
  126.1520  128.8610   61.3180 C   0  0  0  0  0  0  0  0  0  0  0  0
  1  2  2  0
  2  3  1  0
  3  4  1  0
  4  5  2  0
  5  6  1  0
  6  7  2  0
  7  8  1  0
  8  9  2  0
  8 10  1  0
  7 11  1  0
 11 12  2  0
 12 13  1  0
 13 14  1  0
 14 15  1  1
 15 16  2  0
 15 17  1  0
 17 18  1  0
 18 19  1  0
 19 20  1  0
 20 21  1  0
 21 22  1  0
 22 23  1  0
 23 24  1  0
 24 25  2  0
 24 26  1  0
 26 27  2  0
 27 28  1  0
 28 29  2  0
 29 30  1  0
 30 31  2  0
 31 32  1  0
 32 33  2  0
 33 34  1  0
 34 35  2  0
 34 36  1  0
 36 37  2  0
 20 38  1  0
 38 39  1  0
 14  2  1  0
 39 17  1  0
 12  4  1  0
 36 23  1  0
 35 26  1  0
 35 30  1  0
M  CHG  2   8   1  10  -1
M  END
>  <Binding energies>  (77) 
[-10.14]

>  <Ligand effiencies>  (77) 
[-0.26]

>  <Interactions>  (77) 
["V-A:ASP:366:CB:3212, V-A:GLY:453:C:4042, V-B:GLU:543:CD:9880, H-A:ARG:545:NH1:4927, H-A:ARG:545:NH2:4928, H-A:GLY:454:N:4050, V-A:GLY:453:CA:4044, V-A:ASP:366:CG:3213, H-A:TYR:484:OH:4348, H-A:ARG:545:NE:4924, V-A:GLU:543:CD:4908, V-A:ARG:545:CZ:4926, V-A:LEU:475:CD2:4259, V-A:GLY:454:CA:4049, V-B:ASP:366:CG:8184, H-B:ARG:545:NH2:9900, V-A:MET:535:CE:4835, V-A:PRO:540:CA:4883, V-A:PRO:540:CB:4885, V-A:LEU:363:CD1:3189, V-A:PRO:540:N:4884, V-A:TYR:539:CE1:4875, H-A:ALA:541:N:4891, V-A:LEU:363:CA:3185, V-A:TYR:539:CZ:4877, V-A:PRO:540:C:4881, V-A:TYR:539:CG:4872, V-A:TYR:539:CD1:4873, V-A:ALA:541:CB:4892, V-A:TYR:539:C:4867"]

$$$$
RR27_Rahimova_2017
     RDKit          3D

 39 44  0  0  0  0  0  0  0  0999 V2000
  127.1200  122.8280   62.2300 O   0  0  0  0  0  0  0  0  0  0  0  0
  128.2850  123.2110   62.0860 C   0  0  0  0  0  0  0  0  0  0  0  0
  129.4050  122.4900   62.8910 C   0  0  0  0  0  0  0  0  0  0  0  0
  130.2210  123.4450   63.7820 C   0  0  0  0  0  0  0  0  0  0  0  0
  129.6040  124.3290   64.6800 C   0  0  0  0  0  0  0  0  0  0  0  0
  130.3720  125.1770   65.4720 C   0  0  0  0  0  0  0  0  0  0  0  0
  131.7600  125.1470   65.3690 C   0  0  0  0  0  0  0  0  0  0  0  0
  132.3860  124.2780   64.4800 C   0  0  0  0  0  0  0  0  0  0  0  0
  131.6180  123.4300   63.6890 C   0  0  0  0  0  0  0  0  0  0  0  0
  130.2450  121.5600   61.9950 C   0  0  0  0  0  0  0  0  0  0  0  0
  131.3580  122.0310   61.2840 C   0  0  0  0  0  0  0  0  0  0  0  0
  132.0890  121.1660   60.4730 C   0  0  0  0  0  0  0  0  0  0  0  0
  131.7080  119.8310   60.3660 C   0  0  0  0  0  0  0  0  0  0  0  0
  130.5980  119.3530   61.0580 C   0  0  0  0  0  0  0  0  0  0  0  0
  129.8680  120.2180   61.8670 C   0  0  0  0  0  0  0  0  0  0  0  0
  128.6220  124.1340   61.1410 N   0  0  0  0  0  0  0  0  0  0  0  0
  129.9290  124.8070   61.0940 C   0  0  0  0  0  0  0  0  0  0  0  0
  129.8230  126.0540   62.0010 C   0  0  0  0  0  0  0  0  0  0  0  0
  128.6350  126.9880   61.6060 C   0  0  0  0  0  0  0  0  0  0  0  0
  128.4160  128.1870   62.5470 C   0  0  0  0  0  0  0  0  0  0  0  0
  128.1240  127.8920   63.8480 N   0  0  0  0  0  0  0  0  0  0  0  0
  127.9470  128.9160   64.7280 C   0  0  0  0  0  0  0  0  0  0  0  0
  127.6560  128.7480   66.0560 O   0  0  0  0  0  0  0  0  0  0  0  0
  128.0710  130.2380   64.2590 C   0  0  0  0  0  0  0  0  0  0  0  0
  127.9650  131.4610   64.8540 N   0  0  0  0  0  0  0  0  0  0  0  0
  128.1840  132.4140   63.8770 N   0  0  0  0  0  0  0  0  0  0  0  0
  128.4270  131.7890   62.7050 N   0  0  0  0  0  0  0  0  0  0  0  0
  128.6690  132.5610   61.4890 C   0  0  0  0  0  0  0  0  0  0  0  0
  129.9230  132.1390   60.7350 C   0  0  0  0  0  0  0  0  0  0  0  0
  129.8470  131.7880   59.3840 C   0  0  0  0  0  0  0  0  0  0  0  0
  130.9990  131.4110   58.6900 C   0  0  0  0  0  0  0  0  0  0  0  0
  132.2310  131.3890   59.3420 C   0  0  0  0  0  0  0  0  0  0  0  0
  132.3150  131.7480   60.6880 C   0  0  0  0  0  0  0  0  0  0  0  0
  133.8440  131.7470   61.4900 Cl  0  0  0  0  0  0  0  0  0  0  0  0
  131.1640  132.1160   61.3840 C   0  0  0  0  0  0  0  0  0  0  0  0
  128.3640  130.4180   62.8900 C   0  0  0  0  0  0  0  0  0  0  0  0
  128.5340  129.4320   62.0050 N   0  0  0  0  0  0  0  0  0  0  0  0
  127.3310  126.1810   61.3180 C   0  0  0  0  0  0  0  0  0  0  0  0
  127.5760  124.9130   60.4610 C   0  0  0  0  0  0  0  0  0  0  0  0
  1  2  2  0
  2  3  1  0
  3  4  1  0
  4  5  2  0
  5  6  1  0
  6  7  2  0
  7  8  1  0
  8  9  2  0
  3 10  1  0
 10 11  2  0
 11 12  1  0
 12 13  2  0
 13 14  1  0
 14 15  2  0
  2 16  1  0
 16 17  1  0
 17 18  1  0
 18 19  1  0
 19 20  1  0
 20 21  2  0
 21 22  1  0
 22 23  1  0
 22 24  2  0
 24 25  1  0
 25 26  2  0
 26 27  1  0
 27 28  1  0
 28 29  1  0
 29 30  2  0
 30 31  1  0
 31 32  2  0
 32 33  1  0
 33 34  1  0
 33 35  2  0
 27 36  1  0
 36 37  2  0
 19 38  1  0
 38 39  1  0
  9  4  1  0
 15 10  1  0
 39 16  1  0
 37 20  1  0
 36 24  1  0
 35 29  1  0
M  END
>  <Binding energies>  (78) 
[-9.71]

>  <Ligand effiencies>  (78) 
[-0.24275000000000002]

>  <Interactions>  (78) 
["V-B:GLU:543:CD:9880, V-B:GLU:543:CG:9879, V-A:GLU:543:CD:4908, V-A:LEU:475:CD2:4259, V-B:ALA:541:CB:9864, H-B:GLU:543:OE2:9882, H-B:ALA:541:N:9863, V-B:TYR:539:CE2:9848, V-B:TYR:539:CD2:9846, V-A:GLU:543:CG:4907, H-B:TYR:484:OH:9319, V-A:PRO:540:CA:4883, V-A:PRO:540:CB:4885, V-A:LEU:363:CA:3185, V-A:PRO:540:C:4881, V-A:ASN:362:C:3172, V-A:ASN:362:CB:3176, V-A:ASN:362:CA:3174"]

$$$$
RR28_Rahimova_2017
     RDKit          3D

 46 49  0  0  0  0  0  0  0  0999 V2000
  132.7640  131.6760   62.6750 C   0  0  0  0  0  0  0  0  0  0  0  0
  132.3120  131.1590   61.3140 C   0  0  0  0  0  0  0  0  0  0  0  0
  132.9100  131.5160   60.3000 O   0  0  0  0  0  0  0  0  0  0  0  0
  131.2560  130.3210   61.3130 N   0  0  0  0  0  0  0  0  0  0  0  0
  130.5990  129.6760   60.1540 C   0  0  0  0  0  0  0  0  0  0  0  0
  131.1680  128.2350   60.0130 C   0  0  0  0  0  0  0  0  0  0  0  0
  131.2720  127.4210   61.1520 C   0  0  0  0  0  0  0  0  0  0  0  0
  131.7790  126.1290   61.0640 C   0  0  0  0  0  0  0  0  0  0  0  0
  132.1970  125.6190   59.8340 C   0  0  0  0  0  0  0  0  0  0  0  0
  132.7570  124.1990   59.7570 C   0  0  0  0  0  0  0  0  0  0  0  0
  131.8270  123.2740   60.0070 F   0  0  0  0  0  0  0  0  0  0  0  0
  133.2570  123.9630   58.5450 F   0  0  0  0  0  0  0  0  0  0  0  0
  133.7310  124.0630   60.6580 F   0  0  0  0  0  0  0  0  0  0  0  0
  132.1010  126.4190   58.6920 C   0  0  0  0  0  0  0  0  0  0  0  0
  131.5930  127.7130   58.7810 C   0  0  0  0  0  0  0  0  0  0  0  0
  130.7750  130.5530   58.8630 C   0  0  0  0  0  0  0  0  0  0  0  0
  130.0420  131.9170   58.9440 C   0  0  0  0  0  0  0  0  0  0  0  0
  128.6190  131.6120   59.1650 N   0  0  0  0  0  0  0  0  0  0  0  0
  127.7650  131.5180   58.1090 C   0  0  0  0  0  0  0  0  0  0  0  0
  128.0970  131.8420   56.9670 O   0  0  0  0  0  0  0  0  0  0  0  0
  126.2850  131.1480   58.3760 C   0  0  0  0  0  0  0  0  0  0  0  0
  125.8970  129.6680   58.1100 C   0  0  0  0  0  0  0  0  0  0  0  0
  127.0430  128.7730   57.5850 C   0  0  0  0  0  0  0  0  0  0  0  0
  127.4540  128.9710   56.4380 O   0  0  0  0  0  0  0  0  0  0  0  0
  127.6570  127.8960   58.4300 N   0  0  0  0  0  0  0  0  0  0  0  0
  127.0390  127.3960   59.6630 C   0  0  0  0  0  0  0  0  0  0  0  0
  126.1720  126.1830   59.2610 C   0  0  0  0  0  0  0  0  0  0  0  0
  126.9470  125.0420   58.5140 C   0  0  0  0  0  0  0  0  0  0  0  0
  125.9740  124.1540   57.8420 N   0  0  0  0  0  0  0  0  0  0  0  0
  126.2220  123.1640   56.9620 C   0  0  0  0  0  0  0  0  0  0  0  0
  125.0040  122.4250   56.4160 C   0  0  0  0  0  0  0  0  0  0  0  0
  127.3480  122.8400   56.5880 O   0  0  0  0  0  0  0  0  0  0  0  0
  127.6890  124.1930   59.5970 C   0  0  0  0  0  0  0  0  0  0  0  0
  127.6870  124.5300   60.9610 C   0  0  0  0  0  0  0  0  0  0  0  0
  128.3600  123.7460   61.8950 C   0  0  0  0  0  0  0  0  0  0  0  0
  129.0560  122.6060   61.4880 C   0  0  0  0  0  0  0  0  0  0  0  0
  129.7960  121.7330   62.5000 C   0  0  0  0  0  0  0  0  0  0  0  0
  131.1050  121.9960   62.4800 F   0  0  0  0  0  0  0  0  0  0  0  0
  129.3300  121.9890   63.7220 F   0  0  0  0  0  0  0  0  0  0  0  0
  129.6350  120.4310   62.2550 F   0  0  0  0  0  0  0  0  0  0  0  0
  129.0750  122.2630   60.1350 C   0  0  0  0  0  0  0  0  0  0  0  0
  128.4010  123.0480   59.2050 C   0  0  0  0  0  0  0  0  0  0  0  0
  127.9230  125.6900   57.4570 C   0  0  0  0  0  0  0  0  0  0  0  0
  128.6740  126.9680   57.9170 C   0  0  0  0  0  0  0  0  0  0  0  0
  128.3550  130.9670   60.4590 C   0  0  0  0  0  0  0  0  0  0  0  0
  129.0630  129.5870   60.4310 C   0  0  0  0  0  0  0  0  0  0  0  0
  1  2  1  0
  2  3  2  0
  2  4  1  0
  4  5  1  0
  5  6  1  0
  6  7  2  0
  7  8  1  0
  8  9  2  0
  9 10  1  0
 10 11  1  0
 10 12  1  0
 10 13  1  0
  9 14  1  0
 14 15  2  0
  5 16  1  0
 16 17  1  0
 17 18  1  0
 18 19  1  0
 19 20  2  0
 19 21  1  0
 21 22  1  0
 22 23  1  0
 23 24  2  0
 23 25  1  0
 25 26  1  0
 26 27  1  0
 27 28  1  0
 28 29  1  0
 29 30  1  0
 30 31  1  0
 30 32  2  0
 28 33  1  0
 33 34  2  0
 34 35  1  0
 35 36  2  0
 36 37  1  0
 37 38  1  0
 37 39  1  0
 37 40  1  0
 36 41  1  0
 41 42  2  0
 28 43  1  0
 43 44  1  0
 18 45  1  0
 45 46  1  0
 46  5  1  0
 15  6  1  0
 44 25  1  0
 42 33  1  0
M  END
>  <Binding energies>  (79) 
[-7.74]

>  <Ligand effiencies>  (79) 
[-0.16125]

>  <Interactions>  (79) 
["V-A:ILE:369:CG2:3237, V-A:ILE:369:CD1:3239, V-A:ASP:366:CB:3212, V-A:ASP:366:CG:3213, H-A:GLU:543:OE1:4909, V-A:ILE:369:CB:3236, V-A:GLU:543:CD:4908, V-A:LEU:475:CD2:4259, V-B:ALA:541:CB:9864, V-B:TYR:539:C:9839, V-B:PRO:540:CD:9859, V-B:ASP:366:CG:8184, H-B:ASP:366:OD1:8185, V-B:PRO:540:CA:9855, V-B:PRO:540:CB:9857, V-B:PRO:540:N:9856, V-B:LEU:363:CD1:8160, V-B:MET:535:CE:9807, V-B:TYR:539:CZ:9849, V-B:TYR:539:CE2:9848, V-B:TYR:539:CD2:9846, V-B:PRO:540:CG:9858, V-B:ILE:538:CG2:9835, V-B:ALA:541:CA:9862, V-A:GLU:543:CG:4907, V-A:PRO:540:CA:4883, V-A:PRO:540:CB:4885, H-B:TYR:531:OH:9767, V-A:TYR:539:CE1:4875, H-A:ASP:366:OD2:3215, V-A:ASN:362:CB:3176, V-A:ALA:541:C:4888"]

$$$$
RR29_Rahimova_2017
     RDKit          3D

 18 19  0  0  0  0  0  0  0  0999 V2000
  127.0910  133.1490   63.1450 C   0  0  0  0  0  0  0  0  0  0  0  0
  127.7320  131.7790   63.3120 C   0  0  0  0  0  0  0  0  0  0  0  0
  127.9920  131.0670   61.9660 C   0  0  0  0  0  0  0  0  0  0  0  0
  129.4820  131.1260   61.5680 C   0  0  0  0  0  0  0  0  0  0  0  0
  129.6930  131.7950   60.2190 C   0  0  0  0  0  0  0  0  0  0  0  0
  128.6770  132.6000   59.6660 C   0  0  0  0  0  0  0  0  0  0  0  0
  128.8510  133.2270   58.4240 C   0  0  0  0  0  0  0  0  0  0  0  0
  130.0530  133.0140   57.7590 C   0  0  0  0  0  0  0  0  0  0  0  0
  131.0410  132.2320   58.2890 C   0  0  0  0  0  0  0  0  0  0  0  0
  130.9000  131.6060   59.5230 C   0  0  0  0  0  0  0  0  0  0  0  0
  132.1090  132.2260   57.4490 O   0  0  0  0  0  0  0  0  0  0  0  0
  131.6720  132.8580   56.2760 C   0  0  0  0  0  0  0  0  0  0  0  0
  130.4720  133.5230   56.5710 O   0  0  0  0  0  0  0  0  0  0  0  0
  127.9770  131.3560   64.4970 N   0  0  0  0  0  0  0  0  0  0  0  0
  128.4780  130.0820   64.6540 N   0  0  0  0  0  0  0  0  0  0  0  0
  127.8450  129.1030   65.3200 C   0  0  0  0  0  0  0  0  0  0  0  0
  126.6500  129.2230   65.8980 N   0  0  0  0  0  0  0  0  0  0  0  0
  128.4510  127.9280   65.4110 N   0  0  0  0  0  0  0  0  0  0  0  0
  1  2  1  0
  2  3  1  0
  3  4  1  0
  4  5  1  0
  5  6  2  0
  6  7  1  0
  7  8  2  0
  8  9  1  0
  9 10  2  0
  9 11  1  0
 11 12  1  0
 12 13  1  0
  2 14  2  0
 14 15  1  0
 15 16  1  0
 16 17  1  0
 16 18  2  0
 10  5  1  0
 13  8  1  0
M  CHG  1  18   1
M  END
>  <Binding energies>  (80) 
[-7.11]

>  <Ligand effiencies>  (80) 
[-0.3091304347826087]

>  <Interactions>  (80) 
["V-B:GLU:543:CD:9880, H-A:GLU:543:OE1:4909, V-A:GLU:543:CD:4908, H-A:GLU:543:OE2:4910, H-B:GLU:543:OE2:9882, H-B:GLU:543:OE1:9881, V-B:HIS:456:CE1:9041, V-A:GLU:543:CG:4907, H-B:TYR:484:OH:9319, V-B:TYR:484:CZ:9318, V-A:PRO:540:CA:4883, V-A:PRO:540:CB:4885, V-A:LEU:363:CD1:3189, V-A:PRO:540:CD:4887, V-A:PRO:540:N:4884, V-A:TYR:539:CE1:4875, V-A:TYR:539:CG:4872, V-A:TYR:539:CD1:4873, H-A:TYR:539:N:4870, V-A:ALA:541:CB:4892, V-B:LEU:475:CD2:9230, V-A:TYR:539:CA:4869, V-A:TYR:539:C:4867, V-A:ILE:538:CB:4862, V-A:ILE:538:CA:4860, V-A:ILE:538:CG2:4863"]

$$$$
RR30_Rahimova_2017
     RDKit          3D

 18 19  0  0  0  0  0  0  0  0999 V2000
  126.6820  131.3790   57.3710 C   0  0  0  0  0  0  0  0  0  0  0  0
  127.6790  131.9480   58.3900 C   0  0  0  0  0  0  0  0  0  0  0  0
  128.9650  132.4070   57.7390 C   0  0  0  0  0  0  0  0  0  0  0  0
  129.3010  133.6200   57.3740 N   0  0  0  0  0  0  0  0  0  0  0  0
  130.5740  133.5130   56.8190 N   0  0  0  0  0  0  0  0  0  0  0  0
  130.8930  132.2460   56.8860 C   0  0  0  0  0  0  0  0  0  0  0  0
  132.3920  131.4840   56.3530 S   0  0  0  0  0  0  0  0  0  0  0  0
  132.6550  130.3170   57.7260 C   0  0  0  0  0  0  0  0  0  0  0  0
  132.5200  130.9930   59.0930 C   0  0  0  0  0  0  0  0  0  0  0  0
  133.5000  131.5560   59.5860 O   0  0  0  0  0  0  0  0  0  0  0  0
  131.3100  130.8870   59.6870 N   0  0  0  0  0  0  0  0  0  0  0  0
  130.9500  131.4100   60.9200 C   0  0  0  0  0  0  0  0  0  0  0  0
  131.6830  132.1190   61.7490 N   0  0  0  0  0  0  0  0  0  0  0  0
  130.9870  132.4730   62.8980 N   0  0  0  0  0  0  0  0  0  0  0  0
  129.7510  132.0290   62.9170 C   0  0  0  0  0  0  0  0  0  0  0  0
  128.7970  132.2820   64.0610 C   0  0  0  0  0  0  0  0  0  0  0  0
  129.3350  131.1220   61.4880 S   0  0  0  0  0  0  0  0  0  0  0  0
  129.9240  131.4880   57.4610 O   0  0  0  0  0  0  0  0  0  0  0  0
  1  2  1  0
  2  3  1  0
  3  4  2  0
  4  5  1  0
  5  6  2  0
  6  7  1  0
  7  8  1  0
  8  9  1  0
  9 10  2  0
  9 11  1  0
 11 12  1  0
 12 13  2  0
 13 14  1  0
 14 15  2  0
 15 16  1  0
 15 17  1  0
  6 18  1  0
 18  3  1  0
 17 12  1  0
M  END
>  <Binding energies>  (81) 
[-6.37]

>  <Ligand effiencies>  (81) 
[-0.3352631578947369]

>  <Interactions>  (81) 
["V-A:ASP:366:CB:3212, V-A:ASP:366:CG:3213, V-A:GLU:543:CD:4908, V-A:GLU:543:CG:4907, V-A:PRO:540:CA:4883, V-A:PRO:540:CB:4885, V-A:LEU:363:CD1:3189, V-A:TYR:531:CZ:4794, H-A:TYR:531:OH:4795, V-A:TYR:539:CE1:4875, H-A:ALA:541:N:4891, V-A:TYR:539:CZ:4877, V-A:TYR:539:CD1:4873, H-A:TYR:539:N:4870, V-A:TYR:531:CE2:4793, V-A:ALA:541:CB:4892, H-A:LEU:363:N:3186"]

$$$$
RR31_Rahimova_2017
     RDKit          3D

 18 19  0  0  0  0  0  0  0  0999 V2000
  129.6410  128.4040   72.9560 C   0  0  0  0  0  0  0  0  0  0  0  0
  129.6700  127.9400   71.5050 C   0  0  0  0  0  0  0  0  0  0  0  0
  130.8320  128.1260   70.7550 C   0  0  0  0  0  0  0  0  0  0  0  0
  130.8920  127.7090   69.4270 C   0  0  0  0  0  0  0  0  0  0  0  0
  129.7950  127.0860   68.8110 C   0  0  0  0  0  0  0  0  0  0  0  0
  129.8360  126.6720   67.4780 N   0  0  0  0  0  0  0  0  0  0  0  0
  130.4370  125.3850   67.0770 C   0  0  0  0  0  0  0  0  0  0  0  0
  130.7620  125.2840   65.5680 C   0  0  0  0  0  0  0  0  0  0  0  0
  129.5690  125.5420   64.7570 N   0  0  0  0  0  0  0  0  0  0  0  0
  129.8380  125.4180   63.3210 C   0  0  0  0  0  0  0  0  0  0  0  0
  131.2540  125.8860   62.9300 C   0  0  0  0  0  0  0  0  0  0  0  0
  131.2900  126.5360   61.5370 C   0  0  0  0  0  0  0  0  0  0  0  0
  131.3700  128.0610   61.6720 N   0  0  0  0  0  0  0  0  0  0  0  0
  129.1210  126.9010   65.0580 C   0  0  0  0  0  0  0  0  0  0  0  0
  128.7450  127.0360   66.5520 C   0  0  0  0  0  0  0  0  0  0  0  0
  128.6300  126.9140   69.5740 C   0  0  0  0  0  0  0  0  0  0  0  0
  128.5570  127.3290   70.9090 C   0  0  0  0  0  0  0  0  0  0  0  0
  127.2610  127.1150   71.6820 C   0  0  0  0  0  0  0  0  0  0  0  0
  1  2  1  0
  2  3  2  0
  3  4  1  0
  4  5  2  0
  5  6  1  0
  6  7  1  0
  7  8  1  0
  8  9  1  0
  9 10  1  0
 10 11  1  0
 11 12  1  0
 12 13  1  0
  9 14  1  0
 14 15  1  0
  5 16  1  0
 16 17  2  0
 17 18  1  0
 17  2  1  0
 15  6  1  0
M  CHG  1  13   1
M  END
>  <Binding energies>  (82) 
[-6.5]

>  <Ligand effiencies>  (82) 
[-0.30952380952380953]

>  <Interactions>  (82) 
["V-B:GLU:543:CD:9880, V-A:ASP:366:CG:3213, H-A:GLU:543:OE1:4909, V-B:GLU:543:CG:9879, V-A:GLU:543:CD:4908, H-A:GLU:543:OE2:4910, V-A:HIS:456:CE1:4070, H-A:ASP:366:OD1:3214, V-A:TYR:484:CE2:4346, V-A:GLU:543:C:4902, V-B:GLU:543:C:9874, V-A:TYR:484:CZ:4347, V-B:GLU:543:CB:9878, V-A:GLY:544:C:4912, V-A:GLU:543:CB:4906, V-B:HIS:456:CD2:9039, V-B:HIS:456:CE1:9041, V-B:GLY:544:C:9884, V-B:GLY:544:CA:9886, V-B:HIS:456:CG:9037, H-A:ASP:366:OD2:3215"]

$$$$
RR32_Rahimova_2017
     RDKit          3D

 18 20  0  0  0  0  0  0  0  0999 V2000
  124.6320  123.4900   62.1480 C   0  0  0  0  0  0  0  0  0  0  0  0
  125.7020  123.5030   61.0610 C   0  0  0  0  0  0  0  0  0  0  0  0
  127.0050  123.1480   61.4140 C   0  0  0  0  0  0  0  0  0  0  0  0
  128.0070  123.1450   60.4490 C   0  0  0  0  0  0  0  0  0  0  0  0
  129.2980  122.7920   60.8030 N   0  0  0  0  0  0  0  0  0  0  0  0
  129.6420  121.3590   60.7610 C   0  0  0  0  0  0  0  0  0  0  0  0
  131.0410  121.0500   61.3450 C   0  0  0  0  0  0  0  0  0  0  0  0
  132.0680  121.7980   60.6200 N   0  0  0  0  0  0  0  0  0  0  0  0
  133.3900  121.4820   61.1490 C   0  0  0  0  0  0  0  0  0  0  0  0
  131.7850  123.2230   60.7790 C   0  0  0  0  0  0  0  0  0  0  0  0
  130.3960  123.5640   60.1900 C   0  0  0  0  0  0  0  0  0  0  0  0
  127.7760  123.4800   59.1530 N   0  0  0  0  0  0  0  0  0  0  0  0
  126.5170  123.8340   58.7780 C   0  0  0  0  0  0  0  0  0  0  0  0
  126.3050  124.1800   57.4220 C   0  0  0  0  0  0  0  0  0  0  0  0
  125.0390  124.5500   56.9820 C   0  0  0  0  0  0  0  0  0  0  0  0
  123.9680  124.5830   57.8670 C   0  0  0  0  0  0  0  0  0  0  0  0
  124.1410  124.2480   59.2070 C   0  0  0  0  0  0  0  0  0  0  0  0
  125.4210  123.8640   59.7020 C   0  0  0  0  0  0  0  0  0  0  0  0
  1  2  1  0
  2  3  2  0
  3  4  1  0
  4  5  1  0
  5  6  1  0
  6  7  1  0
  7  8  1  0
  8  9  1  0
  8 10  1  0
 10 11  1  0
  4 12  2  0
 12 13  1  0
 13 14  2  0
 14 15  1  0
 15 16  2  0
 16 17  1  0
 17 18  2  0
 18  2  1  0
 11  5  1  0
 18 13  1  0
M  END
>  <Binding energies>  (83) 
[-5.83]

>  <Ligand effiencies>  (83) 
[-0.3238888888888889]

>  <Interactions>  (83) 
["V-A:ILE:369:CG2:3237, V-B:GLU:543:CD:9880, V-A:LEU:475:CD2:4259, V-B:ASP:366:CB:8183, V-B:TYR:539:C:9839, V-B:TYR:531:CE2:9765, V-B:ASP:366:CG:8184, V-B:PRO:540:CA:9855, V-B:PRO:540:CB:9857, V-B:LEU:363:CD1:8160, V-B:TYR:531:CZ:9766, V-B:LEU:363:CA:8156, V-B:MET:535:CE:9807, V-B:TYR:539:CE2:9848, V-B:PRO:540:C:9853, V-B:TYR:539:CD2:9846, V-B:ASN:362:CB:8147, V-B:LEU:363:CB:8158"]

$$$$
RR5_Rahimova_2017
     RDKit          3D

 45 50  0  0  0  0  0  0  0  0999 V2000
  128.1090  122.2840   58.6640 O   0  0  0  0  0  0  0  0  0  0  0  0
  127.6460  123.1480   59.4070 C   0  0  0  0  0  0  0  0  0  0  0  0
  126.1610  123.5410   59.2900 C   0  0  0  0  0  0  0  0  0  0  0  0
  125.5660  124.1870   60.5920 C   0  0  2  0  0  0  0  0  0  0  0  0
  126.2180  125.4420   61.0180 N   0  0  0  0  0  0  0  0  0  0  0  0
  126.5270  126.4460   60.1100 C   0  0  0  0  0  0  0  0  0  0  0  0
  126.2720  126.4510   58.9030 O   0  0  0  0  0  0  0  0  0  0  0  0
  127.1730  127.4260   60.7660 O   0  0  0  0  0  0  0  0  0  0  0  0
  126.4840  128.5730   61.2550 C   0  0  0  0  0  0  0  0  0  0  0  0
  126.8380  129.8230   60.4200 C   0  0  0  0  0  0  0  0  0  0  0  0
  127.9990  129.6090   59.4650 C   0  0  0  0  0  0  0  0  0  0  0  0
  129.3120  129.2130   59.7360 C   0  0  0  0  0  0  0  0  0  0  0  0
  130.2210  129.0550   58.6880 C   0  0  0  0  0  0  0  0  0  0  0  0
  129.8220  129.2940   57.3720 C   0  0  0  0  0  0  0  0  0  0  0  0
  128.5120  129.6930   57.0990 C   0  0  0  0  0  0  0  0  0  0  0  0
  127.6050  129.8510   58.1490 C   0  0  0  0  0  0  0  0  0  0  0  0
  126.1920  130.2610   58.1540 C   0  0  0  0  0  0  0  0  0  0  0  0
  125.3360  130.6240   57.1110 C   0  0  0  0  0  0  0  0  0  0  0  0
  124.0220  130.9990   57.3950 C   0  0  0  0  0  0  0  0  0  0  0  0
  123.5660  131.0090   58.7150 C   0  0  0  0  0  0  0  0  0  0  0  0
  124.4230  130.6420   59.7530 C   0  0  0  0  0  0  0  0  0  0  0  0
  125.7380  130.2630   59.4730 C   0  0  0  0  0  0  0  0  0  0  0  0
  125.5730  123.1730   61.7620 C   0  0  0  0  0  0  0  0  0  0  0  0
  124.6270  122.4830   62.0850 O   0  0  0  0  0  0  0  0  0  0  0  0
  126.8040  123.1630   62.3540 O   0  0  0  0  0  0  0  0  0  0  0  0
  128.3420  123.7860   60.3750 N   0  0  0  0  0  0  0  0  0  0  0  0
  129.7620  123.7200   60.8330 C   0  0  0  0  0  0  0  0  0  0  0  0
  129.6890  124.4280   62.2280 C   0  0  0  0  0  0  0  0  0  0  0  0
  129.9430  123.7280   63.4200 C   0  0  0  0  0  0  0  0  0  0  0  0
  129.8770  124.3690   64.6540 C   0  0  0  0  0  0  0  0  0  0  0  0
  129.5450  125.7170   64.7190 C   0  0  0  0  0  0  0  0  0  0  0  0
  129.2900  126.4350   63.5560 C   0  0  0  0  0  0  0  0  0  0  0  0
  129.3670  125.7970   62.3220 C   0  0  0  0  0  0  0  0  0  0  0  0
  130.1470  122.2070   60.9460 C   0  0  0  0  0  0  0  0  0  0  0  0
  131.4160  121.7380   60.5730 C   0  0  0  0  0  0  0  0  0  0  0  0
  131.7300  120.3840   60.6630 C   0  0  0  0  0  0  0  0  0  0  0  0
  130.7780  119.4810   61.1250 C   0  0  0  0  0  0  0  0  0  0  0  0
  129.5140  119.9220   61.5040 C   0  0  0  0  0  0  0  0  0  0  0  0
  129.2060  121.2760   61.4220 C   0  0  0  0  0  0  0  0  0  0  0  0
  130.5960  124.5290   59.7830 C   0  0  0  0  0  0  0  0  0  0  0  0
  129.9690  125.1680   58.6980 C   0  0  0  0  0  0  0  0  0  0  0  0
  130.7060  125.8820   57.7570 C   0  0  0  0  0  0  0  0  0  0  0  0
  132.0860  125.9750   57.8880 C   0  0  0  0  0  0  0  0  0  0  0  0
  132.7330  125.3660   58.9570 C   0  0  0  0  0  0  0  0  0  0  0  0
  131.9930  124.6530   59.8960 C   0  0  0  0  0  0  0  0  0  0  0  0
  1  2  2  0
  2  3  1  0
  4  3  1  6
  4  5  1  0
  5  6  1  0
  6  7  2  0
  6  8  1  0
  8  9  1  0
  9 10  1  0
 10 11  1  0
 11 12  2  0
 12 13  1  0
 13 14  2  0
 14 15  1  0
 15 16  2  0
 16 17  1  0
 17 18  2  0
 18 19  1  0
 19 20  2  0
 20 21  1  0
 21 22  2  0
  4 23  1  0
 23 24  2  0
 23 25  1  0
  2 26  1  0
 26 27  1  0
 27 28  1  0
 28 29  2  0
 29 30  1  0
 30 31  2  0
 31 32  1  0
 32 33  2  0
 27 34  1  0
 34 35  2  0
 35 36  1  0
 36 37  2  0
 37 38  1  0
 38 39  2  0
 27 40  1  0
 40 41  2  0
 41 42  1  0
 42 43  2  0
 43 44  1  0
 44 45  2  0
 22 10  1  0
 33 28  1  0
 39 34  1  0
 45 40  1  0
 16 11  1  0
 22 17  1  0
M  END
>  <Binding energies>  (84) 
[-9.41]

>  <Ligand effiencies>  (84) 
[-0.19604166666666667]

>  <Interactions>  (84) 
["V-A:ASP:366:CB:3212, V-B:GLU:543:CD:9880, V-A:ASP:366:CA:3210, V-A:ASP:366:CG:3213, V-B:GLU:543:CG:9879, V-A:GLU:543:CD:4908, V-A:LEU:475:CD2:4259, V-B:ALA:541:CB:9864, V-B:ASP:366:CB:8183, V-B:TYR:539:C:9839, H-B:ALA:541:N:9863, H-B:GLU:543:OE1:9881, V-B:ASP:366:CG:8184, H-B:ASP:366:OD1:8185, V-B:PRO:540:CA:9855, V-B:PRO:540:CB:9857, V-B:PRO:540:N:9856, V-B:TYR:531:CZ:9766, V-B:TYR:539:CZ:9849, V-B:TYR:539:CE2:9848, V-B:PRO:540:C:9853, V-A:MET:535:CE:4835, V-B:TYR:539:CD2:9846, V-B:ALA:541:CA:9862, H-B:TYR:531:OH:9767, V-A:TYR:539:CE1:4875, V-A:TYR:539:CZ:4877, V-B:ASP:366:C:8179, V-B:ASP:366:CA:8181, V-B:ILE:369:CG2:8208, V-B:ILE:369:CB:8207"]

$$$$
