1a_Ghoteimi_2023
     RDKit          3D

 40 43  0  0  0  0  0  0  0  0999 V2000
  132.8080  118.2170   57.2460 C   0  0  0  0  0  0  0  0  0  0  0  0
  132.6610  118.6190   58.7160 C   0  0  0  0  0  0  0  0  0  0  0  0
  131.4150  118.1440   59.2130 O   0  0  0  0  0  0  0  0  0  0  0  0
  131.0810  118.2860   60.5210 C   0  0  0  0  0  0  0  0  0  0  0  0
  130.9830  117.3380   61.3060 O   0  0  0  0  0  0  0  0  0  0  0  0
  130.8460  119.7150   60.9200 C   0  0  0  0  0  0  0  0  0  0  0  0
  131.8180  120.7080   60.7300 C   0  0  0  0  0  0  0  0  0  0  0  0
  131.5730  122.0240   61.1130 C   0  0  0  0  0  0  0  0  0  0  0  0
  130.3430  122.3720   61.6910 C   0  0  0  0  0  0  0  0  0  0  0  0
  129.9900  123.6660   62.1190 N   0  0  0  0  0  0  0  0  0  0  0  0
  129.0260  124.4950   61.6640 C   0  0  0  0  0  0  0  0  0  0  0  0
  128.2340  124.2430   60.7560 O   0  0  0  0  0  0  0  0  0  0  0  0
  128.9380  125.8500   62.3670 C   0  0  0  0  0  0  0  0  0  0  0  0
  130.0130  125.9190   63.8310 S   0  0  0  0  0  0  0  0  0  0  0  0
  129.1520  126.9090   65.0310 C   0  0  0  0  0  0  0  0  0  0  0  0
  128.4420  127.9290   64.4930 N   0  0  0  0  0  0  0  0  0  0  0  0
  127.7340  128.7590   65.3040 C   0  0  0  0  0  0  0  0  0  0  0  0
  126.9550  129.8530   64.6310 C   0  0  0  0  0  0  0  0  0  0  0  0
  125.5570  129.7890   64.5160 C   0  0  0  0  0  0  0  0  0  0  0  0
  124.8380  130.8050   63.8920 C   0  0  0  0  0  0  0  0  0  0  0  0
  125.4930  131.9140   63.3620 C   0  0  0  0  0  0  0  0  0  0  0  0
  124.7000  132.8750   62.7630 O   0  0  0  0  0  0  0  0  0  0  0  0
  123.6340  132.4630   61.9140 C   0  0  0  0  0  0  0  0  0  0  0  0
  126.8890  131.9910   63.4650 C   0  0  0  0  0  0  0  0  0  0  0  0
  127.6040  130.9730   64.0890 C   0  0  0  0  0  0  0  0  0  0  0  0
  127.7330  128.5700   66.6910 C   0  0  0  0  0  0  0  0  0  0  0  0
  128.4800  127.5370   67.2720 C   0  0  0  0  0  0  0  0  0  0  0  0
  128.4580  127.4160   68.7610 C   0  0  0  0  0  0  0  0  0  0  0  0
  127.3110  126.9690   69.4270 C   0  0  0  0  0  0  0  0  0  0  0  0
  127.3030  126.8440   70.8130 C   0  0  0  0  0  0  0  0  0  0  0  0
  128.4390  127.1550   71.5600 C   0  0  0  0  0  0  0  0  0  0  0  0
  128.3380  127.0000   72.9290 O   0  0  0  0  0  0  0  0  0  0  0  0
  127.8150  128.0680   73.7120 C   0  0  0  0  0  0  0  0  0  0  0  0
  129.5940  127.5960   70.8950 C   0  0  0  0  0  0  0  0  0  0  0  0
  129.5990  127.7220   69.5080 C   0  0  0  0  0  0  0  0  0  0  0  0
  129.2120  126.6740   66.4210 C   0  0  0  0  0  0  0  0  0  0  0  0
  130.0000  125.5660   66.9700 C   0  0  0  0  0  0  0  0  0  0  0  0
  130.6220  124.6910   67.4030 N   0  0  0  0  0  0  0  0  0  0  0  0
  129.3750  121.3860   61.8850 C   0  0  0  0  0  0  0  0  0  0  0  0
  129.6220  120.0700   61.5020 C   0  0  0  0  0  0  0  0  0  0  0  0
  1  2  1  0
  2  3  1  0
  3  4  1  0
  4  5  2  0
  4  6  1  0
  6  7  2  0
  7  8  1  0
  8  9  2  0
  9 10  1  0
 10 11  1  0
 11 12  2  0
 11 13  1  0
 13 14  1  0
 14 15  1  0
 15 16  2  0
 16 17  1  0
 17 18  1  0
 18 19  2  0
 19 20  1  0
 20 21  2  0
 21 22  1  0
 22 23  1  0
 21 24  1  0
 24 25  2  0
 17 26  2  0
 26 27  1  0
 27 28  1  0
 28 29  2  0
 29 30  1  0
 30 31  2  0
 31 32  1  0
 32 33  1  0
 31 34  1  0
 34 35  2  0
 27 36  2  0
 36 37  1  0
 37 38  3  0
  9 39  1  0
 39 40  2  0
 40  6  1  0
 36 15  1  0
 25 18  1  0
 35 28  1  0
M  END
>  <Binding energies>  (1) 
[-8.51]

>  <Ligand effiencies>  (1) 
[-0.2075609756097561]

>  <Interactions>  (1) 
["V-B:GLU:543:CD:9880, H-A:TYR:484:OH:4348, V-B:GLU:543:CG:9879, V-A:GLU:543:CD:4908, V-A:LEU:475:CD2:4259, V-A:HIS:456:CE1:4070, V-B:ALA:541:CB:9864, V-B:TYR:539:C:9839, V-B:TYR:539:CE2:9848, V-B:PRO:540:C:9853, V-B:TYR:539:CD2:9846, V-B:TYR:539:CG:9844, V-B:GLU:543:C:9874, V-B:GLU:543:CB:9878, V-A:GLU:543:CB:4906, V-B:HIS:456:CD2:9039, V-B:HIS:456:CE1:9041, V-A:HIS:383:NE2:3394, V-B:GLY:544:C:9884, V-B:GLY:544:CA:9886, V-B:ARG:545:CZ:9898, H-A:SER:385:OG:3410, V-B:GLY:454:CA:9020, V-B:ILE:369:CG2:8208, H-B:LYS:547:NZ:9923, H-A:HIS:383:HE2:3395, V-B:TYR:539:CB:9843, V-A:HIS:383:CD2:3392, V-A:LEU:373:CD1:3280, V-B:ILE:369:CG1:8209, V-A:LEU:373:CG:3279, V-A:LEU:373:CD2:3281, V-A:HIS:383:CG:3390"]

$$$$
1b_Ghoteimi_2023
     RDKit          3D

 34 37  0  0  0  0  0  0  0  0999 V2000
  128.6330  128.4010   74.8890 C   0  0  0  0  0  0  0  0  0  0  0  0
  129.1280  127.2740   74.1760 O   0  0  0  0  0  0  0  0  0  0  0  0
  129.0070  127.2420   72.8000 C   0  0  0  0  0  0  0  0  0  0  0  0
  130.1310  127.6130   72.0650 C   0  0  0  0  0  0  0  0  0  0  0  0
  130.1020  127.6120   70.6740 C   0  0  0  0  0  0  0  0  0  0  0  0
  128.9460  127.2360   69.9730 C   0  0  0  0  0  0  0  0  0  0  0  0
  128.9180  127.2380   68.4700 C   0  0  0  0  0  0  0  0  0  0  0  0
  129.6730  126.3530   67.6930 C   0  0  0  0  0  0  0  0  0  0  0  0
  129.6070  126.3940   66.2950 C   0  0  0  0  0  0  0  0  0  0  0  0
  130.4440  125.4220   65.5290 C   0  0  0  0  0  0  0  0  0  0  0  0
  129.9280  124.1730   65.1750 C   0  0  0  0  0  0  0  0  0  0  0  0
  130.7070  123.2600   64.4690 C   0  0  0  0  0  0  0  0  0  0  0  0
  132.0170  123.5760   64.1080 C   0  0  0  0  0  0  0  0  0  0  0  0
  132.7150  122.6090   63.4090 O   0  0  0  0  0  0  0  0  0  0  0  0
  133.6320  123.0110   62.3980 C   0  0  0  0  0  0  0  0  0  0  0  0
  132.5420  124.8260   64.4680 C   0  0  0  0  0  0  0  0  0  0  0  0
  131.7600  125.7360   65.1750 C   0  0  0  0  0  0  0  0  0  0  0  0
  128.7500  127.3450   65.6870 C   0  0  0  0  0  0  0  0  0  0  0  0
  128.5730  127.3650   64.2320 C   0  0  0  0  0  0  0  0  0  0  0  0
  128.4340  127.3790   63.0830 N   0  0  0  0  0  0  0  0  0  0  0  0
  128.0320  128.2230   66.5290 C   0  0  0  0  0  0  0  0  0  0  0  0
  126.9180  129.4830   65.9430 S   0  0  0  0  0  0  0  0  0  0  0  0
  127.2000  129.6940   64.1530 C   0  0  0  0  0  0  0  0  0  0  0  0
  128.2970  130.7030   63.7830 C   0  0  0  0  0  0  0  0  0  0  0  0
  128.3890  131.7790   64.3780 O   0  0  0  0  0  0  0  0  0  0  0  0
  129.1110  130.3070   62.7800 N   0  0  0  0  0  0  0  0  0  0  0  0
  130.1830  131.0090   62.2400 C   0  0  0  0  0  0  0  0  0  0  0  0
  130.8970  130.5690   61.1260 C   0  0  0  0  0  0  0  0  0  0  0  0
  131.8590  131.5300   60.9150 C   0  0  0  0  0  0  0  0  0  0  0  0
  131.7290  132.4990   61.8530 O   0  0  0  0  0  0  0  0  0  0  0  0
  130.6640  132.1580   62.6860 N   0  0  0  0  0  0  0  0  0  0  0  0
  128.1030  128.1520   67.8800 N   0  0  0  0  0  0  0  0  0  0  0  0
  127.8190  126.8660   70.7230 C   0  0  0  0  0  0  0  0  0  0  0  0
  127.8430  126.8660   72.1140 C   0  0  0  0  0  0  0  0  0  0  0  0
  1  2  1  0
  2  3  1  0
  3  4  2  0
  4  5  1  0
  5  6  2  0
  6  7  1  0
  7  8  2  0
  8  9  1  0
  9 10  1  0
 10 11  2  0
 11 12  1  0
 12 13  2  0
 13 14  1  0
 14 15  1  0
 13 16  1  0
 16 17  2  0
  9 18  2  0
 18 19  1  0
 19 20  3  0
 18 21  1  0
 21 22  1  0
 22 23  1  0
 23 24  1  0
 24 25  2  0
 24 26  1  0
 26 27  1  0
 27 28  1  0
 28 29  2  0
 29 30  1  0
 30 31  1  0
 21 32  2  0
  6 33  1  0
 33 34  2  0
 34  3  1  0
 32  7  1  0
 17 10  1  0
 31 27  2  0
M  END
>  <Binding energies>  (2) 
[-8.62]

>  <Ligand effiencies>  (2) 
[-0.24628571428571427]

>  <Interactions>  (2) 
["V-B:GLU:543:CD:9880, H-A:GLU:543:OE1:4909, H-A:TYR:484:OH:4348, V-B:GLU:543:CG:9879, V-A:GLU:543:CD:4908, V-A:ARG:545:CZ:4926, V-A:LEU:475:CD2:4259, V-A:HIS:456:CE1:4070, V-A:GLY:454:CA:4049, V-A:TYR:484:CE2:4346, V-B:GLU:543:C:9874, V-B:GLU:543:CB:9878, V-B:HIS:456:CE1:9041, V-B:GLY:544:C:9884, V-A:GLU:543:CG:4907, H-B:TYR:484:OH:9319, V-A:PRO:540:CA:4883, V-A:PRO:540:CB:4885, H-A:ALA:541:N:4891, H-B:LYS:547:NZ:9923"]

$$$$
1c_Ghoteimi_2023
     RDKit          3D

 34 37  0  0  0  0  0  0  0  0999 V2000
  127.7810  128.6940   74.4400 C   0  0  0  0  0  0  0  0  0  0  0  0
  128.5150  127.6630   73.7890 O   0  0  0  0  0  0  0  0  0  0  0  0
  128.6020  127.6630   72.4100 C   0  0  0  0  0  0  0  0  0  0  0  0
  127.6330  126.9370   71.7230 C   0  0  0  0  0  0  0  0  0  0  0  0
  127.6460  126.8800   70.3320 C   0  0  0  0  0  0  0  0  0  0  0  0
  128.6310  127.5470   69.5860 C   0  0  0  0  0  0  0  0  0  0  0  0
  128.6510  127.4840   68.0860 C   0  0  0  0  0  0  0  0  0  0  0  0
  128.0870  128.4780   67.2800 C   0  0  0  0  0  0  0  0  0  0  0  0
  128.1550  128.3890   65.8840 C   0  0  0  0  0  0  0  0  0  0  0  0
  127.5920  129.5180   65.0870 C   0  0  0  0  0  0  0  0  0  0  0  0
  126.2810  129.4640   64.6040 C   0  0  0  0  0  0  0  0  0  0  0  0
  125.7650  130.5080   63.8430 C   0  0  0  0  0  0  0  0  0  0  0  0
  126.5490  131.6230   63.5460 C   0  0  0  0  0  0  0  0  0  0  0  0
  125.9540  132.6110   62.7840 O   0  0  0  0  0  0  0  0  0  0  0  0
  124.5990  132.9630   63.0400 C   0  0  0  0  0  0  0  0  0  0  0  0
  127.8680  131.6780   64.0230 C   0  0  0  0  0  0  0  0  0  0  0  0
  128.3820  130.6320   64.7840 C   0  0  0  0  0  0  0  0  0  0  0  0
  128.7800  127.2560   65.3110 C   0  0  0  0  0  0  0  0  0  0  0  0
  128.8530  127.0870   63.8560 C   0  0  0  0  0  0  0  0  0  0  0  0
  128.9110  126.9550   62.7080 N   0  0  0  0  0  0  0  0  0  0  0  0
  129.3420  126.3000   66.1830 C   0  0  0  0  0  0  0  0  0  0  0  0
  130.3020  124.9180   65.6040 S   0  0  0  0  0  0  0  0  0  0  0  0
  132.0330  125.3760   65.9470 C   0  0  0  0  0  0  0  0  0  0  0  0
  132.9840  124.9130   64.8380 C   0  0  0  0  0  0  0  0  0  0  0  0
  134.2010  124.9990   65.0060 O   0  0  0  0  0  0  0  0  0  0  0  0
  132.3840  124.3920   63.7450 N   0  0  0  0  0  0  0  0  0  0  0  0
  133.0080  123.7660   62.6770 C   0  0  0  0  0  0  0  0  0  0  0  0
  133.5420  122.5640   62.6450 N   0  0  0  0  0  0  0  0  0  0  0  0
  134.0130  122.2760   61.4480 C   0  0  0  0  0  0  0  0  0  0  0  0
  133.8620  123.2590   60.4740 C   0  0  0  0  0  0  0  0  0  0  0  0
  133.0600  124.6330   61.1770 S   0  0  0  0  0  0  0  0  0  0  0  0
  129.2860  126.4180   67.5310 N   0  0  0  0  0  0  0  0  0  0  0  0
  129.5980  128.2800   70.2900 C   0  0  0  0  0  0  0  0  0  0  0  0
  129.5900  128.3390   71.6800 C   0  0  0  0  0  0  0  0  0  0  0  0
  1  2  1  0
  2  3  1  0
  3  4  2  0
  4  5  1  0
  5  6  2  0
  6  7  1  0
  7  8  2  0
  8  9  1  0
  9 10  1  0
 10 11  2  0
 11 12  1  0
 12 13  2  0
 13 14  1  0
 14 15  1  0
 13 16  1  0
 16 17  2  0
  9 18  2  0
 18 19  1  0
 19 20  3  0
 18 21  1  0
 21 22  1  0
 22 23  1  0
 23 24  1  0
 24 25  2  0
 24 26  1  0
 26 27  1  0
 27 28  2  0
 28 29  1  0
 29 30  2  0
 30 31  1  0
 21 32  2  0
  6 33  1  0
 33 34  2  0
 34  3  1  0
 32  7  1  0
 17 10  1  0
 31 27  1  0
M  END
>  <Binding energies>  (3) 
[-8.17]

>  <Ligand effiencies>  (3) 
[-0.23342857142857143]

>  <Interactions>  (3) 
["V-A:ILE:369:CG2:3237, V-A:ILE:369:CD1:3239, V-B:GLU:543:CD:9880, H-A:ARG:545:NH1:4927, H-A:ARG:545:NH2:4928, H-A:GLY:454:N:4050, V-A:ASP:366:CG:3213, H-A:TYR:484:OH:4348, V-B:GLU:543:CG:9879, H-A:ARG:545:NE:4924, V-A:ILE:369:CB:3236, V-A:GLU:543:CD:4908, V-A:ARG:545:CZ:4926, V-A:GLU:543:C:4902, V-B:GLU:543:C:9874, V-A:TYR:484:CZ:4347, V-B:GLU:543:CB:9878, V-A:GLU:543:CB:4906, V-B:HIS:456:CD2:9039, V-B:HIS:456:CE1:9041, V-B:GLY:544:C:9884, V-B:GLY:544:CA:9886, V-A:GLU:543:CG:4907, V-B:GLY:454:CA:9020, V-B:LEU:475:CD2:9230, H-B:LYS:547:NZ:9923"]

$$$$
1d_Ghoteimi_2023
     RDKit          3D

 30 32  0  0  0  0  0  0  0  0999 V2000
  131.7590  126.1360   59.1270 C   0  0  0  0  0  0  0  0  0  0  0  0
  132.0720  124.8500   58.6140 O   0  0  0  0  0  0  0  0  0  0  0  0
  133.3360  124.3810   58.6670 C   0  0  0  0  0  0  0  0  0  0  0  0
  133.9610  123.8650   57.7390 O   0  0  0  0  0  0  0  0  0  0  0  0
  133.9590  124.5460   60.0510 C   0  0  0  0  0  0  0  0  0  0  0  0
  133.3860  123.1600   61.0780 S   0  0  0  0  0  0  0  0  0  0  0  0
  131.8220  123.6410   61.7770 C   0  0  0  0  0  0  0  0  0  0  0  0
  130.7770  123.4960   60.9270 N   0  0  0  0  0  0  0  0  0  0  0  0
  129.5250  123.8300   61.3310 C   0  0  0  0  0  0  0  0  0  0  0  0
  128.4220  123.6350   60.3310 C   0  0  0  0  0  0  0  0  0  0  0  0
  128.6750  123.0800   59.0670 C   0  0  0  0  0  0  0  0  0  0  0  0
  127.6530  122.9060   58.1390 C   0  0  0  0  0  0  0  0  0  0  0  0
  126.3470  123.2810   58.4440 C   0  0  0  0  0  0  0  0  0  0  0  0
  125.3970  123.0740   57.4620 O   0  0  0  0  0  0  0  0  0  0  0  0
  124.6350  124.1810   56.9900 C   0  0  0  0  0  0  0  0  0  0  0  0
  126.0780  123.8370   59.7020 C   0  0  0  0  0  0  0  0  0  0  0  0
  127.1030  124.0080   60.6280 C   0  0  0  0  0  0  0  0  0  0  0  0
  129.2990  124.3150   62.6250 C   0  0  0  0  0  0  0  0  0  0  0  0
  130.3630  124.4880   63.5190 C   0  0  0  0  0  0  0  0  0  0  0  0
  130.0510  125.0170   64.8820 C   0  0  0  0  0  0  0  0  0  0  0  0
  129.4990  126.2920   65.0320 C   0  0  0  0  0  0  0  0  0  0  0  0
  129.2050  126.7910   66.2990 C   0  0  0  0  0  0  0  0  0  0  0  0
  129.4520  126.0250   67.4380 C   0  0  0  0  0  0  0  0  0  0  0  0
  129.1370  126.6030   68.6520 O   0  0  0  0  0  0  0  0  0  0  0  0
  129.1250  128.0220   68.7640 C   0  0  0  0  0  0  0  0  0  0  0  0
  129.9940  124.7390   67.2900 C   0  0  0  0  0  0  0  0  0  0  0  0
  130.2860  124.2420   66.0230 C   0  0  0  0  0  0  0  0  0  0  0  0
  131.6710  124.1630   63.0820 C   0  0  0  0  0  0  0  0  0  0  0  0
  132.8320  124.4220   63.9380 C   0  0  0  0  0  0  0  0  0  0  0  0
  133.7480  124.6270   64.6140 N   0  0  0  0  0  0  0  0  0  0  0  0
  1  2  1  0
  2  3  1  0
  3  4  2  0
  3  5  1  0
  5  6  1  0
  6  7  1  0
  7  8  2  0
  8  9  1  0
  9 10  1  0
 10 11  2  0
 11 12  1  0
 12 13  2  0
 13 14  1  0
 14 15  1  0
 13 16  1  0
 16 17  2  0
  9 18  2  0
 18 19  1  0
 19 20  1  0
 20 21  2  0
 21 22  1  0
 22 23  2  0
 23 24  1  0
 24 25  1  0
 23 26  1  0
 26 27  2  0
 19 28  2  0
 28 29  1  0
 29 30  3  0
 28  7  1  0
 17 10  1  0
 27 20  1  0
M  END
>  <Binding energies>  (4) 
[-7.7]

>  <Ligand effiencies>  (4) 
[-0.25666666666666665]

>  <Interactions>  (4) 
["V-A:ILE:369:CG2:3237, V-A:ILE:369:CD1:3239, V-A:ASP:366:CB:3212, V-B:GLU:543:CD:9880, H-A:ARG:545:NH2:4928, H-A:GLY:454:N:4050, V-A:ASP:366:CA:3210, V-A:ASP:366:CG:3213, H-A:TYR:484:OH:4348, V-B:GLU:543:CG:9879, H-A:ARG:545:NE:4924, V-A:GLU:543:CD:4908, V-A:ARG:545:CZ:4926, V-A:HIS:456:CE1:4070, V-B:TYR:539:C:9839, V-B:TYR:531:CE2:9765, V-B:PRO:540:CA:9855, V-B:PRO:540:CB:9857, V-B:PRO:540:N:9856, V-B:LEU:363:CD1:8160, V-B:MET:535:CE:9807, V-B:TYR:539:CZ:9849, V-B:TYR:539:CE2:9848, V-B:TYR:539:CD2:9846, V-A:TYR:484:CE2:4346, V-B:GLU:543:CA:9876, V-A:TYR:484:CZ:4347, V-B:GLU:543:CB:9878, V-A:GLU:543:CB:4906, V-B:HIS:456:CE1:9041, H-B:TYR:539:OH:9850, H-A:ASN:370:N:3244"]

$$$$
1j_Grossjean_2025
     RDKit          3D

 20 21  0  0  0  0  0  0  0  0999 V2000
  128.4540  122.3980   62.4800 C   0  0  0  0  0  0  0  0  0  0  0  0
  129.6730  123.0260   63.1300 C   0  0  0  0  0  0  0  0  0  0  0  0
  129.5570  123.8890   64.2170 C   0  0  0  0  0  0  0  0  0  0  0  0
  130.7160  124.4280   64.7830 C   0  0  0  0  0  0  0  0  0  0  0  0
  130.5640  125.3590   65.9860 C   0  0  0  0  0  0  0  0  0  0  0  0
  131.9740  124.0920   64.2340 C   0  0  0  0  0  0  0  0  0  0  0  0
  133.2050  124.6030   64.8440 C   0  0  0  0  0  0  0  0  0  0  0  0
  134.1740  125.0080   65.3290 N   0  0  0  0  0  0  0  0  0  0  0  0
  131.9960  123.2290   63.1130 C   0  0  0  0  0  0  0  0  0  0  0  0
  133.4870  122.7030   62.2960 S   0  0  0  0  0  0  0  0  0  0  0  0
  133.0710  122.3450   60.5630 C   0  0  0  0  0  0  0  0  0  0  0  0
  132.7380  120.8680   60.3460 C   0  0  0  0  0  0  0  0  0  0  0  0
  133.5680  120.1340   59.8090 O   0  0  0  0  0  0  0  0  0  0  0  0
  131.5200  120.4750   60.7800 N   0  0  0  0  0  0  0  0  0  0  0  0
  130.9820  119.1990   60.6940 C   0  0  0  0  0  0  0  0  0  0  0  0
  131.2390  118.2740   59.7940 N   0  0  0  0  0  0  0  0  0  0  0  0
  130.5460  117.1750   60.0190 C   0  0  0  0  0  0  0  0  0  0  0  0
  129.7030  117.1940   61.1250 C   0  0  0  0  0  0  0  0  0  0  0  0
  129.8330  118.7400   61.9090 S   0  0  0  0  0  0  0  0  0  0  0  0
  130.8670  122.6940   62.5850 N   0  0  0  0  0  0  0  0  0  0  0  0
  1  2  1  0
  2  3  2  0
  3  4  1  0
  4  5  1  0
  4  6  2  0
  6  7  1  0
  7  8  3  0
  6  9  1  0
  9 10  1  0
 10 11  1  0
 11 12  1  0
 12 13  2  0
 12 14  1  0
 14 15  1  0
 15 16  2  0
 16 17  1  0
 17 18  2  0
 18 19  1  0
  9 20  2  0
 20  2  1  0
 19 15  1  0
M  END
>  <Binding energies>  (5) 
[-6.45]

>  <Ligand effiencies>  (5) 
[-0.30714285714285716]

>  <Interactions>  (5) 
["V-A:ILE:369:CG2:3237, V-B:GLU:543:CD:9880, H-A:ARG:545:NH1:4927, H-A:ARG:545:NH2:4928, H-A:GLY:454:N:4050, H-A:TYR:484:OH:4348, V-B:GLU:543:CG:9879, H-A:ARG:545:NE:4924, V-A:ARG:545:CZ:4926, V-A:LEU:475:CD2:4259, V-B:ALA:541:CB:9864, V-A:GLY:454:CA:4049, V-B:TYR:539:CE2:9848, V-B:TYR:539:CD2:9846, V-B:ALA:541:CA:9862, V-A:PRO:482:CB:4326, V-A:HIS:383:CE1:3393, V-A:PRO:482:CG:4327, V-A:HIS:383:NE2:3394, H-A:SER:385:OG:3410, V-A:LEU:475:CG:4257, V-A:LEU:475:CD1:4258, V-B:VAL:344:CG1:7972, H-A:HIS:383:HE2:3395, V-B:TYR:539:CB:9843, V-A:HIS:383:CD2:3392"]

$$$$
1o_Grossjean_2025
     RDKit          3D

 26 27  0  0  0  0  0  0  0  0999 V2000
  129.1320  128.8940   72.9750 C   0  0  0  0  0  0  0  0  0  0  0  0
  129.6420  127.5760   72.8280 O   0  0  0  0  0  0  0  0  0  0  0  0
  128.9730  126.6440   72.1010 C   0  0  0  0  0  0  0  0  0  0  0  0
  128.5730  125.5740   72.5690 O   0  0  0  0  0  0  0  0  0  0  0  0
  128.7640  127.0470   70.6690 C   0  0  0  0  0  0  0  0  0  0  0  0
  127.5330  126.8700   70.0210 C   0  0  0  0  0  0  0  0  0  0  0  0
  127.3720  127.2570   68.6920 C   0  0  0  0  0  0  0  0  0  0  0  0
  128.4350  127.8200   67.9850 C   0  0  0  0  0  0  0  0  0  0  0  0
  128.1590  128.1820   66.6520 N   0  0  0  0  0  0  0  0  0  0  0  0
  128.1220  129.4040   66.0770 C   0  0  0  0  0  0  0  0  0  0  0  0
  128.3810  130.4640   66.6460 O   0  0  0  0  0  0  0  0  0  0  0  0
  127.7530  129.4220   64.5860 C   0  0  0  0  0  0  0  0  0  0  0  0
  127.4140  130.8310   64.0580 C   0  0  0  0  0  0  0  0  0  0  0  0
  128.7860  132.0160   64.1870 S   0  0  0  0  0  0  0  0  0  0  0  0
  129.6770  132.0170   62.6440 C   0  0  0  0  0  0  0  0  0  0  0  0
  131.0020  131.7570   62.7850 N   0  0  0  0  0  0  0  0  0  0  0  0
  131.7800  131.7230   61.6780 C   0  0  0  0  0  0  0  0  0  0  0  0
  133.2470  131.4130   61.9140 C   0  0  0  0  0  0  0  0  0  0  0  0
  131.2800  131.9570   60.4000 C   0  0  0  0  0  0  0  0  0  0  0  0
  129.9210  132.2500   60.2450 C   0  0  0  0  0  0  0  0  0  0  0  0
  129.3990  132.5170   58.8340 C   0  0  0  0  0  0  0  0  0  0  0  0
  129.0880  132.2960   61.3870 C   0  0  0  0  0  0  0  0  0  0  0  0
  127.6760  132.6600   61.2510 C   0  0  0  0  0  0  0  0  0  0  0  0
  126.5610  132.9470   61.1410 N   0  0  0  0  0  0  0  0  0  0  0  0
  129.6680  128.0040   68.6290 C   0  0  0  0  0  0  0  0  0  0  0  0
  129.8270  127.6180   69.9570 C   0  0  0  0  0  0  0  0  0  0  0  0
  1  2  1  0
  2  3  1  0
  3  4  2  0
  3  5  1  0
  5  6  2  0
  6  7  1  0
  7  8  2  0
  8  9  1  0
  9 10  1  0
 10 11  2  0
 10 12  1  0
 12 13  1  0
 13 14  1  0
 14 15  1  0
 15 16  2  0
 16 17  1  0
 17 18  1  0
 17 19  2  0
 19 20  1  0
 20 21  1  0
 20 22  2  0
 22 23  1  0
 23 24  3  0
  8 25  1  0
 25 26  2  0
 26  5  1  0
 22 15  1  0
M  END
>  <Binding energies>  (6) 
[-7.76]

>  <Ligand effiencies>  (6) 
[-0.2874074074074074]

>  <Interactions>  (6) 
["V-B:GLU:543:CD:9880, V-A:GLU:543:CD:4908, V-A:HIS:456:CE1:4070, H-B:GLU:543:OE2:9882, H-B:GLU:543:OE1:9881, V-B:GLU:543:C:9874, V-A:HIS:456:CD2:4068, V-B:GLU:543:CB:9878, V-A:GLU:543:CB:4906, V-B:HIS:456:CD2:9039, V-B:HIS:456:CE1:9041, V-B:GLY:544:C:9884, V-A:GLU:543:CG:4907, H-B:TYR:484:OH:9319, V-A:PRO:540:CA:4883, V-A:PRO:540:CB:4885, V-A:PRO:540:N:4884, H-A:ALA:541:N:4891, V-A:ALA:541:CB:4892, V-A:TYR:539:C:4867, H-B:LYS:547:NZ:9923, V-A:ASN:362:CB:3176"]

$$$$
1p_Grossjean_2025
     RDKit          3D

 21 22  0  0  0  0  0  0  0  0999 V2000
  130.2790  125.9150   58.2810 C   0  0  0  0  0  0  0  0  0  0  0  0
  131.1100  124.9200   59.0680 C   0  0  0  0  0  0  0  0  0  0  0  0
  132.4930  125.0530   59.1800 C   0  0  0  0  0  0  0  0  0  0  0  0
  133.2110  124.0980   59.9070 C   0  0  0  0  0  0  0  0  0  0  0  0
  134.7270  124.2560   60.0050 C   0  0  0  0  0  0  0  0  0  0  0  0
  132.5170  123.0280   60.5160 C   0  0  0  0  0  0  0  0  0  0  0  0
  133.2510  121.9890   61.2410 C   0  0  0  0  0  0  0  0  0  0  0  0
  133.8320  121.1690   61.8150 N   0  0  0  0  0  0  0  0  0  0  0  0
  131.1100  122.9840   60.3680 C   0  0  0  0  0  0  0  0  0  0  0  0
  130.0850  121.7150   61.0760 S   0  0  0  0  0  0  0  0  0  0  0  0
  129.1150  122.4980   62.3970 C   0  0  0  0  0  0  0  0  0  0  0  0
  128.2060  123.6420   61.9070 C   0  0  0  0  0  0  0  0  0  0  0  0
  127.2140  123.2120   60.8160 C   0  0  0  0  0  0  0  0  0  0  0  0
  126.0650  122.8970   61.1310 O   0  0  0  0  0  0  0  0  0  0  0  0
  127.6920  123.2280   59.5510 N   0  0  0  0  0  0  0  0  0  0  0  0
  127.0090  122.8900   58.3900 C   0  0  0  0  0  0  0  0  0  0  0  0
  125.7840  123.4540   58.0350 C   0  0  0  0  0  0  0  0  0  0  0  0
  125.4510  122.8630   56.8380 C   0  0  0  0  0  0  0  0  0  0  0  0
  126.4220  121.9860   56.4910 O   0  0  0  0  0  0  0  0  0  0  0  0
  127.4040  122.0110   57.4840 N   0  0  0  0  0  0  0  0  0  0  0  0
  130.4250  123.9040   59.6430 N   0  0  0  0  0  0  0  0  0  0  0  0
  1  2  1  0
  2  3  2  0
  3  4  1  0
  4  5  1  0
  4  6  2  0
  6  7  1  0
  7  8  3  0
  6  9  1  0
  9 10  1  0
 10 11  1  0
 11 12  1  0
 12 13  1  0
 13 14  2  0
 13 15  1  0
 15 16  1  0
 16 17  1  0
 17 18  2  0
 18 19  1  0
 19 20  1  0
  9 21  2  0
 21  2  1  0
 20 16  2  0
M  END
>  <Binding energies>  (7) 
[-6.31]

>  <Ligand effiencies>  (7) 
[-0.2868181818181818]

>  <Interactions>  (7) 
["V-A:ILE:369:CG2:3237, V-A:ILE:369:CD1:3239, V-A:ASP:366:CB:3212, V-A:ASP:366:CA:3210, V-A:ASP:366:CG:3213, V-A:ILE:369:CB:3236, V-A:LEU:475:CD2:4259, V-B:ALA:541:CB:9864, V-B:TYR:539:C:9839, H-B:ALA:541:N:9863, V-B:PRO:540:CD:9859, V-B:PRO:540:CA:9855, V-B:PRO:540:CB:9857, V-B:PRO:540:N:9856, V-B:LEU:363:CD1:8160, V-B:MET:535:CE:9807, V-B:TYR:539:CZ:9849, V-B:TYR:539:CE2:9848, H-B:TYR:539:N:9842, V-B:PRO:540:C:9853, V-B:TYR:539:CD2:9846, H-A:SER:385:OG:3410, V-A:ILE:369:CG1:3238"]

$$$$
2a_Ghoteimi_2023
     RDKit          3D

 48 53  0  0  0  0  0  0  0  0999 V2000
  125.6640  131.0060   56.7070 C   0  0  0  0  0  0  0  0  0  0  0  0
  124.2680  130.6700   57.2410 C   0  0  0  0  0  0  0  0  0  0  0  0
  124.3300  130.5030   58.6510 O   0  0  0  0  0  0  0  0  0  0  0  0
  125.5220  130.4580   59.3010 C   0  0  0  0  0  0  0  0  0  0  0  0
  126.1920  131.4620   59.5630 O   0  0  0  0  0  0  0  0  0  0  0  0
  125.9400  129.0650   59.6760 C   0  0  0  0  0  0  0  0  0  0  0  0
  126.2620  128.1010   58.7100 C   0  0  0  0  0  0  0  0  0  0  0  0
  126.6480  126.8200   59.0910 C   0  0  0  0  0  0  0  0  0  0  0  0
  126.7240  126.4750   60.4420 C   0  0  0  0  0  0  0  0  0  0  0  0
  127.1200  125.1510   60.7140 N   0  0  0  0  0  0  0  0  0  0  0  0
  127.4250  124.1470   59.8630 C   0  0  0  0  0  0  0  0  0  0  0  0
  127.3570  124.2140   58.6350 O   0  0  0  0  0  0  0  0  0  0  0  0
  127.8430  122.8310   60.5310 C   0  0  0  0  0  0  0  0  0  0  0  0
  129.4660  122.8870   61.3560 S   0  0  0  0  0  0  0  0  0  0  0  0
  129.5260  124.4540   62.1920 C   0  0  0  0  0  0  0  0  0  0  0  0
  129.6150  125.5170   61.3590 N   0  0  0  0  0  0  0  0  0  0  0  0
  129.6770  126.7680   61.8790 C   0  0  0  0  0  0  0  0  0  0  0  0
  129.7830  127.8930   60.9000 C   0  0  0  0  0  0  0  0  0  0  0  0
  130.2070  127.6710   59.5830 C   0  0  0  0  0  0  0  0  0  0  0  0
  130.3150  128.7230   58.6790 C   0  0  0  0  0  0  0  0  0  0  0  0
  129.9970  130.0370   59.0530 C   0  0  0  0  0  0  0  0  0  0  0  0
  130.1400  131.0880   58.1420 N   0  0  0  0  0  0  0  0  0  0  0  0
  131.4040  131.8430   58.0290 C   0  0  0  0  0  0  0  0  0  0  0  0
  131.5040  132.7040   56.7520 C   0  0  0  0  0  0  0  0  0  0  0  0
  130.3850  133.5710   56.6620 O   0  0  0  0  0  0  0  0  0  0  0  0
  129.1700  132.8430   56.5980 C   0  0  0  0  0  0  0  0  0  0  0  0
  128.9970  131.9850   57.8700 C   0  0  0  0  0  0  0  0  0  0  0  0
  129.5850  130.2550   60.3780 C   0  0  0  0  0  0  0  0  0  0  0  0
  129.4740  129.2030   61.2810 C   0  0  0  0  0  0  0  0  0  0  0  0
  129.6370  126.9800   63.2600 C   0  0  0  0  0  0  0  0  0  0  0  0
  129.5460  125.8950   64.1420 C   0  0  0  0  0  0  0  0  0  0  0  0
  129.5140  126.1920   65.6060 C   0  0  0  0  0  0  0  0  0  0  0  0
  128.7520  127.2590   66.0900 C   0  0  0  0  0  0  0  0  0  0  0  0
  128.7320  127.5570   67.4500 C   0  0  0  0  0  0  0  0  0  0  0  0
  129.4710  126.7940   68.3670 C   0  0  0  0  0  0  0  0  0  0  0  0
  129.4790  127.0880   69.7340 N   0  0  0  0  0  0  0  0  0  0  0  0
  128.1950  127.2190   70.4530 C   0  0  0  0  0  0  0  0  0  0  0  0
  128.3460  127.1510   71.9870 C   0  0  0  0  0  0  0  0  0  0  0  0
  129.2740  128.1300   72.4280 O   0  0  0  0  0  0  0  0  0  0  0  0
  130.5570  127.9350   71.8530 C   0  0  0  0  0  0  0  0  0  0  0  0
  130.4640  128.0200   70.3150 C   0  0  0  0  0  0  0  0  0  0  0  0
  130.2420  125.7330   67.8720 C   0  0  0  0  0  0  0  0  0  0  0  0
  130.2640  125.4360   66.5120 C   0  0  0  0  0  0  0  0  0  0  0  0
  129.4820  124.5890   63.5980 C   0  0  0  0  0  0  0  0  0  0  0  0
  129.3290  123.4180   64.4680 C   0  0  0  0  0  0  0  0  0  0  0  0
  129.2090  122.4960   65.1560 N   0  0  0  0  0  0  0  0  0  0  0  0
  126.3950  127.4310   61.4140 C   0  0  0  0  0  0  0  0  0  0  0  0
  126.0110  128.7140   61.0310 C   0  0  0  0  0  0  0  0  0  0  0  0
  1  2  1  0
  2  3  1  0
  3  4  1  0
  4  5  2  0
  4  6  1  0
  6  7  2  0
  7  8  1  0
  8  9  2  0
  9 10  1  0
 10 11  1  0
 11 12  2  0
 11 13  1  0
 13 14  1  0
 14 15  1  0
 15 16  2  0
 16 17  1  0
 17 18  1  0
 18 19  2  0
 19 20  1  0
 20 21  2  0
 21 22  1  0
 22 23  1  0
 23 24  1  0
 24 25  1  0
 25 26  1  0
 26 27  1  0
 21 28  1  0
 28 29  2  0
 17 30  2  0
 30 31  1  0
 31 32  1  0
 32 33  2  0
 33 34  1  0
 34 35  2  0
 35 36  1  0
 36 37  1  0
 37 38  1  0
 38 39  1  0
 39 40  1  0
 40 41  1  0
 35 42  1  0
 42 43  2  0
 31 44  2  0
 44 45  1  0
 45 46  3  0
  9 47  1  0
 47 48  2  0
 48  6  1  0
 44 15  1  0
 29 18  1  0
 43 32  1  0
 27 22  1  0
 41 36  1  0
M  END
>  <Binding energies>  (8) 
[-9.57]

>  <Ligand effiencies>  (8) 
[-0.1953061224489796]

>  <Interactions>  (8) 
["V-B:GLU:543:CD:9880, V-B:GLU:543:CG:9879, V-A:GLU:543:CD:4908, V-A:HIS:456:CE1:4070, V-B:ASP:366:CB:8183, H-B:GLU:543:OE1:9881, V-B:ASP:366:CG:8184, V-B:PRO:540:CA:9855, V-B:TYR:531:CZ:9766, V-B:PRO:540:C:9853, V-A:MET:535:CE:4835, V-A:GLU:543:C:4902, V-B:GLU:543:CB:9878, V-A:GLY:544:C:4912, V-A:GLU:543:CB:4906, V-B:HIS:456:CE1:9041, V-A:PRO:540:CA:4883, V-A:PRO:540:CB:4885, V-A:LEU:363:CD1:3189, V-A:PRO:540:CD:4887, V-A:PRO:540:N:4884, V-A:TYR:539:CE1:4875, V-A:TYR:539:CZ:4877, H-A:TYR:539:N:4870, V-B:ASP:366:C:8179, V-B:ASP:366:CA:8181, V-A:ILE:538:CB:4862, V-A:ILE:538:CA:4860, V-A:ILE:538:CG2:4863"]

$$$$
2aa_Ghoteimi_2023
     RDKit          3D

 48 53  0  0  0  0  0  0  0  0999 V2000
  134.3780  123.0630   62.1650 C   0  0  0  0  0  0  0  0  0  0  0  0
  133.8850  122.9310   60.7200 C   0  0  0  0  0  0  0  0  0  0  0  0
  134.2960  124.0710   59.9770 O   0  0  0  0  0  0  0  0  0  0  0  0
  133.4520  124.6830   59.1050 C   0  0  0  0  0  0  0  0  0  0  0  0
  133.5400  124.5670   57.8780 O   0  0  0  0  0  0  0  0  0  0  0  0
  132.3910  125.5020   59.7830 C   0  0  0  0  0  0  0  0  0  0  0  0
  132.2860  125.5680   61.1800 C   0  0  0  0  0  0  0  0  0  0  0  0
  131.2940  126.3390   61.7790 C   0  0  0  0  0  0  0  0  0  0  0  0
  130.3850  127.0530   60.9960 C   0  0  0  0  0  0  0  0  0  0  0  0
  129.4260  127.8030   61.7050 N   0  0  0  0  0  0  0  0  0  0  0  0
  128.0870  127.8720   61.5390 C   0  0  0  0  0  0  0  0  0  0  0  0
  127.4420  127.2310   60.7080 O   0  0  0  0  0  0  0  0  0  0  0  0
  127.3730  128.8240   62.5080 C   0  0  0  0  0  0  0  0  0  0  0  0
  128.2140  129.0830   63.6370 O   0  0  0  0  0  0  0  0  0  0  0  0
  128.6130  128.0400   64.4620 C   0  0  0  0  0  0  0  0  0  0  0  0
  128.9290  126.8490   63.8820 N   0  0  0  0  0  0  0  0  0  0  0  0
  129.3260  125.8100   64.6590 C   0  0  0  0  0  0  0  0  0  0  0  0
  129.6530  124.5330   63.9520 C   0  0  0  0  0  0  0  0  0  0  0  0
  130.8110  123.8150   64.2720 C   0  0  0  0  0  0  0  0  0  0  0  0
  131.1160  122.6220   63.6220 C   0  0  0  0  0  0  0  0  0  0  0  0
  130.2670  122.0940   62.6370 C   0  0  0  0  0  0  0  0  0  0  0  0
  130.5660  120.9030   61.9650 N   0  0  0  0  0  0  0  0  0  0  0  0
  129.5940  119.7920   61.8990 C   0  0  0  0  0  0  0  0  0  0  0  0
  130.2090  118.4540   61.4410 C   0  0  0  0  0  0  0  0  0  0  0  0
  130.8720  118.6230   60.1980 O   0  0  0  0  0  0  0  0  0  0  0  0
  131.9220  119.5720   60.2950 C   0  0  0  0  0  0  0  0  0  0  0  0
  131.3580  120.9450   60.7190 C   0  0  0  0  0  0  0  0  0  0  0  0
  129.1190  122.8280   62.3050 C   0  0  0  0  0  0  0  0  0  0  0  0
  128.8160  124.0220   62.9530 C   0  0  0  0  0  0  0  0  0  0  0  0
  129.4010  125.9350   66.0490 C   0  0  0  0  0  0  0  0  0  0  0  0
  129.0700  127.1450   66.6720 C   0  0  0  0  0  0  0  0  0  0  0  0
  129.1440  127.2110   68.1640 C   0  0  0  0  0  0  0  0  0  0  0  0
  128.0240  126.9030   68.9400 C   0  0  0  0  0  0  0  0  0  0  0  0
  128.0800  126.9810   70.3290 C   0  0  0  0  0  0  0  0  0  0  0  0
  129.2560  127.3830   70.9820 C   0  0  0  0  0  0  0  0  0  0  0  0
  129.3360  127.4650   72.3750 N   0  0  0  0  0  0  0  0  0  0  0  0
  130.0000  126.4140   73.1690 C   0  0  0  0  0  0  0  0  0  0  0  0
  130.3020  126.8410   74.6220 C   0  0  0  0  0  0  0  0  0  0  0  0
  129.1100  127.2780   75.2570 O   0  0  0  0  0  0  0  0  0  0  0  0
  128.5360  128.3880   74.5830 C   0  0  0  0  0  0  0  0  0  0  0  0
  128.1870  128.0020   73.1310 C   0  0  0  0  0  0  0  0  0  0  0  0
  130.3760  127.6830   70.1950 C   0  0  0  0  0  0  0  0  0  0  0  0
  130.3200  127.6050   68.8070 C   0  0  0  0  0  0  0  0  0  0  0  0
  128.6790  128.2310   65.8540 C   0  0  0  0  0  0  0  0  0  0  0  0
  128.3630  129.5470   66.4140 C   0  0  0  0  0  0  0  0  0  0  0  0
  128.1140  130.5870   66.8570 N   0  0  0  0  0  0  0  0  0  0  0  0
  130.4880  126.9990   59.5990 C   0  0  0  0  0  0  0  0  0  0  0  0
  131.4830  126.2290   59.0030 C   0  0  0  0  0  0  0  0  0  0  0  0
  1  2  1  0
  2  3  1  0
  3  4  1  0
  4  5  2  0
  4  6  1  0
  6  7  2  0
  7  8  1  0
  8  9  2  0
  9 10  1  0
 10 11  1  0
 11 12  2  0
 11 13  1  0
 13 14  1  0
 14 15  1  0
 15 16  2  0
 16 17  1  0
 17 18  1  0
 18 19  2  0
 19 20  1  0
 20 21  2  0
 21 22  1  0
 22 23  1  0
 23 24  1  0
 24 25  1  0
 25 26  1  0
 26 27  1  0
 21 28  1  0
 28 29  2  0
 17 30  2  0
 30 31  1  0
 31 32  1  0
 32 33  2  0
 33 34  1  0
 34 35  2  0
 35 36  1  0
 36 37  1  0
 37 38  1  0
 38 39  1  0
 39 40  1  0
 40 41  1  0
 35 42  1  0
 42 43  2  0
 31 44  2  0
 44 45  1  0
 45 46  3  0
  9 47  1  0
 47 48  2  0
 48  6  1  0
 44 15  1  0
 29 18  1  0
 43 32  1  0
 27 22  1  0
 41 36  1  0
M  END
>  <Binding energies>  (9) 
[-8.56]

>  <Ligand effiencies>  (9) 
[-0.17469387755102042]

>  <Interactions>  (9) 
["V-A:ILE:369:CG2:3237, V-A:ILE:369:CD1:3239, V-A:ASP:366:CB:3212, V-A:GLY:453:C:4042, V-B:GLU:543:CD:9880, V-A:ASP:366:CA:3210, V-A:ASP:366:CG:3213, H-A:GLU:543:OE1:4909, V-B:GLU:543:CG:9879, V-A:ILE:369:CB:3236, V-A:GLU:543:CD:4908, V-A:LEU:475:CD2:4259, V-A:HIS:456:CE1:4070, V-B:ALA:541:CB:9864, V-A:GLY:454:CA:4049, V-B:TYR:539:CE2:9848, V-B:PRO:540:C:9853, V-B:TYR:539:CD2:9846, V-B:ALA:541:CA:9862, V-B:GLU:543:C:9874, V-A:HIS:456:CD2:4068, V-B:GLU:543:CB:9878, V-A:SER:385:CB:3409, V-A:PRO:482:CB:4326, V-A:GLU:543:CB:4906, V-B:HIS:456:CD2:9039, V-B:HIS:456:CE1:9041, V-A:GLU:543:CG:4907, H-B:TYR:484:OH:9319, V-B:TYR:484:CZ:9318, H-B:TYR:539:OH:9850, H-A:SER:385:OG:3410, H-A:LYS:547:NZ:4951, H-B:LYS:547:NZ:9923, V-A:LEU:475:CG:4257, H-A:HIS:383:HE2:3395"]

$$$$
2b_Ghoteimi_2023
     RDKit          3D

 42 47  0  0  0  0  0  0  0  0999 V2000
  128.5560  127.7640   61.7960 N   0  0  0  0  0  0  0  0  0  0  0  0
  128.6330  127.6960   62.9490 C   0  0  0  0  0  0  0  0  0  0  0  0
  128.7340  127.6040   64.4080 C   0  0  0  0  0  0  0  0  0  0  0  0
  129.4340  126.5320   65.0160 C   0  0  0  0  0  0  0  0  0  0  0  0
  130.1070  125.4400   64.2510 C   0  0  0  0  0  0  0  0  0  0  0  0
  131.3210  125.6800   63.6040 C   0  0  0  0  0  0  0  0  0  0  0  0
  131.9520  124.6660   62.8880 C   0  0  0  0  0  0  0  0  0  0  0  0
  131.3780  123.3890   62.7860 C   0  0  0  0  0  0  0  0  0  0  0  0
  131.9980  122.3540   62.0850 N   0  0  0  0  0  0  0  0  0  0  0  0
  131.2010  121.5470   61.1390 C   0  0  0  0  0  0  0  0  0  0  0  0
  131.8890  120.2280   60.7300 C   0  0  0  0  0  0  0  0  0  0  0  0
  133.1840  120.4920   60.2120 O   0  0  0  0  0  0  0  0  0  0  0  0
  134.0090  121.1400   61.1670 C   0  0  0  0  0  0  0  0  0  0  0  0
  133.3790  122.4860   61.5790 C   0  0  0  0  0  0  0  0  0  0  0  0
  130.1580  123.1600   63.4360 C   0  0  0  0  0  0  0  0  0  0  0  0
  129.5280  124.1720   64.1550 C   0  0  0  0  0  0  0  0  0  0  0  0
  129.5080  126.4900   66.4130 C   0  0  0  0  0  0  0  0  0  0  0  0
  128.9300  127.5030   67.1830 C   0  0  0  0  0  0  0  0  0  0  0  0
  129.0060  127.5210   68.6770 C   0  0  0  0  0  0  0  0  0  0  0  0
  130.1630  127.9630   69.3270 C   0  0  0  0  0  0  0  0  0  0  0  0
  130.2360  127.9980   70.7170 C   0  0  0  0  0  0  0  0  0  0  0  0
  129.1570  127.5780   71.5110 C   0  0  0  0  0  0  0  0  0  0  0  0
  129.2030  127.6360   72.9080 N   0  0  0  0  0  0  0  0  0  0  0  0
  130.4240  127.2080   73.6220 C   0  0  0  0  0  0  0  0  0  0  0  0
  130.2030  126.9550   75.1290 C   0  0  0  0  0  0  0  0  0  0  0  0
  129.6340  128.1050   75.7360 O   0  0  0  0  0  0  0  0  0  0  0  0
  128.3770  128.4280   75.1640 C   0  0  0  0  0  0  0  0  0  0  0  0
  128.5420  128.7220   73.6570 C   0  0  0  0  0  0  0  0  0  0  0  0
  127.9960  127.1420   70.8550 C   0  0  0  0  0  0  0  0  0  0  0  0
  127.9240  127.1110   69.4650 C   0  0  0  0  0  0  0  0  0  0  0  0
  128.2610  128.5300   66.6000 N   0  0  0  0  0  0  0  0  0  0  0  0
  128.1470  128.5750   65.2510 C   0  0  0  0  0  0  0  0  0  0  0  0
  127.2360  129.9840   64.6590 S   0  0  0  0  0  0  0  0  0  0  0  0
  127.5840  130.1560   62.8830 C   0  0  0  0  0  0  0  0  0  0  0  0
  128.7380  131.1240   62.6140 C   0  0  0  0  0  0  0  0  0  0  0  0
  128.5490  132.3360   62.7330 O   0  0  0  0  0  0  0  0  0  0  0  0
  129.9060  130.5510   62.2510 N   0  0  0  0  0  0  0  0  0  0  0  0
  131.1030  131.1890   61.9620 C   0  0  0  0  0  0  0  0  0  0  0  0
  131.8470  130.9260   60.8130 C   0  0  0  0  0  0  0  0  0  0  0  0
  132.9440  131.7500   60.9000 C   0  0  0  0  0  0  0  0  0  0  0  0
  132.8650  132.4740   62.0420 O   0  0  0  0  0  0  0  0  0  0  0  0
  131.6910  132.1100   62.7070 N   0  0  0  0  0  0  0  0  0  0  0  0
  1  2  3  0
  2  3  1  0
  3  4  2  0
  4  5  1  0
  5  6  2  0
  6  7  1  0
  7  8  2  0
  8  9  1  0
  9 10  1  0
 10 11  1  0
 11 12  1  0
 12 13  1  0
 13 14  1  0
  8 15  1  0
 15 16  2  0
  4 17  1  0
 17 18  2  0
 18 19  1  0
 19 20  2  0
 20 21  1  0
 21 22  2  0
 22 23  1  0
 23 24  1  0
 24 25  1  0
 25 26  1  0
 26 27  1  0
 27 28  1  0
 22 29  1  0
 29 30  2  0
 18 31  1  0
 31 32  2  0
 32 33  1  0
 33 34  1  0
 34 35  1  0
 35 36  2  0
 35 37  1  0
 37 38  1  0
 38 39  1  0
 39 40  2  0
 40 41  1  0
 41 42  1  0
 32  3  1  0
 42 38  2  0
 16  5  1  0
 30 19  1  0
 14  9  1  0
 28 23  1  0
M  END
>  <Binding energies>  (10) 
[-10.29]

>  <Ligand effiencies>  (10) 
[-0.23930232558139533]

>  <Interactions>  (10) 
["V-A:ILE:369:CG2:3237, V-A:ILE:369:CD1:3239, V-B:GLU:543:CD:9880, H-A:GLU:543:OE1:4909, V-B:GLU:543:CG:9879, V-A:GLU:543:CD:4908, V-A:LEU:475:CD2:4259, V-A:HIS:456:CE1:4070, V-B:TYR:539:CE2:9848, V-B:TYR:539:CD2:9846, V-A:GLU:543:C:4902, V-B:GLU:543:C:9874, V-A:HIS:456:CD2:4068, V-B:GLU:543:CB:9878, V-A:GLY:544:C:4912, V-A:SER:385:CB:3409, V-A:GLU:543:CB:4906, V-B:HIS:456:CD2:9039, V-B:HIS:456:CE1:9041, V-A:GLU:543:CG:4907, H-B:TYR:484:OH:9319, V-A:PRO:540:CA:4883, V-A:PRO:540:CB:4885, H-A:ALA:541:N:4891, V-A:SER:385:C:3405, V-A:SER:385:CA:3407, H-A:SER:385:OG:3410, H-A:LYS:547:NZ:4951, H-B:LYS:547:NZ:9923"]

$$$$
2c_Ghoteimi_2023
     RDKit          3D

 42 47  0  0  0  0  0  0  0  0999 V2000
  128.5000  127.6720   61.7030 N   0  0  0  0  0  0  0  0  0  0  0  0
  128.5940  127.6230   62.8550 C   0  0  0  0  0  0  0  0  0  0  0  0
  128.7170  127.5560   64.3140 C   0  0  0  0  0  0  0  0  0  0  0  0
  129.4140  126.4870   64.9310 C   0  0  0  0  0  0  0  0  0  0  0  0
  130.0590  125.3700   64.1780 C   0  0  0  0  0  0  0  0  0  0  0  0
  131.2670  125.5800   63.5090 C   0  0  0  0  0  0  0  0  0  0  0  0
  131.8770  124.5430   62.8090 C   0  0  0  0  0  0  0  0  0  0  0  0
  131.2900  123.2700   62.7460 C   0  0  0  0  0  0  0  0  0  0  0  0
  131.8950  122.2100   62.0660 N   0  0  0  0  0  0  0  0  0  0  0  0
  131.0920  121.4030   61.1250 C   0  0  0  0  0  0  0  0  0  0  0  0
  131.7570  120.0610   60.7520 C   0  0  0  0  0  0  0  0  0  0  0  0
  133.0610  120.2900   60.2390 O   0  0  0  0  0  0  0  0  0  0  0  0
  133.8910  120.9400   61.1880 C   0  0  0  0  0  0  0  0  0  0  0  0
  133.2820  122.3050   61.5730 C   0  0  0  0  0  0  0  0  0  0  0  0
  130.0750  123.0700   63.4180 C   0  0  0  0  0  0  0  0  0  0  0  0
  129.4670  124.1060   64.1200 C   0  0  0  0  0  0  0  0  0  0  0  0
  129.5070  126.4700   66.3290 C   0  0  0  0  0  0  0  0  0  0  0  0
  128.9460  127.5010   67.0880 C   0  0  0  0  0  0  0  0  0  0  0  0
  129.0330  127.5380   68.5800 C   0  0  0  0  0  0  0  0  0  0  0  0
  127.9580  127.1160   69.3690 C   0  0  0  0  0  0  0  0  0  0  0  0
  128.0350  127.1430   70.7600 C   0  0  0  0  0  0  0  0  0  0  0  0
  129.1890  127.6050   71.4140 C   0  0  0  0  0  0  0  0  0  0  0  0
  129.2920  127.6150   72.8090 N   0  0  0  0  0  0  0  0  0  0  0  0
  128.1740  128.1320   73.6250 C   0  0  0  0  0  0  0  0  0  0  0  0
  128.5660  128.4400   75.0860 C   0  0  0  0  0  0  0  0  0  0  0  0
  129.1400  127.2930   75.6870 O   0  0  0  0  0  0  0  0  0  0  0  0
  130.3130  126.8800   75.0040 C   0  0  0  0  0  0  0  0  0  0  0  0
  129.9780  126.5290   73.5390 C   0  0  0  0  0  0  0  0  0  0  0  0
  130.2680  128.0160   70.6180 C   0  0  0  0  0  0  0  0  0  0  0  0
  130.1910  127.9870   69.2280 C   0  0  0  0  0  0  0  0  0  0  0  0
  128.2810  128.5250   66.4950 N   0  0  0  0  0  0  0  0  0  0  0  0
  128.1510  128.5480   65.1470 C   0  0  0  0  0  0  0  0  0  0  0  0
  127.2430  129.9520   64.5430 S   0  0  0  0  0  0  0  0  0  0  0  0
  125.4750  129.5350   64.6220 C   0  0  0  0  0  0  0  0  0  0  0  0
  124.7300  129.9500   63.3530 C   0  0  0  0  0  0  0  0  0  0  0  0
  123.5690  130.3520   63.4380 O   0  0  0  0  0  0  0  0  0  0  0  0
  125.4280  129.8320   62.2030 N   0  0  0  0  0  0  0  0  0  0  0  0
  124.9870  130.1560   60.9280 C   0  0  0  0  0  0  0  0  0  0  0  0
  124.0640  131.0300   60.5900 N   0  0  0  0  0  0  0  0  0  0  0  0
  123.9040  131.0860   59.2830 C   0  0  0  0  0  0  0  0  0  0  0  0
  124.7110  130.2400   58.5280 C   0  0  0  0  0  0  0  0  0  0  0  0
  125.7320  129.3270   59.5990 S   0  0  0  0  0  0  0  0  0  0  0  0
  1  2  3  0
  2  3  1  0
  3  4  2  0
  4  5  1  0
  5  6  2  0
  6  7  1  0
  7  8  2  0
  8  9  1  0
  9 10  1  0
 10 11  1  0
 11 12  1  0
 12 13  1  0
 13 14  1  0
  8 15  1  0
 15 16  2  0
  4 17  1  0
 17 18  2  0
 18 19  1  0
 19 20  2  0
 20 21  1  0
 21 22  2  0
 22 23  1  0
 23 24  1  0
 24 25  1  0
 25 26  1  0
 26 27  1  0
 27 28  1  0
 22 29  1  0
 29 30  2  0
 18 31  1  0
 31 32  2  0
 32 33  1  0
 33 34  1  0
 34 35  1  0
 35 36  2  0
 35 37  1  0
 37 38  1  0
 38 39  2  0
 39 40  1  0
 40 41  2  0
 41 42  1  0
 32  3  1  0
 42 38  1  0
 16  5  1  0
 30 19  1  0
 14  9  1  0
 28 23  1  0
M  END
>  <Binding energies>  (11) 
[-9.78]

>  <Ligand effiencies>  (11) 
[-0.22744186046511627]

>  <Interactions>  (11) 
["V-A:ILE:369:CG2:3237, V-A:ILE:369:CD1:3239, V-B:GLU:543:CD:9880, V-B:GLU:543:CG:9879, V-A:GLU:543:CD:4908, V-A:LEU:475:CD2:4259, V-A:HIS:456:CE1:4070, V-B:ASP:366:CB:8183, V-B:ASP:366:CG:8184, H-B:ARG:545:NH2:9900, V-B:TYR:539:CE2:9848, V-B:TYR:539:CD2:9846, V-A:GLU:543:C:4902, V-B:GLU:543:C:9874, V-A:HIS:456:CD2:4068, V-B:GLU:543:CB:9878, V-A:GLY:544:C:4912, V-A:SER:385:CB:3409, V-A:GLU:543:CB:4906, V-B:HIS:456:CD2:9039, V-B:HIS:456:CE1:9041, V-B:ARG:545:CZ:9898, V-A:GLU:543:CG:4907, H-B:TYR:484:OH:9319, V-A:SER:385:C:3405, V-A:SER:385:CA:3407, H-A:SER:385:OG:3410, V-B:ASP:366:CA:8181, V-B:ILE:369:CG2:8208, H-A:LYS:547:NZ:4951, V-B:ILE:369:CB:8207, H-B:LYS:547:NZ:9923, H-B:GLY:454:N:9021"]

$$$$
2j_Grossjean_2025
     RDKit          3D

 23 24  0  0  0  0  0  0  0  0999 V2000
  128.4120  122.3590   62.5460 C   0  0  0  0  0  0  0  0  0  0  0  0
  129.8260  122.8970   62.6600 C   0  0  0  0  0  0  0  0  0  0  0  0
  130.7880  122.6350   61.6870 C   0  0  0  0  0  0  0  0  0  0  0  0
  132.0810  123.1580   61.8360 C   0  0  0  0  0  0  0  0  0  0  0  0
  133.1320  122.8580   60.7490 C   0  0  0  0  0  0  0  0  0  0  0  0
  132.7100  121.8620   59.9690 F   0  0  0  0  0  0  0  0  0  0  0  0
  133.3330  123.9410   59.9970 F   0  0  0  0  0  0  0  0  0  0  0  0
  134.3120  122.4980   61.2590 F   0  0  0  0  0  0  0  0  0  0  0  0
  132.3670  123.9410   62.9820 C   0  0  0  0  0  0  0  0  0  0  0  0
  133.7010  124.5120   63.1890 C   0  0  0  0  0  0  0  0  0  0  0  0
  134.7540  124.9630   63.3510 N   0  0  0  0  0  0  0  0  0  0  0  0
  131.3300  124.1570   63.9210 C   0  0  0  0  0  0  0  0  0  0  0  0
  131.5750  125.1280   65.4000 S   0  0  0  0  0  0  0  0  0  0  0  0
  129.9560  125.7790   65.9360 C   0  0  0  0  0  0  0  0  0  0  0  0
  129.7630  125.8580   67.4580 C   0  0  0  0  0  0  0  0  0  0  0  0
  129.4330  124.8610   68.1030 O   0  0  0  0  0  0  0  0  0  0  0  0
  129.9710  127.0820   67.9920 N   0  0  0  0  0  0  0  0  0  0  0  0
  129.8680  127.4310   69.3320 C   0  0  0  0  0  0  0  0  0  0  0  0
  128.7990  127.3840   70.0980 N   0  0  0  0  0  0  0  0  0  0  0  0
  129.0630  127.7880   71.3250 C   0  0  0  0  0  0  0  0  0  0  0  0
  130.3760  128.1760   71.5760 C   0  0  0  0  0  0  0  0  0  0  0  0
  131.3060  127.9980   70.1190 S   0  0  0  0  0  0  0  0  0  0  0  0
  130.0840  123.6430   63.7580 N   0  0  0  0  0  0  0  0  0  0  0  0
  1  2  1  0
  2  3  2  0
  3  4  1  0
  4  5  1  0
  5  6  1  0
  5  7  1  0
  5  8  1  0
  4  9  2  0
  9 10  1  0
 10 11  3  0
  9 12  1  0
 12 13  1  0
 13 14  1  0
 14 15  1  0
 15 16  2  0
 15 17  1  0
 17 18  1  0
 18 19  2  0
 19 20  1  0
 20 21  2  0
 21 22  1  0
 12 23  2  0
 23  2  1  0
 22 18  1  0
M  END
>  <Binding energies>  (12) 
[-5.64]

>  <Ligand effiencies>  (12) 
[-0.235]

>  <Interactions>  (12) 
["V-A:ILE:369:CG2:3237, V-A:ILE:369:CD1:3239, V-B:GLU:543:CD:9880, H-A:ARG:545:NH1:4927, H-A:ARG:545:NH2:4928, H-A:GLY:454:N:4050, H-A:TYR:484:OH:4348, V-B:GLU:543:CG:9879, V-A:ILE:369:CB:3236, V-A:GLU:543:CD:4908, V-A:ARG:545:CZ:4926, H-A:GLU:543:OE2:4910, V-A:LEU:475:CD2:4259, V-A:HIS:456:CE1:4070, V-B:ALA:541:CB:9864, V-B:TYR:539:CE2:9848, V-B:TYR:539:CD2:9846, V-B:ALA:541:CA:9862, V-A:GLU:543:C:4902, V-B:GLU:543:CB:9878, V-A:GLY:544:C:4912, V-A:GLU:543:CB:4906, V-B:HIS:456:CD2:9039, V-B:HIS:456:CE1:9041, V-A:ARG:545:CA:4919, V-A:ILE:369:CG1:3238"]

$$$$
3ab_Grossjean_2025
     RDKit          3D

 33 35  0  0  0  0  0  0  0  0999 V2000
  129.4870  130.7910   73.2120 C   0  0  0  0  0  0  0  0  0  0  0  0
  130.1190  129.5360   73.0020 O   0  0  0  0  0  0  0  0  0  0  0  0
  129.3880  128.4160   72.7690 C   0  0  0  0  0  0  0  0  0  0  0  0
  128.6800  127.8750   73.6230 O   0  0  0  0  0  0  0  0  0  0  0  0
  129.5230  127.9010   71.3650 C   0  0  0  0  0  0  0  0  0  0  0  0
  128.4760  127.2290   70.7150 C   0  0  0  0  0  0  0  0  0  0  0  0
  128.6290  126.7630   69.4130 C   0  0  0  0  0  0  0  0  0  0  0  0
  129.8410  126.9610   68.7330 C   0  0  0  0  0  0  0  0  0  0  0  0
  130.1050  126.5390   67.4160 N   0  0  0  0  0  0  0  0  0  0  0  0
  129.9670  125.3200   66.8530 C   0  0  0  0  0  0  0  0  0  0  0  0
  129.5780  124.3050   67.4300 O   0  0  0  0  0  0  0  0  0  0  0  0
  130.3410  125.2370   65.3710 C   0  0  0  0  0  0  0  0  0  0  0  0
  129.8070  123.6700   64.6180 S   0  0  0  0  0  0  0  0  0  0  0  0
  130.2860  123.7110   62.9040 C   0  0  0  0  0  0  0  0  0  0  0  0
  129.2430  123.6030   62.0480 N   0  0  0  0  0  0  0  0  0  0  0  0
  129.4620  123.6260   60.7080 C   0  0  0  0  0  0  0  0  0  0  0  0
  128.2530  123.5040   59.8280 C   0  0  0  0  0  0  0  0  0  0  0  0
  128.3440  122.9090   58.5600 C   0  0  0  0  0  0  0  0  0  0  0  0
  127.2250  122.7930   57.7390 C   0  0  0  0  0  0  0  0  0  0  0  0
  125.9950  123.2740   58.1770 C   0  0  0  0  0  0  0  0  0  0  0  0
  125.8790  123.8720   59.4270 C   0  0  0  0  0  0  0  0  0  0  0  0
  127.0000  123.9860   60.2440 C   0  0  0  0  0  0  0  0  0  0  0  0
  130.7600  123.7360   60.1970 C   0  0  0  0  0  0  0  0  0  0  0  0
  131.8590  123.8290   61.0630 C   0  0  0  0  0  0  0  0  0  0  0  0
  133.2720  123.9440   60.4600 C   0  0  0  0  0  0  0  0  0  0  0  0
  133.9670  124.9670   60.9620 F   0  0  0  0  0  0  0  0  0  0  0  0
  133.9680  122.8320   60.7030 F   0  0  0  0  0  0  0  0  0  0  0  0
  133.1910  124.1220   59.1400 F   0  0  0  0  0  0  0  0  0  0  0  0
  131.6240  123.8080   62.4600 C   0  0  0  0  0  0  0  0  0  0  0  0
  132.7400  123.8450   63.4090 C   0  0  0  0  0  0  0  0  0  0  0  0
  133.6240  123.8740   64.1550 N   0  0  0  0  0  0  0  0  0  0  0  0
  130.8830  127.6330   69.3740 C   0  0  0  0  0  0  0  0  0  0  0  0
  130.7270  128.0970   70.6770 C   0  0  0  0  0  0  0  0  0  0  0  0
  1  2  1  0
  2  3  1  0
  3  4  2  0
  3  5  1  0
  5  6  2  0
  6  7  1  0
  7  8  2  0
  8  9  1  0
  9 10  1  0
 10 11  2  0
 10 12  1  0
 12 13  1  0
 13 14  1  0
 14 15  2  0
 15 16  1  0
 16 17  1  0
 17 18  2  0
 18 19  1  0
 19 20  2  0
 20 21  1  0
 21 22  2  0
 16 23  2  0
 23 24  1  0
 24 25  1  0
 25 26  1  0
 25 27  1  0
 25 28  1  0
 24 29  2  0
 29 30  1  0
 30 31  3  0
  8 32  1  0
 32 33  2  0
 33  5  1  0
 29 14  1  0
 22 17  1  0
M  END
>  <Binding energies>  (13) 
[-8.61]

>  <Ligand effiencies>  (13) 
[-0.25323529411764706]

>  <Interactions>  (13) 
["V-A:ILE:369:CG2:3237, V-A:ILE:369:CD1:3239, V-A:ASP:366:CB:3212, H-A:GLY:454:N:4050, V-A:ASP:366:CA:3210, V-A:ASP:366:CG:3213, H-A:GLU:543:OE1:4909, H-A:TYR:484:OH:4348, V-B:GLU:543:CG:9879, V-A:ILE:369:CB:3236, V-A:GLU:543:CD:4908, H-A:GLU:543:OE2:4910, V-A:HIS:456:CE1:4070, V-B:TYR:539:C:9839, V-B:PRO:540:CA:9855, V-B:PRO:540:CB:9857, V-B:PRO:540:N:9856, V-B:TYR:539:CZ:9849, V-B:TYR:539:CE2:9848, V-B:TYR:539:CD2:9846, V-B:TYR:539:CG:9844, V-A:GLU:543:C:4902, V-B:GLU:543:C:9874, V-B:GLU:543:CB:9878, V-A:GLY:544:C:4912, V-A:GLU:543:CB:4906, V-B:HIS:456:CD2:9039, V-B:HIS:456:CE1:9041, H-A:LYS:547:NZ:4951, H-B:LYS:547:NZ:9923, V-A:LYS:547:CE:4950"]

$$$$
3ac_Grossjean_2025
     RDKit          3D

 31 33  0  0  0  0  0  0  0  0999 V2000
  132.9000  125.7740   57.3670 C   0  0  0  0  0  0  0  0  0  0  0  0
  133.1240  124.6040   58.1480 O   0  0  0  0  0  0  0  0  0  0  0  0
  132.9900  124.6730   59.5210 C   0  0  0  0  0  0  0  0  0  0  0  0
  132.1510  125.6720   60.0150 C   0  0  0  0  0  0  0  0  0  0  0  0
  131.9510  125.8160   61.3840 C   0  0  0  0  0  0  0  0  0  0  0  0
  132.5960  124.9650   62.2840 C   0  0  0  0  0  0  0  0  0  0  0  0
  132.3150  125.1750   63.6470 N   0  0  0  0  0  0  0  0  0  0  0  0
  133.1590  125.1630   64.7020 C   0  0  0  0  0  0  0  0  0  0  0  0
  134.3780  125.0010   64.6360 O   0  0  0  0  0  0  0  0  0  0  0  0
  132.5070  125.3760   66.0690 C   0  0  0  0  0  0  0  0  0  0  0  0
  130.7710  124.8320   66.0960 S   0  0  0  0  0  0  0  0  0  0  0  0
  129.7490  126.2100   66.5810 C   0  0  0  0  0  0  0  0  0  0  0  0
  129.6160  126.3280   67.9240 N   0  0  0  0  0  0  0  0  0  0  0  0
  128.8700  127.3370   68.4440 C   0  0  0  0  0  0  0  0  0  0  0  0
  128.7680  127.3930   69.9390 C   0  0  0  0  0  0  0  0  0  0  0  0
  127.6430  126.8760   70.6020 C   0  0  0  0  0  0  0  0  0  0  0  0
  127.5460  126.9210   71.9900 C   0  0  0  0  0  0  0  0  0  0  0  0
  128.5740  127.4860   72.7360 C   0  0  0  0  0  0  0  0  0  0  0  0
  129.6970  128.0090   72.1050 C   0  0  0  0  0  0  0  0  0  0  0  0
  129.7900  127.9640   70.7160 C   0  0  0  0  0  0  0  0  0  0  0  0
  128.2180  128.2490   67.6080 C   0  0  0  0  0  0  0  0  0  0  0  0
  128.3200  128.1350   66.2140 C   0  0  0  0  0  0  0  0  0  0  0  0
  127.5800  129.1590   65.3310 C   0  0  0  0  0  0  0  0  0  0  0  0
  127.3560  128.7100   64.0940 F   0  0  0  0  0  0  0  0  0  0  0  0
  126.3950  129.4580   65.8650 F   0  0  0  0  0  0  0  0  0  0  0  0
  128.3030  130.2750   65.2300 F   0  0  0  0  0  0  0  0  0  0  0  0
  129.0950  127.0780   65.6760 C   0  0  0  0  0  0  0  0  0  0  0  0
  129.1690  126.8730   64.2280 C   0  0  0  0  0  0  0  0  0  0  0  0
  129.2260  126.7100   63.0830 N   0  0  0  0  0  0  0  0  0  0  0  0
  133.4360  123.9530   61.7950 C   0  0  0  0  0  0  0  0  0  0  0  0
  133.6340  123.8110   60.4240 C   0  0  0  0  0  0  0  0  0  0  0  0
  1  2  1  0
  2  3  1  0
  3  4  2  0
  4  5  1  0
  5  6  2  0
  6  7  1  0
  7  8  1  0
  8  9  2  0
  8 10  1  0
 10 11  1  0
 11 12  1  0
 12 13  2  0
 13 14  1  0
 14 15  1  0
 15 16  2  0
 16 17  1  0
 17 18  2  0
 18 19  1  0
 19 20  2  0
 14 21  2  0
 21 22  1  0
 22 23  1  0
 23 24  1  0
 23 25  1  0
 23 26  1  0
 22 27  2  0
 27 28  1  0
 28 29  3  0
  6 30  1  0
 30 31  2  0
 31  3  1  0
 27 12  1  0
 20 15  1  0
M  END
>  <Binding energies>  (14) 
[-8.07]

>  <Ligand effiencies>  (14) 
[-0.2521875]

>  <Interactions>  (14) 
["V-A:ILE:369:CG2:3237, V-A:ILE:369:CD1:3239, V-A:ASP:366:CB:3212, V-B:GLU:543:CD:9880, H-A:ARG:545:NH1:4927, H-A:ARG:545:NH2:4928, H-A:GLY:454:N:4050, V-A:ASP:366:CA:3210, V-A:ASP:366:CG:3213, H-A:TYR:484:OH:4348, V-B:GLU:543:CG:9879, H-A:ARG:545:NE:4924, V-A:GLU:543:CD:4908, V-A:ARG:545:CZ:4926, H-A:GLU:543:OE2:4910, V-A:HIS:456:CE1:4070, V-B:TYR:539:CE2:9848, V-B:GLU:543:C:9874, V-A:TYR:484:CZ:4347, V-B:GLU:543:CB:9878, V-A:GLU:543:CB:4906, V-B:HIS:456:CD2:9039, V-B:HIS:456:CE1:9041, V-B:GLY:544:C:9884, V-B:GLY:544:CA:9886, V-A:GLU:543:CG:4907, V-B:TYR:484:CZ:9318, V-A:TYR:531:CZ:4794, V-A:ARG:545:CD:4923, H-B:TYR:539:OH:9850, V-A:ASP:366:C:3208"]

$$$$
3af_Grossjean_2025
     RDKit          3D

 29 31  0  0  0  0  0  0  0  0999 V2000
  133.9790  124.6430   64.1020 N   0  0  0  0  0  0  0  0  0  0  0  0
  133.0440  124.4480   63.4480 C   0  0  0  0  0  0  0  0  0  0  0  0
  131.8610  124.1990   62.6200 C   0  0  0  0  0  0  0  0  0  0  0  0
  131.9480  123.3880   61.4620 C   0  0  0  0  0  0  0  0  0  0  0  0
  133.2520  122.6880   61.0320 C   0  0  0  0  0  0  0  0  0  0  0  0
  133.8270  122.0080   62.0270 F   0  0  0  0  0  0  0  0  0  0  0  0
  133.0010  121.8240   60.0470 F   0  0  0  0  0  0  0  0  0  0  0  0
  134.1370  123.5890   60.6030 F   0  0  0  0  0  0  0  0  0  0  0  0
  130.8010  123.2240   60.6700 C   0  0  0  0  0  0  0  0  0  0  0  0
  129.6030  123.8530   61.0230 C   0  0  0  0  0  0  0  0  0  0  0  0
  128.3530  123.7270   60.2040 C   0  0  0  0  0  0  0  0  0  0  0  0
  127.1060  124.0920   60.7360 C   0  0  0  0  0  0  0  0  0  0  0  0
  125.9430  123.9800   59.9790 C   0  0  0  0  0  0  0  0  0  0  0  0
  126.0120  123.5000   58.6760 C   0  0  0  0  0  0  0  0  0  0  0  0
  127.2350  123.1340   58.1230 C   0  0  0  0  0  0  0  0  0  0  0  0
  128.3960  123.2490   58.8830 C   0  0  0  0  0  0  0  0  0  0  0  0
  129.5250  124.6320   62.1320 N   0  0  0  0  0  0  0  0  0  0  0  0
  130.6130  124.7870   62.9250 C   0  0  0  0  0  0  0  0  0  0  0  0
  130.3130  125.8300   64.3380 S   0  0  0  0  0  0  0  0  0  0  0  0
  131.1920  125.1160   65.7600 C   0  0  0  0  0  0  0  0  0  0  0  0
  130.3990  125.2730   67.0570 C   0  0  0  0  0  0  0  0  0  0  0  0
  129.7650  124.3120   67.4910 O   0  0  0  0  0  0  0  0  0  0  0  0
  130.4590  126.4960   67.6270 N   0  0  0  0  0  0  0  0  0  0  0  0
  129.8470  126.9690   68.8030 C   0  0  0  0  0  0  0  0  0  0  0  0
  128.5260  126.7010   69.2070 C   0  0  0  0  0  0  0  0  0  0  0  0
  128.0450  127.2400   70.4020 C   0  0  0  0  0  0  0  0  0  0  0  0
  128.8990  128.0360   71.1670 C   0  0  0  0  0  0  0  0  0  0  0  0
  130.1750  128.3100   70.8010 N   0  0  0  0  0  0  0  0  0  0  0  0
  130.6270  127.7780   69.6370 C   0  0  0  0  0  0  0  0  0  0  0  0
  1  2  3  0
  2  3  1  0
  3  4  2  0
  4  5  1  0
  5  6  1  0
  5  7  1  0
  5  8  1  0
  4  9  1  0
  9 10  2  0
 10 11  1  0
 11 12  2  0
 12 13  1  0
 13 14  2  0
 14 15  1  0
 15 16  2  0
 10 17  1  0
 17 18  2  0
 18 19  1  0
 19 20  1  0
 20 21  1  0
 21 22  2  0
 21 23  1  0
 23 24  1  0
 24 25  2  0
 25 26  1  0
 26 27  2  0
 27 28  1  0
 28 29  2  0
 18  3  1  0
 29 24  1  0
 16 11  1  0
M  END
>  <Binding energies>  (15) 
[-7.4]

>  <Ligand effiencies>  (15) 
[-0.24666666666666667]

>  <Interactions>  (15) 
["V-A:ILE:369:CG2:3237, V-A:ILE:369:CD1:3239, H-A:ARG:545:NH1:4927, H-A:ARG:545:NH2:4928, H-A:GLY:454:N:4050, H-A:TYR:484:OH:4348, H-A:ARG:545:NE:4924, V-A:ILE:369:CB:3236, V-A:GLU:543:CD:4908, V-A:ARG:545:CZ:4926, H-A:GLU:543:OE2:4910, V-A:LEU:475:CD2:4259, V-A:HIS:456:CE1:4070, V-A:GLY:454:CA:4049, V-B:PRO:540:CA:9855, V-B:PRO:540:CB:9857, V-B:PRO:540:N:9856, V-B:TYR:539:CZ:9849, V-B:TYR:539:CE2:9848, V-B:TYR:539:CD2:9846, V-A:TYR:484:CE2:4346, V-A:GLU:543:C:4902, V-B:GLU:543:C:9874, V-A:TYR:484:CZ:4347, V-B:GLU:543:CB:9878, V-A:GLU:543:CB:4906, V-B:HIS:456:CD2:9039, V-B:HIS:456:CE1:9041"]

$$$$
3ag_Grossjean_2025
     RDKit          3D

 30 32  0  0  0  0  0  0  0  0999 V2000
  129.2500  126.7890   63.3170 N   0  0  0  0  0  0  0  0  0  0  0  0
  129.1800  126.9150   64.4660 C   0  0  0  0  0  0  0  0  0  0  0  0
  129.0900  127.0780   65.9200 C   0  0  0  0  0  0  0  0  0  0  0  0
  128.3600  128.1520   66.4840 C   0  0  0  0  0  0  0  0  0  0  0  0
  127.5780  129.1670   65.6280 C   0  0  0  0  0  0  0  0  0  0  0  0
  126.2730  129.1820   65.9060 F   0  0  0  0  0  0  0  0  0  0  0  0
  128.0480  130.3970   65.8390 F   0  0  0  0  0  0  0  0  0  0  0  0
  127.7060  128.8720   64.3330 F   0  0  0  0  0  0  0  0  0  0  0  0
  128.3480  128.2960   67.8800 C   0  0  0  0  0  0  0  0  0  0  0  0
  129.0550  127.4000   68.6890 C   0  0  0  0  0  0  0  0  0  0  0  0
  129.0790  127.5070   70.1830 C   0  0  0  0  0  0  0  0  0  0  0  0
  127.9600  127.1390   70.9470 C   0  0  0  0  0  0  0  0  0  0  0  0
  127.9760  127.2360   72.3350 C   0  0  0  0  0  0  0  0  0  0  0  0
  129.1150  127.7050   72.9820 C   0  0  0  0  0  0  0  0  0  0  0  0
  130.2370  128.0790   72.2480 C   0  0  0  0  0  0  0  0  0  0  0  0
  130.2170  127.9820   70.8600 C   0  0  0  0  0  0  0  0  0  0  0  0
  129.7440  126.3630   68.1450 N   0  0  0  0  0  0  0  0  0  0  0  0
  129.7530  126.1940   66.8000 C   0  0  0  0  0  0  0  0  0  0  0  0
  130.7020  124.7860   66.2680 S   0  0  0  0  0  0  0  0  0  0  0  0
  132.4050  125.3560   65.9870 C   0  0  0  0  0  0  0  0  0  0  0  0
  132.8670  125.1110   64.5490 C   0  0  0  0  0  0  0  0  0  0  0  0
  133.9980  124.6700   64.3340 O   0  0  0  0  0  0  0  0  0  0  0  0
  131.9790  125.3940   63.5800 N   0  0  0  0  0  0  0  0  0  0  0  0
  132.1970  125.2020   62.1470 C   0  0  0  0  0  0  0  0  0  0  0  0
  132.4550  123.7540   61.7450 C   0  0  0  0  0  0  0  0  0  0  0  0
  133.7630  123.2650   61.7120 C   0  0  0  0  0  0  0  0  0  0  0  0
  134.0000  121.9350   61.3750 C   0  0  0  0  0  0  0  0  0  0  0  0
  132.9270  121.0960   61.0800 C   0  0  0  0  0  0  0  0  0  0  0  0
  131.6190  121.5740   61.1260 C   0  0  0  0  0  0  0  0  0  0  0  0
  131.3810  122.9030   61.4640 C   0  0  0  0  0  0  0  0  0  0  0  0
  1  2  3  0
  2  3  1  0
  3  4  2  0
  4  5  1  0
  5  6  1  0
  5  7  1  0
  5  8  1  0
  4  9  1  0
  9 10  2  0
 10 11  1  0
 11 12  2  0
 12 13  1  0
 13 14  2  0
 14 15  1  0
 15 16  2  0
 10 17  1  0
 17 18  2  0
 18 19  1  0
 19 20  1  0
 20 21  1  0
 21 22  2  0
 21 23  1  0
 23 24  1  0
 24 25  1  0
 25 26  2  0
 26 27  1  0
 27 28  2  0
 28 29  1  0
 29 30  2  0
 18  3  1  0
 30 25  1  0
 16 11  1  0
M  END
>  <Binding energies>  (16) 
[-7.91]

>  <Ligand effiencies>  (16) 
[-0.25516129032258067]

>  <Interactions>  (16) 
["V-A:ILE:369:CG2:3237, V-A:ILE:369:CD1:3239, V-B:GLU:543:CD:9880, H-A:ARG:545:NH1:4927, H-A:ARG:545:NH2:4928, H-A:GLY:454:N:4050, H-A:GLU:543:OE1:4909, H-A:TYR:484:OH:4348, V-B:GLU:543:CG:9879, H-A:ARG:545:NE:4924, V-A:GLU:543:CD:4908, V-A:ARG:545:CZ:4926, H-A:GLU:543:OE2:4910, V-A:LEU:475:CD2:4259, V-A:HIS:456:CE1:4070, V-B:TYR:539:CE2:9848, V-B:TYR:539:CD2:9846, V-A:GLU:543:C:4902, V-A:TYR:484:CZ:4347, V-B:GLU:543:CB:9878, V-A:GLY:544:C:4912, V-A:SER:385:CB:3409, V-A:GLU:543:CB:4906, V-B:HIS:456:CD2:9039, V-B:HIS:456:CE1:9041, V-A:GLU:543:CG:4907, V-B:TYR:484:CE2:9317, V-B:TYR:484:CZ:9318"]

$$$$
3bc_Grossjean_2025
     RDKit          3D

 28 30  0  0  0  0  0  0  0  0999 V2000
  128.6890  129.0170   73.8240 C   0  0  0  0  0  0  0  0  0  0  0  0
  129.9000  128.7030   73.1460 O   0  0  0  0  0  0  0  0  0  0  0  0
  129.8430  128.2390   71.8450 C   0  0  0  0  0  0  0  0  0  0  0  0
  131.0040  128.3760   71.0840 C   0  0  0  0  0  0  0  0  0  0  0  0
  131.0420  127.9380   69.7630 C   0  0  0  0  0  0  0  0  0  0  0  0
  129.9120  127.3640   69.1800 C   0  0  0  0  0  0  0  0  0  0  0  0
  130.0490  126.9410   67.8450 N   0  0  0  0  0  0  0  0  0  0  0  0
  129.8850  125.7080   67.3200 C   0  0  0  0  0  0  0  0  0  0  0  0
  129.5340  124.7140   67.9600 O   0  0  0  0  0  0  0  0  0  0  0  0
  130.1330  125.6150   65.8080 C   0  0  0  0  0  0  0  0  0  0  0  0
  130.2020  123.9200   65.1350 S   0  0  0  0  0  0  0  0  0  0  0  0
  130.5980  124.0380   63.4050 C   0  0  0  0  0  0  0  0  0  0  0  0
  129.5220  123.9120   62.5890 N   0  0  0  0  0  0  0  0  0  0  0  0
  129.6820  123.9850   61.2420 C   0  0  0  0  0  0  0  0  0  0  0  0
  128.4460  123.8160   60.4100 C   0  0  0  0  0  0  0  0  0  0  0  0
  127.1790  124.0970   60.9430 C   0  0  0  0  0  0  0  0  0  0  0  0
  126.0270  123.9420   60.1770 C   0  0  0  0  0  0  0  0  0  0  0  0
  126.1280  123.5000   58.8620 C   0  0  0  0  0  0  0  0  0  0  0  0
  127.3710  123.2110   58.3100 C   0  0  0  0  0  0  0  0  0  0  0  0
  128.5210  123.3670   59.0810 C   0  0  0  0  0  0  0  0  0  0  0  0
  130.9460  124.1870   60.6780 C   0  0  0  0  0  0  0  0  0  0  0  0
  132.0630  124.3420   61.5070 C   0  0  0  0  0  0  0  0  0  0  0  0
  133.4220  124.5780   60.8480 C   0  0  0  0  0  0  0  0  0  0  0  0
  131.8990  124.2780   62.9080 C   0  0  0  0  0  0  0  0  0  0  0  0
  133.0460  124.4850   63.7940 C   0  0  0  0  0  0  0  0  0  0  0  0
  133.9540  124.6490   64.4930 N   0  0  0  0  0  0  0  0  0  0  0  0
  128.7440  127.2110   69.9410 C   0  0  0  0  0  0  0  0  0  0  0  0
  128.7100  127.6490   71.2630 C   0  0  0  0  0  0  0  0  0  0  0  0
  1  2  1  0
  2  3  1  0
  3  4  2  0
  4  5  1  0
  5  6  2  0
  6  7  1  0
  7  8  1  0
  8  9  2  0
  8 10  1  0
 10 11  1  0
 11 12  1  0
 12 13  2  0
 13 14  1  0
 14 15  1  0
 15 16  2  0
 16 17  1  0
 17 18  2  0
 18 19  1  0
 19 20  2  0
 14 21  2  0
 21 22  1  0
 22 23  1  0
 22 24  2  0
 24 25  1  0
 25 26  3  0
  6 27  1  0
 27 28  2  0
 28  3  1  0
 24 12  1  0
 20 15  1  0
M  END
>  <Binding energies>  (17) 
[-8.32]

>  <Ligand effiencies>  (17) 
[-0.2868965517241379]

>  <Interactions>  (17) 
["H-A:ARG:545:NH2:4928, H-A:GLY:454:N:4050, V-A:ASP:366:CG:3213, H-A:TYR:484:OH:4348, V-B:GLU:543:CG:9879, H-A:ARG:545:NE:4924, V-A:GLU:543:CD:4908, V-A:ARG:545:CZ:4926, H-A:GLU:543:OE2:4910, V-A:HIS:456:CE1:4070, V-B:PRO:540:CA:9855, V-B:PRO:540:CB:9857, V-B:PRO:540:N:9856, V-B:TYR:539:CE2:9848, V-B:TYR:539:CD2:9846, V-A:GLU:543:C:4902, V-B:GLU:543:CB:9878, V-A:GLY:544:C:4912, V-A:GLU:543:CB:4906, V-B:HIS:456:CD2:9039, V-B:HIS:456:CE1:9041, H-A:LYS:547:NZ:4951, V-A:GLY:544:CA:4914"]

$$$$
3bd_Grossjean_2025
     RDKit          3D

 26 28  0  0  0  0  0  0  0  0999 V2000
  127.6480  129.1140   65.3620 C   0  0  0  0  0  0  0  0  0  0  0  0
  128.3710  128.0750   66.2160 C   0  0  0  0  0  0  0  0  0  0  0  0
  128.2760  128.1810   67.6080 C   0  0  0  0  0  0  0  0  0  0  0  0
  128.9280  127.2510   68.4260 C   0  0  0  0  0  0  0  0  0  0  0  0
  128.8630  127.3030   69.9240 C   0  0  0  0  0  0  0  0  0  0  0  0
  127.7090  126.8880   70.6080 C   0  0  0  0  0  0  0  0  0  0  0  0
  127.6420  126.9360   71.9980 C   0  0  0  0  0  0  0  0  0  0  0  0
  128.7320  127.4020   72.7260 C   0  0  0  0  0  0  0  0  0  0  0  0
  129.8860  127.8220   72.0730 C   0  0  0  0  0  0  0  0  0  0  0  0
  129.9490  127.7730   70.6830 C   0  0  0  0  0  0  0  0  0  0  0  0
  129.6450  126.2320   67.8850 N   0  0  0  0  0  0  0  0  0  0  0  0
  129.7490  126.1140   66.5370 C   0  0  0  0  0  0  0  0  0  0  0  0
  130.7290  124.7410   65.9540 S   0  0  0  0  0  0  0  0  0  0  0  0
  132.4200  125.3390   65.6600 C   0  0  0  0  0  0  0  0  0  0  0  0
  132.9090  125.0080   64.2500 C   0  0  0  0  0  0  0  0  0  0  0  0
  133.9780  124.4130   64.1110 O   0  0  0  0  0  0  0  0  0  0  0  0
  132.1100  125.4210   63.2420 N   0  0  0  0  0  0  0  0  0  0  0  0
  132.2720  125.2450   61.8540 C   0  0  0  0  0  0  0  0  0  0  0  0
  133.0500  124.1530   61.4600 C   0  0  0  0  0  0  0  0  0  0  0  0
  133.2730  123.9030   60.1090 C   0  0  0  0  0  0  0  0  0  0  0  0
  132.7270  124.7510   59.1500 C   0  0  0  0  0  0  0  0  0  0  0  0
  131.9610  125.8510   59.5310 C   0  0  0  0  0  0  0  0  0  0  0  0
  131.7350  126.1030   60.8810 C   0  0  0  0  0  0  0  0  0  0  0  0
  129.1250  127.0220   65.6550 C   0  0  0  0  0  0  0  0  0  0  0  0
  129.2430  126.8830   64.2000 C   0  0  0  0  0  0  0  0  0  0  0  0
  129.3340  126.7740   63.0520 N   0  0  0  0  0  0  0  0  0  0  0  0
  1  2  1  0
  2  3  2  0
  3  4  1  0
  4  5  1  0
  5  6  2  0
  6  7  1  0
  7  8  2  0
  8  9  1  0
  9 10  2  0
  4 11  2  0
 11 12  1  0
 12 13  1  0
 13 14  1  0
 14 15  1  0
 15 16  2  0
 15 17  1  0
 17 18  1  0
 18 19  2  0
 19 20  1  0
 20 21  2  0
 21 22  1  0
 22 23  2  0
 12 24  2  0
 24 25  1  0
 25 26  3  0
 24  2  1  0
 10  5  1  0
 23 18  1  0
M  END
>  <Binding energies>  (18) 
[-7.86]

>  <Ligand effiencies>  (18) 
[-0.2911111111111111]

>  <Interactions>  (18) 
["V-A:ILE:369:CG2:3237, V-A:ASP:366:CB:3212, V-B:GLU:543:CD:9880, H-A:ARG:545:NH2:4928, H-A:GLY:454:N:4050, V-A:ASP:366:CG:3213, H-A:GLU:543:OE1:4909, H-A:TYR:484:OH:4348, V-B:GLU:543:CG:9879, V-A:GLU:543:CD:4908, V-A:ARG:545:CZ:4926, H-A:GLU:543:OE2:4910, V-A:HIS:456:CE1:4070, V-B:TYR:539:CE2:9848, V-B:GLU:543:C:9874, V-B:GLU:543:CB:9878, V-A:GLU:543:CB:4906, V-B:HIS:456:CD2:9039, V-B:HIS:456:CE1:9041, V-B:GLY:544:C:9884, V-B:GLY:544:CA:9886, V-A:GLU:543:CG:4907"]

$$$$
3be_Grossjean_2025
     RDKit          3D

 27 29  0  0  0  0  0  0  0  0999 V2000
  133.7120  123.8910   59.2340 C   0  0  0  0  0  0  0  0  0  0  0  0
  132.8390  124.9280   59.9130 C   0  0  0  0  0  0  0  0  0  0  0  0
  132.1530  125.9000   59.1810 C   0  0  0  0  0  0  0  0  0  0  0  0
  131.3700  126.8240   59.8730 C   0  0  0  0  0  0  0  0  0  0  0  0
  131.2910  126.7550   61.2660 C   0  0  0  0  0  0  0  0  0  0  0  0
  132.0010  125.7540   61.9380 C   0  0  0  0  0  0  0  0  0  0  0  0
  131.8890  125.7440   63.3410 N   0  0  0  0  0  0  0  0  0  0  0  0
  132.7050  125.1660   64.2500 C   0  0  0  0  0  0  0  0  0  0  0  0
  133.7180  124.5220   63.9720 O   0  0  0  0  0  0  0  0  0  0  0  0
  132.2800  125.3670   65.7140 C   0  0  0  0  0  0  0  0  0  0  0  0
  130.5810  124.8320   66.1090 S   0  0  0  0  0  0  0  0  0  0  0  0
  129.6850  126.2420   66.7220 C   0  0  0  0  0  0  0  0  0  0  0  0
  129.7070  126.3540   68.0730 N   0  0  0  0  0  0  0  0  0  0  0  0
  129.0660  127.3890   68.6780 C   0  0  0  0  0  0  0  0  0  0  0  0
  129.1260  127.4320   70.1760 C   0  0  0  0  0  0  0  0  0  0  0  0
  130.2510  127.9530   70.8340 C   0  0  0  0  0  0  0  0  0  0  0  0
  130.3150  127.9940   72.2240 C   0  0  0  0  0  0  0  0  0  0  0  0
  129.2510  127.5110   72.9780 C   0  0  0  0  0  0  0  0  0  0  0  0
  128.1250  126.9870   72.3510 C   0  0  0  0  0  0  0  0  0  0  0  0
  128.0660  126.9480   70.9610 C   0  0  0  0  0  0  0  0  0  0  0  0
  128.3770  128.3440   67.9230 C   0  0  0  0  0  0  0  0  0  0  0  0
  128.3650  128.2570   66.5280 C   0  0  0  0  0  0  0  0  0  0  0  0
  127.6140  129.3330   65.7450 C   0  0  0  0  0  0  0  0  0  0  0  0
  129.0420  127.1910   65.8960 C   0  0  0  0  0  0  0  0  0  0  0  0
  129.0880  127.1110   64.4350 C   0  0  0  0  0  0  0  0  0  0  0  0
  129.1240  127.0500   63.2800 N   0  0  0  0  0  0  0  0  0  0  0  0
  132.7720  124.8480   61.2670 N   0  0  0  0  0  0  0  0  0  0  0  0
  1  2  1  0
  2  3  2  0
  3  4  1  0
  4  5  2  0
  5  6  1  0
  6  7  1  0
  7  8  1  0
  8  9  2  0
  8 10  1  0
 10 11  1  0
 11 12  1  0
 12 13  2  0
 13 14  1  0
 14 15  1  0
 15 16  2  0
 16 17  1  0
 17 18  2  0
 18 19  1  0
 19 20  2  0
 14 21  2  0
 21 22  1  0
 22 23  1  0
 22 24  2  0
 24 25  1  0
 25 26  3  0
  6 27  2  0
 27  2  1  0
 24 12  1  0
 20 15  1  0
M  END
>  <Binding energies>  (19) 
[-7.88]

>  <Ligand effiencies>  (19) 
[-0.2814285714285714]

>  <Interactions>  (19) 
["V-A:ILE:369:CG2:3237, V-A:ASP:366:CB:3212, V-B:GLU:543:CD:9880, H-A:ARG:545:NH2:4928, H-A:GLY:454:N:4050, V-A:ASP:366:CA:3210, V-A:ASP:366:CG:3213, H-A:GLU:543:OE1:4909, H-A:TYR:484:OH:4348, V-B:GLU:543:CG:9879, V-A:ILE:369:CB:3236, V-A:GLU:543:CD:4908, V-A:ARG:545:CZ:4926, H-A:GLU:543:OE2:4910, V-A:HIS:456:CE1:4070, V-B:TYR:539:CE2:9848, V-A:GLU:543:C:4902, V-B:GLU:543:C:9874, V-B:GLU:543:CB:9878, V-A:GLY:544:C:4912, V-A:GLU:543:CB:4906, V-B:HIS:456:CE1:9041, V-A:GLU:543:CG:4907"]

$$$$
3bf_Grossjean_2025
     RDKit          3D

 26 28  0  0  0  0  0  0  0  0999 V2000
  134.2130  122.1550   61.1450 C   0  0  0  0  0  0  0  0  0  0  0  0
  133.3200  123.3610   61.4300 C   0  0  0  0  0  0  0  0  0  0  0  0
  132.9410  123.6020   62.7540 C   0  0  0  0  0  0  0  0  0  0  0  0
  132.1350  124.7040   63.0610 C   0  0  0  0  0  0  0  0  0  0  0  0
  131.7120  125.0310   64.4620 C   0  0  0  0  0  0  0  0  0  0  0  0
  130.3560  125.0130   64.8230 C   0  0  0  0  0  0  0  0  0  0  0  0
  129.9550  125.3160   66.1210 C   0  0  0  0  0  0  0  0  0  0  0  0
  130.9100  125.6420   67.0790 C   0  0  0  0  0  0  0  0  0  0  0  0
  132.2600  125.6680   66.7470 C   0  0  0  0  0  0  0  0  0  0  0  0
  132.6560  125.3660   65.4460 C   0  0  0  0  0  0  0  0  0  0  0  0
  131.7110  125.5510   62.0850 N   0  0  0  0  0  0  0  0  0  0  0  0
  132.0500  125.3160   60.7930 C   0  0  0  0  0  0  0  0  0  0  0  0
  131.4010  126.5220   59.6560 S   0  0  0  0  0  0  0  0  0  0  0  0
  129.5840  126.3560   59.6300 C   0  0  0  0  0  0  0  0  0  0  0  0
  129.0590  125.0370   59.0440 C   0  0  0  0  0  0  0  0  0  0  0  0
  129.6670  123.9810   59.2270 O   0  0  0  0  0  0  0  0  0  0  0  0
  127.8960  125.1460   58.3650 N   0  0  0  0  0  0  0  0  0  0  0  0
  127.1620  124.1430   57.7040 C   0  0  0  0  0  0  0  0  0  0  0  0
  125.7750  124.3120   57.6280 C   0  0  0  0  0  0  0  0  0  0  0  0
  124.9930  123.3590   56.9740 C   0  0  0  0  0  0  0  0  0  0  0  0
  125.6270  122.2550   56.4030 C   0  0  0  0  0  0  0  0  0  0  0  0
  126.9700  122.0710   56.4510 N   0  0  0  0  0  0  0  0  0  0  0  0
  127.7180  123.0060   57.0910 C   0  0  0  0  0  0  0  0  0  0  0  0
  132.8750  124.2350   60.4140 C   0  0  0  0  0  0  0  0  0  0  0  0
  133.3020  124.0290   59.0270 C   0  0  0  0  0  0  0  0  0  0  0  0
  133.6380  123.8640   57.9320 N   0  0  0  0  0  0  0  0  0  0  0  0
  1  2  1  0
  2  3  2  0
  3  4  1  0
  4  5  1  0
  5  6  2  0
  6  7  1  0
  7  8  2  0
  8  9  1  0
  9 10  2  0
  4 11  2  0
 11 12  1  0
 12 13  1  0
 13 14  1  0
 14 15  1  0
 15 16  2  0
 15 17  1  0
 17 18  1  0
 18 19  2  0
 19 20  1  0
 20 21  2  0
 21 22  1  0
 22 23  2  0
 12 24  2  0
 24 25  1  0
 25 26  3  0
 24  2  1  0
 10  5  1  0
 23 18  1  0
M  END
>  <Binding energies>  (20) 
[-7.81]

>  <Ligand effiencies>  (20) 
[-0.28925925925925927]

>  <Interactions>  (20) 
["V-A:ILE:369:CG2:3237, V-A:ILE:369:CD1:3239, V-B:GLU:543:CD:9880, H-A:ARG:545:NH2:4928, V-A:ASP:366:CG:3213, V-B:GLU:543:CG:9879, V-A:ILE:369:CB:3236, V-A:ARG:545:CZ:4926, V-A:HIS:456:CE1:4070, V-B:PRO:540:CD:9859, V-B:PRO:540:CB:9857, V-B:PRO:540:N:9856, V-B:LEU:363:CD1:8160, V-B:MET:535:CE:9807, V-B:TYR:539:CZ:9849, V-B:TYR:539:CE2:9848, V-B:TYR:539:CD1:9845, H-B:TYR:539:N:9842, V-B:TYR:539:CE1:9847, V-B:TYR:539:CD2:9846, V-B:PRO:540:CG:9858, V-B:ILE:538:CG2:9835, V-B:TYR:539:CG:9844, V-A:TYR:484:CZ:4347, V-B:GLU:543:CB:9878, V-A:ARG:545:CG:4922, V-A:ARG:545:CD:4923, H-B:TYR:539:OH:9850, V-A:ILE:369:CG1:3238"]

$$$$
3bg_Grossjean_2025
     RDKit          3D

 27 29  0  0  0  0  0  0  0  0999 V2000
  130.2670  124.5130   65.6090 C   0  0  0  0  0  0  0  0  0  0  0  0
  130.5950  124.3670   64.1250 C   0  0  0  0  0  0  0  0  0  0  0  0
  129.5460  124.1090   63.2380 C   0  0  0  0  0  0  0  0  0  0  0  0
  129.8020  123.9750   61.8660 C   0  0  0  0  0  0  0  0  0  0  0  0
  128.7190  123.7090   60.8580 C   0  0  0  0  0  0  0  0  0  0  0  0
  127.3940  124.1120   61.0950 C   0  0  0  0  0  0  0  0  0  0  0  0
  126.3920  123.8830   60.1570 C   0  0  0  0  0  0  0  0  0  0  0  0
  126.6980  123.2420   58.9610 C   0  0  0  0  0  0  0  0  0  0  0  0
  127.9980  122.8210   58.7050 C   0  0  0  0  0  0  0  0  0  0  0  0
  128.9970  123.0510   59.6470 C   0  0  0  0  0  0  0  0  0  0  0  0
  131.0660  124.1140   61.3840 N   0  0  0  0  0  0  0  0  0  0  0  0
  132.0960  124.3680   62.2310 C   0  0  0  0  0  0  0  0  0  0  0  0
  133.6980  124.5610   61.4660 S   0  0  0  0  0  0  0  0  0  0  0  0
  133.7530  123.5040   59.9810 C   0  0  0  0  0  0  0  0  0  0  0  0
  133.3530  124.2740   58.7190 C   0  0  0  0  0  0  0  0  0  0  0  0
  133.9660  124.0890   57.6670 O   0  0  0  0  0  0  0  0  0  0  0  0
  132.3410  125.1500   58.8470 N   0  0  0  0  0  0  0  0  0  0  0  0
  131.9170  126.1140   57.8310 C   0  0  0  0  0  0  0  0  0  0  0  0
  130.4030  126.1260   57.6590 C   0  0  0  0  0  0  0  0  0  0  0  0
  129.5810  126.5110   58.7230 C   0  0  0  0  0  0  0  0  0  0  0  0
  128.1980  126.5140   58.5690 C   0  0  0  0  0  0  0  0  0  0  0  0
  127.6390  126.1420   57.3470 C   0  0  0  0  0  0  0  0  0  0  0  0
  128.4520  125.7770   56.2760 C   0  0  0  0  0  0  0  0  0  0  0  0
  129.8370  125.7740   56.4310 C   0  0  0  0  0  0  0  0  0  0  0  0
  131.9080  124.4950   63.6230 C   0  0  0  0  0  0  0  0  0  0  0  0
  133.0270  124.7740   64.5270 C   0  0  0  0  0  0  0  0  0  0  0  0
  133.9090  124.9940   65.2420 N   0  0  0  0  0  0  0  0  0  0  0  0
  1  2  1  0
  2  3  2  0
  3  4  1  0
  4  5  1  0
  5  6  2  0
  6  7  1  0
  7  8  2  0
  8  9  1  0
  9 10  2  0
  4 11  2  0
 11 12  1  0
 12 13  1  0
 13 14  1  0
 14 15  1  0
 15 16  2  0
 15 17  1  0
 17 18  1  0
 18 19  1  0
 19 20  2  0
 20 21  1  0
 21 22  2  0
 22 23  1  0
 23 24  2  0
 12 25  2  0
 25 26  1  0
 26 27  3  0
 25  2  1  0
 10  5  1  0
 24 19  1  0
M  END
>  <Binding energies>  (21) 
[-7.08]

>  <Ligand effiencies>  (21) 
[-0.25285714285714284]

>  <Interactions>  (21) 
["V-A:ILE:369:CG2:3237, V-A:ILE:369:CD1:3239, V-A:ASP:366:CB:3212, V-B:GLU:543:CD:9880, H-A:ARG:545:NH2:4928, H-A:GLY:454:N:4050, V-A:ASP:366:CA:3210, V-A:ASP:366:CG:3213, H-A:TYR:484:OH:4348, V-B:GLU:543:CG:9879, H-A:ARG:545:NE:4924, V-A:ILE:369:CB:3236, V-A:ARG:545:CZ:4926, V-B:TYR:539:C:9839, V-B:PRO:540:CA:9855, V-B:PRO:540:CB:9857, V-B:PRO:540:N:9856, V-B:TYR:539:CZ:9849, V-B:TYR:539:CE2:9848, V-B:TYR:539:CD2:9846, V-A:TYR:484:CE2:4346, V-A:TYR:484:CZ:4347, H-B:TYR:539:OH:9850, H-A:ASN:370:N:3244"]

$$$$
3ca_Grossjean_2025
     RDKit          3D

 31 33  0  0  0  0  0  0  0  0999 V2000
  131.6420  126.7710   73.8840 C   0  0  0  0  0  0  0  0  0  0  0  0
  130.2720  126.1090   74.0570 C   0  0  0  0  0  0  0  0  0  0  0  0
  129.3080  126.8050   73.2770 O   0  0  0  0  0  0  0  0  0  0  0  0
  129.6580  127.8750   72.5200 C   0  0  0  0  0  0  0  0  0  0  0  0
  129.8750  128.9980   72.9880 O   0  0  0  0  0  0  0  0  0  0  0  0
  129.7630  127.5590   71.0550 C   0  0  0  0  0  0  0  0  0  0  0  0
  128.7200  126.8650   70.4290 C   0  0  0  0  0  0  0  0  0  0  0  0
  128.7880  126.5560   69.0730 C   0  0  0  0  0  0  0  0  0  0  0  0
  129.9020  126.9270   68.3180 C   0  0  0  0  0  0  0  0  0  0  0  0
  129.8680  126.5670   66.9580 N   0  0  0  0  0  0  0  0  0  0  0  0
  129.8260  125.3420   66.3910 C   0  0  0  0  0  0  0  0  0  0  0  0
  129.7880  124.2750   67.0030 O   0  0  0  0  0  0  0  0  0  0  0  0
  129.8020  125.3300   64.8590 C   0  0  0  0  0  0  0  0  0  0  0  0
  129.8070  123.6480   64.1540 S   0  0  0  0  0  0  0  0  0  0  0  0
  129.8800  123.7380   62.3700 C   0  0  0  0  0  0  0  0  0  0  0  0
  131.0980  124.0280   61.8460 N   0  0  0  0  0  0  0  0  0  0  0  0
  131.2320  124.0920   60.5030 C   0  0  0  0  0  0  0  0  0  0  0  0
  132.6260  124.4040   59.9950 C   0  0  0  0  0  0  0  0  0  0  0  0
  130.1650  123.8860   59.6330 C   0  0  0  0  0  0  0  0  0  0  0  0
  128.8940  123.6020   60.1490 C   0  0  0  0  0  0  0  0  0  0  0  0
  127.7770  123.4020   59.1780 C   0  0  0  0  0  0  0  0  0  0  0  0
  127.9530  122.5700   58.0660 C   0  0  0  0  0  0  0  0  0  0  0  0
  126.9210  122.3850   57.1500 C   0  0  0  0  0  0  0  0  0  0  0  0
  125.7050  123.0360   57.3420 C   0  0  0  0  0  0  0  0  0  0  0  0
  125.5150  123.8720   58.4400 C   0  0  0  0  0  0  0  0  0  0  0  0
  126.5510  124.0560   59.3530 C   0  0  0  0  0  0  0  0  0  0  0  0
  128.7430  123.5160   61.5570 C   0  0  0  0  0  0  0  0  0  0  0  0
  127.4490  123.1710   62.1540 C   0  0  0  0  0  0  0  0  0  0  0  0
  126.4260  122.8990   62.6240 N   0  0  0  0  0  0  0  0  0  0  0  0
  130.9480  127.6300   68.9360 C   0  0  0  0  0  0  0  0  0  0  0  0
  130.8770  127.9390   70.2920 C   0  0  0  0  0  0  0  0  0  0  0  0
  1  2  1  0
  2  3  1  0
  3  4  1  0
  4  5  2  0
  4  6  1  0
  6  7  2  0
  7  8  1  0
  8  9  2  0
  9 10  1  0
 10 11  1  0
 11 12  2  0
 11 13  1  0
 13 14  1  0
 14 15  1  0
 15 16  2  0
 16 17  1  0
 17 18  1  0
 17 19  2  0
 19 20  1  0
 20 21  1  0
 21 22  2  0
 22 23  1  0
 23 24  2  0
 24 25  1  0
 25 26  2  0
 20 27  2  0
 27 28  1  0
 28 29  3  0
  9 30  1  0
 30 31  2  0
 31  6  1  0
 27 15  1  0
 26 21  1  0
M  END
>  <Binding energies>  (22) 
[-9.04]

>  <Ligand effiencies>  (22) 
[-0.2825]

>  <Interactions>  (22) 
["V-B:GLU:543:CD:9880, H-A:GLU:543:OE1:4909, H-A:TYR:484:OH:4348, V-B:GLU:543:CG:9879, V-A:GLU:543:CD:4908, H-A:GLU:543:OE2:4910, V-A:HIS:456:CE1:4070, V-B:ALA:541:CB:9864, V-B:TYR:539:C:9839, H-B:ALA:541:N:9863, V-B:PRO:540:CD:9859, V-B:PRO:540:CA:9855, V-B:PRO:540:CB:9857, V-B:PRO:540:N:9856, V-B:TYR:539:CZ:9849, V-B:TYR:539:CE2:9848, V-B:TYR:539:CD1:9845, V-B:TYR:539:CA:9841, V-B:TYR:539:CE1:9847, V-B:TYR:539:CD2:9846, V-B:TYR:539:CG:9844, V-A:GLU:543:C:4902, V-B:GLU:543:C:9874, V-A:HIS:456:CD2:4068, V-B:GLU:543:CB:9878, V-A:HIS:456:CG:4066, V-A:GLY:544:C:4912, V-A:GLU:543:CB:4906, V-A:ARG:545:CG:4922, H-A:LYS:547:NZ:4951, H-B:LYS:547:NZ:9923"]

$$$$
3ce_Grossjean_2025
     RDKit          3D

 27 29  0  0  0  0  0  0  0  0999 V2000
  132.0600  126.1120   57.8070 C   0  0  0  0  0  0  0  0  0  0  0  0
  132.6410  125.3590   58.9890 C   0  0  0  0  0  0  0  0  0  0  0  0
  133.7740  124.5520   58.8560 C   0  0  0  0  0  0  0  0  0  0  0  0
  134.2590  123.8980   59.9890 C   0  0  0  0  0  0  0  0  0  0  0  0
  133.6070  124.0630   61.2130 C   0  0  0  0  0  0  0  0  0  0  0  0
  132.4710  124.8780   61.2740 C   0  0  0  0  0  0  0  0  0  0  0  0
  131.8690  125.0220   62.5350 N   0  0  0  0  0  0  0  0  0  0  0  0
  132.4400  124.8960   63.7540 C   0  0  0  0  0  0  0  0  0  0  0  0
  133.6260  124.6300   63.9540 O   0  0  0  0  0  0  0  0  0  0  0  0
  131.5110  125.1160   64.9470 C   0  0  0  0  0  0  0  0  0  0  0  0
  129.7950  125.4090   64.4270 S   0  0  0  0  0  0  0  0  0  0  0  0
  129.1640  126.6570   65.5240 C   0  0  0  0  0  0  0  0  0  0  0  0
  128.7590  127.7890   64.8960 N   0  0  0  0  0  0  0  0  0  0  0  0
  128.2460  128.7940   65.6430 C   0  0  0  0  0  0  0  0  0  0  0  0
  127.8020  130.0250   64.8760 C   0  0  0  0  0  0  0  0  0  0  0  0
  128.1310  128.7160   67.0280 C   0  0  0  0  0  0  0  0  0  0  0  0
  128.5680  127.5650   67.6970 C   0  0  0  0  0  0  0  0  0  0  0  0
  128.4470  127.5380   69.1860 C   0  0  0  0  0  0  0  0  0  0  0  0
  129.4280  128.1420   69.9820 C   0  0  0  0  0  0  0  0  0  0  0  0
  129.3260  128.1160   71.3700 C   0  0  0  0  0  0  0  0  0  0  0  0
  128.2440  127.4780   71.9710 C   0  0  0  0  0  0  0  0  0  0  0  0
  127.2650  126.8640   71.1930 C   0  0  0  0  0  0  0  0  0  0  0  0
  127.3690  126.8930   69.8060 C   0  0  0  0  0  0  0  0  0  0  0  0
  129.0970  126.4980   66.9290 C   0  0  0  0  0  0  0  0  0  0  0  0
  129.5560  125.2620   67.5720 C   0  0  0  0  0  0  0  0  0  0  0  0
  129.9170  124.2880   68.0800 N   0  0  0  0  0  0  0  0  0  0  0  0
  131.9960  125.5270   60.1710 N   0  0  0  0  0  0  0  0  0  0  0  0
  1  2  1  0
  2  3  2  0
  3  4  1  0
  4  5  2  0
  5  6  1  0
  6  7  1  0
  7  8  1  0
  8  9  2  0
  8 10  1  0
 10 11  1  0
 11 12  1  0
 12 13  2  0
 13 14  1  0
 14 15  1  0
 14 16  2  0
 16 17  1  0
 17 18  1  0
 18 19  2  0
 19 20  1  0
 20 21  2  0
 21 22  1  0
 22 23  2  0
 17 24  2  0
 24 25  1  0
 25 26  3  0
  6 27  2  0
 27  2  1  0
 24 12  1  0
 23 18  1  0
M  END
>  <Binding energies>  (23) 
[-7.81]

>  <Ligand effiencies>  (23) 
[-0.2789285714285714]

>  <Interactions>  (23) 
["V-A:ILE:369:CG2:3237, V-A:ILE:369:CD1:3239, V-A:ASP:366:CB:3212, V-B:GLU:543:CD:9880, H-A:ARG:545:NH2:4928, H-A:GLY:454:N:4050, V-A:ASP:366:CA:3210, V-A:ASP:366:CG:3213, H-A:TYR:484:OH:4348, V-B:GLU:543:CG:9879, V-A:ILE:369:CB:3236, V-A:GLU:543:CD:4908, V-A:ARG:545:CZ:4926, V-A:HIS:456:CE1:4070, V-A:TYR:484:CE2:4346, V-A:GLU:543:C:4902, V-B:GLU:543:C:9874, V-B:GLU:543:CA:9876, V-B:GLU:543:CB:9878, V-A:GLU:543:CB:4906, V-B:HIS:456:CD2:9039, V-B:HIS:456:CE1:9041, V-B:GLY:544:C:9884, V-B:GLY:544:CA:9886, V-A:GLU:543:CG:4907, V-A:TYR:531:CZ:4794, V-A:ASP:366:C:3208, V-A:ILE:369:CG1:3238"]

$$$$
3cj_Grossjean_2025
     RDKit          3D

 25 27  0  0  0  0  0  0  0  0999 V2000
  128.4400  121.9980   61.6170 C   0  0  0  0  0  0  0  0  0  0  0  0
  129.5470  122.6560   62.4180 C   0  0  0  0  0  0  0  0  0  0  0  0
  129.2670  123.5490   63.4490 C   0  0  0  0  0  0  0  0  0  0  0  0
  130.3210  124.1170   64.1790 C   0  0  0  0  0  0  0  0  0  0  0  0
  129.9740  125.0180   65.3160 C   0  0  0  0  0  0  0  0  0  0  0  0
  129.4310  126.2860   65.0790 C   0  0  0  0  0  0  0  0  0  0  0  0
  129.1190  127.1310   66.1410 C   0  0  0  0  0  0  0  0  0  0  0  0
  129.3550  126.7110   67.4460 C   0  0  0  0  0  0  0  0  0  0  0  0
  129.9020  125.4560   67.6980 C   0  0  0  0  0  0  0  0  0  0  0  0
  130.2130  124.6130   66.6350 C   0  0  0  0  0  0  0  0  0  0  0  0
  131.6490  123.7830   63.8150 C   0  0  0  0  0  0  0  0  0  0  0  0
  132.7950  124.3660   64.5210 C   0  0  0  0  0  0  0  0  0  0  0  0
  133.6990  124.8260   65.0800 N   0  0  0  0  0  0  0  0  0  0  0  0
  131.8400  122.8650   62.7580 C   0  0  0  0  0  0  0  0  0  0  0  0
  133.4470  122.2580   62.2890 S   0  0  0  0  0  0  0  0  0  0  0  0
  133.3300  121.9650   60.4960 C   0  0  0  0  0  0  0  0  0  0  0  0
  132.8160  120.5570   60.1800 C   0  0  0  0  0  0  0  0  0  0  0  0
  133.5530  119.7560   59.6010 O   0  0  0  0  0  0  0  0  0  0  0  0
  131.5650  120.2880   60.6110 N   0  0  0  0  0  0  0  0  0  0  0  0
  130.9220  119.0610   60.5730 C   0  0  0  0  0  0  0  0  0  0  0  0
  131.0450  118.1130   59.6690 N   0  0  0  0  0  0  0  0  0  0  0  0
  130.3040  117.0640   59.9660 C   0  0  0  0  0  0  0  0  0  0  0  0
  129.5550  117.1490   61.1360 C   0  0  0  0  0  0  0  0  0  0  0  0
  129.8430  118.6940   61.8810 S   0  0  0  0  0  0  0  0  0  0  0  0
  130.8080  122.3040   62.0800 N   0  0  0  0  0  0  0  0  0  0  0  0
  1  2  1  0
  2  3  2  0
  3  4  1  0
  4  5  1  0
  5  6  2  0
  6  7  1  0
  7  8  2  0
  8  9  1  0
  9 10  2  0
  4 11  2  0
 11 12  1  0
 12 13  3  0
 11 14  1  0
 14 15  1  0
 15 16  1  0
 16 17  1  0
 17 18  2  0
 17 19  1  0
 19 20  1  0
 20 21  2  0
 21 22  1  0
 22 23  2  0
 23 24  1  0
 14 25  2  0
 25  2  1  0
 10  5  1  0
 24 20  1  0
M  END
>  <Binding energies>  (24) 
[-7.79]

>  <Ligand effiencies>  (24) 
[-0.2996153846153846]

>  <Interactions>  (24) 
["V-A:ILE:369:CG2:3237, V-B:GLU:543:CD:9880, H-A:ARG:545:NH2:4928, H-A:GLY:454:N:4050, H-A:TYR:484:OH:4348, V-B:GLU:543:CG:9879, H-A:ARG:545:NE:4924, V-A:GLU:543:CD:4908, V-A:LEU:475:CD2:4259, V-A:HIS:456:CE1:4070, V-B:ALA:541:CB:9864, V-B:TYR:539:C:9839, V-B:PRO:540:CA:9855, V-B:TYR:539:CE2:9848, V-B:PRO:540:C:9853, V-B:TYR:539:CD2:9846, V-B:ALA:541:CA:9862, V-A:TYR:484:CE2:4346, V-B:GLU:543:CA:9876, V-A:TYR:484:CZ:4347, V-B:GLU:543:CB:9878, V-A:SER:385:CB:3409, V-A:PRO:482:CB:4326, V-A:HIS:383:CE1:3393, V-A:PRO:482:CG:4327, V-A:HIS:383:NE2:3394, H-A:SER:385:OG:3410, V-A:LEU:475:CG:4257, V-A:LEU:475:CD1:4258, V-B:VAL:344:CG1:7972, H-A:HIS:383:HE2:3395, V-B:TYR:539:CB:9843"]

$$$$
4ba_Grossjean_2025
     RDKit          3D

 28 30  0  0  0  0  0  0  0  0999 V2000
  127.0020  128.7180   74.4830 C   0  0  0  0  0  0  0  0  0  0  0  0
  127.5260  127.7590   73.3980 C   0  0  0  0  0  0  0  0  0  0  0  0
  128.8630  128.1730   72.7480 C   0  0  0  0  0  0  0  0  0  0  0  0
  129.6990  128.7840   73.4180 O   0  0  0  0  0  0  0  0  0  0  0  0
  129.0850  127.8020   71.3110 C   0  0  0  0  0  0  0  0  0  0  0  0
  130.3290  128.0550   70.7200 C   0  0  0  0  0  0  0  0  0  0  0  0
  130.5620  127.7220   69.3890 C   0  0  0  0  0  0  0  0  0  0  0  0
  129.5590  127.1280   68.6220 C   0  0  0  0  0  0  0  0  0  0  0  0
  129.8990  126.8410   67.2860 N   0  0  0  0  0  0  0  0  0  0  0  0
  129.8490  125.6700   66.6050 C   0  0  0  0  0  0  0  0  0  0  0  0
  129.5130  124.5940   67.1030 O   0  0  0  0  0  0  0  0  0  0  0  0
  130.2540  125.7460   65.2000 C   0  0  0  0  0  0  0  0  0  0  0  0
  129.2870  126.6620   64.0470 S   0  0  0  0  0  0  0  0  0  0  0  0
  130.3500  126.2190   62.7320 C   0  0  0  0  0  0  0  0  0  0  0  0
  130.1280  126.6400   61.4880 N   0  0  0  0  0  0  0  0  0  0  0  0
  131.0180  126.2320   60.5550 C   0  0  0  0  0  0  0  0  0  0  0  0
  130.7410  126.7160   59.1430 C   0  0  0  0  0  0  0  0  0  0  0  0
  132.1170  125.4250   60.8350 C   0  0  0  0  0  0  0  0  0  0  0  0
  132.3570  124.9780   62.1440 C   0  0  0  0  0  0  0  0  0  0  0  0
  133.5810  124.0940   62.4030 C   0  0  0  0  0  0  0  0  0  0  0  0
  133.2630  122.8920   62.8910 F   0  0  0  0  0  0  0  0  0  0  0  0
  134.2480  123.8990   61.2650 F   0  0  0  0  0  0  0  0  0  0  0  0
  134.3840  124.6840   63.2890 F   0  0  0  0  0  0  0  0  0  0  0  0
  131.4320  125.3870   63.1510 C   0  0  0  0  0  0  0  0  0  0  0  0
  131.3450  125.1250   64.5680 C   0  0  0  0  0  0  0  0  0  0  0  0
  132.2520  124.3400   65.2330 N   0  0  0  0  0  0  0  0  0  0  0  0
  128.3080  126.8770   69.2050 C   0  0  0  0  0  0  0  0  0  0  0  0
  128.0760  127.2110   70.5360 C   0  0  0  0  0  0  0  0  0  0  0  0
  1  2  1  0
  2  3  1  0
  3  4  2  0
  3  5  1  0
  5  6  2  0
  6  7  1  0
  7  8  2  0
  8  9  1  0
  9 10  1  0
 10 11  2  0
 10 12  1  0
 12 13  1  0
 13 14  1  0
 14 15  2  0
 15 16  1  0
 16 17  1  0
 16 18  2  0
 18 19  1  0
 19 20  1  0
 20 21  1  0
 20 22  1  0
 20 23  1  0
 19 24  2  0
 24 25  1  0
 25 26  1  0
  8 27  1  0
 27 28  2  0
 28  5  1  0
 25 12  2  0
 24 14  1  0
M  END
>  <Binding energies>  (25) 
[-6.84]

>  <Ligand effiencies>  (25) 
[-0.22064516129032258]

>  <Interactions>  (25) 
["V-A:ILE:369:CD1:3239, V-A:GLY:453:C:4042, V-B:GLU:543:CD:9880, V-A:GLY:453:CA:4044, V-A:ASP:366:CG:3213, H-A:GLU:543:OE1:4909, H-A:TYR:484:OH:4348, V-B:GLU:543:CG:9879, V-A:GLU:543:CD:4908, V-A:ARG:545:CZ:4926, H-A:GLU:543:OE2:4910, V-A:LEU:475:CD2:4259, V-A:HIS:456:CE1:4070, V-A:GLY:454:CA:4049, V-A:GLU:543:C:4902, V-B:GLU:543:C:9874, V-A:TYR:484:CZ:4347, V-B:GLU:543:CB:9878, V-A:GLY:544:C:4912, V-A:GLU:543:CB:4906, V-B:HIS:456:CD2:9039, V-B:HIS:456:CE1:9041, V-B:LYS:547:CE:9922, V-B:HIS:456:CG:9037, H-A:LYS:547:NZ:4951, V-B:HIS:456:CB:9036"]

$$$$
4bb_Grossjean_2025
     RDKit          3D

 27 29  0  0  0  0  0  0  0  0999 V2000
  128.3120  128.3480   72.9350 C   0  0  0  0  0  0  0  0  0  0  0  0
  129.5660  128.6720   72.1200 C   0  0  0  0  0  0  0  0  0  0  0  0
  130.3600  129.4940   72.5790 O   0  0  0  0  0  0  0  0  0  0  0  0
  129.7550  127.9800   70.8030 C   0  0  0  0  0  0  0  0  0  0  0  0
  130.9390  128.1860   70.0820 C   0  0  0  0  0  0  0  0  0  0  0  0
  131.1390  127.5570   68.8570 C   0  0  0  0  0  0  0  0  0  0  0  0
  130.1660  126.7040   68.3330 C   0  0  0  0  0  0  0  0  0  0  0  0
  130.4710  126.1230   67.0860 N   0  0  0  0  0  0  0  0  0  0  0  0
  130.1550  124.9000   66.5950 C   0  0  0  0  0  0  0  0  0  0  0  0
  129.5330  124.0420   67.2220 O   0  0  0  0  0  0  0  0  0  0  0  0
  130.6370  124.6290   65.2380 C   0  0  0  0  0  0  0  0  0  0  0  0
  131.9530  125.5820   64.5560 S   0  0  0  0  0  0  0  0  0  0  0  0
  131.8640  124.7110   63.0430 C   0  0  0  0  0  0  0  0  0  0  0  0
  132.6820  124.9920   62.0300 N   0  0  0  0  0  0  0  0  0  0  0  0
  132.5170  124.2500   60.9110 C   0  0  0  0  0  0  0  0  0  0  0  0
  133.4600  124.5850   59.7690 C   0  0  0  0  0  0  0  0  0  0  0  0
  131.5620  123.2450   60.7810 C   0  0  0  0  0  0  0  0  0  0  0  0
  130.6980  122.9450   61.8450 C   0  0  0  0  0  0  0  0  0  0  0  0
  129.6630  121.8300   61.6550 C   0  0  0  0  0  0  0  0  0  0  0  0
  128.4060  122.2540   61.8040 F   0  0  0  0  0  0  0  0  0  0  0  0
  129.7710  121.3200   60.4280 F   0  0  0  0  0  0  0  0  0  0  0  0
  129.8680  120.8660   62.5530 F   0  0  0  0  0  0  0  0  0  0  0  0
  130.8450  123.7090   63.0420 C   0  0  0  0  0  0  0  0  0  0  0  0
  130.1580  123.6900   64.3090 C   0  0  0  0  0  0  0  0  0  0  0  0
  129.1310  122.8220   64.5810 N   0  0  0  0  0  0  0  0  0  0  0  0
  128.9750  126.4990   69.0450 C   0  0  0  0  0  0  0  0  0  0  0  0
  128.7760  127.1310   70.2700 C   0  0  0  0  0  0  0  0  0  0  0  0
  1  2  1  0
  2  3  2  0
  2  4  1  0
  4  5  2  0
  5  6  1  0
  6  7  2  0
  7  8  1  0
  8  9  1  0
  9 10  2  0
  9 11  1  0
 11 12  1  0
 12 13  1  0
 13 14  2  0
 14 15  1  0
 15 16  1  0
 15 17  2  0
 17 18  1  0
 18 19  1  0
 19 20  1  0
 19 21  1  0
 19 22  1  0
 18 23  2  0
 23 24  1  0
 24 25  1  0
  7 26  1  0
 26 27  2  0
 27  4  1  0
 24 11  2  0
 23 13  1  0
M  END
>  <Binding energies>  (26) 
[-6.81]

>  <Ligand effiencies>  (26) 
[-0.22699999999999998]

>  <Interactions>  (26) 
["V-A:ASP:366:CB:3212, V-B:GLU:543:CD:9880, H-A:ARG:545:NH2:4928, V-A:ASP:366:CA:3210, V-A:ASP:366:CG:3213, H-A:GLU:543:OE1:4909, H-A:TYR:484:OH:4348, V-B:GLU:543:CG:9879, V-A:GLU:543:CD:4908, V-A:ARG:545:CZ:4926, H-A:GLU:543:OE2:4910, V-A:LEU:475:CD2:4259, V-A:HIS:456:CE1:4070, V-B:ALA:541:CB:9864, V-B:TYR:539:C:9839, V-B:PRO:540:CA:9855, V-B:TYR:539:CE2:9848, V-B:PRO:540:C:9853, V-B:TYR:539:CD2:9846, V-B:ALA:541:CA:9862, V-A:TYR:484:CE2:4346, V-A:GLU:543:C:4902, V-B:GLU:543:C:9874, V-A:TYR:484:CZ:4347, V-B:GLU:543:CB:9878, V-A:GLY:544:C:4912, V-A:GLU:543:CB:4906, V-B:HIS:456:CD2:9039, V-B:HIS:456:CE1:9041, V-A:ARG:545:CG:4922, V-B:HIS:456:CG:9037, H-A:LYS:547:NZ:4951, H-B:VAL:542:O:9867"]

$$$$
4bd_Grossjean_2025
     RDKit          3D

 24 26  0  0  0  0  0  0  0  0999 V2000
  130.3550  120.8390   60.7390 C   0  0  0  0  0  0  0  0  0  0  0  0
  130.5960  121.9200   61.7770 C   0  0  0  0  0  0  0  0  0  0  0  0
  131.4530  122.9860   61.5180 C   0  0  0  0  0  0  0  0  0  0  0  0
  131.6690  123.9770   62.4890 C   0  0  0  0  0  0  0  0  0  0  0  0
  132.6240  125.1290   62.1590 C   0  0  0  0  0  0  0  0  0  0  0  0
  133.1710  125.0230   60.9460 F   0  0  0  0  0  0  0  0  0  0  0  0
  131.9660  126.2870   62.2000 F   0  0  0  0  0  0  0  0  0  0  0  0
  133.6200  125.1570   63.0440 F   0  0  0  0  0  0  0  0  0  0  0  0
  130.9780  123.8380   63.7290 C   0  0  0  0  0  0  0  0  0  0  0  0
  130.9480  124.6350   64.9310 C   0  0  0  0  0  0  0  0  0  0  0  0
  131.6690  125.7920   65.0680 N   0  0  0  0  0  0  0  0  0  0  0  0
  130.1180  124.1190   65.9410 C   0  0  0  0  0  0  0  0  0  0  0  0
  129.8690  124.6570   67.2820 C   0  0  0  0  0  0  0  0  0  0  0  0
  129.4840  123.9230   68.1920 O   0  0  0  0  0  0  0  0  0  0  0  0
  130.1040  125.9850   67.4280 N   0  0  0  0  0  0  0  0  0  0  0  0
  129.9270  126.8060   68.5560 C   0  0  0  0  0  0  0  0  0  0  0  0
  128.6660  126.7570   69.1570 C   0  0  0  0  0  0  0  0  0  0  0  0
  128.3940  127.5250   70.2860 C   0  0  0  0  0  0  0  0  0  0  0  0
  129.3890  128.3390   70.8220 C   0  0  0  0  0  0  0  0  0  0  0  0
  130.6540  128.3870   70.2410 C   0  0  0  0  0  0  0  0  0  0  0  0
  130.9290  127.6200   69.1120 C   0  0  0  0  0  0  0  0  0  0  0  0
  129.3400  122.6250   65.4260 S   0  0  0  0  0  0  0  0  0  0  0  0
  130.1290  122.6970   63.8670 C   0  0  0  0  0  0  0  0  0  0  0  0
  129.9270  121.7600   62.9420 N   0  0  0  0  0  0  0  0  0  0  0  0
  1  2  1  0
  2  3  2  0
  3  4  1  0
  4  5  1  0
  5  6  1  0
  5  7  1  0
  5  8  1  0
  4  9  2  0
  9 10  1  0
 10 11  1  0
 10 12  2  0
 12 13  1  0
 13 14  2  0
 13 15  1  0
 15 16  1  0
 16 17  2  0
 17 18  1  0
 18 19  2  0
 19 20  1  0
 20 21  2  0
 12 22  1  0
 22 23  1  0
 23 24  2  0
 24  2  1  0
 23  9  1  0
 21 16  1  0
M  END
>  <Binding energies>  (27) 
[-6.01]

>  <Ligand effiencies>  (27) 
[-0.2225925925925926]

>  <Interactions>  (27) 
["V-A:ASP:366:CB:3212, V-A:ASP:366:CG:3213, H-A:GLU:543:OE1:4909, H-A:TYR:484:OH:4348, V-B:GLU:543:CG:9879, V-A:GLU:543:CD:4908, V-A:ARG:545:CZ:4926, H-A:GLU:543:OE2:4910, V-A:LEU:475:CD2:4259, V-A:HIS:456:CE1:4070, V-B:ALA:541:CB:9864, V-B:TYR:539:CE2:9848, V-B:TYR:539:CD2:9846, V-A:TYR:484:CE2:4346, V-A:GLU:543:C:4902, V-B:GLU:543:C:9874, V-B:GLU:543:CA:9876, V-A:TYR:484:CZ:4347, V-B:GLU:543:CB:9878, V-A:GLY:544:C:4912, V-A:GLU:543:CB:4906, V-B:HIS:456:CD2:9039, V-B:HIS:456:CE1:9041, V-A:GLU:543:CA:4904"]

$$$$
4be_Grossjean_2025
     RDKit          3D

 25 27  0  0  0  0  0  0  0  0999 V2000
  129.1180  133.2470   58.6890 C   0  0  0  0  0  0  0  0  0  0  0  0
  130.2640  132.4110   58.1500 C   0  0  0  0  0  0  0  0  0  0  0  0
  131.0690  132.8650   57.1020 C   0  0  0  0  0  0  0  0  0  0  0  0
  132.1030  132.0410   56.6550 C   0  0  0  0  0  0  0  0  0  0  0  0
  132.3060  130.7990   57.2600 C   0  0  0  0  0  0  0  0  0  0  0  0
  131.4660  130.4090   58.3090 C   0  0  0  0  0  0  0  0  0  0  0  0
  131.7180  129.1440   58.8700 N   0  0  0  0  0  0  0  0  0  0  0  0
  131.1070  127.9600   58.6130 C   0  0  0  0  0  0  0  0  0  0  0  0
  130.1940  127.8230   57.7960 O   0  0  0  0  0  0  0  0  0  0  0  0
  131.5890  126.8200   59.3970 C   0  0  0  0  0  0  0  0  0  0  0  0
  132.4700  125.5120   58.6080 S   0  0  0  0  0  0  0  0  0  0  0  0
  132.6190  124.6420   60.1170 C   0  0  0  0  0  0  0  0  0  0  0  0
  133.2470  123.4700   60.1830 N   0  0  0  0  0  0  0  0  0  0  0  0
  133.3010  122.8930   61.4060 C   0  0  0  0  0  0  0  0  0  0  0  0
  134.0180  121.5560   61.4600 C   0  0  0  0  0  0  0  0  0  0  0  0
  132.7480  123.4570   62.5520 C   0  0  0  0  0  0  0  0  0  0  0  0
  132.0860  124.6930   62.4890 C   0  0  0  0  0  0  0  0  0  0  0  0
  131.4970  125.2760   63.7780 C   0  0  0  0  0  0  0  0  0  0  0  0
  130.3620  125.9500   63.5750 F   0  0  0  0  0  0  0  0  0  0  0  0
  131.2260  124.2920   64.6360 F   0  0  0  0  0  0  0  0  0  0  0  0
  132.3690  126.1170   64.3340 F   0  0  0  0  0  0  0  0  0  0  0  0
  132.0080  125.3260   61.2130 C   0  0  0  0  0  0  0  0  0  0  0  0
  131.4180  126.5640   60.7660 C   0  0  0  0  0  0  0  0  0  0  0  0
  130.7540  127.4160   61.6120 N   0  0  0  0  0  0  0  0  0  0  0  0
  130.4490  131.2070   58.7480 N   0  0  0  0  0  0  0  0  0  0  0  0
  1  2  1  0
  2  3  2  0
  3  4  1  0
  4  5  2  0
  5  6  1  0
  6  7  1  0
  7  8  1  0
  8  9  2  0
  8 10  1  0
 10 11  1  0
 11 12  1  0
 12 13  2  0
 13 14  1  0
 14 15  1  0
 14 16  2  0
 16 17  1  0
 17 18  1  0
 18 19  1  0
 18 20  1  0
 18 21  1  0
 17 22  2  0
 22 23  1  0
 23 24  1  0
  6 25  2  0
 25  2  1  0
 23 10  2  0
 22 12  1  0
M  END
>  <Binding energies>  (28) 
[-6.02]

>  <Ligand effiencies>  (28) 
[-0.215]

>  <Interactions>  (28) 
["V-A:ILE:369:CG2:3237, V-A:ILE:369:CD1:3239, V-A:ASP:366:CB:3212, V-A:ASP:366:CA:3210, V-A:ASP:366:CG:3213, H-A:GLU:543:OE1:4909, V-A:GLU:543:CD:4908, V-A:ARG:545:CZ:4926, H-A:GLU:543:OE2:4910, V-A:LEU:475:CD2:4259, H-A:ASP:366:OD1:3214, V-A:SER:385:CB:3409, V-A:PRO:540:CA:4883, V-A:PRO:540:CB:4885, V-A:LEU:363:CD1:3189, V-A:TYR:531:CZ:4794, V-A:PRO:540:CD:4887, V-A:PRO:540:N:4884, H-A:TYR:531:OH:4795, V-A:SER:385:C:3405, V-A:SER:385:CA:3407, V-A:TYR:539:CD1:4873, V-A:TYR:531:CE2:4793, V-A:TYR:539:CA:4869, V-A:TYR:539:C:4867, H-A:ASP:366:OD2:3215, V-A:ILE:538:CB:4862"]

$$$$
4bg_Grossjean_2025
     RDKit          3D

 25 27  0  0  0  0  0  0  0  0999 V2000
  135.5070  124.5790   62.2530 C   0  0  0  0  0  0  0  0  0  0  0  0
  134.1460  124.3840   62.8960 C   0  0  0  0  0  0  0  0  0  0  0  0
  133.1680  123.6060   62.2840 C   0  0  0  0  0  0  0  0  0  0  0  0
  131.9110  123.4380   62.8880 C   0  0  0  0  0  0  0  0  0  0  0  0
  130.8660  122.5730   62.1770 C   0  0  0  0  0  0  0  0  0  0  0  0
  130.2870  121.6830   62.9860 F   0  0  0  0  0  0  0  0  0  0  0  0
  129.9010  123.3480   61.6810 F   0  0  0  0  0  0  0  0  0  0  0  0
  131.4410  121.8950   61.1840 F   0  0  0  0  0  0  0  0  0  0  0  0
  131.6960  124.0940   64.1370 C   0  0  0  0  0  0  0  0  0  0  0  0
  130.5640  124.1600   65.0290 C   0  0  0  0  0  0  0  0  0  0  0  0
  129.3740  123.5290   64.7670 N   0  0  0  0  0  0  0  0  0  0  0  0
  130.7930  124.9160   66.1880 C   0  0  0  0  0  0  0  0  0  0  0  0
  129.8660  125.2150   67.2800 C   0  0  0  0  0  0  0  0  0  0  0  0
  129.5520  124.3600   68.1090 O   0  0  0  0  0  0  0  0  0  0  0  0
  129.4140  126.4850   67.3390 N   0  0  0  0  0  0  0  0  0  0  0  0
  128.4720  127.0050   68.3310 C   0  0  0  0  0  0  0  0  0  0  0  0
  129.1040  127.2710   69.6910 C   0  0  0  0  0  0  0  0  0  0  0  0
  128.4200  126.9250   70.8610 C   0  0  0  0  0  0  0  0  0  0  0  0
  129.0160  127.1340   72.1020 C   0  0  0  0  0  0  0  0  0  0  0  0
  130.2990  127.6740   72.1700 C   0  0  0  0  0  0  0  0  0  0  0  0
  130.9920  128.0040   71.0080 C   0  0  0  0  0  0  0  0  0  0  0  0
  130.3960  127.7970   69.7670 C   0  0  0  0  0  0  0  0  0  0  0  0
  132.4130  125.6070   66.1940 S   0  0  0  0  0  0  0  0  0  0  0  0
  132.7850  124.8570   64.6600 C   0  0  0  0  0  0  0  0  0  0  0  0
  133.9750  125.0140   64.0810 N   0  0  0  0  0  0  0  0  0  0  0  0
  1  2  1  0
  2  3  2  0
  3  4  1  0
  4  5  1  0
  5  6  1  0
  5  7  1  0
  5  8  1  0
  4  9  2  0
  9 10  1  0
 10 11  1  0
 10 12  2  0
 12 13  1  0
 13 14  2  0
 13 15  1  0
 15 16  1  0
 16 17  1  0
 17 18  2  0
 18 19  1  0
 19 20  2  0
 20 21  1  0
 21 22  2  0
 12 23  1  0
 23 24  1  0
 24 25  2  0
 25  2  1  0
 24  9  1  0
 22 17  1  0
M  END
>  <Binding energies>  (29) 
[-6.11]

>  <Ligand effiencies>  (29) 
[-0.21821428571428572]

>  <Interactions>  (29) 
["V-A:ILE:369:CD1:3239, V-A:GLY:453:C:4042, V-B:GLU:543:CD:9880, H-A:ARG:545:NH1:4927, H-A:ARG:545:NH2:4928, H-A:GLY:454:N:4050, V-A:GLY:453:CA:4044, V-A:ASP:366:CG:3213, V-B:GLU:543:CG:9879, H-A:ARG:545:NE:4924, V-A:GLU:543:CD:4908, V-A:ARG:545:CZ:4926, H-A:GLU:543:OE2:4910, V-A:LEU:475:CD2:4259, V-A:HIS:456:CE1:4070, V-B:ALA:541:CB:9864, V-A:GLY:454:CA:4049, H-B:GLU:543:OE1:9881, V-B:TYR:539:CE2:9848, V-B:TYR:539:CD2:9846, V-A:TYR:484:CE2:4346, V-A:GLU:543:C:4902, V-A:HIS:456:CD2:4068, V-B:GLU:543:CA:9876, V-A:TYR:484:CZ:4347, V-B:GLU:543:CB:9878, V-A:GLY:544:C:4912, V-A:GLU:543:CB:4906, V-B:HIS:456:CE1:9041, V-A:ARG:545:CG:4922, V-A:ARG:545:CD:4923"]

$$$$
4ca_Grossjean_2025
     RDKit          3D

 34 37  0  0  0  0  0  0  0  0999 V2000
  132.2420  131.7150   57.2800 C   0  0  0  0  0  0  0  0  0  0  0  0
  131.4150  132.5520   56.2990 C   0  0  0  0  0  0  0  0  0  0  0  0
  130.6100  133.4720   57.0250 O   0  0  0  0  0  0  0  0  0  0  0  0
  129.3360  133.1610   57.3800 C   0  0  0  0  0  0  0  0  0  0  0  0
  128.3420  133.5570   56.7620 O   0  0  0  0  0  0  0  0  0  0  0  0
  129.2560  132.2850   58.5960 C   0  0  0  0  0  0  0  0  0  0  0  0
  129.4460  132.8540   59.8620 C   0  0  0  0  0  0  0  0  0  0  0  0
  129.3740  132.0690   61.0090 C   0  0  0  0  0  0  0  0  0  0  0  0
  129.1190  130.7010   60.9150 C   0  0  0  0  0  0  0  0  0  0  0  0
  129.0590  130.0040   62.1380 N   0  0  0  0  0  0  0  0  0  0  0  0
  128.0120  129.3890   62.7410 C   0  0  0  0  0  0  0  0  0  0  0  0
  126.8860  129.3010   62.2510 O   0  0  0  0  0  0  0  0  0  0  0  0
  128.3050  128.7940   64.0470 C   0  0  0  0  0  0  0  0  0  0  0  0
  127.8760  129.6500   65.5260 S   0  0  0  0  0  0  0  0  0  0  0  0
  128.4740  128.3370   66.5120 C   0  0  0  0  0  0  0  0  0  0  0  0
  128.4210  128.3870   67.8410 N   0  0  0  0  0  0  0  0  0  0  0  0
  128.8970  127.3140   68.5230 C   0  0  0  0  0  0  0  0  0  0  0  0
  128.8140  127.3970   70.0200 C   0  0  0  0  0  0  0  0  0  0  0  0
  127.7130  126.8660   70.7100 C   0  0  0  0  0  0  0  0  0  0  0  0
  127.6280  126.9450   72.0980 C   0  0  0  0  0  0  0  0  0  0  0  0
  128.6470  127.5600   72.8180 C   0  0  0  0  0  0  0  0  0  0  0  0
  129.7490  128.0960   72.1600 C   0  0  0  0  0  0  0  0  0  0  0  0
  129.8300  128.0150   70.7720 C   0  0  0  0  0  0  0  0  0  0  0  0
  129.4440  126.2050   67.8680 C   0  0  0  0  0  0  0  0  0  0  0  0
  129.5080  126.1440   66.4680 C   0  0  0  0  0  0  0  0  0  0  0  0
  130.1170  124.8970   65.8160 C   0  0  0  0  0  0  0  0  0  0  0  0
  131.3730  125.0820   65.4040 F   0  0  0  0  0  0  0  0  0  0  0  0
  130.1280  123.8900   66.6890 F   0  0  0  0  0  0  0  0  0  0  0  0
  129.3960  124.5480   64.7500 F   0  0  0  0  0  0  0  0  0  0  0  0
  128.9960  127.2570   65.7420 C   0  0  0  0  0  0  0  0  0  0  0  0
  128.8840  127.5460   64.3330 C   0  0  0  0  0  0  0  0  0  0  0  0
  129.3090  126.6750   63.3630 N   0  0  0  0  0  0  0  0  0  0  0  0
  128.9230  130.1230   59.6530 C   0  0  0  0  0  0  0  0  0  0  0  0
  128.9930  130.9100   58.5060 C   0  0  0  0  0  0  0  0  0  0  0  0
  1  2  1  0
  2  3  1  0
  3  4  1  0
  4  5  2  0
  4  6  1  0
  6  7  2  0
  7  8  1  0
  8  9  2  0
  9 10  1  0
 10 11  1  0
 11 12  2  0
 11 13  1  0
 13 14  1  0
 14 15  1  0
 15 16  2  0
 16 17  1  0
 17 18  1  0
 18 19  2  0
 19 20  1  0
 20 21  2  0
 21 22  1  0
 22 23  2  0
 17 24  2  0
 24 25  1  0
 25 26  1  0
 26 27  1  0
 26 28  1  0
 26 29  1  0
 25 30  2  0
 30 31  1  0
 31 32  1  0
  9 33  1  0
 33 34  2  0
 34  6  1  0
 31 13  2  0
 30 15  1  0
 23 18  1  0
M  END
>  <Binding energies>  (30) 
[-8.25]

>  <Ligand effiencies>  (30) 
[-0.22297297297297297]

>  <Interactions>  (30) 
["V-B:GLU:543:CD:9880, H-A:GLU:543:OE1:4909, V-B:GLU:543:CG:9879, V-A:GLU:543:CD:4908, H-A:GLU:543:OE2:4910, V-A:HIS:456:CE1:4070, H-B:GLU:543:OE1:9881, V-A:TYR:484:CE2:4346, V-B:GLU:543:C:9874, V-B:GLU:543:CA:9876, V-A:TYR:484:CZ:4347, V-B:GLU:543:CB:9878, V-A:GLU:543:CB:4906, V-B:HIS:456:CD2:9039, V-B:HIS:456:CE1:9041, V-B:GLY:544:C:9884, V-A:GLU:543:CG:4907, V-B:LYS:547:CE:9922, V-A:PRO:540:CA:4883, V-A:PRO:540:CB:4885, V-A:LEU:363:CD1:3189, V-A:PRO:540:N:4884, V-A:TYR:539:CG:4872, V-A:TYR:539:CD1:4873, H-A:TYR:539:N:4870, V-A:TYR:539:CA:4869, V-A:TYR:539:C:4867, V-A:TYR:484:CD2:4344, V-A:ILE:538:CB:4862, V-A:ILE:538:CA:4860, V-A:ILE:538:CG2:4863"]

$$$$
4cb_Grossjean_2025
     RDKit          3D

 33 36  0  0  0  0  0  0  0  0999 V2000
  131.7190  132.6620   56.5740 C   0  0  0  0  0  0  0  0  0  0  0  0
  130.7370  133.5750   57.0430 O   0  0  0  0  0  0  0  0  0  0  0  0
  129.4660  133.1670   57.2920 C   0  0  0  0  0  0  0  0  0  0  0  0
  128.5290  133.3410   56.5060 O   0  0  0  0  0  0  0  0  0  0  0  0
  129.3120  132.4810   58.6190 C   0  0  0  0  0  0  0  0  0  0  0  0
  129.6430  131.1240   58.7300 C   0  0  0  0  0  0  0  0  0  0  0  0
  129.5190  130.4620   59.9490 C   0  0  0  0  0  0  0  0  0  0  0  0
  129.0550  131.1390   61.0770 C   0  0  0  0  0  0  0  0  0  0  0  0
  128.9820  130.3770   62.2590 N   0  0  0  0  0  0  0  0  0  0  0  0
  127.9110  129.8170   62.8720 C   0  0  0  0  0  0  0  0  0  0  0  0
  126.7620  129.8540   62.4280 O   0  0  0  0  0  0  0  0  0  0  0  0
  128.2020  129.1200   64.1270 C   0  0  0  0  0  0  0  0  0  0  0  0
  127.8180  129.8770   65.6720 S   0  0  0  0  0  0  0  0  0  0  0  0
  128.3900  128.4790   66.5520 C   0  0  0  0  0  0  0  0  0  0  0  0
  128.3580  128.4330   67.8810 N   0  0  0  0  0  0  0  0  0  0  0  0
  128.8140  127.3000   68.4760 C   0  0  0  0  0  0  0  0  0  0  0  0
  128.7600  127.2770   69.9760 C   0  0  0  0  0  0  0  0  0  0  0  0
  127.5910  126.8810   70.6460 C   0  0  0  0  0  0  0  0  0  0  0  0
  127.5330  126.8600   72.0370 C   0  0  0  0  0  0  0  0  0  0  0  0
  128.6460  127.2370   72.7800 C   0  0  0  0  0  0  0  0  0  0  0  0
  129.8160  127.6360   72.1420 C   0  0  0  0  0  0  0  0  0  0  0  0
  129.8690  127.6570   70.7510 C   0  0  0  0  0  0  0  0  0  0  0  0
  129.3200  126.2280   67.7320 C   0  0  0  0  0  0  0  0  0  0  0  0
  129.3610  126.2680   66.3310 C   0  0  0  0  0  0  0  0  0  0  0  0
  129.9270  125.0570   65.5780 C   0  0  0  0  0  0  0  0  0  0  0  0
  129.9980  123.9580   66.3340 F   0  0  0  0  0  0  0  0  0  0  0  0
  129.1490  124.7720   64.5340 F   0  0  0  0  0  0  0  0  0  0  0  0
  131.1590  125.3270   65.1490 F   0  0  0  0  0  0  0  0  0  0  0  0
  128.8700  127.4450   65.6960 C   0  0  0  0  0  0  0  0  0  0  0  0
  128.7450  127.8370   64.3130 C   0  0  0  0  0  0  0  0  0  0  0  0
  129.1270  127.0260   63.2750 N   0  0  0  0  0  0  0  0  0  0  0  0
  128.7240  132.4990   60.9760 C   0  0  0  0  0  0  0  0  0  0  0  0
  128.8510  133.1590   59.7570 C   0  0  0  0  0  0  0  0  0  0  0  0
  1  2  1  0
  2  3  1  0
  3  4  2  0
  3  5  1  0
  5  6  2  0
  6  7  1  0
  7  8  2  0
  8  9  1  0
  9 10  1  0
 10 11  2  0
 10 12  1  0
 12 13  1  0
 13 14  1  0
 14 15  2  0
 15 16  1  0
 16 17  1  0
 17 18  2  0
 18 19  1  0
 19 20  2  0
 20 21  1  0
 21 22  2  0
 16 23  2  0
 23 24  1  0
 24 25  1  0
 25 26  1  0
 25 27  1  0
 25 28  1  0
 24 29  2  0
 29 30  1  0
 30 31  1  0
  8 32  1  0
 32 33  2  0
 33  5  1  0
 30 12  2  0
 29 14  1  0
 22 17  1  0
M  END
>  <Binding energies>  (31) 
[-8.19]

>  <Ligand effiencies>  (31) 
[-0.22749999999999998]

>  <Interactions>  (31) 
["V-B:GLU:543:CD:9880, H-A:GLU:543:OE1:4909, V-B:GLU:543:CG:9879, V-A:GLU:543:CD:4908, H-A:GLU:543:OE2:4910, V-A:HIS:456:CE1:4070, H-B:GLU:543:OE2:9882, H-B:GLU:543:OE1:9881, V-A:TYR:484:CE2:4346, V-B:GLU:543:C:9874, V-B:GLU:543:CA:9876, V-A:TYR:484:CZ:4347, V-B:GLU:543:CB:9878, V-A:GLU:543:CB:4906, V-B:HIS:456:CD2:9039, V-B:HIS:456:CE1:9041, V-B:GLY:544:C:9884, V-B:GLY:544:CA:9886, V-A:GLU:543:CG:4907, V-B:LYS:547:CE:9922, V-B:TYR:484:CZ:9318, V-A:PRO:540:CA:4883, V-A:LEU:363:CD1:3189, V-A:PRO:540:CD:4887, V-A:PRO:540:N:4884, V-A:TYR:539:CG:4872, V-A:TYR:539:CD1:4873, H-A:TYR:539:N:4870, V-A:TYR:539:CA:4869, V-A:TYR:539:C:4867, V-A:ILE:538:CB:4862, V-A:ILE:538:CG2:4863"]

$$$$
4cc_Grossjean_2025
     RDKit          3D

 31 34  0  0  0  0  0  0  0  0999 V2000
  130.8520  132.8780   56.6030 C   0  0  0  0  0  0  0  0  0  0  0  0
  129.8120  133.3420   57.4580 O   0  0  0  0  0  0  0  0  0  0  0  0
  129.5440  132.6570   58.6270 C   0  0  0  0  0  0  0  0  0  0  0  0
  130.5160  131.7540   59.0560 C   0  0  0  0  0  0  0  0  0  0  0  0
  130.3350  131.0190   60.2250 C   0  0  0  0  0  0  0  0  0  0  0  0
  129.1700  131.1720   60.9780 C   0  0  0  0  0  0  0  0  0  0  0  0
  129.0830  130.3990   62.1510 N   0  0  0  0  0  0  0  0  0  0  0  0
  128.0060  129.7780   62.6900 C   0  0  0  0  0  0  0  0  0  0  0  0
  126.8870  129.7690   62.1740 O   0  0  0  0  0  0  0  0  0  0  0  0
  128.2480  129.0890   63.9610 C   0  0  0  0  0  0  0  0  0  0  0  0
  127.8520  129.8780   65.4870 S   0  0  0  0  0  0  0  0  0  0  0  0
  128.3960  128.4880   66.3970 C   0  0  0  0  0  0  0  0  0  0  0  0
  128.3470  128.4670   67.7270 N   0  0  0  0  0  0  0  0  0  0  0  0
  128.7830  127.3390   68.3470 C   0  0  0  0  0  0  0  0  0  0  0  0
  128.7180  127.3450   69.8460 C   0  0  0  0  0  0  0  0  0  0  0  0
  127.5790  126.8700   70.5180 C   0  0  0  0  0  0  0  0  0  0  0  0
  127.5120  126.8740   71.9090 C   0  0  0  0  0  0  0  0  0  0  0  0
  128.5850  127.3550   72.6510 C   0  0  0  0  0  0  0  0  0  0  0  0
  129.7240  127.8340   72.0110 C   0  0  0  0  0  0  0  0  0  0  0  0
  129.7870  127.8290   70.6200 C   0  0  0  0  0  0  0  0  0  0  0  0
  129.2800  126.2470   67.6290 C   0  0  0  0  0  0  0  0  0  0  0  0
  129.3380  126.2600   66.2260 C   0  0  0  0  0  0  0  0  0  0  0  0
  129.8900  125.0260   65.5040 C   0  0  0  0  0  0  0  0  0  0  0  0
  131.1470  125.1830   65.0810 F   0  0  0  0  0  0  0  0  0  0  0  0
  129.8750  123.9780   66.3270 F   0  0  0  0  0  0  0  0  0  0  0  0
  129.1400  124.7560   64.4350 F   0  0  0  0  0  0  0  0  0  0  0  0
  128.8750  127.4340   65.5660 C   0  0  0  0  0  0  0  0  0  0  0  0
  128.7820  127.8090   64.1760 C   0  0  0  0  0  0  0  0  0  0  0  0
  129.1800  126.9800   63.1570 N   0  0  0  0  0  0  0  0  0  0  0  0
  128.1930  132.0880   60.5600 C   0  0  0  0  0  0  0  0  0  0  0  0
  128.3790  132.8210   59.3910 C   0  0  0  0  0  0  0  0  0  0  0  0
  1  2  1  0
  2  3  1  0
  3  4  2  0
  4  5  1  0
  5  6  2  0
  6  7  1  0
  7  8  1  0
  8  9  2  0
  8 10  1  0
 10 11  1  0
 11 12  1  0
 12 13  2  0
 13 14  1  0
 14 15  1  0
 15 16  2  0
 16 17  1  0
 17 18  2  0
 18 19  1  0
 19 20  2  0
 14 21  2  0
 21 22  1  0
 22 23  1  0
 23 24  1  0
 23 25  1  0
 23 26  1  0
 22 27  2  0
 27 28  1  0
 28 29  1  0
  6 30  1  0
 30 31  2  0
 31  3  1  0
 28 10  2  0
 27 12  1  0
 20 15  1  0
M  END
>  <Binding energies>  (32) 
[-7.43]

>  <Ligand effiencies>  (32) 
[-0.21852941176470586]

>  <Interactions>  (32) 
["V-B:GLU:543:CD:9880, H-A:GLU:543:OE1:4909, V-B:GLU:543:CG:9879, V-A:GLU:543:CD:4908, H-A:GLU:543:OE2:4910, V-A:HIS:456:CE1:4070, H-B:GLU:543:OE1:9881, V-A:TYR:484:CE2:4346, V-B:GLU:543:C:9874, V-B:GLU:543:CA:9876, V-A:TYR:484:CZ:4347, V-B:GLU:543:CB:9878, V-A:GLU:543:CB:4906, V-B:HIS:456:CD2:9039, V-B:HIS:456:CE1:9041, V-B:GLY:544:C:9884, V-B:GLY:544:CA:9886, V-A:GLU:543:CG:4907, V-B:TYR:484:CZ:9318, V-A:PRO:540:CA:4883, V-A:PRO:540:CB:4885, V-A:PRO:540:N:4884, V-A:TYR:539:CE1:4875, V-A:TYR:539:CD1:4873, H-A:TYR:539:N:4870, V-A:TYR:539:C:4867, V-A:ILE:538:CB:4862, V-A:ILE:538:CA:4860, V-A:ILE:538:CG2:4863"]

$$$$
4ce_Grossjean_2025
     RDKit          3D

 30 33  0  0  0  0  0  0  0  0999 V2000
  131.5710  120.2030   60.7130 C   0  0  0  0  0  0  0  0  0  0  0  0
  132.3510  121.2580   61.4740 C   0  0  0  0  0  0  0  0  0  0  0  0
  133.7160  121.4610   61.2510 C   0  0  0  0  0  0  0  0  0  0  0  0
  134.3670  122.4550   61.9820 C   0  0  0  0  0  0  0  0  0  0  0  0
  133.6480  123.2150   62.9060 C   0  0  0  0  0  0  0  0  0  0  0  0
  132.2840  122.9560   63.0840 C   0  0  0  0  0  0  0  0  0  0  0  0
  131.6090  123.7700   64.0110 N   0  0  0  0  0  0  0  0  0  0  0  0
  130.5390  124.5790   63.8100 C   0  0  0  0  0  0  0  0  0  0  0  0
  129.9700  124.7030   62.7240 O   0  0  0  0  0  0  0  0  0  0  0  0
  130.0780  125.3190   64.9870 C   0  0  0  0  0  0  0  0  0  0  0  0
  130.3980  124.6990   66.6050 S   0  0  0  0  0  0  0  0  0  0  0  0
  129.6250  126.0840   67.3370 C   0  0  0  0  0  0  0  0  0  0  0  0
  129.5410  126.2140   68.6580 N   0  0  0  0  0  0  0  0  0  0  0  0
  128.9350  127.3340   69.1350 C   0  0  0  0  0  0  0  0  0  0  0  0
  128.8620  127.4520   70.6290 C   0  0  0  0  0  0  0  0  0  0  0  0
  127.6850  127.1160   71.3170 C   0  0  0  0  0  0  0  0  0  0  0  0
  127.6070  127.2310   72.7030 C   0  0  0  0  0  0  0  0  0  0  0  0
  128.7090  127.6820   73.4210 C   0  0  0  0  0  0  0  0  0  0  0  0
  129.8860  128.0220   72.7640 C   0  0  0  0  0  0  0  0  0  0  0  0
  129.9590  127.9090   71.3780 C   0  0  0  0  0  0  0  0  0  0  0  0
  128.3990  128.3050   68.2830 C   0  0  0  0  0  0  0  0  0  0  0  0
  128.4770  128.1740   66.8870 C   0  0  0  0  0  0  0  0  0  0  0  0
  127.8710  129.2770   66.0130 C   0  0  0  0  0  0  0  0  0  0  0  0
  128.3960  129.3220   64.7870 F   0  0  0  0  0  0  0  0  0  0  0  0
  126.5590  129.0740   65.8770 F   0  0  0  0  0  0  0  0  0  0  0  0
  128.0750  130.4650   66.5790 F   0  0  0  0  0  0  0  0  0  0  0  0
  129.1240  127.0120   66.3770 C   0  0  0  0  0  0  0  0  0  0  0  0
  129.3970  126.5470   65.0390 C   0  0  0  0  0  0  0  0  0  0  0  0
  129.0240  127.2450   63.9200 N   0  0  0  0  0  0  0  0  0  0  0  0
  131.6380  121.9880   62.3700 N   0  0  0  0  0  0  0  0  0  0  0  0
  1  2  1  0
  2  3  2  0
  3  4  1  0
  4  5  2  0
  5  6  1  0
  6  7  1  0
  7  8  1  0
  8  9  2  0
  8 10  1  0
 10 11  1  0
 11 12  1  0
 12 13  2  0
 13 14  1  0
 14 15  1  0
 15 16  2  0
 16 17  1  0
 17 18  2  0
 18 19  1  0
 19 20  2  0
 14 21  2  0
 21 22  1  0
 22 23  1  0
 23 24  1  0
 23 25  1  0
 23 26  1  0
 22 27  2  0
 27 28  1  0
 28 29  1  0
  6 30  2  0
 30  2  1  0
 28 10  2  0
 27 12  1  0
 20 15  1  0
M  END
>  <Binding energies>  (33) 
[-7.46]

>  <Ligand effiencies>  (33) 
[-0.22606060606060607]

>  <Interactions>  (33) 
["V-A:ILE:369:CG2:3237, V-A:ILE:369:CD1:3239, V-B:GLU:543:CD:9880, H-A:GLU:543:OE1:4909, H-A:TYR:484:OH:4348, V-B:GLU:543:CG:9879, V-A:GLU:543:CD:4908, H-A:GLU:543:OE2:4910, V-A:LEU:475:CD2:4259, V-A:HIS:456:CE1:4070, V-A:GLY:454:CA:4049, H-B:GLU:543:OE2:9882, H-B:GLU:543:OE1:9881, V-B:TYR:539:CE2:9848, V-B:TYR:539:CD2:9846, V-A:TYR:484:CE2:4346, V-A:TYR:484:CZ:4347, V-B:GLU:543:CB:9878, V-A:SER:385:CB:3409, V-A:GLU:543:CB:4906, V-B:HIS:456:CD2:9039, V-B:HIS:456:CE1:9041, V-B:GLY:544:C:9884, V-A:GLU:543:CG:4907, V-B:LYS:547:CE:9922, V-B:TYR:484:CE2:9317, V-B:TYR:484:CZ:9318, V-A:GLU:543:CA:4904"]

$$$$
4cf_Grossjean_2025
     RDKit          3D

 29 32  0  0  0  0  0  0  0  0999 V2000
  129.0010  127.2460   63.8580 N   0  0  0  0  0  0  0  0  0  0  0  0
  129.3650  126.5330   64.9720 C   0  0  0  0  0  0  0  0  0  0  0  0
  130.0170  125.2900   64.9110 C   0  0  0  0  0  0  0  0  0  0  0  0
  130.3920  124.5120   63.7270 C   0  0  0  0  0  0  0  0  0  0  0  0
  129.7440  124.6060   62.6840 O   0  0  0  0  0  0  0  0  0  0  0  0
  131.4820  123.7210   63.8740 N   0  0  0  0  0  0  0  0  0  0  0  0
  132.0690  122.8220   62.9630 C   0  0  0  0  0  0  0  0  0  0  0  0
  133.4500  122.5790   62.8310 C   0  0  0  0  0  0  0  0  0  0  0  0
  133.9020  121.6700   61.8720 C   0  0  0  0  0  0  0  0  0  0  0  0
  132.9630  121.0250   61.0670 C   0  0  0  0  0  0  0  0  0  0  0  0
  131.6280  121.2470   61.1690 N   0  0  0  0  0  0  0  0  0  0  0  0
  131.2040  122.1350   62.1040 C   0  0  0  0  0  0  0  0  0  0  0  0
  130.3400  124.6620   66.5250 S   0  0  0  0  0  0  0  0  0  0  0  0
  129.5960  126.0590   67.2670 C   0  0  0  0  0  0  0  0  0  0  0  0
  129.5140  126.1830   68.5900 N   0  0  0  0  0  0  0  0  0  0  0  0
  128.9040  127.2970   69.0730 C   0  0  0  0  0  0  0  0  0  0  0  0
  128.8190  127.4050   70.5680 C   0  0  0  0  0  0  0  0  0  0  0  0
  129.9320  127.8090   71.3220 C   0  0  0  0  0  0  0  0  0  0  0  0
  129.8630  127.9130   72.7080 C   0  0  0  0  0  0  0  0  0  0  0  0
  128.6720  127.6150   73.3620 C   0  0  0  0  0  0  0  0  0  0  0  0
  127.5520  127.2160   72.6400 C   0  0  0  0  0  0  0  0  0  0  0  0
  127.6270  127.1140   71.2540 C   0  0  0  0  0  0  0  0  0  0  0  0
  128.4020  128.2900   68.2270 C   0  0  0  0  0  0  0  0  0  0  0  0
  128.4870  128.1710   66.8310 C   0  0  0  0  0  0  0  0  0  0  0  0
  127.9110  129.2960   65.9630 C   0  0  0  0  0  0  0  0  0  0  0  0
  128.5110  129.4000   64.7740 F   0  0  0  0  0  0  0  0  0  0  0  0
  126.6160  129.0740   65.7380 F   0  0  0  0  0  0  0  0  0  0  0  0
  128.0550  130.4660   66.5850 F   0  0  0  0  0  0  0  0  0  0  0  0
  129.1090  126.9990   66.3130 C   0  0  0  0  0  0  0  0  0  0  0  0
  1  2  1  0
  2  3  2  0
  3  4  1  0
  4  5  2  0
  4  6  1  0
  6  7  1  0
  7  8  2  0
  8  9  1  0
  9 10  2  0
 10 11  1  0
 11 12  2  0
  3 13  1  0
 13 14  1  0
 14 15  2  0
 15 16  1  0
 16 17  1  0
 17 18  2  0
 18 19  1  0
 19 20  2  0
 20 21  1  0
 21 22  2  0
 16 23  2  0
 23 24  1  0
 24 25  1  0
 25 26  1  0
 25 27  1  0
 25 28  1  0
 24 29  2  0
 29  2  1  0
 12  7  1  0
 29 14  1  0
 22 17  1  0
M  END
>  <Binding energies>  (34) 
[-6.9]

>  <Ligand effiencies>  (34) 
[-0.215625]

>  <Interactions>  (34) 
["V-A:ILE:369:CG2:3237, V-A:ILE:369:CD1:3239, V-B:GLU:543:CD:9880, H-A:GLU:543:OE1:4909, H-A:TYR:484:OH:4348, V-B:GLU:543:CG:9879, V-A:GLU:543:CD:4908, H-A:GLU:543:OE2:4910, V-A:LEU:475:CD2:4259, V-A:HIS:456:CE1:4070, V-A:GLY:454:CA:4049, H-B:GLU:543:OE2:9882, H-B:GLU:543:OE1:9881, V-A:TYR:484:CE2:4346, V-A:TYR:484:CZ:4347, V-B:GLU:543:CB:9878, V-A:SER:385:CB:3409, V-A:GLU:543:CB:4906, V-B:HIS:456:CD2:9039, V-B:HIS:456:CE1:9041, V-B:GLY:544:C:9884, V-A:GLU:543:CG:4907, V-B:LYS:547:CE:9922, V-B:TYR:484:CE2:9317, V-B:TYR:484:CZ:9318, V-A:SER:385:C:3405, V-A:GLU:543:CA:4904"]

$$$$
4ci_Grossjean_2025
     RDKit          3D

 28 31  0  0  0  0  0  0  0  0999 V2000
  128.7460  127.2910   63.8430 N   0  0  0  0  0  0  0  0  0  0  0  0
  129.1300  126.5450   64.9270 C   0  0  0  0  0  0  0  0  0  0  0  0
  129.6410  125.2410   64.8220 C   0  0  0  0  0  0  0  0  0  0  0  0
  129.8730  124.4470   63.6120 C   0  0  0  0  0  0  0  0  0  0  0  0
  131.0200  124.1960   63.2350 O   0  0  0  0  0  0  0  0  0  0  0  0
  128.7570  124.0360   62.9600 N   0  0  0  0  0  0  0  0  0  0  0  0
  128.6870  123.2800   61.7970 C   0  0  0  0  0  0  0  0  0  0  0  0
  128.2480  123.7940   60.5780 C   0  0  0  0  0  0  0  0  0  0  0  0
  128.3260  122.7430   59.6960 C   0  0  0  0  0  0  0  0  0  0  0  0
  128.7890  121.6500   60.3500 O   0  0  0  0  0  0  0  0  0  0  0  0
  129.0130  122.0030   61.6810 N   0  0  0  0  0  0  0  0  0  0  0  0
  130.0420  124.5850   66.4070 S   0  0  0  0  0  0  0  0  0  0  0  0
  129.5160  126.0520   67.1980 C   0  0  0  0  0  0  0  0  0  0  0  0
  129.5730  126.1880   68.5210 N   0  0  0  0  0  0  0  0  0  0  0  0
  129.1450  127.3660   69.0450 C   0  0  0  0  0  0  0  0  0  0  0  0
  129.2180  127.4870   70.5400 C   0  0  0  0  0  0  0  0  0  0  0  0
  128.0980  127.2060   71.3400 C   0  0  0  0  0  0  0  0  0  0  0  0
  128.1590  127.3160   72.7270 C   0  0  0  0  0  0  0  0  0  0  0  0
  129.3460  127.7110   73.3360 C   0  0  0  0  0  0  0  0  0  0  0  0
  130.4680  128.0000   72.5680 C   0  0  0  0  0  0  0  0  0  0  0  0
  130.4020  127.8900   71.1820 C   0  0  0  0  0  0  0  0  0  0  0  0
  128.6460  128.3940   68.2380 C   0  0  0  0  0  0  0  0  0  0  0  0
  128.5810  128.2610   66.8420 C   0  0  0  0  0  0  0  0  0  0  0  0
  128.0230  129.4280   66.0190 C   0  0  0  0  0  0  0  0  0  0  0  0
  128.6060  129.5550   64.8260 F   0  0  0  0  0  0  0  0  0  0  0  0
  126.7190  129.2460   65.8080 F   0  0  0  0  0  0  0  0  0  0  0  0
  128.2060  130.5730   66.6770 F   0  0  0  0  0  0  0  0  0  0  0  0
  129.0390  127.0350   66.2810 C   0  0  0  0  0  0  0  0  0  0  0  0
  1  2  1  0
  2  3  2  0
  3  4  1  0
  4  5  2  0
  4  6  1  0
  6  7  1  0
  7  8  1  0
  8  9  2  0
  9 10  1  0
 10 11  1  0
  3 12  1  0
 12 13  1  0
 13 14  2  0
 14 15  1  0
 15 16  1  0
 16 17  2  0
 17 18  1  0
 18 19  2  0
 19 20  1  0
 20 21  2  0
 15 22  2  0
 22 23  1  0
 23 24  1  0
 24 25  1  0
 24 26  1  0
 24 27  1  0
 23 28  2  0
 28  2  1  0
 11  7  2  0
 28 13  1  0
 21 16  1  0
M  END
>  <Binding energies>  (35) 
[-6.71]

>  <Ligand effiencies>  (35) 
[-0.21645161290322582]

>  <Interactions>  (35) 
["V-B:GLU:543:CD:9880, H-A:GLU:543:OE1:4909, V-B:GLU:543:CG:9879, V-A:GLU:543:CD:4908, H-A:GLU:543:OE2:4910, V-A:HIS:456:CE1:4070, H-B:GLU:543:OE2:9882, V-B:TYR:539:C:9839, H-B:ALA:541:N:9863, H-B:GLU:543:OE1:9881, V-B:PRO:540:CA:9855, V-B:PRO:540:N:9856, V-B:TYR:539:CE2:9848, V-B:TYR:539:CD2:9846, V-A:TYR:484:CE2:4346, V-B:GLU:543:CA:9876, V-A:TYR:484:CZ:4347, V-B:GLU:543:CB:9878, V-A:GLY:544:C:4912, V-A:GLU:543:CB:4906, V-B:HIS:456:CD2:9039, V-B:HIS:456:CE1:9041, V-A:GLU:543:CG:4907, V-B:TYR:484:CE2:9317, V-B:TYR:484:CZ:9318, V-A:GLU:543:CA:4904"]

$$$$
8a_Ghoteimi_2023
     RDKit          3D

 40 44  0  0  0  0  0  0  0  0999 V2000
  129.7310  116.7490   60.6380 C   0  0  0  0  0  0  0  0  0  0  0  0
  130.8850  117.7230   60.8940 C   0  0  0  0  0  0  0  0  0  0  0  0
  131.2310  118.3750   59.6790 O   0  0  0  0  0  0  0  0  0  0  0  0
  132.1400  119.3860   59.6600 C   0  0  0  0  0  0  0  0  0  0  0  0
  133.1260  119.3990   58.9160 O   0  0  0  0  0  0  0  0  0  0  0  0
  131.8290  120.4820   60.6370 C   0  0  0  0  0  0  0  0  0  0  0  0
  130.4970  120.7110   61.0070 C   0  0  0  0  0  0  0  0  0  0  0  0
  130.1770  121.7200   61.9100 C   0  0  0  0  0  0  0  0  0  0  0  0
  131.1770  122.5220   62.4620 C   0  0  0  0  0  0  0  0  0  0  0  0
  130.7340  123.5140   63.3600 N   0  0  0  0  0  0  0  0  0  0  0  0
  130.5520  124.8450   63.1760 C   0  0  0  0  0  0  0  0  0  0  0  0
  130.7640  125.4340   62.1160 O   0  0  0  0  0  0  0  0  0  0  0  0
  130.0630  125.5760   64.3480 C   0  0  0  0  0  0  0  0  0  0  0  0
  130.4450  125.0100   65.9740 S   0  0  0  0  0  0  0  0  0  0  0  0
  129.5450  126.3250   66.6940 C   0  0  0  0  0  0  0  0  0  0  0  0
  129.4260  126.4520   68.0150 N   0  0  0  0  0  0  0  0  0  0  0  0
  128.7000  127.5070   68.4710 C   0  0  0  0  0  0  0  0  0  0  0  0
  128.5630  127.6180   69.9560 C   0  0  0  0  0  0  0  0  0  0  0  0
  127.4950  127.0100   70.6310 C   0  0  0  0  0  0  0  0  0  0  0  0
  127.3660  127.1270   72.0120 C   0  0  0  0  0  0  0  0  0  0  0  0
  128.3000  127.8490   72.7520 C   0  0  0  0  0  0  0  0  0  0  0  0
  128.0900  127.9120   74.1170 O   0  0  0  0  0  0  0  0  0  0  0  0
  127.0160  128.7010   74.6170 C   0  0  0  0  0  0  0  0  0  0  0  0
  129.3750  128.4550   72.0880 C   0  0  0  0  0  0  0  0  0  0  0  0
  129.5000  128.3390   70.7050 C   0  0  0  0  0  0  0  0  0  0  0  0
  128.1060  128.4310   67.6090 C   0  0  0  0  0  0  0  0  0  0  0  0
  128.2420  128.3120   66.2220 C   0  0  0  0  0  0  0  0  0  0  0  0
  127.6160  129.3400   65.3520 C   0  0  0  0  0  0  0  0  0  0  0  0
  126.2730  129.2290   64.9870 C   0  0  0  0  0  0  0  0  0  0  0  0
  125.6770  130.2020   64.1890 C   0  0  0  0  0  0  0  0  0  0  0  0
  126.4100  131.3030   63.7470 C   0  0  0  0  0  0  0  0  0  0  0  0
  125.7360  132.2180   62.9600 O   0  0  0  0  0  0  0  0  0  0  0  0
  124.3250  132.1060   62.8210 C   0  0  0  0  0  0  0  0  0  0  0  0
  127.7580  131.4210   64.1190 C   0  0  0  0  0  0  0  0  0  0  0  0
  128.3510  130.4470   64.9200 C   0  0  0  0  0  0  0  0  0  0  0  0
  128.9790  127.2020   65.7220 C   0  0  0  0  0  0  0  0  0  0  0  0
  129.2760  126.7380   64.3890 C   0  0  0  0  0  0  0  0  0  0  0  0
  128.8100  127.3750   63.2660 N   0  0  0  0  0  0  0  0  0  0  0  0
  132.5140  122.2960   62.1010 C   0  0  0  0  0  0  0  0  0  0  0  0
  132.8330  121.2860   61.1980 C   0  0  0  0  0  0  0  0  0  0  0  0
  1  2  1  0
  2  3  1  0
  3  4  1  0
  4  5  2  0
  4  6  1  0
  6  7  2  0
  7  8  1  0
  8  9  2  0
  9 10  1  0
 10 11  1  0
 11 12  2  0
 11 13  1  0
 13 14  1  0
 14 15  1  0
 15 16  2  0
 16 17  1  0
 17 18  1  0
 18 19  2  0
 19 20  1  0
 20 21  2  0
 21 22  1  0
 22 23  1  0
 21 24  1  0
 24 25  2  0
 17 26  2  0
 26 27  1  0
 27 28  1  0
 28 29  2  0
 29 30  1  0
 30 31  2  0
 31 32  1  0
 32 33  1  0
 31 34  1  0
 34 35  2  0
 27 36  2  0
 36 37  1  0
 37 38  1  0
  9 39  1  0
 39 40  2  0
 40  6  1  0
 37 13  2  0
 36 15  1  0
 25 18  1  0
 35 28  1  0
M  END
>  <Binding energies>  (36) 
[-8.28]

>  <Ligand effiencies>  (36) 
[-0.1925581395348837]

>  <Interactions>  (36) 
["V-A:ILE:369:CG2:3237, V-B:GLU:543:CD:9880, H-A:GLU:543:OE1:4909, H-A:TYR:484:OH:4348, V-B:GLU:543:CG:9879, V-A:GLU:543:CD:4908, V-A:LEU:475:CD2:4259, V-B:ALA:541:CB:9864, H-B:GLU:543:OE2:9882, V-B:TYR:539:C:9839, H-B:GLU:543:OE1:9881, V-B:TYR:539:CE2:9848, V-B:TYR:539:CD2:9846, V-B:TYR:539:CG:9844, V-A:TYR:484:CE2:4346, V-A:GLU:543:C:4902, V-B:GLU:543:C:9874, V-B:GLU:543:CB:9878, V-A:SER:385:CB:3409, V-A:PRO:482:CB:4326, V-A:GLU:543:CB:4906, V-A:HIS:383:CE1:3393, V-A:PRO:482:CG:4327, V-B:HIS:456:CD2:9039, V-B:HIS:456:CE1:9041, V-A:HIS:383:NE2:3394, V-B:GLY:544:C:9884, V-B:GLY:544:CA:9886, V-A:GLU:543:CG:4907, H-B:TYR:484:OH:9319, V-B:HIS:456:CG:9037, H-A:SER:385:OG:3410, V-B:GLY:454:CA:9020, H-B:LYS:547:NZ:9923, V-B:HIS:456:CB:9036, V-B:VAL:344:CG1:7972, H-A:HIS:383:HE2:3395"]

$$$$
8c_Ghoteimi_2023
     RDKit          3D

 34 38  0  0  0  0  0  0  0  0999 V2000
  126.8350  128.7740   74.8140 C   0  0  0  0  0  0  0  0  0  0  0  0
  127.9360  128.0020   74.3500 O   0  0  0  0  0  0  0  0  0  0  0  0
  128.1750  127.9170   72.9920 C   0  0  0  0  0  0  0  0  0  0  0  0
  127.2580  127.1850   72.2420 C   0  0  0  0  0  0  0  0  0  0  0  0
  127.4200  127.0440   70.8670 C   0  0  0  0  0  0  0  0  0  0  0  0
  128.5070  127.6340   70.2050 C   0  0  0  0  0  0  0  0  0  0  0  0
  128.6890  127.4830   68.7280 C   0  0  0  0  0  0  0  0  0  0  0  0
  128.0860  128.3560   67.8180 C   0  0  0  0  0  0  0  0  0  0  0  0
  128.2750  128.1940   66.4410 C   0  0  0  0  0  0  0  0  0  0  0  0
  127.6140  129.1310   65.5030 C   0  0  0  0  0  0  0  0  0  0  0  0
  126.2220  129.1500   65.3910 C   0  0  0  0  0  0  0  0  0  0  0  0
  125.6030  130.0370   64.5170 C   0  0  0  0  0  0  0  0  0  0  0  0
  126.3610  130.9150   63.7410 C   0  0  0  0  0  0  0  0  0  0  0  0
  125.6610  131.7610   62.9030 O   0  0  0  0  0  0  0  0  0  0  0  0
  124.3910  131.3540   62.4080 C   0  0  0  0  0  0  0  0  0  0  0  0
  127.7600  130.8910   63.8510 C   0  0  0  0  0  0  0  0  0  0  0  0
  128.3790  130.0040   64.7270 C   0  0  0  0  0  0  0  0  0  0  0  0
  129.0990  127.1250   66.0010 C   0  0  0  0  0  0  0  0  0  0  0  0
  129.5020  126.6780   64.6940 C   0  0  0  0  0  0  0  0  0  0  0  0
  129.0930  127.3050   63.5440 N   0  0  0  0  0  0  0  0  0  0  0  0
  130.3430  125.5530   64.7110 C   0  0  0  0  0  0  0  0  0  0  0  0
  130.9400  124.8430   63.5770 C   0  0  0  0  0  0  0  0  0  0  0  0
  130.6180  125.1200   62.4200 O   0  0  0  0  0  0  0  0  0  0  0  0
  131.8430  123.8860   63.9020 N   0  0  0  0  0  0  0  0  0  0  0  0
  132.5500  123.0750   63.0260 C   0  0  0  0  0  0  0  0  0  0  0  0
  133.8510  122.8850   62.9720 N   0  0  0  0  0  0  0  0  0  0  0  0
  134.1780  122.0420   62.0130 C   0  0  0  0  0  0  0  0  0  0  0  0
  133.1280  121.5280   61.2600 C   0  0  0  0  0  0  0  0  0  0  0  0
  131.6330  122.1910   61.8490 S   0  0  0  0  0  0  0  0  0  0  0  0
  130.6600  125.0210   66.3630 S   0  0  0  0  0  0  0  0  0  0  0  0
  129.6660  126.3020   67.0170 C   0  0  0  0  0  0  0  0  0  0  0  0
  129.4850  126.4540   68.3280 N   0  0  0  0  0  0  0  0  0  0  0  0
  129.4240  128.3720   70.9660 C   0  0  0  0  0  0  0  0  0  0  0  0
  129.2650  128.5130   72.3410 C   0  0  0  0  0  0  0  0  0  0  0  0
  1  2  1  0
  2  3  1  0
  3  4  2  0
  4  5  1  0
  5  6  2  0
  6  7  1  0
  7  8  2  0
  8  9  1  0
  9 10  1  0
 10 11  2  0
 11 12  1  0
 12 13  2  0
 13 14  1  0
 14 15  1  0
 13 16  1  0
 16 17  2  0
  9 18  2  0
 18 19  1  0
 19 20  1  0
 19 21  2  0
 21 22  1  0
 22 23  2  0
 22 24  1  0
 24 25  1  0
 25 26  2  0
 26 27  1  0
 27 28  2  0
 28 29  1  0
 21 30  1  0
 30 31  1  0
 31 32  2  0
  6 33  1  0
 33 34  2  0
 34  3  1  0
 32  7  1  0
 17 10  1  0
 31 18  1  0
 29 25  1  0
M  END
>  <Binding energies>  (37) 
[-7.59]

>  <Ligand effiencies>  (37) 
[-0.20513513513513512]

>  <Interactions>  (37) 
["V-A:ILE:369:CG2:3237, V-A:ILE:369:CD1:3239, V-B:GLU:543:CD:9880, H-A:GLY:454:N:4050, H-A:GLU:543:OE1:4909, H-A:TYR:484:OH:4348, V-B:GLU:543:CG:9879, V-A:GLU:543:CD:4908, H-A:GLU:543:OE2:4910, V-A:LEU:475:CD2:4259, V-A:HIS:456:CE1:4070, V-A:GLY:454:CA:4049, H-B:GLU:543:OE2:9882, H-B:GLU:543:OE1:9881, V-A:TYR:484:CE2:4346, V-A:GLU:543:C:4902, V-B:GLU:543:C:9874, V-A:TYR:484:CZ:4347, V-B:GLU:543:CB:9878, V-A:GLU:543:CB:4906, V-B:HIS:456:CD2:9039, V-B:HIS:456:CE1:9041, V-B:GLY:544:C:9884, V-B:GLY:544:CA:9886, V-A:GLU:543:CG:4907, V-B:LYS:547:CE:9922, V-B:HIS:456:CG:9037, V-A:SER:385:C:3405, H-B:LYS:547:NZ:9923, V-B:HIS:456:CB:9036"]

$$$$
8d_Ghoteimi_2023
     RDKit          3D

 30 33  0  0  0  0  0  0  0  0999 V2000
  132.9930  124.9880   64.7260 C   0  0  0  0  0  0  0  0  0  0  0  0
  132.3630  123.7390   64.4780 O   0  0  0  0  0  0  0  0  0  0  0  0
  131.0550  123.5450   64.7890 C   0  0  0  0  0  0  0  0  0  0  0  0
  130.5310  122.4350   64.9030 O   0  0  0  0  0  0  0  0  0  0  0  0
  130.3140  124.8110   64.9780 C   0  0  0  0  0  0  0  0  0  0  0  0
  129.8240  125.7620   63.5750 S   0  0  0  0  0  0  0  0  0  0  0  0
  129.0850  126.9690   64.6020 C   0  0  0  0  0  0  0  0  0  0  0  0
  128.4840  128.0480   64.0990 N   0  0  0  0  0  0  0  0  0  0  0  0
  127.9400  128.9230   64.9870 C   0  0  0  0  0  0  0  0  0  0  0  0
  127.2750  130.1260   64.3970 C   0  0  0  0  0  0  0  0  0  0  0  0
  128.0050  131.2880   64.1060 C   0  0  0  0  0  0  0  0  0  0  0  0
  127.3830  132.4050   63.5590 C   0  0  0  0  0  0  0  0  0  0  0  0
  126.0150  132.3930   63.2880 C   0  0  0  0  0  0  0  0  0  0  0  0
  125.4820  133.5450   62.7440 O   0  0  0  0  0  0  0  0  0  0  0  0
  124.1270  133.5440   62.3050 C   0  0  0  0  0  0  0  0  0  0  0  0
  125.2750  131.2360   63.5730 C   0  0  0  0  0  0  0  0  0  0  0  0
  125.9030  130.1200   64.1200 C   0  0  0  0  0  0  0  0  0  0  0  0
  128.0050  128.7210   66.3690 C   0  0  0  0  0  0  0  0  0  0  0  0
  128.6330  127.5880   66.8950 C   0  0  0  0  0  0  0  0  0  0  0  0
  128.6780  127.3990   68.3640 C   0  0  0  0  0  0  0  0  0  0  0  0
  129.8810  127.5570   69.0560 C   0  0  0  0  0  0  0  0  0  0  0  0
  129.9250  127.3700   70.4340 C   0  0  0  0  0  0  0  0  0  0  0  0
  128.7710  127.0280   71.1410 C   0  0  0  0  0  0  0  0  0  0  0  0
  128.9100  126.8630   72.5050 O   0  0  0  0  0  0  0  0  0  0  0  0
  130.1580  127.1650   73.1180 C   0  0  0  0  0  0  0  0  0  0  0  0
  127.5620  126.8750   70.4430 C   0  0  0  0  0  0  0  0  0  0  0  0
  127.5200  127.0610   69.0640 C   0  0  0  0  0  0  0  0  0  0  0  0
  129.2050  126.6600   65.9860 C   0  0  0  0  0  0  0  0  0  0  0  0
  129.9120  125.4220   66.1710 C   0  0  0  0  0  0  0  0  0  0  0  0
  130.1700  124.8970   67.4120 N   0  0  0  0  0  0  0  0  0  0  0  0
  1  2  1  0
  2  3  1  0
  3  4  2  0
  3  5  1  0
  5  6  1  0
  6  7  1  0
  7  8  2  0
  8  9  1  0
  9 10  1  0
 10 11  2  0
 11 12  1  0
 12 13  2  0
 13 14  1  0
 14 15  1  0
 13 16  1  0
 16 17  2  0
  9 18  2  0
 18 19  1  0
 19 20  1  0
 20 21  2  0
 21 22  1  0
 22 23  2  0
 23 24  1  0
 24 25  1  0
 23 26  1  0
 26 27  2  0
 19 28  2  0
 28 29  1  0
 29 30  1  0
 29  5  2  0
 28  7  1  0
 17 10  1  0
 27 20  1  0
M  END
>  <Binding energies>  (38) 
[-6.53]

>  <Ligand effiencies>  (38) 
[-0.2040625]

>  <Interactions>  (38) 
["V-B:GLU:543:CD:9880, H-A:TYR:484:OH:4348, V-B:GLU:543:CG:9879, V-A:GLU:543:CD:4908, V-A:ARG:545:CZ:4926, V-A:HIS:456:CE1:4070, V-A:TYR:484:CE2:4346, V-B:GLU:543:C:9874, V-A:HIS:456:CD2:4068, V-B:GLU:543:CA:9876, V-A:TYR:484:CZ:4347, V-B:GLU:543:CB:9878, V-A:GLU:543:CB:4906, V-B:HIS:456:CE1:9041, V-B:GLY:544:C:9884, V-A:GLU:543:CG:4907, V-B:GLY:454:CA:9020, V-B:LEU:475:CD2:9230, H-B:LYS:547:NZ:9923, H-A:HIS:456:NE2:4071, H-B:GLU:543:O:9875"]

$$$$
9a_Ghoteimi_2023
     RDKit          3D

 48 54  0  0  0  0  0  0  0  0999 V2000
  127.4810  131.1080   74.6170 C   0  0  0  0  0  0  0  0  0  0  0  0
  128.9760  131.3740   74.4090 C   0  0  0  0  0  0  0  0  0  0  0  0
  129.5990  130.2020   73.8960 O   0  0  0  0  0  0  0  0  0  0  0  0
  128.8720  129.0940   73.6000 C   0  0  0  0  0  0  0  0  0  0  0  0
  128.0660  128.5810   74.3830 O   0  0  0  0  0  0  0  0  0  0  0  0
  129.1490  128.5500   72.2290 C   0  0  0  0  0  0  0  0  0  0  0  0
  128.4540  127.4160   71.7880 C   0  0  0  0  0  0  0  0  0  0  0  0
  128.6900  126.8860   70.5230 C   0  0  0  0  0  0  0  0  0  0  0  0
  129.6230  127.4780   69.6720 C   0  0  0  0  0  0  0  0  0  0  0  0
  129.7800  126.8570   68.4170 N   0  0  0  0  0  0  0  0  0  0  0  0
  129.3160  125.6660   67.9620 C   0  0  0  0  0  0  0  0  0  0  0  0
  128.6340  124.8890   68.6300 O   0  0  0  0  0  0  0  0  0  0  0  0
  129.6760  125.3410   66.5790 C   0  0  0  0  0  0  0  0  0  0  0  0
  130.5400  123.8480   66.2110 S   0  0  0  0  0  0  0  0  0  0  0  0
  130.5470  124.2200   64.5030 C   0  0  0  0  0  0  0  0  0  0  0  0
  131.0860  123.3910   63.6090 N   0  0  0  0  0  0  0  0  0  0  0  0
  131.0290  123.7680   62.3050 C   0  0  0  0  0  0  0  0  0  0  0  0
  131.6300  122.8190   61.3200 C   0  0  0  0  0  0  0  0  0  0  0  0
  132.2480  123.2950   60.1580 C   0  0  0  0  0  0  0  0  0  0  0  0
  132.8120  122.4180   59.2360 C   0  0  0  0  0  0  0  0  0  0  0  0
  132.7900  121.0300   59.4470 C   0  0  0  0  0  0  0  0  0  0  0  0
  133.3350  120.1360   58.5210 N   0  0  0  0  0  0  0  0  0  0  0  0
  133.0470  118.6880   58.5830 C   0  0  0  0  0  0  0  0  0  0  0  0
  134.0010  117.8260   57.7300 C   0  0  0  0  0  0  0  0  0  0  0  0
  134.0050  118.2870   56.3890 O   0  0  0  0  0  0  0  0  0  0  0  0
  134.4410  119.6340   56.3030 C   0  0  0  0  0  0  0  0  0  0  0  0
  133.4960  120.5470   57.1100 C   0  0  0  0  0  0  0  0  0  0  0  0
  132.1570  120.5570   60.6060 C   0  0  0  0  0  0  0  0  0  0  0  0
  131.5910  121.4350   61.5260 C   0  0  0  0  0  0  0  0  0  0  0  0
  130.4600  124.9790   61.9030 C   0  0  0  0  0  0  0  0  0  0  0  0
  129.9110  125.8610   62.8400 C   0  0  0  0  0  0  0  0  0  0  0  0
  129.3510  127.1520   62.3620 C   0  0  0  0  0  0  0  0  0  0  0  0
  129.1530  128.2130   63.2490 C   0  0  0  0  0  0  0  0  0  0  0  0
  128.6410  129.4250   62.7970 C   0  0  0  0  0  0  0  0  0  0  0  0
  128.3320  129.6170   61.4410 C   0  0  0  0  0  0  0  0  0  0  0  0
  127.8070  130.8210   60.9660 N   0  0  0  0  0  0  0  0  0  0  0  0
  128.3270  131.3840   59.7030 C   0  0  0  0  0  0  0  0  0  0  0  0
  127.4210  132.4820   59.1060 C   0  0  0  0  0  0  0  0  0  0  0  0
  127.2020  133.5060   60.0650 O   0  0  0  0  0  0  0  0  0  0  0  0
  126.5700  133.0050   61.2320 C   0  0  0  0  0  0  0  0  0  0  0  0
  127.4520  131.9200   61.8850 C   0  0  0  0  0  0  0  0  0  0  0  0
  128.5380  128.5460   60.5590 C   0  0  0  0  0  0  0  0  0  0  0  0
  129.0450  127.3320   61.0120 C   0  0  0  0  0  0  0  0  0  0  0  0
  129.9270  125.4700   64.2090 C   0  0  0  0  0  0  0  0  0  0  0  0
  129.4170  126.0780   65.4130 C   0  0  0  0  0  0  0  0  0  0  0  0
  128.7290  127.2640   65.4050 N   0  0  0  0  0  0  0  0  0  0  0  0
  130.3230  128.6160   70.1030 C   0  0  0  0  0  0  0  0  0  0  0  0
  130.0860  129.1440   71.3690 C   0  0  0  0  0  0  0  0  0  0  0  0
  1  2  1  0
  2  3  1  0
  3  4  1  0
  4  5  2  0
  4  6  1  0
  6  7  2  0
  7  8  1  0
  8  9  2  0
  9 10  1  0
 10 11  1  0
 11 12  2  0
 11 13  1  0
 13 14  1  0
 14 15  1  0
 15 16  2  0
 16 17  1  0
 17 18  1  0
 18 19  2  0
 19 20  1  0
 20 21  2  0
 21 22  1  0
 22 23  1  0
 23 24  1  0
 24 25  1  0
 25 26  1  0
 26 27  1  0
 21 28  1  0
 28 29  2  0
 17 30  2  0
 30 31  1  0
 31 32  1  0
 32 33  2  0
 33 34  1  0
 34 35  2  0
 35 36  1  0
 36 37  1  0
 37 38  1  0
 38 39  1  0
 39 40  1  0
 40 41  1  0
 35 42  1  0
 42 43  2  0
 31 44  2  0
 44 45  1  0
 45 46  1  0
  9 47  1  0
 47 48  2  0
 48  6  1  0
 45 13  2  0
 44 15  1  0
 29 18  1  0
 43 32  1  0
 27 22  1  0
 41 36  1  0
M  END
>  <Binding energies>  (39) 
[9.21]

>  <Ligand effiencies>  (39) 
[0.18058823529411766]

>  <Interactions>  (39) 
["V-A:ILE:369:CG2:3237, V-B:GLU:543:CD:9880, H-A:GLU:543:OE1:4909, V-B:GLU:543:CG:9879, V-A:ILE:369:CB:3236, V-A:GLU:543:CD:4908, H-A:GLU:543:OE2:4910, V-A:LEU:475:CD2:4259, V-A:HIS:456:CE1:4070, H-B:GLU:543:OE2:9882, H-B:GLU:543:OE1:9881, V-B:TYR:539:CZ:9849, V-B:TYR:539:CE2:9848, V-B:TYR:539:CE1:9847, V-B:TYR:539:CD2:9846, V-B:TYR:539:CG:9844, V-A:TYR:484:CE2:4346, V-A:GLU:543:C:4902, V-B:GLU:543:C:9874, V-B:GLU:543:CA:9876, V-A:TYR:484:CZ:4347, V-B:GLU:543:CB:9878, V-A:GLY:544:C:4912, V-A:GLU:543:CB:4906, V-B:HIS:456:CD2:9039, V-B:HIS:456:CE1:9041, V-A:HIS:383:NE2:3394, V-B:HIS:456:CG:9037, V-A:TYR:539:CE1:4875, V-A:TYR:539:CD1:4873, V-A:GLU:543:CA:4904, H-A:LYS:547:NZ:4951, H-B:LYS:547:NZ:9923, V-A:GLY:544:CA:4914, V-B:HIS:456:CB:9036, V-A:LYS:547:CE:4950, V-A:HIS:383:CD2:3392, V-A:LEU:373:CD1:3280, V-A:ASN:370:CA:3243, V-A:ILE:369:CA:3234, V-A:ILE:369:C:3232, V-A:VAL:384:C:3397, V-A:LEU:373:CG:3279, V-A:LEU:373:CD2:3281, V-A:HIS:383:CG:3390, V-A:HIS:383:CB:3389"]

$$$$
9b_Ghoteimi_2023
     RDKit          3D

 42 48  0  0  0  0  0  0  0  0999 V2000
  128.8690  127.1930   61.9160 N   0  0  0  0  0  0  0  0  0  0  0  0
  128.3980  127.9270   62.9750 C   0  0  0  0  0  0  0  0  0  0  0  0
  127.6440  129.1020   62.8280 C   0  0  0  0  0  0  0  0  0  0  0  0
  127.1990  129.7530   61.5930 C   0  0  0  0  0  0  0  0  0  0  0  0
  127.9990  130.3620   60.8790 O   0  0  0  0  0  0  0  0  0  0  0  0
  125.8760  129.6370   61.3180 N   0  0  0  0  0  0  0  0  0  0  0  0
  125.1880  130.1610   60.2310 C   0  0  0  0  0  0  0  0  0  0  0  0
  125.3870  129.7240   58.9220 C   0  0  0  0  0  0  0  0  0  0  0  0
  124.5270  130.4790   58.1580 C   0  0  0  0  0  0  0  0  0  0  0  0
  123.8460  131.3260   58.9660 O   0  0  0  0  0  0  0  0  0  0  0  0
  124.2730  131.1150   60.2770 N   0  0  0  0  0  0  0  0  0  0  0  0
  127.2360  129.7980   64.3960 S   0  0  0  0  0  0  0  0  0  0  0  0
  128.0890  128.5250   65.2350 C   0  0  0  0  0  0  0  0  0  0  0  0
  128.1770  128.5010   66.5630 N   0  0  0  0  0  0  0  0  0  0  0  0
  128.8780  127.4770   67.1170 C   0  0  0  0  0  0  0  0  0  0  0  0
  128.9790  127.4850   68.6080 C   0  0  0  0  0  0  0  0  0  0  0  0
  127.9300  127.0140   69.4070 C   0  0  0  0  0  0  0  0  0  0  0  0
  128.0230  127.0370   70.7950 C   0  0  0  0  0  0  0  0  0  0  0  0
  129.1630  127.5460   71.4360 C   0  0  0  0  0  0  0  0  0  0  0  0
  129.2730  127.5730   72.8310 N   0  0  0  0  0  0  0  0  0  0  0  0
  129.9880  126.5110   73.5670 C   0  0  0  0  0  0  0  0  0  0  0  0
  130.3070  126.8750   75.0320 C   0  0  0  0  0  0  0  0  0  0  0  0
  129.1190  127.2490   75.7090 O   0  0  0  0  0  0  0  0  0  0  0  0
  128.5110  128.3810   75.1070 C   0  0  0  0  0  0  0  0  0  0  0  0
  128.1390  128.0670   73.6410 C   0  0  0  0  0  0  0  0  0  0  0  0
  130.2180  127.9980   70.6310 C   0  0  0  0  0  0  0  0  0  0  0  0
  130.1270  127.9700   69.2420 C   0  0  0  0  0  0  0  0  0  0  0  0
  129.4640  126.4700   66.3450 C   0  0  0  0  0  0  0  0  0  0  0  0
  129.3570  126.4810   64.9490 C   0  0  0  0  0  0  0  0  0  0  0  0
  129.9720  125.3720   64.1760 C   0  0  0  0  0  0  0  0  0  0  0  0
  131.3530  125.1750   64.2030 C   0  0  0  0  0  0  0  0  0  0  0  0
  131.9300  124.1250   63.4960 C   0  0  0  0  0  0  0  0  0  0  0  0
  131.1420  123.2430   62.7400 C   0  0  0  0  0  0  0  0  0  0  0  0
  131.6990  122.1730   62.0350 N   0  0  0  0  0  0  0  0  0  0  0  0
  130.8390  121.3680   61.1470 C   0  0  0  0  0  0  0  0  0  0  0  0
  131.4670  120.0130   60.7570 C   0  0  0  0  0  0  0  0  0  0  0  0
  132.7420  120.2210   60.1680 O   0  0  0  0  0  0  0  0  0  0  0  0
  133.6310  120.8780   61.0580 C   0  0  0  0  0  0  0  0  0  0  0  0
  133.0570  122.2530   61.4600 C   0  0  0  0  0  0  0  0  0  0  0  0
  129.7530  123.4400   62.7360 C   0  0  0  0  0  0  0  0  0  0  0  0
  129.1760  124.4900   63.4440 C   0  0  0  0  0  0  0  0  0  0  0  0
  128.6560  127.5630   64.3460 C   0  0  0  0  0  0  0  0  0  0  0  0
  1  2  1  0
  2  3  2  0
  3  4  1  0
  4  5  2  0
  4  6  1  0
  6  7  1  0
  7  8  1  0
  8  9  2  0
  9 10  1  0
 10 11  1  0
  3 12  1  0
 12 13  1  0
 13 14  2  0
 14 15  1  0
 15 16  1  0
 16 17  2  0
 17 18  1  0
 18 19  2  0
 19 20  1  0
 20 21  1  0
 21 22  1  0
 22 23  1  0
 23 24  1  0
 24 25  1  0
 19 26  1  0
 26 27  2  0
 15 28  2  0
 28 29  1  0
 29 30  1  0
 30 31  2  0
 31 32  1  0
 32 33  2  0
 33 34  1  0
 34 35  1  0
 35 36  1  0
 36 37  1  0
 37 38  1  0
 38 39  1  0
 33 40  1  0
 40 41  2  0
 29 42  2  0
 42  2  1  0
 11  7  2  0
 42 13  1  0
 27 16  1  0
 41 30  1  0
 25 20  1  0
 39 34  1  0
M  END
>  <Binding energies>  (40) 
[-8.75]

>  <Ligand effiencies>  (40) 
[-0.19444444444444445]

>  <Interactions>  (40) 
["V-A:ILE:369:CG2:3237, V-B:GLU:543:CD:9880, H-A:GLU:543:OE1:4909, V-B:GLU:543:CG:9879, V-A:GLU:543:CD:4908, V-A:LEU:475:CD2:4259, V-A:HIS:456:CE1:4070, V-B:ASP:366:CB:8183, H-B:GLU:543:OE1:9881, V-B:ASP:366:CG:8184, H-B:ASP:366:OD1:8185, V-B:TYR:539:CE2:9848, V-B:TYR:539:CD2:9846, V-A:GLU:543:C:4902, V-B:GLU:543:C:9874, V-A:HIS:456:CD2:4068, V-B:GLU:543:CB:9878, V-A:SER:385:CB:3409, V-A:GLU:543:CB:4906, V-B:HIS:456:CD2:9039, V-B:HIS:456:CE1:9041, H-B:ASP:366:OD2:8186, V-A:GLU:543:CG:4907, V-A:SER:385:C:3405, V-A:SER:385:CA:3407, H-A:SER:385:OG:3410, V-B:ASP:366:CA:8181, H-B:LYS:547:NZ:9923"]

$$$$
9c_Ghoteimi_2023
     RDKit          3D

 42 48  0  0  0  0  0  0  0  0999 V2000
  128.9210  127.1820   61.9330 N   0  0  0  0  0  0  0  0  0  0  0  0
  128.4240  127.9060   62.9870 C   0  0  0  0  0  0  0  0  0  0  0  0
  127.6400  129.0600   62.8310 C   0  0  0  0  0  0  0  0  0  0  0  0
  127.1890  129.6970   61.5900 C   0  0  0  0  0  0  0  0  0  0  0  0
  127.9340  130.4520   60.9620 O   0  0  0  0  0  0  0  0  0  0  0  0
  125.9230  129.3990   61.2100 N   0  0  0  0  0  0  0  0  0  0  0  0
  125.2520  129.8760   60.0930 C   0  0  0  0  0  0  0  0  0  0  0  0
  125.4980  129.6110   58.8280 N   0  0  0  0  0  0  0  0  0  0  0  0
  124.6620  130.2450   58.0280 C   0  0  0  0  0  0  0  0  0  0  0  0
  123.7090  131.0500   58.6470 C   0  0  0  0  0  0  0  0  0  0  0  0
  123.9290  130.9630   60.3690 S   0  0  0  0  0  0  0  0  0  0  0  0
  127.2010  129.7480   64.3930 S   0  0  0  0  0  0  0  0  0  0  0  0
  128.0830  128.5010   65.2420 C   0  0  0  0  0  0  0  0  0  0  0  0
  128.1590  128.4820   66.5720 N   0  0  0  0  0  0  0  0  0  0  0  0
  128.8840  127.4790   67.1330 C   0  0  0  0  0  0  0  0  0  0  0  0
  128.9710  127.4930   68.6250 C   0  0  0  0  0  0  0  0  0  0  0  0
  127.9220  127.0120   69.4170 C   0  0  0  0  0  0  0  0  0  0  0  0
  128.0050  127.0370   70.8060 C   0  0  0  0  0  0  0  0  0  0  0  0
  129.1370  127.5570   71.4550 C   0  0  0  0  0  0  0  0  0  0  0  0
  129.2380  127.5820   72.8510 N   0  0  0  0  0  0  0  0  0  0  0  0
  129.9510  126.5190   73.5890 C   0  0  0  0  0  0  0  0  0  0  0  0
  130.2650  126.8830   75.0560 C   0  0  0  0  0  0  0  0  0  0  0  0
  129.0720  127.2540   75.7280 O   0  0  0  0  0  0  0  0  0  0  0  0
  128.4670  128.3850   75.1240 C   0  0  0  0  0  0  0  0  0  0  0  0
  128.1010  128.0720   73.6570 C   0  0  0  0  0  0  0  0  0  0  0  0
  130.1920  128.0190   70.6560 C   0  0  0  0  0  0  0  0  0  0  0  0
  130.1100  127.9900   69.2670 C   0  0  0  0  0  0  0  0  0  0  0  0
  129.5020  126.4860   66.3690 C   0  0  0  0  0  0  0  0  0  0  0  0
  129.4050  126.4900   64.9730 C   0  0  0  0  0  0  0  0  0  0  0  0
  130.0540  125.3970   64.2070 C   0  0  0  0  0  0  0  0  0  0  0  0
  131.4440  125.2790   64.1860 C   0  0  0  0  0  0  0  0  0  0  0  0
  132.0560  124.2450   63.4820 C   0  0  0  0  0  0  0  0  0  0  0  0
  131.2910  123.3010   62.7800 C   0  0  0  0  0  0  0  0  0  0  0  0
  131.8830  122.2470   62.0760 N   0  0  0  0  0  0  0  0  0  0  0  0
  131.0580  121.4460   61.1500 C   0  0  0  0  0  0  0  0  0  0  0  0
  131.7150  120.1070   60.7520 C   0  0  0  0  0  0  0  0  0  0  0  0
  133.0020  120.3420   60.2020 O   0  0  0  0  0  0  0  0  0  0  0  0
  133.8580  120.9930   61.1290 C   0  0  0  0  0  0  0  0  0  0  0  0
  133.2540  122.3530   61.5420 C   0  0  0  0  0  0  0  0  0  0  0  0
  129.8940  123.4160   62.8250 C   0  0  0  0  0  0  0  0  0  0  0  0
  129.2830  124.4500   63.5290 C   0  0  0  0  0  0  0  0  0  0  0  0
  128.6810  127.5520   64.3600 C   0  0  0  0  0  0  0  0  0  0  0  0
  1  2  1  0
  2  3  2  0
  3  4  1  0
  4  5  2  0
  4  6  1  0
  6  7  1  0
  7  8  2  0
  8  9  1  0
  9 10  2  0
 10 11  1  0
  3 12  1  0
 12 13  1  0
 13 14  2  0
 14 15  1  0
 15 16  1  0
 16 17  2  0
 17 18  1  0
 18 19  2  0
 19 20  1  0
 20 21  1  0
 21 22  1  0
 22 23  1  0
 23 24  1  0
 24 25  1  0
 19 26  1  0
 26 27  2  0
 15 28  2  0
 28 29  1  0
 29 30  1  0
 30 31  2  0
 31 32  1  0
 32 33  2  0
 33 34  1  0
 34 35  1  0
 35 36  1  0
 36 37  1  0
 37 38  1  0
 38 39  1  0
 33 40  1  0
 40 41  2  0
 29 42  2  0
 42  2  1  0
 11  7  1  0
 42 13  1  0
 27 16  1  0
 41 30  1  0
 25 20  1  0
 39 34  1  0
M  END
>  <Binding energies>  (41) 
[-8.94]

>  <Ligand effiencies>  (41) 
[-0.19866666666666666]

>  <Interactions>  (41) 
["V-A:ILE:369:CG2:3237, V-A:ILE:369:CD1:3239, V-B:GLU:543:CD:9880, H-A:GLU:543:OE1:4909, V-B:GLU:543:CG:9879, V-A:GLU:543:CD:4908, V-A:LEU:475:CD2:4259, V-A:HIS:456:CE1:4070, V-B:ASP:366:CB:8183, H-B:GLU:543:OE1:9881, V-B:ASP:366:CG:8184, H-B:ASP:366:OD1:8185, V-B:TYR:539:CE2:9848, V-B:TYR:539:CD2:9846, V-A:GLU:543:C:4902, V-B:GLU:543:C:9874, V-A:HIS:456:CD2:4068, V-B:GLU:543:CB:9878, V-A:SER:385:CB:3409, V-A:GLU:543:CB:4906, V-B:HIS:456:CD2:9039, V-B:HIS:456:CE1:9041, H-B:ASP:366:OD2:8186, V-A:GLU:543:CG:4907, H-B:TYR:531:OH:9767, V-A:SER:385:C:3405, V-A:SER:385:CA:3407, H-A:SER:385:OG:3410, V-B:ASP:366:C:8179, V-B:ASP:366:CA:8181, V-B:ILE:369:CG2:8208, V-B:ILE:369:CB:8207, H-B:LYS:547:NZ:9923"]

$$$$
RR11_Rahimova_2017
     RDKit          3D

 33 38  0  0  0  0  0  0  0  0999 V2000
  129.1700  132.7810   56.7200 N   0  0  0  0  0  0  0  0  0  0  0  0
  129.6520  131.5650   57.1990 C   0  0  0  0  0  0  0  0  0  0  0  0
  128.7900  130.4750   57.3170 C   0  0  0  0  0  0  0  0  0  0  0  0
  129.2730  129.2600   57.7930 C   0  0  0  0  0  0  0  0  0  0  0  0
  130.6190  129.1210   58.1560 C   0  0  0  0  0  0  0  0  0  0  0  0
  131.1390  127.8090   58.6640 C   0  0  0  0  0  0  0  0  0  0  0  0
  130.6920  127.1990   59.7400 N   0  0  0  0  0  0  0  0  0  0  0  0
  131.4220  126.0430   59.8300 C   0  0  0  0  0  0  0  0  0  0  0  0
  131.3480  125.0210   60.7860 C   0  0  0  0  0  0  0  0  0  0  0  0
  132.2000  123.9180   60.6500 C   0  0  0  0  0  0  0  0  0  0  0  0
  132.1460  122.7950   61.6760 C   0  0  0  0  0  0  0  0  0  0  0  0
  131.4220  123.1930   62.9540 C   0  0  0  0  0  0  0  0  0  0  0  0
  130.3530  122.4140   63.4120 C   0  0  0  0  0  0  0  0  0  0  0  0
  129.6630  122.7330   64.5830 C   0  0  0  0  0  0  0  0  0  0  0  0
  130.0730  123.8620   65.3040 C   0  0  0  0  0  0  0  0  0  0  0  0
  129.5620  124.3840   66.4640 N   0  0  0  0  0  0  0  0  0  0  0  0
  130.2970  125.4460   66.7200 C   0  0  0  0  0  0  0  0  0  0  0  0
  130.0930  126.3550   67.8980 C   0  0  0  0  0  0  0  0  0  0  0  0
  128.8490  126.4200   68.5380 C   0  0  0  0  0  0  0  0  0  0  0  0
  128.6560  127.2710   69.6240 C   0  0  0  0  0  0  0  0  0  0  0  0
  129.7080  128.0640   70.0760 C   0  0  0  0  0  0  0  0  0  0  0  0
  129.5150  128.9200   71.1600 N   0  0  0  0  0  0  0  0  0  0  0  0
  130.9520  128.0070   69.4510 C   0  0  0  0  0  0  0  0  0  0  0  0
  131.1430  127.1560   68.3670 C   0  0  0  0  0  0  0  0  0  0  0  0
  131.2780  125.6350   65.7710 N   0  0  0  0  0  0  0  0  0  0  0  0
  131.1640  124.6330   64.8370 C   0  0  0  0  0  0  0  0  0  0  0  0
  131.8620  124.3160   63.6680 C   0  0  0  0  0  0  0  0  0  0  0  0
  133.1210  123.8550   59.5980 C   0  0  0  0  0  0  0  0  0  0  0  0
  133.2230  124.8590   58.6320 C   0  0  0  0  0  0  0  0  0  0  0  0
  132.3550  125.9450   58.7710 C   0  0  0  0  0  0  0  0  0  0  0  0
  132.1460  127.0960   58.0470 N   0  0  0  0  0  0  0  0  0  0  0  0
  131.4740  130.2250   58.0340 C   0  0  0  0  0  0  0  0  0  0  0  0
  130.9940  131.4420   57.5570 C   0  0  0  0  0  0  0  0  0  0  0  0
  1  2  1  0
  2  3  2  0
  3  4  1  0
  4  5  2  0
  5  6  1  0
  6  7  2  0
  7  8  1  0
  8  9  2  0
  9 10  1  0
 10 11  1  0
 11 12  1  0
 12 13  2  0
 13 14  1  0
 14 15  2  0
 15 16  1  0
 16 17  2  0
 17 18  1  0
 18 19  2  0
 19 20  1  0
 20 21  2  0
 21 22  1  0
 21 23  1  0
 23 24  2  0
 17 25  1  0
 25 26  1  0
 26 27  2  0
 10 28  2  0
 28 29  1  0
 29 30  2  0
 30 31  1  0
  5 32  1  0
 32 33  2  0
 33  2  1  0
 31  6  1  0
 30  8  1  0
 27 12  1  0
 26 15  1  0
 24 18  1  0
M  END
>  <Binding energies>  (42) 
[-8.15]

>  <Ligand effiencies>  (42) 
[-0.20897435897435898]

>  <Interactions>  (42) 
["V-A:ILE:369:CG2:3237, V-A:ASP:366:CB:3212, V-A:ASP:366:CA:3210, V-A:ASP:366:CG:3213, H-A:GLU:543:OE1:4909, H-A:TYR:484:OH:4348, V-B:GLU:543:CG:9879, V-A:GLU:543:CD:4908, H-A:GLU:543:OE2:4910, V-A:LEU:475:CD2:4259, V-A:HIS:456:CE1:4070, V-B:ALA:541:CB:9864, V-B:TYR:539:CE2:9848, V-A:MET:535:CE:4835, V-A:TYR:484:CE2:4346, V-A:GLU:543:C:4902, V-B:GLU:543:C:9874, V-B:GLU:543:CA:9876, V-A:TYR:484:CZ:4347, V-B:GLU:543:CB:9878, V-A:GLY:544:C:4912, V-A:GLU:543:CB:4906, V-B:HIS:456:CD2:9039, V-B:HIS:456:CE1:9041, V-A:ARG:545:CG:4922, V-A:TYR:531:CZ:4794, H-A:TYR:531:OH:4795, V-A:ASP:366:C:3208, V-A:GLU:543:CA:4904, H-A:GLY:544:O:4913, H-A:GLU:543:O:4903, H-B:HIS:456:NE2:9042"]

$$$$
RR16_Rahimova_2017
     RDKit          3D

 44 49  0  0  0  0  0  0  0  0999 V2000
  123.7620  130.5870   62.0910 O   0  0  0  0  0  0  0  0  0  0  0  0
  124.8460  131.4790   62.5180 S   0  0  0  0  0  0  0  0  0  0  0  0
  124.5720  132.8700   62.8960 O   0  0  0  0  0  0  0  0  0  0  0  0
  126.0620  131.4880   61.2390 N   0  0  0  0  0  0  0  0  0  0  0  0
  125.7670  130.9180   59.9040 C   0  0  0  0  0  0  0  0  0  0  0  0
  124.5040  131.6060   59.3240 C   0  0  0  0  0  0  0  0  0  0  0  0
  123.7000  130.8310   58.2630 C   0  0  0  0  0  0  0  0  0  0  0  0
  124.3190  130.8750   56.8550 C   0  0  0  0  0  0  0  0  0  0  0  0
  125.8160  130.5240   56.7700 C   0  0  0  0  0  0  0  0  0  0  0  0
  126.7940  131.4120   57.5650 C   0  0  0  0  0  0  0  0  0  0  0  0
  127.0430  131.0190   59.0350 C   0  0  0  0  0  0  0  0  0  0  0  0
  125.6590  130.6840   63.8990 C   0  0  0  0  0  0  0  0  0  0  0  0
  127.0410  130.7970   64.0650 C   0  0  0  0  0  0  0  0  0  0  0  0
  127.6760  130.0740   65.0710 C   0  0  0  0  0  0  0  0  0  0  0  0
  126.9270  129.2430   65.9070 C   0  0  0  0  0  0  0  0  0  0  0  0
  127.7560  128.2060   67.1090 S   0  0  0  0  0  0  0  0  0  0  0  0
  126.7200  127.4580   67.8330 O   0  0  0  0  0  0  0  0  0  0  0  0
  128.7070  129.0530   67.8400 O   0  0  0  0  0  0  0  0  0  0  0  0
  128.6840  127.0580   66.1240 N   0  0  0  0  0  0  0  0  0  0  0  0
  129.0320  127.5520   64.7660 C   0  0  0  0  0  0  0  0  0  0  0  0
  129.5510  126.3960   63.8880 C   0  0  0  0  0  0  0  0  0  0  0  0
  130.7130  125.6330   64.5700 C   0  0  0  0  0  0  0  0  0  0  0  0
  131.2120  124.4510   63.7330 C   0  0  0  0  0  0  0  0  0  0  0  0
  132.5880  124.1990   63.6360 C   0  0  0  0  0  0  0  0  0  0  0  0
  133.0860  123.1290   62.8920 C   0  0  0  0  0  0  0  0  0  0  0  0
  134.4350  122.8960   62.8110 O   0  0  0  0  0  0  0  0  0  0  0  0
  132.1690  122.2960   62.2340 C   0  0  0  0  0  0  0  0  0  0  0  0
  132.3590  121.1860   61.4630 N   0  0  0  0  0  0  0  0  0  0  0  0
  131.1170  120.7270   61.0840 N   0  0  0  0  0  0  0  0  0  0  0  0
  130.1840  121.5650   61.5760 N   0  0  0  0  0  0  0  0  0  0  0  0
  128.7680  121.2730   61.3990 C   0  0  0  0  0  0  0  0  0  0  0  0
  128.0320  122.3690   60.6420 C   0  0  0  0  0  0  0  0  0  0  0  0
  127.3470  123.3680   61.3430 C   0  0  0  0  0  0  0  0  0  0  0  0
  126.6900  124.3860   60.6510 C   0  0  0  0  0  0  0  0  0  0  0  0
  126.7150  124.4120   59.2560 C   0  0  0  0  0  0  0  0  0  0  0  0
  127.3970  123.4200   58.5520 C   0  0  0  0  0  0  0  0  0  0  0  0
  127.4390  123.4550   56.8270 Cl  0  0  0  0  0  0  0  0  0  0  0  0
  128.0520  122.3980   59.2430 C   0  0  0  0  0  0  0  0  0  0  0  0
  130.7820  122.5620   62.3300 C   0  0  0  0  0  0  0  0  0  0  0  0
  130.2820  123.6360   63.0720 C   0  0  0  0  0  0  0  0  0  0  0  0
  130.3790  125.2360   66.0310 C   0  0  0  0  0  0  0  0  0  0  0  0
  129.8240  126.4260   66.8390 C   0  0  0  0  0  0  0  0  0  0  0  0
  125.5390  129.1640   65.7660 C   0  0  0  0  0  0  0  0  0  0  0  0
  124.9050  129.8830   64.7590 C   0  0  0  0  0  0  0  0  0  0  0  0
  1  2  2  0
  2  3  2  0
  2  4  1  0
  4  5  1  0
  5  6  1  0
  6  7  1  0
  7  8  1  0
  8  9  1  0
  9 10  1  0
 10 11  1  0
  2 12  1  0
 12 13  2  0
 13 14  1  0
 14 15  2  0
 15 16  1  0
 16 17  2  0
 16 18  2  0
 16 19  1  0
 19 20  1  0
 20 21  1  0
 21 22  1  0
 22 23  1  0
 23 24  2  0
 24 25  1  0
 25 26  1  0
 25 27  2  0
 27 28  1  0
 28 29  2  0
 29 30  1  0
 30 31  1  0
 31 32  1  0
 32 33  2  0
 33 34  1  0
 34 35  2  0
 35 36  1  0
 36 37  1  0
 36 38  2  0
 30 39  1  0
 39 40  2  0
 22 41  1  0
 41 42  1  0
 15 43  1  0
 43 44  2  0
 11  5  1  0
 44 12  1  0
 42 19  1  0
 40 23  1  0
 39 27  1  0
 38 32  1  0
M  END
>  <Binding energies>  (43) 
[-8.49]

>  <Ligand effiencies>  (43) 
[-0.176875]

>  <Interactions>  (43) 
["V-B:GLU:543:CD:9880, H-A:GLY:454:N:4050, V-B:GLU:543:CG:9879, V-A:GLU:543:CD:4908, V-A:LEU:475:CD2:4259, V-B:ALA:541:CB:9864, V-A:GLY:454:CA:4049, V-B:ASP:366:CB:8183, V-B:TYR:539:C:9839, V-B:ASP:366:CG:8184, V-B:PRO:540:CA:9855, V-B:PRO:540:N:9856, V-B:TYR:531:CZ:9766, V-B:TYR:539:CZ:9849, V-B:TYR:539:CE2:9848, V-B:PRO:540:C:9853, V-B:TYR:539:CE1:9847, V-B:TYR:539:CD2:9846, V-B:ALA:541:CA:9862, V-B:GLU:543:CB:9878, V-B:HIS:456:CE1:9041, V-B:ARG:545:CZ:9898, V-A:GLU:543:CG:4907, V-B:TYR:484:CZ:9318, V-A:TYR:539:CE1:4875, V-A:TYR:539:CZ:4877, V-B:ASP:366:C:8179, V-B:ASP:366:CA:8181, V-B:TYR:531:CE1:9764, V-B:ILE:369:CG2:8208, V-B:ILE:369:CB:8207, H-A:SER:385:O:3406"]

$$$$
RR18_Rahimova_2017
     RDKit          3D

 36 41  0  0  0  0  0  0  0  0999 V2000
  132.9430  125.0140   61.3230 C   0  0  0  0  0  0  0  0  0  0  0  0
  132.2920  125.1530   62.6750 C   0  0  0  0  0  0  0  0  0  0  0  0
  132.7300  124.9910   63.9800 C   0  0  0  0  0  0  0  0  0  0  0  0
  131.6420  125.2680   64.8080 C   0  0  0  0  0  0  0  0  0  0  0  0
  130.5790  125.5900   63.9800 C   0  0  0  0  0  0  0  0  0  0  0  0
  129.1290  125.9950   64.2300 C   0  0  1  0  0  0  0  0  0  0  0  0
  129.0150  127.0260   65.3920 C   0  0  0  0  0  0  0  0  0  0  0  0
  129.3790  126.6470   66.7540 C   0  0  0  0  0  0  0  0  0  0  0  0
  129.7800  125.5140   67.0290 O   0  0  0  0  0  0  0  0  0  0  0  0
  129.2520  127.6450   67.6590 N   0  0  0  0  0  0  0  0  0  0  0  0
  129.4880  127.6500   69.0510 C   0  0  0  0  0  0  0  0  0  0  0  0
  130.7240  127.9940   69.6270 C   0  0  0  0  0  0  0  0  0  0  0  0
  130.8930  127.9720   71.0100 C   0  0  0  0  0  0  0  0  0  0  0  0
  129.8370  127.6020   71.8370 C   0  0  0  0  0  0  0  0  0  0  0  0
  128.6100  127.2480   71.2800 C   0  0  0  0  0  0  0  0  0  0  0  0
  128.4250  127.2660   69.8940 C   0  0  0  0  0  0  0  0  0  0  0  0
  127.0630  126.8650   69.3350 C   0  0  0  0  0  0  0  0  0  0  0  0
  128.6700  128.3050   65.0900 C   0  0  0  0  0  0  0  0  0  0  0  0
  128.2960  128.7380   63.8540 N   0  0  0  0  0  0  0  0  0  0  0  0
  128.1740  127.8920   62.8990 C   0  0  0  0  0  0  0  0  0  0  0  0
  127.5620  128.2730   61.3080 S   0  0  0  0  0  0  0  0  0  0  0  0
  127.7320  126.5700   60.7770 C   0  0  0  0  0  0  0  0  0  0  0  0
  127.4190  126.0480   59.5400 C   0  0  0  0  0  0  0  0  0  0  0  0
  126.8040  126.8970   58.5100 C   0  0  0  0  0  0  0  0  0  0  0  0
  126.5130  128.0930   58.5390 O   0  0  0  0  0  0  0  0  0  0  0  0
  126.5640  126.1240   57.4470 N   0  0  0  0  0  0  0  0  0  0  0  0
  126.9800  124.8380   57.6200 C   0  0  0  0  0  0  0  0  0  0  0  0
  126.8960  123.7830   56.7120 C   0  0  0  0  0  0  0  0  0  0  0  0
  127.4120  122.5420   57.0750 C   0  0  0  0  0  0  0  0  0  0  0  0
  128.0070  122.3810   58.3250 C   0  0  0  0  0  0  0  0  0  0  0  0
  128.0780  123.4540   59.2170 C   0  0  0  0  0  0  0  0  0  0  0  0
  127.5410  124.7100   58.8790 C   0  0  0  0  0  0  0  0  0  0  0  0
  128.2560  125.7960   61.9030 C   0  0  0  0  0  0  0  0  0  0  0  0
  128.4530  124.5850   61.9270 O   0  0  0  0  0  0  0  0  0  0  0  0
  128.5010  126.5770   62.9910 N   0  0  0  0  0  0  0  0  0  0  0  0
  130.9830  125.5170   62.6830 O   0  0  0  0  0  0  0  0  0  0  0  0
  1  2  1  0
  2  3  2  0
  3  4  1  0
  4  5  2  0
  6  5  1  6
  6  7  1  0
  7  8  1  0
  8  9  2  0
  8 10  1  0
 10 11  1  0
 11 12  2  0
 12 13  1  0
 13 14  2  0
 14 15  1  0
 15 16  2  0
 16 17  1  0
  7 18  2  0
 18 19  1  0
 19 20  2  0
 20 21  1  0
 21 22  1  0
 22 23  2  0
 23 24  1  0
 24 25  2  0
 24 26  1  0
 26 27  1  0
 27 28  2  0
 28 29  1  0
 29 30  2  0
 30 31  1  0
 31 32  2  0
 22 33  1  0
 33 34  2  0
 33 35  1  0
  5 36  1  0
 36  2  1  0
 35  6  1  0
 16 11  1  0
 35 20  1  0
 32 23  1  0
 32 27  1  0
M  END
>  <Binding energies>  (44) 
[-8.58]

>  <Ligand effiencies>  (44) 
[-0.22578947368421054]

>  <Interactions>  (44) 
["V-B:GLU:543:CD:9880, V-A:ASP:366:CG:3213, V-B:GLU:543:CG:9879, V-A:GLU:543:CD:4908, V-A:ARG:545:CZ:4926, H-A:GLU:543:OE2:4910, V-A:HIS:456:CE1:4070, V-B:TYR:539:C:9839, V-B:PRO:540:CA:9855, V-B:PRO:540:N:9856, V-B:TYR:531:CZ:9766, V-B:TYR:539:CZ:9849, V-B:TYR:539:CE2:9848, V-B:TYR:539:CD1:9845, V-B:TYR:539:CE1:9847, V-B:TYR:539:CD2:9846, V-B:TYR:539:CG:9844, V-A:GLU:543:C:4902, V-B:GLU:543:C:9874, V-B:GLU:543:CA:9876, V-B:GLU:543:CB:9878, V-A:GLY:544:C:4912, V-A:GLU:543:CB:4906, V-B:HIS:456:CE1:9041, V-B:GLY:544:C:9884, V-A:GLU:543:CG:4907, H-B:TYR:531:OH:9767, H-B:MET:535:SD:9806"]

$$$$
RR20_Rahimova_2017
     RDKit          3D

 38 43  0  0  0  0  0  0  0  0999 V2000
  125.3420  130.6270   75.7380 C   0  0  0  0  0  0  0  0  0  0  0  0
  126.2420  129.6700   74.9770 C   0  0  0  0  0  0  0  0  0  0  0  0
  125.7400  128.4450   74.5370 C   0  0  0  0  0  0  0  0  0  0  0  0
  126.5610  127.5700   73.8310 C   0  0  0  0  0  0  0  0  0  0  0  0
  127.8940  127.9070   73.5710 C   0  0  0  0  0  0  0  0  0  0  0  0
  128.7640  126.9510   72.7840 C   0  0  0  0  0  0  0  0  0  0  0  0
  128.7510  125.7640   73.1150 O   0  0  0  0  0  0  0  0  0  0  0  0
  129.5090  127.4270   71.7440 N   0  0  0  0  0  0  0  0  0  0  0  0
  130.9640  127.6210   71.8620 C   0  0  0  0  0  0  0  0  0  0  0  0
  131.4580  128.0070   70.4780 C   0  0  0  0  0  0  0  0  0  0  0  0
  130.3050  127.6360   69.5960 C   0  0  0  0  0  0  0  0  0  0  0  0
  130.2110  127.6830   68.2050 C   0  0  0  0  0  0  0  0  0  0  0  0
  128.9880  127.4500   67.5640 C   0  0  0  0  0  0  0  0  0  0  0  0
  128.8890  127.4920   66.0640 C   0  0  0  0  0  0  0  0  0  0  0  0
  128.3700  128.5700   65.4980 N   0  0  0  0  0  0  0  0  0  0  0  0
  128.3510  128.5060   64.1910 C   0  0  0  0  0  0  0  0  0  0  0  0
  127.8850  129.4570   63.2960 N   0  0  0  0  0  0  0  0  0  0  0  0
  127.7560  130.7880   63.5150 C   0  0  0  0  0  0  0  0  0  0  0  0
  128.0680  131.3460   64.5690 O   0  0  0  0  0  0  0  0  0  0  0  0
  127.2080  131.6640   62.3640 C   0  0  0  0  0  0  0  0  0  0  0  0
  128.2400  132.0240   61.3730 N   0  0  0  0  0  0  0  0  0  0  0  0
  129.4640  131.2220   61.5200 C   0  0  0  0  0  0  0  0  0  0  0  0
  130.5950  131.8120   60.6480 C   0  0  0  0  0  0  0  0  0  0  0  0
  130.1370  132.1610   59.2310 C   0  0  0  0  0  0  0  0  0  0  0  0
  131.0650  132.4500   58.2250 C   0  0  0  0  0  0  0  0  0  0  0  0
  130.6470  132.8060   56.9440 C   0  0  0  0  0  0  0  0  0  0  0  0
  129.2880  132.8740   56.6550 C   0  0  0  0  0  0  0  0  0  0  0  0
  128.3540  132.5800   57.6450 C   0  0  0  0  0  0  0  0  0  0  0  0
  128.7600  132.2220   58.9360 C   0  0  0  0  0  0  0  0  0  0  0  0
  127.7360  131.8430   60.0060 C   0  0  0  0  0  0  0  0  0  0  0  0
  128.9870  127.0460   63.5410 S   0  0  0  0  0  0  0  0  0  0  0  0
  129.2920  126.4800   65.1670 C   0  0  0  0  0  0  0  0  0  0  0  0
  129.8700  125.1020   65.4030 C   0  0  0  0  0  0  0  0  0  0  0  0
  127.8500  127.2250   68.3540 C   0  0  0  0  0  0  0  0  0  0  0  0
  127.9370  127.1960   69.7460 C   0  0  0  0  0  0  0  0  0  0  0  0
  129.1820  127.3460   70.3710 C   0  0  0  0  0  0  0  0  0  0  0  0
  128.3830  129.1510   73.9890 C   0  0  0  0  0  0  0  0  0  0  0  0
  127.5610  130.0280   74.6950 C   0  0  0  0  0  0  0  0  0  0  0  0
  1  2  1  0
  2  3  2  0
  3  4  1  0
  4  5  2  0
  5  6  1  0
  6  7  2  0
  6  8  1  0
  8  9  1  0
  9 10  1  0
 10 11  1  0
 11 12  2  0
 12 13  1  0
 13 14  1  0
 14 15  1  0
 15 16  2  0
 16 17  1  0
 17 18  1  0
 18 19  2  0
 18 20  1  0
 20 21  1  0
 21 22  1  0
 22 23  1  0
 23 24  1  0
 24 25  2  0
 25 26  1  0
 26 27  2  0
 27 28  1  0
 28 29  2  0
 29 30  1  0
 16 31  1  0
 31 32  1  0
 32 33  1  0
 13 34  2  0
 34 35  1  0
 35 36  2  0
  5 37  1  0
 37 38  2  0
 38  2  1  0
 36  8  1  0
 36 11  1  0
 32 14  2  0
 30 21  1  0
 29 24  1  0
M  END
>  <Binding energies>  (45) 
[-9.76]

>  <Ligand effiencies>  (45) 
[-0.25025641025641027]

>  <Interactions>  (45) 
["V-B:GLU:543:CD:9880, V-B:GLU:543:CG:9879, V-A:GLU:543:CD:4908, V-A:HIS:456:CE1:4070, V-A:MET:535:CE:4835, V-A:GLU:543:C:4902, V-B:GLU:543:C:9874, V-A:HIS:456:CD2:4068, V-B:GLU:543:CB:9878, V-A:GLY:544:C:4912, V-A:GLU:543:CB:4906, V-B:HIS:456:CD2:9039, V-B:HIS:456:CE1:9041, V-B:GLY:544:C:9884, V-A:GLU:543:CG:4907, H-B:TYR:484:OH:9319, V-B:LYS:547:CE:9922, V-B:HIS:456:CG:9037, V-A:PRO:540:CA:4883, V-A:PRO:540:CB:4885, V-A:PRO:540:CD:4887, V-A:PRO:540:N:4884, V-A:TYR:539:CE1:4875, V-A:TYR:539:CD1:4873, H-B:LYS:547:NZ:9923, V-A:GLY:544:CA:4914, V-B:HIS:456:CB:9036, V-A:ILE:538:CB:4862, V-A:ILE:538:CA:4860, V-A:ARG:545:CA:4919"]

$$$$
RR21_Rahimova_2017
     RDKit          3D

 40 45  0  0  0  0  0  0  0  0999 V2000
  124.2600  130.8190   61.9330 C   0  0  0  0  0  0  0  0  0  0  0  0
  125.0350  131.4910   62.9210 O   0  0  0  0  0  0  0  0  0  0  0  0
  125.8450  130.7530   63.7620 C   0  0  0  0  0  0  0  0  0  0  0  0
  127.2500  130.7990   63.7490 C   0  0  0  0  0  0  0  0  0  0  0  0
  127.9950  130.0230   64.6350 C   0  0  0  0  0  0  0  0  0  0  0  0
  127.3590  129.1840   65.5580 C   0  0  0  0  0  0  0  0  0  0  0  0
  128.1620  128.3550   66.5130 C   0  0  0  0  0  0  0  0  0  0  0  0
  128.1880  128.6700   67.7930 N   0  0  0  0  0  0  0  0  0  0  0  0
  128.9740  127.7650   68.3960 N   0  0  0  0  0  0  0  0  0  0  0  0
  129.2050  127.8000   69.7960 C   0  0  0  0  0  0  0  0  0  0  0  0
  130.3910  128.3410   70.3140 C   0  0  0  0  0  0  0  0  0  0  0  0
  130.6040  128.3740   71.6900 C   0  0  0  0  0  0  0  0  0  0  0  0
  129.6340  127.8660   72.5510 C   0  0  0  0  0  0  0  0  0  0  0  0
  128.4540  127.3240   72.0500 C   0  0  0  0  0  0  0  0  0  0  0  0
  128.2380  127.2890   70.6750 C   0  0  0  0  0  0  0  0  0  0  0  0
  129.4360  126.8540   67.4810 C   0  0  0  0  0  0  0  0  0  0  0  0
  128.9420  127.2090   66.2350 C   0  0  0  0  0  0  0  0  0  0  0  0
  129.1220  126.5200   64.9660 C   0  0  0  0  0  0  0  0  0  0  0  0
  130.1330  125.7010   64.5940 C   0  0  0  0  0  0  0  0  0  0  0  0
  131.5580  125.2250   65.5430 S   0  0  0  0  0  0  0  0  0  0  0  0
  132.0980  124.2220   64.2040 C   0  0  0  0  0  0  0  0  0  0  0  0
  133.1560  123.4750   64.1460 N   0  0  0  0  0  0  0  0  0  0  0  0
  133.4730  122.6980   62.9980 C   0  0  0  0  0  0  0  0  0  0  0  0
  134.4430  121.9500   62.8720 O   0  0  0  0  0  0  0  0  0  0  0  0
  132.4840  122.8430   61.8740 C   0  0  0  0  0  0  0  0  0  0  0  0
  132.7330  122.0660   60.5740 C   0  0  0  0  0  0  0  0  0  0  0  0
  132.0100  120.7230   60.4960 C   0  0  0  0  0  0  0  0  0  0  0  0
  132.4740  119.7280   59.6310 C   0  0  0  0  0  0  0  0  0  0  0  0
  131.8250  118.4980   59.5720 C   0  0  0  0  0  0  0  0  0  0  0  0
  130.7110  118.2580   60.3790 C   0  0  0  0  0  0  0  0  0  0  0  0
  130.0140  116.9110   60.3190 C   0  0  0  0  0  0  0  0  0  0  0  0
  130.2520  119.2480   61.2520 C   0  0  0  0  0  0  0  0  0  0  0  0
  130.9010  120.4780   61.3110 C   0  0  0  0  0  0  0  0  0  0  0  0
  131.4360  123.5970   61.9440 N   0  0  0  0  0  0  0  0  0  0  0  0
  131.2390  124.2990   63.1400 N   0  0  0  0  0  0  0  0  0  0  0  0
  130.1460  125.0900   63.2720 C   0  0  0  0  0  0  0  0  0  0  0  0
  129.2870  125.2570   62.3980 O   0  0  0  0  0  0  0  0  0  0  0  0
  125.9610  129.1330   65.5680 C   0  0  0  0  0  0  0  0  0  0  0  0
  125.2140  129.9080   64.6820 C   0  0  0  0  0  0  0  0  0  0  0  0
  123.8630  129.8360   64.7180 F   0  0  0  0  0  0  0  0  0  0  0  0
  1  2  1  0
  2  3  1  0
  3  4  2  0
  4  5  1  0
  5  6  2  0
  6  7  1  0
  7  8  2  0
  8  9  1  0
  9 10  1  0
 10 11  2  0
 11 12  1  0
 12 13  2  0
 13 14  1  0
 14 15  2  0
  9 16  1  0
 16 17  2  0
 17 18  1  0
 18 19  2  0
 19 20  1  0
 20 21  1  0
 21 22  2  0
 22 23  1  0
 23 24  2  0
 23 25  1  0
 25 26  1  0
 26 27  1  0
 27 28  2  0
 28 29  1  0
 29 30  2  0
 30 31  1  0
 30 32  1  0
 32 33  2  0
 25 34  2  0
 34 35  1  0
 35 36  1  0
 36 37  2  0
  6 38  1  0
 38 39  2  0
 39 40  1  0
 39  3  1  0
 17  7  1  0
 36 19  1  0
 15 10  1  0
 35 21  1  0
 33 27  1  0
M  END
>  <Binding energies>  (46) 
[-9.28]

>  <Ligand effiencies>  (46) 
[-0.23199999999999998]

>  <Interactions>  (46) 
["V-A:ILE:369:CG2:3237, V-B:GLU:543:CD:9880, H-A:GLY:454:N:4050, H-A:TYR:484:OH:4348, V-B:GLU:543:CG:9879, V-A:GLU:543:CD:4908, V-A:LEU:475:CD2:4259, V-A:HIS:456:CE1:4070, V-B:ALA:541:CB:9864, V-A:GLY:454:CA:4049, V-B:TYR:539:C:9839, V-B:TYR:539:CE2:9848, V-B:TYR:539:CD2:9846, V-B:TYR:539:CG:9844, V-A:GLU:543:C:4902, V-B:GLU:543:CB:9878, V-A:GLY:544:C:4912, V-A:SER:385:CB:3409, V-A:PRO:482:CB:4326, V-A:GLU:543:CB:4906, V-A:HIS:383:CE1:3393, V-A:PRO:482:CG:4327, V-B:HIS:456:CD2:9039, V-B:HIS:456:CE1:9041, V-A:HIS:383:NE2:3394, V-B:ARG:545:CZ:9898, V-A:GLU:543:CG:4907, V-B:GLY:454:CA:9020, V-B:ARG:545:CD:9895, V-A:GLY:544:CA:4914, V-B:VAL:344:CG1:7972, V-B:GLY:453:C:9013, V-B:GLY:453:CA:9015, V-B:TYR:539:CB:9843, V-A:HIS:383:CD2:3392"]

$$$$
RR23_Rahimova_2017
     RDKit          3D

 39 44  0  0  0  0  0  0  0  0999 V2000
  131.7950  127.0230   73.6160 C   0  0  0  0  0  0  0  0  0  0  0  0
  130.6860  127.0140   72.5800 C   0  0  0  0  0  0  0  0  0  0  0  0
  129.4730  126.3850   72.8620 C   0  0  0  0  0  0  0  0  0  0  0  0
  128.4520  126.3850   71.9140 C   0  0  0  0  0  0  0  0  0  0  0  0
  128.6410  127.0040   70.6730 C   0  0  0  0  0  0  0  0  0  0  0  0
  127.5140  127.0110   69.6650 C   0  0  0  0  0  0  0  0  0  0  0  0
  126.3630  126.9000   70.0950 O   0  0  0  0  0  0  0  0  0  0  0  0
  127.8020  127.1540   68.3380 N   0  0  0  0  0  0  0  0  0  0  0  0
  127.5240  128.4090   67.6200 C   0  0  0  0  0  0  0  0  0  0  0  0
  128.1070  128.2420   66.2260 C   0  0  0  0  0  0  0  0  0  0  0  0
  129.0020  127.0500   66.3790 C   0  0  0  0  0  0  0  0  0  0  0  0
  129.8700  126.4780   65.4490 C   0  0  0  0  0  0  0  0  0  0  0  0
  130.5080  125.2600   65.7290 C   0  0  0  0  0  0  0  0  0  0  0  0
  131.4710  124.5960   64.7330 C   0  0  2  0  0  0  0  0  0  0  0  0
  131.4920  125.2770   63.4570 N   0  0  0  0  0  0  0  0  0  0  0  0
  131.7070  124.4740   62.4940 C   0  0  0  0  0  0  0  0  0  0  0  0
  131.7670  124.7550   61.1650 N   0  0  0  0  0  0  0  0  0  0  0  0
  131.4780  125.9200   60.5370 C   0  0  0  0  0  0  0  0  0  0  0  0
  131.1380  126.9670   61.0910 O   0  0  0  0  0  0  0  0  0  0  0  0
  131.5890  125.8910   59.0030 C   0  0  0  0  0  0  0  0  0  0  0  0
  130.2730  125.5300   58.4280 N   0  0  0  0  0  0  0  0  0  0  0  0
  129.7190  126.4720   57.5710 N   0  0  0  0  0  0  0  0  0  0  0  0
  128.5710  126.2780   57.0040 N   0  0  0  0  0  0  0  0  0  0  0  0
  127.8660  125.0970   57.2500 C   0  0  0  0  0  0  0  0  0  0  0  0
  126.6300  124.9190   56.6240 C   0  0  0  0  0  0  0  0  0  0  0  0
  125.9020  123.7500   56.8510 C   0  0  0  0  0  0  0  0  0  0  0  0
  126.4050  122.7620   57.7000 C   0  0  0  0  0  0  0  0  0  0  0  0
  127.6400  122.9380   58.3270 C   0  0  0  0  0  0  0  0  0  0  0  0
  128.3710  124.1100   58.0990 C   0  0  0  0  0  0  0  0  0  0  0  0
  129.7080  124.3220   58.7710 C   0  0  0  0  0  0  0  0  0  0  0  0
  130.2230  123.5100   59.5440 O   0  0  0  0  0  0  0  0  0  0  0  0
  131.9460  122.7530   62.9130 S   0  0  0  0  0  0  0  0  0  0  0  0
  131.2380  123.0790   64.5370 C   0  0  2  0  0  0  0  0  0  0  0  0
  129.7730  122.5960   64.5530 C   0  0  0  0  0  0  0  0  0  0  0  0
  130.2190  124.6080   66.9340 C   0  0  0  0  0  0  0  0  0  0  0  0
  129.3350  125.1700   67.8560 C   0  0  0  0  0  0  0  0  0  0  0  0
  128.7650  126.4250   67.6040 C   0  0  0  0  0  0  0  0  0  0  0  0
  129.8520  127.6570   70.4080 C   0  0  0  0  0  0  0  0  0  0  0  0
  130.8720  127.6580   71.3560 C   0  0  0  0  0  0  0  0  0  0  0  0
  1  2  1  0
  2  3  2  0
  3  4  1  0
  4  5  2  0
  5  6  1  0
  6  7  2  0
  6  8  1  0
  8  9  1  0
  9 10  1  0
 10 11  1  0
 11 12  2  0
 12 13  1  0
 14 13  1  1
 14 15  1  0
 15 16  2  0
 16 17  1  0
 17 18  1  0
 18 19  2  0
 18 20  1  0
 20 21  1  0
 21 22  1  0
 22 23  2  0
 23 24  1  0
 24 25  2  0
 25 26  1  0
 26 27  2  0
 27 28  1  0
 28 29  2  0
 29 30  1  0
 30 31  2  0
 16 32  1  0
 32 33  1  0
 33 34  1  6
 13 35  2  0
 35 36  1  0
 36 37  2  0
  5 38  1  0
 38 39  2  0
 39  2  1  0
 37  8  1  0
 37 11  1  0
 33 14  1  0
 30 21  1  0
 29 24  1  0
M  END
>  <Binding energies>  (47) 
[-8.53]

>  <Ligand effiencies>  (47) 
[-0.21325]

>  <Interactions>  (47) 
["V-A:ASP:366:CB:3212, V-B:GLU:543:CD:9880, H-A:ARG:545:NH2:4928, V-A:ASP:366:CG:3213, V-B:GLU:543:CG:9879, V-A:GLU:543:CD:4908, V-A:LEU:475:CD2:4259, V-A:HIS:456:CE1:4070, V-B:ALA:541:CB:9864, V-B:TYR:539:C:9839, V-B:PRO:540:CD:9859, V-B:PRO:540:CA:9855, V-B:PRO:540:CB:9857, V-B:PRO:540:N:9856, V-B:MET:535:CE:9807, V-B:TYR:539:CZ:9849, V-B:TYR:539:CE2:9848, V-B:TYR:539:CD2:9846, V-A:TYR:484:CE2:4346, V-B:GLU:543:C:9874, V-A:HIS:456:CD2:4068, V-B:GLU:543:CA:9876, V-A:TYR:484:CZ:4347, V-B:GLU:543:CB:9878, V-A:HIS:456:CG:4066, V-A:GLY:544:C:4912, V-B:HIS:456:CE1:9041, V-A:GLU:543:CG:4907, H-A:TYR:531:OH:4795, H-B:HIS:456:ND1:9038, H-B:ARG:545:N:9892"]

$$$$
RR26_Rahimova_2017
     RDKit          3D

 38 44  0  0  0  0  0  0  0  0999 V2000
  126.9780  126.8780   69.1780 C   0  0  0  0  0  0  0  0  0  0  0  0
  128.4030  127.2980   69.5200 C   0  0  0  0  0  0  0  0  0  0  0  0
  128.7970  127.2730   70.8620 C   0  0  0  0  0  0  0  0  0  0  0  0
  130.0990  127.6070   71.2270 C   0  0  0  0  0  0  0  0  0  0  0  0
  131.0230  127.9640   70.2500 C   0  0  0  0  0  0  0  0  0  0  0  0
  130.6430  127.9920   68.9100 C   0  0  0  0  0  0  0  0  0  0  0  0
  129.3330  127.6670   68.5240 C   0  0  0  0  0  0  0  0  0  0  0  0
  129.0020  127.7380   67.0610 C   0  0  0  0  0  0  0  0  0  0  0  0
  129.1790  126.7050   66.2410 N   0  0  0  0  0  0  0  0  0  0  0  0
  128.7620  127.1890   65.1020 C   0  0  0  0  0  0  0  0  0  0  0  0
  128.6190  126.6030   63.4870 S   0  0  0  0  0  0  0  0  0  0  0  0
  127.9440  128.2000   62.9910 C   0  0  0  0  0  0  0  0  0  0  0  0
  127.5470  128.5840   61.7570 C   0  0  0  0  0  0  0  0  0  0  0  0
  127.5580  127.8060   60.5290 C   0  0  0  0  0  0  0  0  0  0  0  0
  127.1190  126.5050   60.3360 C   0  0  0  0  0  0  0  0  0  0  0  0
  127.2830  126.1970   59.0090 N   0  0  0  0  0  0  0  0  0  0  0  0
  126.9690  124.9840   58.3440 C   0  0  0  0  0  0  0  0  0  0  0  0
  127.9420  123.9900   58.1630 C   0  0  0  0  0  0  0  0  0  0  0  0
  127.6200  122.8060   57.5060 C   0  0  0  0  0  0  0  0  0  0  0  0
  126.3270  122.6090   57.0310 C   0  0  0  0  0  0  0  0  0  0  0  0
  125.3500  123.5870   57.2060 C   0  0  0  0  0  0  0  0  0  0  0  0
  125.6680  124.7730   57.8600 C   0  0  0  0  0  0  0  0  0  0  0  0
  127.7810  127.2520   58.3450 N   0  0  0  0  0  0  0  0  0  0  0  0
  127.9540  128.2100   59.2340 C   0  0  0  0  0  0  0  0  0  0  0  0
  128.5120  129.5320   58.8070 C   0  0  0  0  0  0  0  0  0  0  0  0
  127.8000  130.7160   59.0520 C   0  0  0  0  0  0  0  0  0  0  0  0
  128.3110  131.9530   58.6540 C   0  0  0  0  0  0  0  0  0  0  0  0
  129.5410  132.0150   58.0040 C   0  0  0  0  0  0  0  0  0  0  0  0
  130.2710  130.8400   57.7690 C   0  0  0  0  0  0  0  0  0  0  0  0
  129.7560  129.6060   58.1620 C   0  0  0  0  0  0  0  0  0  0  0  0
  131.4730  130.8480   57.0890 O   0  0  0  0  0  0  0  0  0  0  0  0
  132.1110  132.1290   57.0440 C   0  0  0  0  0  0  0  0  0  0  0  0
  131.0840  133.2360   56.7010 C   0  0  0  0  0  0  0  0  0  0  0  0
  130.0310  133.2620   57.6710 O   0  0  0  0  0  0  0  0  0  0  0  0
  127.8620  129.1380   64.1070 C   0  0  0  0  0  0  0  0  0  0  0  0
  127.4580  130.3020   64.1160 O   0  0  0  0  0  0  0  0  0  0  0  0
  128.3450  128.4610   65.2370 N   0  0  0  0  0  0  0  0  0  0  0  0
  128.4920  128.8300   66.5130 N   0  0  0  0  0  0  0  0  0  0  0  0
  1  2  1  0
  2  3  2  0
  3  4  1  0
  4  5  2  0
  5  6  1  0
  6  7  2  0
  7  8  1  0
  8  9  1  0
  9 10  2  0
 10 11  1  0
 11 12  1  0
 12 13  2  0
 13 14  1  0
 14 15  2  0
 15 16  1  0
 16 17  1  0
 17 18  2  0
 18 19  1  0
 19 20  2  0
 20 21  1  0
 21 22  2  0
 16 23  1  0
 23 24  2  0
 24 25  1  0
 25 26  2  0
 26 27  1  0
 27 28  2  0
 28 29  1  0
 29 30  2  0
 29 31  1  0
 31 32  1  0
 32 33  1  0
 33 34  1  0
 12 35  1  0
 35 36  2  0
 35 37  1  0
 37 38  1  0
  7  2  1  0
 38  8  2  0
 37 10  1  0
 24 14  1  0
 30 25  1  0
 22 17  1  0
 34 28  1  0
M  END
>  <Binding energies>  (48) 
[-9.11]

>  <Ligand effiencies>  (48) 
[-0.23973684210526314]

>  <Interactions>  (48) 
["V-B:GLU:543:CD:9880, V-B:GLU:543:CG:9879, V-A:GLU:543:CD:4908, V-A:HIS:456:CE1:4070, V-B:TYR:539:C:9839, V-B:PRO:540:CD:9859, V-B:PRO:540:CA:9855, V-B:PRO:540:CB:9857, V-B:PRO:540:N:9856, V-B:LEU:363:CD1:8160, V-B:MET:535:CE:9807, V-B:TYR:539:CZ:9849, V-B:TYR:539:CE2:9848, V-B:TYR:539:CD1:9845, V-B:TYR:539:CE1:9847, V-B:TYR:539:CD2:9846, V-B:TYR:539:CG:9844, V-A:GLU:543:C:4902, V-B:GLU:543:C:9874, V-B:GLU:543:CA:9876, V-B:GLU:543:CB:9878, V-A:GLY:544:C:4912, V-A:GLU:543:CB:4906, V-B:HIS:456:CE1:9041, V-B:GLY:544:C:9884, V-A:GLU:543:CG:4907, H-B:TYR:484:OH:9319, V-A:PRO:540:CB:4885, V-A:LEU:363:CD1:3189, V-A:PRO:540:CD:4887, V-A:PRO:540:N:4884, H-A:TYR:531:OH:4795, H-A:TYR:539:N:4870, V-A:GLU:543:CA:4904, V-A:ILE:538:CB:4862, V-A:ILE:538:CA:4860, V-A:ILE:538:CG2:4863, V-A:ILE:538:C:4858"]

$$$$
RR2_Rahimova_2017
     RDKit          3D

 46 50  0  0  0  0  0  0  0  0999 V2000
  129.1840  126.5180   69.4030 C   0  0  0  0  0  0  0  0  0  0  0  0
  129.5120  126.3660   68.0270 O   0  0  0  0  0  0  0  0  0  0  0  0
  129.0080  127.2690   67.1090 C   0  0  0  0  0  0  0  0  0  0  0  0
  128.9810  127.0570   65.7240 C   0  0  0  0  0  0  0  0  0  0  0  0
  128.4560  128.0270   64.8750 C   0  0  0  0  0  0  0  0  0  0  0  0
  127.9500  129.2300   65.3870 C   0  0  0  0  0  0  0  0  0  0  0  0
  127.3900  130.2730   64.4400 C   0  0  0  0  0  0  0  0  0  0  0  0
  127.8220  131.4310   64.4630 O   0  0  0  0  0  0  0  0  0  0  0  0
  126.4070  129.8510   63.6120 N   0  0  0  0  0  0  0  0  0  0  0  0
  125.7950  130.7890   62.7880 N   0  0  0  0  0  0  0  0  0  0  0  0
  124.5020  130.5990   62.4560 C   0  0  0  0  0  0  0  0  0  0  0  0
  123.8610  129.5670   62.6750 O   0  0  0  0  0  0  0  0  0  0  0  0
  123.8120  131.7900   61.7760 C   0  0  0  0  0  0  0  0  0  0  0  0
  124.6980  132.4760   60.3290 S   0  0  0  0  0  0  0  0  0  0  0  0
  125.2130  130.9880   59.5270 C   0  0  0  0  0  0  0  0  0  0  0  0
  124.4030  130.2410   58.8210 N   0  0  0  0  0  0  0  0  0  0  0  0
  125.1190  129.1270   58.4050 N   0  0  0  0  0  0  0  0  0  0  0  0
  126.3450  129.2580   58.8520 C   0  0  0  0  0  0  0  0  0  0  0  0
  127.4260  128.2580   58.5920 C   0  0  0  0  0  0  0  0  0  0  0  0
  127.5200  127.1140   59.3890 C   0  0  0  0  0  0  0  0  0  0  0  0
  128.5270  126.1820   59.1600 C   0  0  0  0  0  0  0  0  0  0  0  0
  129.4400  126.3750   58.1180 C   0  0  0  0  0  0  0  0  0  0  0  0
  130.4810  125.4740   57.8470 N   0  0  0  0  0  0  0  0  0  0  0  0
  132.1730  125.7030   58.3430 S   0  0  0  0  0  0  0  0  0  0  0  0
  132.4870  127.1100   58.0690 O   0  0  0  0  0  0  0  0  0  0  0  0
  132.9710  124.6250   57.7490 O   0  0  0  0  0  0  0  0  0  0  0  0
  132.1690  125.5130   60.1240 C   0  0  0  0  0  0  0  0  0  0  0  0
  131.3520  126.3160   60.9230 C   0  0  0  0  0  0  0  0  0  0  0  0
  131.3750  126.1630   62.3070 C   0  0  0  0  0  0  0  0  0  0  0  0
  132.2090  125.2050   62.8900 C   0  0  0  0  0  0  0  0  0  0  0  0
  132.2440  125.0510   64.3990 C   0  0  0  0  0  0  0  0  0  0  0  0
  133.0280  124.4070   62.0880 C   0  0  0  0  0  0  0  0  0  0  0  0
  133.0060  124.5600   60.7050 C   0  0  0  0  0  0  0  0  0  0  0  0
  129.3430  127.5160   57.3200 C   0  0  0  0  0  0  0  0  0  0  0  0
  128.3400  128.4530   57.5530 C   0  0  0  0  0  0  0  0  0  0  0  0
  126.4750  130.4260   59.5840 N   0  0  0  0  0  0  0  0  0  0  0  0
  127.6100  130.9120   60.2660 C   0  0  0  0  0  0  0  0  0  0  0  0
  127.9520  132.2620   60.1750 C   0  0  0  0  0  0  0  0  0  0  0  0
  129.0710  132.7360   60.8550 C   0  0  0  0  0  0  0  0  0  0  0  0
  129.8530  131.8740   61.6240 C   0  0  0  0  0  0  0  0  0  0  0  0
  130.9430  132.4360   62.2600 O   0  0  0  0  0  0  0  0  0  0  0  0
  132.1750  131.7210   62.2920 C   0  0  0  0  0  0  0  0  0  0  0  0
  129.5020  130.5170   61.7090 C   0  0  0  0  0  0  0  0  0  0  0  0
  128.3830  130.0380   61.0330 C   0  0  0  0  0  0  0  0  0  0  0  0
  127.9750  129.4310   66.7760 C   0  0  0  0  0  0  0  0  0  0  0  0
  128.4990  128.4590   67.6230 C   0  0  0  0  0  0  0  0  0  0  0  0
  1  2  1  0
  2  3  1  0
  3  4  2  0
  4  5  1  0
  5  6  2  0
  6  7  1  0
  7  8  2  0
  7  9  1  0
  9 10  1  0
 10 11  1  0
 11 12  2  0
 11 13  1  0
 13 14  1  0
 14 15  1  0
 15 16  2  0
 16 17  1  0
 17 18  2  0
 18 19  1  0
 19 20  2  0
 20 21  1  0
 21 22  2  0
 22 23  1  0
 23 24  1  0
 24 25  2  0
 24 26  2  0
 24 27  1  0
 27 28  2  0
 28 29  1  0
 29 30  2  0
 30 31  1  0
 30 32  1  0
 32 33  2  0
 22 34  1  0
 34 35  2  0
 18 36  1  0
 36 37  1  0
 37 38  2  0
 38 39  1  0
 39 40  2  0
 40 41  1  0
 41 42  1  0
 40 43  1  0
 43 44  2  0
  6 45  1  0
 45 46  2  0
 46  3  1  0
 36 15  1  0
 44 37  1  0
 35 19  1  0
 33 27  1  0
M  END
>  <Binding energies>  (49) 
[-8.78]

>  <Ligand effiencies>  (49) 
[-0.17918367346938774]

>  <Interactions>  (49) 
["V-A:ASP:366:CB:3212, V-B:GLU:543:CD:9880, V-A:ASP:366:CG:3213, V-B:GLU:543:CG:9879, V-A:GLU:543:CD:4908, V-A:ARG:545:CZ:4926, V-A:HIS:456:CE1:4070, H-B:GLU:543:OE2:9882, H-B:ARG:545:NH2:9900, V-B:TYR:539:CZ:9849, V-B:TYR:539:CE2:9848, V-B:GLU:543:C:9874, V-B:GLU:543:CB:9878, V-A:GLU:543:CB:4906, V-B:HIS:456:CE1:9041, V-A:GLU:543:CG:4907, H-B:TYR:484:OH:9319, V-B:TYR:484:CZ:9318, V-A:PRO:540:CA:4883, V-A:PRO:540:CB:4885, H-B:TYR:531:OH:9767, H-A:TYR:531:OH:4795, H-A:ALA:541:N:4891, H-B:TYR:539:OH:9850, H-B:ARG:545:NH1:9899"]

$$$$
RR33_Rahimova_2017
     RDKit          3D

 18 19  0  0  0  0  0  0  0  0999 V2000
  132.4140  126.5100   74.3200 C   0  0  0  0  0  0  0  0  0  0  0  0
  130.8870  126.4900   74.4340 C   0  0  0  0  0  0  0  0  0  0  0  0
  130.3660  127.6610   73.8110 O   0  0  0  0  0  0  0  0  0  0  0  0
  130.0110  127.6180   72.4760 C   0  0  0  0  0  0  0  0  0  0  0  0
  130.9800  128.0300   71.5620 C   0  0  0  0  0  0  0  0  0  0  0  0
  130.7130  128.0240   70.1960 C   0  0  0  0  0  0  0  0  0  0  0  0
  129.4660  127.6040   69.7230 C   0  0  0  0  0  0  0  0  0  0  0  0
  129.1800  127.5990   68.2550 C   0  0  0  0  0  0  0  0  0  0  0  0
  129.6480  126.7710   67.3490 N   0  0  0  0  0  0  0  0  0  0  0  0
  129.1120  127.1650   66.2040 C   0  0  0  0  0  0  0  0  0  0  0  0
  129.4110  126.4350   64.9130 C   0  0  0  0  0  0  0  0  0  0  0  0
  130.6730  125.7160   65.0090 N   0  0  0  0  0  0  0  0  0  0  0  0
  130.4420  124.3110   65.3020 C   0  0  0  0  0  0  0  0  0  0  0  0
  128.2950  128.2670   66.4270 C   0  0  0  0  0  0  0  0  0  0  0  0
  127.4260  129.1500   65.5650 C   0  0  0  0  0  0  0  0  0  0  0  0
  128.3430  128.5430   67.7500 O   0  0  0  0  0  0  0  0  0  0  0  0
  128.4930  127.1870   70.6350 C   0  0  0  0  0  0  0  0  0  0  0  0
  128.7600  127.1930   72.0030 C   0  0  0  0  0  0  0  0  0  0  0  0
  1  2  1  0
  2  3  1  0
  3  4  1  0
  4  5  2  0
  5  6  1  0
  6  7  2  0
  7  8  1  0
  8  9  2  0
  9 10  1  0
 10 11  1  0
 11 12  1  0
 12 13  1  0
 10 14  2  0
 14 15  1  0
 14 16  1  0
  7 17  1  0
 17 18  2  0
 18  4  1  0
 16  8  1  0
M  END
>  <Binding energies>  (50) 
[-4.76]

>  <Ligand effiencies>  (50) 
[-0.25052631578947365]

>  <Interactions>  (50) 
["V-B:GLU:543:CD:9880, H-A:GLU:543:OE1:4909, V-B:GLU:543:CG:9879, V-A:GLU:543:CD:4908, H-A:GLU:543:OE2:4910, V-A:HIS:456:CE1:4070, V-A:TYR:484:CE2:4346, V-A:GLU:543:C:4902, V-A:HIS:456:CB:4065, V-A:HIS:456:CD2:4068, V-A:TYR:484:CZ:4347, V-B:GLU:543:CB:9878, V-A:HIS:456:CG:4066, V-A:GLY:544:C:4912, V-A:GLU:543:CB:4906, V-B:HIS:456:CE1:9041, V-A:GLU:543:CG:4907, H-A:LYS:547:NZ:4951, V-A:GLY:544:CA:4914"]

$$$$
RR3_Rahimova_2017
     RDKit          3D

 38 44  0  0  0  0  0  0  0  0999 V2000
  131.6260  120.8540   60.8040 C   0  0  0  0  0  0  0  0  0  0  0  0
  130.3100  120.9390   61.2470 C   0  0  0  0  0  0  0  0  0  0  0  0
  129.9720  121.8700   62.2260 C   0  0  0  0  0  0  0  0  0  0  0  0
  130.9400  122.7250   62.7720 C   0  0  0  0  0  0  0  0  0  0  0  0
  130.5740  123.7260   63.8230 C   0  0  0  0  0  0  0  0  0  0  0  0
  130.5900  125.1000   63.5470 C   0  0  0  0  0  0  0  0  0  0  0  0
  130.2520  126.0300   64.5260 C   0  0  0  0  0  0  0  0  0  0  0  0
  129.8980  125.6060   65.8100 C   0  0  0  0  0  0  0  0  0  0  0  0
  129.5400  126.6020   66.8690 C   0  0  0  0  0  0  0  0  0  0  0  0
  129.9920  126.4460   68.1080 N   0  0  0  0  0  0  0  0  0  0  0  0
  129.5620  127.4750   68.7960 C   0  0  0  0  0  0  0  0  0  0  0  0
  129.8270  127.7110   70.2130 C   0  0  0  0  0  0  0  0  0  0  0  0
  131.0630  127.9900   70.7710 C   0  0  0  0  0  0  0  0  0  0  0  0
  130.9440  128.1620   72.1250 N   0  0  0  0  0  0  0  0  0  0  0  0
  129.6290  128.0000   72.5040 C   0  0  0  0  0  0  0  0  0  0  0  0
  129.0250  128.0790   73.7630 C   0  0  0  0  0  0  0  0  0  0  0  0
  127.6490  127.8600   73.8200 C   0  0  0  0  0  0  0  0  0  0  0  0
  126.9040  127.5750   72.6810 C   0  0  0  0  0  0  0  0  0  0  0  0
  127.5050  127.4970   71.4260 C   0  0  0  0  0  0  0  0  0  0  0  0
  128.8910  127.7090   71.3130 C   0  0  0  0  0  0  0  0  0  0  0  0
  128.8170  128.3120   68.0120 N   0  0  0  0  0  0  0  0  0  0  0  0
  128.7600  127.7650   66.7550 C   0  0  0  0  0  0  0  0  0  0  0  0
  127.9770  128.3770   65.6400 C   0  0  0  0  0  0  0  0  0  0  0  0
  126.8380  129.1350   65.9180 C   0  0  0  0  0  0  0  0  0  0  0  0
  126.0990  129.6950   64.8810 C   0  0  0  0  0  0  0  0  0  0  0  0
  126.4810  129.5150   63.5440 C   0  0  0  0  0  0  0  0  0  0  0  0
  125.6730  130.1030   62.4310 C   0  0  0  0  0  0  0  0  0  0  0  0
  124.3670  130.5660   62.6570 C   0  0  0  0  0  0  0  0  0  0  0  0
  123.6160  131.1170   61.6210 C   0  0  0  0  0  0  0  0  0  0  0  0
  124.1640  131.2120   60.3460 C   0  0  0  0  0  0  0  0  0  0  0  0
  125.4570  130.7600   60.1000 C   0  0  0  0  0  0  0  0  0  0  0  0
  126.2040  130.2090   61.1360 C   0  0  0  0  0  0  0  0  0  0  0  0
  127.6360  128.7660   63.2800 C   0  0  0  0  0  0  0  0  0  0  0  0
  128.3790  128.2040   64.3140 C   0  0  0  0  0  0  0  0  0  0  0  0
  129.8660  124.2390   66.0910 C   0  0  0  0  0  0  0  0  0  0  0  0
  130.2050  123.3110   65.1100 C   0  0  0  0  0  0  0  0  0  0  0  0
  132.2600  122.6200   62.3100 C   0  0  0  0  0  0  0  0  0  0  0  0
  132.6030  121.6920   61.3310 C   0  0  0  0  0  0  0  0  0  0  0  0
  1  2  2  0
  2  3  1  0
  3  4  2  0
  4  5  1  0
  5  6  2  0
  6  7  1  0
  7  8  2  0
  8  9  1  0
  9 10  1  0
 10 11  2  0
 11 12  1  0
 12 13  2  0
 13 14  1  0
 14 15  1  0
 15 16  2  0
 16 17  1  0
 17 18  2  0
 18 19  1  0
 19 20  2  0
 11 21  1  0
 21 22  1  0
 22 23  1  0
 23 24  2  0
 24 25  1  0
 25 26  2  0
 26 27  1  0
 27 28  2  0
 28 29  1  0
 29 30  2  0
 30 31  1  0
 31 32  2  0
 26 33  1  0
 33 34  2  0
  8 35  1  0
 35 36  2  0
  4 37  1  0
 37 38  2  0
 38  1  1  0
 36  5  1  0
 22  9  2  0
 34 23  1  0
 20 12  1  0
 32 27  1  0
 20 15  1  0
M  END
>  <Binding energies>  (51) 
[-9.7]

>  <Ligand effiencies>  (51) 
[-0.2425]

>  <Interactions>  (51) 
["V-B:GLU:543:CD:9880, V-B:GLU:543:CG:9879, V-A:GLU:543:CD:4908, V-A:LEU:475:CD2:4259, V-A:HIS:456:CE1:4070, V-B:ALA:541:CB:9864, V-B:ASP:366:CG:8184, V-B:TYR:539:CE2:9848, V-B:TYR:539:CD2:9846, V-A:TYR:484:CE2:4346, V-A:GLU:543:C:4902, V-B:GLU:543:CA:9876, V-A:TYR:484:CZ:4347, V-B:GLU:543:CB:9878, V-A:GLY:544:C:4912, V-A:GLU:543:CB:4906, V-B:HIS:456:CD2:9039, V-B:HIS:456:CE1:9041, V-B:GLY:544:C:9884, V-A:GLU:543:CG:4907, V-B:LYS:547:CE:9922, V-B:HIS:456:CG:9037, V-B:TYR:484:CZ:9318, V-B:ILE:369:CG2:8208, V-A:GLY:544:CA:4914, H-A:GLY:544:O:4913, H-B:HIS:456:NE2:9042"]

$$$$
RR4_Rahimova_2017
     RDKit          3D

 40 44  0  0  0  0  0  0  0  0999 V2000
  128.6050  128.1120   73.8690 C   0  0  0  0  0  0  0  0  0  0  0  0
  128.7580  126.9330   73.0870 O   0  0  0  0  0  0  0  0  0  0  0  0
  128.6670  127.0210   71.7110 C   0  0  0  0  0  0  0  0  0  0  0  0
  129.8230  127.3940   71.0300 C   0  0  0  0  0  0  0  0  0  0  0  0
  129.8250  127.5070   69.6430 C   0  0  0  0  0  0  0  0  0  0  0  0
  128.6660  127.2530   68.8940 C   0  0  0  0  0  0  0  0  0  0  0  0
  128.6710  127.3770   67.3980 C   0  0  0  0  0  0  0  0  0  0  0  0
  127.9500  128.3630   66.7170 C   0  0  0  0  0  0  0  0  0  0  0  0
  127.9910  128.4400   65.3180 C   0  0  0  0  0  0  0  0  0  0  0  0
  127.2180  129.5380   64.6620 C   0  0  0  0  0  0  0  0  0  0  0  0
  127.8820  130.6650   64.1680 C   0  0  0  0  0  0  0  0  0  0  0  0
  127.1710  131.6870   63.5450 C   0  0  0  0  0  0  0  0  0  0  0  0
  125.7870  131.6000   63.3980 C   0  0  0  0  0  0  0  0  0  0  0  0
  125.1670  132.6610   62.7660 O   0  0  0  0  0  0  0  0  0  0  0  0
  125.9200  133.4740   61.8720 C   0  0  0  0  0  0  0  0  0  0  0  0
  125.1180  130.4690   63.8870 C   0  0  0  0  0  0  0  0  0  0  0  0
  125.8310  129.4470   64.5100 C   0  0  0  0  0  0  0  0  0  0  0  0
  128.7540  127.4790   64.6110 C   0  0  0  0  0  0  0  0  0  0  0  0
  128.8310  127.5140   63.1480 C   0  0  0  0  0  0  0  0  0  0  0  0
  128.8920  127.5410   61.9930 N   0  0  0  0  0  0  0  0  0  0  0  0
  129.4340  126.4920   65.3620 C   0  0  0  0  0  0  0  0  0  0  0  0
  130.4270  125.2020   64.6420 S   0  0  0  0  0  0  0  0  0  0  0  0
  129.5060  123.6350   64.8040 C   0  0  0  0  0  0  0  0  0  0  0  0
  128.9440  123.0870   63.4860 C   0  0  0  0  0  0  0  0  0  0  0  0
  129.0840  121.8970   63.1920 O   0  0  0  0  0  0  0  0  0  0  0  0
  128.3210  124.0050   62.7100 N   0  0  0  0  0  0  0  0  0  0  0  0
  127.7100  123.8210   61.4680 C   0  0  0  0  0  0  0  0  0  0  0  0
  126.1420  124.4760   61.0760 S   0  0  0  0  0  0  0  0  0  0  0  0
  126.1950  123.7960   59.4790 C   0  0  0  0  0  0  0  0  0  0  0  0
  127.3850  123.0840   59.2600 C   0  0  0  0  0  0  0  0  0  0  0  0
  128.2480  123.1130   60.3820 C   0  0  0  0  0  0  0  0  0  0  0  0
  129.5560  122.4660   60.4070 C   0  0  0  0  0  0  0  0  0  0  0  0
  130.5930  121.9520   60.4260 N   0  0  0  0  0  0  0  0  0  0  0  0
  127.6870  122.4220   57.9110 C   0  0  0  0  0  0  0  0  0  0  0  0
  126.7570  122.9780   56.8100 C   0  0  0  0  0  0  0  0  0  0  0  0
  125.2900  123.0480   57.2690 C   0  0  0  0  0  0  0  0  0  0  0  0
  125.0980  124.0260   58.4470 C   0  0  0  0  0  0  0  0  0  0  0  0
  129.4030  126.4600   66.7140 N   0  0  0  0  0  0  0  0  0  0  0  0
  127.5070  126.8730   69.5900 C   0  0  0  0  0  0  0  0  0  0  0  0
  127.5020  126.7600   70.9770 C   0  0  0  0  0  0  0  0  0  0  0  0
  1  2  1  0
  2  3  1  0
  3  4  2  0
  4  5  1  0
  5  6  2  0
  6  7  1  0
  7  8  2  0
  8  9  1  0
  9 10  1  0
 10 11  2  0
 11 12  1  0
 12 13  2  0
 13 14  1  0
 14 15  1  0
 13 16  1  0
 16 17  2  0
  9 18  2  0
 18 19  1  0
 19 20  3  0
 18 21  1  0
 21 22  1  0
 22 23  1  0
 23 24  1  0
 24 25  2  0
 24 26  1  0
 26 27  1  0
 27 28  1  0
 28 29  1  0
 29 30  2  0
 30 31  1  0
 31 32  1  0
 32 33  3  0
 30 34  1  0
 34 35  1  0
 35 36  1  0
 36 37  1  0
 21 38  2  0
  6 39  1  0
 39 40  2  0
 40  3  1  0
 38  7  1  0
 17 10  1  0
 31 27  2  0
 37 29  1  0
M  END
>  <Binding energies>  (52) 
[-10.04]

>  <Ligand effiencies>  (52) 
[-0.24487804878048777]

>  <Interactions>  (52) 
["V-B:GLU:543:CD:9880, V-B:GLU:543:CG:9879, V-A:GLU:543:CD:4908, V-A:HIS:456:CE1:4070, V-B:ALA:541:CB:9864, V-B:TYR:539:C:9839, H-B:ALA:541:N:9863, H-B:GLU:543:OE1:9881, V-B:PRO:540:CD:9859, V-B:PRO:540:CA:9855, V-B:PRO:540:CB:9857, V-B:PRO:540:N:9856, V-B:LEU:363:CD1:8160, V-B:TYR:539:CZ:9849, V-B:TYR:539:CE2:9848, V-B:TYR:539:CD1:9845, V-B:TYR:539:CA:9841, V-B:TYR:539:CD2:9846, V-B:TYR:539:CG:9844, V-A:TYR:484:CE2:4346, V-B:GLU:543:C:9874, V-B:GLU:543:CB:9878, V-A:GLU:543:CB:4906, V-B:HIS:456:CD2:9039, V-B:HIS:456:CE1:9041, V-B:GLY:544:C:9884, V-B:GLY:544:CA:9886, V-B:ARG:545:CZ:9898, V-A:GLU:543:CG:4907, V-B:LEU:475:CD2:9230, H-B:LYS:547:NZ:9923"]

$$$$
RR6_Rahimova_2017
     RDKit          3D

 38 41  0  0  0  0  0  0  0  0999 V2000
  130.2820  132.4380   56.9080 C   0  0  0  0  0  0  0  0  0  0  0  0
  130.4590  131.0470   56.6770 O   0  0  0  0  0  0  0  0  0  0  0  0
  129.5060  130.1510   57.0410 C   0  0  0  0  0  0  0  0  0  0  0  0
  128.2940  130.3820   56.9720 O   0  0  0  0  0  0  0  0  0  0  0  0
  130.0710  128.8500   57.5330 C   0  0  0  0  0  0  0  0  0  0  0  0
  129.5270  127.6130   57.1560 C   0  0  0  0  0  0  0  0  0  0  0  0
  130.0690  126.4230   57.6360 C   0  0  0  0  0  0  0  0  0  0  0  0
  131.1670  126.4520   58.5100 C   0  0  0  0  0  0  0  0  0  0  0  0
  131.7720  125.3150   59.0750 N   0  0  0  0  0  0  0  0  0  0  0  0
  132.8940  124.6640   58.6960 C   0  0  0  0  0  0  0  0  0  0  0  0
  133.6170  124.9800   57.7510 O   0  0  0  0  0  0  0  0  0  0  0  0
  133.2280  123.4000   59.4940 C   0  0  0  0  0  0  0  0  0  0  0  0
  133.4700  123.7010   61.2770 S   0  0  0  0  0  0  0  0  0  0  0  0
  131.8690  124.0910   61.9530 C   0  0  0  0  0  0  0  0  0  0  0  0
  130.8430  123.9330   61.0840 N   0  0  0  0  0  0  0  0  0  0  0  0
  129.5710  124.1720   61.4930 C   0  0  0  0  0  0  0  0  0  0  0  0
  128.4880  123.9140   60.4870 C   0  0  0  0  0  0  0  0  0  0  0  0
  127.1420  124.1740   60.7930 C   0  0  0  0  0  0  0  0  0  0  0  0
  126.1360  123.9220   59.8640 C   0  0  0  0  0  0  0  0  0  0  0  0
  126.4570  123.4100   58.6080 C   0  0  0  0  0  0  0  0  0  0  0  0
  125.3550  123.1290   57.6030 C   0  0  0  0  0  0  0  0  0  0  0  0
  127.7860  123.1470   58.2850 C   0  0  0  0  0  0  0  0  0  0  0  0
  128.7880  123.4010   59.2160 C   0  0  0  0  0  0  0  0  0  0  0  0
  129.3080  124.5920   62.8000 C   0  0  0  0  0  0  0  0  0  0  0  0
  130.3540  124.7670   63.7180 C   0  0  0  0  0  0  0  0  0  0  0  0
  130.0000  125.2000   65.1020 C   0  0  0  0  0  0  0  0  0  0  0  0
  130.2410  124.3510   66.1870 C   0  0  0  0  0  0  0  0  0  0  0  0
  129.9280  124.7530   67.4830 C   0  0  0  0  0  0  0  0  0  0  0  0
  129.3760  126.0110   67.7210 C   0  0  0  0  0  0  0  0  0  0  0  0
  129.1010  126.3250   69.0380 O   0  0  0  0  0  0  0  0  0  0  0  0
  129.1790  127.6830   69.4580 C   0  0  0  0  0  0  0  0  0  0  0  0
  129.1370  126.8690   66.6360 C   0  0  0  0  0  0  0  0  0  0  0  0
  129.4510  126.4640   65.3420 C   0  0  0  0  0  0  0  0  0  0  0  0
  131.6790  124.5150   63.2840 C   0  0  0  0  0  0  0  0  0  0  0  0
  132.8210  124.7060   64.1830 C   0  0  0  0  0  0  0  0  0  0  0  0
  133.7220  124.8560   64.8940 N   0  0  0  0  0  0  0  0  0  0  0  0
  131.7200  127.6800   58.8740 C   0  0  0  0  0  0  0  0  0  0  0  0
  131.1750  128.8680   58.3950 C   0  0  0  0  0  0  0  0  0  0  0  0
  1  2  1  0
  2  3  1  0
  3  4  2  0
  3  5  1  0
  5  6  2  0
  6  7  1  0
  7  8  2  0
  8  9  1  0
  9 10  1  0
 10 11  2  0
 10 12  1  0
 12 13  1  0
 13 14  1  0
 14 15  2  0
 15 16  1  0
 16 17  1  0
 17 18  2  0
 18 19  1  0
 19 20  2  0
 20 21  1  0
 20 22  1  0
 22 23  2  0
 16 24  2  0
 24 25  1  0
 25 26  1  0
 26 27  2  0
 27 28  1  0
 28 29  2  0
 29 30  1  0
 30 31  1  0
 29 32  1  0
 32 33  2  0
 25 34  2  0
 34 35  1  0
 35 36  3  0
  8 37  1  0
 37 38  2  0
 38  5  1  0
 34 14  1  0
 23 17  1  0
 33 26  1  0
M  END
>  <Binding energies>  (53) 
[-8.38]

>  <Ligand effiencies>  (53) 
[-0.2148717948717949]

>  <Interactions>  (53) 
["V-A:ILE:369:CG2:3237, V-A:ASP:366:CB:3212, V-B:GLU:543:CD:9880, H-A:ARG:545:NH2:4928, H-A:GLY:454:N:4050, V-A:ASP:366:CA:3210, V-A:ASP:366:CG:3213, H-A:TYR:484:OH:4348, V-B:GLU:543:CG:9879, H-A:ARG:545:NE:4924, V-A:ILE:369:CB:3236, V-A:GLU:543:CD:4908, V-A:ARG:545:CZ:4926, V-A:HIS:456:CE1:4070, V-B:PRO:540:CD:9859, V-B:PRO:540:CA:9855, V-B:PRO:540:CB:9857, V-B:PRO:540:N:9856, V-B:LEU:363:CD1:8160, V-B:TYR:539:CZ:9849, V-B:TYR:539:CE2:9848, V-A:MET:535:CE:4835, V-B:TYR:539:CD2:9846, V-B:PRO:540:CG:9858, V-A:TYR:484:CE2:4346, V-B:GLU:543:CA:9876, V-A:TYR:484:CZ:4347, V-B:GLU:543:CB:9878, V-B:HIS:456:CE1:9041, H-A:TYR:531:OH:4795, H-B:TYR:539:OH:9850"]

$$$$
RR7_Rahimova_2017
     RDKit          3D

 47 53  0  0  0  0  0  0  0  0999 V2000
  125.3770  122.2930   56.3570 C   0  0  0  0  0  0  0  0  0  0  0  0
  126.7350  121.9890   56.6610 O   0  0  0  0  0  0  0  0  0  0  0  0
  127.5240  122.9540   57.2560 C   0  0  0  0  0  0  0  0  0  0  0  0
  127.8770  122.7370   58.5870 C   0  0  0  0  0  0  0  0  0  0  0  0
  128.6730  123.6520   59.2680 C   0  0  0  0  0  0  0  0  0  0  0  0
  129.1270  124.8190   58.6340 C   0  0  0  0  0  0  0  0  0  0  0  0
  130.0490  125.8460   59.3630 C   0  0  0  0  0  0  0  0  0  0  0  0
  129.4630  126.0640   60.6670 O   0  0  0  0  0  0  0  0  0  0  0  0
  128.0420  126.0230   60.8300 C   0  0  0  0  0  0  0  0  0  0  0  0
  127.5060  127.4620   60.9100 C   0  0  1  0  0  0  0  0  0  0  0  0
  127.0670  127.6650   62.2510 O   0  0  0  0  0  0  0  0  0  0  0  0
  127.7360  128.7290   62.8650 C   0  0  1  0  0  0  0  0  0  0  0  0
  127.8970  128.4650   64.2820 N   0  0  0  0  0  0  0  0  0  0  0  0
  127.4170  129.2080   65.3470 C   0  0  0  0  0  0  0  0  0  0  0  0
  127.7500  128.7660   66.5340 N   0  0  0  0  0  0  0  0  0  0  0  0
  128.5430  127.6820   66.2690 C   0  0  0  0  0  0  0  0  0  0  0  0
  129.2250  126.7840   67.1120 C   0  0  0  0  0  0  0  0  0  0  0  0
  129.1160  126.9510   68.5060 N   0  0  0  0  0  0  0  0  0  0  0  0
  130.0570  127.3520   69.3930 C   0  0  0  0  0  0  0  0  0  0  0  0
  131.2210  127.6290   69.0930 O   0  0  0  0  0  0  0  0  0  0  0  0
  129.6100  127.4190   70.8380 C   0  0  0  0  0  0  0  0  0  0  0  0
  130.5550  127.6640   71.8460 C   0  0  0  0  0  0  0  0  0  0  0  0
  130.1640  127.7350   73.1800 C   0  0  0  0  0  0  0  0  0  0  0  0
  128.8250  127.5660   73.5170 C   0  0  0  0  0  0  0  0  0  0  0  0
  127.8720  127.3260   72.5320 C   0  0  0  0  0  0  0  0  0  0  0  0
  128.2610  127.2540   71.1960 C   0  0  0  0  0  0  0  0  0  0  0  0
  129.9730  125.7840   66.5570 N   0  0  0  0  0  0  0  0  0  0  0  0
  130.0220  125.7070   65.2010 C   0  0  0  0  0  0  0  0  0  0  0  0
  129.4040  126.5140   64.2980 N   0  0  0  0  0  0  0  0  0  0  0  0
  128.6730  127.4800   64.8710 C   0  0  0  0  0  0  0  0  0  0  0  0
  129.0370  128.8860   62.0880 C   0  0  0  0  0  0  0  0  0  0  0  0
  128.5560  128.5590   60.6850 C   0  0  2  0  0  0  0  0  0  0  0  0
  128.0190  129.6950   60.0290 O   0  0  0  0  0  0  0  0  0  0  0  0
  131.4800  125.2940   59.5960 C   0  0  0  0  0  0  0  0  0  0  0  0
  131.9780  125.1450   60.9010 C   0  0  0  0  0  0  0  0  0  0  0  0
  133.2640  124.6640   61.1210 C   0  0  0  0  0  0  0  0  0  0  0  0
  134.0690  124.3280   60.0370 C   0  0  0  0  0  0  0  0  0  0  0  0
  133.5970  124.4680   58.7360 C   0  0  0  0  0  0  0  0  0  0  0  0
  132.3100  124.9500   58.5160 C   0  0  0  0  0  0  0  0  0  0  0  0
  130.2400  127.2120   58.6450 C   0  0  0  0  0  0  0  0  0  0  0  0
  131.4110  127.9600   58.8420 C   0  0  0  0  0  0  0  0  0  0  0  0
  131.5870  129.1880   58.2120 C   0  0  0  0  0  0  0  0  0  0  0  0
  130.5870  129.6870   57.3830 C   0  0  0  0  0  0  0  0  0  0  0  0
  129.4120  128.9680   57.1830 C   0  0  0  0  0  0  0  0  0  0  0  0
  129.2380  127.7410   57.8150 C   0  0  0  0  0  0  0  0  0  0  0  0
  128.7810  125.0250   57.2910 C   0  0  0  0  0  0  0  0  0  0  0  0
  127.9850  124.1090   56.6090 C   0  0  0  0  0  0  0  0  0  0  0  0
  1  2  1  0
  2  3  1  0
  3  4  2  0
  4  5  1  0
  5  6  2  0
  6  7  1  0
  7  8  1  0
  8  9  1  0
 10  9  1  1
 10 11  1  0
 11 12  1  0
 12 13  1  1
 13 14  1  0
 14 15  2  0
 15 16  1  0
 16 17  2  0
 17 18  1  0
 18 19  1  0
 19 20  2  0
 19 21  1  0
 21 22  2  0
 22 23  1  0
 23 24  2  0
 24 25  1  0
 25 26  2  0
 17 27  1  0
 27 28  2  0
 28 29  1  0
 29 30  2  0
 12 31  1  0
 31 32  1  0
 32 33  1  1
  7 34  1  0
 34 35  2  0
 35 36  1  0
 36 37  2  0
 37 38  1  0
 38 39  2  0
  7 40  1  0
 40 41  2  0
 41 42  1  0
 42 43  2  0
 43 44  1  0
 44 45  2  0
  6 46  1  0
 46 47  2  0
 47  3  1  0
 32 10  1  0
 39 34  1  0
 45 40  1  0
 30 13  1  0
 30 16  1  0
 26 21  1  0
M  END
>  <Binding energies>  (54) 
[-8.84]

>  <Ligand effiencies>  (54) 
[-0.18040816326530612]

>  <Interactions>  (54) 
["V-A:ILE:369:CG2:3237, V-A:ILE:369:CD1:3239, V-A:ASP:366:CB:3212, V-B:GLU:543:CD:9880, V-A:ASP:366:CA:3210, V-A:ASP:366:CG:3213, V-B:GLU:543:CG:9879, V-A:ILE:369:CB:3236, V-A:GLU:543:CD:4908, V-A:HIS:456:CE1:4070, V-B:TYR:539:C:9839, V-B:PRO:540:CD:9859, V-B:PRO:540:CA:9855, V-B:PRO:540:CB:9857, V-B:PRO:540:N:9856, V-B:LEU:363:CD1:8160, H-B:ARG:545:NH2:9900, V-B:MET:535:CE:9807, V-B:TYR:539:CZ:9849, V-B:TYR:539:CE2:9848, V-B:TYR:539:CD1:9845, H-B:TYR:539:N:9842, V-B:TYR:539:CE1:9847, V-A:MET:535:CE:4835, V-B:TYR:539:CD2:9846, V-B:PRO:540:CG:9858, V-B:ILE:538:CG2:9835, V-B:TYR:539:CG:9844, V-A:HIS:456:CD2:4068, V-B:GLU:543:CB:9878, V-A:GLY:544:C:4912, V-A:GLU:543:CB:4906, V-B:HIS:456:CD2:9039, V-B:HIS:456:CE1:9041, H-B:TYR:484:OH:9319, V-A:TYR:531:CZ:4794, V-A:ASP:366:C:3208, H-B:GLU:543:O:9875"]

$$$$
RR8_A_Rahimova_2017
     RDKit          3D

 42 46  0  0  0  0  0  0  0  0999 V2000
  133.9310  124.9030   64.7720 O   0  0  0  0  0  0  0  0  0  0  0  0
  133.1980  124.2410   64.0290 C   0  0  0  0  0  0  0  0  0  0  0  0
  132.2770  123.3260   64.4660 O   0  0  0  0  0  0  0  0  0  0  0  0
  130.9870  123.7910   64.7520 C   0  0  1  0  0  0  0  0  0  0  0  0
  131.0120  125.0810   65.2910 O   0  0  0  0  0  0  0  0  0  0  0  0
  129.9300  125.8760   64.8130 C   0  0  2  0  0  0  0  0  0  0  0  0
  129.1430  126.4110   66.0220 C   0  0  0  0  0  0  0  0  0  0  0  0
  129.8570  126.0960   67.2090 O   0  0  0  0  0  0  0  0  0  0  0  0
  130.2040  127.2290   67.9930 C   0  0  0  0  0  0  0  0  0  0  0  0
  129.4060  127.2260   69.2880 C   0  0  0  0  0  0  0  0  0  0  0  0
  128.0490  126.8920   69.2700 C   0  0  0  0  0  0  0  0  0  0  0  0
  127.3180  126.8820   70.4550 C   0  0  0  0  0  0  0  0  0  0  0  0
  127.9460  127.2020   71.6570 C   0  0  0  0  0  0  0  0  0  0  0  0
  129.3000  127.5300   71.6850 C   0  0  0  0  0  0  0  0  0  0  0  0
  130.0320  127.5390   70.5010 C   0  0  0  0  0  0  0  0  0  0  0  0
  129.1570  124.9240   63.8910 C   0  0  1  0  0  0  0  0  0  0  0  0
  128.6560  125.5620   62.7180 O   0  0  0  0  0  0  0  0  0  0  0  0
  129.0750  126.9070   62.5220 C   0  0  0  0  0  0  0  0  0  0  0  0
  127.9180  127.8570   62.7970 C   0  0  0  0  0  0  0  0  0  0  0  0
  127.9240  128.6400   63.9560 C   0  0  0  0  0  0  0  0  0  0  0  0
  126.8650  129.5040   64.2190 C   0  0  0  0  0  0  0  0  0  0  0  0
  125.7980  129.5810   63.3250 C   0  0  0  0  0  0  0  0  0  0  0  0
  125.7800  128.8000   62.1720 C   0  0  0  0  0  0  0  0  0  0  0  0
  126.8390  127.9340   61.9090 C   0  0  0  0  0  0  0  0  0  0  0  0
  130.2160  123.9310   63.4470 C   0  0  2  0  0  0  0  0  0  0  0  0
  129.6120  122.7170   63.0060 O   0  0  0  0  0  0  0  0  0  0  0  0
  129.6540  122.4820   61.6030 C   0  0  0  0  0  0  0  0  0  0  0  0
  128.4270  123.0880   60.9390 C   0  0  0  0  0  0  0  0  0  0  0  0
  127.2110  123.1450   61.6270 C   0  0  0  0  0  0  0  0  0  0  0  0
  126.0930  123.7100   61.0180 C   0  0  0  0  0  0  0  0  0  0  0  0
  126.1940  124.2200   59.7260 C   0  0  0  0  0  0  0  0  0  0  0  0
  127.4030  124.1730   59.0360 C   0  0  0  0  0  0  0  0  0  0  0  0
  128.5230  123.6080   59.6440 C   0  0  0  0  0  0  0  0  0  0  0  0
  133.2220  124.3690   62.5340 C   0  0  0  0  0  0  0  0  0  0  0  0
  132.4940  125.3640   61.8630 C   0  0  0  0  0  0  0  0  0  0  0  0
  132.5360  125.4560   60.4740 C   0  0  0  0  0  0  0  0  0  0  0  0
  133.3030  124.5580   59.7210 C   0  0  0  0  0  0  0  0  0  0  0  0
  133.3470  124.6590   58.2420 N   0  0  0  0  0  0  0  0  0  0  0  0
  133.9930  123.8250   57.6150 O   0  0  0  0  0  0  0  0  0  0  0  0
  132.7360  125.5730   57.6960 O   0  0  0  0  0  0  0  0  0  0  0  0
  134.0270  123.5640   60.3920 C   0  0  0  0  0  0  0  0  0  0  0  0
  133.9870  123.4700   61.7790 C   0  0  0  0  0  0  0  0  0  0  0  0
  1  2  2  0
  2  3  1  0
  4  3  1  6
  4  5  1  0
  5  6  1  0
  6  7  1  1
  7  8  1  0
  8  9  1  0
  9 10  1  0
 10 11  2  0
 11 12  1  0
 12 13  2  0
 13 14  1  0
 14 15  2  0
  6 16  1  0
 16 17  1  6
 17 18  1  0
 18 19  1  0
 19 20  2  0
 20 21  1  0
 21 22  2  0
 22 23  1  0
 23 24  2  0
 16 25  1  0
 25 26  1  1
 26 27  1  0
 27 28  1  0
 28 29  2  0
 29 30  1  0
 30 31  2  0
 31 32  1  0
 32 33  2  0
  2 34  1  0
 34 35  2  0
 35 36  1  0
 36 37  2  0
 37 38  1  0
 38 39  2  0
 38 40  1  0
 37 41  1  0
 41 42  2  0
 25  4  1  0
 33 28  1  0
 42 34  1  0
 15 10  1  0
 24 19  1  0
M  CHG  2  38   1  40  -1
M  END
>  <Binding energies>  (55) 
[-9.43]

>  <Ligand effiencies>  (55) 
[-0.22452380952380951]

>  <Interactions>  (55) 
["V-A:ILE:369:CG2:3237, V-A:ILE:369:CD1:3239, V-A:ASP:366:CB:3212, V-B:GLU:543:CD:9880, H-A:ARG:545:NH1:4927, H-A:ARG:545:NH2:4928, H-A:GLY:454:N:4050, V-A:ASP:366:CA:3210, V-A:ASP:366:CG:3213, H-A:TYR:484:OH:4348, V-B:GLU:543:CG:9879, H-A:ARG:545:NE:4924, V-A:ILE:369:CB:3236, V-A:GLU:543:CD:4908, V-A:ARG:545:CZ:4926, V-A:HIS:456:CE1:4070, V-A:GLY:454:CA:4049, V-B:ASP:366:CG:8184, V-B:PRO:540:CA:9855, V-B:PRO:540:CB:9857, V-B:TYR:539:CZ:9849, V-B:TYR:539:CE2:9848, V-B:PRO:540:C:9853, V-A:TYR:484:CE2:4346, V-B:GLU:543:C:9874, V-A:TYR:484:CZ:4347, V-B:GLU:543:CB:9878, V-A:GLU:543:CB:4906, V-B:HIS:456:CD2:9039, V-B:HIS:456:CE1:9041, V-B:GLY:544:C:9884, V-B:GLY:544:CA:9886, H-A:TYR:531:OH:4795, H-B:TYR:539:OH:9850, V-A:ASP:366:C:3208, H-A:ASN:370:N:3244"]

$$$$
RR8_B_Rahimova_2017
     RDKit          3D

 42 46  0  0  0  0  0  0  0  0999 V2000
  131.2390  125.8030   57.1310 O   0  0  0  0  0  0  0  0  0  0  0  0
  131.5880  126.4820   58.1030 C   0  0  0  0  0  0  0  0  0  0  0  0
  131.5280  127.8470   58.1530 O   0  0  0  0  0  0  0  0  0  0  0  0
  130.4270  128.4400   58.7960 C   0  0  2  0  0  0  0  0  0  0  0  0
  129.4740  127.4900   59.1820 O   0  0  0  0  0  0  0  0  0  0  0  0
  128.4880  127.2970   58.1690 C   0  0  2  0  0  0  0  0  0  0  0  0
  128.4690  125.8180   57.7450 C   0  0  0  0  0  0  0  0  0  0  0  0
  129.0570  125.0290   58.7730 O   0  0  0  0  0  0  0  0  0  0  0  0
  128.1910  124.0700   59.3610 C   0  0  0  0  0  0  0  0  0  0  0  0
  127.1960  123.5870   58.3160 C   0  0  0  0  0  0  0  0  0  0  0  0
  125.8430  123.9130   58.4440 C   0  0  0  0  0  0  0  0  0  0  0  0
  124.9230  123.4530   57.5050 C   0  0  0  0  0  0  0  0  0  0  0  0
  125.3610  122.6700   56.4380 C   0  0  0  0  0  0  0  0  0  0  0  0
  126.7090  122.3470   56.3010 C   0  0  0  0  0  0  0  0  0  0  0  0
  127.6290  122.8030   57.2420 C   0  0  0  0  0  0  0  0  0  0  0  0
  128.8750  128.2930   57.0690 C   0  0  1  0  0  0  0  0  0  0  0  0
  127.6960  128.8180   56.4530 O   0  0  0  0  0  0  0  0  0  0  0  0
  127.4380  130.2140   56.6250 C   0  0  0  0  0  0  0  0  0  0  0  0
  126.2180  130.4730   57.5040 C   0  0  0  0  0  0  0  0  0  0  0  0
  125.0100  130.8700   56.9260 C   0  0  0  0  0  0  0  0  0  0  0  0
  123.8890  131.0740   57.7280 C   0  0  0  0  0  0  0  0  0  0  0  0
  123.9830  130.8840   59.1050 C   0  0  0  0  0  0  0  0  0  0  0  0
  125.1860  130.4920   59.6890 C   0  0  0  0  0  0  0  0  0  0  0  0
  126.3060  130.2850   58.8860 C   0  0  0  0  0  0  0  0  0  0  0  0
  129.6900  129.3460   57.8120 C   0  0  2  0  0  0  0  0  0  0  0  0
  130.5510  130.0360   56.9090 O   0  0  0  0  0  0  0  0  0  0  0  0
  131.2540  131.1410   57.4540 C   0  0  0  0  0  0  0  0  0  0  0  0
  130.3620  131.8100   58.4860 C   0  0  0  0  0  0  0  0  0  0  0  0
  129.2740  132.5870   58.0800 C   0  0  0  0  0  0  0  0  0  0  0  0
  128.4740  133.2120   59.0350 C   0  0  0  0  0  0  0  0  0  0  0  0
  128.7650  133.0570   60.3880 C   0  0  0  0  0  0  0  0  0  0  0  0
  129.8480  132.2820   60.7990 C   0  0  0  0  0  0  0  0  0  0  0  0
  130.6470  131.6580   59.8460 C   0  0  0  0  0  0  0  0  0  0  0  0
  132.1650  125.8870   59.3550 C   0  0  0  0  0  0  0  0  0  0  0  0
  131.7190  126.2680   60.6290 C   0  0  0  0  0  0  0  0  0  0  0  0
  132.2770  125.7060   61.7710 C   0  0  0  0  0  0  0  0  0  0  0  0
  133.3030  124.7580   61.6710 C   0  0  0  0  0  0  0  0  0  0  0  0
  133.9160  124.1790   62.8920 N   0  0  0  0  0  0  0  0  0  0  0  0
  134.3240  124.9420   63.7640 O   0  0  0  0  0  0  0  0  0  0  0  0
  133.9890  122.9570   62.9910 O   0  0  0  0  0  0  0  0  0  0  0  0
  133.7440  124.3720   60.3990 C   0  0  0  0  0  0  0  0  0  0  0  0
  133.1810  124.9280   59.2550 C   0  0  0  0  0  0  0  0  0  0  0  0
  1  2  2  0
  2  3  1  0
  4  3  1  6
  4  5  1  0
  5  6  1  0
  6  7  1  6
  7  8  1  0
  8  9  1  0
  9 10  1  0
 10 11  2  0
 11 12  1  0
 12 13  2  0
 13 14  1  0
 14 15  2  0
  6 16  1  0
 16 17  1  1
 17 18  1  0
 18 19  1  0
 19 20  2  0
 20 21  1  0
 21 22  2  0
 22 23  1  0
 23 24  2  0
 16 25  1  0
 25 26  1  6
 26 27  1  0
 27 28  1  0
 28 29  2  0
 29 30  1  0
 30 31  2  0
 31 32  1  0
 32 33  2  0
  2 34  1  0
 34 35  2  0
 35 36  1  0
 36 37  2  0
 37 38  1  0
 38 39  2  0
 38 40  1  0
 37 41  1  0
 41 42  2  0
 25  4  1  0
 33 28  1  0
 42 34  1  0
 15 10  1  0
 24 19  1  0
M  CHG  2  38   1  40  -1
M  END
>  <Binding energies>  (56) 
[-8.79]

>  <Ligand effiencies>  (56) 
[-0.20928571428571427]

>  <Interactions>  (56) 
["V-A:ILE:369:CD1:3239, V-A:ASP:366:CB:3212, H-A:ARG:545:NH1:4927, H-A:ARG:545:NH2:4928, H-A:GLY:454:N:4050, V-A:ASP:366:CA:3210, V-A:ASP:366:CG:3213, H-A:ARG:545:NE:4924, V-A:GLY:454:CA:4049, V-B:ASP:366:CB:8183, V-B:TYR:539:C:9839, V-B:PRO:540:CD:9859, V-B:ASP:366:CG:8184, V-B:PRO:540:CA:9855, V-B:PRO:540:CB:9857, V-B:PRO:540:N:9856, V-B:LEU:363:CD1:8160, V-B:TYR:531:CZ:9766, V-B:MET:535:CE:9807, V-B:TYR:539:CZ:9849, V-B:TYR:539:CE2:9848, V-B:TYR:539:CD1:9845, V-B:TYR:539:CE1:9847, V-A:MET:535:CE:4835, V-B:TYR:539:CD2:9846, V-B:ILE:538:CG2:9835, V-B:TYR:539:CG:9844, V-A:PRO:540:CA:4883, V-A:PRO:540:CB:4885, H-B:TYR:531:OH:9767, V-A:PRO:540:N:4884, H-A:TYR:531:OH:4795, V-A:TYR:539:CE1:4875, H-B:TYR:539:OH:9850, V-A:TYR:539:CZ:4877, V-A:TYR:539:CG:4872, V-A:TYR:539:CD1:4873, V-B:ASP:366:C:8179, V-B:ASP:366:CA:8181, V-B:ILE:369:CG2:8208, V-A:TYR:539:C:4867, V-B:ILE:369:CB:8207"]

$$$$
RR9_Rahimova_2017
     RDKit          3D

 36 40  0  0  0  0  0  0  0  0999 V2000
  127.5940  127.2480   72.6170 C   0  0  0  0  0  0  0  0  0  0  0  0
  128.9070  128.0190   72.4500 C   0  0  0  0  0  0  0  0  0  0  0  0
  128.9350  128.5990   71.1490 O   0  0  0  0  0  0  0  0  0  0  0  0
  129.3160  127.8250   70.0700 C   0  0  0  0  0  0  0  0  0  0  0  0
  130.6220  127.9920   69.6130 C   0  0  0  0  0  0  0  0  0  0  0  0
  131.0930  127.2570   68.5300 C   0  0  0  0  0  0  0  0  0  0  0  0
  130.2700  126.3320   67.8710 C   0  0  0  0  0  0  0  0  0  0  0  0
  130.7710  125.5400   66.7000 C   0  0  0  0  0  0  0  0  0  0  0  0
  129.9440  124.6390   66.0120 C   0  0  0  0  0  0  0  0  0  0  0  0
  130.4150  123.9090   64.9060 C   0  0  0  0  0  0  0  0  0  0  0  0
  129.4510  123.0360   64.1500 C   0  0  0  0  0  0  0  0  0  0  0  0
  129.4500  121.8160   64.3200 O   0  0  0  0  0  0  0  0  0  0  0  0
  128.6390  123.6740   63.2840 N   0  0  0  0  0  0  0  0  0  0  0  0
  127.7120  123.0340   62.3440 C   0  0  0  0  0  0  0  0  0  0  0  0
  128.2820  122.9280   60.9110 C   0  0  0  0  0  0  0  0  0  0  0  0
  127.2690  123.1890   59.8020 C   0  0  0  0  0  0  0  0  0  0  0  0
  126.0730  123.8550   60.0860 C   0  0  0  0  0  0  0  0  0  0  0  0
  125.1650  124.1220   59.0640 C   0  0  0  0  0  0  0  0  0  0  0  0
  125.4540  123.7180   57.7630 C   0  0  0  0  0  0  0  0  0  0  0  0
  126.6410  123.0490   57.4720 C   0  0  0  0  0  0  0  0  0  0  0  0
  127.5500  122.7830   58.4940 C   0  0  0  0  0  0  0  0  0  0  0  0
  131.7720  124.1100   64.5540 C   0  0  0  0  0  0  0  0  0  0  0  0
  132.7280  123.6220   63.5880 C   0  0  0  0  0  0  0  0  0  0  0  0
  132.5760  122.5490   62.5610 C   0  0  0  0  0  0  0  0  0  0  0  0
  131.3210  122.2790   62.0070 C   0  0  0  0  0  0  0  0  0  0  0  0
  131.1780  121.2670   61.0610 C   0  0  0  0  0  0  0  0  0  0  0  0
  132.2910  120.5240   60.6630 C   0  0  0  0  0  0  0  0  0  0  0  0
  132.1320  119.4080   59.6460 C   0  0  0  0  0  0  0  0  0  0  0  0
  133.5450  120.7890   61.2150 C   0  0  0  0  0  0  0  0  0  0  0  0
  133.6860  121.8030   62.1590 C   0  0  0  0  0  0  0  0  0  0  0  0
  133.8750  124.2510   63.7160 N   0  0  0  0  0  0  0  0  0  0  0  0
  133.7690  125.0980   64.7530 N   0  0  0  0  0  0  0  0  0  0  0  0
  132.5140  125.0480   65.3120 C   0  0  0  0  0  0  0  0  0  0  0  0
  132.0720  125.7520   66.3530 N   0  0  0  0  0  0  0  0  0  0  0  0
  128.9570  126.1710   68.3350 C   0  0  0  0  0  0  0  0  0  0  0  0
  128.4820  126.9040   69.4200 C   0  0  0  0  0  0  0  0  0  0  0  0
  1  2  1  0
  2  3  1  0
  3  4  1  0
  4  5  2  0
  5  6  1  0
  6  7  2  0
  7  8  1  0
  8  9  2  0
  9 10  1  0
 10 11  1  0
 11 12  2  0
 11 13  1  0
 13 14  1  0
 14 15  1  0
 15 16  1  0
 16 17  2  0
 17 18  1  0
 18 19  2  0
 19 20  1  0
 20 21  2  0
 10 22  2  0
 22 23  1  0
 23 24  1  0
 24 25  2  0
 25 26  1  0
 26 27  2  0
 27 28  1  0
 27 29  1  0
 29 30  2  0
 23 31  2  0
 31 32  1  0
 32 33  1  0
 33 34  2  0
  7 35  1  0
 35 36  2  0
 36  4  1  0
 34  8  1  0
 21 16  1  0
 33 22  1  0
 30 24  1  0
M  END
>  <Binding energies>  (57) 
[-9.25]

>  <Ligand effiencies>  (57) 
[-0.24342105263157895]

>  <Interactions>  (57) 
["V-A:ILE:369:CG2:3237, V-B:GLU:543:CD:9880, H-A:GLY:454:N:4050, V-A:GLY:453:CA:4044, H-A:TYR:484:OH:4348, V-B:GLU:543:CG:9879, H-A:ARG:545:NE:4924, V-A:GLU:543:CD:4908, V-A:ARG:545:CZ:4926, V-A:LEU:475:CD2:4259, V-A:HIS:456:CE1:4070, V-B:ALA:541:CB:9864, V-A:GLY:454:CA:4049, V-B:TYR:539:C:9839, H-B:GLU:543:OE1:9881, V-B:PRO:540:CA:9855, V-B:PRO:540:CB:9857, V-B:PRO:540:N:9856, V-B:TYR:539:CE2:9848, V-B:TYR:539:CD2:9846, V-B:TYR:539:CG:9844, V-A:TYR:484:CE2:4346, V-A:GLU:543:C:4902, V-B:GLU:543:C:9874, V-B:GLU:543:CA:9876, V-B:GLU:543:CB:9878, V-A:SER:385:CB:3409, V-A:GLU:543:CB:4906, V-B:HIS:456:CD2:9039, V-B:HIS:456:CE1:9041, V-B:GLY:544:C:9884, V-A:ARG:545:CG:4922, V-B:LYS:547:CE:9922, V-A:ARG:545:CD:4923, V-A:SER:385:C:3405, V-A:SER:385:CA:3407"]

$$$$
