1a_Grossjean_2025
     RDKit          3D

 26 27  0  0  0  0  0  0  0  0999 V2000
  126.5210  124.3160   54.6620 C   0  0  0  0  0  0  0  0  0  0  0  0
  127.4520  123.1080   54.5150 C   0  0  0  0  0  0  0  0  0  0  0  0
  127.3600  122.2950   55.6780 O   0  0  0  0  0  0  0  0  0  0  0  0
  126.2800  122.3670   56.5000 C   0  0  0  0  0  0  0  0  0  0  0  0
  125.1320  122.0930   56.1380 O   0  0  0  0  0  0  0  0  0  0  0  0
  126.6200  122.8280   57.8880 C   0  0  0  0  0  0  0  0  0  0  0  0
  127.8640  122.4880   58.4360 C   0  0  0  0  0  0  0  0  0  0  0  0
  128.2070  122.8970   59.7210 C   0  0  0  0  0  0  0  0  0  0  0  0
  127.3150  123.6500   60.4860 C   0  0  0  0  0  0  0  0  0  0  0  0
  127.7640  124.0060   61.7730 N   0  0  0  0  0  0  0  0  0  0  0  0
  128.9380  124.5460   62.1640 C   0  0  0  0  0  0  0  0  0  0  0  0
  129.8740  124.8400   61.4190 O   0  0  0  0  0  0  0  0  0  0  0  0
  129.0750  124.7980   63.6670 C   0  0  0  0  0  0  0  0  0  0  0  0
  129.8100  123.3800   64.5350 S   0  0  0  0  0  0  0  0  0  0  0  0
  130.7500  122.4520   63.3430 C   0  0  0  0  0  0  0  0  0  0  0  0
  130.0120  121.5590   62.6380 N   0  0  0  0  0  0  0  0  0  0  0  0
  130.6290  120.7950   61.7070 C   0  0  0  0  0  0  0  0  0  0  0  0
  129.7420  119.8090   60.9690 C   0  0  0  0  0  0  0  0  0  0  0  0
  131.9910  120.8960   61.4330 C   0  0  0  0  0  0  0  0  0  0  0  0
  132.7580  121.8290   62.1390 C   0  0  0  0  0  0  0  0  0  0  0  0
  134.2470  121.9340   61.8120 C   0  0  0  0  0  0  0  0  0  0  0  0
  132.1340  122.6410   63.1150 C   0  0  0  0  0  0  0  0  0  0  0  0
  132.9070  123.6590   63.8320 C   0  0  0  0  0  0  0  0  0  0  0  0
  133.5200  124.4610   64.3970 N   0  0  0  0  0  0  0  0  0  0  0  0
  126.0700  124.0010   59.9430 C   0  0  0  0  0  0  0  0  0  0  0  0
  125.7280  123.5910   58.6570 C   0  0  0  0  0  0  0  0  0  0  0  0
  1  2  1  0
  2  3  1  0
  3  4  1  0
  4  5  2  0
  4  6  1  0
  6  7  2  0
  7  8  1  0
  8  9  2  0
  9 10  1  0
 10 11  1  0
 11 12  2  0
 11 13  1  0
 13 14  1  0
 14 15  1  0
 15 16  2  0
 16 17  1  0
 17 18  1  0
 17 19  2  0
 19 20  1  0
 20 21  1  0
 20 22  2  0
 22 23  1  0
 23 24  3  0
  9 25  1  0
 25 26  2  0
 26  6  1  0
 22 15  1  0
M  END
>  <Binding energies>  (1) 
[-7.75]

>  <Ligand effiencies>  (1) 
[-0.28703703703703703]

>  <Interactions>  (1) 
["V-B:GLU:543:CB:9878, V-B:GLU:543:CD:9880, V-B:ILE:538:CB:9834, V-B:ALA:541:CB:9864, V-B:TYR:539:C:9839, V-B:PRO:540:CA:9855, V-A:PRO:482:CB:4326, V-B:PRO:540:CB:9857, V-B:PRO:540:CD:9859, V-B:GLU:543:CG:9879, H-B:TYR:539:N:9842, V-B:PRO:540:N:9856, V-B:TYR:539:CD2:9846, V-A:LEU:475:CD1:4258, V-A:PRO:482:CG:4327, V-B:ILE:538:CG2:9835, V-B:TYR:539:CE2:9848, V-B:ILE:538:CA:9832, V-B:TYR:539:CE1:9847, V-B:TYR:539:CZ:9849, V-A:ILE:369:CD1:3239, V-B:TYR:539:CD1:9845, V-A:GLY:454:CA:4049, H-A:GLY:454:N:4050, H-A:TYR:484:OH:4348, H-B:GLU:543:OE1:9881, H-B:GLU:543:OE2:9882"]

$$$$
1aa_Ghoteimi_2023
     RDKit          3D

 40 43  0  0  0  0  0  0  0  0999 V2000
  125.8260  123.9010   55.5540 C   0  0  0  0  0  0  0  0  0  0  0  0
  125.1620  123.0340   56.6280 C   0  0  0  0  0  0  0  0  0  0  0  0
  125.8810  123.1580   57.8490 O   0  0  0  0  0  0  0  0  0  0  0  0
  127.1180  122.6160   57.9910 C   0  0  0  0  0  0  0  0  0  0  0  0
  127.7010  122.0040   57.0910 O   0  0  0  0  0  0  0  0  0  0  0  0
  127.7080  122.8340   59.3550 C   0  0  0  0  0  0  0  0  0  0  0  0
  128.6350  121.9410   59.9140 C   0  0  0  0  0  0  0  0  0  0  0  0
  129.1670  122.1700   61.1810 C   0  0  0  0  0  0  0  0  0  0  0  0
  128.7810  123.3020   61.9120 C   0  0  0  0  0  0  0  0  0  0  0  0
  129.2490  123.6350   63.1970 N   0  0  0  0  0  0  0  0  0  0  0  0
  129.8570  122.8710   64.1330 C   0  0  0  0  0  0  0  0  0  0  0  0
  130.1250  121.6760   64.0010 O   0  0  0  0  0  0  0  0  0  0  0  0
  130.2430  123.5520   65.4560 C   0  0  0  0  0  0  0  0  0  0  0  0
  130.2580  124.9770   65.3010 O   0  0  0  0  0  0  0  0  0  0  0  0
  129.4310  125.7760   66.0780 C   0  0  0  0  0  0  0  0  0  0  0  0
  129.5120  125.6560   67.4320 N   0  0  0  0  0  0  0  0  0  0  0  0
  128.7090  126.4110   68.2270 C   0  0  0  0  0  0  0  0  0  0  0  0
  128.8610  126.2210   69.7090 C   0  0  0  0  0  0  0  0  0  0  0  0
  129.4130  125.0430   70.2330 C   0  0  0  0  0  0  0  0  0  0  0  0
  129.5530  124.8640   71.6060 C   0  0  0  0  0  0  0  0  0  0  0  0
  129.1480  125.8550   72.4970 C   0  0  0  0  0  0  0  0  0  0  0  0
  129.3250  125.5890   73.8410 O   0  0  0  0  0  0  0  0  0  0  0  0
  130.6430  125.3980   74.3440 C   0  0  0  0  0  0  0  0  0  0  0  0
  128.5990  127.0400   71.9890 C   0  0  0  0  0  0  0  0  0  0  0  0
  128.4610  127.2170   70.6150 C   0  0  0  0  0  0  0  0  0  0  0  0
  127.8100  127.3280   67.6670 C   0  0  0  0  0  0  0  0  0  0  0  0
  127.7150  127.4790   66.2770 C   0  0  0  0  0  0  0  0  0  0  0  0
  126.7450  128.4810   65.7430 C   0  0  0  0  0  0  0  0  0  0  0  0
  127.1270  129.3510   64.7170 C   0  0  0  0  0  0  0  0  0  0  0  0
  126.2260  130.2810   64.2070 C   0  0  0  0  0  0  0  0  0  0  0  0
  124.9260  130.3580   64.7070 C   0  0  0  0  0  0  0  0  0  0  0  0
  124.1020  131.3110   64.1410 O   0  0  0  0  0  0  0  0  0  0  0  0
  123.7560  131.2020   62.7650 C   0  0  0  0  0  0  0  0  0  0  0  0
  124.5370  129.4820   65.7310 C   0  0  0  0  0  0  0  0  0  0  0  0
  125.4400  128.5520   66.2400 C   0  0  0  0  0  0  0  0  0  0  0  0
  128.5430  126.6730   65.4610 C   0  0  0  0  0  0  0  0  0  0  0  0
  128.4830  126.7290   64.0000 C   0  0  0  0  0  0  0  0  0  0  0  0
  128.4360  126.7720   62.8440 N   0  0  0  0  0  0  0  0  0  0  0  0
  127.8570  124.1910   61.3590 C   0  0  0  0  0  0  0  0  0  0  0  0
  127.3270  123.9610   60.0940 C   0  0  0  0  0  0  0  0  0  0  0  0
  1  2  1  0
  2  3  1  0
  3  4  1  0
  4  5  2  0
  4  6  1  0
  6  7  2  0
  7  8  1  0
  8  9  2  0
  9 10  1  0
 10 11  1  0
 11 12  2  0
 11 13  1  0
 13 14  1  0
 14 15  1  0
 15 16  2  0
 16 17  1  0
 17 18  1  0
 18 19  2  0
 19 20  1  0
 20 21  2  0
 21 22  1  0
 22 23  1  0
 21 24  1  0
 24 25  2  0
 17 26  2  0
 26 27  1  0
 27 28  1  0
 28 29  2  0
 29 30  1  0
 30 31  2  0
 31 32  1  0
 32 33  1  0
 31 34  1  0
 34 35  2  0
 27 36  2  0
 36 37  1  0
 37 38  3  0
  9 39  1  0
 39 40  2  0
 40  6  1  0
 36 15  1  0
 25 18  1  0
 35 28  1  0
M  END
>  <Binding energies>  (2) 
[-9.3]

>  <Ligand effiencies>  (2) 
[-0.22682926829268293]

>  <Interactions>  (2) 
["H-B:LYS:547:NZ:9923, V-B:GLU:543:CB:9878, V-B:HIS:456:CE1:9040, V-A:HIS:456:CD2:4068, V-B:GLU:543:CD:9880, V-B:ILE:369:CD1:8210, V-B:ALA:541:CB:9864, V-B:TYR:539:C:9839, V-B:PRO:540:CA:9855, V-B:PRO:540:CB:9857, V-B:PRO:540:CD:9859, V-B:GLU:543:CG:9879, V-A:TYR:484:CE1:4345, H-B:TYR:539:N:9842, V-B:PRO:540:N:9856, V-B:TYR:539:CD2:9846, V-B:LEU:363:CD1:8160, V-B:ILE:538:CG2:9835, V-A:TYR:484:CZ:4347, V-B:TYR:539:CE2:9848, V-B:ARG:545:CG:9894, H-A:TYR:484:OH:4348, V-A:HIS:456:CE1:4069, H-B:TYR:484:OH:9319, V-B:ARG:545:CZ:9898, H-B:GLY:454:N:9021, V-B:GLY:454:CA:9020, V-B:ARG:545:CD:9895"]

$$$$
1b_Grossjean_2025
     RDKit          3D

 25 26  0  0  0  0  0  0  0  0999 V2000
  132.2960  132.3050   56.1720 C   0  0  0  0  0  0  0  0  0  0  0  0
  130.8990  132.5630   56.1230 O   0  0  0  0  0  0  0  0  0  0  0  0
  130.2020  132.4140   54.9680 C   0  0  0  0  0  0  0  0  0  0  0  0
  130.0970  133.3030   54.1170 O   0  0  0  0  0  0  0  0  0  0  0  0
  129.5750  131.0570   54.8230 C   0  0  0  0  0  0  0  0  0  0  0  0
  128.9120  130.6660   53.6500 C   0  0  0  0  0  0  0  0  0  0  0  0
  128.3420  129.4010   53.5490 C   0  0  0  0  0  0  0  0  0  0  0  0
  128.4200  128.5020   54.6120 C   0  0  0  0  0  0  0  0  0  0  0  0
  127.8070  127.2520   54.3980 N   0  0  0  0  0  0  0  0  0  0  0  0
  128.3400  126.0110   54.3890 C   0  0  0  0  0  0  0  0  0  0  0  0
  129.5240  125.7400   54.5830 O   0  0  0  0  0  0  0  0  0  0  0  0
  127.3500  124.8750   54.1230 C   0  0  0  0  0  0  0  0  0  0  0  0
  127.8600  123.3210   54.9180 S   0  0  0  0  0  0  0  0  0  0  0  0
  127.1900  123.3250   56.5670 C   0  0  0  0  0  0  0  0  0  0  0  0
  128.0790  122.9420   57.5180 N   0  0  0  0  0  0  0  0  0  0  0  0
  127.6750  122.9090   58.8090 C   0  0  0  0  0  0  0  0  0  0  0  0
  128.7260  122.4860   59.8190 C   0  0  0  0  0  0  0  0  0  0  0  0
  126.3800  123.2430   59.2010 C   0  0  0  0  0  0  0  0  0  0  0  0
  125.4510  123.6180   58.2250 C   0  0  0  0  0  0  0  0  0  0  0  0
  124.0330  123.9630   58.6760 C   0  0  0  0  0  0  0  0  0  0  0  0
  125.8500  123.6590   56.8700 C   0  0  0  0  0  0  0  0  0  0  0  0
  124.8820  124.0050   55.8260 C   0  0  0  0  0  0  0  0  0  0  0  0
  124.1150  124.2800   55.0040 N   0  0  0  0  0  0  0  0  0  0  0  0
  129.0810  128.8840   55.7880 C   0  0  0  0  0  0  0  0  0  0  0  0
  129.6520  130.1500   55.8880 C   0  0  0  0  0  0  0  0  0  0  0  0
  1  2  1  0
  2  3  1  0
  3  4  2  0
  3  5  1  0
  5  6  2  0
  6  7  1  0
  7  8  2  0
  8  9  1  0
  9 10  1  0
 10 11  2  0
 10 12  1  0
 12 13  1  0
 13 14  1  0
 14 15  2  0
 15 16  1  0
 16 17  1  0
 16 18  2  0
 18 19  1  0
 19 20  1  0
 19 21  2  0
 21 22  1  0
 22 23  3  0
  8 24  1  0
 24 25  2  0
 25  5  1  0
 21 14  1  0
M  END
>  <Binding energies>  (3) 
[-7.97]

>  <Ligand effiencies>  (3) 
[-0.30653846153846154]

>  <Interactions>  (3) 
["H-A:TYR:539:N:4870, V-A:PRO:540:CD:4887, V-A:TYR:539:CE1:4875, V-A:PRO:540:CB:4885, V-A:PRO:540:N:4884, V-A:LEU:363:CD1:3189, V-B:PRO:540:CA:9855, V-B:PRO:540:CB:9857, V-B:PRO:540:N:9856, V-B:TYR:539:CD2:9846, V-B:LEU:363:CD1:8160, V-B:ILE:538:CG2:9835, V-B:TYR:539:CE2:9848, V-A:TYR:539:CD1:4873, V-A:ILE:538:CA:4860, V-B:TYR:531:CE2:9765, V-B:MET:535:CG:9805, H-A:TYR:531:OH:4795, H-B:TYR:539:OH:9850, V-A:MET:535:CE:4835, H-B:TYR:531:OH:9767, V-B:MET:535:CE:9807, H-B:MET:535:SD:9806, H-A:ILE:538:N:4861"]

$$$$
1c_Grossjean_2025
     RDKit          3D

 23 24  0  0  0  0  0  0  0  0999 V2000
  127.3120  126.8850   73.4680 C   0  0  0  0  0  0  0  0  0  0  0  0
  128.2650  125.8660   73.1850 O   0  0  0  0  0  0  0  0  0  0  0  0
  128.6610  125.6590   71.8780 C   0  0  0  0  0  0  0  0  0  0  0  0
  129.5190  124.5840   71.6500 C   0  0  0  0  0  0  0  0  0  0  0  0
  129.9730  124.2940   70.3670 C   0  0  0  0  0  0  0  0  0  0  0  0
  129.5620  125.0840   69.2830 C   0  0  0  0  0  0  0  0  0  0  0  0
  129.9680  124.8860   67.9490 N   0  0  0  0  0  0  0  0  0  0  0  0
  129.4510  125.3990   66.8110 C   0  0  0  0  0  0  0  0  0  0  0  0
  128.5010  126.1790   66.7460 O   0  0  0  0  0  0  0  0  0  0  0  0
  130.1390  124.9520   65.5190 C   0  0  0  0  0  0  0  0  0  0  0  0
  130.1580  123.1430   65.3530 S   0  0  0  0  0  0  0  0  0  0  0  0
  130.9870  122.7260   63.8320 C   0  0  0  0  0  0  0  0  0  0  0  0
  130.2580  121.9160   63.0240 N   0  0  0  0  0  0  0  0  0  0  0  0
  130.7860  121.5310   61.8390 C   0  0  0  0  0  0  0  0  0  0  0  0
  129.9080  120.6340   60.9860 C   0  0  0  0  0  0  0  0  0  0  0  0
  132.0540  121.9250   61.4180 C   0  0  0  0  0  0  0  0  0  0  0  0
  132.8250  122.7400   62.2540 C   0  0  0  0  0  0  0  0  0  0  0  0
  134.2190  123.1440   61.7780 C   0  0  0  0  0  0  0  0  0  0  0  0
  132.2940  123.1530   63.4980 C   0  0  0  0  0  0  0  0  0  0  0  0
  133.1080  123.9610   64.4100 C   0  0  0  0  0  0  0  0  0  0  0  0
  133.7500  124.6000   65.1290 N   0  0  0  0  0  0  0  0  0  0  0  0
  128.7120  126.1680   69.5080 C   0  0  0  0  0  0  0  0  0  0  0  0
  128.2610  126.4550   70.7930 C   0  0  0  0  0  0  0  0  0  0  0  0
  1  2  1  0
  2  3  1  0
  3  4  2  0
  4  5  1  0
  5  6  2  0
  6  7  1  0
  7  8  1  0
  8  9  2  0
  8 10  1  0
 10 11  1  0
 11 12  1  0
 12 13  2  0
 13 14  1  0
 14 15  1  0
 14 16  2  0
 16 17  1  0
 17 18  1  0
 17 19  2  0
 19 20  1  0
 20 21  3  0
  6 22  1  0
 22 23  2  0
 23  3  1  0
 19 12  1  0
M  END
>  <Binding energies>  (4) 
[-7.49]

>  <Ligand effiencies>  (4) 
[-0.3120833333333333]

>  <Interactions>  (4) 
["H-B:LYS:547:NZ:9923, V-B:GLU:543:CB:9878, V-B:HIS:456:CE1:9040, V-B:GLY:544:C:9884, V-A:HIS:456:CD2:4068, V-B:ALA:541:CB:9864, V-A:TYR:484:CE1:4345, V-B:TYR:539:CD2:9846, V-A:LEU:475:CD1:4258, V-A:TYR:484:CZ:4347, V-B:TYR:539:CE2:9848, V-B:GLU:543:C:9874, V-A:ILE:369:CD1:3239, V-A:TYR:484:CD1:4343, V-A:HIS:456:CG:4066, H-B:GLU:543:O:9875, V-A:TYR:484:CE2:4346, V-A:GLY:454:CA:4049, H-A:GLY:454:N:4050, H-A:TYR:484:OH:4348, V-A:HIS:456:CE1:4069, H-A:HIS:456:ND1:4067"]

$$$$
1d_Grossjean_2025
     RDKit          3D

 21 22  0  0  0  0  0  0  0  0999 V2000
  129.2080  127.5640   66.9950 C   0  0  0  0  0  0  0  0  0  0  0  0
  128.0330  128.2520   66.3280 C   0  0  0  0  0  0  0  0  0  0  0  0
  126.8010  128.3760   66.9670 C   0  0  0  0  0  0  0  0  0  0  0  0
  125.7550  129.0280   66.3070 C   0  0  0  0  0  0  0  0  0  0  0  0
  124.4190  129.1660   67.0350 C   0  0  0  0  0  0  0  0  0  0  0  0
  125.9690  129.5380   65.0060 C   0  0  0  0  0  0  0  0  0  0  0  0
  124.9040  130.2670   64.3150 C   0  0  0  0  0  0  0  0  0  0  0  0
  124.0600  130.8430   63.7720 N   0  0  0  0  0  0  0  0  0  0  0  0
  127.2450  129.3450   64.4240 C   0  0  0  0  0  0  0  0  0  0  0  0
  127.6880  129.9180   62.8000 S   0  0  0  0  0  0  0  0  0  0  0  0
  128.3730  131.5930   62.9830 C   0  0  0  0  0  0  0  0  0  0  0  0
  129.3890  131.9230   61.8880 C   0  0  0  0  0  0  0  0  0  0  0  0
  129.2510  132.9550   61.2310 O   0  0  0  0  0  0  0  0  0  0  0  0
  130.3980  131.0360   61.7490 N   0  0  0  0  0  0  0  0  0  0  0  0
  131.4730  131.0280   60.8410 C   0  0  0  0  0  0  0  0  0  0  0  0
  132.7440  131.1660   61.4060 C   0  0  0  0  0  0  0  0  0  0  0  0
  133.8770  131.1650   60.5980 C   0  0  0  0  0  0  0  0  0  0  0  0
  133.7410  131.0190   59.2200 C   0  0  0  0  0  0  0  0  0  0  0  0
  132.4820  130.8720   58.6440 C   0  0  0  0  0  0  0  0  0  0  0  0
  131.3470  130.8730   59.4500 C   0  0  0  0  0  0  0  0  0  0  0  0
  128.2600  128.7290   65.0820 N   0  0  0  0  0  0  0  0  0  0  0  0
  1  2  1  0
  2  3  2  0
  3  4  1  0
  4  5  1  0
  4  6  2  0
  6  7  1  0
  7  8  3  0
  6  9  1  0
  9 10  1  0
 10 11  1  0
 11 12  1  0
 12 13  2  0
 12 14  1  0
 14 15  1  0
 15 16  2  0
 16 17  1  0
 17 18  2  0
 18 19  1  0
 19 20  2  0
  9 21  2  0
 21  2  1  0
 20 15  1  0
M  END
>  <Binding energies>  (5) 
[-7.19]

>  <Ligand effiencies>  (5) 
[-0.32681818181818184]

>  <Interactions>  (5) 
["V-B:HIS:456:CE1:9040, H-A:GLU:543:OE2:4910, V-A:GLU:543:CD:4908, H-A:GLU:543:OE1:4909, V-A:PRO:540:CB:4885, V-A:PRO:540:CA:4883, V-A:ALA:541:CB:4892, V-A:ASN:362:CB:3176, V-A:LEU:363:CB:3187, V-A:ASP:366:CG:3213, V-A:LEU:363:CA:3185, V-B:ARG:545:CG:9894, H-A:ALA:541:N:4891, V-B:ARG:545:CZ:9898, H-B:GLY:454:N:9021, V-B:ARG:545:CD:9895, V-A:ASN:362:C:3172, V-A:ASN:362:CA:3174"]

$$$$
1e_Grossjean_2025
     RDKit          3D

 22 23  0  0  0  0  0  0  0  0999 V2000
  130.5060  132.8910   53.8890 C   0  0  0  0  0  0  0  0  0  0  0  0
  130.8520  132.4600   55.3020 C   0  0  0  0  0  0  0  0  0  0  0  0
  131.9800  131.6810   55.5740 C   0  0  0  0  0  0  0  0  0  0  0  0
  132.2330  131.3220   56.8980 C   0  0  0  0  0  0  0  0  0  0  0  0
  131.3640  131.7420   57.9070 C   0  0  0  0  0  0  0  0  0  0  0  0
  130.2550  132.5260   57.5660 C   0  0  0  0  0  0  0  0  0  0  0  0
  129.4100  132.9090   58.6220 N   0  0  0  0  0  0  0  0  0  0  0  0
  128.1820  132.4380   58.9300 C   0  0  0  0  0  0  0  0  0  0  0  0
  127.5800  131.5680   58.2980 O   0  0  0  0  0  0  0  0  0  0  0  0
  127.5080  133.0790   60.1450 C   0  0  0  0  0  0  0  0  0  0  0  0
  128.1430  132.4040   61.7090 S   0  0  0  0  0  0  0  0  0  0  0  0
  129.5770  131.4060   61.3600 C   0  0  0  0  0  0  0  0  0  0  0  0
  130.7500  132.0320   61.6350 N   0  0  0  0  0  0  0  0  0  0  0  0
  131.9100  131.3740   61.4070 C   0  0  0  0  0  0  0  0  0  0  0  0
  133.1780  132.1330   61.7450 C   0  0  0  0  0  0  0  0  0  0  0  0
  131.9510  130.0810   60.8900 C   0  0  0  0  0  0  0  0  0  0  0  0
  130.7500  129.4350   60.5800 C   0  0  0  0  0  0  0  0  0  0  0  0
  130.8230  128.0240   59.9960 C   0  0  0  0  0  0  0  0  0  0  0  0
  129.5260  130.1040   60.8060 C   0  0  0  0  0  0  0  0  0  0  0  0
  128.2620  129.4650   60.4320 C   0  0  0  0  0  0  0  0  0  0  0  0
  127.2650  128.9570   60.1350 N   0  0  0  0  0  0  0  0  0  0  0  0
  129.9990  132.8780   56.2710 N   0  0  0  0  0  0  0  0  0  0  0  0
  1  2  1  0
  2  3  2  0
  3  4  1  0
  4  5  2  0
  5  6  1  0
  6  7  1  0
  7  8  1  0
  8  9  2  0
  8 10  1  0
 10 11  1  0
 11 12  1  0
 12 13  2  0
 13 14  1  0
 14 15  1  0
 14 16  2  0
 16 17  1  0
 17 18  1  0
 17 19  2  0
 19 20  1  0
 20 21  3  0
  6 22  2  0
 22  2  1  0
 19 12  1  0
M  END
>  <Binding energies>  (6) 
[-6.88]

>  <Ligand effiencies>  (6) 
[-0.2991304347826087]

>  <Interactions>  (6) 
["V-A:ILE:538:CD1:4865, V-A:TYR:539:CD2:4874, V-A:TYR:539:C:4867, V-A:TYR:539:CZ:4877, H-A:TYR:539:N:4870, V-A:PRO:540:CD:4887, V-A:TYR:531:CE2:4793, V-A:PRO:540:CB:4885, V-A:PRO:540:CA:4883, V-A:PRO:540:N:4884, V-A:LEU:363:CD1:3189, V-A:TYR:539:CE2:4876, V-A:TYR:539:CD1:4873, V-A:PRO:540:C:4881, V-A:ASN:362:CB:3176, V-A:ILE:538:C:4858, V-A:ILE:538:CA:4860, V-A:VAL:537:C:4850, H-A:TYR:539:O:4868, H-A:ALA:541:N:4891, H-A:TYR:539:OH:4878, V-A:ALA:541:C:4888"]

$$$$
1f_Grossjean_2025
     RDKit          3D

 21 22  0  0  0  0  0  0  0  0999 V2000
  130.3160  131.4390   59.5760 C   0  0  0  0  0  0  0  0  0  0  0  0
  128.9720  132.0820   59.8640 C   0  0  0  0  0  0  0  0  0  0  0  0
  128.8660  133.2440   60.6240 C   0  0  0  0  0  0  0  0  0  0  0  0
  127.5990  133.7840   60.8660 C   0  0  0  0  0  0  0  0  0  0  0  0
  127.5070  135.0480   61.7190 C   0  0  0  0  0  0  0  0  0  0  0  0
  126.4590  133.1440   60.3270 C   0  0  0  0  0  0  0  0  0  0  0  0
  125.1200  133.6630   60.6170 C   0  0  0  0  0  0  0  0  0  0  0  0
  124.0630  134.0750   60.8470 N   0  0  0  0  0  0  0  0  0  0  0  0
  126.6630  131.9850   59.5430 C   0  0  0  0  0  0  0  0  0  0  0  0
  125.3520  131.0470   58.7840 S   0  0  0  0  0  0  0  0  0  0  0  0
  126.1000  129.7800   57.7040 C   0  0  0  0  0  0  0  0  0  0  0  0
  126.8100  130.3300   56.4580 C   0  0  0  0  0  0  0  0  0  0  0  0
  126.2550  130.2980   55.3590 O   0  0  0  0  0  0  0  0  0  0  0  0
  128.0540  130.8030   56.6840 N   0  0  0  0  0  0  0  0  0  0  0  0
  128.9730  131.3770   55.7860 C   0  0  0  0  0  0  0  0  0  0  0  0
  129.0860  131.0670   54.4170 C   0  0  0  0  0  0  0  0  0  0  0  0
  130.0450  131.7200   53.6380 C   0  0  0  0  0  0  0  0  0  0  0  0
  130.8660  132.6690   54.2440 C   0  0  0  0  0  0  0  0  0  0  0  0
  130.7750  132.9900   55.5590 N   0  0  0  0  0  0  0  0  0  0  0  0
  129.8380  132.3480   56.3040 C   0  0  0  0  0  0  0  0  0  0  0  0
  127.8940  131.4550   59.3350 N   0  0  0  0  0  0  0  0  0  0  0  0
  1  2  1  0
  2  3  2  0
  3  4  1  0
  4  5  1  0
  4  6  2  0
  6  7  1  0
  7  8  3  0
  6  9  1  0
  9 10  1  0
 10 11  1  0
 11 12  1  0
 12 13  2  0
 12 14  1  0
 14 15  1  0
 15 16  2  0
 16 17  1  0
 17 18  2  0
 18 19  1  0
 19 20  2  0
  9 21  2  0
 21  2  1  0
 20 15  1  0
M  END
>  <Binding energies>  (7) 
[-6.72]

>  <Ligand effiencies>  (7) 
[-0.3054545454545454]

>  <Interactions>  (7) 
["V-A:ILE:538:CD1:4865, V-A:TYR:539:CD2:4874, V-A:TYR:539:C:4867, V-A:TYR:539:CZ:4877, H-A:TYR:539:N:4870, V-A:TYR:539:CE1:4875, V-B:PRO:482:CG:9298, V-A:PRO:540:CA:4883, V-A:TYR:539:CE2:4876, V-B:LEU:475:CD1:9229, V-A:ALA:541:CB:4892, V-B:PRO:482:CB:9297, V-A:TYR:539:CD1:4873, V-A:PRO:540:C:4881, V-A:ILE:538:C:4858, V-A:ILE:538:CA:4860, H-B:TYR:531:OH:9767, H-A:TYR:539:OH:4878"]

$$$$
1g_Grossjean_2025
     RDKit          3D

 22 23  0  0  0  0  0  0  0  0999 V2000
  128.2990  132.9120   59.7320 C   0  0  0  0  0  0  0  0  0  0  0  0
  128.4510  132.0830   58.4700 C   0  0  0  0  0  0  0  0  0  0  0  0
  127.9570  130.7830   58.3880 C   0  0  0  0  0  0  0  0  0  0  0  0
  128.1410  130.0600   57.2050 C   0  0  0  0  0  0  0  0  0  0  0  0
  127.6040  128.6300   57.1430 C   0  0  0  0  0  0  0  0  0  0  0  0
  128.8140  130.6670   56.1210 C   0  0  0  0  0  0  0  0  0  0  0  0
  129.0640  129.9110   54.8900 C   0  0  0  0  0  0  0  0  0  0  0  0
  129.2610  129.3120   53.9200 N   0  0  0  0  0  0  0  0  0  0  0  0
  129.2590  132.0000   56.2840 C   0  0  0  0  0  0  0  0  0  0  0  0
  130.1130  132.9180   55.0220 S   0  0  0  0  0  0  0  0  0  0  0  0
  131.6440  132.0160   54.6410 C   0  0  0  0  0  0  0  0  0  0  0  0
  132.5080  131.8030   55.8840 C   0  0  0  0  0  0  0  0  0  0  0  0
  132.9380  132.7730   56.5110 O   0  0  0  0  0  0  0  0  0  0  0  0
  132.7580  130.5260   56.2240 N   0  0  0  0  0  0  0  0  0  0  0  0
  133.5080  130.0930   57.4030 C   0  0  0  0  0  0  0  0  0  0  0  0
  132.8880  130.5150   58.7320 C   0  0  0  0  0  0  0  0  0  0  0  0
  131.5120  130.3730   58.9360 C   0  0  0  0  0  0  0  0  0  0  0  0
  130.9460  130.7570   60.1490 C   0  0  0  0  0  0  0  0  0  0  0  0
  131.7580  131.2760   61.1550 C   0  0  0  0  0  0  0  0  0  0  0  0
  133.1300  131.4150   60.9600 C   0  0  0  0  0  0  0  0  0  0  0  0
  133.6970  131.0330   59.7470 C   0  0  0  0  0  0  0  0  0  0  0  0
  129.0960  132.6860   57.4440 N   0  0  0  0  0  0  0  0  0  0  0  0
  1  2  1  0
  2  3  2  0
  3  4  1  0
  4  5  1  0
  4  6  2  0
  6  7  1  0
  7  8  3  0
  6  9  1  0
  9 10  1  0
 10 11  1  0
 11 12  1  0
 12 13  2  0
 12 14  1  0
 14 15  1  0
 15 16  1  0
 16 17  2  0
 17 18  1  0
 18 19  2  0
 19 20  1  0
 20 21  2  0
  9 22  2  0
 22  2  1  0
 21 16  1  0
M  END
>  <Binding energies>  (8) 
[-6.82]

>  <Ligand effiencies>  (8) 
[-0.2965217391304348]

>  <Interactions>  (8) 
["V-A:ILE:538:CD1:4865, V-A:TYR:539:CD2:4874, V-A:TYR:539:C:4867, V-A:TYR:539:CZ:4877, H-A:TYR:539:N:4870, V-A:TYR:539:CE1:4875, V-A:TYR:531:CE2:4793, V-A:PRO:540:CB:4885, V-A:PRO:540:CA:4883, V-A:LEU:363:CD1:3189, V-A:TYR:539:CE2:4876, V-A:ASP:366:CB:3212, V-A:TYR:531:CZ:4794, V-A:TYR:539:CD1:4873, V-A:ASN:362:CB:3176, V-A:ASP:366:CG:3213, V-A:LEU:363:CA:3185, V-A:ASN:362:C:3172, H-A:TYR:531:OH:4795"]

$$$$
1h_Grossjean_2025
     RDKit          3D

 28 29  0  0  0  0  0  0  0  0999 V2000
  132.6860  126.4950   75.7190 C   0  0  0  0  0  0  0  0  0  0  0  0
  131.5970  126.8690   74.8830 O   0  0  0  0  0  0  0  0  0  0  0  0
  131.1340  125.9780   73.9320 C   0  0  0  0  0  0  0  0  0  0  0  0
  131.6370  124.6780   73.7660 C   0  0  0  0  0  0  0  0  0  0  0  0
  131.1310  123.8370   72.7740 C   0  0  0  0  0  0  0  0  0  0  0  0
  131.6710  122.4180   72.6190 C   0  0  0  0  0  0  0  0  0  0  0  0
  131.0470  121.4430   73.5140 N   0  0  0  0  0  0  0  0  0  0  0  0
  129.8020  120.9520   73.3820 C   0  0  0  0  0  0  0  0  0  0  0  0
  129.0420  121.2550   72.4620 O   0  0  0  0  0  0  0  0  0  0  0  0
  129.3380  119.9720   74.4590 C   0  0  0  0  0  0  0  0  0  0  0  0
  128.3690  118.6010   73.7600 S   0  0  0  0  0  0  0  0  0  0  0  0
  126.6480  119.0740   73.7770 C   0  0  0  0  0  0  0  0  0  0  0  0
  126.0530  119.0910   74.9990 N   0  0  0  0  0  0  0  0  0  0  0  0
  124.7490  119.4460   75.0840 C   0  0  0  0  0  0  0  0  0  0  0  0
  124.1570  119.4450   76.4810 C   0  0  0  0  0  0  0  0  0  0  0  0
  123.9900  119.7920   73.9690 C   0  0  0  0  0  0  0  0  0  0  0  0
  124.5900  119.7760   72.7060 C   0  0  0  0  0  0  0  0  0  0  0  0
  123.7400  120.1620   71.4970 C   0  0  0  0  0  0  0  0  0  0  0  0
  125.9510  119.4100   72.5940 C   0  0  0  0  0  0  0  0  0  0  0  0
  126.6050  119.3820   71.2830 C   0  0  0  0  0  0  0  0  0  0  0  0
  127.1220  119.3590   70.2470 N   0  0  0  0  0  0  0  0  0  0  0  0
  130.0870  124.2810   71.9620 C   0  0  0  0  0  0  0  0  0  0  0  0
  129.5610  125.5740   72.1090 C   0  0  0  0  0  0  0  0  0  0  0  0
  128.5290  126.0810   71.3390 O   0  0  0  0  0  0  0  0  0  0  0  0
  128.6330  126.0430   69.9200 C   0  0  0  0  0  0  0  0  0  0  0  0
  130.1010  126.4170   73.0910 C   0  0  0  0  0  0  0  0  0  0  0  0
  129.5920  127.6830   73.2520 O   0  0  0  0  0  0  0  0  0  0  0  0
  129.8970  128.5680   72.1830 C   0  0  0  0  0  0  0  0  0  0  0  0
  1  2  1  0
  2  3  1  0
  3  4  2  0
  4  5  1  0
  5  6  1  0
  6  7  1  0
  7  8  1  0
  8  9  2  0
  8 10  1  0
 10 11  1  0
 11 12  1  0
 12 13  2  0
 13 14  1  0
 14 15  1  0
 14 16  2  0
 16 17  1  0
 17 18  1  0
 17 19  2  0
 19 20  1  0
 20 21  3  0
  5 22  2  0
 22 23  1  0
 23 24  1  0
 24 25  1  0
 23 26  2  0
 26 27  1  0
 27 28  1  0
 26  3  1  0
 19 12  1  0
M  END
>  <Binding energies>  (9) 
[-7.44]

>  <Ligand effiencies>  (9) 
[-0.25655172413793104]

>  <Interactions>  (9) 
["H-B:LYS:547:NZ:9923, V-B:LYS:547:CE:9922, V-A:HIS:456:CD2:4068, H-A:LYS:547:NZ:4951, V-A:LYS:547:CD:4949, V-B:LYS:547:CG:9920, V-A:VAL:458:CG2:4087, V-B:HIS:456:CD2:9039, V-A:HIS:456:CB:4065, V-B:GLY:544:CA:9886, V-A:TYR:484:CG:4342, V-A:HIS:456:CG:4066, V-A:TYR:484:CB:4341, V-A:TYR:484:CD2:4344, V-A:LYS:547:CE:4950, V-A:TYR:484:CE2:4346, V-A:ASP:473:CG:4240, V-A:ASP:473:CB:4239, H-A:SER:483:OG:4334, H-A:ASP:473:OD1:4241, H-A:ASP:473:OD2:4242, H-B:GLY:544:N:9887, V-B:VAL:542:CG1:9871, V-B:GLU:357:CD:8107, H-A:TYR:484:N:4340"]

$$$$
1i_Grossjean_2025
     RDKit          3D

 20 21  0  0  0  0  0  0  0  0999 V2000
  127.9200  130.5690   65.5580 C   0  0  0  0  0  0  0  0  0  0  0  0
  128.3000  129.1660   65.9930 C   0  0  0  0  0  0  0  0  0  0  0  0
  128.4550  128.1330   65.0710 C   0  0  0  0  0  0  0  0  0  0  0  0
  128.8160  126.8610   65.5300 C   0  0  0  0  0  0  0  0  0  0  0  0
  128.9960  125.7490   64.4980 C   0  0  0  0  0  0  0  0  0  0  0  0
  129.0080  126.6550   66.9160 C   0  0  0  0  0  0  0  0  0  0  0  0
  129.4350  125.3440   67.4120 C   0  0  0  0  0  0  0  0  0  0  0  0
  129.7740  124.3080   67.8010 N   0  0  0  0  0  0  0  0  0  0  0  0
  128.8050  127.7560   67.7810 C   0  0  0  0  0  0  0  0  0  0  0  0
  129.0010  127.6740   69.5470 S   0  0  0  0  0  0  0  0  0  0  0  0
  127.7430  126.5300   70.1890 C   0  0  0  0  0  0  0  0  0  0  0  0
  128.3120  125.5810   71.2460 C   0  0  0  0  0  0  0  0  0  0  0  0
  128.1190  125.8210   72.4380 O   0  0  0  0  0  0  0  0  0  0  0  0
  129.0000  124.5220   70.7670 N   0  0  0  0  0  0  0  0  0  0  0  0
  129.6200  123.5200   71.5000 C   0  0  0  0  0  0  0  0  0  0  0  0
  130.9210  123.6280   71.9880 C   0  0  0  0  0  0  0  0  0  0  0  0
  131.1550  122.4440   72.6490 C   0  0  0  0  0  0  0  0  0  0  0  0
  130.0520  121.6630   72.5620 O   0  0  0  0  0  0  0  0  0  0  0  0
  129.0860  122.3550   71.8300 N   0  0  0  0  0  0  0  0  0  0  0  0
  128.4740  128.9900   67.3240 N   0  0  0  0  0  0  0  0  0  0  0  0
  1  2  1  0
  2  3  2  0
  3  4  1  0
  4  5  1  0
  4  6  2  0
  6  7  1  0
  7  8  3  0
  6  9  1  0
  9 10  1  0
 10 11  1  0
 11 12  1  0
 12 13  2  0
 12 14  1  0
 14 15  1  0
 15 16  1  0
 16 17  2  0
 17 18  1  0
 18 19  1  0
  9 20  2  0
 20  2  1  0
 19 15  2  0
M  END
>  <Binding energies>  (10) 
[-7.06]

>  <Ligand effiencies>  (10) 
[-0.33619047619047615]

>  <Interactions>  (10) 
["H-B:LYS:547:NZ:9923, V-B:GLU:543:CB:9878, H-B:HIS:456:NE2:9041, V-B:HIS:456:CE1:9040, V-B:GLY:544:C:9884, V-A:HIS:456:CD2:4068, H-A:HIS:456:NE2:4070, V-A:GLU:543:CD:4908, V-B:GLU:543:CD:9880, V-B:GLU:543:CG:9879, V-A:TYR:484:CE1:4345, V-B:GLU:543:C:9874, V-A:HIS:456:CB:4065, V-B:GLY:544:CA:9886, V-A:TYR:484:CD1:4343, V-A:TYR:484:CG:4342, V-A:HIS:456:CG:4066, H-B:GLU:543:O:9875, V-A:TYR:484:CB:4341, V-A:TYR:484:CD2:4344, V-A:TYR:484:CE2:4346, H-A:TYR:484:OH:4348, V-A:HIS:456:CE1:4069, V-A:GLU:543:CB:4906, V-A:ASP:473:CB:4239, V-B:TYR:484:CZ:9318, V-B:TYR:484:CE1:9316, V-A:GLU:543:CG:4907"]

$$$$
1k_Grossjean_2025
     RDKit          3D

 25 25  0  0  0  0  0  0  0  0999 V2000
  126.4090  123.3620   60.5450 C   0  0  0  0  0  0  0  0  0  0  0  0
  127.3900  122.3730   60.2770 O   0  0  0  0  0  0  0  0  0  0  0  0
  127.8810  122.4090   58.9440 C   0  0  0  0  0  0  0  0  0  0  0  0
  126.7720  122.8980   58.0020 C   0  0  0  0  0  0  0  0  0  0  0  0
  126.7720  122.1060   56.8210 O   0  0  0  0  0  0  0  0  0  0  0  0
  126.2900  122.7930   55.6730 C   0  0  0  0  0  0  0  0  0  0  0  0
  127.4650  123.1110   54.7400 C   0  0  0  0  0  0  0  0  0  0  0  0
  127.5420  124.5160   54.5360 O   0  0  0  0  0  0  0  0  0  0  0  0
  128.0180  125.2330   55.6680 C   0  0  0  0  0  0  0  0  0  0  0  0
  127.2750  126.5780   55.7780 C   0  0  0  0  0  0  0  0  0  0  0  0
  127.7740  127.6090   54.8680 N   0  0  0  0  0  0  0  0  0  0  0  0
  129.0610  127.7730   54.5130 C   0  0  0  0  0  0  0  0  0  0  0  0
  129.9700  127.0490   54.9240 O   0  0  0  0  0  0  0  0  0  0  0  0
  129.3400  128.9390   53.5510 C   0  0  0  0  0  0  0  0  0  0  0  0
  128.2230  130.3770   53.7080 S   0  0  0  0  0  0  0  0  0  0  0  0
  127.8020  130.6080   55.4290 C   0  0  0  0  0  0  0  0  0  0  0  0
  126.7460  129.8840   55.8840 N   0  0  0  0  0  0  0  0  0  0  0  0
  126.3680  130.0200   57.1760 C   0  0  0  0  0  0  0  0  0  0  0  0
  125.1770  129.1860   57.6050 C   0  0  0  0  0  0  0  0  0  0  0  0
  127.0240  130.8680   58.0650 C   0  0  0  0  0  0  0  0  0  0  0  0
  128.1170  131.6140   57.6120 C   0  0  0  0  0  0  0  0  0  0  0  0
  128.8210  132.5380   58.6020 C   0  0  0  0  0  0  0  0  0  0  0  0
  128.5250  131.4900   56.2650 C   0  0  0  0  0  0  0  0  0  0  0  0
  129.6650  132.2620   55.7610 C   0  0  0  0  0  0  0  0  0  0  0  0
  130.5650  132.8720   55.3640 N   0  0  0  0  0  0  0  0  0  0  0  0
  1  2  1  0
  2  3  1  0
  3  4  1  0
  4  5  1  0
  5  6  1  0
  6  7  1  0
  7  8  1  0
  8  9  1  0
  9 10  1  0
 10 11  1  0
 11 12  1  0
 12 13  2  0
 12 14  1  0
 14 15  1  0
 15 16  1  0
 16 17  2  0
 17 18  1  0
 18 19  1  0
 18 20  2  0
 20 21  1  0
 21 22  1  0
 21 23  2  0
 23 24  1  0
 24 25  3  0
 23 16  1  0
M  END
>  <Binding energies>  (11) 
[-6.06]

>  <Ligand effiencies>  (11) 
[-0.23307692307692307]

>  <Interactions>  (11) 
["V-B:GLU:543:CD:9880, V-A:TYR:539:CD2:4874, V-A:TYR:539:C:4867, V-A:TYR:539:CZ:4877, H-A:TYR:539:N:4870, V-A:TYR:539:CE1:4875, V-A:PRO:540:CA:4883, V-A:PRO:540:N:4884, V-A:TYR:539:CE2:4876, V-B:ILE:538:CB:9834, V-B:TYR:539:C:9839, V-B:PRO:540:CA:9855, V-B:PRO:540:CB:9857, H-B:TYR:539:N:9842, V-B:PRO:540:N:9856, V-B:TYR:539:CD2:9846, V-B:ILE:538:CG2:9835, V-B:TYR:539:CE2:9848, V-A:TYR:531:CZ:4794, V-A:TYR:539:CD1:4873, V-B:ILE:538:CA:9832, V-B:TYR:539:CE1:9847, V-B:ASP:366:CG:8184, V-B:ASP:366:CB:8183, V-B:TYR:539:CZ:9849, V-B:TYR:539:CD1:9845, H-B:ALA:541:N:9863, H-A:TYR:531:OH:4795, V-A:MET:535:CE:4835, H-B:TYR:531:OH:9767, H-A:TYR:539:OH:4878, V-A:MET:535:CG:4833, H-B:MET:535:SD:9806"]

$$$$
1l_Grossjean_2025
     RDKit          3D

 17 17  0  0  0  0  0  0  0  0999 V2000
  132.4920  131.4310   61.5980 C   0  0  0  0  0  0  0  0  0  0  0  0
  131.2440  131.7960   61.0270 O   0  0  0  0  0  0  0  0  0  0  0  0
  130.2020  131.3590   61.8430 N   0  0  0  0  0  0  0  0  0  0  0  0
  129.1720  132.1910   62.0900 C   0  0  0  0  0  0  0  0  0  0  0  0
  128.9720  133.2350   61.4640 O   0  0  0  0  0  0  0  0  0  0  0  0
  128.2290  131.7440   63.2170 C   0  0  0  0  0  0  0  0  0  0  0  0
  127.4050  130.1390   62.9420 S   0  0  0  0  0  0  0  0  0  0  0  0
  126.7300  129.5880   64.5000 C   0  0  0  0  0  0  0  0  0  0  0  0
  127.5920  128.9260   65.3150 N   0  0  0  0  0  0  0  0  0  0  0  0
  127.1460  128.4780   66.5120 C   0  0  0  0  0  0  0  0  0  0  0  0
  128.1660  127.7500   67.3660 C   0  0  0  0  0  0  0  0  0  0  0  0
  125.8360  128.6700   66.9450 C   0  0  0  0  0  0  0  0  0  0  0  0
  124.9390  129.3510   66.1160 C   0  0  0  0  0  0  0  0  0  0  0  0
  123.5080  129.5500   66.6110 C   0  0  0  0  0  0  0  0  0  0  0  0
  125.3840  129.8250   64.8620 C   0  0  0  0  0  0  0  0  0  0  0  0
  124.4660  130.5430   63.9710 C   0  0  0  0  0  0  0  0  0  0  0  0
  123.7400  131.1080   63.2700 N   0  0  0  0  0  0  0  0  0  0  0  0
  1  2  1  0
  2  3  1  0
  3  4  1  0
  4  5  2  0
  4  6  1  0
  6  7  1  0
  7  8  1  0
  8  9  2  0
  9 10  1  0
 10 11  1  0
 10 12  2  0
 12 13  1  0
 13 14  1  0
 13 15  2  0
 15 16  1  0
 16 17  3  0
 15  8  1  0
M  END
>  <Binding energies>  (12) 
[-6.11]

>  <Ligand effiencies>  (12) 
[-0.33944444444444444]

>  <Interactions>  (12) 
["V-B:HIS:456:CE1:9040, V-A:GLU:543:CD:4908, H-A:GLU:543:OE1:4909, V-A:PRO:540:CB:4885, V-A:PRO:540:CA:4883, V-A:ALA:541:CB:4892, V-A:ASN:362:CB:3176, V-B:ARG:545:CG:9894, H-A:ALA:541:N:4891, V-A:ALA:541:CA:4890, V-B:ARG:545:CZ:9898, H-B:GLY:454:N:9021, V-B:GLY:454:CA:9020, V-B:ARG:545:CD:9895, V-B:ILE:455:C:9023"]

$$$$
1m_Grossjean_2025
     RDKit          3D

 20 20  0  0  0  0  0  0  0  0999 V2000
  131.5000  122.7900   72.6640 C   0  0  0  0  0  0  0  0  0  0  0  0
  130.1660  122.3160   72.5540 O   0  0  0  0  0  0  0  0  0  0  0  0
  129.3950  122.6730   71.5070 C   0  0  0  0  0  0  0  0  0  0  0  0
  128.2630  122.2410   71.2680 O   0  0  0  0  0  0  0  0  0  0  0  0
  130.0980  123.7210   70.6180 C   0  0  0  0  0  0  0  0  0  0  0  0
  129.2290  124.8600   70.2840 N   0  0  0  0  0  0  0  0  0  0  0  0
  128.6020  125.6560   71.1700 C   0  0  0  0  0  0  0  0  0  0  0  0
  128.6810  125.4970   72.3900 O   0  0  0  0  0  0  0  0  0  0  0  0
  127.7610  126.7870   70.5640 C   0  0  0  0  0  0  0  0  0  0  0  0
  126.7160  126.2880   69.1530 S   0  0  0  0  0  0  0  0  0  0  0  0
  127.5590  126.7440   67.6530 C   0  0  0  0  0  0  0  0  0  0  0  0
  128.7390  126.0960   67.4760 N   0  0  0  0  0  0  0  0  0  0  0  0
  129.4660  126.3590   66.3650 C   0  0  0  0  0  0  0  0  0  0  0  0
  130.7620  125.5830   66.2260 C   0  0  0  0  0  0  0  0  0  0  0  0
  129.0590  127.2780   65.4000 C   0  0  0  0  0  0  0  0  0  0  0  0
  127.8580  127.9720   65.5860 C   0  0  0  0  0  0  0  0  0  0  0  0
  127.4400  128.9860   64.5230 C   0  0  0  0  0  0  0  0  0  0  0  0
  127.0820  127.7140   66.7390 C   0  0  0  0  0  0  0  0  0  0  0  0
  125.8460  128.4640   66.9780 C   0  0  0  0  0  0  0  0  0  0  0  0
  124.8710  129.0560   67.1650 N   0  0  0  0  0  0  0  0  0  0  0  0
  1  2  1  0
  2  3  1  0
  3  4  2  0
  3  5  1  0
  5  6  1  0
  6  7  1  0
  7  8  2  0
  7  9  1  0
  9 10  1  0
 10 11  1  0
 11 12  2  0
 12 13  1  0
 13 14  1  0
 13 15  2  0
 15 16  1  0
 16 17  1  0
 16 18  2  0
 18 19  1  0
 19 20  3  0
 18 11  1  0
M  END
>  <Binding energies>  (13) 
[-6.08]

>  <Ligand effiencies>  (13) 
[-0.2895238095238095]

>  <Interactions>  (13) 
["H-B:LYS:547:NZ:9923, V-B:LYS:547:CE:9922, V-B:GLU:543:CB:9878, V-B:HIS:456:CE1:9040, V-B:GLY:544:C:9884, V-A:HIS:456:CD2:4068, V-A:GLU:543:CD:4908, V-B:GLU:543:CD:9880, V-A:TYR:484:CE1:4345, V-A:TYR:484:CZ:4347, V-B:GLU:543:C:9874, V-A:HIS:456:CB:4065, V-A:TYR:484:CD1:4343, V-A:TYR:484:CG:4342, V-A:HIS:456:CG:4066, H-B:GLU:543:O:9875, V-A:TYR:484:CB:4341, V-A:TYR:484:CD2:4344, V-B:ARG:545:CG:9894, V-A:TYR:484:CE2:4346, V-A:HIS:456:CE1:4069, H-B:TYR:484:OH:9319, H-B:ARG:545:NE:9896, V-A:ASP:473:CB:4239, H-B:ARG:545:N:9892, H-B:GLY:544:N:9887"]

$$$$
1n_Grossjean_2025
     RDKit          3D

 27 28  0  0  0  0  0  0  0  0999 V2000
  132.5640  132.1560   56.5460 C   0  0  0  0  0  0  0  0  0  0  0  0
  132.2490  132.5530   55.1000 C   0  0  0  0  0  0  0  0  0  0  0  0
  130.8860  132.9520   55.0060 O   0  0  0  0  0  0  0  0  0  0  0  0
  129.9260  132.3500   55.7550 C   0  0  0  0  0  0  0  0  0  0  0  0
  129.2960  132.9270   56.6450 O   0  0  0  0  0  0  0  0  0  0  0  0
  129.6990  130.9120   55.3820 C   0  0  0  0  0  0  0  0  0  0  0  0
  129.5230  130.5100   54.0490 C   0  0  0  0  0  0  0  0  0  0  0  0
  129.3110  129.1700   53.7380 C   0  0  0  0  0  0  0  0  0  0  0  0
  129.2620  128.2080   54.7470 C   0  0  0  0  0  0  0  0  0  0  0  0
  129.0360  126.8850   54.3210 N   0  0  0  0  0  0  0  0  0  0  0  0
  129.8470  125.8070   54.3870 C   0  0  0  0  0  0  0  0  0  0  0  0
  130.9820  125.7950   54.8640 O   0  0  0  0  0  0  0  0  0  0  0  0
  129.2690  124.5070   53.8130 C   0  0  0  0  0  0  0  0  0  0  0  0
  127.8020  124.2610   54.2270 C   0  0  0  0  0  0  0  0  0  0  0  0
  127.4930  122.6350   54.9780 S   0  0  0  0  0  0  0  0  0  0  0  0
  126.9540  122.9070   56.6520 C   0  0  0  0  0  0  0  0  0  0  0  0
  127.8250  122.4470   57.5850 N   0  0  0  0  0  0  0  0  0  0  0  0
  127.5260  122.6150   58.8940 C   0  0  0  0  0  0  0  0  0  0  0  0
  128.5510  122.0870   59.8780 C   0  0  0  0  0  0  0  0  0  0  0  0
  126.3550  123.2360   59.3240 C   0  0  0  0  0  0  0  0  0  0  0  0
  125.4390  123.6950   58.3700 C   0  0  0  0  0  0  0  0  0  0  0  0
  124.1560  124.3600   58.8640 C   0  0  0  0  0  0  0  0  0  0  0  0
  125.7290  123.5260   56.9970 C   0  0  0  0  0  0  0  0  0  0  0  0
  124.7630  123.9520   55.9830 C   0  0  0  0  0  0  0  0  0  0  0  0
  123.9970  124.2880   55.1830 N   0  0  0  0  0  0  0  0  0  0  0  0
  129.4460  128.6010   56.0810 C   0  0  0  0  0  0  0  0  0  0  0  0
  129.6620  129.9420   56.3900 C   0  0  0  0  0  0  0  0  0  0  0  0
  1  2  1  0
  2  3  1  0
  3  4  1  0
  4  5  2  0
  4  6  1  0
  6  7  2  0
  7  8  1  0
  8  9  2  0
  9 10  1  0
 10 11  1  0
 11 12  2  0
 11 13  1  0
 13 14  1  0
 14 15  1  0
 15 16  1  0
 16 17  2  0
 17 18  1  0
 18 19  1  0
 18 20  2  0
 20 21  1  0
 21 22  1  0
 21 23  2  0
 23 24  1  0
 24 25  3  0
  9 26  1  0
 26 27  2  0
 27  6  1  0
 23 16  1  0
M  END
>  <Binding energies>  (14) 
[-8.78]

>  <Ligand effiencies>  (14) 
[-0.31357142857142856]

>  <Interactions>  (14) 
["V-A:ILE:538:CD1:4865, H-A:TYR:539:N:4870, V-A:PRO:540:CD:4887, V-A:TYR:539:CE1:4875, V-A:TYR:531:CE2:4793, V-A:PRO:540:CB:4885, V-A:PRO:540:CA:4883, V-A:PRO:540:N:4884, V-A:LEU:363:CD1:3189, V-A:ILE:538:CG2:4863, V-B:TYR:539:C:9839, V-B:PRO:540:CA:9855, V-B:PRO:540:CB:9857, H-B:TYR:539:N:9842, V-B:PRO:540:N:9856, V-B:TYR:539:CD2:9846, V-B:LEU:363:CD1:8160, V-B:ILE:538:CG2:9835, V-B:TYR:539:CE2:9848, V-A:TYR:539:CD1:4873, V-A:PRO:540:CG:4886, V-A:ILE:538:CA:4860, V-B:TYR:539:CE1:9847, V-B:TYR:531:CE2:9765, V-B:TYR:539:CZ:9849, H-A:TYR:531:OH:4795, H-B:TYR:539:OH:9850, H-A:ASN:370:ND2:3248, V-A:MET:535:CE:4835, H-B:TYR:531:OH:9767, V-A:MET:535:CG:4833, H-B:MET:535:SD:9806"]

$$$$
1q_Grossjean_2025
     RDKit          3D

 21 21  0  0  0  0  0  0  0  0999 V2000
  125.2770  124.9920   56.3060 C   0  0  0  0  0  0  0  0  0  0  0  0
  125.7470  124.4640   55.0740 O   0  0  0  0  0  0  0  0  0  0  0  0
  126.7900  123.5980   55.0490 C   0  0  0  0  0  0  0  0  0  0  0  0
  126.7470  122.4150   55.3910 O   0  0  0  0  0  0  0  0  0  0  0  0
  128.1160  124.2270   54.5710 C   0  0  0  0  0  0  0  0  0  0  0  0
  128.1480  125.6890   54.7250 N   0  0  0  0  0  0  0  0  0  0  0  0
  129.2540  126.4570   54.7400 C   0  0  0  0  0  0  0  0  0  0  0  0
  130.3930  126.0010   54.6210 O   0  0  0  0  0  0  0  0  0  0  0  0
  129.0220  127.9660   54.9010 C   0  0  0  0  0  0  0  0  0  0  0  0
  128.9780  128.7460   53.5720 C   0  0  0  0  0  0  0  0  0  0  0  0
  128.4790  130.4830   53.7630 S   0  0  0  0  0  0  0  0  0  0  0  0
  127.9550  130.7410   55.4460 C   0  0  0  0  0  0  0  0  0  0  0  0
  126.8740  129.9970   55.7940 N   0  0  0  0  0  0  0  0  0  0  0  0
  126.3820  130.1090   57.0490 C   0  0  0  0  0  0  0  0  0  0  0  0
  125.1630  129.2590   57.3580 C   0  0  0  0  0  0  0  0  0  0  0  0
  126.9460  130.9500   58.0060 C   0  0  0  0  0  0  0  0  0  0  0  0
  128.0750  131.7010   57.6670 C   0  0  0  0  0  0  0  0  0  0  0  0
  128.6870  132.6030   58.7400 C   0  0  0  0  0  0  0  0  0  0  0  0
  128.6090  131.6000   56.3630 C   0  0  0  0  0  0  0  0  0  0  0  0
  129.8240  132.3360   56.0080 C   0  0  0  0  0  0  0  0  0  0  0  0
  130.7850  132.9190   55.7320 N   0  0  0  0  0  0  0  0  0  0  0  0
  1  2  1  0
  2  3  1  0
  3  4  2  0
  3  5  1  0
  5  6  1  0
  6  7  1  0
  7  8  2  0
  7  9  1  0
  9 10  1  0
 10 11  1  0
 11 12  1  0
 12 13  2  0
 13 14  1  0
 14 15  1  0
 14 16  2  0
 16 17  1  0
 17 18  1  0
 17 19  2  0
 19 20  1  0
 20 21  3  0
 19 12  1  0
M  END
>  <Binding energies>  (15) 
[-6.02]

>  <Ligand effiencies>  (15) 
[-0.2736363636363636]

>  <Interactions>  (15) 
["V-A:TYR:539:CD2:4874, V-A:TYR:539:C:4867, V-A:TYR:539:CZ:4877, H-A:TYR:539:N:4870, V-A:TYR:539:CE1:4875, V-A:PRO:540:CA:4883, V-A:PRO:540:N:4884, V-A:TYR:539:CE2:4876, V-B:ILE:538:CB:9834, H-B:TYR:539:N:9842, V-B:ILE:538:CG2:9835, V-A:TYR:539:CD1:4873, V-B:TYR:539:CE1:9847, V-B:ASP:366:CB:8183, V-B:TYR:531:CE2:9765, V-B:TYR:539:CZ:9849, H-A:TYR:531:OH:4795, H-B:TYR:539:OH:9850, V-A:MET:535:CE:4835, H-B:TYR:531:OH:9767, H-A:TYR:539:OH:4878, V-A:MET:535:CG:4833, H-B:MET:535:SD:9806"]

$$$$
2a_Grossjean_2025
     RDKit          3D

 29 30  0  0  0  0  0  0  0  0999 V2000
  132.7500  131.4970   57.2000 C   0  0  0  0  0  0  0  0  0  0  0  0
  132.3860  132.5220   56.1210 C   0  0  0  0  0  0  0  0  0  0  0  0
  130.9790  132.7350   56.1310 O   0  0  0  0  0  0  0  0  0  0  0  0
  130.2230  132.4670   55.0360 C   0  0  0  0  0  0  0  0  0  0  0  0
  129.8510  133.3320   54.2370 O   0  0  0  0  0  0  0  0  0  0  0  0
  129.9010  131.0080   54.8810 C   0  0  0  0  0  0  0  0  0  0  0  0
  129.5320  130.4570   53.6460 C   0  0  0  0  0  0  0  0  0  0  0  0
  129.2390  129.1010   53.5370 C   0  0  0  0  0  0  0  0  0  0  0  0
  129.3010  128.2700   54.6570 C   0  0  0  0  0  0  0  0  0  0  0  0
  128.9710  126.9210   54.4330 N   0  0  0  0  0  0  0  0  0  0  0  0
  129.7430  125.8150   54.5060 C   0  0  0  0  0  0  0  0  0  0  0  0
  130.9450  125.7980   54.7720 O   0  0  0  0  0  0  0  0  0  0  0  0
  129.0260  124.4900   54.2240 C   0  0  0  0  0  0  0  0  0  0  0  0
  127.2080  124.6390   54.2210 S   0  0  0  0  0  0  0  0  0  0  0  0
  126.6510  125.2670   55.8010 C   0  0  0  0  0  0  0  0  0  0  0  0
  126.7480  126.6110   55.9680 N   0  0  0  0  0  0  0  0  0  0  0  0
  126.3570  127.1530   57.1430 C   0  0  0  0  0  0  0  0  0  0  0  0
  126.5210  128.6570   57.2640 C   0  0  0  0  0  0  0  0  0  0  0  0
  125.8470  126.3900   58.1900 C   0  0  0  0  0  0  0  0  0  0  0  0
  125.7290  125.0000   58.0360 C   0  0  0  0  0  0  0  0  0  0  0  0
  125.1620  124.1700   59.2030 C   0  0  0  0  0  0  0  0  0  0  0  0
  124.9210  124.9580   60.2510 F   0  0  0  0  0  0  0  0  0  0  0  0
  124.0250  123.5800   58.8330 F   0  0  0  0  0  0  0  0  0  0  0  0
  125.9990  123.2100   59.6070 F   0  0  0  0  0  0  0  0  0  0  0  0
  126.1400  124.4180   56.8100 C   0  0  0  0  0  0  0  0  0  0  0  0
  126.0410  122.9700   56.5960 C   0  0  0  0  0  0  0  0  0  0  0  0
  125.9630  121.8280   56.4280 N   0  0  0  0  0  0  0  0  0  0  0  0
  129.6780  128.8120   55.8940 C   0  0  0  0  0  0  0  0  0  0  0  0
  129.9750  130.1690   56.0000 C   0  0  0  0  0  0  0  0  0  0  0  0
  1  2  1  0
  2  3  1  0
  3  4  1  0
  4  5  2  0
  4  6  1  0
  6  7  2  0
  7  8  1  0
  8  9  2  0
  9 10  1  0
 10 11  1  0
 11 12  2  0
 11 13  1  0
 13 14  1  0
 14 15  1  0
 15 16  2  0
 16 17  1  0
 17 18  1  0
 17 19  2  0
 19 20  1  0
 20 21  1  0
 21 22  1  0
 21 23  1  0
 21 24  1  0
 20 25  2  0
 25 26  1  0
 26 27  3  0
  9 28  1  0
 28 29  2  0
 29  6  1  0
 25 15  1  0
M  END
>  <Binding energies>  (16) 
[-7.42]

>  <Ligand effiencies>  (16) 
[-0.24733333333333332]

>  <Interactions>  (16) 
["V-B:GLU:543:CD:9880, H-A:TYR:539:N:4870, V-A:PRO:540:CD:4887, V-A:TYR:539:CE1:4875, V-A:PRO:540:CB:4885, V-A:PRO:540:CA:4883, V-A:PRO:540:N:4884, V-A:LEU:363:CD1:3189, V-A:ILE:538:CG2:4863, V-B:PRO:540:C:9853, V-B:PRO:540:CA:9855, V-B:PRO:540:CB:9857, V-B:PRO:540:CD:9859, H-B:TYR:539:N:9842, V-B:PRO:540:N:9856, V-B:LEU:363:CD1:8160, V-A:TYR:539:CD1:4873, V-A:PRO:540:CG:4886, V-A:ILE:538:CA:4860, V-B:TYR:539:CE1:9847, V-B:ASP:366:CG:8184, V-B:TYR:539:CZ:9849, H-A:TYR:531:OH:4795, H-B:TYR:539:OH:9850, H-A:ASN:370:ND2:3248, V-A:MET:535:CE:4835, H-B:TYR:531:OH:9767, V-A:MET:535:CG:4833, H-B:MET:535:SD:9806"]

$$$$
2b_Grossjean_2025
     RDKit          3D

 28 29  0  0  0  0  0  0  0  0999 V2000
  126.8930  126.8090   73.8870 C   0  0  0  0  0  0  0  0  0  0  0  0
  128.0780  126.0620   74.1290 O   0  0  0  0  0  0  0  0  0  0  0  0
  129.2480  126.3920   73.5250 C   0  0  0  0  0  0  0  0  0  0  0  0
  130.1910  126.9270   74.1160 O   0  0  0  0  0  0  0  0  0  0  0  0
  129.2800  126.0450   72.0640 C   0  0  0  0  0  0  0  0  0  0  0  0
  128.8550  126.9470   71.0780 C   0  0  0  0  0  0  0  0  0  0  0  0
  128.8960  126.5930   69.7320 C   0  0  0  0  0  0  0  0  0  0  0  0
  129.3660  125.3380   69.3440 C   0  0  0  0  0  0  0  0  0  0  0  0
  129.3580  125.0820   67.9600 N   0  0  0  0  0  0  0  0  0  0  0  0
  129.8330  125.8320   66.9420 C   0  0  0  0  0  0  0  0  0  0  0  0
  130.3580  126.9400   67.0570 O   0  0  0  0  0  0  0  0  0  0  0  0
  129.6640  125.2200   65.5470 C   0  0  0  0  0  0  0  0  0  0  0  0
  129.9550  123.4210   65.5140 S   0  0  0  0  0  0  0  0  0  0  0  0
  130.5920  122.9350   63.9160 C   0  0  0  0  0  0  0  0  0  0  0  0
  129.7000  122.3440   63.0810 N   0  0  0  0  0  0  0  0  0  0  0  0
  130.1140  121.9460   61.8570 C   0  0  0  0  0  0  0  0  0  0  0  0
  129.0610  121.2840   60.9900 C   0  0  0  0  0  0  0  0  0  0  0  0
  131.4210  122.1250   61.4120 C   0  0  0  0  0  0  0  0  0  0  0  0
  132.3590  122.7410   62.2550 C   0  0  0  0  0  0  0  0  0  0  0  0
  133.7990  122.9360   61.7450 C   0  0  0  0  0  0  0  0  0  0  0  0
  134.5960  121.9970   62.2590 F   0  0  0  0  0  0  0  0  0  0  0  0
  133.8300  122.8480   60.4140 F   0  0  0  0  0  0  0  0  0  0  0  0
  134.3090  124.1230   62.0790 F   0  0  0  0  0  0  0  0  0  0  0  0
  131.9390  123.1580   63.5440 C   0  0  0  0  0  0  0  0  0  0  0  0
  132.8780  123.8000   64.4690 C   0  0  0  0  0  0  0  0  0  0  0  0
  133.6190  124.3080   65.1990 N   0  0  0  0  0  0  0  0  0  0  0  0
  129.7860  124.4280   70.3250 C   0  0  0  0  0  0  0  0  0  0  0  0
  129.7430  124.7820   71.6700 C   0  0  0  0  0  0  0  0  0  0  0  0
  1  2  1  0
  2  3  1  0
  3  4  2  0
  3  5  1  0
  5  6  2  0
  6  7  1  0
  7  8  2  0
  8  9  1  0
  9 10  1  0
 10 11  2  0
 10 12  1  0
 12 13  1  0
 13 14  1  0
 14 15  2  0
 15 16  1  0
 16 17  1  0
 16 18  2  0
 18 19  1  0
 19 20  1  0
 20 21  1  0
 20 22  1  0
 20 23  1  0
 19 24  2  0
 24 25  1  0
 25 26  3  0
  8 27  1  0
 27 28  2  0
 28  5  1  0
 24 14  1  0
M  END
>  <Binding energies>  (17) 
[-7.53]

>  <Ligand effiencies>  (17) 
[-0.2596551724137931]

>  <Interactions>  (17) 
["H-B:LYS:547:NZ:9923, V-B:GLU:543:CB:9878, V-B:HIS:456:CE1:9040, V-A:HIS:456:CD2:4068, H-A:HIS:456:NE2:4070, H-A:LYS:547:NZ:4951, V-B:ALA:541:CB:9864, V-B:GLU:543:CG:9879, V-A:TYR:484:CE1:4345, V-B:TYR:539:CD2:9846, V-A:LEU:475:CD1:4258, V-A:TYR:484:CZ:4347, V-B:LYS:547:CD:9921, V-B:GLU:543:C:9874, V-A:ASP:366:CG:3213, V-B:ALA:541:CA:9862, V-A:ILE:369:CD1:3239, V-A:ILE:369:CG2:3237, V-A:HIS:456:CG:4066, H-B:GLU:543:O:9875, V-A:GLY:454:CA:4049, H-A:GLY:454:N:4050, H-A:TYR:484:OH:4348, V-A:HIS:456:CE1:4069, V-B:GLU:543:CA:9876, V-A:ILE:369:CB:3236, V-A:GLY:453:C:4042"]

$$$$
2c_Grossjean_2025
     RDKit          3D

 26 27  0  0  0  0  0  0  0  0999 V2000
  127.1470  126.9810   73.5280 C   0  0  0  0  0  0  0  0  0  0  0  0
  128.2500  126.1000   73.3350 O   0  0  0  0  0  0  0  0  0  0  0  0
  128.6530  125.7970   72.0490 C   0  0  0  0  0  0  0  0  0  0  0  0
  128.2660  126.6880   71.0490 C   0  0  0  0  0  0  0  0  0  0  0  0
  128.6240  126.4680   69.7220 C   0  0  0  0  0  0  0  0  0  0  0  0
  129.3730  125.3330   69.3790 C   0  0  0  0  0  0  0  0  0  0  0  0
  129.7960  125.0350   68.0700 N   0  0  0  0  0  0  0  0  0  0  0  0
  129.3400  125.5360   66.9030 C   0  0  0  0  0  0  0  0  0  0  0  0
  128.4020  126.3290   66.7990 O   0  0  0  0  0  0  0  0  0  0  0  0
  130.0580  125.0130   65.6490 C   0  0  0  0  0  0  0  0  0  0  0  0
  130.0640  123.1970   65.4480 S   0  0  0  0  0  0  0  0  0  0  0  0
  130.7400  122.7780   63.8470 C   0  0  0  0  0  0  0  0  0  0  0  0
  129.9040  122.1080   63.0120 N   0  0  0  0  0  0  0  0  0  0  0  0
  130.3510  121.7510   61.7890 C   0  0  0  0  0  0  0  0  0  0  0  0
  129.3640  120.9920   60.9230 C   0  0  0  0  0  0  0  0  0  0  0  0
  131.6360  122.0490   61.3410 C   0  0  0  0  0  0  0  0  0  0  0  0
  132.5140  122.7470   62.1830 C   0  0  0  0  0  0  0  0  0  0  0  0
  133.9320  123.0710   61.6730 C   0  0  0  0  0  0  0  0  0  0  0  0
  134.8150  122.2310   62.2140 F   0  0  0  0  0  0  0  0  0  0  0  0
  133.9800  122.9540   60.3460 F   0  0  0  0  0  0  0  0  0  0  0  0
  134.3190  124.3120   61.9810 F   0  0  0  0  0  0  0  0  0  0  0  0
  132.0600  123.1240   63.4720 C   0  0  0  0  0  0  0  0  0  0  0  0
  132.9370  123.8530   64.3960 C   0  0  0  0  0  0  0  0  0  0  0  0
  133.6290  124.4280   65.1230 N   0  0  0  0  0  0  0  0  0  0  0  0
  129.7770  124.4460   70.3780 C   0  0  0  0  0  0  0  0  0  0  0  0
  129.4170  124.6710   71.7040 C   0  0  0  0  0  0  0  0  0  0  0  0
  1  2  1  0
  2  3  1  0
  3  4  2  0
  4  5  1  0
  5  6  2  0
  6  7  1  0
  7  8  1  0
  8  9  2  0
  8 10  1  0
 10 11  1  0
 11 12  1  0
 12 13  2  0
 13 14  1  0
 14 15  1  0
 14 16  2  0
 16 17  1  0
 17 18  1  0
 18 19  1  0
 18 20  1  0
 18 21  1  0
 17 22  2  0
 22 23  1  0
 23 24  3  0
  6 25  1  0
 25 26  2  0
 26  3  1  0
 22 12  1  0
M  END
>  <Binding energies>  (18) 
[-7.1]

>  <Ligand effiencies>  (18) 
[-0.26296296296296295]

>  <Interactions>  (18) 
["H-B:LYS:547:NZ:9923, V-B:GLU:543:CB:9878, V-B:HIS:456:CE1:9040, V-A:HIS:456:CD2:4068, V-B:ALA:541:CB:9864, V-A:TYR:484:CE1:4345, V-B:TYR:539:CD2:9846, V-A:LEU:475:CD1:4258, V-A:TYR:484:CZ:4347, V-B:GLU:543:C:9874, V-A:ASP:366:CG:3213, V-A:ILE:369:CD1:3239, V-A:ILE:369:CG2:3237, V-A:HIS:456:CG:4066, H-B:GLU:543:O:9875, V-A:GLY:454:CA:4049, H-A:GLY:454:N:4050, H-A:TYR:484:OH:4348, V-A:HIS:456:CE1:4069, V-A:ILE:369:CB:3236, H-A:HIS:456:ND1:4067, V-A:GLY:453:C:4042"]

$$$$
2d_Ghoteimi_2023
     RDKit          3D

 38 42  0  0  0  0  0  0  0  0999 V2000
  123.8070  131.0110   58.7030 C   0  0  0  0  0  0  0  0  0  0  0  0
  123.1500  131.6060   59.8120 O   0  0  0  0  0  0  0  0  0  0  0  0
  123.7770  131.7190   61.0010 C   0  0  0  0  0  0  0  0  0  0  0  0
  124.3180  132.7410   61.4320 O   0  0  0  0  0  0  0  0  0  0  0  0
  123.7340  130.3970   61.7820 C   0  0  0  0  0  0  0  0  0  0  0  0
  123.9830  130.6760   63.5690 S   0  0  0  0  0  0  0  0  0  0  0  0
  125.5900  130.0490   64.0150 C   0  0  0  0  0  0  0  0  0  0  0  0
  126.5270  130.2480   63.0560 N   0  0  0  0  0  0  0  0  0  0  0  0
  127.7970  129.8140   63.2590 C   0  0  0  0  0  0  0  0  0  0  0  0
  128.7700  130.0530   62.1500 C   0  0  0  0  0  0  0  0  0  0  0  0
  129.0050  131.3480   61.6750 C   0  0  0  0  0  0  0  0  0  0  0  0
  129.9110  131.5780   60.6420 C   0  0  0  0  0  0  0  0  0  0  0  0
  130.6230  130.5210   60.0550 C   0  0  0  0  0  0  0  0  0  0  0  0
  131.5230  130.7330   59.0040 N   0  0  0  0  0  0  0  0  0  0  0  0
  131.2290  131.6850   57.9150 C   0  0  0  0  0  0  0  0  0  0  0  0
  132.1370  131.5120   56.6800 C   0  0  0  0  0  0  0  0  0  0  0  0
  133.5000  131.5930   57.0670 O   0  0  0  0  0  0  0  0  0  0  0  0
  133.8380  130.5800   58.0000 C   0  0  0  0  0  0  0  0  0  0  0  0
  132.9760  130.7210   59.2720 C   0  0  0  0  0  0  0  0  0  0  0  0
  130.3740  129.2240   60.5250 C   0  0  0  0  0  0  0  0  0  0  0  0
  129.4670  128.9940   61.5550 C   0  0  0  0  0  0  0  0  0  0  0  0
  128.1570  129.1680   64.4440 C   0  0  0  0  0  0  0  0  0  0  0  0
  127.2160  128.9800   65.4640 C   0  0  0  0  0  0  0  0  0  0  0  0
  127.6800  128.3070   66.7140 C   0  0  0  0  0  0  0  0  0  0  0  0
  128.8820  128.6870   67.3130 C   0  0  0  0  0  0  0  0  0  0  0  0
  129.3170  128.0750   68.4840 C   0  0  0  0  0  0  0  0  0  0  0  0
  128.5600  127.0590   69.0910 C   0  0  0  0  0  0  0  0  0  0  0  0
  128.9700  126.4390   70.2750 N   0  0  0  0  0  0  0  0  0  0  0  0
  129.3790  125.0210   70.2990 C   0  0  0  0  0  0  0  0  0  0  0  0
  130.1300  124.6190   71.5860 C   0  0  0  0  0  0  0  0  0  0  0  0
  129.3470  124.9410   72.7250 O   0  0  0  0  0  0  0  0  0  0  0  0
  129.0670  126.3310   72.7940 C   0  0  0  0  0  0  0  0  0  0  0  0
  128.2860  126.7750   71.5380 C   0  0  0  0  0  0  0  0  0  0  0  0
  127.3450  126.6960   68.4930 C   0  0  0  0  0  0  0  0  0  0  0  0
  126.9110  127.3100   67.3220 C   0  0  0  0  0  0  0  0  0  0  0  0
  125.8910  129.4370   65.2530 C   0  0  0  0  0  0  0  0  0  0  0  0
  124.8760  129.2800   66.2980 C   0  0  0  0  0  0  0  0  0  0  0  0
  124.0760  129.1540   67.1270 N   0  0  0  0  0  0  0  0  0  0  0  0
  1  2  1  0
  2  3  1  0
  3  4  2  0
  3  5  1  0
  5  6  1  0
  6  7  1  0
  7  8  2  0
  8  9  1  0
  9 10  1  0
 10 11  2  0
 11 12  1  0
 12 13  2  0
 13 14  1  0
 14 15  1  0
 15 16  1  0
 16 17  1  0
 17 18  1  0
 18 19  1  0
 13 20  1  0
 20 21  2  0
  9 22  2  0
 22 23  1  0
 23 24  1  0
 24 25  2  0
 25 26  1  0
 26 27  2  0
 27 28  1  0
 28 29  1  0
 29 30  1  0
 30 31  1  0
 31 32  1  0
 32 33  1  0
 27 34  1  0
 34 35  2  0
 23 36  2  0
 36 37  1  0
 37 38  3  0
 36  7  1  0
 21 10  1  0
 35 24  1  0
 19 14  1  0
 33 28  1  0
M  END
>  <Binding energies>  (19) 
[-9.16]

>  <Ligand effiencies>  (19) 
[-0.24105263157894738]

>  <Interactions>  (19) 
["H-B:LYS:547:NZ:9923, V-B:GLU:543:CB:9878, V-B:HIS:456:CE1:9040, V-A:HIS:456:CD2:4068, V-A:GLU:543:CD:4908, V-A:PRO:540:CB:4885, V-A:PRO:540:CA:4883, V-A:PRO:540:N:4884, V-A:LEU:363:CD1:3189, V-B:ILE:369:CG2:8208, V-B:ILE:369:CD1:8210, V-A:ASP:366:CB:3212, V-B:GLU:543:C:9874, V-A:LEU:363:CB:3187, V-A:ASP:366:CG:3213, V-A:LEU:363:CA:3185, V-B:ASP:366:CG:8184, V-B:ASP:366:CB:8183, V-A:HIS:456:CG:4066, V-B:ARG:545:CG:9894, V-A:HIS:456:CE1:4069, H-B:TYR:484:OH:9319, H-B:ARG:545:NH2:9900, V-B:ARG:545:CZ:9898, H-B:GLY:454:N:9021, V-A:GLU:543:CB:4906, H-B:ARG:545:NE:9896, V-B:ARG:545:CD:9895, V-B:ASP:366:CA:8181, V-A:GLU:543:CG:4907"]

$$$$
2d_Grossjean_2025
     RDKit          3D

 24 25  0  0  0  0  0  0  0  0999 V2000
  128.1390  123.1940   60.7470 C   0  0  0  0  0  0  0  0  0  0  0  0
  128.2350  123.5360   59.2720 C   0  0  0  0  0  0  0  0  0  0  0  0
  127.3330  123.0210   58.3440 C   0  0  0  0  0  0  0  0  0  0  0  0
  127.4610  123.3700   56.9910 C   0  0  0  0  0  0  0  0  0  0  0  0
  126.4480  122.7990   55.9800 C   0  0  0  0  0  0  0  0  0  0  0  0
  125.5650  122.0220   56.6090 F   0  0  0  0  0  0  0  0  0  0  0  0
  125.7960  123.7930   55.3750 F   0  0  0  0  0  0  0  0  0  0  0  0
  127.0270  122.0620   55.0300 F   0  0  0  0  0  0  0  0  0  0  0  0
  128.5170  124.2380   56.6120 C   0  0  0  0  0  0  0  0  0  0  0  0
  128.6650  124.6700   55.2200 C   0  0  0  0  0  0  0  0  0  0  0  0
  128.7810  125.0120   54.1200 N   0  0  0  0  0  0  0  0  0  0  0  0
  129.4000  124.6920   57.6200 C   0  0  0  0  0  0  0  0  0  0  0  0
  130.7950  125.7590   57.3150 S   0  0  0  0  0  0  0  0  0  0  0  0
  132.0160  125.5220   58.6480 C   0  0  0  0  0  0  0  0  0  0  0  0
  132.3920  124.0520   58.8610 C   0  0  0  0  0  0  0  0  0  0  0  0
  133.2660  123.5500   58.1540 O   0  0  0  0  0  0  0  0  0  0  0  0
  131.6920  123.4030   59.8150 N   0  0  0  0  0  0  0  0  0  0  0  0
  131.8030  122.0680   60.2440 C   0  0  0  0  0  0  0  0  0  0  0  0
  133.1000  121.5550   60.3220 C   0  0  0  0  0  0  0  0  0  0  0  0
  133.3110  120.2410   60.7320 C   0  0  0  0  0  0  0  0  0  0  0  0
  132.2220  119.4350   61.0550 C   0  0  0  0  0  0  0  0  0  0  0  0
  130.9240  119.9310   60.9690 C   0  0  0  0  0  0  0  0  0  0  0  0
  130.7090  121.2440   60.5610 C   0  0  0  0  0  0  0  0  0  0  0  0
  129.2490  124.3610   58.9260 N   0  0  0  0  0  0  0  0  0  0  0  0
  1  2  1  0
  2  3  2  0
  3  4  1  0
  4  5  1  0
  5  6  1  0
  5  7  1  0
  5  8  1  0
  4  9  2  0
  9 10  1  0
 10 11  3  0
  9 12  1  0
 12 13  1  0
 13 14  1  0
 14 15  1  0
 15 16  2  0
 15 17  1  0
 17 18  1  0
 18 19  2  0
 19 20  1  0
 20 21  2  0
 21 22  1  0
 22 23  2  0
 12 24  2  0
 24  2  1  0
 23 18  1  0
M  END
>  <Binding energies>  (20) 
[-5.93]

>  <Ligand effiencies>  (20) 
[-0.2372]

>  <Interactions>  (20) 
["V-B:ILE:538:CB:9834, V-B:TYR:539:C:9839, V-B:PRO:540:CA:9855, V-B:PRO:540:CB:9857, V-B:PRO:540:CD:9859, V-B:PRO:540:N:9856, V-B:TYR:539:CD2:9846, V-A:TRP:381:CZ2:3370, V-A:TRP:381:CH2:3372, V-A:LEU:475:CD1:4258, V-B:LEU:363:CD1:8160, V-B:ILE:538:CG2:9835, V-B:TYR:539:CE2:9848, V-A:ASP:366:CB:3212, V-A:ASP:366:CG:3213, V-B:ILE:538:CA:9832, V-B:TYR:539:CE1:9847, V-B:TYR:539:CG:9844, V-B:ILE:538:C:9830, V-B:TYR:539:CZ:9849, V-A:ILE:369:CD1:3239, V-B:TYR:539:CD1:9845, V-A:ILE:369:CG2:3237, V-B:TYR:539:CA:9841, V-B:PRO:540:CG:9858, H-B:TYR:539:OH:9850"]

$$$$
2e_Grossjean_2025
     RDKit          3D

 25 26  0  0  0  0  0  0  0  0999 V2000
  130.4740  132.9220   53.9060 C   0  0  0  0  0  0  0  0  0  0  0  0
  130.8110  132.4420   55.3040 C   0  0  0  0  0  0  0  0  0  0  0  0
  131.9120  131.6170   55.5490 C   0  0  0  0  0  0  0  0  0  0  0  0
  132.1680  131.2240   56.8640 C   0  0  0  0  0  0  0  0  0  0  0  0
  131.3260  131.6590   57.8900 C   0  0  0  0  0  0  0  0  0  0  0  0
  130.2350  132.4770   57.5740 C   0  0  0  0  0  0  0  0  0  0  0  0
  129.4470  132.9210   58.6490 N   0  0  0  0  0  0  0  0  0  0  0  0
  128.2580  132.4340   59.0680 C   0  0  0  0  0  0  0  0  0  0  0  0
  127.6950  131.4440   58.5980 O   0  0  0  0  0  0  0  0  0  0  0  0
  127.5690  133.2270   60.1830 C   0  0  0  0  0  0  0  0  0  0  0  0
  128.1700  132.7490   61.8340 S   0  0  0  0  0  0  0  0  0  0  0  0
  129.4500  131.5470   61.5440 C   0  0  0  0  0  0  0  0  0  0  0  0
  130.7110  132.0460   61.5760 N   0  0  0  0  0  0  0  0  0  0  0  0
  131.7420  131.2100   61.3210 C   0  0  0  0  0  0  0  0  0  0  0  0
  133.1240  131.8320   61.3740 C   0  0  0  0  0  0  0  0  0  0  0  0
  131.5610  129.8600   61.0210 C   0  0  0  0  0  0  0  0  0  0  0  0
  130.2620  129.3310   60.9750 C   0  0  0  0  0  0  0  0  0  0  0  0
  130.0770  127.8440   60.6210 C   0  0  0  0  0  0  0  0  0  0  0  0
  129.3950  127.7260   59.4820 F   0  0  0  0  0  0  0  0  0  0  0  0
  131.2660  127.2590   60.4760 F   0  0  0  0  0  0  0  0  0  0  0  0
  129.4090  127.1710   61.5610 F   0  0  0  0  0  0  0  0  0  0  0  0
  129.1710  130.1940   61.2450 C   0  0  0  0  0  0  0  0  0  0  0  0
  127.7890  129.7090   61.1840 C   0  0  0  0  0  0  0  0  0  0  0  0
  126.6970  129.3260   61.1340 N   0  0  0  0  0  0  0  0  0  0  0  0
  129.9840  132.8720   56.2910 N   0  0  0  0  0  0  0  0  0  0  0  0
  1  2  1  0
  2  3  2  0
  3  4  1  0
  4  5  2  0
  5  6  1  0
  6  7  1  0
  7  8  1  0
  8  9  2  0
  8 10  1  0
 10 11  1  0
 11 12  1  0
 12 13  2  0
 13 14  1  0
 14 15  1  0
 14 16  2  0
 16 17  1  0
 17 18  1  0
 18 19  1  0
 18 20  1  0
 18 21  1  0
 17 22  2  0
 22 23  1  0
 23 24  3  0
  6 25  2  0
 25  2  1  0
 22 12  1  0
M  END
>  <Binding energies>  (21) 
[-6.41]

>  <Ligand effiencies>  (21) 
[-0.24653846153846154]

>  <Interactions>  (21) 
["V-A:ILE:538:CD1:4865, V-A:TYR:539:CD2:4874, V-A:TYR:539:C:4867, V-A:TYR:539:CZ:4877, H-A:TYR:539:N:4870, V-A:PRO:540:CD:4887, V-A:TYR:531:CE2:4793, V-A:PRO:540:CB:4885, V-A:PRO:540:CA:4883, V-A:PRO:540:N:4884, V-A:LEU:363:CD1:3189, V-A:TYR:539:CE2:4876, V-A:TYR:539:CD1:4873, V-A:PRO:540:C:4881, V-A:ASN:362:CB:3176, V-A:ILE:538:C:4858, V-A:ILE:538:CA:4860, V-A:ASP:366:CG:3213, V-A:VAL:537:C:4850, H-A:TYR:539:O:4868, H-A:ALA:541:N:4891"]

$$$$
2f_Grossjean_2025
     RDKit          3D

 24 25  0  0  0  0  0  0  0  0999 V2000
  134.2690  124.2720   62.5480 C   0  0  0  0  0  0  0  0  0  0  0  0
  133.2910  123.1480   62.2620 C   0  0  0  0  0  0  0  0  0  0  0  0
  133.6950  121.9680   61.6430 C   0  0  0  0  0  0  0  0  0  0  0  0
  132.7500  120.9610   61.3930 C   0  0  0  0  0  0  0  0  0  0  0  0
  133.2150  119.6680   60.6960 C   0  0  0  0  0  0  0  0  0  0  0  0
  132.7910  118.6010   61.3780 F   0  0  0  0  0  0  0  0  0  0  0  0
  132.7200  119.6150   59.4590 F   0  0  0  0  0  0  0  0  0  0  0  0
  134.5440  119.5790   60.6020 F   0  0  0  0  0  0  0  0  0  0  0  0
  131.4060  121.1780   61.7900 C   0  0  0  0  0  0  0  0  0  0  0  0
  130.3720  120.1810   61.5010 C   0  0  0  0  0  0  0  0  0  0  0  0
  129.5560  119.3930   61.2720 N   0  0  0  0  0  0  0  0  0  0  0  0
  131.0920  122.3980   62.4370 C   0  0  0  0  0  0  0  0  0  0  0  0
  129.4630  122.8330   63.0120 S   0  0  0  0  0  0  0  0  0  0  0  0
  128.6550  123.8340   61.7180 C   0  0  0  0  0  0  0  0  0  0  0  0
  127.9500  123.0280   60.6170 C   0  0  0  0  0  0  0  0  0  0  0  0
  127.8740  121.8010   60.6880 O   0  0  0  0  0  0  0  0  0  0  0  0
  127.4640  123.7740   59.6010 N   0  0  0  0  0  0  0  0  0  0  0  0
  126.7620  123.3690   58.4500 C   0  0  0  0  0  0  0  0  0  0  0  0
  125.4550  123.7620   58.1090 C   0  0  0  0  0  0  0  0  0  0  0  0
  124.8760  123.2900   56.9300 C   0  0  0  0  0  0  0  0  0  0  0  0
  125.6210  122.4370   56.1160 C   0  0  0  0  0  0  0  0  0  0  0  0
  126.8860  122.0490   56.4170 N   0  0  0  0  0  0  0  0  0  0  0  0
  127.4360  122.5180   57.5660 C   0  0  0  0  0  0  0  0  0  0  0  0
  132.0140  123.3680   62.6500 N   0  0  0  0  0  0  0  0  0  0  0  0
  1  2  1  0
  2  3  2  0
  3  4  1  0
  4  5  1  0
  5  6  1  0
  5  7  1  0
  5  8  1  0
  4  9  2  0
  9 10  1  0
 10 11  3  0
  9 12  1  0
 12 13  1  0
 13 14  1  0
 14 15  1  0
 15 16  2  0
 15 17  1  0
 17 18  1  0
 18 19  2  0
 19 20  1  0
 20 21  2  0
 21 22  1  0
 22 23  2  0
 12 24  2  0
 24  2  1  0
 23 18  1  0
M  END
>  <Binding energies>  (22) 
[-6.8]

>  <Ligand effiencies>  (22) 
[-0.272]

>  <Interactions>  (22) 
["V-B:GLU:543:CD:9880, V-B:ILE:538:CB:9834, V-B:ALA:541:CB:9864, V-B:TYR:539:C:9839, V-B:PRO:540:CA:9855, V-B:PRO:540:CB:9857, V-B:PRO:540:CD:9859, V-B:GLU:543:CG:9879, H-B:TYR:539:N:9842, V-B:PRO:540:N:9856, V-B:TYR:539:CD2:9846, V-A:TRP:381:CZ2:3370, V-A:TRP:381:CH2:3372, V-A:LEU:475:CD1:4258, V-B:LEU:363:CD1:8160, V-B:ILE:538:CG2:9835, V-B:TYR:539:CE2:9848, V-B:ILE:538:CA:9832, V-B:TYR:539:CG:9844, V-B:TYR:539:CZ:9849, V-A:ILE:369:CD1:3239, H-B:ALA:541:N:9863, V-A:ILE:369:CG2:3237, V-A:ARG:545:CZ:4926, V-A:ILE:369:CB:3236, V-A:TRP:381:CZ3:3371, V-A:GLY:453:CA:4044, V-A:GLY:453:C:4042, V-A:SER:385:C:3405, V-A:SER:385:CA:3407, V-A:ILE:369:CG1:3238"]

$$$$
2g_Grossjean_2025
     RDKit          3D

 25 26  0  0  0  0  0  0  0  0999 V2000
  128.8960  132.8790   59.7990 C   0  0  0  0  0  0  0  0  0  0  0  0
  128.5640  132.2290   58.4690 C   0  0  0  0  0  0  0  0  0  0  0  0
  127.5960  131.2320   58.3660 C   0  0  0  0  0  0  0  0  0  0  0  0
  127.3310  130.6560   57.1150 C   0  0  0  0  0  0  0  0  0  0  0  0
  126.2630  129.5480   57.0220 C   0  0  0  0  0  0  0  0  0  0  0  0
  125.7230  129.3250   58.2210 F   0  0  0  0  0  0  0  0  0  0  0  0
  125.3010  129.9180   56.1760 F   0  0  0  0  0  0  0  0  0  0  0  0
  126.7590  128.3880   56.5860 F   0  0  0  0  0  0  0  0  0  0  0  0
  128.0560  131.1180   55.9870 C   0  0  0  0  0  0  0  0  0  0  0  0
  127.8580  130.5110   54.6680 C   0  0  0  0  0  0  0  0  0  0  0  0
  127.7010  130.0310   53.6270 N   0  0  0  0  0  0  0  0  0  0  0  0
  128.9990  132.1570   56.1820 C   0  0  0  0  0  0  0  0  0  0  0  0
  129.9750  132.8700   54.8760 S   0  0  0  0  0  0  0  0  0  0  0  0
  131.4310  131.7970   54.6310 C   0  0  0  0  0  0  0  0  0  0  0  0
  132.3880  131.7300   55.8300 C   0  0  0  0  0  0  0  0  0  0  0  0
  132.8190  132.7530   56.3650 O   0  0  0  0  0  0  0  0  0  0  0  0
  132.7170  130.4910   56.2380 N   0  0  0  0  0  0  0  0  0  0  0  0
  133.6020  130.1730   57.3590 C   0  0  0  0  0  0  0  0  0  0  0  0
  133.0440  130.5490   58.7270 C   0  0  0  0  0  0  0  0  0  0  0  0
  131.6930  130.3260   59.0130 C   0  0  0  0  0  0  0  0  0  0  0  0
  131.1890  130.6340   60.2740 C   0  0  0  0  0  0  0  0  0  0  0  0
  132.0380  131.1530   61.2480 C   0  0  0  0  0  0  0  0  0  0  0  0
  133.3880  131.3660   60.9740 C   0  0  0  0  0  0  0  0  0  0  0  0
  133.8920  131.0580   59.7140 C   0  0  0  0  0  0  0  0  0  0  0  0
  129.2590  132.6860   57.4030 N   0  0  0  0  0  0  0  0  0  0  0  0
  1  2  1  0
  2  3  2  0
  3  4  1  0
  4  5  1  0
  5  6  1  0
  5  7  1  0
  5  8  1  0
  4  9  2  0
  9 10  1  0
 10 11  3  0
  9 12  1  0
 12 13  1  0
 13 14  1  0
 14 15  1  0
 15 16  2  0
 15 17  1  0
 17 18  1  0
 18 19  1  0
 19 20  2  0
 20 21  1  0
 21 22  2  0
 22 23  1  0
 23 24  2  0
 12 25  2  0
 25  2  1  0
 24 19  1  0
M  END
>  <Binding energies>  (23) 
[-6.95]

>  <Ligand effiencies>  (23) 
[-0.2673076923076923]

>  <Interactions>  (23) 
["V-A:ILE:538:CD1:4865, V-A:TYR:539:CD2:4874, V-A:TYR:539:C:4867, V-A:TYR:539:CZ:4877, H-A:TYR:539:N:4870, V-A:TYR:539:CE1:4875, V-A:TYR:531:CE2:4793, V-A:PRO:540:CB:4885, V-A:PRO:540:CA:4883, V-A:PRO:540:N:4884, V-A:LEU:363:CD1:3189, V-A:TYR:539:CE2:4876, V-A:TYR:539:CG:4872, V-A:ASP:366:CB:3212, V-A:TYR:531:CZ:4794, V-A:TYR:539:CD1:4873, V-A:ASN:362:CB:3176, V-A:ASP:366:CG:3213, V-A:LEU:363:CA:3185, V-B:TYR:531:CZ:9766, V-A:ASN:362:C:3172, H-A:TYR:531:OH:4795, H-B:TYR:531:OH:9767, V-B:TYR:531:CE1:9764"]

$$$$
2h_Grossjean_2025
     RDKit          3D

 31 32  0  0  0  0  0  0  0  0999 V2000
  123.5410  130.3130   62.9950 C   0  0  0  0  0  0  0  0  0  0  0  0
  123.7680  130.6420   64.3610 O   0  0  0  0  0  0  0  0  0  0  0  0
  124.6840  129.9070   65.0930 C   0  0  0  0  0  0  0  0  0  0  0  0
  124.3610  129.1850   66.2530 C   0  0  0  0  0  0  0  0  0  0  0  0
  125.3370  128.4610   66.9330 C   0  0  0  0  0  0  0  0  0  0  0  0
  126.6540  128.4400   66.4720 C   0  0  0  0  0  0  0  0  0  0  0  0
  127.7030  127.6210   67.2240 C   0  0  0  0  0  0  0  0  0  0  0  0
  128.6150  126.8890   66.3450 N   0  0  0  0  0  0  0  0  0  0  0  0
  129.3500  125.8240   66.7130 C   0  0  0  0  0  0  0  0  0  0  0  0
  129.3920  125.4000   67.8690 O   0  0  0  0  0  0  0  0  0  0  0  0
  130.1440  125.1470   65.5880 C   0  0  0  0  0  0  0  0  0  0  0  0
  129.9050  123.3430   65.4540 S   0  0  0  0  0  0  0  0  0  0  0  0
  130.5940  122.8480   63.8890 C   0  0  0  0  0  0  0  0  0  0  0  0
  129.6960  122.2660   63.0570 N   0  0  0  0  0  0  0  0  0  0  0  0
  130.1180  121.8340   61.8480 C   0  0  0  0  0  0  0  0  0  0  0  0
  129.0600  121.1870   60.9740 C   0  0  0  0  0  0  0  0  0  0  0  0
  131.4370  121.9680   61.4190 C   0  0  0  0  0  0  0  0  0  0  0  0
  132.3760  122.5870   62.2580 C   0  0  0  0  0  0  0  0  0  0  0  0
  133.8280  122.7340   61.7630 C   0  0  0  0  0  0  0  0  0  0  0  0
  133.8980  122.4370   60.4650 F   0  0  0  0  0  0  0  0  0  0  0  0
  134.3020  123.9730   61.9160 F   0  0  0  0  0  0  0  0  0  0  0  0
  134.6290  121.9110   62.4400 F   0  0  0  0  0  0  0  0  0  0  0  0
  131.9470  123.0520   63.5280 C   0  0  0  0  0  0  0  0  0  0  0  0
  132.8750  123.7570   64.4160 C   0  0  0  0  0  0  0  0  0  0  0  0
  133.6080  124.3160   65.1150 N   0  0  0  0  0  0  0  0  0  0  0  0
  126.9960  129.1760   65.3280 C   0  0  0  0  0  0  0  0  0  0  0  0
  128.2920  129.1630   64.8690 O   0  0  0  0  0  0  0  0  0  0  0  0
  128.4510  128.5900   63.5770 C   0  0  0  0  0  0  0  0  0  0  0  0
  126.0070  129.8900   64.6320 C   0  0  0  0  0  0  0  0  0  0  0  0
  126.3350  130.5970   63.5000 O   0  0  0  0  0  0  0  0  0  0  0  0
  126.9790  131.8380   63.7550 C   0  0  0  0  0  0  0  0  0  0  0  0
  1  2  1  0
  2  3  1  0
  3  4  2  0
  4  5  1  0
  5  6  2  0
  6  7  1  0
  7  8  1  0
  8  9  1  0
  9 10  2  0
  9 11  1  0
 11 12  1  0
 12 13  1  0
 13 14  2  0
 14 15  1  0
 15 16  1  0
 15 17  2  0
 17 18  1  0
 18 19  1  0
 19 20  1  0
 19 21  1  0
 19 22  1  0
 18 23  2  0
 23 24  1  0
 24 25  3  0
  6 26  1  0
 26 27  1  0
 27 28  1  0
 26 29  2  0
 29 30  1  0
 30 31  1  0
 29  3  1  0
 23 13  1  0
M  END
>  <Binding energies>  (24) 
[-6.36]

>  <Ligand effiencies>  (24) 
[-0.19875]

>  <Interactions>  (24) 
["V-B:GLU:543:CB:9878, V-B:HIS:456:CE1:9040, H-A:HIS:456:NE2:4070, H-A:GLU:543:OE2:4910, V-A:GLU:543:CD:4908, V-B:LEU:475:CD1:9229, V-B:ALA:541:CB:9864, V-B:TYR:539:CD2:9846, V-A:LEU:475:CD1:4258, V-A:ASP:366:CG:3213, V-B:ALA:541:CA:9862, V-A:ILE:369:CD1:3239, V-A:ILE:369:CG2:3237, V-B:ARG:545:CG:9894, V-A:GLY:454:CA:4049, H-A:GLY:454:N:4050, H-A:TYR:484:OH:4348, V-A:HIS:456:CE1:4069, H-B:TYR:484:OH:9319, V-B:ARG:545:CZ:9898, H-B:GLY:454:N:9021, V-B:ARG:545:CD:9895, V-A:ILE:369:CB:3236, H-B:GLU:543:OE1:9881, V-A:GLY:453:C:4042"]

$$$$
2i_Grossjean_2025
     RDKit          3D

 23 24  0  0  0  0  0  0  0  0999 V2000
  134.2200  124.0460   62.5120 C   0  0  0  0  0  0  0  0  0  0  0  0
  133.3200  122.8940   62.1060 C   0  0  0  0  0  0  0  0  0  0  0  0
  133.8370  121.7090   61.5900 C   0  0  0  0  0  0  0  0  0  0  0  0
  132.9630  120.6730   61.2320 C   0  0  0  0  0  0  0  0  0  0  0  0
  133.5530  119.3680   60.6630 C   0  0  0  0  0  0  0  0  0  0  0  0
  133.1550  119.2010   59.4000 F   0  0  0  0  0  0  0  0  0  0  0  0
  134.8850  119.4170   60.6930 F   0  0  0  0  0  0  0  0  0  0  0  0
  133.1750  118.2880   61.3490 F   0  0  0  0  0  0  0  0  0  0  0  0
  131.5700  120.8710   61.4090 C   0  0  0  0  0  0  0  0  0  0  0  0
  130.6110  119.8200   61.0520 C   0  0  0  0  0  0  0  0  0  0  0  0
  129.8530  118.9920   60.7710 N   0  0  0  0  0  0  0  0  0  0  0  0
  131.1300  122.1070   61.9370 C   0  0  0  0  0  0  0  0  0  0  0  0
  129.4010  122.4710   62.1950 S   0  0  0  0  0  0  0  0  0  0  0  0
  128.8960  123.7130   60.9670 C   0  0  0  0  0  0  0  0  0  0  0  0
  127.7420  123.2250   60.0900 C   0  0  0  0  0  0  0  0  0  0  0  0
  126.7470  122.7350   60.6270 O   0  0  0  0  0  0  0  0  0  0  0  0
  127.9220  123.3490   58.7570 N   0  0  0  0  0  0  0  0  0  0  0  0
  127.0370  122.9660   57.7630 C   0  0  0  0  0  0  0  0  0  0  0  0
  125.6560  123.1820   57.6510 C   0  0  0  0  0  0  0  0  0  0  0  0
  125.3040  122.5860   56.4630 C   0  0  0  0  0  0  0  0  0  0  0  0
  126.4090  122.0500   55.8910 O   0  0  0  0  0  0  0  0  0  0  0  0
  127.5000  122.3050   56.7250 N   0  0  0  0  0  0  0  0  0  0  0  0
  131.9940  123.0970   62.2790 N   0  0  0  0  0  0  0  0  0  0  0  0
  1  2  1  0
  2  3  2  0
  3  4  1  0
  4  5  1  0
  5  6  1  0
  5  7  1  0
  5  8  1  0
  4  9  2  0
  9 10  1  0
 10 11  3  0
  9 12  1  0
 12 13  1  0
 13 14  1  0
 14 15  1  0
 15 16  2  0
 15 17  1  0
 17 18  1  0
 18 19  1  0
 19 20  2  0
 20 21  1  0
 21 22  1  0
 12 23  2  0
 23  2  1  0
 22 18  2  0
M  END
>  <Binding energies>  (25) 
[-6.79]

>  <Ligand effiencies>  (25) 
[-0.28291666666666665]

>  <Interactions>  (25) 
["V-B:ILE:538:CB:9834, V-B:TYR:539:C:9839, V-B:PRO:540:CA:9855, V-B:PRO:540:CB:9857, V-B:PRO:540:CD:9859, H-B:TYR:539:N:9842, V-B:PRO:540:N:9856, V-B:TYR:539:CD2:9846, V-A:TRP:381:CZ2:3370, V-A:TRP:381:CH2:3372, V-A:LEU:475:CD1:4258, V-B:LEU:363:CD1:8160, V-A:PRO:482:CG:4327, V-B:ILE:538:CG2:9835, V-B:TYR:539:CE2:9848, V-A:ILE:369:CD1:3239, H-B:ALA:541:N:9863, V-A:ILE:369:CG2:3237, V-A:GLY:454:CA:4049, V-A:ILE:369:CB:3236, V-A:TRP:381:CZ3:3371, V-A:GLY:453:CA:4044, V-A:GLY:453:C:4042, V-A:SER:385:C:3405, V-A:SER:385:CA:3407, V-A:SER:385:CB:3409, V-A:ILE:369:CG1:3238"]

$$$$
2k_Grossjean_2025
     RDKit          3D

 28 28  0  0  0  0  0  0  0  0999 V2000
  126.9250  123.1860   61.3180 C   0  0  0  0  0  0  0  0  0  0  0  0
  128.0580  122.3780   61.0400 O   0  0  0  0  0  0  0  0  0  0  0  0
  128.6740  122.6750   59.7940 C   0  0  0  0  0  0  0  0  0  0  0  0
  127.8280  122.1030   58.6490 C   0  0  0  0  0  0  0  0  0  0  0  0
  127.6330  123.1120   57.6690 O   0  0  0  0  0  0  0  0  0  0  0  0
  126.2700  123.3510   57.3400 C   0  0  0  0  0  0  0  0  0  0  0  0
  125.9800  122.7070   55.9780 C   0  0  0  0  0  0  0  0  0  0  0  0
  127.2240  122.4090   55.3640 O   0  0  0  0  0  0  0  0  0  0  0  0
  127.3880  122.9240   54.0510 C   0  0  0  0  0  0  0  0  0  0  0  0
  128.4710  124.0190   54.0750 C   0  0  0  0  0  0  0  0  0  0  0  0
  128.6910  124.5760   55.4120 N   0  0  0  0  0  0  0  0  0  0  0  0
  129.7030  125.3920   55.7640 C   0  0  0  0  0  0  0  0  0  0  0  0
  130.5580  125.7920   54.9710 O   0  0  0  0  0  0  0  0  0  0  0  0
  129.7510  125.7930   57.2450 C   0  0  0  0  0  0  0  0  0  0  0  0
  131.3560  126.4410   57.8290 S   0  0  0  0  0  0  0  0  0  0  0  0
  131.7140  125.7710   59.4470 C   0  0  0  0  0  0  0  0  0  0  0  0
  131.0730  126.3660   60.4860 N   0  0  0  0  0  0  0  0  0  0  0  0
  131.3000  125.9130   61.7390 C   0  0  0  0  0  0  0  0  0  0  0  0
  130.5560  126.6370   62.8440 C   0  0  0  0  0  0  0  0  0  0  0  0
  132.1570  124.8500   62.0100 C   0  0  0  0  0  0  0  0  0  0  0  0
  132.8240  124.2150   60.9510 C   0  0  0  0  0  0  0  0  0  0  0  0
  133.7650  123.0370   61.2690 C   0  0  0  0  0  0  0  0  0  0  0  0
  133.7500  122.6960   62.5590 F   0  0  0  0  0  0  0  0  0  0  0  0
  133.4040  121.9610   60.5670 F   0  0  0  0  0  0  0  0  0  0  0  0
  135.0200  123.3570   60.9530 F   0  0  0  0  0  0  0  0  0  0  0  0
  132.6010  124.6840   59.6320 C   0  0  0  0  0  0  0  0  0  0  0  0
  133.2750  124.0600   58.4890 C   0  0  0  0  0  0  0  0  0  0  0  0
  133.8060  123.5660   57.5860 N   0  0  0  0  0  0  0  0  0  0  0  0
  1  2  1  0
  2  3  1  0
  3  4  1  0
  4  5  1  0
  5  6  1  0
  6  7  1  0
  7  8  1  0
  8  9  1  0
  9 10  1  0
 10 11  1  0
 11 12  1  0
 12 13  2  0
 12 14  1  0
 14 15  1  0
 15 16  1  0
 16 17  2  0
 17 18  1  0
 18 19  1  0
 18 20  2  0
 20 21  1  0
 21 22  1  0
 22 23  1  0
 22 24  1  0
 22 25  1  0
 21 26  2  0
 26 27  1  0
 27 28  3  0
 26 16  1  0
M  END
>  <Binding energies>  (26) 
[-5.31]

>  <Ligand effiencies>  (26) 
[-0.18310344827586206]

>  <Interactions>  (26) 
["V-A:GLU:543:CD:4908, V-B:GLU:543:CD:9880, V-B:ILE:538:CB:9834, V-B:ALA:541:CB:9864, V-B:TYR:539:C:9839, V-B:PRO:540:CA:9855, V-B:PRO:540:CD:9859, V-B:GLU:543:CG:9879, H-B:TYR:539:N:9842, V-B:PRO:540:N:9856, V-B:TYR:539:CD2:9846, V-A:LEU:475:CD1:4258, V-B:ILE:538:CG2:9835, V-B:TYR:539:CE2:9848, V-A:ASP:366:CB:3212, V-A:ASP:366:CG:3213, V-B:ILE:538:CA:9832, V-B:TYR:539:CE1:9847, V-B:TYR:539:CG:9844, V-B:TYR:539:CZ:9849, V-A:ILE:369:CD1:3239, V-B:TYR:539:CD1:9845, H-B:ALA:541:N:9863, V-A:ILE:369:CG2:3237, V-A:GLY:454:CA:4049, H-A:TYR:531:OH:4795, H-B:TYR:539:OH:9850, V-A:ASP:366:CA:3210, V-A:ILE:369:CB:3236, V-A:ILE:369:CG1:3238"]

$$$$
3aa_Grossjean_2025
     RDKit          3D

 34 36  0  0  0  0  0  0  0  0999 V2000
  132.2750  132.0590   56.4970 C   0  0  0  0  0  0  0  0  0  0  0  0
  131.9120  132.9100   55.2760 C   0  0  0  0  0  0  0  0  0  0  0  0
  130.4980  132.9710   55.1440 O   0  0  0  0  0  0  0  0  0  0  0  0
  129.6840  132.3870   56.0600 C   0  0  0  0  0  0  0  0  0  0  0  0
  129.3300  132.9410   57.1060 O   0  0  0  0  0  0  0  0  0  0  0  0
  129.2710  130.9930   55.6850 C   0  0  0  0  0  0  0  0  0  0  0  0
  128.4310  130.2210   56.5020 C   0  0  0  0  0  0  0  0  0  0  0  0
  128.0640  128.9330   56.1220 C   0  0  0  0  0  0  0  0  0  0  0  0
  128.5210  128.3930   54.9190 C   0  0  0  0  0  0  0  0  0  0  0  0
  128.0870  127.0840   54.6270 N   0  0  0  0  0  0  0  0  0  0  0  0
  128.8120  125.9820   54.3370 C   0  0  0  0  0  0  0  0  0  0  0  0
  130.0400  125.9360   54.2520 O   0  0  0  0  0  0  0  0  0  0  0  0
  128.0040  124.7080   54.0890 C   0  0  0  0  0  0  0  0  0  0  0  0
  126.2560  124.9180   54.5440 S   0  0  0  0  0  0  0  0  0  0  0  0
  126.2080  125.2360   56.2940 C   0  0  0  0  0  0  0  0  0  0  0  0
  125.9350  126.5260   56.6040 N   0  0  0  0  0  0  0  0  0  0  0  0
  125.8700  126.9050   57.9070 C   0  0  0  0  0  0  0  0  0  0  0  0
  125.5490  128.3460   58.1690 C   0  0  0  0  0  0  0  0  0  0  0  0
  124.5660  129.0070   57.4150 C   0  0  0  0  0  0  0  0  0  0  0  0
  124.2610  130.3450   57.6530 C   0  0  0  0  0  0  0  0  0  0  0  0
  124.9360  131.0400   58.6510 C   0  0  0  0  0  0  0  0  0  0  0  0
  125.9120  130.4070   59.4130 C   0  0  0  0  0  0  0  0  0  0  0  0
  126.2130  129.0690   59.1740 C   0  0  0  0  0  0  0  0  0  0  0  0
  126.0750  125.9810   58.9360 C   0  0  0  0  0  0  0  0  0  0  0  0
  126.3770  124.6430   58.6390 C   0  0  0  0  0  0  0  0  0  0  0  0
  126.6070  123.6570   59.8000 C   0  0  0  0  0  0  0  0  0  0  0  0
  127.4270  122.6550   59.4750 F   0  0  0  0  0  0  0  0  0  0  0  0
  127.1460  124.2910   60.8410 F   0  0  0  0  0  0  0  0  0  0  0  0
  125.4450  123.1190   60.1760 F   0  0  0  0  0  0  0  0  0  0  0  0
  126.4590  124.2550   57.2790 C   0  0  0  0  0  0  0  0  0  0  0  0
  126.8280  122.8850   56.9090 C   0  0  0  0  0  0  0  0  0  0  0  0
  127.1190  121.8040   56.6170 N   0  0  0  0  0  0  0  0  0  0  0  0
  129.3730  129.1540   54.1030 C   0  0  0  0  0  0  0  0  0  0  0  0
  129.7400  130.4400   54.4860 C   0  0  0  0  0  0  0  0  0  0  0  0
  1  2  1  0
  2  3  1  0
  3  4  1  0
  4  5  2  0
  4  6  1  0
  6  7  2  0
  7  8  1  0
  8  9  2  0
  9 10  1  0
 10 11  1  0
 11 12  2  0
 11 13  1  0
 13 14  1  0
 14 15  1  0
 15 16  2  0
 16 17  1  0
 17 18  1  0
 18 19  2  0
 19 20  1  0
 20 21  2  0
 21 22  1  0
 22 23  2  0
 17 24  2  0
 24 25  1  0
 25 26  1  0
 26 27  1  0
 26 28  1  0
 26 29  1  0
 25 30  2  0
 30 31  1  0
 31 32  3  0
  9 33  1  0
 33 34  2  0
 34  6  1  0
 30 15  1  0
 23 18  1  0
M  END
>  <Binding energies>  (27) 
[-8.24]

>  <Ligand effiencies>  (27) 
[-0.23542857142857143]

>  <Interactions>  (27) 
["V-B:GLU:543:CD:9880, V-A:ILE:538:CD1:4865, V-A:TYR:539:CZ:4877, H-A:TYR:539:N:4870, V-A:PRO:540:CD:4887, V-A:TYR:539:CE1:4875, V-A:PRO:540:CB:4885, V-A:PRO:540:CA:4883, V-A:PRO:540:N:4884, V-A:LEU:363:CD1:3189, V-A:TYR:539:CE2:4876, V-A:ILE:538:CG2:4863, V-B:PRO:540:C:9853, V-B:TYR:539:C:9839, V-B:PRO:540:CA:9855, V-B:PRO:540:CB:9857, H-B:TYR:539:N:9842, V-B:PRO:540:N:9856, V-A:TYR:539:CG:4872, V-A:TYR:539:CD1:4873, V-A:ILE:538:C:4858, V-A:ILE:538:CA:4860, V-B:ASP:366:CG:8184, V-B:TYR:531:CZ:9766, V-B:ASP:366:CB:8183, H-A:TYR:531:OH:4795, H-B:TYR:539:OH:9850, V-B:ASP:366:CA:8181, V-A:MET:535:CE:4835, H-B:TYR:531:OH:9767, V-A:ILE:538:CB:4862, H-B:MET:535:SD:9806"]

$$$$
3ad_Grossjean_2025
     RDKit          3D

 29 31  0  0  0  0  0  0  0  0999 V2000
  124.1310  131.9110   59.7180 N   0  0  0  0  0  0  0  0  0  0  0  0
  125.2840  131.8300   59.7760 C   0  0  0  0  0  0  0  0  0  0  0  0
  126.7450  131.7310   59.8510 C   0  0  0  0  0  0  0  0  0  0  0  0
  127.5080  132.7440   60.4810 C   0  0  0  0  0  0  0  0  0  0  0  0
  126.8660  133.9700   61.1570 C   0  0  0  0  0  0  0  0  0  0  0  0
  126.0540  133.6410   62.1640 F   0  0  0  0  0  0  0  0  0  0  0  0
  127.8170  134.7670   61.6500 F   0  0  0  0  0  0  0  0  0  0  0  0
  126.1440  134.6570   60.2710 F   0  0  0  0  0  0  0  0  0  0  0  0
  128.9060  132.6240   60.4850 C   0  0  0  0  0  0  0  0  0  0  0  0
  129.5250  131.5280   59.8740 C   0  0  0  0  0  0  0  0  0  0  0  0
  131.0140  131.3590   59.8360 C   0  0  0  0  0  0  0  0  0  0  0  0
  131.6790  131.1340   58.6200 C   0  0  0  0  0  0  0  0  0  0  0  0
  133.0620  130.9770   58.5770 C   0  0  0  0  0  0  0  0  0  0  0  0
  133.8010  131.0440   59.7540 C   0  0  0  0  0  0  0  0  0  0  0  0
  133.1660  131.2690   60.9710 C   0  0  0  0  0  0  0  0  0  0  0  0
  131.7830  131.4260   61.0090 C   0  0  0  0  0  0  0  0  0  0  0  0
  128.7890  130.5640   59.2650 N   0  0  0  0  0  0  0  0  0  0  0  0
  127.4370  130.6470   59.2670 C   0  0  0  0  0  0  0  0  0  0  0  0
  126.6390  129.2910   58.4370 S   0  0  0  0  0  0  0  0  0  0  0  0
  125.7930  129.9740   56.9800 C   0  0  0  0  0  0  0  0  0  0  0  0
  126.7730  130.3550   55.8680 C   0  0  0  0  0  0  0  0  0  0  0  0
  126.4110  130.2650   54.6940 O   0  0  0  0  0  0  0  0  0  0  0  0
  127.9880  130.7700   56.2840 N   0  0  0  0  0  0  0  0  0  0  0  0
  129.0990  131.1990   55.5350 C   0  0  0  0  0  0  0  0  0  0  0  0
  129.9020  132.1700   56.1430 C   0  0  0  0  0  0  0  0  0  0  0  0
  131.0240  132.6670   55.4860 C   0  0  0  0  0  0  0  0  0  0  0  0
  131.3440  132.1970   54.2150 C   0  0  0  0  0  0  0  0  0  0  0  0
  130.5500  131.2360   53.5950 C   0  0  0  0  0  0  0  0  0  0  0  0
  129.4260  130.7360   54.2480 C   0  0  0  0  0  0  0  0  0  0  0  0
  1  2  3  0
  2  3  1  0
  3  4  2  0
  4  5  1  0
  5  6  1  0
  5  7  1  0
  5  8  1  0
  4  9  1  0
  9 10  2  0
 10 11  1  0
 11 12  2  0
 12 13  1  0
 13 14  2  0
 14 15  1  0
 15 16  2  0
 10 17  1  0
 17 18  2  0
 18 19  1  0
 19 20  1  0
 20 21  1  0
 21 22  2  0
 21 23  1  0
 23 24  1  0
 24 25  2  0
 25 26  1  0
 26 27  2  0
 27 28  1  0
 28 29  2  0
 18  3  1  0
 29 24  1  0
 16 11  1  0
M  END
>  <Binding energies>  (28) 
[-7.52]

>  <Ligand effiencies>  (28) 
[-0.25066666666666665]

>  <Interactions>  (28) 
["V-A:ILE:538:CD1:4865, V-A:TYR:539:CD2:4874, V-A:TYR:539:CZ:4877, V-A:PRO:540:CD:4887, V-A:TYR:539:CE1:4875, V-A:TYR:531:CE2:4793, V-A:PRO:540:CB:4885, V-B:PRO:482:CG:9298, V-A:PRO:540:CA:4883, V-A:PRO:540:N:4884, V-B:TRP:381:CH2:8343, V-A:TYR:539:CE2:4876, V-B:LEU:475:CD1:9229, V-A:ALA:541:CB:4892, V-A:TYR:539:CD1:4873, V-A:PRO:540:C:4881, V-A:ASN:362:CB:3176, V-A:ILE:538:CA:4860, V-A:ASP:366:CG:3213, V-A:LEU:363:CA:3185, V-A:MET:535:CB:4832, V-A:ALA:541:CA:4890, V-A:ASN:362:C:3172, H-B:TYR:531:OH:9767, H-A:TYR:539:OH:4878, V-A:MET:535:CG:4833"]

$$$$
3ai_Grossjean_2025
     RDKit          3D

 28 30  0  0  0  0  0  0  0  0999 V2000
  129.9570  124.5040   68.2500 N   0  0  0  0  0  0  0  0  0  0  0  0
  129.3460  125.3150   67.6960 C   0  0  0  0  0  0  0  0  0  0  0  0
  128.5710  126.3420   66.9930 C   0  0  0  0  0  0  0  0  0  0  0  0
  128.9340  126.7560   65.6880 C   0  0  0  0  0  0  0  0  0  0  0  0
  130.1150  126.1340   64.9170 C   0  0  0  0  0  0  0  0  0  0  0  0
  130.3950  126.7860   63.7860 F   0  0  0  0  0  0  0  0  0  0  0  0
  131.2130  126.1520   65.6740 F   0  0  0  0  0  0  0  0  0  0  0  0
  129.8350  124.8730   64.5890 F   0  0  0  0  0  0  0  0  0  0  0  0
  128.1900  127.7760   65.0770 C   0  0  0  0  0  0  0  0  0  0  0  0
  127.1170  128.3690   65.7490 C   0  0  0  0  0  0  0  0  0  0  0  0
  126.2950  129.4700   65.1490 C   0  0  0  0  0  0  0  0  0  0  0  0
  126.9030  130.4960   64.4080 C   0  0  0  0  0  0  0  0  0  0  0  0
  126.1460  131.5180   63.8440 C   0  0  0  0  0  0  0  0  0  0  0  0
  124.7650  131.5280   64.0130 C   0  0  0  0  0  0  0  0  0  0  0  0
  124.1380  130.5220   64.7400 C   0  0  0  0  0  0  0  0  0  0  0  0
  124.8980  129.5010   65.3020 C   0  0  0  0  0  0  0  0  0  0  0  0
  126.7780  127.9760   67.0030 N   0  0  0  0  0  0  0  0  0  0  0  0
  127.4660  126.9750   67.6050 C   0  0  0  0  0  0  0  0  0  0  0  0
  126.8650  126.5810   69.2340 S   0  0  0  0  0  0  0  0  0  0  0  0
  128.2160  126.8940   70.4200 C   0  0  0  0  0  0  0  0  0  0  0  0
  128.4970  125.7460   71.4020 C   0  0  0  0  0  0  0  0  0  0  0  0
  128.2490  125.8700   72.6040 O   0  0  0  0  0  0  0  0  0  0  0  0
  129.0220  124.6360   70.8360 N   0  0  0  0  0  0  0  0  0  0  0  0
  129.3680  123.4510   71.4730 C   0  0  0  0  0  0  0  0  0  0  0  0
  130.5690  123.2780   72.1600 C   0  0  0  0  0  0  0  0  0  0  0  0
  130.5270  121.9870   72.6340 C   0  0  0  0  0  0  0  0  0  0  0  0
  129.3620  121.4120   72.2530 O   0  0  0  0  0  0  0  0  0  0  0  0
  128.6350  122.3510   71.5180 N   0  0  0  0  0  0  0  0  0  0  0  0
  1  2  3  0
  2  3  1  0
  3  4  2  0
  4  5  1  0
  5  6  1  0
  5  7  1  0
  5  8  1  0
  4  9  1  0
  9 10  2  0
 10 11  1  0
 11 12  2  0
 12 13  1  0
 13 14  2  0
 14 15  1  0
 15 16  2  0
 10 17  1  0
 17 18  2  0
 18 19  1  0
 19 20  1  0
 20 21  1  0
 21 22  2  0
 21 23  1  0
 23 24  1  0
 24 25  1  0
 25 26  2  0
 26 27  1  0
 27 28  1  0
 18  3  1  0
 28 24  2  0
 16 11  1  0
M  END
>  <Binding energies>  (29) 
[-7.97]

>  <Ligand effiencies>  (29) 
[-0.27482758620689657]

>  <Interactions>  (29) 
["H-B:LYS:547:NZ:9923, V-B:GLU:543:CB:9878, V-B:HIS:456:CE1:9040, V-B:GLY:544:C:9884, V-A:HIS:456:CD2:4068, H-A:HIS:456:NE2:4070, V-A:GLU:543:CD:4908, V-B:GLU:543:CD:9880, V-B:LEU:475:CD1:9229, V-B:GLU:543:CG:9879, V-A:TYR:484:CE1:4345, V-B:GLU:543:C:9874, V-A:TYR:484:CD1:4343, V-A:TYR:484:CG:4342, V-A:HIS:456:CG:4066, H-B:GLU:543:O:9875, V-A:TYR:484:CB:4341, V-A:TYR:484:CD2:4344, V-A:TYR:484:CE2:4346, H-A:TYR:484:OH:4348, V-A:HIS:456:CE1:4069, V-B:ARG:545:CZ:9898, V-B:GLY:454:CA:9020, V-B:ARG:545:CD:9895, H-B:ARG:545:N:9892"]

$$$$
3aj_Grossjean_2025
     RDKit          3D

 28 30  0  0  0  0  0  0  0  0999 V2000
  124.3560  132.4700   60.0660 N   0  0  0  0  0  0  0  0  0  0  0  0
  125.4970  132.3090   59.9690 C   0  0  0  0  0  0  0  0  0  0  0  0
  126.9440  132.1070   59.8480 C   0  0  0  0  0  0  0  0  0  0  0  0
  127.8540  133.0650   60.3590 C   0  0  0  0  0  0  0  0  0  0  0  0
  127.3940  134.3360   61.1000 C   0  0  0  0  0  0  0  0  0  0  0  0
  126.7740  134.0670   62.2510 F   0  0  0  0  0  0  0  0  0  0  0  0
  128.4460  135.1060   61.3790 F   0  0  0  0  0  0  0  0  0  0  0  0
  126.5430  135.0250   60.3390 F   0  0  0  0  0  0  0  0  0  0  0  0
  129.2280  132.8480   60.1760 C   0  0  0  0  0  0  0  0  0  0  0  0
  129.6810  131.7110   59.4990 C   0  0  0  0  0  0  0  0  0  0  0  0
  131.1360  131.4360   59.2670 C   0  0  0  0  0  0  0  0  0  0  0  0
  132.0220  131.3110   60.3480 C   0  0  0  0  0  0  0  0  0  0  0  0
  133.3740  131.0520   60.1400 C   0  0  0  0  0  0  0  0  0  0  0  0
  133.8590  130.9150   58.8430 C   0  0  0  0  0  0  0  0  0  0  0  0
  133.0010  131.0330   57.7550 C   0  0  0  0  0  0  0  0  0  0  0  0
  131.6500  131.2910   57.9670 C   0  0  0  0  0  0  0  0  0  0  0  0
  128.8050  130.8000   59.0040 N   0  0  0  0  0  0  0  0  0  0  0  0
  127.4750  130.9740   59.1890 C   0  0  0  0  0  0  0  0  0  0  0  0
  126.4840  129.6690   58.4940 S   0  0  0  0  0  0  0  0  0  0  0  0
  125.9730  130.1860   56.8200 C   0  0  0  0  0  0  0  0  0  0  0  0
  127.1270  130.4520   55.8420 C   0  0  0  0  0  0  0  0  0  0  0  0
  127.1390  129.9320   54.7230 O   0  0  0  0  0  0  0  0  0  0  0  0
  128.0870  131.2790   56.3120 N   0  0  0  0  0  0  0  0  0  0  0  0
  129.2290  131.6910   55.6400 C   0  0  0  0  0  0  0  0  0  0  0  0
  129.8260  132.8620   55.7030 N   0  0  0  0  0  0  0  0  0  0  0  0
  130.8950  132.9050   54.9310 C   0  0  0  0  0  0  0  0  0  0  0  0
  131.1840  131.7450   54.2170 C   0  0  0  0  0  0  0  0  0  0  0  0
  129.9850  130.5420   54.5820 S   0  0  0  0  0  0  0  0  0  0  0  0
  1  2  3  0
  2  3  1  0
  3  4  2  0
  4  5  1  0
  5  6  1  0
  5  7  1  0
  5  8  1  0
  4  9  1  0
  9 10  2  0
 10 11  1  0
 11 12  2  0
 12 13  1  0
 13 14  2  0
 14 15  1  0
 15 16  2  0
 10 17  1  0
 17 18  2  0
 18 19  1  0
 19 20  1  0
 20 21  1  0
 21 22  2  0
 21 23  1  0
 23 24  1  0
 24 25  2  0
 25 26  1  0
 26 27  2  0
 27 28  1  0
 18  3  1  0
 28 24  1  0
 16 11  1  0
M  END
>  <Binding energies>  (30) 
[-6.89]

>  <Ligand effiencies>  (30) 
[-0.23758620689655172]

>  <Interactions>  (30) 
["V-A:ILE:538:CD1:4865, V-A:TYR:539:CD2:4874, V-A:TYR:539:C:4867, V-A:TYR:539:CZ:4877, H-A:TYR:539:N:4870, V-A:TYR:539:CE1:4875, V-A:TYR:531:CE2:4793, V-A:PRO:540:CB:4885, V-B:PRO:482:CG:9298, V-A:PRO:540:CA:4883, V-A:PRO:540:N:4884, V-A:LEU:363:CD1:3189, V-B:TRP:381:CH2:8343, V-A:TYR:539:CE2:4876, V-B:LEU:475:CD1:9229, V-A:ALA:541:CB:4892, V-A:TYR:539:CD1:4873, V-A:PRO:540:C:4881, V-A:ASN:362:CB:3176, V-A:ILE:538:C:4858, V-A:ILE:538:CA:4860, V-A:LEU:363:CB:3187, V-A:ASP:366:CG:3213, V-A:LEU:363:CA:3185, V-A:ALA:541:CA:4890, V-A:ASN:362:C:3172, H-B:TYR:531:OH:9767, H-A:TYR:539:OH:4878"]

$$$$
3ak_Grossjean_2025
     RDKit          3D

 33 34  0  0  0  0  0  0  0  0999 V2000
  126.4930  123.4020   60.5110 C   0  0  0  0  0  0  0  0  0  0  0  0
  127.4400  122.4150   60.1330 O   0  0  0  0  0  0  0  0  0  0  0  0
  127.8490  122.5150   58.7760 C   0  0  0  0  0  0  0  0  0  0  0  0
  126.6210  122.8000   57.9030 C   0  0  0  0  0  0  0  0  0  0  0  0
  126.9130  122.4300   56.5590 O   0  0  0  0  0  0  0  0  0  0  0  0
  127.4790  123.4560   55.7480 C   0  0  0  0  0  0  0  0  0  0  0  0
  126.7800  123.6270   54.3870 C   0  0  0  0  0  0  0  0  0  0  0  0
  125.6470  124.4690   54.5460 O   0  0  0  0  0  0  0  0  0  0  0  0
  124.6370  123.9250   55.3850 C   0  0  0  0  0  0  0  0  0  0  0  0
  124.3880  124.8530   56.5880 C   0  0  0  0  0  0  0  0  0  0  0  0
  125.2560  126.0320   56.6070 N   0  0  0  0  0  0  0  0  0  0  0  0
  125.8740  126.5410   57.6900 C   0  0  0  0  0  0  0  0  0  0  0  0
  125.7800  126.0360   58.8100 O   0  0  0  0  0  0  0  0  0  0  0  0
  126.7340  127.8060   57.5270 C   0  0  0  0  0  0  0  0  0  0  0  0
  125.8330  129.3920   57.3660 S   0  0  0  0  0  0  0  0  0  0  0  0
  126.8860  130.7110   57.9500 C   0  0  0  0  0  0  0  0  0  0  0  0
  127.9920  130.9520   57.2040 N   0  0  0  0  0  0  0  0  0  0  0  0
  128.8570  131.9320   57.5710 C   0  0  0  0  0  0  0  0  0  0  0  0
  130.0530  132.1310   56.6890 C   0  0  0  0  0  0  0  0  0  0  0  0
  131.3530  132.0300   57.2080 C   0  0  0  0  0  0  0  0  0  0  0  0
  132.4670  132.2100   56.3920 C   0  0  0  0  0  0  0  0  0  0  0  0
  132.2950  132.4920   55.0410 C   0  0  0  0  0  0  0  0  0  0  0  0
  131.0180  132.5940   54.5010 C   0  0  0  0  0  0  0  0  0  0  0  0
  129.9060  132.4130   55.3190 C   0  0  0  0  0  0  0  0  0  0  0  0
  128.6160  132.7130   58.7070 C   0  0  0  0  0  0  0  0  0  0  0  0
  127.4790  132.4850   59.4950 C   0  0  0  0  0  0  0  0  0  0  0  0
  127.2490  133.3650   60.7390 C   0  0  0  0  0  0  0  0  0  0  0  0
  126.1400  134.0900   60.5880 F   0  0  0  0  0  0  0  0  0  0  0  0
  127.1190  132.5990   61.8230 F   0  0  0  0  0  0  0  0  0  0  0  0
  128.2540  134.2130   60.9680 F   0  0  0  0  0  0  0  0  0  0  0  0
  126.5860  131.4560   59.1120 C   0  0  0  0  0  0  0  0  0  0  0  0
  125.3810  131.1730   59.8980 C   0  0  0  0  0  0  0  0  0  0  0  0
  124.4300  130.9480   60.5200 N   0  0  0  0  0  0  0  0  0  0  0  0
  1  2  1  0
  2  3  1  0
  3  4  1  0
  4  5  1  0
  5  6  1  0
  6  7  1  0
  7  8  1  0
  8  9  1  0
  9 10  1  0
 10 11  1  0
 11 12  1  0
 12 13  2  0
 12 14  1  0
 14 15  1  0
 15 16  1  0
 16 17  2  0
 17 18  1  0
 18 19  1  0
 19 20  2  0
 20 21  1  0
 21 22  2  0
 22 23  1  0
 23 24  2  0
 18 25  2  0
 25 26  1  0
 26 27  1  0
 27 28  1  0
 27 29  1  0
 27 30  1  0
 26 31  2  0
 31 32  1  0
 32 33  3  0
 31 16  1  0
 24 19  1  0
M  END
>  <Binding energies>  (31) 
[-7.16]

>  <Ligand effiencies>  (31) 
[-0.21058823529411766]

>  <Interactions>  (31) 
["V-B:GLU:543:CD:9880, V-A:ILE:538:CD1:4865, V-A:TYR:539:CD2:4874, V-A:TYR:539:C:4867, V-A:TYR:539:CZ:4877, V-A:PRO:540:CD:4887, V-A:TYR:539:CE1:4875, V-A:TYR:531:CE2:4793, V-A:PRO:540:CB:4885, V-A:PRO:540:CA:4883, V-A:PRO:540:N:4884, V-A:LEU:363:CD1:3189, V-A:TYR:539:CE2:4876, V-A:ILE:538:CG2:4863, V-A:ALA:541:CB:4892, V-B:ILE:538:CB:9834, V-B:TYR:539:C:9839, V-B:PRO:540:CA:9855, V-B:PRO:540:CB:9857, H-B:TYR:539:N:9842, V-B:PRO:540:N:9856, V-B:TYR:539:CD2:9846, V-B:LEU:363:CD1:8160, V-B:ILE:538:CG2:9835, V-B:TYR:539:CE2:9848, V-A:TYR:539:CG:4872, V-A:TYR:539:CD1:4873, V-A:PRO:540:C:4881, V-A:PRO:540:CG:4886, V-A:ILE:538:CA:4860, V-B:ILE:538:CA:9832, V-B:TYR:539:CE1:9847, V-B:TYR:531:CZ:9766, V-B:TYR:531:CE2:9765, V-B:TYR:539:CZ:9849, H-B:ALA:541:N:9863, V-A:ALA:541:CA:4890, H-B:TYR:531:OH:9767, H-A:TYR:539:OH:4878"]

$$$$
3bk_Grossjean_2025
     RDKit          3D

 30 31  0  0  0  0  0  0  0  0999 V2000
  127.0780  122.4310   57.4060 C   0  0  0  0  0  0  0  0  0  0  0  0
  126.6550  122.0780   56.0980 O   0  0  0  0  0  0  0  0  0  0  0  0
  127.2500  122.8680   55.0780 C   0  0  0  0  0  0  0  0  0  0  0  0
  127.1140  124.3550   55.4320 C   0  0  0  0  0  0  0  0  0  0  0  0
  128.2980  124.7950   56.0820 O   0  0  0  0  0  0  0  0  0  0  0  0
  128.5000  126.2010   56.0180 C   0  0  0  0  0  0  0  0  0  0  0  0
  127.6600  126.8830   57.1060 C   0  0  0  0  0  0  0  0  0  0  0  0
  126.8020  127.8440   56.5050 O   0  0  0  0  0  0  0  0  0  0  0  0
  125.9980  128.5580   57.4350 C   0  0  0  0  0  0  0  0  0  0  0  0
  126.2510  130.0650   57.2780 C   0  0  0  0  0  0  0  0  0  0  0  0
  127.5050  130.3490   56.5790 N   0  0  0  0  0  0  0  0  0  0  0  0
  127.6550  130.4280   55.2460 C   0  0  0  0  0  0  0  0  0  0  0  0
  126.7310  130.2840   54.4440 O   0  0  0  0  0  0  0  0  0  0  0  0
  129.0640  130.7420   54.7350 C   0  0  0  0  0  0  0  0  0  0  0  0
  129.7250  132.2750   55.4600 S   0  0  0  0  0  0  0  0  0  0  0  0
  129.8180  132.0870   57.2330 C   0  0  0  0  0  0  0  0  0  0  0  0
  128.7440  132.5320   57.9340 N   0  0  0  0  0  0  0  0  0  0  0  0
  128.7270  132.4320   59.2890 C   0  0  0  0  0  0  0  0  0  0  0  0
  127.4950  132.9280   59.9830 C   0  0  0  0  0  0  0  0  0  0  0  0
  127.5010  134.1500   60.6730 C   0  0  0  0  0  0  0  0  0  0  0  0
  126.3600  134.6120   61.3240 C   0  0  0  0  0  0  0  0  0  0  0  0
  125.1930  133.8570   61.2930 C   0  0  0  0  0  0  0  0  0  0  0  0
  125.1580  132.6440   60.6120 C   0  0  0  0  0  0  0  0  0  0  0  0
  126.3010  132.1860   59.9620 C   0  0  0  0  0  0  0  0  0  0  0  0
  129.8060  131.8690   59.9800 C   0  0  0  0  0  0  0  0  0  0  0  0
  130.9220  131.4070   59.2740 C   0  0  0  0  0  0  0  0  0  0  0  0
  132.0780  130.7990   60.0670 C   0  0  0  0  0  0  0  0  0  0  0  0
  130.9410  131.5130   57.8670 C   0  0  0  0  0  0  0  0  0  0  0  0
  132.0950  131.0350   57.1010 C   0  0  0  0  0  0  0  0  0  0  0  0
  133.0070  130.6580   56.4960 N   0  0  0  0  0  0  0  0  0  0  0  0
  1  2  1  0
  2  3  1  0
  3  4  1  0
  4  5  1  0
  5  6  1  0
  6  7  1  0
  7  8  1  0
  8  9  1  0
  9 10  1  0
 10 11  1  0
 11 12  1  0
 12 13  2  0
 12 14  1  0
 14 15  1  0
 15 16  1  0
 16 17  2  0
 17 18  1  0
 18 19  1  0
 19 20  2  0
 20 21  1  0
 21 22  2  0
 22 23  1  0
 23 24  2  0
 18 25  2  0
 25 26  1  0
 26 27  1  0
 26 28  2  0
 28 29  1  0
 29 30  3  0
 28 16  1  0
 24 19  1  0
M  END
>  <Binding energies>  (32) 
[-6.77]

>  <Ligand effiencies>  (32) 
[-0.21838709677419355]

>  <Interactions>  (32) 
["V-A:TYR:539:CD2:4874, V-A:TYR:539:C:4867, V-A:TYR:539:CZ:4877, V-A:TYR:539:CE1:4875, V-A:PRO:540:CB:4885, V-A:PRO:540:CA:4883, V-A:PRO:540:N:4884, V-A:TYR:539:CE2:4876, V-B:LEU:475:CD1:9229, V-B:ILE:538:CB:9834, V-B:TYR:539:C:9839, V-B:PRO:540:CA:9855, V-B:PRO:540:CD:9859, H-B:TYR:539:N:9842, V-B:PRO:540:N:9856, V-B:TYR:539:CD2:9846, V-B:ILE:538:CG2:9835, V-B:TYR:539:CE2:9848, V-B:ILE:538:CA:9832, V-B:TYR:539:CE1:9847, V-B:TYR:539:CZ:9849, V-B:TYR:539:CD1:9845, H-A:TYR:531:OH:4795, H-B:TYR:539:OH:9850, H-B:TYR:531:OH:9767, H-A:TYR:539:OH:4878"]

$$$$
3cb_Grossjean_2025
     RDKit          3D

 30 32  0  0  0  0  0  0  0  0999 V2000
  129.3730  132.5750   57.7810 C   0  0  0  0  0  0  0  0  0  0  0  0
  129.5310  133.0170   56.4410 O   0  0  0  0  0  0  0  0  0  0  0  0
  130.3650  132.3720   55.5850 C   0  0  0  0  0  0  0  0  0  0  0  0
  131.3310  132.9130   55.0380 O   0  0  0  0  0  0  0  0  0  0  0  0
  129.9960  130.9320   55.3690 C   0  0  0  0  0  0  0  0  0  0  0  0
  129.3670  130.4940   54.1930 C   0  0  0  0  0  0  0  0  0  0  0  0
  129.0400  129.1520   54.0240 C   0  0  0  0  0  0  0  0  0  0  0  0
  129.3280  128.2210   55.0220 C   0  0  0  0  0  0  0  0  0  0  0  0
  128.9560  126.8900   54.7440 N   0  0  0  0  0  0  0  0  0  0  0  0
  129.7250  125.7950   54.5630 C   0  0  0  0  0  0  0  0  0  0  0  0
  130.9550  125.7760   54.6340 O   0  0  0  0  0  0  0  0  0  0  0  0
  128.9400  124.5080   54.2670 C   0  0  0  0  0  0  0  0  0  0  0  0
  127.1260  124.7080   54.2140 S   0  0  0  0  0  0  0  0  0  0  0  0
  126.5940  125.2710   55.8180 C   0  0  0  0  0  0  0  0  0  0  0  0
  126.7460  126.6050   55.9990 N   0  0  0  0  0  0  0  0  0  0  0  0
  126.3750  127.1460   57.1810 C   0  0  0  0  0  0  0  0  0  0  0  0
  126.5620  128.6450   57.3080 C   0  0  0  0  0  0  0  0  0  0  0  0
  125.8470  126.3850   58.2200 C   0  0  0  0  0  0  0  0  0  0  0  0
  125.6950  125.0020   58.0610 C   0  0  0  0  0  0  0  0  0  0  0  0
  125.1290  124.2280   59.2090 C   0  0  0  0  0  0  0  0  0  0  0  0
  125.9780  123.5100   60.0610 C   0  0  0  0  0  0  0  0  0  0  0  0
  125.4620  122.7960   61.1390 C   0  0  0  0  0  0  0  0  0  0  0  0
  124.0890  122.7990   61.3720 C   0  0  0  0  0  0  0  0  0  0  0  0
  123.2320  123.5130   60.5400 C   0  0  0  0  0  0  0  0  0  0  0  0
  123.7510  124.2280   59.4640 C   0  0  0  0  0  0  0  0  0  0  0  0
  126.0930  124.4170   56.8310 C   0  0  0  0  0  0  0  0  0  0  0  0
  126.0440  122.9630   56.6440 C   0  0  0  0  0  0  0  0  0  0  0  0
  126.0050  121.8170   56.4960 N   0  0  0  0  0  0  0  0  0  0  0  0
  129.9600  128.6500   56.1990 C   0  0  0  0  0  0  0  0  0  0  0  0
  130.2880  129.9930   56.3670 C   0  0  0  0  0  0  0  0  0  0  0  0
  1  2  1  0
  2  3  1  0
  3  4  2  0
  3  5  1  0
  5  6  2  0
  6  7  1  0
  7  8  2  0
  8  9  1  0
  9 10  1  0
 10 11  2  0
 10 12  1  0
 12 13  1  0
 13 14  1  0
 14 15  2  0
 15 16  1  0
 16 17  1  0
 16 18  2  0
 18 19  1  0
 19 20  1  0
 20 21  2  0
 21 22  1  0
 22 23  2  0
 23 24  1  0
 24 25  2  0
 19 26  2  0
 26 27  1  0
 27 28  3  0
  8 29  1  0
 29 30  2  0
 30  5  1  0
 26 14  1  0
 25 20  1  0
M  END
>  <Binding energies>  (33) 
[-9.13]

>  <Ligand effiencies>  (33) 
[-0.2945161290322581]

>  <Interactions>  (33) 
["V-B:GLU:543:CD:9880, V-A:TYR:539:CD2:4874, V-A:TYR:539:C:4867, H-A:TYR:539:N:4870, V-A:PRO:540:CA:4883, V-A:PRO:540:N:4884, V-B:PRO:540:C:9853, V-B:PRO:540:CA:9855, V-B:PRO:540:CB:9857, V-B:PRO:540:CD:9859, V-B:GLU:543:CG:9879, H-B:TYR:539:N:9842, V-B:PRO:540:N:9856, V-B:LEU:363:CD1:8160, V-A:TYR:539:CG:4872, V-A:TYR:539:CD1:4873, V-B:ALA:541:CA:9862, V-B:TYR:539:CE1:9847, V-B:ASP:366:CG:8184, V-B:TYR:539:CZ:9849, V-B:LEU:363:CA:8156, H-A:TYR:531:OH:4795, H-B:TYR:539:OH:9850, H-A:ASN:370:ND2:3248, V-A:MET:535:CE:4835, H-B:TYR:531:OH:9767, V-B:ASN:362:C:8143, V-B:ASN:362:CB:8147, H-B:MET:535:SD:9806"]

$$$$
3ch_Grossjean_2025
     RDKit          3D

 32 34  0  0  0  0  0  0  0  0999 V2000
  128.2410  126.7690   54.9730 C   0  0  0  0  0  0  0  0  0  0  0  0
  129.0820  125.6900   55.3680 O   0  0  0  0  0  0  0  0  0  0  0  0
  128.6480  124.8050   56.3390 C   0  0  0  0  0  0  0  0  0  0  0  0
  129.1230  124.7940   57.6600 C   0  0  0  0  0  0  0  0  0  0  0  0
  128.6290  123.8720   58.5940 C   0  0  0  0  0  0  0  0  0  0  0  0
  129.0390  123.7870   59.9380 N   0  0  0  0  0  0  0  0  0  0  0  0
  128.4920  123.0990   60.9650 C   0  0  0  0  0  0  0  0  0  0  0  0
  127.4950  122.3810   60.8930 O   0  0  0  0  0  0  0  0  0  0  0  0
  129.2250  123.2170   62.3010 C   0  0  0  0  0  0  0  0  0  0  0  0
  130.3610  124.6340   62.3380 S   0  0  0  0  0  0  0  0  0  0  0  0
  129.5850  125.8620   63.3670 C   0  0  0  0  0  0  0  0  0  0  0  0
  129.3030  127.0210   62.7220 N   0  0  0  0  0  0  0  0  0  0  0  0
  128.7180  128.0220   63.4180 C   0  0  0  0  0  0  0  0  0  0  0  0
  128.4350  129.2910   62.6380 C   0  0  0  0  0  0  0  0  0  0  0  0
  128.3980  127.9090   64.7690 C   0  0  0  0  0  0  0  0  0  0  0  0
  128.6750  126.7170   65.4510 C   0  0  0  0  0  0  0  0  0  0  0  0
  128.3220  126.6450   66.9020 C   0  0  0  0  0  0  0  0  0  0  0  0
  129.3020  126.3220   67.8490 C   0  0  0  0  0  0  0  0  0  0  0  0
  128.9790  126.2450   69.2010 C   0  0  0  0  0  0  0  0  0  0  0  0
  127.6710  126.4890   69.6120 C   0  0  0  0  0  0  0  0  0  0  0  0
  126.6840  126.8050   68.6830 C   0  0  0  0  0  0  0  0  0  0  0  0
  127.0100  126.8790   67.3310 C   0  0  0  0  0  0  0  0  0  0  0  0
  129.2700  125.6500   64.7300 C   0  0  0  0  0  0  0  0  0  0  0  0
  129.4960  124.3500   65.3680 C   0  0  0  0  0  0  0  0  0  0  0  0
  129.6750  123.3230   65.8710 N   0  0  0  0  0  0  0  0  0  0  0  0
  127.6660  122.9450   58.1900 C   0  0  0  0  0  0  0  0  0  0  0  0
  127.1770  122.9350   56.8740 C   0  0  0  0  0  0  0  0  0  0  0  0
  126.2190  122.0490   56.4120 O   0  0  0  0  0  0  0  0  0  0  0  0
  124.9000  122.5180   56.1510 C   0  0  0  0  0  0  0  0  0  0  0  0
  127.6780  123.8690   55.9580 C   0  0  0  0  0  0  0  0  0  0  0  0
  127.1940  123.8820   54.6710 O   0  0  0  0  0  0  0  0  0  0  0  0
  128.0140  123.1920   53.7370 C   0  0  0  0  0  0  0  0  0  0  0  0
  1  2  1  0
  2  3  1  0
  3  4  2  0
  4  5  1  0
  5  6  1  0
  6  7  1  0
  7  8  2  0
  7  9  1  0
  9 10  1  0
 10 11  1  0
 11 12  2  0
 12 13  1  0
 13 14  1  0
 13 15  2  0
 15 16  1  0
 16 17  1  0
 17 18  2  0
 18 19  1  0
 19 20  2  0
 20 21  1  0
 21 22  2  0
 16 23  2  0
 23 24  1  0
 24 25  3  0
  5 26  2  0
 26 27  1  0
 27 28  1  0
 28 29  1  0
 27 30  2  0
 30 31  1  0
 31 32  1  0
 30  3  1  0
 23 11  1  0
 22 17  1  0
M  END
>  <Binding energies>  (34) 
[-7.43]

>  <Ligand effiencies>  (34) 
[-0.22515151515151513]

>  <Interactions>  (34) 
["V-B:GLU:543:CB:9878, V-B:HIS:456:CE1:9040, V-B:GLY:544:C:9884, V-A:GLU:543:CD:4908, V-B:GLU:543:CD:9880, V-B:ILE:538:CB:9834, V-B:ALA:541:CB:9864, V-B:TYR:539:C:9839, V-B:PRO:540:CA:9855, V-B:PRO:540:CB:9857, V-B:PRO:540:CD:9859, V-B:GLU:543:CG:9879, H-B:TYR:539:N:9842, V-B:PRO:540:N:9856, V-B:TYR:539:CD2:9846, V-B:LEU:363:CD1:8160, V-B:ILE:538:CG2:9835, V-B:TYR:539:CE2:9848, V-B:ILE:538:CA:9832, V-B:TYR:539:CE1:9847, V-B:TYR:539:CZ:9849, V-B:TYR:539:CD1:9845, H-B:ALA:541:N:9863, V-B:ARG:545:CA:9891, V-B:ARG:545:CG:9894, H-A:TYR:484:OH:4348, V-A:HIS:456:CE1:4069, V-B:PRO:540:CG:9858, H-B:TYR:539:OH:9850, V-B:GLU:543:CA:9876"]

$$$$
3ci_Grossjean_2025
     RDKit          3D

 25 27  0  0  0  0  0  0  0  0999 V2000
  128.3390  132.9950   60.9890 C   0  0  0  0  0  0  0  0  0  0  0  0
  128.0810  132.3470   59.6420 C   0  0  0  0  0  0  0  0  0  0  0  0
  128.9990  132.4370   58.6000 C   0  0  0  0  0  0  0  0  0  0  0  0
  128.7230  131.8070   57.3780 C   0  0  0  0  0  0  0  0  0  0  0  0
  129.7440  131.9180   56.2930 C   0  0  0  0  0  0  0  0  0  0  0  0
  131.0850  131.5960   56.5350 C   0  0  0  0  0  0  0  0  0  0  0  0
  132.0340  131.7100   55.5220 C   0  0  0  0  0  0  0  0  0  0  0  0
  131.6450  132.1530   54.2610 C   0  0  0  0  0  0  0  0  0  0  0  0
  130.3170  132.4860   54.0060 C   0  0  0  0  0  0  0  0  0  0  0  0
  129.3710  132.3710   55.0210 C   0  0  0  0  0  0  0  0  0  0  0  0
  127.5000  131.1020   57.2440 C   0  0  0  0  0  0  0  0  0  0  0  0
  127.1380  130.4590   55.9760 C   0  0  0  0  0  0  0  0  0  0  0  0
  126.8540  129.9520   54.9750 N   0  0  0  0  0  0  0  0  0  0  0  0
  126.6260  131.0550   58.3570 C   0  0  0  0  0  0  0  0  0  0  0  0
  125.0690  130.1770   58.3070 S   0  0  0  0  0  0  0  0  0  0  0  0
  123.7220  131.2960   58.8130 C   0  0  0  0  0  0  0  0  0  0  0  0
  123.6900  131.5650   60.3220 C   0  0  0  0  0  0  0  0  0  0  0  0
  123.3880  132.6900   60.7270 O   0  0  0  0  0  0  0  0  0  0  0  0
  124.0200  130.5190   61.1120 N   0  0  0  0  0  0  0  0  0  0  0  0
  124.0430  130.4880   62.4990 C   0  0  0  0  0  0  0  0  0  0  0  0
  125.1780  130.7950   63.2480 C   0  0  0  0  0  0  0  0  0  0  0  0
  124.7920  130.6440   64.5610 C   0  0  0  0  0  0  0  0  0  0  0  0
  123.4920  130.2660   64.5990 O   0  0  0  0  0  0  0  0  0  0  0  0
  123.0290  130.1690   63.2860 N   0  0  0  0  0  0  0  0  0  0  0  0
  126.9150  131.6750   59.5300 N   0  0  0  0  0  0  0  0  0  0  0  0
  1  2  1  0
  2  3  2  0
  3  4  1  0
  4  5  1  0
  5  6  2  0
  6  7  1  0
  7  8  2  0
  8  9  1  0
  9 10  2  0
  4 11  2  0
 11 12  1  0
 12 13  3  0
 11 14  1  0
 14 15  1  0
 15 16  1  0
 16 17  1  0
 17 18  2  0
 17 19  1  0
 19 20  1  0
 20 21  1  0
 21 22  2  0
 22 23  1  0
 23 24  1  0
 14 25  2  0
 25  2  1  0
 10  5  1  0
 24 20  2  0
M  END
>  <Binding energies>  (35) 
[-8.41]

>  <Ligand effiencies>  (35) 
[-0.32346153846153847]

>  <Interactions>  (35) 
["V-A:ILE:538:CD1:4865, V-A:TYR:539:CD2:4874, V-A:TYR:539:C:4867, V-A:TYR:539:CZ:4877, V-A:TYR:539:CE1:4875, V-A:TYR:531:CE2:4793, V-A:PRO:540:CA:4883, V-A:PRO:540:N:4884, V-A:LEU:363:CD1:3189, V-A:TYR:539:CE2:4876, V-B:ILE:369:CG2:8208, V-A:ALA:541:CB:4892, V-B:ILE:369:CD1:8210, V-A:TYR:539:CD1:4873, V-A:ILE:538:CA:4860, V-B:ASP:366:CG:8184, V-B:ASP:366:CB:8183, H-B:ASP:366:OD1:8185, H-B:ARG:545:NH1:9899, H-B:ARG:545:NH2:9900, V-B:ARG:545:CZ:9898, H-B:GLY:454:N:9021, V-B:GLY:454:CA:9020, H-B:ARG:545:NE:9896, V-B:ASP:366:CA:8181, H-B:TYR:531:OH:9767, H-A:TYR:539:OH:4878, H-B:ASP:366:OD2:8186"]

$$$$
3ck_Grossjean_2025
     RDKit          3D

 30 31  0  0  0  0  0  0  0  0999 V2000
  124.1300  125.1200   56.9620 C   0  0  0  0  0  0  0  0  0  0  0  0
  124.8340  125.2770   55.7400 O   0  0  0  0  0  0  0  0  0  0  0  0
  125.5160  124.1010   55.3250 C   0  0  0  0  0  0  0  0  0  0  0  0
  125.0490  122.9100   56.1720 C   0  0  0  0  0  0  0  0  0  0  0  0
  126.1480  122.0400   56.4070 O   0  0  0  0  0  0  0  0  0  0  0  0
  127.4140  122.6860   56.3640 C   0  0  0  0  0  0  0  0  0  0  0  0
  127.8220  123.0860   57.7870 C   0  0  0  0  0  0  0  0  0  0  0  0
  126.9330  124.0960   58.2400 O   0  0  0  0  0  0  0  0  0  0  0  0
  127.5370  125.3610   58.4690 C   0  0  0  0  0  0  0  0  0  0  0  0
  127.6130  126.1430   57.1440 C   0  0  0  0  0  0  0  0  0  0  0  0
  126.5350  127.1220   56.9740 N   0  0  0  0  0  0  0  0  0  0  0  0
  126.2270  128.1070   57.8360 C   0  0  0  0  0  0  0  0  0  0  0  0
  126.8520  128.3140   58.8780 O   0  0  0  0  0  0  0  0  0  0  0  0
  125.0280  128.9840   57.4380 C   0  0  0  0  0  0  0  0  0  0  0  0
  124.9390  130.6100   58.2650 S   0  0  0  0  0  0  0  0  0  0  0  0
  126.5880  131.2790   58.4210 C   0  0  0  0  0  0  0  0  0  0  0  0
  126.8990  131.7940   59.6370 N   0  0  0  0  0  0  0  0  0  0  0  0
  128.1290  132.3220   59.8250 C   0  0  0  0  0  0  0  0  0  0  0  0
  128.4020  132.8800   61.2080 C   0  0  0  0  0  0  0  0  0  0  0  0
  129.0910  132.3590   58.8190 C   0  0  0  0  0  0  0  0  0  0  0  0
  128.7900  131.8380   57.5530 C   0  0  0  0  0  0  0  0  0  0  0  0
  129.8450  131.9200   56.4990 C   0  0  0  0  0  0  0  0  0  0  0  0
  131.1380  131.4510   56.7590 C   0  0  0  0  0  0  0  0  0  0  0  0
  132.1290  131.5330   55.7830 C   0  0  0  0  0  0  0  0  0  0  0  0
  131.8300  132.0930   54.5440 C   0  0  0  0  0  0  0  0  0  0  0  0
  130.5510  132.5720   54.2730 C   0  0  0  0  0  0  0  0  0  0  0  0
  129.5630  132.4880   55.2500 C   0  0  0  0  0  0  0  0  0  0  0  0
  127.5070  131.2700   57.3460 C   0  0  0  0  0  0  0  0  0  0  0  0
  127.1510  130.6730   56.0540 C   0  0  0  0  0  0  0  0  0  0  0  0
  126.8710  130.2010   55.0350 N   0  0  0  0  0  0  0  0  0  0  0  0
  1  2  1  0
  2  3  1  0
  3  4  1  0
  4  5  1  0
  5  6  1  0
  6  7  1  0
  7  8  1  0
  8  9  1  0
  9 10  1  0
 10 11  1  0
 11 12  1  0
 12 13  2  0
 12 14  1  0
 14 15  1  0
 15 16  1  0
 16 17  2  0
 17 18  1  0
 18 19  1  0
 18 20  2  0
 20 21  1  0
 21 22  1  0
 22 23  2  0
 23 24  1  0
 24 25  2  0
 25 26  1  0
 26 27  2  0
 21 28  2  0
 28 29  1  0
 29 30  3  0
 28 16  1  0
 27 22  1  0
M  END
>  <Binding energies>  (36) 
[-6.44]

>  <Ligand effiencies>  (36) 
[-0.207741935483871]

>  <Interactions>  (36) 
["V-A:ILE:538:CD1:4865, V-A:TYR:539:C:4867, V-A:TYR:539:CZ:4877, V-A:TYR:539:CE1:4875, V-A:TYR:531:CE2:4793, V-A:PRO:540:CA:4883, V-A:PRO:540:N:4884, V-A:LEU:363:CD1:3189, V-A:TYR:539:CE2:4876, V-A:ALA:541:CB:4892, V-B:ILE:538:CB:9834, V-B:PRO:540:CD:9859, H-B:TYR:539:N:9842, V-B:TYR:539:CD2:9846, V-B:LEU:363:CD1:8160, V-B:ILE:538:CG2:9835, V-B:TYR:539:CE2:9848, V-A:TYR:539:CG:4872, V-A:TYR:539:CD1:4873, V-A:ILE:538:CA:4860, V-B:TYR:539:CE1:9847, V-B:TYR:539:CG:9844, V-B:ASP:366:CG:8184, V-B:TYR:531:CZ:9766, V-B:ASP:366:CB:8183, V-B:TYR:531:CE2:9765, V-B:TYR:539:CZ:9849, V-B:TYR:539:CD1:9845, H-B:TYR:531:OH:9767, H-A:TYR:539:OH:4878"]

$$$$
4aa_Grossjean_2025
     RDKit          3D

 26 28  0  0  0  0  0  0  0  0999 V2000
  126.3280  126.9190   67.9550 C   0  0  0  0  0  0  0  0  0  0  0  0
  126.4010  128.0830   66.9620 C   0  0  0  0  0  0  0  0  0  0  0  0
  125.1030  128.3440   66.4440 O   0  0  0  0  0  0  0  0  0  0  0  0
  124.8030  129.5400   65.8750 C   0  0  0  0  0  0  0  0  0  0  0  0
  123.8530  130.2450   66.2320 O   0  0  0  0  0  0  0  0  0  0  0  0
  125.7390  129.9200   64.7640 C   0  0  0  0  0  0  0  0  0  0  0  0
  125.2790  129.8880   63.4410 C   0  0  0  0  0  0  0  0  0  0  0  0
  126.1230  130.2290   62.3880 C   0  0  0  0  0  0  0  0  0  0  0  0
  127.4400  130.6190   62.6360 C   0  0  0  0  0  0  0  0  0  0  0  0
  128.2090  130.9340   61.4990 N   0  0  0  0  0  0  0  0  0  0  0  0
  129.3670  131.6300   61.3930 C   0  0  0  0  0  0  0  0  0  0  0  0
  129.9410  132.1670   62.3410 O   0  0  0  0  0  0  0  0  0  0  0  0
  129.9090  131.7380   60.0380 C   0  0  0  0  0  0  0  0  0  0  0  0
  129.0110  132.5990   58.7850 S   0  0  0  0  0  0  0  0  0  0  0  0
  130.2350  132.2340   57.5910 C   0  0  0  0  0  0  0  0  0  0  0  0
  130.1320  132.6460   56.3260 N   0  0  0  0  0  0  0  0  0  0  0  0
  131.1480  132.2910   55.5010 C   0  0  0  0  0  0  0  0  0  0  0  0
  131.0090  132.7660   54.0660 C   0  0  0  0  0  0  0  0  0  0  0  0
  132.2530  131.5470   55.9070 C   0  0  0  0  0  0  0  0  0  0  0  0
  132.3580  131.1180   57.2350 C   0  0  0  0  0  0  0  0  0  0  0  0
  133.5830  130.3070   57.6310 C   0  0  0  0  0  0  0  0  0  0  0  0
  131.3110  131.4660   58.1290 C   0  0  0  0  0  0  0  0  0  0  0  0
  131.0970  131.1930   59.5260 C   0  0  0  0  0  0  0  0  0  0  0  0
  131.9890  130.4660   60.2740 N   0  0  0  0  0  0  0  0  0  0  0  0
  127.9120  130.6490   63.9570 C   0  0  0  0  0  0  0  0  0  0  0  0
  127.0660  130.3030   65.0080 C   0  0  0  0  0  0  0  0  0  0  0  0
  1  2  1  0
  2  3  1  0
  3  4  1  0
  4  5  2  0
  4  6  1  0
  6  7  2  0
  7  8  1  0
  8  9  2  0
  9 10  1  0
 10 11  1  0
 11 12  2  0
 11 13  1  0
 13 14  1  0
 14 15  1  0
 15 16  2  0
 16 17  1  0
 17 18  1  0
 17 19  2  0
 19 20  1  0
 20 21  1  0
 20 22  2  0
 22 23  1  0
 23 24  1  0
  9 25  1  0
 25 26  2  0
 26  6  1  0
 23 13  2  0
 22 15  1  0
M  END
>  <Binding energies>  (37) 
[-8.28]

>  <Ligand effiencies>  (37) 
[-0.28551724137931034]

>  <Interactions>  (37) 
["V-B:GLU:543:CB:9878, V-B:HIS:456:CE1:9040, H-A:GLU:543:OE1:4909, V-A:ILE:538:CD1:4865, V-A:TYR:539:CD2:4874, V-A:TYR:539:C:4867, H-A:TYR:539:N:4870, V-A:TYR:531:CE2:4793, V-A:PRO:540:CB:4885, V-A:PRO:540:CA:4883, V-A:PRO:540:N:4884, V-A:LEU:363:CD1:3189, V-A:TYR:539:CE2:4876, V-A:ASP:366:CB:3212, V-A:ILE:538:C:4858, V-A:ILE:538:CA:4860, V-A:ASP:366:CG:3213, V-A:VAL:537:C:4850, V-A:LEU:363:CA:3185, V-B:ARG:545:CA:9891, V-B:ARG:545:CG:9894, H-A:ALA:541:N:4891, H-B:TYR:484:OH:9319, V-B:ARG:545:CZ:9898, H-B:GLY:454:N:9021, H-B:ILE:455:N:9026, H-B:ARG:545:NE:9896, V-B:ARG:545:CD:9895, H-A:ASP:366:OD1:3214, V-A:ILE:538:CB:4862"]

$$$$
4ab_Grossjean_2025
     RDKit          3D

 25 27  0  0  0  0  0  0  0  0999 V2000
  125.6710  128.2440   66.9680 C   0  0  0  0  0  0  0  0  0  0  0  0
  125.1060  129.5320   66.7660 O   0  0  0  0  0  0  0  0  0  0  0  0
  124.5260  129.8630   65.5840 C   0  0  0  0  0  0  0  0  0  0  0  0
  123.3030  129.9070   65.4150 O   0  0  0  0  0  0  0  0  0  0  0  0
  125.5200  130.1630   64.5000 C   0  0  0  0  0  0  0  0  0  0  0  0
  125.0680  130.3130   63.1820 C   0  0  0  0  0  0  0  0  0  0  0  0
  125.9650  130.5900   62.1530 C   0  0  0  0  0  0  0  0  0  0  0  0
  127.3260  130.7310   62.4210 C   0  0  0  0  0  0  0  0  0  0  0  0
  128.1430  131.0030   61.3060 N   0  0  0  0  0  0  0  0  0  0  0  0
  129.3310  131.6500   61.2310 C   0  0  0  0  0  0  0  0  0  0  0  0
  129.9000  132.1690   62.1930 O   0  0  0  0  0  0  0  0  0  0  0  0
  129.9180  131.7230   59.8920 C   0  0  0  0  0  0  0  0  0  0  0  0
  129.0560  132.5400   58.5860 S   0  0  0  0  0  0  0  0  0  0  0  0
  130.3230  132.1530   57.4430 C   0  0  0  0  0  0  0  0  0  0  0  0
  130.2590  132.5260   56.1650 N   0  0  0  0  0  0  0  0  0  0  0  0
  131.3050  132.1600   55.3850 C   0  0  0  0  0  0  0  0  0  0  0  0
  131.2100  132.5900   53.9330 C   0  0  0  0  0  0  0  0  0  0  0  0
  132.4040  131.4410   55.8490 C   0  0  0  0  0  0  0  0  0  0  0  0
  132.4680  131.0500   57.1920 C   0  0  0  0  0  0  0  0  0  0  0  0
  133.6870  130.2650   57.6500 C   0  0  0  0  0  0  0  0  0  0  0  0
  131.3870  131.4120   58.0410 C   0  0  0  0  0  0  0  0  0  0  0  0
  131.1270  131.1760   59.4350 C   0  0  0  0  0  0  0  0  0  0  0  0
  131.9990  130.4780   60.2330 N   0  0  0  0  0  0  0  0  0  0  0  0
  127.7890  130.5780   63.7370 C   0  0  0  0  0  0  0  0  0  0  0  0
  126.8910  130.2980   64.7630 C   0  0  0  0  0  0  0  0  0  0  0  0
  1  2  1  0
  2  3  1  0
  3  4  2  0
  3  5  1  0
  5  6  2  0
  6  7  1  0
  7  8  2  0
  8  9  1  0
  9 10  1  0
 10 11  2  0
 10 12  1  0
 12 13  1  0
 13 14  1  0
 14 15  2  0
 15 16  1  0
 16 17  1  0
 16 18  2  0
 18 19  1  0
 19 20  1  0
 19 21  2  0
 21 22  1  0
 22 23  1  0
  8 24  1  0
 24 25  2  0
 25  5  1  0
 22 12  2  0
 21 14  1  0
M  END
>  <Binding energies>  (38) 
[-8.05]

>  <Ligand effiencies>  (38) 
[-0.28750000000000003]

>  <Interactions>  (38) 
["V-B:HIS:456:CE1:9040, H-A:GLU:543:OE1:4909, V-A:ILE:538:CD1:4865, V-A:TYR:539:CD2:4874, V-A:TYR:539:C:4867, H-A:TYR:539:N:4870, V-A:TYR:531:CE2:4793, V-A:PRO:540:CB:4885, V-A:PRO:540:CA:4883, V-A:PRO:540:N:4884, V-A:LEU:363:CD1:3189, V-A:TYR:539:CE2:4876, V-A:ASP:366:CB:3212, V-A:ILE:538:CA:4860, V-A:LEU:363:CB:3187, V-A:ASP:366:CG:3213, V-A:LEU:363:CA:3185, V-B:ARG:545:CG:9894, H-A:ALA:541:N:4891, H-B:ARG:545:NH1:9899, H-B:TYR:484:OH:9319, H-B:ARG:545:NH2:9900, V-B:ARG:545:CZ:9898, H-B:GLY:454:N:9021, H-B:ARG:545:NE:9896, V-B:ARG:545:CD:9895, H-A:ASP:366:OD1:3214, V-A:ILE:538:CG1:4864, V-A:ILE:538:CB:4862"]

$$$$
4ac_Grossjean_2025
     RDKit          3D

 23 25  0  0  0  0  0  0  0  0999 V2000
  124.0910  129.5510   66.5850 C   0  0  0  0  0  0  0  0  0  0  0  0
  123.8510  130.3350   65.4210 O   0  0  0  0  0  0  0  0  0  0  0  0
  124.8540  130.4730   64.4820 C   0  0  0  0  0  0  0  0  0  0  0  0
  124.5660  131.2730   63.3770 C   0  0  0  0  0  0  0  0  0  0  0  0
  125.5150  131.4710   62.3780 C   0  0  0  0  0  0  0  0  0  0  0  0
  126.7730  130.8750   62.4770 C   0  0  0  0  0  0  0  0  0  0  0  0
  127.6630  131.1210   61.4140 N   0  0  0  0  0  0  0  0  0  0  0  0
  128.9390  131.5720   61.4520 C   0  0  0  0  0  0  0  0  0  0  0  0
  129.5300  131.8830   62.4880 O   0  0  0  0  0  0  0  0  0  0  0  0
  129.6050  131.6830   60.1510 C   0  0  0  0  0  0  0  0  0  0  0  0
  128.8290  132.5490   58.8240 S   0  0  0  0  0  0  0  0  0  0  0  0
  130.1770  132.2190   57.7590 C   0  0  0  0  0  0  0  0  0  0  0  0
  130.2000  132.6480   56.4960 N   0  0  0  0  0  0  0  0  0  0  0  0
  131.3020  132.3250   55.7780 C   0  0  0  0  0  0  0  0  0  0  0  0
  131.3090  132.8220   54.3450 C   0  0  0  0  0  0  0  0  0  0  0  0
  132.3710  131.5880   56.2870 C   0  0  0  0  0  0  0  0  0  0  0  0
  132.3430  131.1390   57.6120 C   0  0  0  0  0  0  0  0  0  0  0  0
  133.5320  130.3400   58.1220 C   0  0  0  0  0  0  0  0  0  0  0  0
  131.2030  131.4620   58.3970 C   0  0  0  0  0  0  0  0  0  0  0  0
  130.8530  131.1710   59.7620 C   0  0  0  0  0  0  0  0  0  0  0  0
  131.6770  130.4540   60.5920 N   0  0  0  0  0  0  0  0  0  0  0  0
  127.0660  130.0580   63.5780 C   0  0  0  0  0  0  0  0  0  0  0  0
  126.1140  129.8620   64.5750 C   0  0  0  0  0  0  0  0  0  0  0  0
  1  2  1  0
  2  3  1  0
  3  4  2  0
  4  5  1  0
  5  6  2  0
  6  7  1  0
  7  8  1  0
  8  9  2  0
  8 10  1  0
 10 11  1  0
 11 12  1  0
 12 13  2  0
 13 14  1  0
 14 15  1  0
 14 16  2  0
 16 17  1  0
 17 18  1  0
 17 19  2  0
 19 20  1  0
 20 21  1  0
  6 22  1  0
 22 23  2  0
 23  3  1  0
 20 10  2  0
 19 12  1  0
M  END
>  <Binding energies>  (39) 
[-7.44]

>  <Ligand effiencies>  (39) 
[-0.28615384615384615]

>  <Interactions>  (39) 
["H-A:GLU:543:OE1:4909, V-A:ILE:538:CD1:4865, V-A:TYR:539:CD2:4874, V-A:TYR:539:C:4867, H-A:TYR:539:N:4870, V-A:PRO:540:CD:4887, V-A:TYR:531:CE2:4793, V-A:PRO:540:CB:4885, V-A:PRO:540:CA:4883, V-A:PRO:540:N:4884, V-A:LEU:363:CD1:3189, V-A:TYR:539:CE2:4876, V-A:ILE:538:CG2:4863, V-A:ASP:366:CB:3212, V-A:ILE:538:C:4858, V-A:ILE:538:CA:4860, V-A:ASP:366:CG:3213, V-A:LEU:363:CA:3185, V-B:ARG:545:CG:9894, H-A:ALA:541:N:4891, H-B:TYR:484:OH:9319, V-B:ARG:545:CZ:9898, H-B:GLY:454:N:9021, V-B:GLY:454:CA:9020, H-B:ARG:545:NE:9896, V-B:ARG:545:CD:9895, H-A:ASP:366:OD1:3214, V-A:ILE:538:CG1:4864, V-A:ILE:538:CB:4862"]

$$$$
4ad_Grossjean_2025
     RDKit          3D

 21 23  0  0  0  0  0  0  0  0999 V2000
  127.1460  123.1750   53.8220 C   0  0  0  0  0  0  0  0  0  0  0  0
  126.7720  123.4660   55.2630 C   0  0  0  0  0  0  0  0  0  0  0  0
  125.6560  124.2400   55.5730 C   0  0  0  0  0  0  0  0  0  0  0  0
  125.3310  124.4970   56.9100 C   0  0  0  0  0  0  0  0  0  0  0  0
  124.1050  125.3500   57.1980 C   0  0  0  0  0  0  0  0  0  0  0  0
  126.1720  123.9450   57.9140 C   0  0  0  0  0  0  0  0  0  0  0  0
  126.1360  124.0060   59.3510 C   0  0  0  0  0  0  0  0  0  0  0  0
  125.1570  124.6880   60.0290 N   0  0  0  0  0  0  0  0  0  0  0  0
  127.1820  123.3110   59.9780 C   0  0  0  0  0  0  0  0  0  0  0  0
  127.4580  123.1790   61.4100 C   0  0  0  0  0  0  0  0  0  0  0  0
  126.7470  122.4690   62.1240 O   0  0  0  0  0  0  0  0  0  0  0  0
  128.5330  123.8720   61.8600 N   0  0  0  0  0  0  0  0  0  0  0  0
  129.0370  123.9910   63.1700 C   0  0  0  0  0  0  0  0  0  0  0  0
  129.3750  122.7930   63.8060 C   0  0  0  0  0  0  0  0  0  0  0  0
  129.8910  122.8060   65.0990 C   0  0  0  0  0  0  0  0  0  0  0  0
  130.0780  124.0200   65.7550 C   0  0  0  0  0  0  0  0  0  0  0  0
  129.7590  125.2210   65.1270 C   0  0  0  0  0  0  0  0  0  0  0  0
  129.2410  125.2110   63.8340 C   0  0  0  0  0  0  0  0  0  0  0  0
  128.2440  122.5530   58.7910 S   0  0  0  0  0  0  0  0  0  0  0  0
  127.2850  123.1710   57.4660 C   0  0  0  0  0  0  0  0  0  0  0  0
  127.5960  122.9240   56.1930 N   0  0  0  0  0  0  0  0  0  0  0  0
  1  2  1  0
  2  3  2  0
  3  4  1  0
  4  5  1  0
  4  6  2  0
  6  7  1  0
  7  8  1  0
  7  9  2  0
  9 10  1  0
 10 11  2  0
 10 12  1  0
 12 13  1  0
 13 14  2  0
 14 15  1  0
 15 16  2  0
 16 17  1  0
 17 18  2  0
  9 19  1  0
 19 20  1  0
 20 21  2  0
 21  2  1  0
 20  6  1  0
 18 13  1  0
M  END
>  <Binding energies>  (40) 
[-7.22]

>  <Ligand effiencies>  (40) 
[-0.30083333333333334]

>  <Interactions>  (40) 
["V-B:GLU:543:CB:9878, V-B:GLU:543:CD:9880, V-B:ILE:538:CB:9834, V-B:ALA:541:CB:9864, V-B:TYR:539:C:9839, V-B:PRO:540:CA:9855, V-B:GLU:543:CG:9879, V-A:TYR:484:CE1:4345, V-B:TYR:539:CD2:9846, V-B:LEU:363:CD1:8160, V-B:ILE:538:CG2:9835, V-A:TYR:484:CZ:4347, V-B:TYR:539:CE2:9848, V-B:ILE:538:CA:9832, V-B:TYR:539:CE1:9847, V-B:ASP:366:CB:8183, V-B:TYR:531:CE2:9765, H-B:ALA:541:N:9863, H-B:ASP:366:OD1:8185, V-B:GLU:543:CA:9876, H-B:GLU:543:OE2:9882"]

$$$$
4ae_Grossjean_2025
     RDKit          3D

 22 24  0  0  0  0  0  0  0  0999 V2000
  128.0150  119.8550   72.8530 C   0  0  0  0  0  0  0  0  0  0  0  0
  129.0820  120.9160   72.6690 C   0  0  0  0  0  0  0  0  0  0  0  0
  130.2480  120.9230   73.4390 C   0  0  0  0  0  0  0  0  0  0  0  0
  131.1830  121.9350   73.2200 C   0  0  0  0  0  0  0  0  0  0  0  0
  130.9320  122.9070   72.2490 C   0  0  0  0  0  0  0  0  0  0  0  0
  129.7480  122.8370   71.5070 C   0  0  0  0  0  0  0  0  0  0  0  0
  129.5420  123.8540   70.5590 N   0  0  0  0  0  0  0  0  0  0  0  0
  129.5120  125.1970   70.7480 C   0  0  0  0  0  0  0  0  0  0  0  0
  129.6630  125.7380   71.8450 O   0  0  0  0  0  0  0  0  0  0  0  0
  129.2780  125.9950   69.5430 C   0  0  0  0  0  0  0  0  0  0  0  0
  128.7650  127.6780   69.6750 S   0  0  0  0  0  0  0  0  0  0  0  0
  128.6860  127.8410   67.9360 C   0  0  0  0  0  0  0  0  0  0  0  0
  128.3220  128.9820   67.3500 N   0  0  0  0  0  0  0  0  0  0  0  0
  128.2970  128.9730   65.9950 C   0  0  0  0  0  0  0  0  0  0  0  0
  127.8730  130.2800   65.3490 C   0  0  0  0  0  0  0  0  0  0  0  0
  128.6270  127.8630   65.2200 C   0  0  0  0  0  0  0  0  0  0  0  0
  129.0090  126.6670   65.8390 C   0  0  0  0  0  0  0  0  0  0  0  0
  129.3560  125.4810   64.9510 C   0  0  0  0  0  0  0  0  0  0  0  0
  129.0460  126.6370   67.2600 C   0  0  0  0  0  0  0  0  0  0  0  0
  129.3810  125.6000   68.1990 C   0  0  0  0  0  0  0  0  0  0  0  0
  129.7630  124.3440   67.8000 N   0  0  0  0  0  0  0  0  0  0  0  0
  128.8250  121.8530   71.7210 N   0  0  0  0  0  0  0  0  0  0  0  0
  1  2  1  0
  2  3  2  0
  3  4  1  0
  4  5  2  0
  5  6  1  0
  6  7  1  0
  7  8  1  0
  8  9  2  0
  8 10  1  0
 10 11  1  0
 11 12  1  0
 12 13  2  0
 13 14  1  0
 14 15  1  0
 14 16  2  0
 16 17  1  0
 17 18  1  0
 17 19  2  0
 19 20  1  0
 20 21  1  0
  6 22  2  0
 22  2  1  0
 20 10  2  0
 19 12  1  0
M  END
>  <Binding energies>  (41) 
[-7.45]

>  <Ligand effiencies>  (41) 
[-0.298]

>  <Interactions>  (41) 
["H-B:LYS:547:NZ:9923, V-B:LYS:547:CE:9922, V-B:GLU:543:CB:9878, H-B:HIS:456:NE2:9041, V-B:HIS:456:CE1:9040, V-A:HIS:456:CD2:4068, H-A:HIS:456:NE2:4070, V-A:GLU:543:CD:4908, V-B:GLU:543:CD:9880, V-B:GLU:543:CG:9879, V-A:TYR:484:CE1:4345, V-A:TYR:484:CZ:4347, V-B:GLU:543:C:9874, V-A:HIS:456:CB:4065, V-A:TYR:484:CD1:4343, V-A:TYR:484:CG:4342, V-A:HIS:456:CG:4066, H-B:GLU:543:O:9875, V-A:TYR:484:CB:4341, V-A:TYR:484:CD2:4344, V-A:TYR:484:CE2:4346, H-A:TYR:484:OH:4348, V-A:HIS:456:CE1:4069, V-A:GLU:543:CB:4906, V-B:GLU:543:CA:9876, H-A:HIS:456:ND1:4067, V-A:ASP:473:CG:4240, V-A:ASP:473:CB:4239"]

$$$$
4af_Grossjean_2025
     RDKit          3D

 21 23  0  0  0  0  0  0  0  0999 V2000
  130.4470  132.8900   53.8690 C   0  0  0  0  0  0  0  0  0  0  0  0
  130.8190  132.3480   55.2370 C   0  0  0  0  0  0  0  0  0  0  0  0
  131.9410  131.5400   55.4080 C   0  0  0  0  0  0  0  0  0  0  0  0
  132.2640  131.0480   56.6780 C   0  0  0  0  0  0  0  0  0  0  0  0
  133.4960  130.1690   56.8140 C   0  0  0  0  0  0  0  0  0  0  0  0
  131.4140  131.4020   57.7610 C   0  0  0  0  0  0  0  0  0  0  0  0
  131.4450  131.0800   59.1630 C   0  0  0  0  0  0  0  0  0  0  0  0
  132.4240  130.2900   59.7110 N   0  0  0  0  0  0  0  0  0  0  0  0
  130.3940  131.6460   59.9010 C   0  0  0  0  0  0  0  0  0  0  0  0
  130.1030  131.5020   61.3290 C   0  0  0  0  0  0  0  0  0  0  0  0
  130.8180  132.0450   62.1720 O   0  0  0  0  0  0  0  0  0  0  0  0
  129.0070  130.7610   61.6260 N   0  0  0  0  0  0  0  0  0  0  0  0
  128.4870  130.3960   62.8820 C   0  0  0  0  0  0  0  0  0  0  0  0
  128.0530  129.1070   63.2420 C   0  0  0  0  0  0  0  0  0  0  0  0
  127.5400  128.8830   64.5210 C   0  0  0  0  0  0  0  0  0  0  0  0
  127.4670  129.9560   65.4100 C   0  0  0  0  0  0  0  0  0  0  0  0
  127.8710  131.2100   65.0850 N   0  0  0  0  0  0  0  0  0  0  0  0
  128.3680  131.4120   63.8390 C   0  0  0  0  0  0  0  0  0  0  0  0
  129.3270  132.5970   58.8650 S   0  0  0  0  0  0  0  0  0  0  0  0
  130.2970  132.2360   57.4550 C   0  0  0  0  0  0  0  0  0  0  0  0
  129.9880  132.7060   56.2460 N   0  0  0  0  0  0  0  0  0  0  0  0
  1  2  1  0
  2  3  2  0
  3  4  1  0
  4  5  1  0
  4  6  2  0
  6  7  1  0
  7  8  1  0
  7  9  2  0
  9 10  1  0
 10 11  2  0
 10 12  1  0
 12 13  1  0
 13 14  2  0
 14 15  1  0
 15 16  2  0
 16 17  1  0
 17 18  2  0
  9 19  1  0
 19 20  1  0
 20 21  2  0
 21  2  1  0
 20  6  1  0
 18 13  1  0
M  END
>  <Binding energies>  (42) 
[-6.99]

>  <Ligand effiencies>  (42) 
[-0.29125]

>  <Interactions>  (42) 
["V-A:GLU:543:CD:4908, H-A:GLU:543:OE1:4909, V-A:ILE:538:CD1:4865, V-A:TYR:539:C:4867, H-A:TYR:539:N:4870, V-A:TYR:531:CE2:4793, V-A:PRO:540:CB:4885, V-A:PRO:540:CA:4883, V-A:PRO:540:N:4884, V-A:LEU:363:CD1:3189, V-A:ALA:541:CB:4892, V-A:ASP:366:CB:3212, V-A:TYR:531:CZ:4794, V-A:TYR:539:CD1:4873, V-A:ILE:538:C:4858, V-A:ILE:538:CA:4860, V-A:ASP:366:CG:3213, V-A:VAL:537:C:4850, V-A:LEU:363:CA:3185, H-A:ALA:541:N:4891, H-B:TYR:484:OH:9319, V-A:GLU:543:CB:4906, H-A:ASP:366:OD1:3214"]

$$$$
4ag_Grossjean_2025
     RDKit          3D

 22 24  0  0  0  0  0  0  0  0999 V2000
  131.2340  132.1730   53.5830 C   0  0  0  0  0  0  0  0  0  0  0  0
  131.3320  131.8650   55.0660 C   0  0  0  0  0  0  0  0  0  0  0  0
  132.3920  131.1170   55.5740 C   0  0  0  0  0  0  0  0  0  0  0  0
  132.4640  130.8460   56.9450 C   0  0  0  0  0  0  0  0  0  0  0  0
  133.6410  130.0260   57.4520 C   0  0  0  0  0  0  0  0  0  0  0  0
  131.4310  131.3560   57.7760 C   0  0  0  0  0  0  0  0  0  0  0  0
  131.1950  131.2690   59.1920 C   0  0  0  0  0  0  0  0  0  0  0  0
  132.0440  130.6000   60.0380 N   0  0  0  0  0  0  0  0  0  0  0  0
  130.0300  131.9240   59.6160 C   0  0  0  0  0  0  0  0  0  0  0  0
  129.4980  132.0450   60.9730 C   0  0  0  0  0  0  0  0  0  0  0  0
  130.2090  131.8520   61.9620 O   0  0  0  0  0  0  0  0  0  0  0  0
  128.1890  132.3590   61.0720 N   0  0  0  0  0  0  0  0  0  0  0  0
  127.4570  132.5550   62.3230 C   0  0  0  0  0  0  0  0  0  0  0  0
  126.0640  133.1460   62.1390 C   0  0  0  0  0  0  0  0  0  0  0  0
  125.8970  134.3110   61.3850 C   0  0  0  0  0  0  0  0  0  0  0  0
  124.6220  134.8390   61.1940 C   0  0  0  0  0  0  0  0  0  0  0  0
  123.5180  134.1940   61.7480 C   0  0  0  0  0  0  0  0  0  0  0  0
  123.6760  133.0240   62.4870 C   0  0  0  0  0  0  0  0  0  0  0  0
  124.9500  132.4960   62.6770 C   0  0  0  0  0  0  0  0  0  0  0  0
  129.1920  132.6810   58.2610 S   0  0  0  0  0  0  0  0  0  0  0  0
  130.4010  132.1080   57.1340 C   0  0  0  0  0  0  0  0  0  0  0  0
  130.3310  132.3690   55.8280 N   0  0  0  0  0  0  0  0  0  0  0  0
  1  2  1  0
  2  3  2  0
  3  4  1  0
  4  5  1  0
  4  6  2  0
  6  7  1  0
  7  8  1  0
  7  9  2  0
  9 10  1  0
 10 11  2  0
 10 12  1  0
 12 13  1  0
 13 14  1  0
 14 15  2  0
 15 16  1  0
 16 17  2  0
 17 18  1  0
 18 19  2  0
  9 20  1  0
 20 21  1  0
 21 22  2  0
 22  2  1  0
 21  6  1  0
 19 14  1  0
M  END
>  <Binding energies>  (43) 
[-7.41]

>  <Ligand effiencies>  (43) 
[-0.2964]

>  <Interactions>  (43) 
["H-A:GLU:543:OE1:4909, V-A:ILE:538:CD1:4865, V-A:TYR:539:CD2:4874, V-A:TYR:539:C:4867, H-A:TYR:539:N:4870, V-A:TYR:531:CE2:4793, V-A:PRO:540:CB:4885, V-A:PRO:540:CA:4883, V-A:PRO:540:N:4884, V-A:LEU:363:CD1:3189, V-B:TRP:381:CH2:8343, V-A:TYR:539:CE2:4876, V-B:LEU:475:CD1:9229, V-B:ILE:369:CG2:8208, V-A:ALA:541:CB:4892, V-B:TRP:381:CZ2:8341, V-B:ILE:369:CD1:8210, V-A:TYR:539:CG:4872, V-A:ASP:366:CB:3212, V-A:TYR:531:CZ:4794, V-A:ILE:538:CA:4860, V-A:ASP:366:CG:3213, V-A:LEU:363:CA:3185, H-A:ALA:541:N:4891, V-B:GLY:454:CA:9020, H-A:ASP:366:OD1:3214"]

$$$$
4ah_Grossjean_2025
     RDKit          3D

 28 30  0  0  0  0  0  0  0  0999 V2000
  122.9550  130.6610   62.4140 C   0  0  0  0  0  0  0  0  0  0  0  0
  123.6540  130.3800   63.6210 O   0  0  0  0  0  0  0  0  0  0  0  0
  124.9890  130.7270   63.7300 C   0  0  0  0  0  0  0  0  0  0  0  0
  125.5680  131.8280   63.0790 C   0  0  0  0  0  0  0  0  0  0  0  0
  126.9240  132.1170   63.2340 C   0  0  0  0  0  0  0  0  0  0  0  0
  127.5250  133.3440   62.5560 C   0  0  0  0  0  0  0  0  0  0  0  0
  128.2110  133.0420   61.3000 N   0  0  0  0  0  0  0  0  0  0  0  0
  129.3820  132.3800   61.1880 C   0  0  0  0  0  0  0  0  0  0  0  0
  130.0210  131.9900   62.1670 O   0  0  0  0  0  0  0  0  0  0  0  0
  129.8800  132.1850   59.8270 C   0  0  0  0  0  0  0  0  0  0  0  0
  129.0270  132.9030   58.4600 S   0  0  0  0  0  0  0  0  0  0  0  0
  130.1610  132.2020   57.3270 C   0  0  0  0  0  0  0  0  0  0  0  0
  130.0560  132.3950   56.0120 N   0  0  0  0  0  0  0  0  0  0  0  0
  130.9990  131.7980   55.2450 C   0  0  0  0  0  0  0  0  0  0  0  0
  130.8590  132.0280   53.7510 C   0  0  0  0  0  0  0  0  0  0  0  0
  132.0360  131.0210   55.7570 C   0  0  0  0  0  0  0  0  0  0  0  0
  132.1430  130.8170   57.1370 C   0  0  0  0  0  0  0  0  0  0  0  0
  133.2910  129.9610   57.6490 C   0  0  0  0  0  0  0  0  0  0  0  0
  131.1690  131.4270   57.9750 C   0  0  0  0  0  0  0  0  0  0  0  0
  130.9780  131.4240   59.4000 C   0  0  0  0  0  0  0  0  0  0  0  0
  131.8100  130.7420   60.2520 N   0  0  0  0  0  0  0  0  0  0  0  0
  127.7080  131.3190   64.0680 C   0  0  0  0  0  0  0  0  0  0  0  0
  127.1570  130.2080   64.7270 C   0  0  0  0  0  0  0  0  0  0  0  0
  127.8780  129.3660   65.5550 O   0  0  0  0  0  0  0  0  0  0  0  0
  128.2930  128.0950   65.0660 C   0  0  0  0  0  0  0  0  0  0  0  0
  125.7980  129.9200   64.5440 C   0  0  0  0  0  0  0  0  0  0  0  0
  125.2410  128.8460   65.1980 O   0  0  0  0  0  0  0  0  0  0  0  0
  124.8520  129.1230   66.5360 C   0  0  0  0  0  0  0  0  0  0  0  0
  1  2  1  0
  2  3  1  0
  3  4  2  0
  4  5  1  0
  5  6  1  0
  6  7  1  0
  7  8  1  0
  8  9  2  0
  8 10  1  0
 10 11  1  0
 11 12  1  0
 12 13  2  0
 13 14  1  0
 14 15  1  0
 14 16  2  0
 16 17  1  0
 17 18  1  0
 17 19  2  0
 19 20  1  0
 20 21  1  0
  5 22  2  0
 22 23  1  0
 23 24  1  0
 24 25  1  0
 23 26  2  0
 26 27  1  0
 27 28  1  0
 26  3  1  0
 20 10  2  0
 19 12  1  0
M  END
>  <Binding energies>  (44) 
[-7.4]

>  <Ligand effiencies>  (44) 
[-0.23870967741935484]

>  <Interactions>  (44) 
["V-B:HIS:456:CE1:9040, V-A:GLU:543:CD:4908, H-A:GLU:543:OE1:4909, V-A:ILE:538:CD1:4865, V-A:TYR:539:CD2:4874, V-A:TYR:539:C:4867, H-A:TYR:539:N:4870, V-A:TYR:531:CE2:4793, V-A:PRO:540:CB:4885, V-A:PRO:540:CA:4883, V-A:PRO:540:N:4884, V-A:LEU:363:CD1:3189, V-A:TYR:539:CE2:4876, V-B:LEU:475:CD1:9229, V-A:ALA:541:CB:4892, V-B:ILE:369:CD1:8210, V-A:TYR:539:CG:4872, V-A:ASP:366:CB:3212, V-A:TYR:531:CZ:4794, V-A:PRO:540:C:4881, V-A:ILE:538:CA:4860, V-A:ASP:366:CG:3213, V-A:LEU:363:CA:3185, V-B:ASP:366:CG:8184, V-B:ARG:545:CG:9894, H-A:TYR:539:O:4868, H-A:ALA:541:N:4891, V-B:GLY:453:CA:9015, H-B:TYR:484:OH:9319, H-B:ARG:545:NH2:9900, V-B:ARG:545:CZ:9898, H-B:GLY:454:N:9021, H-B:ARG:545:NE:9896, V-B:GLY:453:C:9013, V-B:ARG:545:CD:9895, H-A:ASP:366:OD1:3214"]

$$$$
4ai_Grossjean_2025
     RDKit          3D

 20 22  0  0  0  0  0  0  0  0999 V2000
  127.8390  130.1490   65.1040 C   0  0  0  0  0  0  0  0  0  0  0  0
  128.2560  128.8640   65.7960 C   0  0  0  0  0  0  0  0  0  0  0  0
  128.6170  127.7370   65.0600 C   0  0  0  0  0  0  0  0  0  0  0  0
  129.0040  126.5650   65.7190 C   0  0  0  0  0  0  0  0  0  0  0  0
  129.3910  125.3620   64.8710 C   0  0  0  0  0  0  0  0  0  0  0  0
  129.0130  126.5750   67.1400 C   0  0  0  0  0  0  0  0  0  0  0  0
  129.3480  125.5720   68.1140 C   0  0  0  0  0  0  0  0  0  0  0  0
  129.7500  124.3090   67.7570 N   0  0  0  0  0  0  0  0  0  0  0  0
  129.2320  126.0060   69.4440 C   0  0  0  0  0  0  0  0  0  0  0  0
  129.4820  125.2520   70.6740 C   0  0  0  0  0  0  0  0  0  0  0  0
  129.5000  125.8200   71.7680 O   0  0  0  0  0  0  0  0  0  0  0  0
  129.6670  123.9180   70.5100 N   0  0  0  0  0  0  0  0  0  0  0  0
  129.9090  122.9720   71.4970 C   0  0  0  0  0  0  0  0  0  0  0  0
  131.0810  122.9410   72.2530 C   0  0  0  0  0  0  0  0  0  0  0  0
  130.9320  121.8690   73.1030 C   0  0  0  0  0  0  0  0  0  0  0  0
  129.7320  121.2850   72.8720 O   0  0  0  0  0  0  0  0  0  0  0  0
  129.0920  121.9930   71.8540 N   0  0  0  0  0  0  0  0  0  0  0  0
  128.6750  127.6790   69.5210 S   0  0  0  0  0  0  0  0  0  0  0  0
  128.6210  127.7920   67.7750 C   0  0  0  0  0  0  0  0  0  0  0  0
  128.2510  128.9100   67.1510 N   0  0  0  0  0  0  0  0  0  0  0  0
  1  2  1  0
  2  3  2  0
  3  4  1  0
  4  5  1  0
  4  6  2  0
  6  7  1  0
  7  8  1  0
  7  9  2  0
  9 10  1  0
 10 11  2  0
 10 12  1  0
 12 13  1  0
 13 14  1  0
 14 15  2  0
 15 16  1  0
 16 17  1  0
  9 18  1  0
 18 19  1  0
 19 20  2  0
 20  2  1  0
 19  6  1  0
 17 13  2  0
M  END
>  <Binding energies>  (45) 
[-7.65]

>  <Ligand effiencies>  (45) 
[-0.33260869565217394]

>  <Interactions>  (45) 
["H-B:LYS:547:NZ:9923, V-B:GLU:543:CB:9878, V-B:HIS:456:CE1:9040, V-A:HIS:456:CD2:4068, H-A:HIS:456:NE2:4070, V-A:GLU:543:CD:4908, V-B:GLU:543:CD:9880, V-B:GLU:543:CG:9879, V-A:TYR:484:CE1:4345, V-A:TYR:484:CZ:4347, V-B:GLU:543:C:9874, V-A:HIS:456:CB:4065, V-A:TYR:484:CD1:4343, V-A:TYR:484:CG:4342, V-A:HIS:456:CG:4066, H-B:GLU:543:O:9875, V-A:TYR:484:CB:4341, V-A:TYR:484:CD2:4344, V-A:TYR:484:CE2:4346, H-A:TYR:484:OH:4348, V-A:HIS:456:CE1:4069, V-A:GLU:543:CB:4906, V-B:GLU:543:CA:9876, H-A:HIS:456:ND1:4067, V-A:ASP:473:CG:4240, V-A:ASP:473:CB:4239"]

$$$$
4aj_Grossjean_2025
     RDKit          3D

 20 22  0  0  0  0  0  0  0  0999 V2000
  127.8670  130.1800   65.2730 C   0  0  0  0  0  0  0  0  0  0  0  0
  128.2940  128.8890   65.9480 C   0  0  0  0  0  0  0  0  0  0  0  0
  128.6180  127.7610   65.1970 C   0  0  0  0  0  0  0  0  0  0  0  0
  129.0040  126.5790   65.8400 C   0  0  0  0  0  0  0  0  0  0  0  0
  129.3470  125.3750   64.9770 C   0  0  0  0  0  0  0  0  0  0  0  0
  129.0520  126.5820   67.2600 C   0  0  0  0  0  0  0  0  0  0  0  0
  129.3960  125.5680   68.2200 C   0  0  0  0  0  0  0  0  0  0  0  0
  129.7680  124.3020   67.8470 N   0  0  0  0  0  0  0  0  0  0  0  0
  129.3200  125.9970   69.5540 C   0  0  0  0  0  0  0  0  0  0  0  0
  129.5880  125.2330   70.7740 C   0  0  0  0  0  0  0  0  0  0  0  0
  129.5550  125.7780   71.8790 O   0  0  0  0  0  0  0  0  0  0  0  0
  129.8520  123.9160   70.5890 N   0  0  0  0  0  0  0  0  0  0  0  0
  130.1260  122.9740   71.5720 C   0  0  0  0  0  0  0  0  0  0  0  0
  129.3850  121.9500   71.9380 N   0  0  0  0  0  0  0  0  0  0  0  0
  129.9570  121.2590   72.9040 C   0  0  0  0  0  0  0  0  0  0  0  0
  131.1940  121.7230   73.3450 C   0  0  0  0  0  0  0  0  0  0  0  0
  131.6200  123.1420   72.4350 S   0  0  0  0  0  0  0  0  0  0  0  0
  128.7980  127.6800   69.6540 S   0  0  0  0  0  0  0  0  0  0  0  0
  128.6990  127.8020   67.9120 C   0  0  0  0  0  0  0  0  0  0  0  0
  128.3300  128.9300   67.3020 N   0  0  0  0  0  0  0  0  0  0  0  0
  1  2  1  0
  2  3  2  0
  3  4  1  0
  4  5  1  0
  4  6  2  0
  6  7  1  0
  7  8  1  0
  7  9  2  0
  9 10  1  0
 10 11  2  0
 10 12  1  0
 12 13  1  0
 13 14  2  0
 14 15  1  0
 15 16  2  0
 16 17  1  0
  9 18  1  0
 18 19  1  0
 19 20  2  0
 20  2  1  0
 19  6  1  0
 17 13  1  0
M  END
>  <Binding energies>  (46) 
[-6.84]

>  <Ligand effiencies>  (46) 
[-0.29739130434782607]

>  <Interactions>  (46) 
["H-B:LYS:547:NZ:9923, V-B:LYS:547:CE:9922, V-B:GLU:543:CB:9878, V-B:HIS:456:CE1:9040, V-A:HIS:456:CD2:4068, H-A:HIS:456:NE2:4070, V-A:GLU:543:CD:4908, V-B:GLU:543:CD:9880, V-B:GLU:543:CG:9879, V-A:TYR:484:CE1:4345, V-A:TYR:484:CZ:4347, V-B:GLU:543:C:9874, V-A:HIS:456:CB:4065, V-A:TYR:484:CD1:4343, V-A:TYR:484:CG:4342, V-A:HIS:456:CG:4066, H-B:GLU:543:O:9875, V-A:TYR:484:CB:4341, V-A:TYR:484:CD2:4344, V-A:TYR:484:CE2:4346, H-A:TYR:484:OH:4348, V-A:HIS:456:CE1:4069, V-A:GLU:543:CB:4906, V-B:GLU:543:CA:9876, H-A:HIS:456:ND1:4067, V-A:ASP:473:CG:4240, V-A:ASP:473:CB:4239"]

$$$$
4ak_Grossjean_2025
     RDKit          3D

 25 26  0  0  0  0  0  0  0  0999 V2000
  125.1230  122.9680   55.7700 C   0  0  0  0  0  0  0  0  0  0  0  0
  126.2170  122.0880   55.9770 O   0  0  0  0  0  0  0  0  0  0  0  0
  127.4650  122.7580   56.1110 C   0  0  0  0  0  0  0  0  0  0  0  0
  127.7850  122.9470   57.6000 C   0  0  0  0  0  0  0  0  0  0  0  0
  126.5730  123.0140   58.3380 O   0  0  0  0  0  0  0  0  0  0  0  0
  126.7600  123.2190   59.7320 C   0  0  0  0  0  0  0  0  0  0  0  0
  128.2150  122.9020   60.1000 C   0  0  0  0  0  0  0  0  0  0  0  0
  128.2360  122.0390   61.2290 O   0  0  0  0  0  0  0  0  0  0  0  0
  129.3950  121.2180   61.3030 C   0  0  0  0  0  0  0  0  0  0  0  0
  130.1620  121.5370   62.5990 C   0  0  0  0  0  0  0  0  0  0  0  0
  129.8060  122.8270   63.1880 N   0  0  0  0  0  0  0  0  0  0  0  0
  130.2080  123.2710   64.3960 C   0  0  0  0  0  0  0  0  0  0  0  0
  130.9530  122.6140   65.1270 O   0  0  0  0  0  0  0  0  0  0  0  0
  129.7160  124.5880   64.7950 C   0  0  0  0  0  0  0  0  0  0  0  0
  129.2880  125.7850   63.5730 S   0  0  0  0  0  0  0  0  0  0  0  0
  128.8300  126.9430   64.8010 C   0  0  0  0  0  0  0  0  0  0  0  0
  128.3830  128.1610   64.4910 N   0  0  0  0  0  0  0  0  0  0  0  0
  128.0660  128.9620   65.5380 C   0  0  0  0  0  0  0  0  0  0  0  0
  127.5580  130.3430   65.1650 C   0  0  0  0  0  0  0  0  0  0  0  0
  128.1820  128.5770   66.8720 C   0  0  0  0  0  0  0  0  0  0  0  0
  128.6500  127.2970   67.1940 C   0  0  0  0  0  0  0  0  0  0  0  0
  128.7630  126.9250   68.6640 C   0  0  0  0  0  0  0  0  0  0  0  0
  128.9950  126.4300   66.1230 C   0  0  0  0  0  0  0  0  0  0  0  0
  129.4960  125.0820   66.0900 C   0  0  0  0  0  0  0  0  0  0  0  0
  129.7350  124.3600   67.2320 N   0  0  0  0  0  0  0  0  0  0  0  0
  1  2  1  0
  2  3  1  0
  3  4  1  0
  4  5  1  0
  5  6  1  0
  6  7  1  0
  7  8  1  0
  8  9  1  0
  9 10  1  0
 10 11  1  0
 11 12  1  0
 12 13  2  0
 12 14  1  0
 14 15  1  0
 15 16  1  0
 16 17  2  0
 17 18  1  0
 18 19  1  0
 18 20  2  0
 20 21  1  0
 21 22  1  0
 21 23  2  0
 23 24  1  0
 24 25  1  0
 24 14  2  0
 23 16  1  0
M  END
>  <Binding energies>  (47) 
[-6.21]

>  <Ligand effiencies>  (47) 
[-0.22178571428571428]

>  <Interactions>  (47) 
["V-B:GLU:543:CB:9878, V-B:HIS:456:CE1:9040, V-A:GLU:543:CD:4908, V-B:GLU:543:CD:9880, V-B:ILE:538:CB:9834, V-B:ALA:541:CB:9864, V-B:PRO:540:CA:9855, V-B:PRO:540:CB:9857, V-B:PRO:540:CD:9859, V-B:GLU:543:CG:9879, V-A:TYR:484:CE1:4345, H-B:TYR:539:N:9842, V-B:TYR:539:CD2:9846, V-A:LEU:475:CD1:4258, V-B:LEU:363:CD1:8160, V-B:ILE:538:CG2:9835, V-A:TYR:484:CZ:4347, V-B:TYR:539:CE2:9848, V-B:GLU:543:C:9874, V-B:TYR:539:CE1:9847, V-B:TYR:539:CG:9844, V-B:TYR:539:CZ:9849, V-B:TYR:539:CD1:9845, H-B:ALA:541:N:9863, H-B:GLU:543:O:9875, H-A:TYR:484:OH:4348, V-A:HIS:456:CE1:4069, V-A:GLU:543:CB:4906, V-B:GLU:543:CA:9876, H-A:HIS:456:ND1:4067"]

$$$$
4al_Grossjean_2025
     RDKit          3D

 16 17  0  0  0  0  0  0  0  0999 V2000
  127.8970  133.6580   61.4170 C   0  0  0  0  0  0  0  0  0  0  0  0
  128.3250  132.3130   61.2640 O   0  0  0  0  0  0  0  0  0  0  0  0
  129.6430  132.0110   61.1420 C   0  0  0  0  0  0  0  0  0  0  0  0
  130.3940  131.8010   62.0970 O   0  0  0  0  0  0  0  0  0  0  0  0
  130.0940  131.9580   59.7340 C   0  0  0  0  0  0  0  0  0  0  0  0
  129.1760  132.7980   58.4820 S   0  0  0  0  0  0  0  0  0  0  0  0
  130.2930  132.2650   57.2470 C   0  0  0  0  0  0  0  0  0  0  0  0
  130.1380  132.5970   55.9650 N   0  0  0  0  0  0  0  0  0  0  0  0
  131.0750  132.1190   55.1080 C   0  0  0  0  0  0  0  0  0  0  0  0
  130.8790  132.5090   53.6550 C   0  0  0  0  0  0  0  0  0  0  0  0
  132.1500  131.3260   55.5000 C   0  0  0  0  0  0  0  0  0  0  0  0
  132.3110  130.9790   56.8460 C   0  0  0  0  0  0  0  0  0  0  0  0
  133.5000  130.1110   57.2260 C   0  0  0  0  0  0  0  0  0  0  0  0
  131.3480  131.4620   57.7740 C   0  0  0  0  0  0  0  0  0  0  0  0
  131.2080  131.3040   59.1950 C   0  0  0  0  0  0  0  0  0  0  0  0
  132.0930  130.5750   59.9470 N   0  0  0  0  0  0  0  0  0  0  0  0
  1  2  1  0
  2  3  1  0
  3  4  2  0
  3  5  1  0
  5  6  1  0
  6  7  1  0
  7  8  2  0
  8  9  1  0
  9 10  1  0
  9 11  2  0
 11 12  1  0
 12 13  1  0
 12 14  2  0
 14 15  1  0
 15 16  1  0
 15  5  2  0
 14  7  1  0
M  END
>  <Binding energies>  (48) 
[-5.73]

>  <Ligand effiencies>  (48) 
[-0.31833333333333336]

>  <Interactions>  (48) 
["H-A:GLU:543:OE1:4909, V-A:ILE:538:CD1:4865, V-A:TYR:539:CD2:4874, V-A:TYR:539:C:4867, H-A:TYR:539:N:4870, V-A:TYR:531:CE2:4793, V-A:PRO:540:CB:4885, V-A:PRO:540:CA:4883, V-A:PRO:540:N:4884, V-A:LEU:363:CD1:3189, V-A:TYR:539:CE2:4876, V-A:ALA:541:CB:4892, V-A:TYR:539:CG:4872, V-A:ASP:366:CB:3212, V-A:TYR:531:CZ:4794, V-A:ILE:538:CA:4860, V-A:VAL:537:C:4850, V-A:LEU:363:CA:3185, H-A:ALA:541:N:4891, H-A:ASP:366:OD1:3214"]

$$$$
4bc_Grossjean_2025
     RDKit          3D

 26 28  0  0  0  0  0  0  0  0999 V2000
  124.1290  129.5520   66.2660 C   0  0  0  0  0  0  0  0  0  0  0  0
  124.0930  130.6500   65.3590 O   0  0  0  0  0  0  0  0  0  0  0  0
  125.0580  130.7410   64.3740 C   0  0  0  0  0  0  0  0  0  0  0  0
  124.7920  131.6170   63.3230 C   0  0  0  0  0  0  0  0  0  0  0  0
  125.7050  131.7760   62.2830 C   0  0  0  0  0  0  0  0  0  0  0  0
  126.9050  131.0630   62.2880 C   0  0  0  0  0  0  0  0  0  0  0  0
  127.7590  131.2760   61.1890 N   0  0  0  0  0  0  0  0  0  0  0  0
  129.0300  131.7470   61.1700 C   0  0  0  0  0  0  0  0  0  0  0  0
  129.6440  132.1090   62.1740 O   0  0  0  0  0  0  0  0  0  0  0  0
  129.6570  131.8120   59.8460 C   0  0  0  0  0  0  0  0  0  0  0  0
  128.9170  132.7630   58.5610 S   0  0  0  0  0  0  0  0  0  0  0  0
  130.1880  132.3250   57.4430 C   0  0  0  0  0  0  0  0  0  0  0  0
  130.1960  132.7750   56.1890 N   0  0  0  0  0  0  0  0  0  0  0  0
  131.2300  132.3660   55.4180 C   0  0  0  0  0  0  0  0  0  0  0  0
  131.2240  132.8940   53.9950 C   0  0  0  0  0  0  0  0  0  0  0  0
  132.2470  131.5270   55.8670 C   0  0  0  0  0  0  0  0  0  0  0  0
  132.2430  131.0500   57.1880 C   0  0  0  0  0  0  0  0  0  0  0  0
  133.3820  130.1260   57.6350 C   0  0  0  0  0  0  0  0  0  0  0  0
  134.2840  129.9080   56.6750 F   0  0  0  0  0  0  0  0  0  0  0  0
  134.0220  130.6700   58.6690 F   0  0  0  0  0  0  0  0  0  0  0  0
  132.8880  128.9420   57.9950 F   0  0  0  0  0  0  0  0  0  0  0  0
  131.1670  131.4640   58.0280 C   0  0  0  0  0  0  0  0  0  0  0  0
  130.8350  131.1900   59.4050 C   0  0  0  0  0  0  0  0  0  0  0  0
  131.6100  130.3920   60.2080 N   0  0  0  0  0  0  0  0  0  0  0  0
  127.1740  130.1690   63.3350 C   0  0  0  0  0  0  0  0  0  0  0  0
  126.2590  130.0130   64.3720 C   0  0  0  0  0  0  0  0  0  0  0  0
  1  2  1  0
  2  3  1  0
  3  4  2  0
  4  5  1  0
  5  6  2  0
  6  7  1  0
  7  8  1  0
  8  9  2  0
  8 10  1  0
 10 11  1  0
 11 12  1  0
 12 13  2  0
 13 14  1  0
 14 15  1  0
 14 16  2  0
 16 17  1  0
 17 18  1  0
 18 19  1  0
 18 20  1  0
 18 21  1  0
 17 22  2  0
 22 23  1  0
 23 24  1  0
  6 25  1  0
 25 26  2  0
 26  3  1  0
 23 10  2  0
 22 12  1  0
M  END
>  <Binding energies>  (49) 
[-7.04]

>  <Ligand effiencies>  (49) 
[-0.24275862068965517]

>  <Interactions>  (49) 
["H-A:GLU:543:OE1:4909, V-A:ILE:538:CD1:4865, V-A:TYR:539:CD2:4874, V-A:TYR:539:C:4867, H-A:TYR:539:N:4870, V-A:TYR:531:CE2:4793, V-A:PRO:540:CB:4885, V-A:PRO:540:CA:4883, V-A:PRO:540:N:4884, V-A:LEU:363:CD1:3189, V-A:TYR:539:CE2:4876, V-B:LEU:475:CD1:9229, V-A:ILE:538:CG2:4863, V-A:TYR:539:CG:4872, V-A:ASP:366:CB:3212, V-A:TYR:531:CZ:4794, V-A:ILE:538:C:4858, V-A:ILE:538:CA:4860, V-A:LEU:363:CG:3188, V-A:LEU:363:CB:3187, V-A:ASP:366:CG:3213, V-A:VAL:537:C:4850, V-A:LEU:363:CA:3185, V-B:ARG:545:CG:9894, H-A:ALA:541:N:4891, H-B:TYR:484:OH:9319, V-B:ARG:545:CZ:9898, H-B:GLY:454:N:9021, V-B:GLY:454:CA:9020, V-B:ARG:545:CD:9895, V-A:ASN:362:C:3172, V-A:LEU:363:C:3183, H-A:ASP:366:OD1:3214, V-A:ILE:538:CG1:4864, V-A:ILE:538:CB:4862"]

$$$$
4bf_Grossjean_2025
     RDKit          3D

 24 26  0  0  0  0  0  0  0  0999 V2000
  127.1140  123.1790   53.8140 C   0  0  0  0  0  0  0  0  0  0  0  0
  126.7360  123.4640   55.2570 C   0  0  0  0  0  0  0  0  0  0  0  0
  125.6080  124.2190   55.5670 C   0  0  0  0  0  0  0  0  0  0  0  0
  125.2730  124.4780   56.9050 C   0  0  0  0  0  0  0  0  0  0  0  0
  124.0240  125.3160   57.1980 C   0  0  0  0  0  0  0  0  0  0  0  0
  123.2930  124.8300   58.2050 F   0  0  0  0  0  0  0  0  0  0  0  0
  124.3800  126.5580   57.5260 F   0  0  0  0  0  0  0  0  0  0  0  0
  123.2410  125.3530   56.1190 F   0  0  0  0  0  0  0  0  0  0  0  0
  126.1300  123.9380   57.9090 C   0  0  0  0  0  0  0  0  0  0  0  0
  126.1100  123.9930   59.3500 C   0  0  0  0  0  0  0  0  0  0  0  0
  125.1340  124.6550   60.0510 N   0  0  0  0  0  0  0  0  0  0  0  0
  127.1700  123.3080   59.9660 C   0  0  0  0  0  0  0  0  0  0  0  0
  127.4720  123.1870   61.3960 C   0  0  0  0  0  0  0  0  0  0  0  0
  126.8070  122.4410   62.1160 O   0  0  0  0  0  0  0  0  0  0  0  0
  128.5180  123.9310   61.8340 N   0  0  0  0  0  0  0  0  0  0  0  0
  129.0290  124.0780   63.1370 C   0  0  0  0  0  0  0  0  0  0  0  0
  129.2690  125.3030   63.7840 C   0  0  0  0  0  0  0  0  0  0  0  0
  129.7950  125.3100   65.0780 C   0  0  0  0  0  0  0  0  0  0  0  0
  130.0740  124.0880   65.6920 C   0  0  0  0  0  0  0  0  0  0  0  0
  129.8590  122.8940   65.0870 N   0  0  0  0  0  0  0  0  0  0  0  0
  129.3470  122.9040   63.8290 C   0  0  0  0  0  0  0  0  0  0  0  0
  128.2350  122.5740   58.7700 S   0  0  0  0  0  0  0  0  0  0  0  0
  127.2550  123.1810   57.4560 C   0  0  0  0  0  0  0  0  0  0  0  0
  127.5690  122.9370   56.1840 N   0  0  0  0  0  0  0  0  0  0  0  0
  1  2  1  0
  2  3  2  0
  3  4  1  0
  4  5  1  0
  5  6  1  0
  5  7  1  0
  5  8  1  0
  4  9  2  0
  9 10  1  0
 10 11  1  0
 10 12  2  0
 12 13  1  0
 13 14  2  0
 13 15  1  0
 15 16  1  0
 16 17  2  0
 17 18  1  0
 18 19  2  0
 19 20  1  0
 20 21  2  0
 12 22  1  0
 22 23  1  0
 23 24  2  0
 24  2  1  0
 23  9  1  0
 21 16  1  0
M  END
>  <Binding energies>  (50) 
[-6.63]

>  <Ligand effiencies>  (50) 
[-0.24555555555555555]

>  <Interactions>  (50) 
["V-B:GLU:543:CB:9878, V-B:GLU:543:CD:9880, V-B:ILE:538:CB:9834, V-B:ALA:541:CB:9864, V-B:TYR:539:C:9839, V-B:PRO:540:CA:9855, V-B:GLU:543:CG:9879, V-A:TYR:484:CE1:4345, V-B:TYR:539:CD2:9846, V-B:LEU:363:CD1:8160, V-B:ILE:538:CG2:9835, V-A:TYR:484:CZ:4347, V-B:TYR:539:CE2:9848, V-B:ILE:538:CA:9832, V-B:TYR:539:CE1:9847, V-B:ASP:366:CG:8184, V-B:TYR:531:CZ:9766, V-B:ASP:366:CB:8183, V-B:TYR:531:CE2:9765, H-B:ALA:541:N:9863, V-B:LEU:363:CA:8156, H-B:ASP:366:OD1:8185, H-A:TYR:484:OH:4348, V-B:TYR:531:CD2:9763, H-B:GLU:543:OE2:9882"]

$$$$
4bh_Grossjean_2025
     RDKit          3D

 31 33  0  0  0  0  0  0  0  0999 V2000
  123.0280  130.6940   62.3590 C   0  0  0  0  0  0  0  0  0  0  0  0
  123.7010  130.4520   63.5900 O   0  0  0  0  0  0  0  0  0  0  0  0
  125.0380  130.7870   63.7100 C   0  0  0  0  0  0  0  0  0  0  0  0
  125.6310  131.8850   63.0680 C   0  0  0  0  0  0  0  0  0  0  0  0
  126.9890  132.1630   63.2330 C   0  0  0  0  0  0  0  0  0  0  0  0
  127.6060  133.3860   62.5650 C   0  0  0  0  0  0  0  0  0  0  0  0
  128.2640  133.0860   61.2930 N   0  0  0  0  0  0  0  0  0  0  0  0
  129.3820  132.3450   61.1460 C   0  0  0  0  0  0  0  0  0  0  0  0
  129.9930  131.8700   62.1060 O   0  0  0  0  0  0  0  0  0  0  0  0
  129.8620  132.1710   59.7750 C   0  0  0  0  0  0  0  0  0  0  0  0
  128.9990  132.9200   58.4370 S   0  0  0  0  0  0  0  0  0  0  0  0
  130.1090  132.2290   57.2770 C   0  0  0  0  0  0  0  0  0  0  0  0
  129.9780  132.4530   55.9700 N   0  0  0  0  0  0  0  0  0  0  0  0
  130.9000  131.8660   55.1720 C   0  0  0  0  0  0  0  0  0  0  0  0
  130.7310  132.1330   53.6870 C   0  0  0  0  0  0  0  0  0  0  0  0
  131.9400  131.0700   55.6440 C   0  0  0  0  0  0  0  0  0  0  0  0
  132.0820  130.8290   57.0200 C   0  0  0  0  0  0  0  0  0  0  0  0
  133.2440  129.9490   57.4930 C   0  0  0  0  0  0  0  0  0  0  0  0
  134.1010  129.6430   56.5150 F   0  0  0  0  0  0  0  0  0  0  0  0
  133.9330  130.5830   58.4410 F   0  0  0  0  0  0  0  0  0  0  0  0
  132.7710  128.8030   57.9830 F   0  0  0  0  0  0  0  0  0  0  0  0
  131.1250  131.4310   57.8890 C   0  0  0  0  0  0  0  0  0  0  0  0
  130.9480  131.4060   59.3200 C   0  0  0  0  0  0  0  0  0  0  0  0
  131.7750  130.7040   60.1590 N   0  0  0  0  0  0  0  0  0  0  0  0
  127.7590  131.3540   64.0710 C   0  0  0  0  0  0  0  0  0  0  0  0
  127.1940  130.2450   64.7200 C   0  0  0  0  0  0  0  0  0  0  0  0
  127.9000  129.3940   65.5510 O   0  0  0  0  0  0  0  0  0  0  0  0
  128.3030  128.1190   65.0640 C   0  0  0  0  0  0  0  0  0  0  0  0
  125.8330  129.9690   64.5260 C   0  0  0  0  0  0  0  0  0  0  0  0
  125.2620  128.8960   65.1700 O   0  0  0  0  0  0  0  0  0  0  0  0
  124.8450  129.1760   66.4990 C   0  0  0  0  0  0  0  0  0  0  0  0
  1  2  1  0
  2  3  1  0
  3  4  2  0
  4  5  1  0
  5  6  1  0
  6  7  1  0
  7  8  1  0
  8  9  2  0
  8 10  1  0
 10 11  1  0
 11 12  1  0
 12 13  2  0
 13 14  1  0
 14 15  1  0
 14 16  2  0
 16 17  1  0
 17 18  1  0
 18 19  1  0
 18 20  1  0
 18 21  1  0
 17 22  2  0
 22 23  1  0
 23 24  1  0
  5 25  2  0
 25 26  1  0
 26 27  1  0
 27 28  1  0
 26 29  2  0
 29 30  1  0
 30 31  1  0
 29  3  1  0
 23 10  2  0
 22 12  1  0
M  END
>  <Binding energies>  (51) 
[-7.16]

>  <Ligand effiencies>  (51) 
[-0.21058823529411766]

>  <Interactions>  (51) 
["V-B:HIS:456:CE1:9040, V-A:GLU:543:CD:4908, H-A:GLU:543:OE1:4909, V-A:ILE:538:CD1:4865, V-A:TYR:539:CD2:4874, V-A:TYR:539:C:4867, H-A:TYR:539:N:4870, V-A:TYR:531:CE2:4793, V-A:PRO:540:CB:4885, V-A:PRO:540:CA:4883, V-A:PRO:540:N:4884, V-A:LEU:363:CD1:3189, V-A:TYR:539:CE2:4876, V-B:LEU:475:CD1:9229, V-A:ALA:541:CB:4892, V-B:ILE:369:CD1:8210, V-A:TYR:539:CG:4872, V-A:ASP:366:CB:3212, V-A:TYR:531:CZ:4794, V-A:PRO:540:C:4881, V-A:ILE:538:CA:4860, V-A:LEU:363:CB:3187, V-A:ASP:366:CG:3213, V-A:LEU:363:CA:3185, V-B:ASP:366:CG:8184, V-B:ARG:545:CG:9894, H-A:TYR:539:O:4868, H-A:ALA:541:N:4891, V-B:GLY:453:CA:9015, H-B:TYR:484:OH:9319, H-B:ARG:545:NH2:9900, V-B:ARG:545:CZ:9898, H-B:GLY:454:N:9021, H-B:ARG:545:NE:9896, V-B:GLY:453:C:9013, V-B:ARG:545:CD:9895, V-A:ASN:362:C:3172, H-A:ASP:366:OD1:3214"]

$$$$
4bi_Grossjean_2025
     RDKit          3D

 23 25  0  0  0  0  0  0  0  0999 V2000
  127.8480  130.1750   65.1200 C   0  0  0  0  0  0  0  0  0  0  0  0
  128.2730  128.8870   65.8030 C   0  0  0  0  0  0  0  0  0  0  0  0
  128.6650  127.7770   65.0590 C   0  0  0  0  0  0  0  0  0  0  0  0
  129.0590  126.5930   65.7040 C   0  0  0  0  0  0  0  0  0  0  0  0
  129.4900  125.4010   64.8440 C   0  0  0  0  0  0  0  0  0  0  0  0
  128.9950  124.2390   65.2770 F   0  0  0  0  0  0  0  0  0  0  0  0
  129.0700  125.5710   63.5910 F   0  0  0  0  0  0  0  0  0  0  0  0
  130.8200  125.2950   64.8520 F   0  0  0  0  0  0  0  0  0  0  0  0
  129.0330  126.5880   67.1310 C   0  0  0  0  0  0  0  0  0  0  0  0
  129.3550  125.5830   68.1140 C   0  0  0  0  0  0  0  0  0  0  0  0
  129.7820  124.3240   67.7750 N   0  0  0  0  0  0  0  0  0  0  0  0
  129.2010  126.0100   69.4440 C   0  0  0  0  0  0  0  0  0  0  0  0
  129.4250  125.2530   70.6780 C   0  0  0  0  0  0  0  0  0  0  0  0
  129.3560  125.8060   71.7770 O   0  0  0  0  0  0  0  0  0  0  0  0
  129.6860  123.9320   70.5120 N   0  0  0  0  0  0  0  0  0  0  0  0
  129.9230  122.9860   71.5010 C   0  0  0  0  0  0  0  0  0  0  0  0
  131.0980  122.9440   72.2490 C   0  0  0  0  0  0  0  0  0  0  0  0
  130.9410  121.8780   73.1050 C   0  0  0  0  0  0  0  0  0  0  0  0
  129.7320  121.3080   72.8840 O   0  0  0  0  0  0  0  0  0  0  0  0
  129.0970  122.0190   71.8640 N   0  0  0  0  0  0  0  0  0  0  0  0
  128.6240  127.6730   69.5150 S   0  0  0  0  0  0  0  0  0  0  0  0
  128.6110  127.7930   67.7720 C   0  0  0  0  0  0  0  0  0  0  0  0
  128.2390  128.9140   67.1550 N   0  0  0  0  0  0  0  0  0  0  0  0
  1  2  1  0
  2  3  2  0
  3  4  1  0
  4  5  1  0
  5  6  1  0
  5  7  1  0
  5  8  1  0
  4  9  2  0
  9 10  1  0
 10 11  1  0
 10 12  2  0
 12 13  1  0
 13 14  2  0
 13 15  1  0
 15 16  1  0
 16 17  1  0
 17 18  2  0
 18 19  1  0
 19 20  1  0
 12 21  1  0
 21 22  1  0
 22 23  2  0
 23  2  1  0
 22  9  1  0
 20 16  2  0
M  END
>  <Binding energies>  (52) 
[-7.39]

>  <Ligand effiencies>  (52) 
[-0.28423076923076923]

>  <Interactions>  (52) 
["H-B:LYS:547:NZ:9923, V-B:GLU:543:CB:9878, V-B:HIS:456:CE1:9040, V-A:HIS:456:CD2:4068, H-A:HIS:456:NE2:4070, V-A:GLU:543:CD:4908, V-B:GLU:543:CD:9880, V-B:GLU:543:CG:9879, V-A:TYR:484:CE1:4345, V-A:TYR:484:CZ:4347, V-B:GLU:543:C:9874, V-A:HIS:456:CB:4065, V-A:TYR:484:CD1:4343, V-A:TYR:484:CG:4342, V-A:HIS:456:CG:4066, H-B:GLU:543:O:9875, V-A:TYR:484:CB:4341, V-A:TYR:484:CD2:4344, V-A:TYR:484:CE2:4346, H-A:TYR:484:OH:4348, V-A:HIS:456:CE1:4069, V-A:GLU:543:CB:4906, V-B:GLU:543:CA:9876, H-A:HIS:456:ND1:4067, V-A:ASP:473:CG:4240, V-A:ASP:473:CB:4239"]

$$$$
4bj_Grossjean_2025
     RDKit          3D

 23 25  0  0  0  0  0  0  0  0999 V2000
  127.8820  130.2420   65.3110 C   0  0  0  0  0  0  0  0  0  0  0  0
  128.3070  128.9450   65.9760 C   0  0  0  0  0  0  0  0  0  0  0  0
  128.6900  127.8420   65.2180 C   0  0  0  0  0  0  0  0  0  0  0  0
  129.0740  126.6470   65.8470 C   0  0  0  0  0  0  0  0  0  0  0  0
  129.4840  125.4580   64.9700 C   0  0  0  0  0  0  0  0  0  0  0  0
  129.0020  124.2940   65.4100 F   0  0  0  0  0  0  0  0  0  0  0  0
  129.0320  125.6350   63.7290 F   0  0  0  0  0  0  0  0  0  0  0  0
  130.8130  125.3550   64.9440 F   0  0  0  0  0  0  0  0  0  0  0  0
  129.0560  126.6240   67.2730 C   0  0  0  0  0  0  0  0  0  0  0  0
  129.3710  125.6040   68.2430 C   0  0  0  0  0  0  0  0  0  0  0  0
  129.7850  124.3450   67.8870 N   0  0  0  0  0  0  0  0  0  0  0  0
  129.2250  126.0160   69.5770 C   0  0  0  0  0  0  0  0  0  0  0  0
  129.4490  125.2430   70.8010 C   0  0  0  0  0  0  0  0  0  0  0  0
  129.3610  125.7760   71.9090 O   0  0  0  0  0  0  0  0  0  0  0  0
  129.7350  123.9310   70.6170 N   0  0  0  0  0  0  0  0  0  0  0  0
  129.9760  122.9830   71.6030 C   0  0  0  0  0  0  0  0  0  0  0  0
  129.2800  121.9000   71.8710 N   0  0  0  0  0  0  0  0  0  0  0  0
  129.8020  121.2240   72.8740 C   0  0  0  0  0  0  0  0  0  0  0  0
  130.9510  121.7600   73.4460 C   0  0  0  0  0  0  0  0  0  0  0  0
  131.3610  123.2320   72.6180 S   0  0  0  0  0  0  0  0  0  0  0  0
  128.6670  127.6840   69.6720 S   0  0  0  0  0  0  0  0  0  0  0  0
  128.6470  127.8250   67.9300 C   0  0  0  0  0  0  0  0  0  0  0  0
  128.2800  128.9570   67.3290 N   0  0  0  0  0  0  0  0  0  0  0  0
  1  2  1  0
  2  3  2  0
  3  4  1  0
  4  5  1  0
  5  6  1  0
  5  7  1  0
  5  8  1  0
  4  9  2  0
  9 10  1  0
 10 11  1  0
 10 12  2  0
 12 13  1  0
 13 14  2  0
 13 15  1  0
 15 16  1  0
 16 17  2  0
 17 18  1  0
 18 19  2  0
 19 20  1  0
 12 21  1  0
 21 22  1  0
 22 23  2  0
 23  2  1  0
 22  9  1  0
 20 16  1  0
M  END
>  <Binding energies>  (53) 
[-6.5]

>  <Ligand effiencies>  (53) 
[-0.25]

>  <Interactions>  (53) 
["H-B:LYS:547:NZ:9923, V-B:LYS:547:CE:9922, V-B:GLU:543:CB:9878, H-B:HIS:456:NE2:9041, V-B:HIS:456:CE1:9040, V-A:HIS:456:CD2:4068, H-A:HIS:456:NE2:4070, V-A:GLU:543:CD:4908, V-B:GLU:543:CD:9880, V-B:GLU:543:CG:9879, V-A:TYR:484:CE1:4345, V-A:TYR:484:CZ:4347, V-B:GLU:543:C:9874, V-A:HIS:456:CB:4065, V-A:TYR:484:CD1:4343, V-A:TYR:484:CG:4342, V-A:HIS:456:CG:4066, H-B:GLU:543:O:9875, V-A:TYR:484:CB:4341, V-A:TYR:484:CD2:4344, V-A:TYR:484:CE2:4346, H-A:TYR:484:OH:4348, V-A:HIS:456:CE1:4069, V-A:GLU:543:CB:4906, V-B:GLU:543:CA:9876, H-A:HIS:456:ND1:4067, V-A:ASP:473:CG:4240, V-A:ASP:473:CB:4239"]

$$$$
4bk_Grossjean_2025
     RDKit          3D

 28 29  0  0  0  0  0  0  0  0999 V2000
  126.3390  129.9630   56.3870 C   0  0  0  0  0  0  0  0  0  0  0  0
  126.3940  130.2590   55.0000 O   0  0  0  0  0  0  0  0  0  0  0  0
  127.6560  129.9720   54.4100 C   0  0  0  0  0  0  0  0  0  0  0  0
  128.7460  130.0100   55.4880 C   0  0  0  0  0  0  0  0  0  0  0  0
  129.3890  131.2760   55.4640 O   0  0  0  0  0  0  0  0  0  0  0  0
  129.2010  131.9930   54.2520 C   0  0  0  0  0  0  0  0  0  0  0  0
  130.4260  132.8780   53.9870 C   0  0  0  0  0  0  0  0  0  0  0  0
  131.1720  133.0190   55.1880 O   0  0  0  0  0  0  0  0  0  0  0  0
  132.3440  132.2140   55.2360 C   0  0  0  0  0  0  0  0  0  0  0  0
  132.3440  131.3910   56.5360 C   0  0  0  0  0  0  0  0  0  0  0  0
  131.2610  131.7440   57.4550 N   0  0  0  0  0  0  0  0  0  0  0  0
  131.2150  131.4240   58.7650 C   0  0  0  0  0  0  0  0  0  0  0  0
  132.1200  130.8040   59.3260 O   0  0  0  0  0  0  0  0  0  0  0  0
  130.0250  131.8660   59.4940 C   0  0  0  0  0  0  0  0  0  0  0  0
  128.7200  132.6860   58.6420 S   0  0  0  0  0  0  0  0  0  0  0  0
  127.7840  132.8180   60.1110 C   0  0  0  0  0  0  0  0  0  0  0  0
  126.5860  133.4000   60.1230 N   0  0  0  0  0  0  0  0  0  0  0  0
  125.9550  133.4410   61.3200 C   0  0  0  0  0  0  0  0  0  0  0  0
  124.5910  134.1060   61.3090 C   0  0  0  0  0  0  0  0  0  0  0  0
  126.4910  132.9190   62.4940 C   0  0  0  0  0  0  0  0  0  0  0  0
  127.7540  132.3060   62.4900 C   0  0  0  0  0  0  0  0  0  0  0  0
  128.3020  131.7490   63.8080 C   0  0  0  0  0  0  0  0  0  0  0  0
  129.5500  132.1490   64.0640 F   0  0  0  0  0  0  0  0  0  0  0  0
  127.5370  132.1530   64.8210 F   0  0  0  0  0  0  0  0  0  0  0  0
  128.3110  130.4180   63.7660 F   0  0  0  0  0  0  0  0  0  0  0  0
  128.4450  132.2450   61.2430 C   0  0  0  0  0  0  0  0  0  0  0  0
  129.7230  131.7040   60.8550 C   0  0  0  0  0  0  0  0  0  0  0  0
  130.5690  131.0890   61.7420 N   0  0  0  0  0  0  0  0  0  0  0  0
  1  2  1  0
  2  3  1  0
  3  4  1  0
  4  5  1  0
  5  6  1  0
  6  7  1  0
  7  8  1  0
  8  9  1  0
  9 10  1  0
 10 11  1  0
 11 12  1  0
 12 13  2  0
 12 14  1  0
 14 15  1  0
 15 16  1  0
 16 17  2  0
 17 18  1  0
 18 19  1  0
 18 20  2  0
 20 21  1  0
 21 22  1  0
 22 23  1  0
 22 24  1  0
 22 25  1  0
 21 26  2  0
 26 27  1  0
 27 28  1  0
 27 14  2  0
 26 16  1  0
M  END
>  <Binding energies>  (54) 
[-5.13]

>  <Ligand effiencies>  (54) 
[-0.16548387096774192]

>  <Interactions>  (54) 
["V-A:GLU:543:CD:4908, H-A:GLU:543:OE1:4909, V-A:ILE:538:CD1:4865, V-A:TYR:539:CD2:4874, V-A:TYR:539:C:4867, V-A:TYR:539:CZ:4877, H-A:TYR:539:N:4870, V-A:TYR:539:CE1:4875, V-A:TYR:531:CE2:4793, V-A:PRO:540:CB:4885, V-A:PRO:540:CA:4883, V-A:PRO:540:N:4884, V-A:LEU:363:CD1:3189, V-A:TYR:539:CE2:4876, V-B:LEU:475:CD1:9229, V-A:ILE:538:CG2:4863, V-B:ILE:369:CG2:8208, V-A:ALA:541:CB:4892, V-A:TYR:539:CG:4872, V-A:TYR:539:CD1:4873, V-A:ILE:538:C:4858, V-A:ILE:538:CA:4860, V-A:VAL:537:C:4850, V-A:ALA:541:CA:4890, V-A:GLU:543:CB:4906, H-B:TYR:531:OH:9767, H-A:TYR:539:OH:4878, V-B:TYR:484:CZ:9318, V-B:TYR:484:CE1:9316, V-A:GLU:543:CG:4907"]

$$$$
4cd_Grossjean_2025
     RDKit          3D

 29 32  0  0  0  0  0  0  0  0999 V2000
  129.3590  131.1700   62.9660 N   0  0  0  0  0  0  0  0  0  0  0  0
  128.6930  131.3770   61.7840 C   0  0  0  0  0  0  0  0  0  0  0  0
  127.2970  131.5070   61.7000 C   0  0  0  0  0  0  0  0  0  0  0  0
  126.3070  131.4380   62.7790 C   0  0  0  0  0  0  0  0  0  0  0  0
  125.5120  132.3610   62.9620 O   0  0  0  0  0  0  0  0  0  0  0  0
  126.3390  130.3070   63.5250 N   0  0  0  0  0  0  0  0  0  0  0  0
  125.5710  129.9530   64.6500 C   0  0  0  0  0  0  0  0  0  0  0  0
  126.2380  129.2320   65.6450 C   0  0  0  0  0  0  0  0  0  0  0  0
  125.5690  128.8470   66.8020 C   0  0  0  0  0  0  0  0  0  0  0  0
  124.2290  129.1890   66.9700 C   0  0  0  0  0  0  0  0  0  0  0  0
  123.5560  129.9180   65.9940 C   0  0  0  0  0  0  0  0  0  0  0  0
  124.2230  130.3050   64.8340 C   0  0  0  0  0  0  0  0  0  0  0  0
  126.7820  131.7720   60.0360 S   0  0  0  0  0  0  0  0  0  0  0  0
  128.4320  131.6970   59.4660 C   0  0  0  0  0  0  0  0  0  0  0  0
  128.7280  131.8350   58.1750 N   0  0  0  0  0  0  0  0  0  0  0  0
  130.0380  131.7480   57.8260 C   0  0  0  0  0  0  0  0  0  0  0  0
  130.3410  131.9050   56.3640 C   0  0  0  0  0  0  0  0  0  0  0  0
  131.6650  131.8730   55.8970 C   0  0  0  0  0  0  0  0  0  0  0  0
  131.9520  132.0170   54.5420 C   0  0  0  0  0  0  0  0  0  0  0  0
  130.9160  132.1950   53.6320 C   0  0  0  0  0  0  0  0  0  0  0  0
  129.5960  132.2270   54.0670 C   0  0  0  0  0  0  0  0  0  0  0  0
  129.3120  132.0800   55.4220 C   0  0  0  0  0  0  0  0  0  0  0  0
  131.0440  131.5420   58.7740 C   0  0  0  0  0  0  0  0  0  0  0  0
  130.7430  131.4000   60.1390 C   0  0  0  0  0  0  0  0  0  0  0  0
  131.8950  131.1730   61.1250 C   0  0  0  0  0  0  0  0  0  0  0  0
  131.9290  129.9310   61.6150 F   0  0  0  0  0  0  0  0  0  0  0  0
  133.0600  131.3940   60.5160 F   0  0  0  0  0  0  0  0  0  0  0  0
  131.7730  132.0060   62.1590 F   0  0  0  0  0  0  0  0  0  0  0  0
  129.3720  131.4770   60.5150 C   0  0  0  0  0  0  0  0  0  0  0  0
  1  2  1  0
  2  3  2  0
  3  4  1  0
  4  5  2  0
  4  6  1  0
  6  7  1  0
  7  8  2  0
  8  9  1  0
  9 10  2  0
 10 11  1  0
 11 12  2  0
  3 13  1  0
 13 14  1  0
 14 15  2  0
 15 16  1  0
 16 17  1  0
 17 18  2  0
 18 19  1  0
 19 20  2  0
 20 21  1  0
 21 22  2  0
 16 23  2  0
 23 24  1  0
 24 25  1  0
 25 26  1  0
 25 27  1  0
 25 28  1  0
 24 29  2  0
 29  2  1  0
 12  7  1  0
 29 14  1  0
 22 17  1  0
M  END
>  <Binding energies>  (55) 
[-7.74]

>  <Ligand effiencies>  (55) 
[-0.241875]

>  <Interactions>  (55) 
["V-B:HIS:456:CE1:9040, V-A:GLU:543:CD:4908, H-A:GLU:543:OE1:4909, V-A:ILE:538:CD1:4865, V-A:TYR:539:CZ:4877, V-A:TYR:539:CE1:4875, V-A:TYR:531:CE2:4793, V-A:PRO:540:CB:4885, V-A:PRO:540:CA:4883, V-A:PRO:540:N:4884, V-A:LEU:363:CD1:3189, V-A:TYR:539:CE2:4876, V-A:ALA:541:CB:4892, V-A:TYR:539:CD1:4873, V-A:PRO:540:C:4881, V-A:ASN:362:CB:3176, V-A:ILE:538:CA:4860, V-B:ARG:545:CG:9894, V-B:GLY:453:CA:9015, V-A:ALA:541:CA:4890, V-B:ARG:545:CZ:9898, V-B:GLY:454:CA:9020, V-B:GLY:453:C:9013, V-B:ARG:545:CD:9895, V-B:ARG:545:CB:9893, V-A:ALA:541:C:4888"]

$$$$
4cg_Grossjean_2025
     RDKit          3D

 30 33  0  0  0  0  0  0  0  0999 V2000
  126.6660  125.7190   54.6620 N   0  0  0  0  0  0  0  0  0  0  0  0
  127.5470  125.8930   55.6980 C   0  0  0  0  0  0  0  0  0  0  0  0
  128.2680  127.0790   55.9010 C   0  0  0  0  0  0  0  0  0  0  0  0
  128.2080  128.3250   55.1380 C   0  0  0  0  0  0  0  0  0  0  0  0
  127.1760  128.9960   55.0830 O   0  0  0  0  0  0  0  0  0  0  0  0
  129.3320  128.6660   54.4730 N   0  0  0  0  0  0  0  0  0  0  0  0
  129.5080  129.8740   53.6690 C   0  0  0  0  0  0  0  0  0  0  0  0
  130.2630  130.9810   54.3940 C   0  0  0  0  0  0  0  0  0  0  0  0
  129.7130  131.5600   55.5420 C   0  0  0  0  0  0  0  0  0  0  0  0
  130.4150  132.5500   56.2260 C   0  0  0  0  0  0  0  0  0  0  0  0
  131.6670  132.9500   55.7660 C   0  0  0  0  0  0  0  0  0  0  0  0
  132.2280  132.3650   54.6320 C   0  0  0  0  0  0  0  0  0  0  0  0
  131.5280  131.3740   53.9490 C   0  0  0  0  0  0  0  0  0  0  0  0
  129.2910  126.9710   57.3310 S   0  0  0  0  0  0  0  0  0  0  0  0
  128.7640  125.3320   57.6350 C   0  0  0  0  0  0  0  0  0  0  0  0
  129.2240  124.6360   58.6710 N   0  0  0  0  0  0  0  0  0  0  0  0
  128.7540  123.3710   58.8300 C   0  0  0  0  0  0  0  0  0  0  0  0
  129.2940  122.6110   60.0080 C   0  0  0  0  0  0  0  0  0  0  0  0
  130.2090  123.2060   60.8920 C   0  0  0  0  0  0  0  0  0  0  0  0
  130.7130  122.5060   61.9840 C   0  0  0  0  0  0  0  0  0  0  0  0
  130.3090  121.1940   62.2080 C   0  0  0  0  0  0  0  0  0  0  0  0
  129.4070  120.5790   61.3480 C   0  0  0  0  0  0  0  0  0  0  0  0
  128.9050  121.2830   60.2570 C   0  0  0  0  0  0  0  0  0  0  0  0
  127.8380  122.8060   57.9340 C   0  0  0  0  0  0  0  0  0  0  0  0
  127.3470  123.5310   56.8380 C   0  0  0  0  0  0  0  0  0  0  0  0
  126.3460  122.8510   55.8960 C   0  0  0  0  0  0  0  0  0  0  0  0
  125.3540  123.6590   55.5160 F   0  0  0  0  0  0  0  0  0  0  0  0
  126.9730  122.4410   54.7930 F   0  0  0  0  0  0  0  0  0  0  0  0
  125.7960  121.8030   56.5050 F   0  0  0  0  0  0  0  0  0  0  0  0
  127.8220  124.8640   56.6710 C   0  0  0  0  0  0  0  0  0  0  0  0
  1  2  1  0
  2  3  2  0
  3  4  1  0
  4  5  2  0
  4  6  1  0
  6  7  1  0
  7  8  1  0
  8  9  2  0
  9 10  1  0
 10 11  2  0
 11 12  1  0
 12 13  2  0
  3 14  1  0
 14 15  1  0
 15 16  2  0
 16 17  1  0
 17 18  1  0
 18 19  2  0
 19 20  1  0
 20 21  2  0
 21 22  1  0
 22 23  2  0
 17 24  2  0
 24 25  1  0
 25 26  1  0
 26 27  1  0
 26 28  1  0
 26 29  1  0
 25 30  2  0
 30  2  1  0
 13  8  1  0
 30 15  1  0
 23 18  1  0
M  END
>  <Binding energies>  (56) 
[-7.45]

>  <Ligand effiencies>  (56) 
[-0.22575757575757577]

>  <Interactions>  (56) 
["V-A:ILE:538:CD1:4865, V-A:TYR:539:C:4867, V-A:PRO:540:CD:4887, V-A:TYR:539:CE1:4875, V-A:TYR:531:CE2:4793, V-A:PRO:540:N:4884, V-A:LEU:363:CD1:3189, V-A:ILE:538:CG2:4863, V-B:ILE:538:CB:9834, V-B:ALA:541:CB:9864, V-B:PRO:540:C:9853, V-B:TYR:539:C:9839, V-B:PRO:540:CA:9855, V-B:PRO:540:CB:9857, V-B:PRO:540:CD:9859, V-B:PRO:540:N:9856, V-B:TYR:539:CD2:9846, V-A:LEU:475:CD1:4258, V-B:LEU:363:CD1:8160, V-B:ILE:538:CG2:9835, V-B:TYR:539:CE2:9848, V-A:TYR:531:CZ:4794, V-A:TYR:539:CD1:4873, V-A:ILE:538:C:4858, V-A:ILE:538:CA:4860, V-B:ILE:538:CA:9832, V-B:ALA:541:CA:9862, V-B:TYR:539:CE1:9847, V-B:TYR:531:CZ:9766, V-B:ILE:538:C:9830, V-B:TYR:531:CE2:9765, V-B:TYR:539:CZ:9849, V-B:TYR:539:CD1:9845, V-B:MET:535:CG:9805, H-A:TYR:531:OH:4795, V-B:TYR:539:CA:9841, V-B:PRO:540:CG:9858, V-A:MET:535:CE:4835, H-B:TYR:531:OH:9767, V-A:MET:535:CG:4833, V-A:ILE:538:CB:4862, H-B:MET:535:SD:9806"]

$$$$
4ch_Grossjean_2025
     RDKit          3D

 36 39  0  0  0  0  0  0  0  0999 V2000
  127.4430  123.2830   55.2020 C   0  0  0  0  0  0  0  0  0  0  0  0
  126.7770  122.4040   56.1040 O   0  0  0  0  0  0  0  0  0  0  0  0
  126.7120  122.7320   57.4460 C   0  0  0  0  0  0  0  0  0  0  0  0
  127.7160  122.4240   58.3780 C   0  0  0  0  0  0  0  0  0  0  0  0
  127.5830  122.7880   59.7190 C   0  0  0  0  0  0  0  0  0  0  0  0
  128.6710  122.4210   60.7220 C   0  0  0  0  0  0  0  0  0  0  0  0
  128.6710  123.2400   61.9350 N   0  0  0  0  0  0  0  0  0  0  0  0
  129.6970  123.3560   62.8030 C   0  0  0  0  0  0  0  0  0  0  0  0
  130.7760  122.7840   62.6340 O   0  0  0  0  0  0  0  0  0  0  0  0
  129.4700  124.2360   63.9500 C   0  0  0  0  0  0  0  0  0  0  0  0
  129.7400  123.6410   65.5850 S   0  0  0  0  0  0  0  0  0  0  0  0
  129.3070  125.1900   66.2670 C   0  0  0  0  0  0  0  0  0  0  0  0
  129.3080  125.3960   67.5810 N   0  0  0  0  0  0  0  0  0  0  0  0
  128.9630  126.6350   68.0180 C   0  0  0  0  0  0  0  0  0  0  0  0
  128.9680  126.8320   69.5070 C   0  0  0  0  0  0  0  0  0  0  0  0
  129.3820  128.0500   70.0700 C   0  0  0  0  0  0  0  0  0  0  0  0
  129.3910  128.2390   71.4500 C   0  0  0  0  0  0  0  0  0  0  0  0
  128.9840  127.2090   72.2890 C   0  0  0  0  0  0  0  0  0  0  0  0
  128.5730  125.9900   71.7590 C   0  0  0  0  0  0  0  0  0  0  0  0
  128.5680  125.8050   70.3790 C   0  0  0  0  0  0  0  0  0  0  0  0
  128.6010  127.6550   67.1340 C   0  0  0  0  0  0  0  0  0  0  0  0
  128.5940  127.4500   65.7440 C   0  0  0  0  0  0  0  0  0  0  0  0
  128.1870  128.6120   64.8320 C   0  0  0  0  0  0  0  0  0  0  0  0
  128.9190  128.6840   63.7170 F   0  0  0  0  0  0  0  0  0  0  0  0
  126.9140  128.4730   64.4650 F   0  0  0  0  0  0  0  0  0  0  0  0
  128.3340  129.7670   65.4790 F   0  0  0  0  0  0  0  0  0  0  0  0
  128.9680  126.1580   65.2750 C   0  0  0  0  0  0  0  0  0  0  0  0
  129.0820  125.5850   63.9560 C   0  0  0  0  0  0  0  0  0  0  0  0
  128.8230  126.2950   62.8120 N   0  0  0  0  0  0  0  0  0  0  0  0
  126.4310  123.4510   60.1410 C   0  0  0  0  0  0  0  0  0  0  0  0
  125.4100  123.7700   59.2310 C   0  0  0  0  0  0  0  0  0  0  0  0
  124.2430  124.4260   59.5790 O   0  0  0  0  0  0  0  0  0  0  0  0
  123.4820  123.9590   60.6880 C   0  0  0  0  0  0  0  0  0  0  0  0
  125.5660  123.4110   57.8850 C   0  0  0  0  0  0  0  0  0  0  0  0
  124.5690  123.7030   56.9870 O   0  0  0  0  0  0  0  0  0  0  0  0
  124.5060  125.0740   56.6160 C   0  0  0  0  0  0  0  0  0  0  0  0
  1  2  1  0
  2  3  1  0
  3  4  2  0
  4  5  1  0
  5  6  1  0
  6  7  1  0
  7  8  1  0
  8  9  2  0
  8 10  1  0
 10 11  1  0
 11 12  1  0
 12 13  2  0
 13 14  1  0
 14 15  1  0
 15 16  2  0
 16 17  1  0
 17 18  2  0
 18 19  1  0
 19 20  2  0
 14 21  2  0
 21 22  1  0
 22 23  1  0
 23 24  1  0
 23 25  1  0
 23 26  1  0
 22 27  2  0
 27 28  1  0
 28 29  1  0
  5 30  2  0
 30 31  1  0
 31 32  1  0
 32 33  1  0
 31 34  2  0
 34 35  1  0
 35 36  1  0
 34  3  1  0
 28 10  2  0
 27 12  1  0
 20 15  1  0
M  END
>  <Binding energies>  (57) 
[-7.64]

>  <Ligand effiencies>  (57) 
[-0.19589743589743588]

>  <Interactions>  (57) 
["V-B:GLU:543:CB:9878, V-B:HIS:456:CE1:9040, V-B:GLY:544:C:9884, V-A:HIS:456:CD2:4068, V-A:GLU:543:CD:4908, V-B:GLU:543:CD:9880, V-B:ALA:541:CB:9864, V-B:TYR:539:C:9839, V-B:PRO:540:CA:9855, V-B:PRO:540:CB:9857, V-B:PRO:540:CD:9859, V-B:GLU:543:CG:9879, V-A:TYR:484:CE1:4345, H-B:TYR:539:N:9842, V-B:PRO:540:N:9856, V-B:TYR:539:CD2:9846, V-B:LEU:363:CD1:8160, V-A:TYR:484:CZ:4347, V-B:TYR:539:CE2:9848, V-B:HIS:456:CD2:9039, V-B:ILE:538:CA:9832, V-B:TYR:539:CE1:9847, V-B:TYR:531:CZ:9766, V-B:TYR:531:CE2:9765, V-B:TYR:539:CZ:9849, V-B:TYR:539:CD1:9845, V-B:LEU:363:CA:8156, V-A:HIS:456:CE1:4069, V-A:GLU:543:CB:4906, V-B:GLU:543:CA:9876, H-B:GLU:543:OE1:9881, H-B:GLU:543:OE2:9882, V-A:GLU:543:CG:4907, V-B:ASN:362:C:8143, V-B:ASN:362:CB:8147"]

$$$$
4cj_Grossjean_2025
     RDKit          3D

 28 31  0  0  0  0  0  0  0  0999 V2000
  130.2710  124.6680   68.1990 N   0  0  0  0  0  0  0  0  0  0  0  0
  129.2540  125.5500   68.4660 C   0  0  0  0  0  0  0  0  0  0  0  0
  128.6820  125.7010   69.7400 C   0  0  0  0  0  0  0  0  0  0  0  0
  129.0250  125.0070   70.9840 C   0  0  0  0  0  0  0  0  0  0  0  0
  128.8110  125.5330   72.0790 O   0  0  0  0  0  0  0  0  0  0  0  0
  129.5880  123.7830   70.8310 N   0  0  0  0  0  0  0  0  0  0  0  0
  130.0020  122.9240   71.8410 C   0  0  0  0  0  0  0  0  0  0  0  0
  129.4290  121.8090   72.2370 N   0  0  0  0  0  0  0  0  0  0  0  0
  130.0970  121.2430   73.2230 C   0  0  0  0  0  0  0  0  0  0  0  0
  131.2460  121.9060   73.6470 C   0  0  0  0  0  0  0  0  0  0  0  0
  131.4520  123.3460   72.6950 S   0  0  0  0  0  0  0  0  0  0  0  0
  127.4140  126.9250   69.7270 S   0  0  0  0  0  0  0  0  0  0  0  0
  127.6570  127.2210   68.0220 C   0  0  0  0  0  0  0  0  0  0  0  0
  126.9350  128.1260   67.3650 N   0  0  0  0  0  0  0  0  0  0  0  0
  127.1990  128.2930   66.0440 C   0  0  0  0  0  0  0  0  0  0  0  0
  126.3760  129.3310   65.3360 C   0  0  0  0  0  0  0  0  0  0  0  0
  126.9890  130.3210   64.5520 C   0  0  0  0  0  0  0  0  0  0  0  0
  126.2320  131.2900   63.8980 C   0  0  0  0  0  0  0  0  0  0  0  0
  124.8460  131.2840   64.0210 C   0  0  0  0  0  0  0  0  0  0  0  0
  124.2150  130.3150   64.7930 C   0  0  0  0  0  0  0  0  0  0  0  0
  124.9750  129.3480   65.4450 C   0  0  0  0  0  0  0  0  0  0  0  0
  128.1700  127.5330   65.3830 C   0  0  0  0  0  0  0  0  0  0  0  0
  128.9350  126.5740   66.0650 C   0  0  0  0  0  0  0  0  0  0  0  0
  129.9840  125.7780   65.2800 C   0  0  0  0  0  0  0  0  0  0  0  0
  130.1330  126.2030   64.0240 F   0  0  0  0  0  0  0  0  0  0  0  0
  131.1700  125.8830   65.8800 F   0  0  0  0  0  0  0  0  0  0  0  0
  129.6310  124.4930   65.2280 F   0  0  0  0  0  0  0  0  0  0  0  0
  128.6790  126.4040   67.4560 C   0  0  0  0  0  0  0  0  0  0  0  0
  1  2  1  0
  2  3  2  0
  3  4  1  0
  4  5  2  0
  4  6  1  0
  6  7  1  0
  7  8  2  0
  8  9  1  0
  9 10  2  0
 10 11  1  0
  3 12  1  0
 12 13  1  0
 13 14  2  0
 14 15  1  0
 15 16  1  0
 16 17  2  0
 17 18  1  0
 18 19  2  0
 19 20  1  0
 20 21  2  0
 15 22  2  0
 22 23  1  0
 23 24  1  0
 24 25  1  0
 24 26  1  0
 24 27  1  0
 23 28  2  0
 28  2  1  0
 11  7  1  0
 28 13  1  0
 21 16  1  0
M  END
>  <Binding energies>  (58) 
[-7.72]

>  <Ligand effiencies>  (58) 
[-0.24903225806451612]

>  <Interactions>  (58) 
["H-B:LYS:547:NZ:9923, V-B:LYS:547:CE:9922, V-B:GLU:543:CB:9878, V-B:HIS:456:CE1:9040, V-B:GLY:544:C:9884, V-A:HIS:456:CD2:4068, V-A:GLU:543:CD:4908, V-B:GLU:543:CD:9880, V-B:LEU:475:CD1:9229, V-B:GLU:543:CG:9879, V-A:TYR:484:CE1:4345, V-A:TYR:484:CZ:4347, V-B:GLU:543:C:9874, V-A:HIS:456:CB:4065, V-A:TYR:484:CD1:4343, V-A:TYR:484:CG:4342, V-A:HIS:456:CG:4066, H-B:GLU:543:O:9875, V-A:TYR:484:CB:4341, V-A:TYR:484:CD2:4344, V-A:TYR:484:CE2:4346, H-A:TYR:484:OH:4348, V-A:HIS:456:CE1:4069, V-B:ARG:545:CZ:9898, V-B:GLY:454:CA:9020, V-B:ARG:545:CD:9895, H-A:HIS:456:ND1:4067, V-A:ASP:473:CG:4240, V-A:ASP:473:CB:4239"]

$$$$
4ck_Grossjean_2025
     RDKit          3D

 33 35  0  0  0  0  0  0  0  0999 V2000
  127.4500  123.1730   54.0460 C   0  0  0  0  0  0  0  0  0  0  0  0
  127.0230  122.3730   55.1380 O   0  0  0  0  0  0  0  0  0  0  0  0
  127.4710  122.8530   56.3990 C   0  0  0  0  0  0  0  0  0  0  0  0
  126.2880  122.8740   57.3750 C   0  0  0  0  0  0  0  0  0  0  0  0
  126.7650  122.6100   58.6870 O   0  0  0  0  0  0  0  0  0  0  0  0
  128.1560  122.8580   58.8460 C   0  0  0  0  0  0  0  0  0  0  0  0
  128.4670  123.0430   60.3360 C   0  0  0  0  0  0  0  0  0  0  0  0
  128.2650  121.8040   61.0030 O   0  0  0  0  0  0  0  0  0  0  0  0
  129.4410  121.0120   61.1120 C   0  0  0  0  0  0  0  0  0  0  0  0
  130.1220  121.2850   62.4620 C   0  0  0  0  0  0  0  0  0  0  0  0
  129.7590  122.5940   63.0060 N   0  0  0  0  0  0  0  0  0  0  0  0
  130.1810  123.1050   64.1820 C   0  0  0  0  0  0  0  0  0  0  0  0
  130.9630  122.5090   64.9240 O   0  0  0  0  0  0  0  0  0  0  0  0
  129.6620  124.4290   64.5260 C   0  0  0  0  0  0  0  0  0  0  0  0
  129.2010  125.5560   63.2530 S   0  0  0  0  0  0  0  0  0  0  0  0
  128.6840  126.7410   64.4290 C   0  0  0  0  0  0  0  0  0  0  0  0
  128.1880  127.9180   64.0580 N   0  0  0  0  0  0  0  0  0  0  0  0
  127.8140  128.7750   65.0440 C   0  0  0  0  0  0  0  0  0  0  0  0
  127.2420  130.0880   64.5920 C   0  0  0  0  0  0  0  0  0  0  0  0
  128.0600  131.2210   64.4590 C   0  0  0  0  0  0  0  0  0  0  0  0
  127.5350  132.4420   64.0430 C   0  0  0  0  0  0  0  0  0  0  0  0
  126.1790  132.5470   63.7520 C   0  0  0  0  0  0  0  0  0  0  0  0
  125.3470  131.4390   63.8700 C   0  0  0  0  0  0  0  0  0  0  0  0
  125.8760  130.2200   64.2860 C   0  0  0  0  0  0  0  0  0  0  0  0
  127.9300  128.4410   66.3980 C   0  0  0  0  0  0  0  0  0  0  0  0
  128.4530  127.2010   66.8000 C   0  0  0  0  0  0  0  0  0  0  0  0
  128.5570  126.9020   68.3010 C   0  0  0  0  0  0  0  0  0  0  0  0
  129.6240  126.1650   68.6150 F   0  0  0  0  0  0  0  0  0  0  0  0
  128.6440  128.0430   68.9830 F   0  0  0  0  0  0  0  0  0  0  0  0
  127.4770  126.2300   68.7010 F   0  0  0  0  0  0  0  0  0  0  0  0
  128.8510  126.2970   65.7740 C   0  0  0  0  0  0  0  0  0  0  0  0
  129.4070  124.9650   65.7980 C   0  0  0  0  0  0  0  0  0  0  0  0
  129.6650  124.2880   66.9620 N   0  0  0  0  0  0  0  0  0  0  0  0
  1  2  1  0
  2  3  1  0
  3  4  1  0
  4  5  1  0
  5  6  1  0
  6  7  1  0
  7  8  1  0
  8  9  1  0
  9 10  1  0
 10 11  1  0
 11 12  1  0
 12 13  2  0
 12 14  1  0
 14 15  1  0
 15 16  1  0
 16 17  2  0
 17 18  1  0
 18 19  1  0
 19 20  2  0
 20 21  1  0
 21 22  2  0
 22 23  1  0
 23 24  2  0
 18 25  2  0
 25 26  1  0
 26 27  1  0
 27 28  1  0
 27 29  1  0
 27 30  1  0
 26 31  2  0
 31 32  1  0
 32 33  1  0
 32 14  2  0
 31 16  1  0
 24 19  1  0
M  END
>  <Binding energies>  (59) 
[-6.8]

>  <Ligand effiencies>  (59) 
[-0.18888888888888888]

>  <Interactions>  (59) 
["V-B:GLU:543:CB:9878, V-B:HIS:456:CE1:9040, V-B:GLY:544:C:9884, V-A:HIS:456:CD2:4068, V-A:GLU:543:CD:4908, V-B:GLU:543:CD:9880, V-B:LEU:475:CD1:9229, V-A:ALA:541:CB:4892, V-B:ILE:538:CB:9834, V-B:ALA:541:CB:9864, V-B:TYR:539:C:9839, V-B:PRO:540:CA:9855, V-B:PRO:540:CB:9857, V-B:PRO:540:CD:9859, V-B:GLU:543:CG:9879, V-A:TYR:484:CE1:4345, H-B:TYR:539:N:9842, V-B:PRO:540:N:9856, V-B:TYR:539:CD2:9846, V-A:LEU:475:CD1:4258, V-B:ILE:538:CG2:9835, V-A:TYR:484:CZ:4347, V-B:TYR:539:CE2:9848, V-B:GLU:543:C:9874, V-B:ILE:538:CA:9832, V-B:TYR:539:CE1:9847, V-B:TYR:539:CG:9844, V-B:TYR:539:CZ:9849, V-B:TYR:539:CD1:9845, H-B:ALA:541:N:9863, H-B:GLU:543:O:9875, H-A:TYR:484:OH:4348, V-A:HIS:456:CE1:4069, V-A:GLU:543:CB:4906, V-B:GLU:543:CA:9876, V-B:LEU:475:CG:9228"]

$$$$
4dd_Grossjean_2025
     RDKit          3D

 26 29  0  0  0  0  0  0  0  0999 V2000
  122.8980  131.0480   60.1550 C   0  0  0  0  0  0  0  0  0  0  0  0
  124.1380  130.6590   60.9460 C   0  0  0  0  0  0  0  0  0  0  0  0
  123.9900  130.3840   62.3110 C   0  0  0  0  0  0  0  0  0  0  0  0
  125.0920  130.0200   63.0950 C   0  0  0  0  0  0  0  0  0  0  0  0
  124.9650  129.7260   64.5600 C   0  0  0  0  0  0  0  0  0  0  0  0
  123.7750  130.0070   65.2500 C   0  0  0  0  0  0  0  0  0  0  0  0
  123.6490  129.7340   66.6100 C   0  0  0  0  0  0  0  0  0  0  0  0
  124.7170  129.1750   67.3020 C   0  0  0  0  0  0  0  0  0  0  0  0
  125.9070  128.8850   66.6440 C   0  0  0  0  0  0  0  0  0  0  0  0
  126.0280  129.1580   65.2840 C   0  0  0  0  0  0  0  0  0  0  0  0
  126.3460  129.9290   62.5730 N   0  0  0  0  0  0  0  0  0  0  0  0
  126.4870  130.1840   61.2730 C   0  0  0  0  0  0  0  0  0  0  0  0
  128.0380  130.0870   60.4700 S   0  0  0  0  0  0  0  0  0  0  0  0
  127.3180  130.5370   58.9230 C   0  0  0  0  0  0  0  0  0  0  0  0
  128.1470  130.6320   57.7200 C   0  0  0  0  0  0  0  0  0  0  0  0
  127.9890  129.8450   56.7850 O   0  0  0  0  0  0  0  0  0  0  0  0
  129.0640  131.6310   57.7230 N   0  0  0  0  0  0  0  0  0  0  0  0
  130.0370  131.9570   56.7610 C   0  0  0  0  0  0  0  0  0  0  0  0
  131.3640  131.9250   57.1990 C   0  0  0  0  0  0  0  0  0  0  0  0
  132.4010  132.2180   56.3180 C   0  0  0  0  0  0  0  0  0  0  0  0
  132.1120  132.5390   54.9940 C   0  0  0  0  0  0  0  0  0  0  0  0
  130.7960  132.5630   54.5420 C   0  0  0  0  0  0  0  0  0  0  0  0
  129.7560  132.2700   55.4200 C   0  0  0  0  0  0  0  0  0  0  0  0
  125.9370  130.7540   59.0520 C   0  0  0  0  0  0  0  0  0  0  0  0
  125.1210  131.1210   58.0110 N   0  0  0  0  0  0  0  0  0  0  0  0
  125.4370  130.5550   60.3860 C   0  0  0  0  0  0  0  0  0  0  0  0
  1  2  1  0
  2  3  2  0
  3  4  1  0
  4  5  1  0
  5  6  2  0
  6  7  1  0
  7  8  2  0
  8  9  1  0
  9 10  2  0
  4 11  2  0
 11 12  1  0
 12 13  1  0
 13 14  1  0
 14 15  1  0
 15 16  2  0
 15 17  1  0
 17 18  1  0
 18 19  2  0
 19 20  1  0
 20 21  2  0
 21 22  1  0
 22 23  2  0
 14 24  2  0
 24 25  1  0
 24 26  1  0
 26  2  1  0
 10  5  1  0
 26 12  2  0
 23 18  1  0
M  END
>  <Binding energies>  (60) 
[-7.71]

>  <Ligand effiencies>  (60) 
[-0.26586206896551723]

>  <Interactions>  (60) 
["V-B:HIS:456:CE1:9040, V-A:ILE:538:CD1:4865, V-A:TYR:539:CZ:4877, V-A:PRO:540:CD:4887, V-A:TYR:539:CE1:4875, V-A:TYR:531:CE2:4793, V-A:PRO:540:CB:4885, V-A:PRO:540:CA:4883, V-A:PRO:540:N:4884, V-A:LEU:363:CD1:3189, V-A:TYR:539:CE2:4876, V-A:ILE:538:CG2:4863, V-B:ILE:369:CG2:8208, V-B:ILE:369:CD1:8210, V-A:TYR:539:CD1:4873, V-A:PRO:540:CG:4886, V-A:ILE:538:CA:4860, V-B:ASP:366:CG:8184, V-B:ASP:366:CB:8183, V-B:ARG:545:CG:9894, H-A:TYR:539:O:4868, V-B:ARG:545:CZ:9898, V-B:GLY:454:CA:9020, V-B:GLY:453:C:9013, V-B:ARG:545:CD:9895, V-B:ASP:366:CA:8181, H-A:TYR:539:OH:4878, V-B:ILE:369:CB:8207, V-B:ILE:455:C:9023, V-B:TYR:484:CZ:9318"]

$$$$
4dg_Grossjean_2025
     RDKit          3D

 27 30  0  0  0  0  0  0  0  0999 V2000
  122.9930  131.1410   59.4570 C   0  0  0  0  0  0  0  0  0  0  0  0
  124.4580  131.0720   59.8600 C   0  0  0  0  0  0  0  0  0  0  0  0
  125.4250  131.3140   58.8770 C   0  0  0  0  0  0  0  0  0  0  0  0
  126.7910  131.2660   59.1830 C   0  0  0  0  0  0  0  0  0  0  0  0
  127.8510  131.5230   58.1500 C   0  0  0  0  0  0  0  0  0  0  0  0
  127.7510  130.9730   56.8620 C   0  0  0  0  0  0  0  0  0  0  0  0
  128.7330  131.2040   55.9020 C   0  0  0  0  0  0  0  0  0  0  0  0
  129.8340  131.9930   56.2170 C   0  0  0  0  0  0  0  0  0  0  0  0
  129.9610  132.5480   57.4870 C   0  0  0  0  0  0  0  0  0  0  0  0
  128.9780  132.3130   58.4430 C   0  0  0  0  0  0  0  0  0  0  0  0
  127.2350  131.0020   60.4420 N   0  0  0  0  0  0  0  0  0  0  0  0
  126.3160  130.7710   61.3790 C   0  0  0  0  0  0  0  0  0  0  0  0
  126.7510  130.4130   63.0340 S   0  0  0  0  0  0  0  0  0  0  0  0
  125.0550  130.2730   63.4950 C   0  0  0  0  0  0  0  0  0  0  0  0
  124.6930  129.9160   64.8660 C   0  0  0  0  0  0  0  0  0  0  0  0
  123.7990  130.5110   65.4700 O   0  0  0  0  0  0  0  0  0  0  0  0
  125.4210  128.9300   65.4290 N   0  0  0  0  0  0  0  0  0  0  0  0
  125.2230  128.3950   66.7760 C   0  0  0  0  0  0  0  0  0  0  0  0
  126.4710  127.7380   67.3560 C   0  0  0  0  0  0  0  0  0  0  0  0
  126.3500  126.8270   68.4090 C   0  0  0  0  0  0  0  0  0  0  0  0
  127.4830  126.2010   68.9210 C   0  0  0  0  0  0  0  0  0  0  0  0
  128.7320  126.4800   68.3710 C   0  0  0  0  0  0  0  0  0  0  0  0
  128.8590  127.3740   67.3100 C   0  0  0  0  0  0  0  0  0  0  0  0
  127.7250  127.9990   66.7970 C   0  0  0  0  0  0  0  0  0  0  0  0
  124.2090  130.4830   62.3960 C   0  0  0  0  0  0  0  0  0  0  0  0
  122.8400  130.4200   62.4630 N   0  0  0  0  0  0  0  0  0  0  0  0
  124.9070  130.7820   61.1740 C   0  0  0  0  0  0  0  0  0  0  0  0
  1  2  1  0
  2  3  2  0
  3  4  1  0
  4  5  1  0
  5  6  2  0
  6  7  1  0
  7  8  2  0
  8  9  1  0
  9 10  2  0
  4 11  2  0
 11 12  1  0
 12 13  1  0
 13 14  1  0
 14 15  1  0
 15 16  2  0
 15 17  1  0
 17 18  1  0
 18 19  1  0
 19 20  2  0
 20 21  1  0
 21 22  2  0
 22 23  1  0
 23 24  2  0
 14 25  2  0
 25 26  1  0
 25 27  1  0
 27  2  1  0
 10  5  1  0
 27 12  2  0
 24 19  1  0
M  END
>  <Binding energies>  (61) 
[-8.13]

>  <Ligand effiencies>  (61) 
[-0.271]

>  <Interactions>  (61) 
["V-B:GLU:543:CB:9878, V-B:HIS:456:CE1:9040, V-B:GLY:544:C:9884, V-A:TYR:539:CD2:4874, V-A:TYR:539:C:4867, V-A:TYR:539:CZ:4877, V-A:TYR:539:CE1:4875, V-A:PRO:540:CA:4883, V-A:PRO:540:N:4884, V-A:TYR:539:CE2:4876, V-B:ILE:369:CG2:8208, V-B:ILE:369:CD1:8210, V-A:TYR:539:CD1:4873, V-B:GLU:543:C:9874, V-B:ASP:366:CG:8184, V-B:ASP:366:CB:8183, V-B:ARG:545:CA:9891, V-B:ARG:545:CG:9894, H-B:ASP:366:OD1:8185, V-B:GLY:453:CA:9015, H-B:TYR:484:OH:9319, V-B:ARG:545:CZ:9898, H-B:GLY:454:N:9021, H-B:ILE:455:N:9026, V-B:GLY:453:C:9013, V-B:ARG:545:CD:9895, V-B:ASP:366:CA:8181, V-B:ASP:366:C:8179, V-B:ILE:369:CB:8207, H-B:ASP:366:OD2:8186, H-B:GLU:543:OE1:9881"]

$$$$
4dj_Grossjean_2025
     RDKit          3D

 25 28  0  0  0  0  0  0  0  0999 V2000
  129.2840  125.2590   64.9250 C   0  0  0  0  0  0  0  0  0  0  0  0
  128.8500  126.4590   65.7520 C   0  0  0  0  0  0  0  0  0  0  0  0
  128.3580  127.5830   65.0780 C   0  0  0  0  0  0  0  0  0  0  0  0
  127.9440  128.7200   65.7810 C   0  0  0  0  0  0  0  0  0  0  0  0
  127.4060  129.9380   65.0840 C   0  0  0  0  0  0  0  0  0  0  0  0
  126.0770  129.9820   64.6330 C   0  0  0  0  0  0  0  0  0  0  0  0
  125.5720  131.1070   63.9870 C   0  0  0  0  0  0  0  0  0  0  0  0
  126.3950  132.2080   63.7770 C   0  0  0  0  0  0  0  0  0  0  0  0
  127.7170  132.1910   64.2090 C   0  0  0  0  0  0  0  0  0  0  0  0
  128.2170  131.0650   64.8560 C   0  0  0  0  0  0  0  0  0  0  0  0
  127.9850  128.7790   67.1400 N   0  0  0  0  0  0  0  0  0  0  0  0
  128.4540  127.7120   67.7840 C   0  0  0  0  0  0  0  0  0  0  0  0
  128.5690  127.6550   69.5280 S   0  0  0  0  0  0  0  0  0  0  0  0
  129.2300  126.0190   69.4790 C   0  0  0  0  0  0  0  0  0  0  0  0
  129.5860  125.3280   70.7190 C   0  0  0  0  0  0  0  0  0  0  0  0
  129.6990  125.9510   71.7780 O   0  0  0  0  0  0  0  0  0  0  0  0
  129.7830  123.9920   70.6060 N   0  0  0  0  0  0  0  0  0  0  0  0
  130.1290  123.1100   71.6200 C   0  0  0  0  0  0  0  0  0  0  0  0
  129.5170  121.9980   71.9680 N   0  0  0  0  0  0  0  0  0  0  0  0
  130.1230  121.4080   72.9790 C   0  0  0  0  0  0  0  0  0  0  0  0
  131.2580  122.0430   73.4730 C   0  0  0  0  0  0  0  0  0  0  0  0
  131.5380  123.4940   72.5570 S   0  0  0  0  0  0  0  0  0  0  0  0
  129.3490  125.5620   68.1580 C   0  0  0  0  0  0  0  0  0  0  0  0
  129.8370  124.3250   67.8200 N   0  0  0  0  0  0  0  0  0  0  0  0
  128.9100  126.5100   67.1690 C   0  0  0  0  0  0  0  0  0  0  0  0
  1  2  1  0
  2  3  2  0
  3  4  1  0
  4  5  1  0
  5  6  2  0
  6  7  1  0
  7  8  2  0
  8  9  1  0
  9 10  2  0
  4 11  2  0
 11 12  1  0
 12 13  1  0
 13 14  1  0
 14 15  1  0
 15 16  2  0
 15 17  1  0
 17 18  1  0
 18 19  2  0
 19 20  1  0
 20 21  2  0
 21 22  1  0
 14 23  2  0
 23 24  1  0
 23 25  1  0
 25  2  1  0
 10  5  1  0
 25 12  2  0
 22 18  1  0
M  END
>  <Binding energies>  (62) 
[-8.01]

>  <Ligand effiencies>  (62) 
[-0.2860714285714286]

>  <Interactions>  (62) 
["H-B:LYS:547:NZ:9923, V-B:GLU:543:CB:9878, V-B:HIS:456:CE1:9040, V-A:HIS:456:CD2:4068, H-A:HIS:456:NE2:4070, V-A:GLU:543:CD:4908, V-B:GLU:543:CD:9880, V-B:LEU:475:CD1:9229, V-A:ALA:541:CB:4892, V-B:GLU:543:CG:9879, V-A:TYR:484:CE1:4345, V-A:TYR:484:CZ:4347, V-B:GLU:543:C:9874, V-A:HIS:456:CB:4065, V-A:TYR:484:CD1:4343, V-A:TYR:484:CG:4342, V-A:HIS:456:CG:4066, H-B:GLU:543:O:9875, V-A:TYR:484:CB:4341, V-A:TYR:484:CD2:4344, V-A:TYR:484:CE2:4346, H-A:TYR:484:OH:4348, V-A:HIS:456:CE1:4069, V-A:GLU:543:CB:4906, V-B:GLU:543:CA:9876, H-A:HIS:456:ND1:4067, V-A:ASP:473:CG:4240, V-A:ASP:473:CB:4239"]

$$$$
4ea_Grossjean_2025
     RDKit          3D

 31 34  0  0  0  0  0  0  0  0999 V2000
  132.4540  131.8140   56.6740 C   0  0  0  0  0  0  0  0  0  0  0  0
  132.1640  132.2830   55.2450 C   0  0  0  0  0  0  0  0  0  0  0  0
  130.9970  133.0930   55.2410 O   0  0  0  0  0  0  0  0  0  0  0  0
  129.7650  132.5480   55.0720 C   0  0  0  0  0  0  0  0  0  0  0  0
  129.2310  132.4060   53.9670 O   0  0  0  0  0  0  0  0  0  0  0  0
  129.1160  132.1360   56.3610 C   0  0  0  0  0  0  0  0  0  0  0  0
  129.3360  132.9040   57.5120 C   0  0  0  0  0  0  0  0  0  0  0  0
  128.7490  132.5480   58.7240 C   0  0  0  0  0  0  0  0  0  0  0  0
  127.9310  131.4210   58.8100 C   0  0  0  0  0  0  0  0  0  0  0  0
  127.3920  131.1580   60.0840 N   0  0  0  0  0  0  0  0  0  0  0  0
  127.6120  131.7710   61.2740 C   0  0  0  0  0  0  0  0  0  0  0  0
  128.3760  132.7230   61.4330 O   0  0  0  0  0  0  0  0  0  0  0  0
  126.8640  131.2190   62.4070 C   0  0  0  0  0  0  0  0  0  0  0  0
  125.1430  131.5630   62.5940 S   0  0  0  0  0  0  0  0  0  0  0  0
  125.0610  130.6100   64.0580 C   0  0  0  0  0  0  0  0  0  0  0  0
  123.9250  130.4640   64.7410 N   0  0  0  0  0  0  0  0  0  0  0  0
  123.9960  129.7000   65.8590 C   0  0  0  0  0  0  0  0  0  0  0  0
  122.6930  129.5470   66.6210 C   0  0  0  0  0  0  0  0  0  0  0  0
  125.1640  129.0860   66.3040 C   0  0  0  0  0  0  0  0  0  0  0  0
  126.3540  129.2420   65.5850 C   0  0  0  0  0  0  0  0  0  0  0  0
  127.5870  128.5820   66.0710 C   0  0  0  0  0  0  0  0  0  0  0  0
  128.1020  127.4710   65.3960 C   0  0  0  0  0  0  0  0  0  0  0  0
  129.2630  126.8510   65.8510 C   0  0  0  0  0  0  0  0  0  0  0  0
  129.9070  127.3420   66.9850 C   0  0  0  0  0  0  0  0  0  0  0  0
  129.4000  128.4460   67.6670 C   0  0  0  0  0  0  0  0  0  0  0  0
  128.2390  129.0640   67.2100 C   0  0  0  0  0  0  0  0  0  0  0  0
  126.3210  130.0360   64.4050 C   0  0  0  0  0  0  0  0  0  0  0  0
  127.3320  130.4000   63.4460 C   0  0  0  0  0  0  0  0  0  0  0  0
  128.6310  129.9730   63.5560 N   0  0  0  0  0  0  0  0  0  0  0  0
  127.7050  130.6460   57.6610 C   0  0  0  0  0  0  0  0  0  0  0  0
  128.2930  131.0030   56.4520 C   0  0  0  0  0  0  0  0  0  0  0  0
  1  2  1  0
  2  3  1  0
  3  4  1  0
  4  5  2  0
  4  6  1  0
  6  7  2  0
  7  8  1  0
  8  9  2  0
  9 10  1  0
 10 11  1  0
 11 12  2  0
 11 13  1  0
 13 14  1  0
 14 15  1  0
 15 16  2  0
 16 17  1  0
 17 18  1  0
 17 19  2  0
 19 20  1  0
 20 21  1  0
 21 22  2  0
 22 23  1  0
 23 24  2  0
 24 25  1  0
 25 26  2  0
 20 27  2  0
 27 28  1  0
 28 29  1  0
  9 30  1  0
 30 31  2  0
 31  6  1  0
 28 13  2  0
 27 15  1  0
 26 21  1  0
M  END
>  <Binding energies>  (63) 
[-8.8]

>  <Ligand effiencies>  (63) 
[-0.25882352941176473]

>  <Interactions>  (63) 
["V-B:HIS:456:CE1:9040, H-A:GLU:543:OE2:4910, V-A:GLU:543:CD:4908, V-B:GLU:543:CD:9880, H-A:GLU:543:OE1:4909, V-A:ILE:538:CD1:4865, V-A:TYR:539:CD2:4874, V-A:TYR:539:C:4867, V-A:TYR:539:CZ:4877, H-A:TYR:539:N:4870, V-A:PRO:540:CD:4887, V-A:TYR:539:CE1:4875, V-A:TYR:531:CE2:4793, V-A:PRO:540:CB:4885, V-A:PRO:540:CA:4883, V-A:PRO:540:N:4884, V-A:LEU:363:CD1:3189, V-A:TYR:539:CE2:4876, V-A:ILE:538:CG2:4863, V-A:TYR:539:CG:4872, V-A:TYR:539:CD1:4873, V-B:ARG:545:CG:9894, V-A:TYR:539:CA:4869, V-A:HIS:456:CE1:4069, H-A:ALA:541:N:4891, V-B:GLY:453:CA:9015, H-B:TYR:484:OH:9319, V-B:ARG:545:CZ:9898, H-B:GLY:454:N:9021, V-B:GLY:454:CA:9020, V-A:GLU:543:CB:4906, V-B:GLY:453:C:9013, V-B:ARG:545:CD:9895, V-B:ILE:455:C:9023, V-B:GLY:454:C:9018, V-A:GLU:543:CG:4907, V-B:ILE:455:CA:9025"]

$$$$
4eb_Grossjean_2025
     RDKit          3D

 30 33  0  0  0  0  0  0  0  0999 V2000
  130.3110  132.1900   53.7920 C   0  0  0  0  0  0  0  0  0  0  0  0
  130.6040  133.1660   54.7810 O   0  0  0  0  0  0  0  0  0  0  0  0
  131.4180  132.8770   55.8300 C   0  0  0  0  0  0  0  0  0  0  0  0
  132.6490  132.9280   55.7680 O   0  0  0  0  0  0  0  0  0  0  0  0
  130.6690  132.4870   57.0720 C   0  0  0  0  0  0  0  0  0  0  0  0
  129.3340  132.8860   57.2180 C   0  0  0  0  0  0  0  0  0  0  0  0
  128.6140  132.5410   58.3580 C   0  0  0  0  0  0  0  0  0  0  0  0
  129.2100  131.7920   59.3730 C   0  0  0  0  0  0  0  0  0  0  0  0
  128.3860  131.5020   60.4780 N   0  0  0  0  0  0  0  0  0  0  0  0
  127.7510  132.3320   61.3410 C   0  0  0  0  0  0  0  0  0  0  0  0
  127.8020  133.5610   61.2860 O   0  0  0  0  0  0  0  0  0  0  0  0
  126.9680  131.6670   62.3860 C   0  0  0  0  0  0  0  0  0  0  0  0
  125.2380  131.9800   62.5400 S   0  0  0  0  0  0  0  0  0  0  0  0
  125.1120  130.8880   63.9000 C   0  0  0  0  0  0  0  0  0  0  0  0
  123.9530  130.6680   64.5230 N   0  0  0  0  0  0  0  0  0  0  0  0
  123.9910  129.7990   65.5620 C   0  0  0  0  0  0  0  0  0  0  0  0
  122.6610  129.5640   66.2560 C   0  0  0  0  0  0  0  0  0  0  0  0
  125.1480  129.1520   65.9900 C   0  0  0  0  0  0  0  0  0  0  0  0
  126.3620  129.3860   65.3340 C   0  0  0  0  0  0  0  0  0  0  0  0
  127.5830  128.6900   65.8000 C   0  0  0  0  0  0  0  0  0  0  0  0
  128.1250  127.6420   65.0490 C   0  0  0  0  0  0  0  0  0  0  0  0
  129.2750  126.9890   65.4860 C   0  0  0  0  0  0  0  0  0  0  0  0
  129.8810  127.3820   66.6770 C   0  0  0  0  0  0  0  0  0  0  0  0
  129.3470  128.4230   67.4330 C   0  0  0  0  0  0  0  0  0  0  0  0
  128.1980  129.0750   66.9950 C   0  0  0  0  0  0  0  0  0  0  0  0
  126.3640  130.2910   64.2380 C   0  0  0  0  0  0  0  0  0  0  0  0
  127.4050  130.7530   63.3580 C   0  0  0  0  0  0  0  0  0  0  0  0
  128.7050  130.3280   63.4740 N   0  0  0  0  0  0  0  0  0  0  0  0
  130.5470  131.3880   59.2350 C   0  0  0  0  0  0  0  0  0  0  0  0
  131.2660  131.7340   58.0950 C   0  0  0  0  0  0  0  0  0  0  0  0
  1  2  1  0
  2  3  1  0
  3  4  2  0
  3  5  1  0
  5  6  2  0
  6  7  1  0
  7  8  2  0
  8  9  1  0
  9 10  1  0
 10 11  2  0
 10 12  1  0
 12 13  1  0
 13 14  1  0
 14 15  2  0
 15 16  1  0
 16 17  1  0
 16 18  2  0
 18 19  1  0
 19 20  1  0
 20 21  2  0
 21 22  1  0
 22 23  2  0
 23 24  1  0
 24 25  2  0
 19 26  2  0
 26 27  1  0
 27 28  1  0
  8 29  1  0
 29 30  2  0
 30  5  1  0
 27 12  2  0
 26 14  1  0
 25 20  1  0
M  END
>  <Binding energies>  (64) 
[-8.96]

>  <Ligand effiencies>  (64) 
[-0.27151515151515154]

>  <Interactions>  (64) 
["V-B:HIS:456:CE1:9040, H-A:GLU:543:OE2:4910, V-A:GLU:543:CD:4908, V-B:GLU:543:CD:9880, H-A:GLU:543:OE1:4909, V-A:ILE:538:CD1:4865, V-A:TYR:539:CD2:4874, V-A:TYR:539:C:4867, V-A:TYR:539:CZ:4877, H-A:TYR:539:N:4870, V-A:PRO:540:CD:4887, V-A:TYR:539:CE1:4875, V-A:PRO:540:CB:4885, V-A:PRO:540:CA:4883, V-A:PRO:540:N:4884, V-A:TYR:539:CE2:4876, V-B:LEU:475:CD1:9229, V-A:TYR:539:CG:4872, V-A:TYR:539:CD1:4873, V-A:ILE:538:C:4858, V-A:ILE:538:CA:4860, V-B:ARG:545:CG:9894, V-A:TYR:539:CA:4869, V-A:HIS:456:CE1:4069, V-B:GLY:453:CA:9015, H-B:TYR:484:OH:9319, V-B:ARG:545:CZ:9898, H-B:GLY:454:N:9021, V-B:GLY:454:CA:9020, V-A:GLU:543:CB:4906, V-B:GLY:453:C:9013, V-B:ARG:545:CD:9895, V-B:ILE:455:C:9023, V-A:GLU:543:CG:4907"]

$$$$
8b_Ghoteimi_2023
     RDKit          3D

 34 38  0  0  0  0  0  0  0  0999 V2000
  123.3990  131.5950   61.9800 C   0  0  0  0  0  0  0  0  0  0  0  0
  123.8490  131.8760   63.3020 O   0  0  0  0  0  0  0  0  0  0  0  0
  124.7030  130.9860   63.9260 C   0  0  0  0  0  0  0  0  0  0  0  0
  124.1530  130.2000   64.9360 C   0  0  0  0  0  0  0  0  0  0  0  0
  124.9370  129.2770   65.6200 C   0  0  0  0  0  0  0  0  0  0  0  0
  126.2960  129.1160   65.3120 C   0  0  0  0  0  0  0  0  0  0  0  0
  127.1440  128.1270   66.0460 C   0  0  0  0  0  0  0  0  0  0  0  0
  128.1670  127.4170   65.4080 C   0  0  0  0  0  0  0  0  0  0  0  0
  128.9460  126.4980   66.1170 C   0  0  0  0  0  0  0  0  0  0  0  0
  130.0150  125.7550   65.4090 C   0  0  0  0  0  0  0  0  0  0  0  0
  131.3300  125.8050   65.8730 C   0  0  0  0  0  0  0  0  0  0  0  0
  132.3320  125.0980   65.2130 C   0  0  0  0  0  0  0  0  0  0  0  0
  132.0360  124.3360   64.0820 C   0  0  0  0  0  0  0  0  0  0  0  0
  133.0920  123.6680   63.4930 O   0  0  0  0  0  0  0  0  0  0  0  0
  133.6940  124.2140   62.3240 C   0  0  0  0  0  0  0  0  0  0  0  0
  130.7120  124.2920   63.6150 C   0  0  0  0  0  0  0  0  0  0  0  0
  129.7110  124.9980   64.2770 C   0  0  0  0  0  0  0  0  0  0  0  0
  128.6730  126.3150   67.4990 C   0  0  0  0  0  0  0  0  0  0  0  0
  129.2660  125.4780   68.5090 C   0  0  0  0  0  0  0  0  0  0  0  0
  130.3120  124.6330   68.2410 N   0  0  0  0  0  0  0  0  0  0  0  0
  128.6770  125.6130   69.7760 C   0  0  0  0  0  0  0  0  0  0  0  0
  129.0270  124.9260   71.0210 C   0  0  0  0  0  0  0  0  0  0  0  0
  128.8040  125.4520   72.1150 O   0  0  0  0  0  0  0  0  0  0  0  0
  129.5990  123.7050   70.8710 N   0  0  0  0  0  0  0  0  0  0  0  0
  130.0230  122.8410   71.8720 C   0  0  0  0  0  0  0  0  0  0  0  0
  131.1750  123.0560   72.6260 C   0  0  0  0  0  0  0  0  0  0  0  0
  131.2420  121.9880   73.4920 C   0  0  0  0  0  0  0  0  0  0  0  0
  130.1830  121.1740   73.2730 O   0  0  0  0  0  0  0  0  0  0  0  0
  129.4160  121.7250   72.2440 N   0  0  0  0  0  0  0  0  0  0  0  0
  127.3650  126.7920   69.7470 S   0  0  0  0  0  0  0  0  0  0  0  0
  127.6120  127.0950   68.0430 C   0  0  0  0  0  0  0  0  0  0  0  0
  126.8670  127.9690   67.3680 N   0  0  0  0  0  0  0  0  0  0  0  0
  126.8420  129.9080   64.2930 C   0  0  0  0  0  0  0  0  0  0  0  0
  126.0600  130.8340   63.6070 C   0  0  0  0  0  0  0  0  0  0  0  0
  1  2  1  0
  2  3  1  0
  3  4  2  0
  4  5  1  0
  5  6  2  0
  6  7  1  0
  7  8  2  0
  8  9  1  0
  9 10  1  0
 10 11  2  0
 11 12  1  0
 12 13  2  0
 13 14  1  0
 14 15  1  0
 13 16  1  0
 16 17  2  0
  9 18  2  0
 18 19  1  0
 19 20  1  0
 19 21  2  0
 21 22  1  0
 22 23  2  0
 22 24  1  0
 24 25  1  0
 25 26  1  0
 26 27  2  0
 27 28  1  0
 28 29  1  0
 21 30  1  0
 30 31  1  0
 31 32  2  0
  6 33  1  0
 33 34  2  0
 34  3  1  0
 32  7  1  0
 17 10  1  0
 31 18  1  0
 29 25  2  0
M  END
>  <Binding energies>  (65) 
[-9.68]

>  <Ligand effiencies>  (65) 
[-0.2616216216216216]

>  <Interactions>  (65) 
["H-B:LYS:547:NZ:9923, V-B:GLU:543:CB:9878, V-B:HIS:456:CE1:9040, V-B:GLY:544:C:9884, V-A:GLU:543:CD:4908, V-B:GLU:543:CD:9880, V-B:ILE:369:CD1:8210, V-B:GLU:543:CG:9879, V-A:TYR:484:CE1:4345, V-A:TYR:484:CZ:4347, V-B:GLU:543:C:9874, V-A:HIS:456:CB:4065, V-A:TYR:484:CD1:4343, V-A:TYR:484:CG:4342, V-A:HIS:456:CG:4066, H-B:GLU:543:O:9875, V-A:TYR:484:CB:4341, V-A:TYR:484:CD2:4344, V-A:TYR:484:CE2:4346, H-A:GLY:454:N:4050, H-A:TYR:484:OH:4348, V-A:HIS:456:CE1:4069, V-B:ARG:545:CZ:9898, H-B:GLY:454:N:9021, V-B:GLY:454:CA:9020, V-B:ARG:545:CD:9895, H-A:HIS:456:ND1:4067, V-A:ASP:473:CG:4240, V-A:ASP:473:CB:4239"]

$$$$
9d_Ghoteimi_2023
     RDKit          3D

 38 43  0  0  0  0  0  0  0  0999 V2000
  132.8160  124.4170   64.6970 C   0  0  0  0  0  0  0  0  0  0  0  0
  132.0980  123.2420   64.3500 O   0  0  0  0  0  0  0  0  0  0  0  0
  130.7780  123.1200   64.6460 C   0  0  0  0  0  0  0  0  0  0  0  0
  130.1970  122.0390   64.7780 O   0  0  0  0  0  0  0  0  0  0  0  0
  130.0970  124.4250   64.7920 C   0  0  0  0  0  0  0  0  0  0  0  0
  129.7200  125.3840   63.3610 S   0  0  0  0  0  0  0  0  0  0  0  0
  128.9720  126.6240   64.3400 C   0  0  0  0  0  0  0  0  0  0  0  0
  128.4120  127.7020   63.7930 N   0  0  0  0  0  0  0  0  0  0  0  0
  127.8420  128.5980   64.6400 C   0  0  0  0  0  0  0  0  0  0  0  0
  127.1970  129.7870   64.0010 C   0  0  0  0  0  0  0  0  0  0  0  0
  125.8860  129.7100   63.5200 C   0  0  0  0  0  0  0  0  0  0  0  0
  125.2780  130.8110   62.9220 C   0  0  0  0  0  0  0  0  0  0  0  0
  125.9550  132.0340   62.7950 C   0  0  0  0  0  0  0  0  0  0  0  0
  125.3630  133.1430   62.1810 N   0  0  0  0  0  0  0  0  0  0  0  0
  125.9730  133.7820   60.9970 C   0  0  0  0  0  0  0  0  0  0  0  0
  125.3910  135.1730   60.6700 C   0  0  0  0  0  0  0  0  0  0  0  0
  123.9830  135.0910   60.5350 O   0  0  0  0  0  0  0  0  0  0  0  0
  123.3710  134.6380   61.7310 C   0  0  0  0  0  0  0  0  0  0  0  0
  123.8910  133.2310   62.0940 C   0  0  0  0  0  0  0  0  0  0  0  0
  127.2750  132.1000   63.2660 C   0  0  0  0  0  0  0  0  0  0  0  0
  127.8840  130.9990   63.8610 C   0  0  0  0  0  0  0  0  0  0  0  0
  127.8620  128.4320   66.0270 C   0  0  0  0  0  0  0  0  0  0  0  0
  128.4660  127.3110   66.6070 C   0  0  0  0  0  0  0  0  0  0  0  0
  128.4850  127.1970   68.0900 C   0  0  0  0  0  0  0  0  0  0  0  0
  129.3700  127.9600   68.8530 C   0  0  0  0  0  0  0  0  0  0  0  0
  129.3710  127.8640   70.2420 C   0  0  0  0  0  0  0  0  0  0  0  0
  128.4730  127.0120   70.9050 C   0  0  0  0  0  0  0  0  0  0  0  0
  128.4600  126.8900   72.2960 N   0  0  0  0  0  0  0  0  0  0  0  0
  129.4020  125.9560   72.9440 C   0  0  0  0  0  0  0  0  0  0  0  0
  129.5560  126.2010   74.4600 C   0  0  0  0  0  0  0  0  0  0  0  0
  128.2850  126.1590   75.0920 O   0  0  0  0  0  0  0  0  0  0  0  0
  127.4080  127.1480   74.5730 C   0  0  0  0  0  0  0  0  0  0  0  0
  127.1980  126.9230   73.0600 C   0  0  0  0  0  0  0  0  0  0  0  0
  127.5890  126.2490   70.1280 C   0  0  0  0  0  0  0  0  0  0  0  0
  127.5900  126.3450   68.7400 C   0  0  0  0  0  0  0  0  0  0  0  0
  129.0330  126.3390   65.7370 C   0  0  0  0  0  0  0  0  0  0  0  0
  129.6650  125.0650   65.9610 C   0  0  0  0  0  0  0  0  0  0  0  0
  129.8110  124.5150   67.2090 N   0  0  0  0  0  0  0  0  0  0  0  0
  1  2  1  0
  2  3  1  0
  3  4  2  0
  3  5  1  0
  5  6  1  0
  6  7  1  0
  7  8  2  0
  8  9  1  0
  9 10  1  0
 10 11  2  0
 11 12  1  0
 12 13  2  0
 13 14  1  0
 14 15  1  0
 15 16  1  0
 16 17  1  0
 17 18  1  0
 18 19  1  0
 13 20  1  0
 20 21  2  0
  9 22  2  0
 22 23  1  0
 23 24  1  0
 24 25  2  0
 25 26  1  0
 26 27  2  0
 27 28  1  0
 28 29  1  0
 29 30  1  0
 30 31  1  0
 31 32  1  0
 32 33  1  0
 27 34  1  0
 34 35  2  0
 23 36  2  0
 36 37  1  0
 37 38  1  0
 37  5  2  0
 36  7  1  0
 21 10  1  0
 35 24  1  0
 19 14  1  0
 33 28  1  0
M  END
>  <Binding energies>  (66) 
[-9.49]

>  <Ligand effiencies>  (66) 
[-0.23725000000000002]

>  <Interactions>  (66) 
["H-B:LYS:547:NZ:9923, V-B:GLU:543:CB:9878, V-B:HIS:456:CE1:9040, V-B:GLY:544:C:9884, V-A:HIS:456:CD2:4068, V-B:GLU:543:CD:9880, V-A:TYR:539:CD2:4874, V-B:TRP:381:CH2:8343, V-A:TYR:539:CE2:4876, V-B:LEU:475:CD1:9229, V-B:ILE:369:CG2:8208, V-A:ALA:541:CB:4892, V-B:TRP:381:CZ2:8341, V-B:ILE:369:CD1:8210, V-B:GLU:543:CG:9879, V-A:TYR:484:CE1:4345, V-A:TYR:484:CZ:4347, V-B:GLU:543:C:9874, H-B:GLU:543:O:9875, H-A:TYR:484:OH:4348, V-A:HIS:456:CE1:4069, V-B:GLY:454:CA:9020, V-B:GLU:543:CA:9876, H-A:HIS:456:ND1:4067, V-B:TRP:381:CZ3:8342"]

$$$$
RR10_Rahimova_2017
     RDKit          3D

 34 38  0  0  0  0  0  0  0  0999 V2000
  132.4250  131.7370   55.0180 C   0  0  0  0  0  0  0  0  0  0  0  0
  130.8970  131.9060   54.9670 C   0  0  1  0  0  0  0  0  0  0  0  0
  130.3230  131.5430   53.5780 C   0  0  0  0  0  0  0  0  0  0  0  0
  128.7920  131.7530   53.5400 C   0  0  0  0  0  0  0  0  0  0  0  0
  128.0600  130.9220   54.6250 C   0  0  1  0  0  0  0  0  0  0  0  0
  128.1510  129.4860   54.3300 N   0  0  0  0  0  0  0  0  0  0  0  0
  127.7060  128.4960   55.1260 C   0  0  0  0  0  0  0  0  0  0  0  0
  127.1430  128.7030   56.2040 O   0  0  0  0  0  0  0  0  0  0  0  0
  127.9440  127.0520   54.6370 C   0  0  1  0  0  0  0  0  0  0  0  0
  129.4570  126.7220   54.7240 C   0  0  0  0  0  0  0  0  0  0  0  0
  129.6880  125.2450   54.3230 C   0  0  0  0  0  0  0  0  0  0  0  0
  128.7860  124.2690   55.1120 C   0  0  0  0  0  0  0  0  0  0  0  0
  127.3600  124.6900   55.0330 N   0  0  0  0  0  0  0  0  0  0  0  0
  126.2060  123.4920   55.6430 S   0  0  0  0  0  0  0  0  0  0  0  0
  126.6150  122.1720   55.1480 O   0  0  0  0  0  0  0  0  0  0  0  0
  124.8520  123.9950   55.3770 O   0  0  0  0  0  0  0  0  0  0  0  0
  126.4490  123.4750   57.4190 C   0  0  0  0  0  0  0  0  0  0  0  0
  125.3680  123.7580   58.2600 C   0  0  0  0  0  0  0  0  0  0  0  0
  125.4910  123.7630   59.6530 C   0  0  0  0  0  0  0  0  0  0  0  0
  126.7550  123.4670   60.1680 C   0  0  0  0  0  0  0  0  0  0  0  0
  127.2680  123.3790   61.4410 N   0  0  0  0  0  0  0  0  0  0  0  0
  128.6030  123.0490   61.3390 C   0  0  0  0  0  0  0  0  0  0  0  0
  129.5080  122.8710   62.5240 C   0  0  0  0  0  0  0  0  0  0  0  0
  129.0040  122.9910   63.8260 C   0  0  0  0  0  0  0  0  0  0  0  0
  129.8410  122.8230   64.9260 C   0  0  0  0  0  0  0  0  0  0  0  0
  131.1890  122.5360   64.7290 C   0  0  0  0  0  0  0  0  0  0  0  0
  131.7060  122.4140   63.4430 C   0  0  0  0  0  0  0  0  0  0  0  0
  130.8680  122.5810   62.3430 C   0  0  0  0  0  0  0  0  0  0  0  0
  128.9820  122.9120   60.0870 N   0  0  0  0  0  0  0  0  0  0  0  0
  127.8630  123.1670   59.3400 C   0  0  0  0  0  0  0  0  0  0  0  0
  127.7080  123.1670   57.9460 C   0  0  0  0  0  0  0  0  0  0  0  0
  127.1250  126.0740   55.5160 C   0  0  0  0  0  0  0  0  0  0  0  0
  128.6590  131.2840   56.0110 C   0  0  0  0  0  0  0  0  0  0  0  0
  130.1880  131.0670   56.0570 C   0  0  0  0  0  0  0  0  0  0  0  0
  2  1  1  6
  2  3  1  0
  3  4  1  0
  4  5  1  0
  5  6  1  6
  6  7  1  0
  7  8  2  0
  9  7  1  1
  9 10  1  0
 10 11  1  0
 11 12  1  0
 12 13  1  0
 13 14  1  0
 14 15  2  0
 14 16  2  0
 14 17  1  0
 17 18  2  0
 18 19  1  0
 19 20  2  0
 20 21  1  0
 21 22  1  0
 22 23  1  0
 23 24  2  0
 24 25  1  0
 25 26  2  0
 26 27  1  0
 27 28  2  0
 22 29  2  0
 29 30  1  0
 30 31  2  0
 13 32  1  0
  5 33  1  0
 33 34  1  0
 34  2  1  0
 32  9  1  0
 31 17  1  0
 30 20  1  0
 28 23  1  0
M  END
>  <Binding energies>  (67) 
[-10.37]

>  <Ligand effiencies>  (67) 
[-0.2880555555555555]

>  <Interactions>  (67) 
["V-B:GLU:543:CB:9878, V-B:GLU:543:CD:9880, V-A:ILE:538:CD1:4865, V-A:TYR:539:CZ:4877, V-A:TYR:539:CE1:4875, V-A:TYR:531:CE2:4793, V-A:LEU:363:CD1:3189, V-B:ILE:538:CB:9834, V-B:ALA:541:CB:9864, V-B:PRO:540:CA:9855, V-B:PRO:540:CB:9857, V-B:GLU:543:CG:9879, V-A:TYR:484:CE1:4345, H-B:TYR:539:N:9842, V-B:TYR:539:CD2:9846, V-A:LEU:475:CD1:4258, V-B:ILE:538:CG2:9835, V-A:TYR:484:CZ:4347, V-B:TYR:539:CE2:9848, V-A:TYR:531:CZ:4794, V-A:TYR:539:CD1:4873, V-B:TYR:539:CE1:9847, V-B:TYR:539:CZ:9849, V-A:MET:535:CB:4832, V-B:GLU:543:CA:9876, V-A:MET:535:CE:4835, H-B:TYR:531:OH:9767, H-B:GLU:543:OE1:9881, H-B:GLU:543:OE2:9882, H-B:MET:535:SD:9806, H-A:MET:535:SD:4834"]

$$$$
RR12_Rahimova_2017
     RDKit          3D

 26 28  0  0  0  0  0  0  0  0999 V2000
  129.9260  132.5040   56.7340 C   0  0  0  0  0  0  0  0  0  0  0  0
  128.9140  132.5850   57.8850 C   0  0  0  0  0  0  0  0  0  0  0  0
  128.9070  131.3170   58.7570 C   0  0  0  0  0  0  0  0  0  0  0  0
  129.8060  131.4680   59.8990 N   0  0  0  0  0  0  0  0  0  0  0  0
  129.4630  131.7500   61.2120 C   0  0  0  0  0  0  0  0  0  0  0  0
  128.0400  132.0020   61.6810 C   0  0  0  0  0  0  0  0  0  0  0  0
  127.4300  133.2690   61.0520 C   0  0  0  0  0  0  0  0  0  0  0  0
  126.1150  133.6960   61.7310 C   0  0  0  0  0  0  0  0  0  0  0  0
  125.3110  132.5770   62.2180 N   0  0  0  0  0  0  0  0  0  0  0  0
  124.6230  131.7230   61.4380 C   0  0  0  0  0  0  0  0  0  0  0  0
  124.5970  131.8030   60.2070 O   0  0  0  0  0  0  0  0  0  0  0  0
  123.8580  130.6180   62.1770 C   0  0  0  0  0  0  0  0  0  0  0  0
  123.7450  130.9580   63.5590 O   0  0  0  0  0  0  0  0  0  0  0  0
  124.4990  130.2680   64.4900 C   0  0  0  0  0  0  0  0  0  0  0  0
  123.8600  129.9460   65.6900 C   0  0  0  0  0  0  0  0  0  0  0  0
  124.5370  129.2490   66.6860 C   0  0  0  0  0  0  0  0  0  0  0  0
  125.8610  128.8680   66.4830 C   0  0  0  0  0  0  0  0  0  0  0  0
  126.5140  129.1820   65.2930 C   0  0  0  0  0  0  0  0  0  0  0  0
  125.8360  129.8810   64.2970 C   0  0  0  0  0  0  0  0  0  0  0  0
  130.4930  131.7980   62.0190 N   0  0  0  0  0  0  0  0  0  0  0  0
  131.5720  131.5130   61.2290 C   0  0  0  0  0  0  0  0  0  0  0  0
  132.9260  131.4180   61.5850 C   0  0  0  0  0  0  0  0  0  0  0  0
  133.8470  131.1030   60.5850 C   0  0  0  0  0  0  0  0  0  0  0  0
  133.4410  130.8860   59.2680 C   0  0  0  0  0  0  0  0  0  0  0  0
  132.1020  130.9750   58.8820 C   0  0  0  0  0  0  0  0  0  0  0  0
  131.1780  131.2920   59.8860 C   0  0  0  0  0  0  0  0  0  0  0  0
  1  2  1  0
  2  3  1  0
  3  4  1  0
  4  5  1  0
  5  6  1  0
  6  7  1  0
  7  8  1  0
  8  9  1  0
  9 10  1  0
 10 11  2  0
 10 12  1  0
 12 13  1  0
 13 14  1  0
 14 15  2  0
 15 16  1  0
 16 17  2  0
 17 18  1  0
 18 19  2  0
  5 20  2  0
 20 21  1  0
 21 22  2  0
 22 23  1  0
 23 24  2  0
 24 25  1  0
 25 26  2  0
 26  4  1  0
 19 14  1  0
 26 21  1  0
M  END
>  <Binding energies>  (68) 
[-7.04]

>  <Ligand effiencies>  (68) 
[-0.2607407407407407]

>  <Interactions>  (68) 
["V-B:HIS:456:CE1:9040, V-A:TYR:539:CD2:4874, V-A:TYR:539:C:4867, V-A:TYR:539:CZ:4877, V-A:TYR:539:CE1:4875, V-A:PRO:540:CB:4885, V-A:PRO:540:CA:4883, V-A:PRO:540:N:4884, V-A:TYR:539:CE2:4876, V-B:LEU:475:CD1:9229, V-A:TYR:539:CG:4872, V-A:TYR:539:CD1:4873, V-A:PRO:540:C:4881, V-A:ASN:362:CB:3176, V-A:ASP:366:CG:3213, V-A:LEU:363:CA:3185, V-B:ASP:366:CG:8184, V-B:ARG:545:CG:9894, H-A:ALA:541:N:4891, V-B:ARG:545:CZ:9898, H-B:GLY:454:N:9021, V-B:GLY:454:CA:9020, V-B:ARG:545:CD:9895, V-A:ASN:362:C:3172, V-A:ASN:362:CA:3174"]

$$$$
RR13_Rahimova_2017
     RDKit          3D

 48 54  0  0  0  0  0  0  0  0999 V2000
  129.2920  123.9940   62.1400 Cl  0  0  0  0  0  0  0  0  0  0  0  0
  128.8700  123.9190   60.4630 C   0  0  0  0  0  0  0  0  0  0  0  0
  127.6500  123.3290   60.1250 C   0  0  0  0  0  0  0  0  0  0  0  0
  127.2630  123.2190   58.7920 C   0  0  0  0  0  0  0  0  0  0  0  0
  128.0970  123.6970   57.7850 C   0  0  0  0  0  0  0  0  0  0  0  0
  129.3160  124.2870   58.1140 C   0  0  0  0  0  0  0  0  0  0  0  0
  129.7190  124.4180   59.4530 C   0  0  0  0  0  0  0  0  0  0  0  0
  131.0860  125.0530   59.7900 C   0  0  1  0  0  0  0  0  0  0  0  0
  132.1800  124.5450   58.8390 C   0  0  0  0  0  0  0  0  0  0  0  0
  132.6040  125.1370   57.7440 N   0  0  0  0  0  0  0  0  0  0  0  0
  133.5740  124.2950   57.2080 N   0  0  0  0  0  0  0  0  0  0  0  0
  133.7140  123.1700   57.9960 N   0  0  0  0  0  0  0  0  0  0  0  0
  132.8250  123.3360   58.9820 N   0  0  0  0  0  0  0  0  0  0  0  0
  132.7110  122.3460   60.0470 C   0  0  0  0  0  0  0  0  0  0  0  0
  133.8510  122.5260   61.0670 C   0  0  0  0  0  0  0  0  0  0  0  0
  133.3770  123.2000   62.3450 C   0  0  0  0  0  0  0  0  0  0  0  0
  132.3930  122.5930   63.1300 C   0  0  0  0  0  0  0  0  0  0  0  0
  131.9540  123.2150   64.2960 C   0  0  0  0  0  0  0  0  0  0  0  0
  132.5010  124.4400   64.6740 C   0  0  0  0  0  0  0  0  0  0  0  0
  133.4820  125.0490   63.8960 C   0  0  0  0  0  0  0  0  0  0  0  0
  133.9220  124.4290   62.7280 C   0  0  0  0  0  0  0  0  0  0  0  0
  131.0460  126.5330   59.8670 N   0  0  0  0  0  0  0  0  0  0  0  0
  130.9140  126.9750   61.2680 C   0  0  0  0  0  0  0  0  0  0  0  0
  131.0060  128.5160   61.3680 C   0  0  0  0  0  0  0  0  0  0  0  0
  129.9200  129.1520   60.6040 N   0  0  0  0  0  0  0  0  0  0  0  0
  129.9200  130.6270   60.7400 C   0  0  1  0  0  0  0  0  0  0  0  0
  128.8420  131.2090   61.6800 C   0  0  0  0  0  0  0  0  0  0  0  0
  128.6110  130.5330   62.8850 C   0  0  0  0  0  0  0  0  0  0  0  0
  127.6690  130.9960   63.8030 C   0  0  0  0  0  0  0  0  0  0  0  0
  126.9360  132.1460   63.5230 C   0  0  0  0  0  0  0  0  0  0  0  0
  127.1380  132.8240   62.3250 C   0  0  0  0  0  0  0  0  0  0  0  0
  128.0780  132.3650   61.3970 C   0  0  0  0  0  0  0  0  0  0  0  0
  128.2070  133.2380   59.9070 Cl  0  0  0  0  0  0  0  0  0  0  0  0
  131.2940  131.1970   61.0980 C   0  0  0  0  0  0  0  0  0  0  0  0
  131.5760  131.8830   62.1820 N   0  0  0  0  0  0  0  0  0  0  0  0
  132.9320  132.1820   62.1040 N   0  0  0  0  0  0  0  0  0  0  0  0
  133.4690  131.6470   60.9510 N   0  0  0  0  0  0  0  0  0  0  0  0
  132.4440  131.0250   60.3560 N   0  0  0  0  0  0  0  0  0  0  0  0
  132.6420  130.3510   59.0770 C   0  0  0  0  0  0  0  0  0  0  0  0
  133.1310  131.3510   58.0140 C   0  0  0  0  0  0  0  0  0  0  0  0
  132.0130  131.7870   57.0790 C   0  0  0  0  0  0  0  0  0  0  0  0
  130.7030  131.8830   57.5550 C   0  0  0  0  0  0  0  0  0  0  0  0
  129.6810  132.2900   56.7010 C   0  0  0  0  0  0  0  0  0  0  0  0
  129.9730  132.5970   55.3730 C   0  0  0  0  0  0  0  0  0  0  0  0
  131.2780  132.5030   54.8930 C   0  0  0  0  0  0  0  0  0  0  0  0
  132.3000  132.0990   55.7460 C   0  0  0  0  0  0  0  0  0  0  0  0
  130.0590  128.7110   59.2040 C   0  0  0  0  0  0  0  0  0  0  0  0
  129.9560  127.1720   59.1090 C   0  0  0  0  0  0  0  0  0  0  0  0
  1  2  1  0
  2  3  2  0
  3  4  1  0
  4  5  2  0
  5  6  1  0
  6  7  2  0
  7  8  1  0
  8  9  1  0
  9 10  2  0
 10 11  1  0
 11 12  2  0
 12 13  1  0
 13 14  1  0
 14 15  1  0
 15 16  1  0
 16 17  2  0
 17 18  1  0
 18 19  2  0
 19 20  1  0
 20 21  2  0
  8 22  1  6
 22 23  1  0
 23 24  1  0
 24 25  1  0
 26 25  1  1
 26 27  1  0
 27 28  2  0
 28 29  1  0
 29 30  2  0
 30 31  1  0
 31 32  2  0
 32 33  1  0
 26 34  1  0
 34 35  2  0
 35 36  1  0
 36 37  2  0
 37 38  1  0
 38 39  1  0
 39 40  1  0
 40 41  1  0
 41 42  2  0
 42 43  1  0
 43 44  2  0
 44 45  1  0
 45 46  2  0
 25 47  1  0
 47 48  1  0
  7  2  1  0
 13  9  1  0
 21 16  1  0
 48 22  1  0
 32 27  1  0
 38 34  1  0
 46 41  1  0
M  END
>  <Binding energies>  (69) 
[-12.91]

>  <Ligand effiencies>  (69) 
[-0.26895833333333335]

>  <Interactions>  (69) 
["V-A:GLU:543:CD:4908, V-A:ILE:538:CD1:4865, V-A:TYR:539:CD2:4874, V-A:TYR:539:C:4867, V-A:PRO:540:CD:4887, V-A:TYR:539:CE1:4875, V-A:TYR:531:CE2:4793, V-A:PRO:540:CB:4885, V-A:PRO:540:CA:4883, V-A:PRO:540:N:4884, V-A:LEU:363:CD1:3189, V-A:TYR:539:CE2:4876, V-B:LEU:475:CD1:9229, V-A:ALA:541:CB:4892, V-B:PRO:540:CA:9855, V-A:LEU:475:CD1:4258, V-B:TYR:539:CE2:9848, V-A:TYR:539:CD1:4873, V-A:PRO:540:CG:4886, V-A:ILE:538:CA:4860, V-A:ASP:366:CG:3213, V-A:LEU:363:CA:3185, V-B:TYR:539:CZ:9849, V-A:ILE:369:CD1:3239, V-A:ILE:369:CG2:3237, V-A:ARG:545:CZ:4926, H-A:ALA:541:N:4891, H-B:TYR:539:OH:9850, H-A:ASN:362:ND2:3179"]

$$$$
RR14_Rahimova_2017
     RDKit          3D

 39 43  0  0  0  0  0  0  0  0999 V2000
  127.2340  134.3460   61.3550 C   0  0  0  0  0  0  0  0  0  0  0  0
  127.7820  133.0370   61.4690 O   0  0  0  0  0  0  0  0  0  0  0  0
  128.6200  132.5690   60.4750 C   0  0  0  0  0  0  0  0  0  0  0  0
  128.2380  132.8390   59.1600 C   0  0  0  0  0  0  0  0  0  0  0  0
  129.0060  132.3870   58.0920 C   0  0  0  0  0  0  0  0  0  0  0  0
  130.1680  131.6510   58.3310 C   0  0  0  0  0  0  0  0  0  0  0  0
  130.9770  131.0980   57.1640 C   0  0  0  0  0  0  0  0  0  0  0  0
  130.6500  131.7260   55.8840 N   0  0  0  0  0  0  0  0  0  0  0  0
  130.7330  133.0540   55.7420 N   0  0  0  0  0  0  0  0  0  0  0  0
  130.3310  133.2940   54.4430 N   0  0  0  0  0  0  0  0  0  0  0  0
  130.0020  132.0970   53.8150 N   0  0  0  0  0  0  0  0  0  0  0  0
  130.1970  131.1590   54.7120 C   0  0  0  0  0  0  0  0  0  0  0  0
  129.9460  129.6730   54.4970 C   0  0  0  0  0  0  0  0  0  0  0  0
  128.6320  129.2450   55.0050 N   0  0  0  0  0  0  0  0  0  0  0  0
  128.0650  128.1510   54.2060 C   0  0  0  0  0  0  0  0  0  0  0  0
  128.3520  126.7510   54.7920 C   0  0  0  0  0  0  0  0  0  0  0  0
  127.4060  125.6520   54.2640 C   0  0  0  0  0  0  0  0  0  0  0  0
  126.9970  124.6940   55.2960 N   0  0  0  0  0  0  0  0  0  0  0  0
  127.9290  123.5610   55.3390 C   0  0  0  0  0  0  0  0  0  0  0  0
  127.4970  122.5070   56.3810 C   0  0  0  0  0  0  0  0  0  0  0  0
  126.1570  122.0940   56.1330 O   0  0  0  0  0  0  0  0  0  0  0  0
  125.2380  123.1780   56.2030 C   0  0  0  0  0  0  0  0  0  0  0  0
  125.6010  124.2510   55.1550 C   0  0  0  0  0  0  0  0  0  0  0  0
  128.7410  128.8490   56.4160 C   0  0  0  0  0  0  0  0  0  0  0  0
  127.6440  129.3670   57.3440 C   0  0  0  0  0  0  0  0  0  0  0  0
  127.7100  129.1700   58.6840 C   0  0  0  0  0  0  0  0  0  0  0  0
  126.6440  129.6260   59.5990 C   0  0  0  0  0  0  0  0  0  0  0  0
  126.6890  129.4550   60.9930 C   0  0  0  0  0  0  0  0  0  0  0  0
  127.8670  128.7730   61.6760 C   0  0  0  0  0  0  0  0  0  0  0  0
  125.6280  129.9260   61.7700 C   0  0  0  0  0  0  0  0  0  0  0  0
  124.5360  130.5580   61.1770 C   0  0  0  0  0  0  0  0  0  0  0  0
  124.4830  130.7340   59.7910 C   0  0  0  0  0  0  0  0  0  0  0  0
  123.2780  131.4310   59.1720 C   0  0  0  0  0  0  0  0  0  0  0  0
  125.5440  130.2650   59.0000 C   0  0  0  0  0  0  0  0  0  0  0  0
  125.5320  130.4180   57.5980 N   0  0  0  0  0  0  0  0  0  0  0  0
  126.4860  130.0160   56.7210 C   0  0  0  0  0  0  0  0  0  0  0  0
  126.3400  130.2010   55.5130 O   0  0  0  0  0  0  0  0  0  0  0  0
  130.5750  131.4010   59.6430 C   0  0  0  0  0  0  0  0  0  0  0  0
  129.8050  131.8530   60.7100 C   0  0  0  0  0  0  0  0  0  0  0  0
  1  2  1  0
  2  3  1  0
  3  4  2  0
  4  5  1  0
  5  6  2  0
  6  7  1  0
  7  8  1  0
  8  9  1  0
  9 10  2  0
 10 11  1  0
 11 12  2  0
 12 13  1  0
 13 14  1  0
 14 15  1  0
 15 16  1  0
 16 17  1  0
 17 18  1  0
 18 19  1  0
 19 20  1  0
 20 21  1  0
 21 22  1  0
 22 23  1  0
 14 24  1  0
 24 25  1  0
 25 26  2  0
 26 27  1  0
 27 28  2  0
 28 29  1  0
 28 30  1  0
 30 31  2  0
 31 32  1  0
 32 33  1  0
 32 34  2  0
 34 35  1  0
 35 36  1  0
 36 37  2  0
  6 38  1  0
 38 39  2  0
 39  3  1  0
 12  8  1  0
 23 18  1  0
 36 25  1  0
 34 27  1  0
M  END
>  <Binding energies>  (70) 
[-10.42]

>  <Ligand effiencies>  (70) 
[-0.2605]

>  <Interactions>  (70) 
["V-A:TYR:539:CD2:4874, V-A:TYR:539:C:4867, V-A:TYR:539:CZ:4877, H-A:TYR:539:N:4870, V-A:PRO:540:CB:4885, V-A:PRO:540:CA:4883, V-A:PRO:540:N:4884, V-A:TYR:539:CE2:4876, V-B:LEU:475:CD1:9229, V-B:ILE:369:CG2:8208, V-A:ALA:541:CB:4892, V-B:ILE:369:CD1:8210, V-B:ILE:538:CB:9834, V-B:TYR:539:C:9839, H-B:TYR:539:N:9842, V-B:PRO:540:N:9856, V-B:TYR:539:CD2:9846, V-B:LEU:363:CD1:8160, V-B:ILE:538:CG2:9835, V-B:TYR:539:CE2:9848, V-A:TYR:539:CG:4872, V-A:TYR:531:CZ:4794, V-B:TYR:539:CE1:9847, V-B:TYR:539:CG:9844, V-B:ASP:366:CG:8184, V-B:ASP:366:CB:8183, V-B:TYR:531:CE2:9765, V-B:TYR:539:CZ:9849, V-B:TYR:539:CD1:9845, V-B:MET:535:CG:9805, V-B:ASP:366:CA:8181, V-A:MET:535:CE:4835, H-B:TYR:531:OH:9767, H-A:TYR:539:OH:4878, V-B:ILE:369:CB:8207"]

$$$$
RR15_Rahimova_2017
     RDKit          3D

 45 49  0  0  0  0  0  0  0  0999 V2000
  130.1360  121.6770   63.7140 C   0  0  0  0  0  0  0  0  0  0  0  0
  130.0450  121.2520   62.3590 O   0  0  0  0  0  0  0  0  0  0  0  0
  130.2840  122.1600   61.3420 C   0  0  0  0  0  0  0  0  0  0  0  0
  131.5700  122.5200   60.9080 C   0  0  0  0  0  0  0  0  0  0  0  0
  131.7410  123.4430   59.8800 C   0  0  0  0  0  0  0  0  0  0  0  0
  130.6370  124.0340   59.2570 C   0  0  0  0  0  0  0  0  0  0  0  0
  130.8220  125.0360   58.1510 C   0  0  0  0  0  0  0  0  0  0  0  0
  131.9870  125.2390   57.5500 N   0  0  0  0  0  0  0  0  0  0  0  0
  131.7650  126.2250   56.6100 N   0  0  0  0  0  0  0  0  0  0  0  0
  130.4610  126.4800   56.7250 N   0  0  0  0  0  0  0  0  0  0  0  0
  129.8250  127.5900   56.0180 C   0  0  0  0  0  0  0  0  0  0  0  0
  129.2970  128.7250   56.9310 C   0  0  0  0  0  0  0  0  0  0  0  0
  130.1020  129.5630   57.3430 O   0  0  0  0  0  0  0  0  0  0  0  0
  127.9630  128.7880   57.2310 N   0  0  0  0  0  0  0  0  0  0  0  0
  127.3180  127.7670   58.0800 C   0  0  0  0  0  0  0  0  0  0  0  0
  126.1920  126.9900   57.3650 C   0  0  0  0  0  0  0  0  0  0  0  0
  126.6290  126.2520   56.0770 C   0  0  0  0  0  0  0  0  0  0  0  0
  127.1090  124.8870   56.3140 N   0  0  0  0  0  0  0  0  0  0  0  0
  126.4350  124.2130   57.4340 C   0  0  0  0  0  0  0  0  0  0  0  0
  126.9150  122.7530   57.5860 C   0  0  0  0  0  0  0  0  0  0  0  0
  126.7510  122.0520   56.3580 O   0  0  0  0  0  0  0  0  0  0  0  0
  127.4870  122.6440   55.2930 C   0  0  0  0  0  0  0  0  0  0  0  0
  127.0210  124.1000   55.0760 C   0  0  0  0  0  0  0  0  0  0  0  0
  127.1010  129.9650   56.9020 C   0  0  2  0  0  0  0  0  0  0  0  0
  127.3060  130.5200   55.4580 C   0  0  0  0  0  0  0  0  0  0  0  0
  126.3800  130.5360   54.6470 O   0  0  0  0  0  0  0  0  0  0  0  0
  128.5310  131.0050   55.1890 N   0  0  0  0  0  0  0  0  0  0  0  0
  128.9230  131.6630   53.9480 C   0  0  0  0  0  0  0  0  0  0  0  0
  130.1790  132.5320   54.1520 C   0  0  2  0  0  0  0  0  0  0  0  0
  131.5220  131.8040   53.9670 C   0  0  0  0  0  0  0  0  0  0  0  0
  132.0010  131.5310   55.3720 C   0  0  0  0  0  0  0  0  0  0  0  0
  131.4680  132.7460   56.1120 C   0  0  0  0  0  0  0  0  0  0  0  0
  130.1780  132.9150   55.5340 O   0  0  0  0  0  0  0  0  0  0  0  0
  127.1050  130.9710   58.0470 C   0  0  0  0  0  0  0  0  0  0  0  0
  125.9600  131.0640   58.8480 C   0  0  0  0  0  0  0  0  0  0  0  0
  125.9070  131.9650   59.9070 C   0  0  0  0  0  0  0  0  0  0  0  0
  127.0020  132.7810   60.1760 C   0  0  0  0  0  0  0  0  0  0  0  0
  126.9510  133.6560   61.2050 F   0  0  0  0  0  0  0  0  0  0  0  0
  128.1500  132.7020   59.3920 C   0  0  0  0  0  0  0  0  0  0  0  0
  128.2020  131.8010   58.3320 C   0  0  0  0  0  0  0  0  0  0  0  0
  129.8440  125.7960   57.6950 N   0  0  0  0  0  0  0  0  0  0  0  0
  129.3550  123.6710   59.6900 C   0  0  0  0  0  0  0  0  0  0  0  0
  129.1660  122.7380   60.7240 C   0  0  0  0  0  0  0  0  0  0  0  0
  127.9210  122.3450   61.1850 O   0  0  0  0  0  0  0  0  0  0  0  0
  126.7820  123.1550   60.9110 C   0  0  0  0  0  0  0  0  0  0  0  0
  1  2  1  0
  2  3  1  0
  3  4  2  0
  4  5  1  0
  5  6  2  0
  6  7  1  0
  7  8  1  0
  8  9  2  0
  9 10  1  0
 10 11  1  0
 11 12  1  0
 12 13  2  0
 12 14  1  0
 14 15  1  0
 15 16  1  0
 16 17  1  0
 17 18  1  0
 18 19  1  0
 19 20  1  0
 20 21  1  0
 21 22  1  0
 22 23  1  0
 24 14  1  1
 24 25  1  0
 25 26  2  0
 25 27  1  0
 27 28  1  0
 29 28  1  1
 29 30  1  0
 30 31  1  0
 31 32  1  0
 32 33  1  0
 24 34  1  0
 34 35  2  0
 35 36  1  0
 36 37  2  0
 37 38  1  0
 37 39  1  0
 39 40  2  0
 10 41  1  0
  6 42  1  0
 42 43  2  0
 43 44  1  0
 44 45  1  0
 43  3  1  0
 41  7  2  0
 23 18  1  0
 33 29  1  0
 40 34  1  0
M  END
>  <Binding energies>  (71) 
[-9.05]

>  <Ligand effiencies>  (71) 
[-0.1967391304347826]

>  <Interactions>  (71) 
["V-B:GLU:543:CD:9880, V-A:ILE:538:CD1:4865, V-A:TYR:539:CD2:4874, V-A:TYR:539:C:4867, V-A:TYR:539:CZ:4877, H-A:TYR:539:N:4870, V-A:PRO:540:CD:4887, V-A:TYR:539:CE1:4875, V-A:TYR:531:CE2:4793, V-A:PRO:540:CB:4885, V-A:PRO:540:CA:4883, V-A:PRO:540:N:4884, V-A:LEU:363:CD1:3189, V-A:TYR:539:CE2:4876, V-B:ILE:538:CB:9834, V-B:ALA:541:CB:9864, V-B:PRO:540:C:9853, V-B:TYR:539:C:9839, V-B:PRO:540:CA:9855, V-B:GLU:543:CG:9879, H-B:TYR:539:N:9842, V-B:PRO:540:N:9856, V-A:LEU:475:CD1:4258, V-B:ILE:538:CG2:9835, V-B:TYR:539:CE2:9848, V-A:TYR:531:CZ:4794, V-A:TYR:539:CD1:4873, V-A:ILE:538:CA:4860, V-B:ILE:538:CA:9832, V-B:TYR:539:CE1:9847, V-B:TYR:539:CG:9844, V-B:TYR:531:CZ:9766, V-B:ILE:538:C:9830, V-B:TYR:539:CZ:9849, V-B:TYR:539:CD1:9845, H-B:ALA:541:N:9863, H-A:TYR:531:OH:4795, H-B:TYR:539:OH:9850, H-B:TYR:531:OH:9767, H-A:TYR:539:OH:4878"]

$$$$
RR17_Rahimova_2017
     RDKit          3D

 38 41  0  0  0  0  0  0  0  0999 V2000
  131.6800  132.5470   55.9410 C   0  0  0  0  0  0  0  0  0  0  0  0
  131.0390  131.7770   57.1000 C   0  0  0  0  0  0  0  0  0  0  0  0
  130.0680  132.6130   57.7230 O   0  0  0  0  0  0  0  0  0  0  0  0
  128.8150  132.1010   58.0050 C   0  0  0  0  0  0  0  0  0  0  0  0
  128.1730  132.6120   59.1330 C   0  0  0  0  0  0  0  0  0  0  0  0
  126.9100  132.1570   59.4970 C   0  0  0  0  0  0  0  0  0  0  0  0
  126.2590  131.1750   58.7380 C   0  0  0  0  0  0  0  0  0  0  0  0
  124.8960  130.7040   59.1550 C   0  0  0  0  0  0  0  0  0  0  0  0
  123.9230  130.7410   58.3960 O   0  0  0  0  0  0  0  0  0  0  0  0
  124.7480  130.1780   60.6000 C   0  0  0  0  0  0  0  0  0  0  0  0
  124.0550  131.4410   61.7260 S   0  0  0  0  0  0  0  0  0  0  0  0
  124.4370  130.6990   63.2880 C   0  0  0  0  0  0  0  0  0  0  0  0
  123.5570  130.2340   64.1430 N   0  0  0  0  0  0  0  0  0  0  0  0
  124.2510  129.7280   65.2360 N   0  0  0  0  0  0  0  0  0  0  0  0
  125.5260  129.9040   64.9970 C   0  0  0  0  0  0  0  0  0  0  0  0
  126.6470  129.4800   65.9350 C   0  0  0  0  0  0  0  0  0  0  0  0
  126.6430  128.0540   66.2530 N   0  0  0  0  0  0  0  0  0  0  0  0
  127.1980  127.5150   67.4270 C   0  0  0  0  0  0  0  0  0  0  0  0
  128.5470  127.7670   67.6750 C   0  0  0  0  0  0  0  0  0  0  0  0
  129.1610  127.2580   68.8150 C   0  0  0  0  0  0  0  0  0  0  0  0
  128.4290  126.4920   69.7270 C   0  0  0  0  0  0  0  0  0  0  0  0
  129.1190  125.9350   70.9720 C   0  0  0  0  0  0  0  0  0  0  0  0
  129.9990  124.9760   70.6750 F   0  0  0  0  0  0  0  0  0  0  0  0
  129.7700  126.9060   71.6160 F   0  0  0  0  0  0  0  0  0  0  0  0
  128.1990  125.4220   71.7880 F   0  0  0  0  0  0  0  0  0  0  0  0
  127.0730  126.2440   69.4840 C   0  0  0  0  0  0  0  0  0  0  0  0
  126.4600  126.7540   68.3440 C   0  0  0  0  0  0  0  0  0  0  0  0
  125.7150  130.5270   63.7800 N   0  0  0  0  0  0  0  0  0  0  0  0
  126.9300  130.8750   63.1710 C   0  0  0  0  0  0  0  0  0  0  0  0
  127.7540  129.8720   62.6610 C   0  0  0  0  0  0  0  0  0  0  0  0
  128.9620  130.2170   62.0600 C   0  0  0  0  0  0  0  0  0  0  0  0
  129.3470  131.5650   61.9670 C   0  0  0  0  0  0  0  0  0  0  0  0
  130.5230  132.0000   61.3880 O   0  0  0  0  0  0  0  0  0  0  0  0
  131.5010  131.0410   60.9980 C   0  0  0  0  0  0  0  0  0  0  0  0
  128.5080  132.5550   62.4850 C   0  0  0  0  0  0  0  0  0  0  0  0
  127.3000  132.2170   63.0860 C   0  0  0  0  0  0  0  0  0  0  0  0
  126.9050  130.6620   57.6030 C   0  0  0  0  0  0  0  0  0  0  0  0
  128.1690  131.1200   57.2400 C   0  0  0  0  0  0  0  0  0  0  0  0
  1  2  1  0
  2  3  1  0
  3  4  1  0
  4  5  2  0
  5  6  1  0
  6  7  2  0
  7  8  1  0
  8  9  2  0
  8 10  1  0
 10 11  1  0
 11 12  1  0
 12 13  2  0
 13 14  1  0
 14 15  2  0
 15 16  1  0
 16 17  1  0
 17 18  1  0
 18 19  2  0
 19 20  1  0
 20 21  2  0
 21 22  1  0
 22 23  1  0
 22 24  1  0
 22 25  1  0
 21 26  1  0
 26 27  2  0
 15 28  1  0
 28 29  1  0
 29 30  2  0
 30 31  1  0
 31 32  2  0
 32 33  1  0
 33 34  1  0
 32 35  1  0
 35 36  2  0
  7 37  1  0
 37 38  2  0
 38  4  1  0
 28 12  1  0
 36 29  1  0
 27 18  1  0
M  END
>  <Binding energies>  (72) 
[-8.91]

>  <Ligand effiencies>  (72) 
[-0.22846153846153847]

>  <Interactions>  (72) 
["V-B:LYS:547:CE:9922, V-B:GLU:543:CB:9878, V-B:HIS:456:CE1:9040, V-B:GLY:544:C:9884, V-A:HIS:456:CD2:4068, V-B:GLU:543:CD:9880, V-A:TYR:539:CD2:4874, V-A:TYR:539:C:4867, V-A:TYR:539:CZ:4877, V-A:PRO:540:CD:4887, V-A:TYR:539:CE1:4875, V-A:PRO:540:CB:4885, V-A:PRO:540:CA:4883, V-A:PRO:540:N:4884, V-A:TYR:539:CE2:4876, V-B:LEU:475:CD1:9229, V-A:ALA:541:CB:4892, V-B:GLU:543:C:9874, V-B:GLY:544:CA:9886, V-B:ASP:366:CG:8184, V-A:HIS:456:CG:4066, V-B:ARG:545:CA:9891, V-B:ARG:545:CG:9894, V-A:HIS:456:CE1:4069, H-A:ALA:541:N:4891, H-B:ARG:545:NH1:9899, H-B:TYR:484:OH:9319, H-B:ARG:545:NH2:9900, H-B:GLY:454:N:9021, H-B:ARG:545:NE:9896, H-A:TYR:539:OH:4878, H-B:GLU:543:OE1:9881, V-B:TYR:484:CZ:9318"]

$$$$
RR19_Rahimova_2017
     RDKit          3D

 46 51  0  0  0  0  0  0  0  0999 V2000
  133.4840  123.9000   64.0110 O   0  0  0  0  0  0  0  0  0  0  0  0
  132.3540  124.0360   63.5340 C   0  0  0  0  0  0  0  0  0  0  0  0
  132.0640  124.2970   62.2340 N   0  0  0  0  0  0  0  0  0  0  0  0
  132.8150  124.2720   61.0850 C   0  0  0  0  0  0  0  0  0  0  0  0
  134.3770  123.6350   60.9410 S   0  0  0  0  0  0  0  0  0  0  0  0
  132.0890  124.8490   60.0730 N   0  0  0  0  0  0  0  0  0  0  0  0
  132.2900  124.9550   58.7350 C   0  0  0  0  0  0  0  0  0  0  0  0
  133.1460  124.3620   58.0740 O   0  0  0  0  0  0  0  0  0  0  0  0
  131.3310  125.9490   58.0320 C   0  0  2  0  0  0  0  0  0  0  0  0
  130.9780  127.2150   58.8650 C   0  0  0  0  0  0  0  0  0  0  0  0
  131.6560  128.4980   58.4130 C   0  0  0  0  0  0  0  0  0  0  0  0
  131.5990  129.6660   59.2050 C   0  0  0  0  0  0  0  0  0  0  0  0
  132.2900  130.8050   58.8140 C   0  0  0  0  0  0  0  0  0  0  0  0
  133.0560  130.7970   57.6540 C   0  0  0  0  0  0  0  0  0  0  0  0
  133.1460  129.6460   56.8810 C   0  0  0  0  0  0  0  0  0  0  0  0
  132.4640  128.4960   57.2550 C   0  0  0  0  0  0  0  0  0  0  0  0
  130.1070  125.2620   57.5370 N   0  0  0  0  0  0  0  0  0  0  0  0
  129.2380  124.6560   58.3940 C   0  0  0  0  0  0  0  0  0  0  0  0
  129.3400  124.5640   59.6190 O   0  0  0  0  0  0  0  0  0  0  0  0
  128.1410  124.1330   57.5440 C   0  0  0  0  0  0  0  0  0  0  0  0
  126.9860  123.4230   57.8740 C   0  0  0  0  0  0  0  0  0  0  0  0
  126.1070  123.0580   56.8490 C   0  0  0  0  0  0  0  0  0  0  0  0
  126.3890  123.4060   55.5200 C   0  0  0  0  0  0  0  0  0  0  0  0
  127.5520  124.1190   55.2100 C   0  0  0  0  0  0  0  0  0  0  0  0
  128.4160  124.4710   56.2470 C   0  0  0  0  0  0  0  0  0  0  0  0
  129.6970  125.2210   56.2330 C   0  0  0  0  0  0  0  0  0  0  0  0
  130.2620  125.7100   55.2540 O   0  0  0  0  0  0  0  0  0  0  0  0
  131.1130  123.9230   64.4590 C   0  0  2  0  0  0  0  0  0  0  0  0
  130.2700  122.6350   64.2290 C   0  0  0  0  0  0  0  0  0  0  0  0
  129.9010  122.3920   62.7770 C   0  0  0  0  0  0  0  0  0  0  0  0
  130.7710  121.6610   61.9380 C   0  0  0  0  0  0  0  0  0  0  0  0
  130.3850  121.3530   60.6390 C   0  0  0  0  0  0  0  0  0  0  0  0
  129.1360  121.7360   60.1690 C   0  0  0  0  0  0  0  0  0  0  0  0
  128.2550  122.4210   60.9960 C   0  0  0  0  0  0  0  0  0  0  0  0
  128.6210  122.7410   62.2970 C   0  0  0  0  0  0  0  0  0  0  0  0
  130.2580  125.1440   64.4530 N   0  0  0  0  0  0  0  0  0  0  0  0
  130.0120  125.8530   65.5910 C   0  0  0  0  0  0  0  0  0  0  0  0
  130.4150  125.6020   66.7280 O   0  0  0  0  0  0  0  0  0  0  0  0
  129.1570  126.9900   65.1690 C   0  0  0  0  0  0  0  0  0  0  0  0
  128.5950  128.0340   65.9050 C   0  0  0  0  0  0  0  0  0  0  0  0
  127.8200  128.9860   65.2340 C   0  0  0  0  0  0  0  0  0  0  0  0
  127.6210  128.8860   63.8500 C   0  0  0  0  0  0  0  0  0  0  0  0
  128.1950  127.8330   63.1290 C   0  0  0  0  0  0  0  0  0  0  0  0
  128.9630  126.8920   63.8180 C   0  0  0  0  0  0  0  0  0  0  0  0
  129.6880  125.6910   63.3390 C   0  0  0  0  0  0  0  0  0  0  0  0
  129.7600  125.2750   62.1820 O   0  0  0  0  0  0  0  0  0  0  0  0
  1  2  2  0
  2  3  1  0
  3  4  1  0
  4  5  2  0
  4  6  1  0
  6  7  1  0
  7  8  2  0
  7  9  1  0
  9 10  1  1
 10 11  1  0
 11 12  2  0
 12 13  1  0
 13 14  2  0
 14 15  1  0
 15 16  2  0
  9 17  1  0
 17 18  1  0
 18 19  2  0
 18 20  1  0
 20 21  2  0
 21 22  1  0
 22 23  2  0
 23 24  1  0
 24 25  2  0
 25 26  1  0
 26 27  2  0
  2 28  1  0
 28 29  1  6
 29 30  1  0
 30 31  2  0
 31 32  1  0
 32 33  2  0
 33 34  1  0
 34 35  2  0
 28 36  1  0
 36 37  1  0
 37 38  2  0
 37 39  1  0
 39 40  2  0
 40 41  1  0
 41 42  2  0
 42 43  1  0
 43 44  2  0
 44 45  1  0
 45 46  2  0
 16 11  1  0
 26 17  1  0
 35 30  1  0
 45 36  1  0
 25 20  1  0
 44 39  1  0
M  END
>  <Binding energies>  (73) 
[-10.87]

>  <Ligand effiencies>  (73) 
[-0.22645833333333332]

>  <Interactions>  (73) 
["V-A:GLU:543:CD:4908, V-B:GLU:543:CD:9880, V-A:TYR:531:CE2:4793, V-A:PRO:540:CB:4885, V-A:PRO:540:CA:4883, V-A:LEU:363:CD1:3189, V-B:ILE:538:CB:9834, V-B:ALA:541:CB:9864, V-B:PRO:540:CA:9855, V-B:GLU:543:CG:9879, V-B:PRO:540:N:9856, V-B:TYR:539:CD2:9846, V-A:LEU:475:CD1:4258, V-B:ILE:538:CG2:9835, V-B:TYR:539:CE2:9848, V-A:ASP:366:CB:3212, V-A:TYR:531:CZ:4794, V-A:ASP:366:CG:3213, V-A:LEU:363:CA:3185, V-B:TYR:539:CZ:9849, V-A:ILE:369:CD1:3239, H-A:GLY:454:N:4050, H-A:TYR:484:OH:4348, H-A:TYR:531:OH:4795, H-B:TYR:539:OH:9850"]

$$$$
RR1_Rahimova_2017
     RDKit          3D

 41 44  0  0  0  0  0  0  0  0999 V2000
  126.9560  122.8110   57.6130 C   0  0  0  0  0  0  0  0  0  0  0  0
  127.7600  122.0110   58.4720 O   0  0  0  0  0  0  0  0  0  0  0  0
  128.0880  122.4860   59.7260 C   0  0  0  0  0  0  0  0  0  0  0  0
  127.5230  123.6310   60.3110 C   0  0  0  0  0  0  0  0  0  0  0  0
  127.9210  124.0400   61.5800 C   0  0  0  0  0  0  0  0  0  0  0  0
  128.8810  123.3140   62.2870 C   0  0  0  0  0  0  0  0  0  0  0  0
  129.2510  123.8330   63.5430 N   0  0  0  0  0  0  0  0  0  0  0  0
  129.7130  123.1860   64.6340 C   0  0  0  0  0  0  0  0  0  0  0  0
  129.8240  121.9630   64.7290 O   0  0  0  0  0  0  0  0  0  0  0  0
  130.1020  124.1020   65.8050 C   0  0  0  0  0  0  0  0  0  0  0  0
  129.2260  125.7040   65.8710 S   0  0  0  0  0  0  0  0  0  0  0  0
  128.8770  125.7160   67.5970 C   0  0  0  0  0  0  0  0  0  0  0  0
  129.6640  125.2070   68.5110 N   0  0  0  0  0  0  0  0  0  0  0  0
  129.0250  125.4470   69.6510 C   0  0  0  0  0  0  0  0  0  0  0  0
  129.5810  125.0400   70.9860 C   0  0  0  0  0  0  0  0  0  0  0  0
  130.4300  123.9290   71.1200 C   0  0  0  0  0  0  0  0  0  0  0  0
  130.9290  123.5740   72.3750 C   0  0  0  0  0  0  0  0  0  0  0  0
  130.5660  124.3440   73.4770 C   0  0  0  0  0  0  0  0  0  0  0  0
  129.7480  125.4230   73.3840 N   0  0  0  0  0  0  0  0  0  0  0  0
  129.2740  125.7530   72.1560 C   0  0  0  0  0  0  0  0  0  0  0  0
  127.8680  126.0720   69.5310 N   0  0  0  0  0  0  0  0  0  0  0  0
  127.7700  126.2450   68.2100 N   0  0  0  0  0  0  0  0  0  0  0  0
  126.6160  126.9370   67.6350 C   0  0  0  0  0  0  0  0  0  0  0  0
  126.9330  128.2920   66.9780 C   0  0  0  0  0  0  0  0  0  0  0  0
  127.8870  128.9750   67.3650 O   0  0  0  0  0  0  0  0  0  0  0  0
  126.1000  128.6490   65.9820 N   0  0  0  0  0  0  0  0  0  0  0  0
  126.4090  129.7850   65.2460 N   0  0  0  0  0  0  0  0  0  0  0  0
  126.3900  129.6880   63.8990 C   0  0  0  0  0  0  0  0  0  0  0  0
  126.0150  128.6850   63.2820 O   0  0  0  0  0  0  0  0  0  0  0  0
  126.8390  130.9240   63.1460 C   0  0  0  0  0  0  0  0  0  0  0  0
  125.9030  131.8970   62.7780 C   0  0  0  0  0  0  0  0  0  0  0  0
  126.2920  133.0330   62.0770 C   0  0  0  0  0  0  0  0  0  0  0  0
  127.6340  133.2280   61.7130 C   0  0  0  0  0  0  0  0  0  0  0  0
  128.0850  134.3270   61.0040 O   0  0  0  0  0  0  0  0  0  0  0  0
  127.3910  135.5650   61.1140 C   0  0  0  0  0  0  0  0  0  0  0  0
  128.5860  132.2610   62.0660 C   0  0  0  0  0  0  0  0  0  0  0  0
  129.8920  132.4910   61.6660 O   0  0  0  0  0  0  0  0  0  0  0  0
  130.7370  131.3900   61.3540 C   0  0  0  0  0  0  0  0  0  0  0  0
  128.1810  131.1210   62.7810 C   0  0  0  0  0  0  0  0  0  0  0  0
  129.4480  122.1690   61.7060 C   0  0  0  0  0  0  0  0  0  0  0  0
  129.0460  121.7630   60.4370 C   0  0  0  0  0  0  0  0  0  0  0  0
  1  2  1  0
  2  3  1  0
  3  4  2  0
  4  5  1  0
  5  6  2  0
  6  7  1  0
  7  8  1  0
  8  9  2  0
  8 10  1  0
 10 11  1  0
 11 12  1  0
 12 13  2  0
 13 14  1  0
 14 15  1  0
 15 16  2  0
 16 17  1  0
 17 18  2  0
 18 19  1  0
 19 20  2  0
 14 21  2  0
 21 22  1  0
 22 23  1  0
 23 24  1  0
 24 25  2  0
 24 26  1  0
 26 27  1  0
 27 28  1  0
 28 29  2  0
 28 30  1  0
 30 31  2  0
 31 32  1  0
 32 33  2  0
 33 34  1  0
 34 35  1  0
 33 36  1  0
 36 37  1  0
 37 38  1  0
 36 39  2  0
  6 40  1  0
 40 41  2  0
 41  3  1  0
 22 12  1  0
 39 30  1  0
 20 15  1  0
M  END
>  <Binding energies>  (74) 
[-9.05]

>  <Ligand effiencies>  (74) 
[-0.2056818181818182]

>  <Interactions>  (74) 
["H-B:LYS:547:NZ:9923, V-B:GLU:543:CB:9878, H-B:HIS:456:NE2:9041, V-B:HIS:456:CE1:9040, V-A:HIS:456:CD2:4068, H-A:HIS:456:NE2:4070, V-B:GLU:543:CD:9880, V-A:TYR:539:CD2:4874, V-B:PRO:482:CG:9298, V-A:PRO:540:CA:4883, V-B:TRP:381:CH2:8343, V-B:LEU:475:CD1:9229, V-A:ALA:541:CB:4892, V-B:PRO:482:CB:9297, V-B:ALA:541:CB:9864, V-B:TYR:539:C:9839, V-B:PRO:540:CA:9855, V-B:GLU:543:CG:9879, V-A:TYR:484:CE1:4345, V-B:PRO:540:N:9856, V-B:TYR:539:CD2:9846, V-A:TYR:484:CZ:4347, V-B:TYR:539:CE2:9848, V-B:GLU:543:C:9874, V-A:HIS:456:CB:4065, V-A:TYR:484:CD1:4343, V-A:HIS:456:CG:4066, V-A:TYR:484:CD2:4344, V-B:ARG:545:CG:9894, V-A:TYR:484:CE2:4346, H-A:TYR:484:OH:4348, V-A:HIS:456:CE1:4069, H-A:ALA:541:N:4891, H-B:TYR:484:OH:9319, H-B:ARG:545:NH2:9900, H-B:GLU:543:OE1:9881"]

$$$$
RR22_Rahimova_2017
     RDKit          3D

 31 36  0  0  0  0  0  0  0  0999 V2000
  129.7540  133.4190   54.3460 O   0  0  0  0  0  0  0  0  0  0  0  0
  129.7630  132.6020   55.2630 C   0  0  0  0  0  0  0  0  0  0  0  0
  130.5120  132.6450   56.4260 N   0  0  0  0  0  0  0  0  0  0  0  0
  130.3580  131.6360   57.4300 C   0  0  1  0  0  0  0  0  0  0  0  0
  131.6720  131.1060   57.6310 O   0  0  0  0  0  0  0  0  0  0  0  0
  132.2330  131.1930   58.9060 C   0  0  0  0  0  0  0  0  0  0  0  0
  133.6140  131.0160   58.9900 C   0  0  0  0  0  0  0  0  0  0  0  0
  134.2420  131.0480   60.2350 C   0  0  0  0  0  0  0  0  0  0  0  0
  133.4890  131.2500   61.3920 C   0  0  0  0  0  0  0  0  0  0  0  0
  132.1070  131.4260   61.3080 C   0  0  0  0  0  0  0  0  0  0  0  0
  131.4670  131.4200   60.0650 C   0  0  0  0  0  0  0  0  0  0  0  0
  129.9740  131.5590   59.8700 C   0  0  1  0  0  0  0  0  0  0  0  0
  129.1060  132.3890   60.7930 C   0  0  0  0  0  0  0  0  0  0  0  0
  128.0160  132.8230   59.8090 C   0  0  0  0  0  0  0  0  0  0  0  0
  126.7020  133.3340   60.2460 C   0  0  0  0  0  0  0  0  0  0  0  0
  126.5590  134.6640   60.6680 C   0  0  0  0  0  0  0  0  0  0  0  0
  125.3170  135.1420   61.0790 C   0  0  0  0  0  0  0  0  0  0  0  0
  124.2130  134.2940   61.0710 C   0  0  0  0  0  0  0  0  0  0  0  0
  124.3390  132.9710   60.6550 C   0  0  0  0  0  0  0  0  0  0  0  0
  125.5790  132.4920   60.2420 C   0  0  0  0  0  0  0  0  0  0  0  0
  128.4140  132.7030   58.5980 N   0  0  0  0  0  0  0  0  0  0  0  0
  129.7340  132.2240   58.6250 N   0  0  0  0  0  0  0  0  0  0  0  0
  129.5200  130.5290   56.8090 C   0  0  0  0  0  0  0  0  0  0  0  0
  129.4530  129.2780   57.3230 C   0  0  0  0  0  0  0  0  0  0  0  0
  128.6710  128.1250   56.8370 C   0  0  0  0  0  0  0  0  0  0  0  0
  127.4500  127.7320   57.4040 C   0  0  0  0  0  0  0  0  0  0  0  0
  126.7660  126.6290   56.8920 C   0  0  0  0  0  0  0  0  0  0  0  0
  127.3280  125.9370   55.8190 C   0  0  0  0  0  0  0  0  0  0  0  0
  128.5110  126.2880   55.2560 N   0  0  0  0  0  0  0  0  0  0  0  0
  129.1610  127.3650   55.7680 C   0  0  0  0  0  0  0  0  0  0  0  0
  128.7600  131.0850   55.3100 S   0  0  0  0  0  0  0  0  0  0  0  0
  1  2  2  0
  2  3  1  0
  4  3  1  6
  4  5  1  0
  5  6  1  0
  6  7  2  0
  7  8  1  0
  8  9  2  0
  9 10  1  0
 10 11  2  0
 11 12  1  0
 12 13  1  1
 13 14  1  0
 14 15  1  0
 15 16  2  0
 16 17  1  0
 17 18  2  0
 18 19  1  0
 19 20  2  0
 14 21  2  0
 21 22  1  0
  4 23  1  0
 23 24  2  0
 24 25  1  0
 25 26  2  0
 26 27  1  0
 27 28  2  0
 28 29  1  0
 29 30  2  0
 23 31  1  0
 31  2  1  0
 22  4  1  0
 30 25  1  0
 11  6  1  0
 22 12  1  0
 20 15  1  0
M  END
>  <Binding energies>  (75) 
[-8.93]

>  <Ligand effiencies>  (75) 
[-0.2790625]

>  <Interactions>  (75) 
["V-A:TYR:539:CD2:4874, V-A:TYR:539:C:4867, H-A:TYR:539:N:4870, V-A:PRO:540:CD:4887, V-A:TYR:539:CE1:4875, V-A:PRO:540:CB:4885, V-A:PRO:540:CA:4883, V-A:PRO:540:N:4884, V-B:TRP:381:CH2:8343, V-A:TYR:539:CE2:4876, V-B:LEU:475:CD1:9229, V-B:ILE:369:CG2:8208, V-B:TRP:381:CZ2:8341, V-A:TYR:539:CD1:4873, V-A:PRO:540:C:4881, V-A:ASN:362:CB:3176, V-A:LEU:363:CB:3187, V-A:ASP:366:CG:3213, V-A:LEU:363:CA:3185, V-A:TYR:539:CA:4869, V-A:ASN:362:C:3172, V-A:ASN:362:CA:3174"]

$$$$
RR24_Rahimova_2017
     RDKit          3D

 43 49  0  0  0  0  0  0  0  0999 V2000
  132.6680  132.4940   56.4510 C   0  0  0  0  0  0  0  0  0  0  0  0
  131.3600  131.6890   56.4810 C   0  0  2  0  0  0  0  0  0  0  0  0
  130.3970  132.0390   55.3080 C   0  0  0  0  0  0  0  0  0  0  0  0
  130.2750  133.1910   54.8820 O   0  0  0  0  0  0  0  0  0  0  0  0
  129.7130  130.9490   54.8520 O   0  0  0  0  0  0  0  0  0  0  0  0
  128.8270  130.3040   55.6850 C   0  0  0  0  0  0  0  0  0  0  0  0
  129.2960  129.3050   56.5400 C   0  0  0  0  0  0  0  0  0  0  0  0
  128.4120  128.6530   57.3940 C   0  0  0  0  0  0  0  0  0  0  0  0
  127.0580  129.0010   57.4030 C   0  0  0  0  0  0  0  0  0  0  0  0
  126.0850  128.2650   58.3320 C   0  0  1  0  0  0  0  0  0  0  0  0
  126.4940  126.7880   58.5440 C   0  0  0  0  0  0  0  0  0  0  0  0
  126.6100  126.2330   59.7640 C   0  0  0  0  0  0  0  0  0  0  0  0
  126.3740  126.9410   60.9170 N   0  0  0  0  0  0  0  0  0  0  0  0
  126.0060  128.2650   60.8790 C   0  0  0  0  0  0  0  0  0  0  0  0
  125.8020  128.8170   62.1030 N   0  0  0  0  0  0  0  0  0  0  0  0
  125.5100  130.1360   62.2670 C   0  0  0  0  0  0  0  0  0  0  0  0
  125.6480  130.6490   63.3790 O   0  0  0  0  0  0  0  0  0  0  0  0
  125.2360  130.8050   61.0850 N   0  0  0  0  0  0  0  0  0  0  0  0
  124.8230  132.2180   61.2140 C   0  0  0  0  0  0  0  0  0  0  0  0
  125.4110  130.3430   59.7920 C   0  0  0  0  0  0  0  0  0  0  0  0
  125.1950  131.0160   58.7800 O   0  0  0  0  0  0  0  0  0  0  0  0
  125.8600  128.9490   59.7140 C   0  0  0  0  0  0  0  0  0  0  0  0
  127.0060  124.8380   59.6620 C   0  0  0  0  0  0  0  0  0  0  0  0
  127.2580  123.8480   60.6130 C   0  0  0  0  0  0  0  0  0  0  0  0
  127.6310  122.5720   60.1850 C   0  0  0  0  0  0  0  0  0  0  0  0
  127.7480  122.2920   58.8200 C   0  0  0  0  0  0  0  0  0  0  0  0
  127.4940  123.2870   57.8730 C   0  0  0  0  0  0  0  0  0  0  0  0
  127.1230  124.5620   58.3060 C   0  0  0  0  0  0  0  0  0  0  0  0
  126.7990  125.7800   57.5340 C   0  0  0  0  0  0  0  0  0  0  0  0
  126.7760  125.9580   56.3180 O   0  0  0  0  0  0  0  0  0  0  0  0
  126.5950  130.0150   56.5580 C   0  0  0  0  0  0  0  0  0  0  0  0
  127.4790  130.6690   55.7050 C   0  0  0  0  0  0  0  0  0  0  0  0
  130.6860  131.7630   57.8110 N   0  0  0  0  0  0  0  0  0  0  0  0
  129.5920  132.5500   58.0130 C   0  0  0  0  0  0  0  0  0  0  0  0
  129.0330  133.2790   57.1920 O   0  0  0  0  0  0  0  0  0  0  0  0
  129.2160  132.3450   59.4340 C   0  0  0  0  0  0  0  0  0  0  0  0
  128.1800  132.8920   60.1930 C   0  0  0  0  0  0  0  0  0  0  0  0
  128.0590  132.5100   61.5340 C   0  0  0  0  0  0  0  0  0  0  0  0
  128.9610  131.5960   62.0920 C   0  0  0  0  0  0  0  0  0  0  0  0
  129.9920  131.0580   61.3150 C   0  0  0  0  0  0  0  0  0  0  0  0
  130.0980  131.4520   59.9800 C   0  0  0  0  0  0  0  0  0  0  0  0
  131.0640  131.0610   58.9230 C   0  0  0  0  0  0  0  0  0  0  0  0
  132.0010  130.2700   59.0260 O   0  0  0  0  0  0  0  0  0  0  0  0
  2  1  1  1
  2  3  1  0
  3  4  2  0
  3  5  1  0
  5  6  1  0
  6  7  2  0
  7  8  1  0
  8  9  2  0
 10  9  1  1
 10 11  1  0
 11 12  2  0
 12 13  1  0
 13 14  1  0
 14 15  1  0
 15 16  1  0
 16 17  2  0
 16 18  1  0
 18 19  1  0
 18 20  1  0
 20 21  2  0
 20 22  1  0
 12 23  1  0
 23 24  2  0
 24 25  1  0
 25 26  2  0
 26 27  1  0
 27 28  2  0
 28 29  1  0
 29 30  2  0
  9 31  1  0
 31 32  2  0
  2 33  1  0
 33 34  1  0
 34 35  2  0
 34 36  1  0
 36 37  2  0
 37 38  1  0
 38 39  2  0
 39 40  1  0
 40 41  2  0
 41 42  1  0
 42 43  2  0
 32  6  1  0
 42 33  1  0
 22 10  1  0
 28 23  1  0
 41 36  1  0
 29 11  1  0
 22 14  2  0
M  END
>  <Binding energies>  (76) 
[-9.64]

>  <Ligand effiencies>  (76) 
[-0.21422222222222223]

>  <Interactions>  (76) 
["V-B:GLU:543:CD:9880, V-A:TYR:539:CD2:4874, V-A:TYR:539:C:4867, V-A:TYR:539:CZ:4877, H-A:TYR:539:N:4870, V-A:PRO:540:CD:4887, V-A:TYR:539:CE1:4875, V-A:PRO:540:CB:4885, V-A:PRO:540:CA:4883, V-A:PRO:540:N:4884, V-A:LEU:363:CD1:3189, V-A:TYR:539:CE2:4876, V-A:ALA:541:CB:4892, V-B:PRO:540:C:9853, V-B:TYR:539:C:9839, V-B:PRO:540:CA:9855, V-B:PRO:540:N:9856, V-B:TYR:539:CD2:9846, V-B:TYR:539:CE2:9848, V-A:PRO:540:CG:4886, V-B:ASP:366:CG:8184, H-B:ASP:366:OD1:8185, H-B:TYR:531:OH:9767, H-A:TYR:539:OH:4878, H-B:GLU:543:OE1:9881, H-B:GLU:543:OE2:9882"]

$$$$
RR25_Rahimova_2017
     RDKit          3D

 39 44  0  0  0  0  0  0  0  0999 V2000
  123.0320  129.8940   66.5780 O   0  0  0  0  0  0  0  0  0  0  0  0
  124.1700  129.4820   66.3510 C   0  0  0  0  0  0  0  0  0  0  0  0
  124.8050  128.8490   67.3910 O   0  0  0  0  0  0  0  0  0  0  0  0
  125.9700  128.1300   67.1950 C   0  0  0  0  0  0  0  0  0  0  0  0
  126.2350  127.1060   68.1030 C   0  0  0  0  0  0  0  0  0  0  0  0
  127.3960  126.3470   67.9700 C   0  0  0  0  0  0  0  0  0  0  0  0
  128.3070  126.6020   66.9340 C   0  0  0  0  0  0  0  0  0  0  0  0
  129.5390  125.7870   66.7900 N   0  0  0  0  0  0  0  0  0  0  0  0
  130.6100  126.3650   66.6230 O   0  0  0  0  0  0  0  0  0  0  0  0
  129.4430  124.5650   66.8440 O   0  0  0  0  0  0  0  0  0  0  0  0
  128.0270  127.6460   66.0380 C   0  0  0  0  0  0  0  0  0  0  0  0
  126.8720  128.4220   66.1620 C   0  0  0  0  0  0  0  0  0  0  0  0
  126.5190  129.5530   65.2130 C   0  0  0  0  0  0  0  0  0  0  0  0
  124.9770  129.6190   65.0270 C   0  0  2  0  0  0  0  0  0  0  0  0
  124.5700  130.8300   64.1370 C   0  0  0  0  0  0  0  0  0  0  0  0
  124.1240  131.8140   64.7330 O   0  0  0  0  0  0  0  0  0  0  0  0
  124.8100  130.8570   62.7920 N   0  0  0  0  0  0  0  0  0  0  0  0
  125.0410  129.6330   61.9950 C   0  0  0  0  0  0  0  0  0  0  0  0
  126.0970  129.9330   60.9100 C   0  0  0  0  0  0  0  0  0  0  0  0
  125.7090  131.0820   60.0880 N   0  0  0  0  0  0  0  0  0  0  0  0
  126.6440  131.2870   58.9740 C   0  0  0  0  0  0  0  0  0  0  0  0
  127.6110  132.4780   59.2100 C   0  0  0  0  0  0  0  0  0  0  0  0
  129.0660  132.1490   59.2280 N   0  0  0  0  0  0  0  0  0  0  0  0
  129.6640  132.1900   60.4700 C   0  0  0  0  0  0  0  0  0  0  0  0
  129.0610  132.5100   61.5010 O   0  0  0  0  0  0  0  0  0  0  0  0
  131.1260  131.7880   60.4800 C   0  0  0  0  0  0  0  0  0  0  0  0
  131.8260  131.7690   61.6940 C   0  0  0  0  0  0  0  0  0  0  0  0
  133.1680  131.3980   61.7410 C   0  0  0  0  0  0  0  0  0  0  0  0
  133.8520  131.0320   60.5830 C   0  0  0  0  0  0  0  0  0  0  0  0
  133.1860  131.0360   59.3340 C   0  0  0  0  0  0  0  0  0  0  0  0
  133.8190  130.6750   58.1210 C   0  0  0  0  0  0  0  0  0  0  0  0
  133.1030  130.6980   56.9250 C   0  0  0  0  0  0  0  0  0  0  0  0
  131.7620  131.0750   56.9000 C   0  0  0  0  0  0  0  0  0  0  0  0
  131.0950  131.4410   58.0760 C   0  0  0  0  0  0  0  0  0  0  0  0
  131.8160  131.4190   59.2970 C   0  0  0  0  0  0  0  0  0  0  0  0
  129.6320  131.8370   58.0090 C   0  0  0  0  0  0  0  0  0  0  0  0
  129.0070  131.8590   56.9430 O   0  0  0  0  0  0  0  0  0  0  0  0
  125.5960  132.2770   60.9260 C   0  0  0  0  0  0  0  0  0  0  0  0
  124.5320  132.0990   62.0350 C   0  0  0  0  0  0  0  0  0  0  0  0
  1  2  2  0
  2  3  1  0
  3  4  1  0
  4  5  2  0
  5  6  1  0
  6  7  2  0
  7  8  1  0
  8  9  2  0
  8 10  1  0
  7 11  1  0
 11 12  2  0
 12 13  1  0
 13 14  1  0
 14 15  1  1
 15 16  2  0
 15 17  1  0
 17 18  1  0
 18 19  1  0
 19 20  1  0
 20 21  1  0
 21 22  1  0
 22 23  1  0
 23 24  1  0
 24 25  2  0
 24 26  1  0
 26 27  2  0
 27 28  1  0
 28 29  2  0
 29 30  1  0
 30 31  2  0
 31 32  1  0
 32 33  2  0
 33 34  1  0
 34 35  2  0
 34 36  1  0
 36 37  2  0
 20 38  1  0
 38 39  1  0
 14  2  1  0
 39 17  1  0
 12  4  1  0
 36 23  1  0
 35 26  1  0
 35 30  1  0
M  CHG  2   8   1  10  -1
M  END
>  <Binding energies>  (77) 
[-11.41]

>  <Ligand effiencies>  (77) 
[-0.2925641025641026]

>  <Interactions>  (77) 
["V-B:GLU:543:CB:9878, V-B:HIS:456:CE1:9040, H-A:HIS:456:NE2:4070, V-A:TYR:539:CD2:4874, V-A:TYR:539:CZ:4877, V-A:TYR:531:CE2:4793, V-A:PRO:540:CB:4885, V-A:PRO:540:CA:4883, V-A:PRO:540:N:4884, V-A:LEU:363:CD1:3189, V-A:TYR:539:CE2:4876, V-A:ASP:366:CB:3212, V-A:PRO:540:C:4881, V-A:ASN:362:CB:3176, V-B:GLU:543:C:9874, V-A:LEU:363:CB:3187, V-A:ASP:366:CG:3213, V-A:LEU:363:CA:3185, V-B:ASP:366:CG:8184, V-B:ARG:545:CA:9891, V-B:ARG:545:CG:9894, H-A:TYR:484:OH:4348, V-A:HIS:456:CE1:4069, H-A:ALA:541:N:4891, H-B:TYR:484:OH:9319, V-A:ALA:541:CA:4890, V-B:ARG:545:CZ:9898, H-B:GLY:454:N:9021, V-B:GLY:454:CA:9020, H-B:ILE:455:N:9026, H-B:ARG:545:NE:9896, V-B:ARG:545:CD:9895, V-A:ASN:362:C:3172, V-A:ASN:362:CA:3174"]

$$$$
RR27_Rahimova_2017
     RDKit          3D

 39 44  0  0  0  0  0  0  0  0999 V2000
  123.8330  130.1870   62.0710 O   0  0  0  0  0  0  0  0  0  0  0  0
  124.8390  130.8710   62.2820 C   0  0  0  0  0  0  0  0  0  0  0  0
  125.6440  131.3980   61.0580 C   0  0  0  0  0  0  0  0  0  0  0  0
  125.9700  132.9000   61.1510 C   0  0  0  0  0  0  0  0  0  0  0  0
  127.2910  133.3740   61.1370 C   0  0  0  0  0  0  0  0  0  0  0  0
  127.5500  134.7380   61.2200 C   0  0  0  0  0  0  0  0  0  0  0  0
  126.4910  135.6360   61.3180 C   0  0  0  0  0  0  0  0  0  0  0  0
  125.1750  135.1820   61.3350 C   0  0  0  0  0  0  0  0  0  0  0  0
  124.9160  133.8170   61.2520 C   0  0  0  0  0  0  0  0  0  0  0  0
  125.0140  130.9510   59.7250 C   0  0  0  0  0  0  0  0  0  0  0  0
  123.8010  131.4830   59.2680 C   0  0  0  0  0  0  0  0  0  0  0  0
  123.2540  131.0490   58.0630 C   0  0  0  0  0  0  0  0  0  0  0  0
  123.9140  130.0780   57.3150 C   0  0  0  0  0  0  0  0  0  0  0  0
  125.1140  129.5330   57.7620 C   0  0  0  0  0  0  0  0  0  0  0  0
  125.6600  129.9670   58.9660 C   0  0  0  0  0  0  0  0  0  0  0  0
  125.1660  131.2920   63.5370 N   0  0  0  0  0  0  0  0  0  0  0  0
  126.4690  131.8840   63.8800 C   0  0  0  0  0  0  0  0  0  0  0  0
  127.4130  130.7130   64.2320 C   0  0  0  0  0  0  0  0  0  0  0  0
  126.8400  129.7920   65.3560 C   0  0  0  0  0  0  0  0  0  0  0  0
  127.6900  128.5470   65.6670 C   0  0  0  0  0  0  0  0  0  0  0  0
  128.5340  128.1260   64.6800 N   0  0  0  0  0  0  0  0  0  0  0  0
  129.3280  127.0450   64.9130 C   0  0  0  0  0  0  0  0  0  0  0  0
  130.2170  126.5320   64.0050 O   0  0  0  0  0  0  0  0  0  0  0  0
  129.2440  126.4020   66.1640 C   0  0  0  0  0  0  0  0  0  0  0  0
  129.8800  125.3290   66.7150 N   0  0  0  0  0  0  0  0  0  0  0  0
  129.3710  125.1590   67.9890 N   0  0  0  0  0  0  0  0  0  0  0  0
  128.4460  126.1150   68.2190 N   0  0  0  0  0  0  0  0  0  0  0  0
  127.7250  126.1580   69.4890 C   0  0  0  0  0  0  0  0  0  0  0  0
  128.6230  125.9970   70.7090 C   0  0  0  0  0  0  0  0  0  0  0  0
  128.7680  127.0490   71.6190 C   0  0  0  0  0  0  0  0  0  0  0  0
  129.5830  126.8980   72.7420 C   0  0  0  0  0  0  0  0  0  0  0  0
  130.2500  125.6940   72.9640 C   0  0  0  0  0  0  0  0  0  0  0  0
  130.1010  124.6370   72.0650 C   0  0  0  0  0  0  0  0  0  0  0  0
  130.9050  123.1360   72.3530 Cl  0  0  0  0  0  0  0  0  0  0  0  0
  129.2940  124.7900   70.9380 C   0  0  0  0  0  0  0  0  0  0  0  0
  128.3240  126.9220   67.1000 C   0  0  0  0  0  0  0  0  0  0  0  0
  127.5290  127.9750   66.8940 N   0  0  0  0  0  0  0  0  0  0  0  0
  125.3300  129.4710   65.1310 C   0  0  0  0  0  0  0  0  0  0  0  0
  124.4990  130.7090   64.7110 C   0  0  0  0  0  0  0  0  0  0  0  0
  1  2  2  0
  2  3  1  0
  3  4  1  0
  4  5  2  0
  5  6  1  0
  6  7  2  0
  7  8  1  0
  8  9  2  0
  3 10  1  0
 10 11  2  0
 11 12  1  0
 12 13  2  0
 13 14  1  0
 14 15  2  0
  2 16  1  0
 16 17  1  0
 17 18  1  0
 18 19  1  0
 19 20  1  0
 20 21  2  0
 21 22  1  0
 22 23  1  0
 22 24  2  0
 24 25  1  0
 25 26  2  0
 26 27  1  0
 27 28  1  0
 28 29  1  0
 29 30  2  0
 30 31  1  0
 31 32  2  0
 32 33  1  0
 33 34  1  0
 33 35  2  0
 27 36  1  0
 36 37  2  0
 19 38  1  0
 38 39  1  0
  9  4  1  0
 15 10  1  0
 39 16  1  0
 37 20  1  0
 36 24  1  0
 35 29  1  0
M  END
>  <Binding energies>  (78) 
[-11.1]

>  <Ligand effiencies>  (78) 
[-0.27749999999999997]

>  <Interactions>  (78) 
["V-B:GLU:543:CB:9878, V-B:HIS:456:CE1:9040, V-B:GLY:544:C:9884, V-A:HIS:456:CD2:4068, H-A:GLU:543:OE2:4910, V-A:GLU:543:CD:4908, H-A:GLU:543:OE1:4909, V-A:TYR:539:CD2:4874, V-A:TYR:539:CZ:4877, V-B:PRO:482:CG:9298, V-B:TRP:381:CH2:8343, V-A:TYR:539:CE2:4876, V-B:LEU:475:CD1:9229, V-B:ILE:369:CG2:8208, V-A:ALA:541:CB:4892, V-B:PRO:482:CB:9297, V-B:TRP:381:CZ2:8341, V-B:GLU:543:C:9874, V-A:HIS:456:CB:4065, V-B:ASP:366:CG:8184, V-B:ASP:366:CB:8183, V-A:TYR:484:CG:4342, V-A:HIS:456:CG:4066, V-A:TYR:484:CD2:4344, V-A:TYR:484:CE2:4346, H-A:TYR:484:OH:4348, H-B:ARG:545:NH2:9900, V-B:ARG:545:CZ:9898, V-B:GLY:454:CA:9020, V-B:ASP:366:CA:8181, V-B:ASP:366:C:8179, V-B:ILE:369:CB:8207"]

$$$$
RR28_Rahimova_2017
     RDKit          3D

 46 49  0  0  0  0  0  0  0  0999 V2000
  123.8250  123.6230   60.3360 C   0  0  0  0  0  0  0  0  0  0  0  0
  124.0420  124.5320   59.1320 C   0  0  0  0  0  0  0  0  0  0  0  0
  123.0860  124.8380   58.4220 O   0  0  0  0  0  0  0  0  0  0  0  0
  125.3060  124.9520   58.9200 N   0  0  0  0  0  0  0  0  0  0  0  0
  125.8110  125.8260   57.8360 C   0  0  0  0  0  0  0  0  0  0  0  0
  125.6460  127.3050   58.2880 C   0  0  0  0  0  0  0  0  0  0  0  0
  126.1990  127.7170   59.5100 C   0  0  0  0  0  0  0  0  0  0  0  0
  126.0680  129.0320   59.9470 C   0  0  0  0  0  0  0  0  0  0  0  0
  125.3780  129.9660   59.1720 C   0  0  0  0  0  0  0  0  0  0  0  0
  125.2400  131.4030   59.6710 C   0  0  0  0  0  0  0  0  0  0  0  0
  124.0400  131.9210   59.3990 F   0  0  0  0  0  0  0  0  0  0  0  0
  125.4210  131.4550   60.9910 F   0  0  0  0  0  0  0  0  0  0  0  0
  126.1650  132.1620   59.0820 F   0  0  0  0  0  0  0  0  0  0  0  0
  124.8210  129.5680   57.9540 C   0  0  0  0  0  0  0  0  0  0  0  0
  124.9540  128.2520   57.5170 C   0  0  0  0  0  0  0  0  0  0  0  0
  125.0900  125.4940   56.4810 C   0  0  0  0  0  0  0  0  0  0  0  0
  125.4140  124.0770   55.9440 C   0  0  0  0  0  0  0  0  0  0  0  0
  126.8750  124.0210   55.7720 N   0  0  0  0  0  0  0  0  0  0  0  0
  127.4370  124.3150   54.5680 C   0  0  0  0  0  0  0  0  0  0  0  0
  126.7590  124.4700   53.5500 O   0  0  0  0  0  0  0  0  0  0  0  0
  128.9800  124.2920   54.4380 C   0  0  0  0  0  0  0  0  0  0  0  0
  129.7120  125.6100   54.8110 C   0  0  0  0  0  0  0  0  0  0  0  0
  128.8530  126.8920   54.7020 C   0  0  0  0  0  0  0  0  0  0  0  0
  128.3180  127.1380   53.6180 O   0  0  0  0  0  0  0  0  0  0  0  0
  128.5980  127.6320   55.8180 N   0  0  0  0  0  0  0  0  0  0  0  0
  129.4300  127.5830   57.0260 C   0  0  0  0  0  0  0  0  0  0  0  0
  130.5900  128.5780   56.8030 C   0  0  0  0  0  0  0  0  0  0  0  0
  130.1420  130.0470   56.4840 C   0  0  0  0  0  0  0  0  0  0  0  0
  131.2840  130.7870   55.9070 N   0  0  0  0  0  0  0  0  0  0  0  0
  131.3430  132.0900   55.5650 C   0  0  0  0  0  0  0  0  0  0  0  0
  132.6620  132.5730   54.9700 C   0  0  0  0  0  0  0  0  0  0  0  0
  130.4130  132.8820   55.7050 O   0  0  0  0  0  0  0  0  0  0  0  0
  129.7750  130.7300   57.8410 C   0  0  0  0  0  0  0  0  0  0  0  0
  129.0880  131.9530   57.9170 C   0  0  0  0  0  0  0  0  0  0  0  0
  128.7790  132.5280   59.1470 C   0  0  0  0  0  0  0  0  0  0  0  0
  129.1520  131.8950   60.3340 C   0  0  0  0  0  0  0  0  0  0  0  0
  128.8170  132.5110   61.6920 C   0  0  0  0  0  0  0  0  0  0  0  0
  127.7310  131.9370   62.2140 F   0  0  0  0  0  0  0  0  0  0  0  0
  129.8410  132.3210   62.5230 F   0  0  0  0  0  0  0  0  0  0  0  0
  128.5860  133.8230   61.6060 F   0  0  0  0  0  0  0  0  0  0  0  0
  129.8420  130.6840   60.2760 C   0  0  0  0  0  0  0  0  0  0  0  0
  130.1490  130.1120   59.0450 C   0  0  0  0  0  0  0  0  0  0  0  0
  128.9390  130.0070   55.4630 C   0  0  0  0  0  0  0  0  0  0  0  0
  127.8740  128.9050   55.7080 C   0  0  0  0  0  0  0  0  0  0  0  0
  127.6140  124.1210   57.0380 C   0  0  0  0  0  0  0  0  0  0  0  0
  127.3310  125.5300   57.6200 C   0  0  0  0  0  0  0  0  0  0  0  0
  1  2  1  0
  2  3  2  0
  2  4  1  0
  4  5  1  0
  5  6  1  0
  6  7  2  0
  7  8  1  0
  8  9  2  0
  9 10  1  0
 10 11  1  0
 10 12  1  0
 10 13  1  0
  9 14  1  0
 14 15  2  0
  5 16  1  0
 16 17  1  0
 17 18  1  0
 18 19  1  0
 19 20  2  0
 19 21  1  0
 21 22  1  0
 22 23  1  0
 23 24  2  0
 23 25  1  0
 25 26  1  0
 26 27  1  0
 27 28  1  0
 28 29  1  0
 29 30  1  0
 30 31  1  0
 30 32  2  0
 28 33  1  0
 33 34  2  0
 34 35  1  0
 35 36  2  0
 36 37  1  0
 37 38  1  0
 37 39  1  0
 37 40  1  0
 36 41  1  0
 41 42  2  0
 28 43  1  0
 43 44  1  0
 18 45  1  0
 45 46  1  0
 46  5  1  0
 15  6  1  0
 44 25  1  0
 42 33  1  0
M  END
>  <Binding energies>  (79) 
[-8.21]

>  <Ligand effiencies>  (79) 
[-0.17104166666666668]

>  <Interactions>  (79) 
["V-A:ILE:538:CD1:4865, V-A:TYR:539:CD2:4874, V-A:TYR:539:C:4867, V-A:TYR:539:CZ:4877, H-A:TYR:539:N:4870, V-A:PRO:540:CD:4887, V-A:TYR:531:CE2:4793, V-A:PRO:540:CA:4883, V-A:PRO:540:N:4884, V-A:LEU:363:CD1:3189, V-A:TYR:539:CE2:4876, V-A:ILE:538:CG2:4863, V-B:ILE:369:CG2:8208, V-A:ALA:541:CB:4892, V-B:PRO:540:CA:9855, V-B:PRO:540:CB:9857, V-B:LEU:363:CD1:8160, V-B:ILE:538:CG2:9835, V-A:TYR:531:CZ:4794, V-A:PRO:540:C:4881, V-A:ILE:538:CA:4860, V-B:TYR:539:CE1:9847, V-B:ASP:366:CG:8184, V-B:TYR:531:CZ:9766, V-B:ASP:366:CB:8183, V-B:TYR:531:CE2:9765, V-B:TYR:539:CZ:9849, H-B:ASP:366:OD1:8185, V-A:ALA:541:CA:4890, H-A:TYR:531:OH:4795, V-A:MET:535:CE:4835, H-B:TYR:531:OH:9767, H-B:GLU:543:OE2:9882, V-B:ASN:362:CB:8147, V-A:ILE:538:CB:4862"]

$$$$
RR29_Rahimova_2017
     RDKit          3D

 18 19  0  0  0  0  0  0  0  0999 V2000
  127.9280  133.6640   60.4880 C   0  0  0  0  0  0  0  0  0  0  0  0
  128.7580  132.4180   60.7620 C   0  0  0  0  0  0  0  0  0  0  0  0
  128.1560  131.1410   60.1350 C   0  0  0  0  0  0  0  0  0  0  0  0
  127.3330  131.4610   58.8700 C   0  0  0  0  0  0  0  0  0  0  0  0
  128.2000  131.5420   57.6230 C   0  0  0  0  0  0  0  0  0  0  0  0
  127.9230  130.7140   56.5170 C   0  0  0  0  0  0  0  0  0  0  0  0
  128.7090  130.7730   55.3580 C   0  0  0  0  0  0  0  0  0  0  0  0
  129.7720  131.6680   55.3480 C   0  0  0  0  0  0  0  0  0  0  0  0
  130.0480  132.4720   56.4170 C   0  0  0  0  0  0  0  0  0  0  0  0
  129.2790  132.4430   57.5760 C   0  0  0  0  0  0  0  0  0  0  0  0
  131.1120  133.2650   56.1220 O   0  0  0  0  0  0  0  0  0  0  0  0
  131.6240  132.7750   54.9110 C   0  0  0  0  0  0  0  0  0  0  0  0
  130.6550  131.9310   54.3480 O   0  0  0  0  0  0  0  0  0  0  0  0
  129.8250  132.5340   61.4630 N   0  0  0  0  0  0  0  0  0  0  0  0
  130.5320  131.3960   61.7850 N   0  0  0  0  0  0  0  0  0  0  0  0
  131.3140  130.7280   60.9220 C   0  0  0  0  0  0  0  0  0  0  0  0
  131.5260  131.0820   59.6540 N   0  0  0  0  0  0  0  0  0  0  0  0
  131.9230  129.6360   61.3600 N   0  0  0  0  0  0  0  0  0  0  0  0
  1  2  1  0
  2  3  1  0
  3  4  1  0
  4  5  1  0
  5  6  2  0
  6  7  1  0
  7  8  2  0
  8  9  1  0
  9 10  2  0
  9 11  1  0
 11 12  1  0
 12 13  1  0
  2 14  2  0
 14 15  1  0
 15 16  1  0
 16 17  1  0
 16 18  2  0
 10  5  1  0
 13  8  1  0
M  CHG  1  18   1
M  END
>  <Binding energies>  (80) 
[-7.37]

>  <Ligand effiencies>  (80) 
[-0.3204347826086957]

>  <Interactions>  (80) 
["H-A:GLU:543:OE2:4910, V-A:GLU:543:CD:4908, H-A:GLU:543:OE1:4909, V-A:ILE:538:CD1:4865, V-A:TYR:539:CD2:4874, V-A:TYR:539:C:4867, V-A:TYR:539:CZ:4877, H-A:TYR:539:N:4870, V-A:PRO:540:CD:4887, V-A:TYR:539:CE1:4875, V-A:PRO:540:CB:4885, V-A:PRO:540:CA:4883, V-A:PRO:540:N:4884, V-A:TYR:539:CE2:4876, V-A:ILE:538:CG2:4863, V-A:TYR:539:CG:4872, V-A:TYR:539:CD1:4873, V-A:ILE:538:C:4858, V-A:ILE:538:CA:4860, H-A:ALA:541:N:4891, H-A:ASP:366:OD1:3214, V-A:ILE:538:CB:4862"]

$$$$
RR30_Rahimova_2017
     RDKit          3D

 18 19  0  0  0  0  0  0  0  0999 V2000
  128.7230  124.4580   53.7950 C   0  0  0  0  0  0  0  0  0  0  0  0
  127.8750  123.1800   53.7410 C   0  0  0  0  0  0  0  0  0  0  0  0
  126.9150  123.0790   54.9060 C   0  0  0  0  0  0  0  0  0  0  0  0
  126.7710  122.0900   55.7530 N   0  0  0  0  0  0  0  0  0  0  0  0
  125.7570  122.4790   56.6250 N   0  0  0  0  0  0  0  0  0  0  0  0
  125.3700  123.6640   56.2250 C   0  0  0  0  0  0  0  0  0  0  0  0
  124.1230  124.6860   56.9390 S   0  0  0  0  0  0  0  0  0  0  0  0
  125.1690  125.9220   57.7710 C   0  0  0  0  0  0  0  0  0  0  0  0
  126.2530  125.2740   58.6370 C   0  0  0  0  0  0  0  0  0  0  0  0
  127.2180  125.9500   59.0000 O   0  0  0  0  0  0  0  0  0  0  0  0
  126.0790  123.9630   58.9170 N   0  0  0  0  0  0  0  0  0  0  0  0
  126.9220  123.1640   59.6760 C   0  0  0  0  0  0  0  0  0  0  0  0
  126.8530  122.9000   60.9610 N   0  0  0  0  0  0  0  0  0  0  0  0
  127.8740  122.0550   61.3820 N   0  0  0  0  0  0  0  0  0  0  0  0
  128.6870  121.7000   60.4140 C   0  0  0  0  0  0  0  0  0  0  0  0
  129.8750  120.7890   60.6240 C   0  0  0  0  0  0  0  0  0  0  0  0
  128.2520  122.3880   58.8740 S   0  0  0  0  0  0  0  0  0  0  0  0
  126.0630  124.1070   55.1450 O   0  0  0  0  0  0  0  0  0  0  0  0
  1  2  1  0
  2  3  1  0
  3  4  2  0
  4  5  1  0
  5  6  2  0
  6  7  1  0
  7  8  1  0
  8  9  1  0
  9 10  2  0
  9 11  1  0
 11 12  1  0
 12 13  2  0
 13 14  1  0
 14 15  2  0
 15 16  1  0
 15 17  1  0
  6 18  1  0
 18  3  1  0
 17 12  1  0
M  END
>  <Binding energies>  (81) 
[-6.28]

>  <Ligand effiencies>  (81) 
[-0.3305263157894737]

>  <Interactions>  (81) 
["V-B:ILE:538:CB:9834, V-B:ALA:541:CB:9864, V-B:PRO:540:C:9853, V-B:TYR:539:C:9839, V-B:PRO:540:CA:9855, V-B:PRO:540:CB:9857, H-B:TYR:539:N:9842, V-B:PRO:540:N:9856, V-B:TYR:539:CD2:9846, V-B:LEU:363:CD1:8160, V-B:ILE:538:CG2:9835, V-B:TYR:539:CE2:9848, V-B:ILE:538:CA:9832, V-B:TYR:539:CE1:9847, V-B:ASP:366:CG:8184, V-B:TYR:539:CZ:9849, V-B:TYR:539:CD1:9845, H-B:ALA:541:N:9863, V-A:MET:535:CE:4835"]

$$$$
RR31_Rahimova_2017
     RDKit          3D

 18 19  0  0  0  0  0  0  0  0999 V2000
  133.6950  119.1800   61.2630 C   0  0  0  0  0  0  0  0  0  0  0  0
  132.4480  120.0200   61.0250 C   0  0  0  0  0  0  0  0  0  0  0  0
  131.1960  119.4050   61.0560 C   0  0  0  0  0  0  0  0  0  0  0  0
  130.0360  120.1460   60.8450 C   0  0  0  0  0  0  0  0  0  0  0  0
  130.0920  121.5290   60.6040 C   0  0  0  0  0  0  0  0  0  0  0  0
  128.9380  122.2840   60.3810 N   0  0  0  0  0  0  0  0  0  0  0  0
  128.0550  122.0390   59.2240 C   0  0  0  0  0  0  0  0  0  0  0  0
  127.0850  123.2030   58.9130 C   0  0  0  0  0  0  0  0  0  0  0  0
  126.2750  123.5380   60.0870 N   0  0  0  0  0  0  0  0  0  0  0  0
  125.3200  124.6160   59.8120 C   0  0  0  0  0  0  0  0  0  0  0  0
  123.8680  124.1160   59.6760 C   0  0  0  0  0  0  0  0  0  0  0  0
  123.3390  123.5000   60.9810 C   0  0  0  0  0  0  0  0  0  0  0  0
  124.4820  122.8120   61.7370 N   0  0  0  0  0  0  0  0  0  0  0  0
  127.1920  123.9510   61.1480 C   0  0  0  0  0  0  0  0  0  0  0  0
  128.1540  122.8000   61.5210 C   0  0  0  0  0  0  0  0  0  0  0  0
  131.3570  122.1330   60.5660 C   0  0  0  0  0  0  0  0  0  0  0  0
  132.5300  121.3990   60.7750 C   0  0  0  0  0  0  0  0  0  0  0  0
  133.8740  122.1140   60.7180 C   0  0  0  0  0  0  0  0  0  0  0  0
  1  2  1  0
  2  3  2  0
  3  4  1  0
  4  5  2  0
  5  6  1  0
  6  7  1  0
  7  8  1  0
  8  9  1  0
  9 10  1  0
 10 11  1  0
 11 12  1  0
 12 13  1  0
  9 14  1  0
 14 15  1  0
  5 16  1  0
 16 17  2  0
 17 18  1  0
 17  2  1  0
 15  6  1  0
M  CHG  1  13   1
M  END
>  <Binding energies>  (82) 
[-6.42]

>  <Ligand effiencies>  (82) 
[-0.3057142857142857]

>  <Interactions>  (82) 
["V-B:GLU:543:CD:9880, V-B:ALA:541:CB:9864, V-B:PRO:540:C:9853, V-B:TYR:539:C:9839, V-B:PRO:540:CA:9855, V-A:PRO:482:CB:4326, V-B:PRO:540:CB:9857, V-B:GLU:543:CG:9879, V-B:PRO:540:N:9856, V-B:TYR:539:CD2:9846, V-A:TRP:381:CZ2:3370, V-A:TRP:381:CH2:3372, V-A:LEU:475:CD1:4258, V-B:LEU:363:CD1:8160, V-A:PRO:482:CG:4327, V-B:TYR:539:CE2:9848, V-B:ASP:366:CG:8184, V-A:ILE:369:CD1:3239, V-A:ILE:369:CG2:3237, V-B:LEU:363:CA:8156, V-A:ILE:369:CB:3236, H-B:GLU:543:OE2:9882, V-B:ASN:362:C:8143, V-B:ASN:362:CB:8147, H-B:ALA:541:O:9861, V-A:SER:385:C:3405, V-A:SER:385:CA:3407, V-B:ASN:362:CA:8145, V-B:ALA:541:C:9860"]

$$$$
RR32_Rahimova_2017
     RDKit          3D

 18 20  0  0  0  0  0  0  0  0999 V2000
  133.5180  130.7300   58.0730 C   0  0  0  0  0  0  0  0  0  0  0  0
  132.0910  131.2490   57.9210 C   0  0  0  0  0  0  0  0  0  0  0  0
  131.2910  131.3200   59.0620 C   0  0  0  0  0  0  0  0  0  0  0  0
  129.9850  131.7910   58.9630 C   0  0  0  0  0  0  0  0  0  0  0  0
  129.1950  131.8610   60.0970 N   0  0  0  0  0  0  0  0  0  0  0  0
  129.7220  131.2430   61.3270 C   0  0  0  0  0  0  0  0  0  0  0  0
  128.6950  131.2130   62.4840 C   0  0  0  0  0  0  0  0  0  0  0  0
  128.2480  132.5700   62.7980 N   0  0  0  0  0  0  0  0  0  0  0  0
  127.3040  132.5450   63.9100 C   0  0  0  0  0  0  0  0  0  0  0  0
  127.6100  133.1220   61.6050 C   0  0  0  0  0  0  0  0  0  0  0  0
  128.6190  133.1780   60.4340 C   0  0  0  0  0  0  0  0  0  0  0  0
  129.4380  132.1900   57.7860 N   0  0  0  0  0  0  0  0  0  0  0  0
  130.1930  132.1290   56.6550 C   0  0  0  0  0  0  0  0  0  0  0  0
  129.5960  132.5490   55.4410 C   0  0  0  0  0  0  0  0  0  0  0  0
  130.3190  132.5090   54.2550 C   0  0  0  0  0  0  0  0  0  0  0  0
  131.6330  132.0570   54.2450 C   0  0  0  0  0  0  0  0  0  0  0  0
  132.2490  131.6370   55.4200 C   0  0  0  0  0  0  0  0  0  0  0  0
  131.5470  131.6600   56.6600 C   0  0  0  0  0  0  0  0  0  0  0  0
  1  2  1  0
  2  3  2  0
  3  4  1  0
  4  5  1  0
  5  6  1  0
  6  7  1  0
  7  8  1  0
  8  9  1  0
  8 10  1  0
 10 11  1  0
  4 12  2  0
 12 13  1  0
 13 14  2  0
 14 15  1  0
 15 16  2  0
 16 17  1  0
 17 18  2  0
 18  2  1  0
 11  5  1  0
 18 13  1  0
M  END
>  <Binding energies>  (83) 
[-6.27]

>  <Ligand effiencies>  (83) 
[-0.34833333333333333]

>  <Interactions>  (83) 
["V-A:ILE:538:CD1:4865, V-A:TYR:539:C:4867, V-A:TYR:539:CE1:4875, V-A:TYR:531:CE2:4793, V-A:PRO:540:CB:4885, V-A:PRO:540:CA:4883, V-A:PRO:540:N:4884, V-A:LEU:363:CD1:3189, V-B:LEU:475:CD1:9229, V-A:ALA:541:CB:4892, V-A:TYR:539:CG:4872, V-A:ASP:366:CB:3212, V-A:TYR:539:CD1:4873, V-A:PRO:540:C:4881, V-A:ILE:538:CA:4860, V-A:LEU:363:CB:3187, V-A:LEU:363:CA:3185"]

$$$$
RR5_Rahimova_2017
     RDKit          3D

 45 50  0  0  0  0  0  0  0  0999 V2000
  127.2400  132.3350   63.0800 O   0  0  0  0  0  0  0  0  0  0  0  0
  127.1500  131.1880   62.6450 C   0  0  0  0  0  0  0  0  0  0  0  0
  126.9570  130.0140   63.6240 C   0  0  0  0  0  0  0  0  0  0  0  0
  125.6690  129.1590   63.3490 C   0  0  2  0  0  0  0  0  0  0  0  0
  125.6650  128.4330   62.0630 N   0  0  0  0  0  0  0  0  0  0  0  0
  126.8350  127.9330   61.5070 C   0  0  0  0  0  0  0  0  0  0  0  0
  127.9640  127.9790   62.0010 O   0  0  0  0  0  0  0  0  0  0  0  0
  126.5380  127.3920   60.3120 O   0  0  0  0  0  0  0  0  0  0  0  0
  126.2320  126.0070   60.1790 C   0  0  0  0  0  0  0  0  0  0  0  0
  127.3060  125.2870   59.3340 C   0  0  0  0  0  0  0  0  0  0  0  0
  127.9670  124.1240   60.0510 C   0  0  0  0  0  0  0  0  0  0  0  0
  128.6680  124.1070   61.2600 C   0  0  0  0  0  0  0  0  0  0  0  0
  129.1790  122.9040   61.7510 C   0  0  0  0  0  0  0  0  0  0  0  0
  128.9930  121.7200   61.0370 C   0  0  0  0  0  0  0  0  0  0  0  0
  128.2940  121.7340   59.8280 C   0  0  0  0  0  0  0  0  0  0  0  0
  127.7850  122.9380   59.3380 C   0  0  0  0  0  0  0  0  0  0  0  0
  127.0310  123.2430   58.1120 C   0  0  0  0  0  0  0  0  0  0  0  0
  126.6070  122.4210   57.0650 C   0  0  0  0  0  0  0  0  0  0  0  0
  125.9150  122.9760   55.9890 C   0  0  0  0  0  0  0  0  0  0  0  0
  125.6460  124.3470   55.9600 C   0  0  0  0  0  0  0  0  0  0  0  0
  126.0680  125.1630   57.0090 C   0  0  0  0  0  0  0  0  0  0  0  0
  126.7590  124.6110   58.0910 C   0  0  0  0  0  0  0  0  0  0  0  0
  124.3950  130.0330   63.4580 C   0  0  0  0  0  0  0  0  0  0  0  0
  124.0190  130.5840   64.4730 O   0  0  0  0  0  0  0  0  0  0  0  0
  123.7790  130.1010   62.2420 O   0  0  0  0  0  0  0  0  0  0  0  0
  127.1760  130.8550   61.3350 N   0  0  0  0  0  0  0  0  0  0  0  0
  127.3350  131.6450   60.0770 C   0  0  0  0  0  0  0  0  0  0  0  0
  126.9100  133.0800   60.5370 C   0  0  0  0  0  0  0  0  0  0  0  0
  125.5570  133.4430   60.6510 C   0  0  0  0  0  0  0  0  0  0  0  0
  125.1910  134.7220   61.0620 C   0  0  0  0  0  0  0  0  0  0  0  0
  126.1710  135.6630   61.3550 C   0  0  0  0  0  0  0  0  0  0  0  0
  127.5170  135.3320   61.2520 C   0  0  0  0  0  0  0  0  0  0  0  0
  127.8830  134.0500   60.8520 C   0  0  0  0  0  0  0  0  0  0  0  0
  128.8430  131.5670   59.6640 C   0  0  0  0  0  0  0  0  0  0  0  0
  129.3100  132.1270   58.4640 C   0  0  0  0  0  0  0  0  0  0  0  0
  130.6530  132.0290   58.1070 C   0  0  0  0  0  0  0  0  0  0  0  0
  131.5450  131.3680   58.9450 C   0  0  0  0  0  0  0  0  0  0  0  0
  131.1080  130.8090   60.1410 C   0  0  0  0  0  0  0  0  0  0  0  0
  129.7680  130.9160   60.5000 C   0  0  0  0  0  0  0  0  0  0  0  0
  126.3420  131.0180   59.0420 C   0  0  0  0  0  0  0  0  0  0  0  0
  124.9590  130.9790   59.2970 C   0  0  0  0  0  0  0  0  0  0  0  0
  124.0720  130.4160   58.3840 C   0  0  0  0  0  0  0  0  0  0  0  0
  124.5520  129.8860   57.1930 C   0  0  0  0  0  0  0  0  0  0  0  0
  125.9110  129.9230   56.9050 C   0  0  0  0  0  0  0  0  0  0  0  0
  126.7950  130.4870   57.8210 C   0  0  0  0  0  0  0  0  0  0  0  0
  1  2  2  0
  2  3  1  0
  4  3  1  6
  4  5  1  0
  5  6  1  0
  6  7  2  0
  6  8  1  0
  8  9  1  0
  9 10  1  0
 10 11  1  0
 11 12  2  0
 12 13  1  0
 13 14  2  0
 14 15  1  0
 15 16  2  0
 16 17  1  0
 17 18  2  0
 18 19  1  0
 19 20  2  0
 20 21  1  0
 21 22  2  0
  4 23  1  0
 23 24  2  0
 23 25  1  0
  2 26  1  0
 26 27  1  0
 27 28  1  0
 28 29  2  0
 29 30  1  0
 30 31  2  0
 31 32  1  0
 32 33  2  0
 27 34  1  0
 34 35  2  0
 35 36  1  0
 36 37  2  0
 37 38  1  0
 38 39  2  0
 27 40  1  0
 40 41  2  0
 41 42  1  0
 42 43  2  0
 43 44  1  0
 44 45  2  0
 22 10  1  0
 33 28  1  0
 39 34  1  0
 45 40  1  0
 16 11  1  0
 22 17  1  0
M  END
>  <Binding energies>  (84) 
[-10.16]

>  <Ligand effiencies>  (84) 
[-0.21166666666666667]

>  <Interactions>  (84) 
["V-B:GLU:543:CD:9880, V-A:TYR:539:CD2:4874, V-A:TYR:539:C:4867, V-A:TYR:539:CZ:4877, V-A:PRO:540:CB:4885, V-B:PRO:482:CG:9298, V-A:PRO:540:CA:4883, V-A:PRO:540:N:4884, V-B:TRP:381:CH2:8343, V-A:TYR:539:CE2:4876, V-B:LEU:475:CD1:9229, V-A:ALA:541:CB:4892, V-B:PRO:482:CB:9297, V-B:TRP:381:CZ2:8341, V-B:ILE:538:CB:9834, V-B:ALA:541:CB:9864, V-B:PRO:540:C:9853, V-B:TYR:539:C:9839, V-B:PRO:540:CA:9855, V-B:PRO:540:CB:9857, V-B:PRO:540:CD:9859, V-B:PRO:540:N:9856, V-B:TYR:539:CD2:9846, V-B:ILE:538:CG2:9835, V-B:TYR:539:CE2:9848, V-B:ASP:366:CG:8184, V-B:TYR:531:CZ:9766, V-B:ASP:366:CB:8183, H-B:ASP:366:OD1:8185, H-B:TYR:484:OH:9319, H-B:ARG:545:NH2:9900, V-B:ARG:545:CZ:9898, H-B:GLY:454:N:9021, V-B:ASP:366:CA:8181, H-B:ASP:366:OD2:8186"]

$$$$
