1a_Ghoteimi_2023
     RDKit          3D

 40 43  0  0  0  0  0  0  0  0999 V2000
  124.9130  123.6480   57.2610 C   0  0  0  0  0  0  0  0  0  0  0  0
  125.5200  122.4360   56.5460 C   0  0  0  0  0  0  0  0  0  0  0  0
  126.7190  122.0510   57.2070 O   0  0  0  0  0  0  0  0  0  0  0  0
  127.6870  122.9610   57.4910 C   0  0  0  0  0  0  0  0  0  0  0  0
  128.2080  123.6890   56.6400 O   0  0  0  0  0  0  0  0  0  0  0  0
  128.0560  122.9980   58.9460 C   0  0  0  0  0  0  0  0  0  0  0  0
  128.4940  121.8530   59.6290 C   0  0  0  0  0  0  0  0  0  0  0  0
  128.8270  121.9170   60.9800 C   0  0  0  0  0  0  0  0  0  0  0  0
  128.7310  123.1340   61.6730 C   0  0  0  0  0  0  0  0  0  0  0  0
  129.0370  123.3120   63.0360 N   0  0  0  0  0  0  0  0  0  0  0  0
  129.6920  122.4950   63.8890 C   0  0  0  0  0  0  0  0  0  0  0  0
  130.1750  121.4000   63.6040 O   0  0  0  0  0  0  0  0  0  0  0  0
  129.8290  123.0150   65.3200 C   0  0  0  0  0  0  0  0  0  0  0  0
  130.6350  124.6420   65.3710 S   0  0  0  0  0  0  0  0  0  0  0  0
  129.5060  125.7280   66.2120 C   0  0  0  0  0  0  0  0  0  0  0  0
  129.5250  125.6030   67.5610 N   0  0  0  0  0  0  0  0  0  0  0  0
  128.7120  126.3800   68.3230 C   0  0  0  0  0  0  0  0  0  0  0  0
  128.8060  126.1960   69.8100 C   0  0  0  0  0  0  0  0  0  0  0  0
  128.3150  127.1670   70.6980 C   0  0  0  0  0  0  0  0  0  0  0  0
  128.4040  126.9940   72.0760 C   0  0  0  0  0  0  0  0  0  0  0  0
  128.9860  125.8470   72.6110 C   0  0  0  0  0  0  0  0  0  0  0  0
  129.0290  125.7580   73.9890 O   0  0  0  0  0  0  0  0  0  0  0  0
  130.2920  125.7270   74.6430 C   0  0  0  0  0  0  0  0  0  0  0  0
  129.4850  124.8710   71.7380 C   0  0  0  0  0  0  0  0  0  0  0  0
  129.3950  125.0480   70.3600 C   0  0  0  0  0  0  0  0  0  0  0  0
  127.8520  127.3100   67.7260 C   0  0  0  0  0  0  0  0  0  0  0  0
  127.7960  127.4400   66.3320 C   0  0  0  0  0  0  0  0  0  0  0  0
  126.8320  128.4300   65.7650 C   0  0  0  0  0  0  0  0  0  0  0  0
  125.5270  128.5270   66.2610 C   0  0  0  0  0  0  0  0  0  0  0  0
  124.6390  129.4620   65.7360 C   0  0  0  0  0  0  0  0  0  0  0  0
  125.0380  130.3230   64.7140 C   0  0  0  0  0  0  0  0  0  0  0  0
  124.0900  131.2180   64.2580 O   0  0  0  0  0  0  0  0  0  0  0  0
  123.8820  131.3540   62.8560 C   0  0  0  0  0  0  0  0  0  0  0  0
  126.3480  130.2340   64.2190 C   0  0  0  0  0  0  0  0  0  0  0  0
  127.2340  129.2970   64.7440 C   0  0  0  0  0  0  0  0  0  0  0  0
  128.6500  126.6300   65.5450 C   0  0  0  0  0  0  0  0  0  0  0  0
  128.6480  126.7330   64.0820 C   0  0  0  0  0  0  0  0  0  0  0  0
  128.6460  126.8140   62.9280 N   0  0  0  0  0  0  0  0  0  0  0  0
  128.2920  124.2720   60.9970 C   0  0  0  0  0  0  0  0  0  0  0  0
  127.9600  124.2070   59.6460 C   0  0  0  0  0  0  0  0  0  0  0  0
  1  2  1  0
  2  3  1  0
  3  4  1  0
  4  5  2  0
  4  6  1  0
  6  7  2  0
  7  8  1  0
  8  9  2  0
  9 10  1  0
 10 11  1  0
 11 12  2  0
 11 13  1  0
 13 14  1  0
 14 15  1  0
 15 16  2  0
 16 17  1  0
 17 18  1  0
 18 19  2  0
 19 20  1  0
 20 21  2  0
 21 22  1  0
 22 23  1  0
 21 24  1  0
 24 25  2  0
 17 26  2  0
 26 27  1  0
 27 28  1  0
 28 29  2  0
 29 30  1  0
 30 31  2  0
 31 32  1  0
 32 33  1  0
 31 34  1  0
 34 35  2  0
 27 36  2  0
 36 37  1  0
 37 38  3  0
  9 39  1  0
 39 40  2  0
 40  6  1  0
 36 15  1  0
 25 18  1  0
 35 28  1  0
M  END
>  <Binding energies>  (1) 
[-10.06]

>  <Ligand effiencies>  (1) 
[-0.2453658536585366]

>  <Interactions>  (1) 
["H-B:LYS:547:NZ:9923, V-B:GLU:543:CB:9878, V-B:HIS:456:CE1:9040, V-A:HIS:456:CD2:4068, H-A:HIS:456:NE2:4070, V-B:GLU:543:CD:9880, V-B:ILE:538:CB:9834, V-B:ALA:541:CB:9864, V-B:TYR:539:C:9839, V-B:PRO:540:CA:9855, V-B:PRO:540:CB:9857, V-B:PRO:540:CD:9859, V-B:GLU:543:CG:9879, V-A:TYR:484:CE1:4345, H-B:TYR:539:N:9842, V-B:PRO:540:N:9856, V-B:TYR:539:CD2:9846, V-B:LEU:363:CD1:8160, V-B:ILE:538:CG2:9835, V-A:TYR:484:CZ:4347, V-B:TYR:539:CE2:9848, V-B:TYR:539:CZ:9849, V-B:ARG:545:CG:9894, H-A:TYR:484:OH:4348, V-A:HIS:456:CE1:4069, H-B:TYR:484:OH:9319, V-B:ARG:545:CZ:9898, H-B:GLY:454:N:9021, V-B:GLY:454:CA:9020, V-B:ARG:545:CD:9895, H-B:TYR:539:OH:9850, V-B:GLU:543:CA:9876, H-B:GLU:543:OE2:9882"]

$$$$
1b_Ghoteimi_2023
     RDKit          3D

 34 37  0  0  0  0  0  0  0  0999 V2000
  134.1060  124.3110   62.3770 C   0  0  0  0  0  0  0  0  0  0  0  0
  133.7220  124.2750   63.7470 O   0  0  0  0  0  0  0  0  0  0  0  0
  132.5530  124.9010   64.1350 C   0  0  0  0  0  0  0  0  0  0  0  0
  132.4060  125.1600   65.4960 C   0  0  0  0  0  0  0  0  0  0  0  0
  131.2610  125.7860   65.9800 C   0  0  0  0  0  0  0  0  0  0  0  0
  130.2270  126.1760   65.1150 C   0  0  0  0  0  0  0  0  0  0  0  0
  128.9910  126.8500   65.6410 C   0  0  0  0  0  0  0  0  0  0  0  0
  128.3650  127.9130   64.9830 C   0  0  0  0  0  0  0  0  0  0  0  0
  127.2120  128.5040   65.5140 C   0  0  0  0  0  0  0  0  0  0  0  0
  126.6000  129.6390   64.7600 C   0  0  0  0  0  0  0  0  0  0  0  0
  125.2830  129.5510   64.3000 C   0  0  0  0  0  0  0  0  0  0  0  0
  124.7100  130.6030   63.5890 C   0  0  0  0  0  0  0  0  0  0  0  0
  125.4440  131.7590   63.3200 C   0  0  0  0  0  0  0  0  0  0  0  0
  124.7950  132.7490   62.6080 O   0  0  0  0  0  0  0  0  0  0  0  0
  124.3020  132.4580   61.3050 C   0  0  0  0  0  0  0  0  0  0  0  0
  126.7690  131.8470   63.7720 C   0  0  0  0  0  0  0  0  0  0  0  0
  127.3380  130.7940   64.4820 C   0  0  0  0  0  0  0  0  0  0  0  0
  126.6890  127.9920   66.7270 C   0  0  0  0  0  0  0  0  0  0  0  0
  125.4320  128.5110   67.2740 C   0  0  0  0  0  0  0  0  0  0  0  0
  124.4390  128.9220   67.7050 N   0  0  0  0  0  0  0  0  0  0  0  0
  127.3810  126.9300   67.3510 C   0  0  0  0  0  0  0  0  0  0  0  0
  126.8760  126.1680   68.8790 S   0  0  0  0  0  0  0  0  0  0  0  0
  127.9190  126.8430   70.2150 C   0  0  0  0  0  0  0  0  0  0  0  0
  128.3950  125.8140   71.2510 C   0  0  0  0  0  0  0  0  0  0  0  0
  128.2410  126.0180   72.4570 O   0  0  0  0  0  0  0  0  0  0  0  0
  128.9760  124.7130   70.7250 N   0  0  0  0  0  0  0  0  0  0  0  0
  129.4960  123.6250   71.4160 C   0  0  0  0  0  0  0  0  0  0  0  0
  130.7300  123.6530   72.0640 C   0  0  0  0  0  0  0  0  0  0  0  0
  130.8730  122.4010   72.6170 C   0  0  0  0  0  0  0  0  0  0  0  0
  129.7790  121.6580   72.3200 O   0  0  0  0  0  0  0  0  0  0  0  0
  128.9140  122.4450   71.5590 N   0  0  0  0  0  0  0  0  0  0  0  0
  128.4870  126.3680   66.8070 N   0  0  0  0  0  0  0  0  0  0  0  0
  130.3850  125.9080   63.7460 C   0  0  0  0  0  0  0  0  0  0  0  0
  131.5280  125.2810   63.2580 C   0  0  0  0  0  0  0  0  0  0  0  0
  1  2  1  0
  2  3  1  0
  3  4  2  0
  4  5  1  0
  5  6  2  0
  6  7  1  0
  7  8  2  0
  8  9  1  0
  9 10  1  0
 10 11  2  0
 11 12  1  0
 12 13  2  0
 13 14  1  0
 14 15  1  0
 13 16  1  0
 16 17  2  0
  9 18  2  0
 18 19  1  0
 19 20  3  0
 18 21  1  0
 21 22  1  0
 22 23  1  0
 23 24  1  0
 24 25  2  0
 24 26  1  0
 26 27  1  0
 27 28  1  0
 28 29  2  0
 29 30  1  0
 30 31  1  0
 21 32  2  0
  6 33  1  0
 33 34  2  0
 34  3  1  0
 32  7  1  0
 17 10  1  0
 31 27  2  0
M  END
>  <Binding energies>  (2) 
[-9.96]

>  <Ligand effiencies>  (2) 
[-0.2845714285714286]

>  <Interactions>  (2) 
["H-B:LYS:547:NZ:9923, V-B:GLU:543:CB:9878, V-B:HIS:456:CE1:9040, V-B:GLY:544:C:9884, V-A:HIS:456:CD2:4068, V-A:GLU:543:CD:4908, V-B:LEU:475:CD1:9229, V-B:ILE:369:CD1:8210, V-B:GLU:543:C:9874, V-A:HIS:456:CB:4065, V-A:ASP:366:CG:3213, V-A:TYR:484:CD1:4343, V-A:TYR:484:CG:4342, V-A:HIS:456:CG:4066, H-B:GLU:543:O:9875, V-A:TYR:484:CB:4341, V-A:TYR:484:CD2:4344, V-B:ARG:545:CG:9894, V-A:TYR:484:CE2:4346, V-A:ARG:545:CZ:4926, H-A:GLY:454:N:4050, V-A:HIS:456:CE1:4069, H-B:TYR:484:OH:9319, V-B:ARG:545:CZ:9898, H-B:ARG:545:NE:9896, V-B:ARG:545:CD:9895, V-A:ASP:473:CB:4239, H-B:ARG:545:N:9892"]

$$$$
1c_Ghoteimi_2023
     RDKit          3D

 34 37  0  0  0  0  0  0  0  0999 V2000
  127.3260  126.6670   74.6990 C   0  0  0  0  0  0  0  0  0  0  0  0
  128.2720  125.8110   74.0680 O   0  0  0  0  0  0  0  0  0  0  0  0
  128.4850  125.9270   72.7080 C   0  0  0  0  0  0  0  0  0  0  0  0
  127.8920  127.0140   72.0720 C   0  0  0  0  0  0  0  0  0  0  0  0
  128.0520  127.2070   70.7020 C   0  0  0  0  0  0  0  0  0  0  0  0
  128.8110  126.3160   69.9270 C   0  0  0  0  0  0  0  0  0  0  0  0
  128.9820  126.5180   68.4490 C   0  0  0  0  0  0  0  0  0  0  0  0
  129.7110  125.6350   67.6450 C   0  0  0  0  0  0  0  0  0  0  0  0
  129.8200  125.8510   66.2660 C   0  0  0  0  0  0  0  0  0  0  0  0
  130.5560  124.8330   65.4590 C   0  0  0  0  0  0  0  0  0  0  0  0
  131.8800  125.0550   65.0710 C   0  0  0  0  0  0  0  0  0  0  0  0
  132.5580  124.1150   64.3010 C   0  0  0  0  0  0  0  0  0  0  0  0
  131.9250  122.9390   63.9000 C   0  0  0  0  0  0  0  0  0  0  0  0
  132.6740  122.0630   63.1370 O   0  0  0  0  0  0  0  0  0  0  0  0
  133.7310  122.5740   62.3320 C   0  0  0  0  0  0  0  0  0  0  0  0
  130.5930  122.7150   64.2820 C   0  0  0  0  0  0  0  0  0  0  0  0
  129.9170  123.6570   65.0520 C   0  0  0  0  0  0  0  0  0  0  0  0
  129.2010  126.9960   65.7120 C   0  0  0  0  0  0  0  0  0  0  0  0
  129.3070  127.2960   64.2800 C   0  0  0  0  0  0  0  0  0  0  0  0
  129.3910  127.5310   63.1500 N   0  0  0  0  0  0  0  0  0  0  0  0
  128.4670  127.8340   66.5770 C   0  0  0  0  0  0  0  0  0  0  0  0
  127.5010  129.2100   65.9930 S   0  0  0  0  0  0  0  0  0  0  0  0
  125.8180  128.8950   66.6170 C   0  0  0  0  0  0  0  0  0  0  0  0
  124.7440  129.5390   65.7330 C   0  0  0  0  0  0  0  0  0  0  0  0
  123.7100  129.9680   66.2470 O   0  0  0  0  0  0  0  0  0  0  0  0
  125.0530  129.6220   64.4200 N   0  0  0  0  0  0  0  0  0  0  0  0
  124.3340  130.2900   63.4410 C   0  0  0  0  0  0  0  0  0  0  0  0
  123.0370  130.2540   63.2260 N   0  0  0  0  0  0  0  0  0  0  0  0
  122.6900  131.0480   62.2310 C   0  0  0  0  0  0  0  0  0  0  0  0
  123.7210  131.7520   61.6170 C   0  0  0  0  0  0  0  0  0  0  0  0
  125.2240  131.3430   62.3890 S   0  0  0  0  0  0  0  0  0  0  0  0
  128.3550  127.5940   67.9060 N   0  0  0  0  0  0  0  0  0  0  0  0
  129.4090  125.2280   70.5800 C   0  0  0  0  0  0  0  0  0  0  0  0
  129.2500  125.0300   71.9480 C   0  0  0  0  0  0  0  0  0  0  0  0
  1  2  1  0
  2  3  1  0
  3  4  2  0
  4  5  1  0
  5  6  2  0
  6  7  1  0
  7  8  2  0
  8  9  1  0
  9 10  1  0
 10 11  2  0
 11 12  1  0
 12 13  2  0
 13 14  1  0
 14 15  1  0
 13 16  1  0
 16 17  2  0
  9 18  2  0
 18 19  1  0
 19 20  3  0
 18 21  1  0
 21 22  1  0
 22 23  1  0
 23 24  1  0
 24 25  2  0
 24 26  1  0
 26 27  1  0
 27 28  2  0
 28 29  1  0
 29 30  2  0
 30 31  1  0
 21 32  2  0
  6 33  1  0
 33 34  2  0
 34  3  1  0
 32  7  1  0
 17 10  1  0
 31 27  1  0
M  END
>  <Binding energies>  (3) 
[-9.41]

>  <Ligand effiencies>  (3) 
[-0.26885714285714285]

>  <Interactions>  (3) 
["H-B:LYS:547:NZ:9923, V-B:GLU:543:CB:9878, V-B:HIS:456:CE1:9040, V-A:HIS:456:CD2:4068, V-A:GLU:543:CD:4908, V-B:ILE:369:CD1:8210, V-B:GLU:543:CG:9879, V-A:TYR:484:CE1:4345, V-A:LEU:475:CD1:4258, V-B:LYS:547:CD:9921, V-B:HIS:456:CD2:9039, V-B:ASP:366:CG:8184, V-A:ILE:369:CD1:3239, V-B:ARG:545:CG:9894, V-A:GLY:454:CA:4049, V-A:HIS:456:CE1:4069, V-B:GLY:453:CA:9015, H-B:ARG:545:NH1:9899, H-B:TYR:484:OH:9319, H-B:ARG:545:NH2:9900, V-B:ARG:545:CZ:9898, H-B:GLY:454:N:9021, H-B:ILE:455:N:9026, H-B:ARG:545:NE:9896, V-B:GLY:453:C:9013, V-B:ARG:545:CD:9895, H-B:GLU:543:OE1:9881"]

$$$$
1d_Ghoteimi_2023
     RDKit          3D

 30 32  0  0  0  0  0  0  0  0999 V2000
  133.3690  124.9420   63.0930 C   0  0  0  0  0  0  0  0  0  0  0  0
  133.5070  124.1880   64.2880 O   0  0  0  0  0  0  0  0  0  0  0  0
  133.6570  124.8090   65.4760 C   0  0  0  0  0  0  0  0  0  0  0  0
  134.5800  124.6400   66.2750 O   0  0  0  0  0  0  0  0  0  0  0  0
  132.5230  125.7880   65.7670 C   0  0  0  0  0  0  0  0  0  0  0  0
  130.9600  124.8670   65.6420 S   0  0  0  0  0  0  0  0  0  0  0  0
  129.7000  125.8750   66.3910 C   0  0  0  0  0  0  0  0  0  0  0  0
  129.6280  125.7470   67.7380 N   0  0  0  0  0  0  0  0  0  0  0  0
  128.7060  126.4570   68.4370 C   0  0  0  0  0  0  0  0  0  0  0  0
  128.6960  126.2610   69.9260 C   0  0  0  0  0  0  0  0  0  0  0  0
  127.9820  127.1270   70.7700 C   0  0  0  0  0  0  0  0  0  0  0  0
  127.9790  126.9480   72.1490 C   0  0  0  0  0  0  0  0  0  0  0  0
  128.6900  125.9010   72.7300 C   0  0  0  0  0  0  0  0  0  0  0  0
  128.6330  125.8020   74.1070 O   0  0  0  0  0  0  0  0  0  0  0  0
  127.9160  126.7870   74.8440 C   0  0  0  0  0  0  0  0  0  0  0  0
  129.4080  125.0280   71.9020 C   0  0  0  0  0  0  0  0  0  0  0  0
  129.4080  125.2100   70.5210 C   0  0  0  0  0  0  0  0  0  0  0  0
  127.8330  127.3320   67.7810 C   0  0  0  0  0  0  0  0  0  0  0  0
  127.8750  127.4730   66.3890 C   0  0  0  0  0  0  0  0  0  0  0  0
  126.9090  128.4190   65.7520 C   0  0  0  0  0  0  0  0  0  0  0  0
  125.6050  128.5290   66.2440 C   0  0  0  0  0  0  0  0  0  0  0  0
  124.6990  129.4090   65.6560 C   0  0  0  0  0  0  0  0  0  0  0  0
  125.0800  130.1980   64.5720 C   0  0  0  0  0  0  0  0  0  0  0  0
  124.1140  131.0370   64.0490 O   0  0  0  0  0  0  0  0  0  0  0  0
  123.7220  130.8820   62.6890 C   0  0  0  0  0  0  0  0  0  0  0  0
  126.3920  130.1010   64.0830 C   0  0  0  0  0  0  0  0  0  0  0  0
  127.2950  129.2220   64.6730 C   0  0  0  0  0  0  0  0  0  0  0  0
  128.8220  126.7090   65.6620 C   0  0  0  0  0  0  0  0  0  0  0  0
  128.8410  126.7380   64.1970 C   0  0  0  0  0  0  0  0  0  0  0  0
  128.8550  126.7620   63.0400 N   0  0  0  0  0  0  0  0  0  0  0  0
  1  2  1  0
  2  3  1  0
  3  4  2  0
  3  5  1  0
  5  6  1  0
  6  7  1  0
  7  8  2  0
  8  9  1  0
  9 10  1  0
 10 11  2  0
 11 12  1  0
 12 13  2  0
 13 14  1  0
 14 15  1  0
 13 16  1  0
 16 17  2  0
  9 18  2  0
 18 19  1  0
 19 20  1  0
 20 21  2  0
 21 22  1  0
 22 23  2  0
 23 24  1  0
 24 25  1  0
 23 26  1  0
 26 27  2  0
 19 28  2  0
 28 29  1  0
 29 30  3  0
 28  7  1  0
 17 10  1  0
 27 20  1  0
M  END
>  <Binding energies>  (4) 
[-8.67]

>  <Ligand effiencies>  (4) 
[-0.289]

>  <Interactions>  (4) 
["H-B:LYS:547:NZ:9923, V-B:GLU:543:CB:9878, V-B:HIS:456:CE1:9040, V-A:HIS:456:CD2:4068, H-A:HIS:456:NE2:4070, V-A:GLU:543:CD:4908, V-B:GLU:543:CD:9880, V-B:ARG:545:CG:9894, V-A:ARG:545:CZ:4926, H-A:GLY:454:N:4050, H-A:TYR:484:OH:4348, V-A:HIS:456:CE1:4069, H-B:TYR:484:OH:9319, V-B:ARG:545:CZ:9898, H-B:GLY:454:N:9021, V-B:ARG:545:CD:9895, H-A:ILE:455:N:4055"]

$$$$
1j_Grossjean_2025
     RDKit          3D

 20 21  0  0  0  0  0  0  0  0999 V2000
  126.7880  129.5690   57.3250 C   0  0  0  0  0  0  0  0  0  0  0  0
  127.9420  130.3690   56.7500 C   0  0  0  0  0  0  0  0  0  0  0  0
  127.9090  130.8620   55.4470 C   0  0  0  0  0  0  0  0  0  0  0  0
  128.9960  131.6040   54.9750 C   0  0  0  0  0  0  0  0  0  0  0  0
  128.9300  132.1500   53.5490 C   0  0  0  0  0  0  0  0  0  0  0  0
  130.1020  131.8280   55.8260 C   0  0  0  0  0  0  0  0  0  0  0  0
  131.2290  132.6470   55.3690 C   0  0  0  0  0  0  0  0  0  0  0  0
  132.1160  133.2950   55.0060 N   0  0  0  0  0  0  0  0  0  0  0  0
  130.0610  131.2670   57.1240 C   0  0  0  0  0  0  0  0  0  0  0  0
  131.3640  131.4460   58.3230 S   0  0  0  0  0  0  0  0  0  0  0  0
  130.7470  130.8070   59.9090 C   0  0  0  0  0  0  0  0  0  0  0  0
  129.9230  131.8500   60.6670 C   0  0  0  0  0  0  0  0  0  0  0  0
  130.2500  132.1620   61.8120 O   0  0  0  0  0  0  0  0  0  0  0  0
  128.8710  132.3620   59.9930 N   0  0  0  0  0  0  0  0  0  0  0  0
  127.9710  133.3110   60.4600 C   0  0  0  0  0  0  0  0  0  0  0  0
  128.2400  134.4660   61.0310 N   0  0  0  0  0  0  0  0  0  0  0  0
  127.1390  135.1160   61.3480 C   0  0  0  0  0  0  0  0  0  0  0  0
  125.9380  134.4870   61.0310 C   0  0  0  0  0  0  0  0  0  0  0  0
  126.2830  132.9600   60.2760 S   0  0  0  0  0  0  0  0  0  0  0  0
  128.9920  130.5670   57.5800 N   0  0  0  0  0  0  0  0  0  0  0  0
  1  2  1  0
  2  3  2  0
  3  4  1  0
  4  5  1  0
  4  6  2  0
  6  7  1  0
  7  8  3  0
  6  9  1  0
  9 10  1  0
 10 11  1  0
 11 12  1  0
 12 13  2  0
 12 14  1  0
 14 15  1  0
 15 16  2  0
 16 17  1  0
 17 18  2  0
 18 19  1  0
  9 20  2  0
 20  2  1  0
 19 15  1  0
M  END
>  <Binding energies>  (5) 
[-6.08]

>  <Ligand effiencies>  (5) 
[-0.2895238095238095]

>  <Interactions>  (5) 
["V-A:TYR:539:CD2:4874, V-A:TYR:539:CZ:4877, H-A:TYR:539:N:4870, V-A:PRO:540:CD:4887, V-A:TYR:539:CE1:4875, V-B:PRO:482:CG:9298, V-A:PRO:540:CA:4883, V-B:TRP:381:CH2:8343, V-A:TYR:539:CE2:4876, V-B:LEU:475:CD1:9229, V-A:ALA:541:CB:4892, V-A:TYR:539:CD1:4873, V-A:ILE:538:CA:4860, H-A:TYR:539:O:4868, H-A:ALA:541:N:4891"]

$$$$
1o_Grossjean_2025
     RDKit          3D

 26 27  0  0  0  0  0  0  0  0999 V2000
  129.3670  132.6560   57.7480 C   0  0  0  0  0  0  0  0  0  0  0  0
  129.7210  133.2940   56.5290 O   0  0  0  0  0  0  0  0  0  0  0  0
  130.3640  132.6130   55.5450 C   0  0  0  0  0  0  0  0  0  0  0  0
  131.3490  133.0530   54.9460 O   0  0  0  0  0  0  0  0  0  0  0  0
  129.7580  131.2690   55.2590 C   0  0  0  0  0  0  0  0  0  0  0  0
  130.0960  130.1290   56.0030 C   0  0  0  0  0  0  0  0  0  0  0  0
  129.5140  128.8980   55.7140 C   0  0  0  0  0  0  0  0  0  0  0  0
  128.5890  128.7790   54.6760 C   0  0  0  0  0  0  0  0  0  0  0  0
  128.0560  127.4900   54.4750 N   0  0  0  0  0  0  0  0  0  0  0  0
  128.6890  126.3130   54.2780 C   0  0  0  0  0  0  0  0  0  0  0  0
  129.9100  126.1540   54.2830 O   0  0  0  0  0  0  0  0  0  0  0  0
  127.7740  125.0980   54.0630 C   0  0  0  0  0  0  0  0  0  0  0  0
  128.4960  123.7490   54.2470 C   0  0  0  0  0  0  0  0  0  0  0  0
  127.4340  122.4260   54.9000 S   0  0  0  0  0  0  0  0  0  0  0  0
  126.9290  122.8710   56.5490 C   0  0  0  0  0  0  0  0  0  0  0  0
  127.7830  122.4390   57.5110 N   0  0  0  0  0  0  0  0  0  0  0  0
  127.5070  122.7270   58.8050 C   0  0  0  0  0  0  0  0  0  0  0  0
  128.5150  122.2240   59.8220 C   0  0  0  0  0  0  0  0  0  0  0  0
  126.3730  123.4370   59.1910 C   0  0  0  0  0  0  0  0  0  0  0  0
  125.4720  123.8640   58.2100 C   0  0  0  0  0  0  0  0  0  0  0  0
  124.2280  124.6290   58.6610 C   0  0  0  0  0  0  0  0  0  0  0  0
  125.7370  123.5730   56.8530 C   0  0  0  0  0  0  0  0  0  0  0  0
  124.7760  123.9610   55.8180 C   0  0  0  0  0  0  0  0  0  0  0  0
  124.0150  124.2690   55.0020 N   0  0  0  0  0  0  0  0  0  0  0  0
  128.2420  129.9160   53.9310 C   0  0  0  0  0  0  0  0  0  0  0  0
  128.8240  131.1460   54.2220 C   0  0  0  0  0  0  0  0  0  0  0  0
  1  2  1  0
  2  3  1  0
  3  4  2  0
  3  5  1  0
  5  6  2  0
  6  7  1  0
  7  8  2  0
  8  9  1  0
  9 10  1  0
 10 11  2  0
 10 12  1  0
 12 13  1  0
 13 14  1  0
 14 15  1  0
 15 16  2  0
 16 17  1  0
 17 18  1  0
 17 19  2  0
 19 20  1  0
 20 21  1  0
 20 22  2  0
 22 23  1  0
 23 24  3  0
  8 25  1  0
 25 26  2  0
 26  5  1  0
 22 15  1  0
M  END
>  <Binding energies>  (6) 
[-8.55]

>  <Ligand effiencies>  (6) 
[-0.3166666666666667]

>  <Interactions>  (6) 
["V-A:TYR:539:CD2:4874, V-A:TYR:539:C:4867, H-A:TYR:539:N:4870, V-A:TYR:539:CE1:4875, V-A:PRO:540:CA:4883, V-A:PRO:540:N:4884, V-A:TYR:539:CE2:4876, V-B:TYR:539:C:9839, V-B:PRO:540:CA:9855, V-B:PRO:540:CB:9857, H-B:TYR:539:N:9842, V-B:PRO:540:N:9856, V-B:TYR:539:CD2:9846, V-B:LEU:363:CD1:8160, V-B:ILE:538:CG2:9835, V-B:TYR:539:CE2:9848, V-A:TYR:539:CG:4872, V-A:TYR:539:CD1:4873, V-B:TYR:539:CE1:9847, V-B:ASP:366:CG:8184, V-B:TYR:531:CE2:9765, V-B:TYR:539:CZ:9849, V-B:TYR:539:CD1:9845, V-B:MET:535:CG:9805, H-A:TYR:531:OH:4795, H-B:TYR:539:OH:9850, V-A:MET:535:CE:4835, H-B:TYR:531:OH:9767, H-B:MET:535:SD:9806"]

$$$$
1p_Grossjean_2025
     RDKit          3D

 21 22  0  0  0  0  0  0  0  0999 V2000
  130.5000  126.0050   66.2250 C   0  0  0  0  0  0  0  0  0  0  0  0
  129.1880  126.7610   66.3180 C   0  0  0  0  0  0  0  0  0  0  0  0
  128.8460  127.7430   65.3900 C   0  0  0  0  0  0  0  0  0  0  0  0
  127.6280  128.4180   65.5320 C   0  0  0  0  0  0  0  0  0  0  0  0
  127.2810  129.5010   64.5130 C   0  0  0  0  0  0  0  0  0  0  0  0
  126.7730  128.0810   66.6060 C   0  0  0  0  0  0  0  0  0  0  0  0
  125.5160  128.8050   66.8040 C   0  0  0  0  0  0  0  0  0  0  0  0
  124.5230  129.3790   66.9590 N   0  0  0  0  0  0  0  0  0  0  0  0
  127.1910  127.0550   67.4860 C   0  0  0  0  0  0  0  0  0  0  0  0
  126.2330  126.5020   68.8790 S   0  0  0  0  0  0  0  0  0  0  0  0
  127.1820  126.9230   70.3700 C   0  0  0  0  0  0  0  0  0  0  0  0
  128.6680  126.5230   70.2940 C   0  0  0  0  0  0  0  0  0  0  0  0
  129.0890  125.5160   71.3740 C   0  0  0  0  0  0  0  0  0  0  0  0
  129.1620  125.8800   72.5500 O   0  0  0  0  0  0  0  0  0  0  0  0
  129.3400  124.2610   70.9370 N   0  0  0  0  0  0  0  0  0  0  0  0
  129.7330  123.1680   71.7000 C   0  0  0  0  0  0  0  0  0  0  0  0
  130.9380  123.1220   72.4010 C   0  0  0  0  0  0  0  0  0  0  0  0
  130.9470  121.8920   73.0170 C   0  0  0  0  0  0  0  0  0  0  0  0
  129.8090  121.2300   72.7020 O   0  0  0  0  0  0  0  0  0  0  0  0
  129.0470  122.0490   71.8650 N   0  0  0  0  0  0  0  0  0  0  0  0
  128.3840  126.4210   67.3520 N   0  0  0  0  0  0  0  0  0  0  0  0
  1  2  1  0
  2  3  2  0
  3  4  1  0
  4  5  1  0
  4  6  2  0
  6  7  1  0
  7  8  3  0
  6  9  1  0
  9 10  1  0
 10 11  1  0
 11 12  1  0
 12 13  1  0
 13 14  2  0
 13 15  1  0
 15 16  1  0
 16 17  1  0
 17 18  2  0
 18 19  1  0
 19 20  1  0
  9 21  2  0
 21  2  1  0
 20 16  2  0
M  END
>  <Binding energies>  (7) 
[-7.4]

>  <Ligand effiencies>  (7) 
[-0.33636363636363636]

>  <Interactions>  (7) 
["H-B:LYS:547:NZ:9923, V-B:GLU:543:CB:9878, V-B:HIS:456:CE1:9040, V-B:GLY:544:C:9884, V-A:HIS:456:CD2:4068, V-A:GLU:543:CD:4908, V-A:TYR:484:CE1:4345, V-B:GLU:543:C:9874, V-A:HIS:456:CB:4065, V-A:TYR:484:CD1:4343, V-A:TYR:484:CG:4342, V-A:HIS:456:CG:4066, H-B:GLU:543:O:9875, V-A:TYR:484:CB:4341, V-A:TYR:484:CD2:4344, V-B:ARG:545:CG:9894, V-A:TYR:484:CE2:4346, V-A:HIS:456:CE1:4069, H-B:TYR:484:OH:9319, H-B:ARG:545:NE:9896, V-B:ARG:545:CD:9895, V-A:ASP:473:CG:4240, V-A:ASP:473:CB:4239, H-B:ARG:545:N:9892"]

$$$$
2a_Ghoteimi_2023
     RDKit          3D

 48 53  0  0  0  0  0  0  0  0999 V2000
  131.6480  131.9060   54.4710 C   0  0  0  0  0  0  0  0  0  0  0  0
  132.1100  132.5540   55.7800 C   0  0  0  0  0  0  0  0  0  0  0  0
  131.0040  133.1910   56.4060 O   0  0  0  0  0  0  0  0  0  0  0  0
  129.8690  132.5040   56.6960 C   0  0  0  0  0  0  0  0  0  0  0  0
  129.0210  132.2060   55.8500 O   0  0  0  0  0  0  0  0  0  0  0  0
  129.7520  132.1370   58.1480 C   0  0  0  0  0  0  0  0  0  0  0  0
  128.6440  132.5130   58.9210 C   0  0  0  0  0  0  0  0  0  0  0  0
  128.5670  132.1550   60.2640 C   0  0  0  0  0  0  0  0  0  0  0  0
  129.5880  131.4130   60.8600 C   0  0  0  0  0  0  0  0  0  0  0  0
  129.4080  131.1110   62.2240 N   0  0  0  0  0  0  0  0  0  0  0  0
  128.5220  131.6140   63.1120 C   0  0  0  0  0  0  0  0  0  0  0  0
  127.7090  132.5070   62.8730 O   0  0  0  0  0  0  0  0  0  0  0  0
  128.6070  131.0200   64.5240 C   0  0  0  0  0  0  0  0  0  0  0  0
  127.2680  129.8540   64.9320 S   0  0  0  0  0  0  0  0  0  0  0  0
  128.0760  128.3430   65.4080 C   0  0  0  0  0  0  0  0  0  0  0  0
  128.2260  128.2000   66.7450 N   0  0  0  0  0  0  0  0  0  0  0  0
  128.8370  127.0910   67.2330 C   0  0  0  0  0  0  0  0  0  0  0  0
  128.9770  127.0060   68.7190 C   0  0  0  0  0  0  0  0  0  0  0  0
  128.7010  125.8170   69.4060 C   0  0  0  0  0  0  0  0  0  0  0  0
  128.8210  125.7470   70.7910 C   0  0  0  0  0  0  0  0  0  0  0  0
  129.2290  126.8590   71.5410 C   0  0  0  0  0  0  0  0  0  0  0  0
  129.3160  126.7820   72.9350 N   0  0  0  0  0  0  0  0  0  0  0  0
  128.6000  127.7360   73.8060 C   0  0  0  0  0  0  0  0  0  0  0  0
  128.5140  127.2900   75.2810 C   0  0  0  0  0  0  0  0  0  0  0  0
  129.8130  127.0200   75.7830 O   0  0  0  0  0  0  0  0  0  0  0  0
  130.4450  125.9810   75.0540 C   0  0  0  0  0  0  0  0  0  0  0  0
  130.5900  126.3850   73.5710 C   0  0  0  0  0  0  0  0  0  0  0  0
  129.4920  128.0520   70.8480 C   0  0  0  0  0  0  0  0  0  0  0  0
  129.3740  128.1220   69.4640 C   0  0  0  0  0  0  0  0  0  0  0  0
  129.3020  126.0880   66.3790 C   0  0  0  0  0  0  0  0  0  0  0  0
  129.1580  126.2140   64.9900 C   0  0  0  0  0  0  0  0  0  0  0  0
  129.6830  125.1070   64.1350 C   0  0  0  0  0  0  0  0  0  0  0  0
  129.3760  123.7780   64.4390 C   0  0  0  0  0  0  0  0  0  0  0  0
  129.8770  122.7390   63.6600 C   0  0  0  0  0  0  0  0  0  0  0  0
  130.6980  122.9970   62.5520 C   0  0  0  0  0  0  0  0  0  0  0  0
  131.2260  121.9670   61.7690 N   0  0  0  0  0  0  0  0  0  0  0  0
  130.5230  120.6700   61.7100 C   0  0  0  0  0  0  0  0  0  0  0  0
  130.9800  119.7820   60.5330 C   0  0  0  0  0  0  0  0  0  0  0  0
  132.3860  119.5920   60.5850 O   0  0  0  0  0  0  0  0  0  0  0  0
  133.0850  120.8240   60.5010 C   0  0  0  0  0  0  0  0  0  0  0  0
  132.6820  121.7420   61.6740 C   0  0  0  0  0  0  0  0  0  0  0  0
  131.0110  124.3330   62.2620 C   0  0  0  0  0  0  0  0  0  0  0  0
  130.5120  125.3720   63.0410 C   0  0  0  0  0  0  0  0  0  0  0  0
  128.5200  127.3730   64.4830 C   0  0  0  0  0  0  0  0  0  0  0  0
  128.2900  127.5350   63.0440 C   0  0  0  0  0  0  0  0  0  0  0  0
  128.1110  127.6610   61.9070 N   0  0  0  0  0  0  0  0  0  0  0  0
  130.7030  131.0410   60.0950 C   0  0  0  0  0  0  0  0  0  0  0  0
  130.7790  131.3980   58.7510 C   0  0  0  0  0  0  0  0  0  0  0  0
  1  2  1  0
  2  3  1  0
  3  4  1  0
  4  5  2  0
  4  6  1  0
  6  7  2  0
  7  8  1  0
  8  9  2  0
  9 10  1  0
 10 11  1  0
 11 12  2  0
 11 13  1  0
 13 14  1  0
 14 15  1  0
 15 16  2  0
 16 17  1  0
 17 18  1  0
 18 19  2  0
 19 20  1  0
 20 21  2  0
 21 22  1  0
 22 23  1  0
 23 24  1  0
 24 25  1  0
 25 26  1  0
 26 27  1  0
 21 28  1  0
 28 29  2  0
 17 30  2  0
 30 31  1  0
 31 32  1  0
 32 33  2  0
 33 34  1  0
 34 35  2  0
 35 36  1  0
 36 37  1  0
 37 38  1  0
 38 39  1  0
 39 40  1  0
 40 41  1  0
 35 42  1  0
 42 43  2  0
 31 44  2  0
 44 45  1  0
 45 46  3  0
  9 47  1  0
 47 48  2  0
 48  6  1  0
 44 15  1  0
 29 18  1  0
 43 32  1  0
 27 22  1  0
 41 36  1  0
M  END
>  <Binding energies>  (8) 
[-11.31]

>  <Ligand effiencies>  (8) 
[-0.23081632653061226]

>  <Interactions>  (8) 
["V-B:GLU:543:CB:9878, V-B:HIS:456:CE1:9040, V-A:HIS:456:CD2:4068, H-A:LYS:547:NZ:4951, V-A:GLU:543:CD:4908, V-B:GLU:543:CD:9880, H-A:GLU:543:OE1:4909, V-A:ILE:538:CD1:4865, V-A:TYR:539:CD2:4874, V-A:TYR:539:C:4867, H-A:TYR:539:N:4870, V-A:PRO:540:CD:4887, V-A:TYR:539:CE1:4875, V-A:TYR:531:CE2:4793, V-A:PRO:540:CB:4885, V-A:PRO:540:CA:4883, V-A:PRO:540:N:4884, V-A:LEU:363:CD1:3189, V-A:TYR:539:CE2:4876, V-A:ILE:538:CG2:4863, V-A:ALA:541:CB:4892, V-B:ALA:541:CB:9864, V-B:GLU:543:CG:9879, V-B:TYR:539:CD2:9846, V-A:TRP:381:CH2:3372, V-A:LEU:475:CD1:4258, V-B:TYR:539:CE2:9848, V-A:TYR:539:CG:4872, V-A:TYR:539:CD1:4873, V-B:GLU:543:C:9874, V-B:HIS:456:CD2:9039, V-A:ILE:369:CD1:3239, V-A:ILE:369:CG2:3237, V-A:HIS:456:CE1:4069, H-B:TYR:484:OH:9319, V-A:GLU:543:CB:4906, V-A:GLU:543:CG:4907"]

$$$$
2aa_Ghoteimi_2023
     RDKit          3D

 48 53  0  0  0  0  0  0  0  0999 V2000
  129.4220  131.0880   53.9910 C   0  0  0  0  0  0  0  0  0  0  0  0
  129.2020  129.6460   54.4590 C   0  0  0  0  0  0  0  0  0  0  0  0
  128.4000  129.6490   55.6330 O   0  0  0  0  0  0  0  0  0  0  0  0
  127.1210  130.1050   55.6090 C   0  0  0  0  0  0  0  0  0  0  0  0
  126.4670  130.2400   54.5690 O   0  0  0  0  0  0  0  0  0  0  0  0
  126.5760  130.4140   56.9730 C   0  0  0  0  0  0  0  0  0  0  0  0
  127.2840  131.2020   57.8930 C   0  0  0  0  0  0  0  0  0  0  0  0
  126.7500  131.4740   59.1490 C   0  0  0  0  0  0  0  0  0  0  0  0
  125.5050  130.9610   59.5150 C   0  0  0  0  0  0  0  0  0  0  0  0
  125.0580  131.3010   60.8070 N   0  0  0  0  0  0  0  0  0  0  0  0
  123.8060  131.3230   61.3110 C   0  0  0  0  0  0  0  0  0  0  0  0
  122.7880  131.0010   60.6950 O   0  0  0  0  0  0  0  0  0  0  0  0
  123.7160  131.7680   62.7770 C   0  0  0  0  0  0  0  0  0  0  0  0
  123.9590  130.6490   63.6360 O   0  0  0  0  0  0  0  0  0  0  0  0
  125.2590  130.2310   63.8850 C   0  0  0  0  0  0  0  0  0  0  0  0
  126.1860  130.4010   62.9020 N   0  0  0  0  0  0  0  0  0  0  0  0
  127.4670  130.0070   63.1140 C   0  0  0  0  0  0  0  0  0  0  0  0
  128.4280  130.2210   61.9880 C   0  0  0  0  0  0  0  0  0  0  0  0
  128.7190  129.1880   61.0910 C   0  0  0  0  0  0  0  0  0  0  0  0
  129.6080  129.3830   60.0370 C   0  0  0  0  0  0  0  0  0  0  0  0
  130.2290  130.6250   59.8330 C   0  0  0  0  0  0  0  0  0  0  0  0
  131.1340  130.8350   58.7860 N   0  0  0  0  0  0  0  0  0  0  0  0
  130.8610  131.8170   57.7160 C   0  0  0  0  0  0  0  0  0  0  0  0
  131.7730  131.6630   56.4820 C   0  0  0  0  0  0  0  0  0  0  0  0
  133.1350  131.7090   56.8760 O   0  0  0  0  0  0  0  0  0  0  0  0
  133.4490  130.6620   57.7810 C   0  0  0  0  0  0  0  0  0  0  0  0
  132.5870  130.7860   59.0550 C   0  0  0  0  0  0  0  0  0  0  0  0
  129.9500  131.6510   60.7470 C   0  0  0  0  0  0  0  0  0  0  0  0
  129.0640  131.4540   61.8020 C   0  0  0  0  0  0  0  0  0  0  0  0
  127.8490  129.4120   64.3200 C   0  0  0  0  0  0  0  0  0  0  0  0
  126.9130  129.2150   65.3430 C   0  0  0  0  0  0  0  0  0  0  0  0
  127.3760  128.5520   66.6000 C   0  0  0  0  0  0  0  0  0  0  0  0
  128.5990  128.9040   67.1750 C   0  0  0  0  0  0  0  0  0  0  0  0
  129.0450  128.2760   68.3350 C   0  0  0  0  0  0  0  0  0  0  0  0
  128.2860  127.2650   68.9450 C   0  0  0  0  0  0  0  0  0  0  0  0
  128.7120  126.6230   70.1110 N   0  0  0  0  0  0  0  0  0  0  0  0
  129.2010  125.2320   70.0880 C   0  0  0  0  0  0  0  0  0  0  0  0
  129.9480  124.8210   71.3750 C   0  0  0  0  0  0  0  0  0  0  0  0
  129.1230  125.0480   72.5080 O   0  0  0  0  0  0  0  0  0  0  0  0
  128.7640  126.4160   72.6260 C   0  0  0  0  0  0  0  0  0  0  0  0
  127.9850  126.8680   71.3740 C   0  0  0  0  0  0  0  0  0  0  0  0
  127.0560  126.9240   68.3650 C   0  0  0  0  0  0  0  0  0  0  0  0
  126.6100  127.5520   67.2070 C   0  0  0  0  0  0  0  0  0  0  0  0
  125.5850  129.6500   65.1240 C   0  0  0  0  0  0  0  0  0  0  0  0
  124.5520  129.5300   66.1550 C   0  0  0  0  0  0  0  0  0  0  0  0
  123.7360  129.4360   66.9700 N   0  0  0  0  0  0  0  0  0  0  0  0
  124.7870  130.1780   58.5980 C   0  0  0  0  0  0  0  0  0  0  0  0
  125.3220  129.9100   57.3410 C   0  0  0  0  0  0  0  0  0  0  0  0
  1  2  1  0
  2  3  1  0
  3  4  1  0
  4  5  2  0
  4  6  1  0
  6  7  2  0
  7  8  1  0
  8  9  2  0
  9 10  1  0
 10 11  1  0
 11 12  2  0
 11 13  1  0
 13 14  1  0
 14 15  1  0
 15 16  2  0
 16 17  1  0
 17 18  1  0
 18 19  2  0
 19 20  1  0
 20 21  2  0
 21 22  1  0
 22 23  1  0
 23 24  1  0
 24 25  1  0
 25 26  1  0
 26 27  1  0
 21 28  1  0
 28 29  2  0
 17 30  2  0
 30 31  1  0
 31 32  1  0
 32 33  2  0
 33 34  1  0
 34 35  2  0
 35 36  1  0
 36 37  1  0
 37 38  1  0
 38 39  1  0
 39 40  1  0
 40 41  1  0
 35 42  1  0
 42 43  2  0
 31 44  2  0
 44 45  1  0
 45 46  3  0
  9 47  1  0
 47 48  2  0
 48  6  1  0
 44 15  1  0
 29 18  1  0
 43 32  1  0
 27 22  1  0
 41 36  1  0
M  END
>  <Binding energies>  (9) 
[-11.02]

>  <Ligand effiencies>  (9) 
[-0.22489795918367347]

>  <Interactions>  (9) 
["H-B:LYS:547:NZ:9923, V-B:GLU:543:CB:9878, V-B:HIS:456:CE1:9040, V-A:HIS:456:CD2:4068, V-A:GLU:543:CD:4908, V-A:TYR:539:CZ:4877, V-A:TYR:539:CE1:4875, V-A:PRO:540:CB:4885, V-A:PRO:540:CA:4883, V-A:PRO:540:N:4884, V-A:LEU:363:CD1:3189, V-A:TYR:539:CE2:4876, V-B:ILE:369:CD1:8210, V-A:ASP:366:CB:3212, V-B:GLU:543:C:9874, V-A:LEU:363:CB:3187, V-A:LEU:363:CA:3185, V-B:ASP:366:CG:8184, V-B:ASP:366:CB:8183, V-A:HIS:456:CG:4066, V-B:ARG:545:CG:9894, V-A:HIS:456:CE1:4069, H-B:TYR:484:OH:9319, H-B:ARG:545:NH2:9900, V-B:ARG:545:CZ:9898, H-B:GLY:454:N:9021, V-B:GLY:454:CA:9020, V-A:GLU:543:CB:4906, H-B:ILE:455:N:9026, H-B:ARG:545:NE:9896, V-B:ARG:545:CD:9895, H-B:TYR:531:OH:9767, H-A:TYR:539:OH:4878, V-A:GLU:543:CG:4907"]

$$$$
2b_Ghoteimi_2023
     RDKit          3D

 42 47  0  0  0  0  0  0  0  0999 V2000
  130.1150  124.3060   67.9930 N   0  0  0  0  0  0  0  0  0  0  0  0
  129.7780  125.2240   67.3750 C   0  0  0  0  0  0  0  0  0  0  0  0
  129.3520  126.3850   66.5860 C   0  0  0  0  0  0  0  0  0  0  0  0
  129.3040  126.3150   65.1710 C   0  0  0  0  0  0  0  0  0  0  0  0
  129.6680  125.0980   64.3870 C   0  0  0  0  0  0  0  0  0  0  0  0
  130.7670  124.3230   64.7600 C   0  0  0  0  0  0  0  0  0  0  0  0
  131.1120  123.1880   64.0320 C   0  0  0  0  0  0  0  0  0  0  0  0
  130.3760  122.8070   62.8980 C   0  0  0  0  0  0  0  0  0  0  0  0
  130.6950  121.6670   62.1590 N   0  0  0  0  0  0  0  0  0  0  0  0
  129.6370  121.0020   61.3710 C   0  0  0  0  0  0  0  0  0  0  0  0
  130.0150  119.5740   60.9230 C   0  0  0  0  0  0  0  0  0  0  0  0
  131.2440  119.5940   60.2140 O   0  0  0  0  0  0  0  0  0  0  0  0
  132.3030  120.0980   61.0140 C   0  0  0  0  0  0  0  0  0  0  0  0
  131.9860  121.5410   61.4550 C   0  0  0  0  0  0  0  0  0  0  0  0
  129.2770  123.5950   62.5290 C   0  0  0  0  0  0  0  0  0  0  0  0
  128.9300  124.7270   63.2600 C   0  0  0  0  0  0  0  0  0  0  0  0
  128.8860  127.4480   64.4620 C   0  0  0  0  0  0  0  0  0  0  0  0
  128.4950  128.6050   65.1420 C   0  0  0  0  0  0  0  0  0  0  0  0
  128.0130  129.8300   64.4330 C   0  0  0  0  0  0  0  0  0  0  0  0
  128.2430  131.1020   64.9680 C   0  0  0  0  0  0  0  0  0  0  0  0
  127.8110  132.2480   64.3060 C   0  0  0  0  0  0  0  0  0  0  0  0
  127.1190  132.1640   63.0870 C   0  0  0  0  0  0  0  0  0  0  0  0
  126.7050  133.3070   62.3950 N   0  0  0  0  0  0  0  0  0  0  0  0
  127.7000  134.1440   61.6940 C   0  0  0  0  0  0  0  0  0  0  0  0
  127.1740  135.5470   61.3190 C   0  0  0  0  0  0  0  0  0  0  0  0
  125.9810  135.4310   60.5590 O   0  0  0  0  0  0  0  0  0  0  0  0
  124.9620  134.7700   61.2900 C   0  0  0  0  0  0  0  0  0  0  0  0
  125.4210  133.3450   61.6680 C   0  0  0  0  0  0  0  0  0  0  0  0
  126.8960  130.8870   62.5510 C   0  0  0  0  0  0  0  0  0  0  0  0
  127.3320  129.7430   63.2130 C   0  0  0  0  0  0  0  0  0  0  0  0
  128.5410  128.6690   66.4970 N   0  0  0  0  0  0  0  0  0  0  0  0
  128.9730  127.5980   67.2040 C   0  0  0  0  0  0  0  0  0  0  0  0
  128.9730  127.8580   68.9640 S   0  0  0  0  0  0  0  0  0  0  0  0
  127.7630  126.7110   69.6880 C   0  0  0  0  0  0  0  0  0  0  0  0
  128.3590  125.8950   70.8370 C   0  0  0  0  0  0  0  0  0  0  0  0
  128.2360  126.3020   71.9930 O   0  0  0  0  0  0  0  0  0  0  0  0
  128.9970  124.7610   70.4740 N   0  0  0  0  0  0  0  0  0  0  0  0
  129.6140  123.8390   71.3080 C   0  0  0  0  0  0  0  0  0  0  0  0
  130.7590  124.1290   72.0480 C   0  0  0  0  0  0  0  0  0  0  0  0
  131.0470  122.9710   72.7310 C   0  0  0  0  0  0  0  0  0  0  0  0
  130.1230  122.0320   72.4190 O   0  0  0  0  0  0  0  0  0  0  0  0
  129.2170  122.5950   71.5170 N   0  0  0  0  0  0  0  0  0  0  0  0
  1  2  3  0
  2  3  1  0
  3  4  2  0
  4  5  1  0
  5  6  2  0
  6  7  1  0
  7  8  2  0
  8  9  1  0
  9 10  1  0
 10 11  1  0
 11 12  1  0
 12 13  1  0
 13 14  1  0
  8 15  1  0
 15 16  2  0
  4 17  1  0
 17 18  2  0
 18 19  1  0
 19 20  2  0
 20 21  1  0
 21 22  2  0
 22 23  1  0
 23 24  1  0
 24 25  1  0
 25 26  1  0
 26 27  1  0
 27 28  1  0
 22 29  1  0
 29 30  2  0
 18 31  1  0
 31 32  2  0
 32 33  1  0
 33 34  1  0
 34 35  1  0
 35 36  2  0
 35 37  1  0
 37 38  1  0
 38 39  1  0
 39 40  2  0
 40 41  1  0
 41 42  1  0
 32  3  1  0
 42 38  2  0
 16  5  1  0
 30 19  1  0
 14  9  1  0
 28 23  1  0
M  END
>  <Binding energies>  (10) 
[-11.2]

>  <Ligand effiencies>  (10) 
[-0.26046511627906976]

>  <Interactions>  (10) 
["H-B:LYS:547:NZ:9923, V-B:GLU:543:CB:9878, H-B:HIS:456:NE2:9041, V-B:HIS:456:CE1:9040, V-B:GLY:544:C:9884, V-A:HIS:456:CD2:4068, H-A:HIS:456:NE2:4070, V-A:GLU:543:CD:4908, V-B:GLU:543:CD:9880, V-A:TYR:539:CD2:4874, V-B:PRO:482:CG:9298, V-B:TRP:381:CH2:8343, V-A:TYR:539:CE2:4876, V-B:LEU:475:CD1:9229, V-A:ALA:541:CB:4892, V-B:PRO:482:CB:9297, V-B:TRP:381:CZ2:8341, V-B:ALA:541:CB:9864, V-A:PRO:482:CB:4326, V-B:GLU:543:CG:9879, V-A:TYR:484:CE1:4345, V-B:TYR:539:CD2:9846, V-A:TRP:381:CH2:3372, V-A:LEU:475:CD1:4258, V-A:PRO:482:CG:4327, V-A:TYR:484:CZ:4347, V-B:GLU:543:C:9874, V-A:HIS:456:CB:4065, V-A:TYR:484:CG:4342, V-A:HIS:456:CG:4066, H-B:GLU:543:O:9875, V-A:TYR:484:CD2:4344, H-A:TYR:484:OH:4348, V-A:HIS:456:CE1:4069, V-A:GLU:543:CB:4906, V-B:TYR:484:CE1:9316"]

$$$$
2c_Ghoteimi_2023
     RDKit          3D

 42 47  0  0  0  0  0  0  0  0999 V2000
  128.3730  127.1190   63.5900 N   0  0  0  0  0  0  0  0  0  0  0  0
  128.5670  126.8340   64.6940 C   0  0  0  0  0  0  0  0  0  0  0  0
  128.8170  126.4680   66.0920 C   0  0  0  0  0  0  0  0  0  0  0  0
  129.5270  125.2840   66.4120 C   0  0  0  0  0  0  0  0  0  0  0  0
  130.0640  124.3340   65.3910 C   0  0  0  0  0  0  0  0  0  0  0  0
  129.4140  123.1220   65.1490 C   0  0  0  0  0  0  0  0  0  0  0  0
  129.9050  122.2340   64.1960 C   0  0  0  0  0  0  0  0  0  0  0  0
  131.0690  122.5260   63.4680 C   0  0  0  0  0  0  0  0  0  0  0  0
  131.5670  121.6590   62.4930 N   0  0  0  0  0  0  0  0  0  0  0  0
  130.6280  120.9990   61.5650 C   0  0  0  0  0  0  0  0  0  0  0  0
  131.2510  119.8000   60.8180 C   0  0  0  0  0  0  0  0  0  0  0  0
  132.4300  120.2080   60.1410 O   0  0  0  0  0  0  0  0  0  0  0  0
  133.4030  120.7150   61.0410 C   0  0  0  0  0  0  0  0  0  0  0  0
  132.8370  121.9370   61.7940 C   0  0  0  0  0  0  0  0  0  0  0  0
  131.7160  123.7440   63.7210 C   0  0  0  0  0  0  0  0  0  0  0  0
  131.2230  124.6330   64.6720 C   0  0  0  0  0  0  0  0  0  0  0  0
  129.7430  124.9800   67.7620 C   0  0  0  0  0  0  0  0  0  0  0  0
  129.2890  125.8430   68.7640 C   0  0  0  0  0  0  0  0  0  0  0  0
  129.5090  125.5730   70.2180 C   0  0  0  0  0  0  0  0  0  0  0  0
  129.9680  124.3250   70.6500 C   0  0  0  0  0  0  0  0  0  0  0  0
  130.1810  124.0690   72.0030 C   0  0  0  0  0  0  0  0  0  0  0  0
  129.9290  125.0500   72.9750 C   0  0  0  0  0  0  0  0  0  0  0  0
  130.1610  124.8170   74.3350 N   0  0  0  0  0  0  0  0  0  0  0  0
  131.3890  124.1160   74.7630 C   0  0  0  0  0  0  0  0  0  0  0  0
  131.3310  123.5930   76.2140 C   0  0  0  0  0  0  0  0  0  0  0  0
  131.0220  124.6560   77.1000 O   0  0  0  0  0  0  0  0  0  0  0  0
  129.7620  125.2350   76.7990 C   0  0  0  0  0  0  0  0  0  0  0  0
  129.7700  125.8030   75.3640 C   0  0  0  0  0  0  0  0  0  0  0  0
  129.4800  126.3030   72.5350 C   0  0  0  0  0  0  0  0  0  0  0  0
  129.2700  126.5590   71.1830 C   0  0  0  0  0  0  0  0  0  0  0  0
  128.6110  126.9780   68.4550 N   0  0  0  0  0  0  0  0  0  0  0  0
  128.3620  127.2780   67.1580 C   0  0  0  0  0  0  0  0  0  0  0  0
  127.4540  128.7910   66.9380 S   0  0  0  0  0  0  0  0  0  0  0  0
  125.6840  128.3780   66.9840 C   0  0  0  0  0  0  0  0  0  0  0  0
  124.8690  129.2390   66.0180 C   0  0  0  0  0  0  0  0  0  0  0  0
  124.0030  129.9930   66.4650 O   0  0  0  0  0  0  0  0  0  0  0  0
  125.1720  129.0930   64.7100 N   0  0  0  0  0  0  0  0  0  0  0  0
  124.5930  129.7670   63.6450 C   0  0  0  0  0  0  0  0  0  0  0  0
  123.4030  130.3250   63.5920 N   0  0  0  0  0  0  0  0  0  0  0  0
  123.1810  130.8850   62.4200 C   0  0  0  0  0  0  0  0  0  0  0  0
  124.2090  130.7870   61.4870 C   0  0  0  0  0  0  0  0  0  0  0  0
  125.5330  129.9110   62.1950 S   0  0  0  0  0  0  0  0  0  0  0  0
  1  2  3  0
  2  3  1  0
  3  4  2  0
  4  5  1  0
  5  6  2  0
  6  7  1  0
  7  8  2  0
  8  9  1  0
  9 10  1  0
 10 11  1  0
 11 12  1  0
 12 13  1  0
 13 14  1  0
  8 15  1  0
 15 16  2  0
  4 17  1  0
 17 18  2  0
 18 19  1  0
 19 20  2  0
 20 21  1  0
 21 22  2  0
 22 23  1  0
 23 24  1  0
 24 25  1  0
 25 26  1  0
 26 27  1  0
 27 28  1  0
 22 29  1  0
 29 30  2  0
 18 31  1  0
 31 32  2  0
 32 33  1  0
 33 34  1  0
 34 35  1  0
 35 36  2  0
 35 37  1  0
 37 38  1  0
 38 39  2  0
 39 40  1  0
 40 41  2  0
 41 42  1  0
 32  3  1  0
 42 38  1  0
 16  5  1  0
 30 19  1  0
 14  9  1  0
 28 23  1  0
M  END
>  <Binding energies>  (11) 
[-10.62]

>  <Ligand effiencies>  (11) 
[-0.24697674418604648]

>  <Interactions>  (11) 
["V-B:GLU:543:CB:9878, V-B:HIS:456:CE1:9040, V-A:HIS:456:CD2:4068, V-B:GLU:543:CD:9880, V-B:ILE:369:CD1:8210, V-B:ALA:541:CB:9864, V-B:GLU:543:CG:9879, V-A:TYR:484:CE1:4345, V-B:TYR:539:CD2:9846, V-A:TRP:381:CZ2:3370, V-A:TRP:381:CH2:3372, V-A:LEU:475:CD1:4258, V-A:TYR:484:CZ:4347, V-B:GLU:543:C:9874, V-B:ASP:366:CG:8184, V-A:ILE:369:CD1:3239, V-A:ILE:369:CG2:3237, V-A:HIS:456:CG:4066, V-B:ARG:545:CG:9894, V-A:HIS:456:CE1:4069, H-B:ARG:545:NH1:9899, H-B:TYR:484:OH:9319, H-B:ARG:545:NH2:9900, V-B:ARG:545:CZ:9898, H-B:GLY:454:N:9021, H-B:ILE:455:N:9026, H-B:ARG:545:NE:9896, V-B:ARG:545:CD:9895, V-B:GLU:543:CA:9876, H-B:GLU:543:OE1:9881"]

$$$$
2j_Grossjean_2025
     RDKit          3D

 23 24  0  0  0  0  0  0  0  0999 V2000
  133.3890  131.4190   61.0040 C   0  0  0  0  0  0  0  0  0  0  0  0
  131.9520  130.9470   61.1360 C   0  0  0  0  0  0  0  0  0  0  0  0
  131.6320  129.5940   61.1990 C   0  0  0  0  0  0  0  0  0  0  0  0
  130.2890  129.2070   61.3240 C   0  0  0  0  0  0  0  0  0  0  0  0
  129.9520  127.7050   61.3930 C   0  0  0  0  0  0  0  0  0  0  0  0
  131.0750  126.9850   61.3770 F   0  0  0  0  0  0  0  0  0  0  0  0
  129.2820  127.4380   62.5150 F   0  0  0  0  0  0  0  0  0  0  0  0
  129.1990  127.2980   60.3690 F   0  0  0  0  0  0  0  0  0  0  0  0
  129.2970  130.2180   61.3820 C   0  0  0  0  0  0  0  0  0  0  0  0
  127.8780  129.8720   61.5130 C   0  0  0  0  0  0  0  0  0  0  0  0
  126.7580  129.5980   61.6170 N   0  0  0  0  0  0  0  0  0  0  0  0
  129.7120  131.5690   61.3110 C   0  0  0  0  0  0  0  0  0  0  0  0
  128.5500  132.9250   61.3760 S   0  0  0  0  0  0  0  0  0  0  0  0
  127.5070  132.8600   59.8800 C   0  0  0  0  0  0  0  0  0  0  0  0
  128.2060  132.3090   58.6290 C   0  0  0  0  0  0  0  0  0  0  0  0
  127.6790  131.4240   57.9510 O   0  0  0  0  0  0  0  0  0  0  0  0
  129.4120  132.8600   58.3650 N   0  0  0  0  0  0  0  0  0  0  0  0
  130.2520  132.5500   57.3040 C   0  0  0  0  0  0  0  0  0  0  0  0
  130.2020  133.0120   56.0730 N   0  0  0  0  0  0  0  0  0  0  0  0
  131.1600  132.5030   55.3230 C   0  0  0  0  0  0  0  0  0  0  0  0
  132.0170  131.6030   55.9480 C   0  0  0  0  0  0  0  0  0  0  0  0
  131.5330  131.4200   57.6080 S   0  0  0  0  0  0  0  0  0  0  0  0
  131.0170  131.9220   61.1920 N   0  0  0  0  0  0  0  0  0  0  0  0
  1  2  1  0
  2  3  2  0
  3  4  1  0
  4  5  1  0
  5  6  1  0
  5  7  1  0
  5  8  1  0
  4  9  2  0
  9 10  1  0
 10 11  3  0
  9 12  1  0
 12 13  1  0
 13 14  1  0
 14 15  1  0
 15 16  2  0
 15 17  1  0
 17 18  1  0
 18 19  2  0
 19 20  1  0
 20 21  2  0
 21 22  1  0
 12 23  2  0
 23  2  1  0
 22 18  1  0
M  END
>  <Binding energies>  (12) 
[-5.78]

>  <Ligand effiencies>  (12) 
[-0.24083333333333334]

>  <Interactions>  (12) 
["V-A:GLU:543:CD:4908, V-A:TYR:539:CD2:4874, V-A:TYR:539:C:4867, V-A:TYR:539:CZ:4877, H-A:TYR:539:N:4870, V-A:PRO:540:CD:4887, V-A:TYR:531:CE2:4793, V-A:PRO:540:CB:4885, V-A:PRO:540:CA:4883, V-A:PRO:540:N:4884, V-A:LEU:363:CD1:3189, V-A:TYR:539:CE2:4876, V-A:TYR:539:CG:4872, V-A:ASN:362:CB:3176, V-A:ILE:538:CA:4860, H-A:TYR:539:O:4868, H-A:ALA:541:N:4891, H-A:TYR:539:OH:4878"]

$$$$
3ab_Grossjean_2025
     RDKit          3D

 33 35  0  0  0  0  0  0  0  0999 V2000
  129.3070  132.9110   57.4070 C   0  0  0  0  0  0  0  0  0  0  0  0
  129.7860  133.0550   56.0770 O   0  0  0  0  0  0  0  0  0  0  0  0
  131.0330  132.6410   55.7350 C   0  0  0  0  0  0  0  0  0  0  0  0
  131.7960  133.2980   55.0200 O   0  0  0  0  0  0  0  0  0  0  0  0
  131.3950  131.3050   56.3170 C   0  0  0  0  0  0  0  0  0  0  0  0
  132.6650  131.0500   56.8590 C   0  0  0  0  0  0  0  0  0  0  0  0
  132.9730  129.8020   57.3920 C   0  0  0  0  0  0  0  0  0  0  0  0
  132.0100  128.7800   57.3930 C   0  0  0  0  0  0  0  0  0  0  0  0
  132.2090  127.4850   57.9100 N   0  0  0  0  0  0  0  0  0  0  0  0
  132.1060  126.2850   57.3020 C   0  0  0  0  0  0  0  0  0  0  0  0
  131.7900  126.1020   56.1260 O   0  0  0  0  0  0  0  0  0  0  0  0
  132.4150  125.0740   58.1860 C   0  0  0  0  0  0  0  0  0  0  0  0
  131.5510  125.1550   59.7830 S   0  0  0  0  0  0  0  0  0  0  0  0
  130.4870  123.7310   59.8880 C   0  0  0  0  0  0  0  0  0  0  0  0
  129.3440  123.8550   59.1720 N   0  0  0  0  0  0  0  0  0  0  0  0
  128.4420  122.8400   59.1570 C   0  0  0  0  0  0  0  0  0  0  0  0
  127.2030  123.0560   58.3380 C   0  0  0  0  0  0  0  0  0  0  0  0
  126.0800  123.6920   58.8890 C   0  0  0  0  0  0  0  0  0  0  0  0
  124.9280  123.8960   58.1340 C   0  0  0  0  0  0  0  0  0  0  0  0
  124.8840  123.4630   56.8120 C   0  0  0  0  0  0  0  0  0  0  0  0
  125.9820  122.8270   56.2430 C   0  0  0  0  0  0  0  0  0  0  0  0
  127.1310  122.6260   57.0020 C   0  0  0  0  0  0  0  0  0  0  0  0
  128.6670  121.6710   59.8910 C   0  0  0  0  0  0  0  0  0  0  0  0
  129.8340  121.5260   60.6560 C   0  0  0  0  0  0  0  0  0  0  0  0
  130.0420  120.2250   61.4540 C   0  0  0  0  0  0  0  0  0  0  0  0
  131.1430  119.5640   61.0890 F   0  0  0  0  0  0  0  0  0  0  0  0
  130.1530  120.4960   62.7550 F   0  0  0  0  0  0  0  0  0  0  0  0
  129.0030  119.4080   61.2710 F   0  0  0  0  0  0  0  0  0  0  0  0
  130.7740  122.5870   60.6660 C   0  0  0  0  0  0  0  0  0  0  0  0
  131.9820  122.5110   61.4920 C   0  0  0  0  0  0  0  0  0  0  0  0
  132.9340  122.4470   62.1450 N   0  0  0  0  0  0  0  0  0  0  0  0
  130.7450  129.0330   56.8600 C   0  0  0  0  0  0  0  0  0  0  0  0
  130.4400  130.2810   56.3260 C   0  0  0  0  0  0  0  0  0  0  0  0
  1  2  1  0
  2  3  1  0
  3  4  2  0
  3  5  1  0
  5  6  2  0
  6  7  1  0
  7  8  2  0
  8  9  1  0
  9 10  1  0
 10 11  2  0
 10 12  1  0
 12 13  1  0
 13 14  1  0
 14 15  2  0
 15 16  1  0
 16 17  1  0
 17 18  2  0
 18 19  1  0
 19 20  2  0
 20 21  1  0
 21 22  2  0
 16 23  2  0
 23 24  1  0
 24 25  1  0
 25 26  1  0
 25 27  1  0
 25 28  1  0
 24 29  2  0
 29 30  1  0
 30 31  3  0
  8 32  1  0
 32 33  2  0
 33  5  1  0
 29 14  1  0
 22 17  1  0
M  END
>  <Binding energies>  (13) 
[-8.67]

>  <Ligand effiencies>  (13) 
[-0.255]

>  <Interactions>  (13) 
["V-A:TYR:539:CD2:4874, V-A:TYR:539:C:4867, V-A:TYR:539:CZ:4877, H-A:TYR:539:N:4870, V-A:PRO:540:CD:4887, V-A:TYR:539:CE1:4875, V-A:PRO:540:CB:4885, V-A:PRO:540:CA:4883, V-A:PRO:540:N:4884, V-A:LEU:363:CD1:3189, V-A:TYR:539:CE2:4876, V-B:ILE:538:CB:9834, V-B:ALA:541:CB:9864, V-B:PRO:540:C:9853, V-B:TYR:539:C:9839, V-B:PRO:540:CA:9855, V-A:PRO:482:CB:4326, V-B:PRO:540:CB:9857, V-B:PRO:540:CD:9859, V-B:PRO:540:N:9856, V-B:TYR:539:CD2:9846, V-A:TRP:381:CZ2:3370, V-A:TRP:381:CH2:3372, V-A:LEU:475:CD1:4258, V-B:LEU:363:CD1:8160, V-A:PRO:482:CG:4327, V-B:ILE:538:CG2:9835, V-B:TYR:539:CE2:9848, V-A:TYR:539:CG:4872, V-A:ASP:366:CB:3212, V-A:TYR:539:CD1:4873, V-A:ASP:366:CG:3213, V-B:ALA:541:CA:9862, V-A:TYR:539:CA:4869, H-A:TYR:531:OH:4795, H-B:TYR:539:OH:9850, H-A:ASP:366:OD1:3214, H-A:ASP:366:OD2:3215"]

$$$$
3ac_Grossjean_2025
     RDKit          3D

 31 33  0  0  0  0  0  0  0  0999 V2000
  132.7180  131.5680   62.0230 C   0  0  0  0  0  0  0  0  0  0  0  0
  131.3570  131.9420   61.8330 O   0  0  0  0  0  0  0  0  0  0  0  0
  130.7850  131.7980   60.5830 C   0  0  0  0  0  0  0  0  0  0  0  0
  131.5320  131.0990   59.6350 C   0  0  0  0  0  0  0  0  0  0  0  0
  131.0360  130.9000   58.3500 C   0  0  0  0  0  0  0  0  0  0  0  0
  129.7860  131.4070   57.9910 C   0  0  0  0  0  0  0  0  0  0  0  0
  129.3610  131.1380   56.6760 N   0  0  0  0  0  0  0  0  0  0  0  0
  129.5530  131.8650   55.5540 C   0  0  0  0  0  0  0  0  0  0  0  0
  130.1980  132.9110   55.4860 O   0  0  0  0  0  0  0  0  0  0  0  0
  128.9030  131.3050   54.2880 C   0  0  0  0  0  0  0  0  0  0  0  0
  129.2470  129.5330   54.0630 S   0  0  0  0  0  0  0  0  0  0  0  0
  128.3040  128.6110   55.2620 C   0  0  0  0  0  0  0  0  0  0  0  0
  127.3780  129.3630   55.9040 N   0  0  0  0  0  0  0  0  0  0  0  0
  126.5770  128.7950   56.8430 C   0  0  0  0  0  0  0  0  0  0  0  0
  125.5830  129.6970   57.5110 C   0  0  0  0  0  0  0  0  0  0  0  0
  124.3040  129.8880   56.9630 C   0  0  0  0  0  0  0  0  0  0  0  0
  123.3750  130.7200   57.5810 C   0  0  0  0  0  0  0  0  0  0  0  0
  123.7140  131.3770   58.7590 C   0  0  0  0  0  0  0  0  0  0  0  0
  124.9760  131.2100   59.3210 C   0  0  0  0  0  0  0  0  0  0  0  0
  125.9020  130.3770   58.6990 C   0  0  0  0  0  0  0  0  0  0  0  0
  126.7080  127.4420   57.1720 C   0  0  0  0  0  0  0  0  0  0  0  0
  127.6750  126.6470   56.5390 C   0  0  0  0  0  0  0  0  0  0  0  0
  127.7880  125.1620   56.9360 C   0  0  0  0  0  0  0  0  0  0  0  0
  127.6600  124.3360   55.8950 F   0  0  0  0  0  0  0  0  0  0  0  0
  128.9780  124.9220   57.4890 F   0  0  0  0  0  0  0  0  0  0  0  0
  126.8340  124.8540   57.8150 F   0  0  0  0  0  0  0  0  0  0  0  0
  128.5110  127.2450   55.5640 C   0  0  0  0  0  0  0  0  0  0  0  0
  129.5850  126.4750   54.9320 C   0  0  0  0  0  0  0  0  0  0  0  0
  130.4340  125.8660   54.4340 N   0  0  0  0  0  0  0  0  0  0  0  0
  129.0260  132.1060   58.9420 C   0  0  0  0  0  0  0  0  0  0  0  0
  129.5240  132.3020   60.2270 C   0  0  0  0  0  0  0  0  0  0  0  0
  1  2  1  0
  2  3  1  0
  3  4  2  0
  4  5  1  0
  5  6  2  0
  6  7  1  0
  7  8  1  0
  8  9  2  0
  8 10  1  0
 10 11  1  0
 11 12  1  0
 12 13  2  0
 13 14  1  0
 14 15  1  0
 15 16  2  0
 16 17  1  0
 17 18  2  0
 18 19  1  0
 19 20  2  0
 14 21  2  0
 21 22  1  0
 22 23  1  0
 23 24  1  0
 23 25  1  0
 23 26  1  0
 22 27  2  0
 27 28  1  0
 28 29  3  0
  6 30  1  0
 30 31  2  0
 31  3  1  0
 27 12  1  0
 20 15  1  0
M  END
>  <Binding energies>  (14) 
[-7.19]

>  <Ligand effiencies>  (14) 
[-0.2246875]

>  <Interactions>  (14) 
["V-A:GLU:543:CD:4908, V-A:TYR:539:C:4867, V-A:TYR:539:CZ:4877, H-A:TYR:539:N:4870, V-A:TYR:539:CE1:4875, V-A:PRO:540:CB:4885, V-A:PRO:540:CA:4883, V-A:TYR:539:CE2:4876, V-B:ILE:369:CG2:8208, V-B:TYR:539:CE2:9848, V-A:TYR:539:CD1:4873, V-A:PRO:540:C:4881, V-A:ASN:362:CB:3176, V-B:ASP:366:CG:8184, V-B:TYR:531:CZ:9766, V-B:ASP:366:CB:8183, V-B:TYR:539:CZ:9849, H-A:ALA:541:N:4891, H-A:TYR:531:OH:4795, H-B:TYR:539:OH:9850, V-B:ASP:366:CA:8181, H-A:ASN:370:ND2:3248, V-A:MET:535:CE:4835, H-B:TYR:531:OH:9767, V-B:ASP:366:C:8179, V-B:ILE:369:CB:8207, V-B:TYR:531:CE1:9764"]

$$$$
3af_Grossjean_2025
     RDKit          3D

 29 31  0  0  0  0  0  0  0  0999 V2000
  124.1870  132.1170   59.8060 N   0  0  0  0  0  0  0  0  0  0  0  0
  125.3390  132.0110   59.8570 C   0  0  0  0  0  0  0  0  0  0  0  0
  126.7970  131.8790   59.9240 C   0  0  0  0  0  0  0  0  0  0  0  0
  127.5890  132.8980   60.5060 C   0  0  0  0  0  0  0  0  0  0  0  0
  126.9810  134.1650   61.1400 C   0  0  0  0  0  0  0  0  0  0  0  0
  126.2820  134.8960   60.2690 F   0  0  0  0  0  0  0  0  0  0  0  0
  126.1570  133.8260   62.1320 F   0  0  0  0  0  0  0  0  0  0  0  0
  127.9480  134.9430   61.6270 F   0  0  0  0  0  0  0  0  0  0  0  0
  128.9840  132.7510   60.4970 C   0  0  0  0  0  0  0  0  0  0  0  0
  129.5720  131.6190   59.9210 C   0  0  0  0  0  0  0  0  0  0  0  0
  131.0570  131.4200   59.8680 C   0  0  0  0  0  0  0  0  0  0  0  0
  131.8280  131.4480   61.0410 C   0  0  0  0  0  0  0  0  0  0  0  0
  133.2070  131.2610   60.9980 C   0  0  0  0  0  0  0  0  0  0  0  0
  133.8350  131.0430   59.7770 C   0  0  0  0  0  0  0  0  0  0  0  0
  133.0950  131.0080   58.6000 C   0  0  0  0  0  0  0  0  0  0  0  0
  131.7160  131.1950   58.6470 C   0  0  0  0  0  0  0  0  0  0  0  0
  128.8090  130.6470   59.3610 N   0  0  0  0  0  0  0  0  0  0  0  0
  127.4590  130.7550   59.3780 C   0  0  0  0  0  0  0  0  0  0  0  0
  126.6300  129.3770   58.6110 S   0  0  0  0  0  0  0  0  0  0  0  0
  125.8140  129.9800   57.1030 C   0  0  0  0  0  0  0  0  0  0  0  0
  126.8250  130.3420   56.0150 C   0  0  0  0  0  0  0  0  0  0  0  0
  126.5810  130.0410   54.8470 O   0  0  0  0  0  0  0  0  0  0  0  0
  127.9370  130.9740   56.4460 N   0  0  0  0  0  0  0  0  0  0  0  0
  129.0510  131.4310   55.7150 C   0  0  0  0  0  0  0  0  0  0  0  0
  129.5010  130.9060   54.4900 C   0  0  0  0  0  0  0  0  0  0  0  0
  130.6270  131.4570   53.8730 C   0  0  0  0  0  0  0  0  0  0  0  0
  131.2770  132.5220   54.4980 C   0  0  0  0  0  0  0  0  0  0  0  0
  130.8630  133.0470   55.6780 N   0  0  0  0  0  0  0  0  0  0  0  0
  129.7680  132.5000   56.2640 C   0  0  0  0  0  0  0  0  0  0  0  0
  1  2  3  0
  2  3  1  0
  3  4  2  0
  4  5  1  0
  5  6  1  0
  5  7  1  0
  5  8  1  0
  4  9  1  0
  9 10  2  0
 10 11  1  0
 11 12  2  0
 12 13  1  0
 13 14  2  0
 14 15  1  0
 15 16  2  0
 10 17  1  0
 17 18  2  0
 18 19  1  0
 19 20  1  0
 20 21  1  0
 21 22  2  0
 21 23  1  0
 23 24  1  0
 24 25  2  0
 25 26  1  0
 26 27  2  0
 27 28  1  0
 28 29  2  0
 18  3  1  0
 29 24  1  0
 16 11  1  0
M  END
>  <Binding energies>  (15) 
[-7.84]

>  <Ligand effiencies>  (15) 
[-0.2613333333333333]

>  <Interactions>  (15) 
["V-A:ILE:538:CD1:4865, V-A:TYR:539:CD2:4874, V-A:TYR:539:C:4867, V-A:TYR:539:CZ:4877, H-A:TYR:539:N:4870, V-A:TYR:539:CE1:4875, V-A:TYR:531:CE2:4793, V-A:PRO:540:CB:4885, V-B:PRO:482:CG:9298, V-A:PRO:540:CA:4883, V-A:PRO:540:N:4884, V-B:TRP:381:CH2:8343, V-A:TYR:539:CE2:4876, V-B:LEU:475:CD1:9229, V-A:ALA:541:CB:4892, V-B:PRO:482:CB:9297, V-A:TYR:539:CG:4872, V-A:TYR:539:CD1:4873, V-A:PRO:540:C:4881, V-A:ASN:362:CB:3176, V-A:ILE:538:CA:4860, V-A:ASP:366:CG:3213, V-A:LEU:363:CA:3185, V-A:ALA:541:CA:4890, V-A:ASN:362:C:3172, H-B:TYR:531:OH:9767, H-A:TYR:539:OH:4878"]

$$$$
3ag_Grossjean_2025
     RDKit          3D

 30 32  0  0  0  0  0  0  0  0999 V2000
  132.8210  130.1960   57.3400 N   0  0  0  0  0  0  0  0  0  0  0  0
  131.9760  130.7850   57.8690 C   0  0  0  0  0  0  0  0  0  0  0  0
  130.9070  131.5290   58.5410 C   0  0  0  0  0  0  0  0  0  0  0  0
  130.8290  131.5650   59.9550 C   0  0  0  0  0  0  0  0  0  0  0  0
  131.8740  130.8880   60.8640 C   0  0  0  0  0  0  0  0  0  0  0  0
  133.1190  131.0110   60.4010 F   0  0  0  0  0  0  0  0  0  0  0  0
  131.8400  131.4340   62.0790 F   0  0  0  0  0  0  0  0  0  0  0  0
  131.6150  129.5830   60.9680 F   0  0  0  0  0  0  0  0  0  0  0  0
  129.7570  132.2460   60.5510 C   0  0  0  0  0  0  0  0  0  0  0  0
  128.7830  132.8630   59.7580 C   0  0  0  0  0  0  0  0  0  0  0  0
  127.6170  133.6020   60.3400 C   0  0  0  0  0  0  0  0  0  0  0  0
  126.3170  133.0820   60.2390 C   0  0  0  0  0  0  0  0  0  0  0  0
  125.2280  133.7630   60.7780 C   0  0  0  0  0  0  0  0  0  0  0  0
  125.4260  134.9770   61.4270 C   0  0  0  0  0  0  0  0  0  0  0  0
  126.7040  135.5150   61.5380 C   0  0  0  0  0  0  0  0  0  0  0  0
  127.7890  134.8330   60.9980 C   0  0  0  0  0  0  0  0  0  0  0  0
  128.8690  132.8380   58.4030 N   0  0  0  0  0  0  0  0  0  0  0  0
  129.9070  132.2030   57.8060 C   0  0  0  0  0  0  0  0  0  0  0  0
  129.8570  132.2740   56.0290 S   0  0  0  0  0  0  0  0  0  0  0  0
  128.4050  131.3220   55.4890 C   0  0  0  0  0  0  0  0  0  0  0  0
  128.0220  130.2330   56.4930 C   0  0  0  0  0  0  0  0  0  0  0  0
  128.8430  129.3680   56.8050 O   0  0  0  0  0  0  0  0  0  0  0  0
  126.7760  130.2940   56.9940 N   0  0  0  0  0  0  0  0  0  0  0  0
  126.2150  129.3810   57.9890 C   0  0  0  0  0  0  0  0  0  0  0  0
  125.2180  130.0330   58.9400 C   0  0  0  0  0  0  0  0  0  0  0  0
  124.1450  130.7650   58.4260 C   0  0  0  0  0  0  0  0  0  0  0  0
  123.2150  131.3370   59.2900 C   0  0  0  0  0  0  0  0  0  0  0  0
  123.3570  131.1670   60.6660 C   0  0  0  0  0  0  0  0  0  0  0  0
  124.4160  130.4260   61.1850 C   0  0  0  0  0  0  0  0  0  0  0  0
  125.3450  129.8530   60.3210 C   0  0  0  0  0  0  0  0  0  0  0  0
  1  2  3  0
  2  3  1  0
  3  4  2  0
  4  5  1  0
  5  6  1  0
  5  7  1  0
  5  8  1  0
  4  9  1  0
  9 10  2  0
 10 11  1  0
 11 12  2  0
 12 13  1  0
 13 14  2  0
 14 15  1  0
 15 16  2  0
 10 17  1  0
 17 18  2  0
 18 19  1  0
 19 20  1  0
 20 21  1  0
 21 22  2  0
 21 23  1  0
 23 24  1  0
 24 25  1  0
 25 26  2  0
 26 27  1  0
 27 28  2  0
 28 29  1  0
 29 30  2  0
 18  3  1  0
 30 25  1  0
 16 11  1  0
M  END
>  <Binding energies>  (16) 
[-7.29]

>  <Ligand effiencies>  (16) 
[-0.23516129032258065]

>  <Interactions>  (16) 
["V-A:GLU:543:CD:4908, V-A:TYR:539:CD2:4874, V-A:TYR:539:C:4867, V-A:TYR:539:CZ:4877, V-A:TYR:539:CE1:4875, V-A:PRO:540:CB:4885, V-B:PRO:482:CG:9298, V-A:PRO:540:CA:4883, V-A:PRO:540:N:4884, V-B:TRP:381:CH2:8343, V-A:TYR:539:CE2:4876, V-B:LEU:475:CD1:9229, V-B:ILE:369:CG2:8208, V-A:ALA:541:CB:4892, V-B:PRO:482:CB:9297, V-B:TRP:381:CZ2:8341, V-B:ILE:369:CD1:8210, V-A:TYR:539:CD1:4873, V-A:PRO:540:C:4881, V-A:ASN:362:CB:3176, V-B:ASP:366:CG:8184, V-B:ASP:366:CB:8183, H-A:TYR:531:OH:4795, V-B:ASP:366:CA:8181, H-A:TYR:539:OH:4878, V-B:ILE:369:CB:8207"]

$$$$
3bc_Grossjean_2025
     RDKit          3D

 28 30  0  0  0  0  0  0  0  0999 V2000
  130.5040  132.1090   54.4740 C   0  0  0  0  0  0  0  0  0  0  0  0
  131.0260  132.8040   55.6000 O   0  0  0  0  0  0  0  0  0  0  0  0
  130.5390  132.5070   56.8600 C   0  0  0  0  0  0  0  0  0  0  0  0
  129.2410  132.9350   57.1410 C   0  0  0  0  0  0  0  0  0  0  0  0
  128.6650  132.6830   58.3830 C   0  0  0  0  0  0  0  0  0  0  0  0
  129.3850  132.0030   59.3670 C   0  0  0  0  0  0  0  0  0  0  0  0
  128.7160  131.7830   60.5850 N   0  0  0  0  0  0  0  0  0  0  0  0
  129.2240  131.6940   61.8330 C   0  0  0  0  0  0  0  0  0  0  0  0
  130.4150  131.8370   62.1170 O   0  0  0  0  0  0  0  0  0  0  0  0
  128.1850  131.4340   62.9320 C   0  0  0  0  0  0  0  0  0  0  0  0
  127.0870  130.0060   62.6390 S   0  0  0  0  0  0  0  0  0  0  0  0
  126.3040  129.5960   64.1830 C   0  0  0  0  0  0  0  0  0  0  0  0
  127.1070  128.9150   65.0380 N   0  0  0  0  0  0  0  0  0  0  0  0
  126.6350  128.5410   66.2560 C   0  0  0  0  0  0  0  0  0  0  0  0
  127.5790  127.7740   67.1330 C   0  0  0  0  0  0  0  0  0  0  0  0
  127.0930  126.9250   68.1400 C   0  0  0  0  0  0  0  0  0  0  0  0
  127.9630  126.2090   68.9580 C   0  0  0  0  0  0  0  0  0  0  0  0
  129.3370  126.3350   68.7800 C   0  0  0  0  0  0  0  0  0  0  0  0
  129.8450  127.1710   67.7920 C   0  0  0  0  0  0  0  0  0  0  0  0
  128.9710  127.8860   66.9770 C   0  0  0  0  0  0  0  0  0  0  0  0
  125.3270  128.8470   66.6450 C   0  0  0  0  0  0  0  0  0  0  0  0
  124.4940  129.5690   65.7840 C   0  0  0  0  0  0  0  0  0  0  0  0
  123.0780  129.8970   66.2580 C   0  0  0  0  0  0  0  0  0  0  0  0
  124.9840  129.9700   64.5220 C   0  0  0  0  0  0  0  0  0  0  0  0
  124.1460  130.7680   63.6250 C   0  0  0  0  0  0  0  0  0  0  0  0
  123.4810  131.3980   62.9180 N   0  0  0  0  0  0  0  0  0  0  0  0
  130.6860  131.5580   59.0880 C   0  0  0  0  0  0  0  0  0  0  0  0
  131.2580  131.8120   57.8440 C   0  0  0  0  0  0  0  0  0  0  0  0
  1  2  1  0
  2  3  1  0
  3  4  2  0
  4  5  1  0
  5  6  2  0
  6  7  1  0
  7  8  1  0
  8  9  2  0
  8 10  1  0
 10 11  1  0
 11 12  1  0
 12 13  2  0
 13 14  1  0
 14 15  1  0
 15 16  2  0
 16 17  1  0
 17 18  2  0
 18 19  1  0
 19 20  2  0
 14 21  2  0
 21 22  1  0
 22 23  1  0
 22 24  2  0
 24 25  1  0
 25 26  3  0
  6 27  1  0
 27 28  2  0
 28  3  1  0
 24 12  1  0
 20 15  1  0
M  END
>  <Binding energies>  (17) 
[-8.83]

>  <Ligand effiencies>  (17) 
[-0.30448275862068963]

>  <Interactions>  (17) 
["V-B:GLU:543:CB:9878, V-B:HIS:456:CE1:9040, V-A:GLU:543:CD:4908, V-A:TYR:539:CD2:4874, V-A:TYR:539:C:4867, V-A:TYR:539:CZ:4877, H-A:TYR:539:N:4870, V-A:PRO:540:CD:4887, V-A:TYR:539:CE1:4875, V-A:PRO:540:CB:4885, V-A:PRO:540:CA:4883, V-A:PRO:540:N:4884, V-A:TYR:539:CE2:4876, V-A:ALA:541:CB:4892, V-A:TYR:539:CG:4872, V-A:TYR:539:CD1:4873, V-B:GLU:543:C:9874, V-B:ARG:545:CG:9894, V-A:TYR:539:CA:4869, V-A:HIS:456:CE1:4069, H-A:ALA:541:N:4891, V-B:GLY:453:CA:9015, V-B:ARG:545:CZ:9898, H-B:GLY:454:N:9021, V-B:GLY:454:CA:9020, V-A:GLU:543:CB:4906, V-B:GLY:453:C:9013, V-B:ARG:545:CD:9895, V-B:ILE:455:C:9023, V-B:GLY:454:C:9018"]

$$$$
3bd_Grossjean_2025
     RDKit          3D

 26 28  0  0  0  0  0  0  0  0999 V2000
  126.8880  134.0780   60.9610 C   0  0  0  0  0  0  0  0  0  0  0  0
  127.5430  132.8310   60.3710 C   0  0  0  0  0  0  0  0  0  0  0  0
  128.9360  132.7180   60.4440 C   0  0  0  0  0  0  0  0  0  0  0  0
  129.5750  131.5920   59.9120 C   0  0  0  0  0  0  0  0  0  0  0  0
  131.0630  131.4060   59.9610 C   0  0  0  0  0  0  0  0  0  0  0  0
  131.7870  131.0980   58.7980 C   0  0  0  0  0  0  0  0  0  0  0  0
  133.1670  130.9220   58.8370 C   0  0  0  0  0  0  0  0  0  0  0  0
  133.8460  131.0510   60.0450 C   0  0  0  0  0  0  0  0  0  0  0  0
  133.1520  131.3520   61.2120 C   0  0  0  0  0  0  0  0  0  0  0  0
  131.7720  131.5270   61.1690 C   0  0  0  0  0  0  0  0  0  0  0  0
  128.8580  130.5950   59.3320 N   0  0  0  0  0  0  0  0  0  0  0  0
  127.5060  130.6880   59.2510 C   0  0  0  0  0  0  0  0  0  0  0  0
  126.6820  129.3180   58.4570 S   0  0  0  0  0  0  0  0  0  0  0  0
  125.8330  129.9510   56.9790 C   0  0  0  0  0  0  0  0  0  0  0  0
  126.8180  130.3490   55.8790 C   0  0  0  0  0  0  0  0  0  0  0  0
  126.4700  130.2550   54.7020 O   0  0  0  0  0  0  0  0  0  0  0  0
  128.0300  130.7710   56.3020 N   0  0  0  0  0  0  0  0  0  0  0  0
  129.1240  131.2250   55.5420 C   0  0  0  0  0  0  0  0  0  0  0  0
  130.0030  132.0970   56.1900 C   0  0  0  0  0  0  0  0  0  0  0  0
  131.1100  132.6050   55.5160 C   0  0  0  0  0  0  0  0  0  0  0  0
  131.3340  132.2490   54.1890 C   0  0  0  0  0  0  0  0  0  0  0  0
  130.4580  131.3910   53.5280 C   0  0  0  0  0  0  0  0  0  0  0  0
  129.3510  130.8800   54.2000 C   0  0  0  0  0  0  0  0  0  0  0  0
  126.7990  131.7990   59.7600 C   0  0  0  0  0  0  0  0  0  0  0  0
  125.3390  131.8870   59.6680 C   0  0  0  0  0  0  0  0  0  0  0  0
  124.1860  131.9570   59.5970 N   0  0  0  0  0  0  0  0  0  0  0  0
  1  2  1  0
  2  3  2  0
  3  4  1  0
  4  5  1  0
  5  6  2  0
  6  7  1  0
  7  8  2  0
  8  9  1  0
  9 10  2  0
  4 11  2  0
 11 12  1  0
 12 13  1  0
 13 14  1  0
 14 15  1  0
 15 16  2  0
 15 17  1  0
 17 18  1  0
 18 19  2  0
 19 20  1  0
 20 21  2  0
 21 22  1  0
 22 23  2  0
 12 24  2  0
 24 25  1  0
 25 26  3  0
 24  2  1  0
 10  5  1  0
 23 18  1  0
M  END
>  <Binding energies>  (18) 
[-7.77]

>  <Ligand effiencies>  (18) 
[-0.28777777777777774]

>  <Interactions>  (18) 
["V-A:ILE:538:CD1:4865, V-A:TYR:539:CD2:4874, V-A:TYR:539:CZ:4877, V-A:PRO:540:CD:4887, V-A:TYR:539:CE1:4875, V-A:TYR:531:CE2:4793, V-A:PRO:540:CB:4885, V-A:PRO:540:CA:4883, V-A:PRO:540:N:4884, V-A:TYR:539:CE2:4876, V-A:TYR:539:CD1:4873, V-A:PRO:540:C:4881, V-A:ASN:362:CB:3176, V-A:ILE:538:CA:4860, V-A:ASP:366:CG:3213, V-A:LEU:363:CA:3185, V-A:MET:535:CB:4832, V-A:ASN:362:C:3172, H-B:TYR:531:OH:9767, H-A:TYR:539:OH:4878, V-A:MET:535:CG:4833"]

$$$$
3be_Grossjean_2025
     RDKit          3D

 27 29  0  0  0  0  0  0  0  0999 V2000
  131.6940  127.0890   57.2320 C   0  0  0  0  0  0  0  0  0  0  0  0
  131.9410  128.5040   57.7160 C   0  0  0  0  0  0  0  0  0  0  0  0
  133.0560  129.2350   57.3000 C   0  0  0  0  0  0  0  0  0  0  0  0
  133.2220  130.5310   57.7890 C   0  0  0  0  0  0  0  0  0  0  0  0
  132.2780  131.0600   58.6740 C   0  0  0  0  0  0  0  0  0  0  0  0
  131.1810  130.2750   59.0470 C   0  0  0  0  0  0  0  0  0  0  0  0
  130.2720  130.8600   59.9480 N   0  0  0  0  0  0  0  0  0  0  0  0
  130.5280  131.6420   61.0190 C   0  0  0  0  0  0  0  0  0  0  0  0
  131.6560  131.9720   61.3910 O   0  0  0  0  0  0  0  0  0  0  0  0
  129.2810  132.1190   61.7800 C   0  0  0  0  0  0  0  0  0  0  0  0
  128.0800  133.0670   60.7840 S   0  0  0  0  0  0  0  0  0  0  0  0
  127.6850  132.1110   59.3370 C   0  0  0  0  0  0  0  0  0  0  0  0
  128.6290  132.1780   58.3660 N   0  0  0  0  0  0  0  0  0  0  0  0
  128.4580  131.4920   57.2050 C   0  0  0  0  0  0  0  0  0  0  0  0
  129.5430  131.6310   56.1780 C   0  0  0  0  0  0  0  0  0  0  0  0
  129.5430  130.8340   55.0220 C   0  0  0  0  0  0  0  0  0  0  0  0
  130.5470  130.9570   54.0670 C   0  0  0  0  0  0  0  0  0  0  0  0
  131.5700  131.8800   54.2540 C   0  0  0  0  0  0  0  0  0  0  0  0
  131.5950  132.6800   55.3910 C   0  0  0  0  0  0  0  0  0  0  0  0
  130.5890  132.5540   56.3450 C   0  0  0  0  0  0  0  0  0  0  0  0
  127.3140  130.7150   56.9930 C   0  0  0  0  0  0  0  0  0  0  0  0
  126.3420  130.6150   57.9940 C   0  0  0  0  0  0  0  0  0  0  0  0
  125.1180  129.7410   57.7250 C   0  0  0  0  0  0  0  0  0  0  0  0
  126.5240  131.3160   59.2060 C   0  0  0  0  0  0  0  0  0  0  0  0
  125.5450  131.1820   60.2870 C   0  0  0  0  0  0  0  0  0  0  0  0
  124.7700  131.0750   61.1400 N   0  0  0  0  0  0  0  0  0  0  0  0
  131.0160  129.0050   58.5740 N   0  0  0  0  0  0  0  0  0  0  0  0
  1  2  1  0
  2  3  2  0
  3  4  1  0
  4  5  2  0
  5  6  1  0
  6  7  1  0
  7  8  1  0
  8  9  2  0
  8 10  1  0
 10 11  1  0
 11 12  1  0
 12 13  2  0
 13 14  1  0
 14 15  1  0
 15 16  2  0
 16 17  1  0
 17 18  2  0
 18 19  1  0
 19 20  2  0
 14 21  2  0
 21 22  1  0
 22 23  1  0
 22 24  2  0
 24 25  1  0
 25 26  3  0
  6 27  2  0
 27  2  1  0
 24 12  1  0
 20 15  1  0
M  END
>  <Binding energies>  (19) 
[-7.24]

>  <Ligand effiencies>  (19) 
[-0.25857142857142856]

>  <Interactions>  (19) 
["V-A:ILE:538:CD1:4865, V-A:TYR:539:CD2:4874, V-A:TYR:539:C:4867, V-A:TYR:539:CZ:4877, V-A:PRO:540:CD:4887, V-A:TYR:539:CE1:4875, V-A:TYR:531:CE2:4793, V-A:PRO:540:CB:4885, V-A:PRO:540:CA:4883, V-A:PRO:540:N:4884, V-A:LEU:363:CD1:3189, V-A:TYR:539:CE2:4876, V-A:ILE:538:CG2:4863, V-A:ALA:541:CB:4892, V-A:ASP:366:CB:3212, V-A:TYR:531:CZ:4794, V-A:PRO:540:C:4881, V-A:ILE:538:CA:4860, V-A:ASP:366:CG:3213, V-A:LEU:363:CA:3185, V-B:ASP:366:CG:8184, V-B:ASP:366:CB:8183, H-A:ALA:541:N:4891"]

$$$$
3bf_Grossjean_2025
     RDKit          3D

 26 28  0  0  0  0  0  0  0  0999 V2000
  126.8370  134.0860   61.0490 C   0  0  0  0  0  0  0  0  0  0  0  0
  127.4540  132.8440   60.4090 C   0  0  0  0  0  0  0  0  0  0  0  0
  128.8470  132.7290   60.4040 C   0  0  0  0  0  0  0  0  0  0  0  0
  129.4540  131.6000   59.8410 C   0  0  0  0  0  0  0  0  0  0  0  0
  130.9400  131.4050   59.8240 C   0  0  0  0  0  0  0  0  0  0  0  0
  131.6790  131.4270   61.0170 C   0  0  0  0  0  0  0  0  0  0  0  0
  133.0600  131.2480   61.0090 C   0  0  0  0  0  0  0  0  0  0  0  0
  133.7220  131.0440   59.8030 C   0  0  0  0  0  0  0  0  0  0  0  0
  133.0130  131.0190   58.6070 C   0  0  0  0  0  0  0  0  0  0  0  0
  131.6320  131.2000   58.6190 C   0  0  0  0  0  0  0  0  0  0  0  0
  128.7040  130.6050   59.2950 N   0  0  0  0  0  0  0  0  0  0  0  0
  127.3530  130.7140   59.2700 C   0  0  0  0  0  0  0  0  0  0  0  0
  126.5400  129.3240   58.5120 S   0  0  0  0  0  0  0  0  0  0  0  0
  125.8030  129.8880   56.9410 C   0  0  0  0  0  0  0  0  0  0  0  0
  126.8090  130.3610   55.8810 C   0  0  0  0  0  0  0  0  0  0  0  0
  126.5350  130.2970   54.6810 O   0  0  0  0  0  0  0  0  0  0  0  0
  127.9600  130.8610   56.3810 N   0  0  0  0  0  0  0  0  0  0  0  0
  129.0780  131.3620   55.6900 C   0  0  0  0  0  0  0  0  0  0  0  0
  129.4740  130.6800   54.5350 C   0  0  0  0  0  0  0  0  0  0  0  0
  130.5690  131.1360   53.7970 C   0  0  0  0  0  0  0  0  0  0  0  0
  131.2400  132.2770   54.2380 C   0  0  0  0  0  0  0  0  0  0  0  0
  130.8720  132.9650   55.3480 N   0  0  0  0  0  0  0  0  0  0  0  0
  129.8050  132.5090   56.0550 C   0  0  0  0  0  0  0  0  0  0  0  0
  126.6740  131.8160   59.8360 C   0  0  0  0  0  0  0  0  0  0  0  0
  125.2110  131.8930   59.8760 C   0  0  0  0  0  0  0  0  0  0  0  0
  124.0560  131.9560   59.9060 N   0  0  0  0  0  0  0  0  0  0  0  0
  1  2  1  0
  2  3  2  0
  3  4  1  0
  4  5  1  0
  5  6  2  0
  6  7  1  0
  7  8  2  0
  8  9  1  0
  9 10  2  0
  4 11  2  0
 11 12  1  0
 12 13  1  0
 13 14  1  0
 14 15  1  0
 15 16  2  0
 15 17  1  0
 17 18  1  0
 18 19  2  0
 19 20  1  0
 20 21  2  0
 21 22  1  0
 22 23  2  0
 12 24  2  0
 24 25  1  0
 25 26  3  0
 24  2  1  0
 10  5  1  0
 23 18  1  0
M  END
>  <Binding energies>  (20) 
[-8.04]

>  <Ligand effiencies>  (20) 
[-0.29777777777777775]

>  <Interactions>  (20) 
["V-A:ILE:538:CD1:4865, V-A:TYR:539:CD2:4874, V-A:TYR:539:C:4867, V-A:TYR:539:CZ:4877, H-A:TYR:539:N:4870, V-A:TYR:539:CE1:4875, V-A:TYR:531:CE2:4793, V-A:PRO:540:CB:4885, V-A:PRO:540:CA:4883, V-A:TYR:539:CE2:4876, V-A:TYR:539:CG:4872, V-A:TYR:531:CZ:4794, V-A:TYR:539:CD1:4873, V-A:PRO:540:C:4881, V-A:ASN:362:CB:3176, V-A:ILE:538:CA:4860, V-A:ASP:366:CG:3213, V-A:LEU:363:CA:3185, V-A:ASN:362:C:3172, H-B:TYR:531:OH:9767, H-A:TYR:539:OH:4878, V-A:MET:535:CG:4833"]

$$$$
3bg_Grossjean_2025
     RDKit          3D

 27 29  0  0  0  0  0  0  0  0999 V2000
  124.1020  124.2890   59.4570 C   0  0  0  0  0  0  0  0  0  0  0  0
  125.4390  123.7150   58.9920 C   0  0  0  0  0  0  0  0  0  0  0  0
  126.3420  123.2720   59.9630 C   0  0  0  0  0  0  0  0  0  0  0  0
  127.5770  122.7310   59.5800 C   0  0  0  0  0  0  0  0  0  0  0  0
  128.5880  122.2270   60.5730 C   0  0  0  0  0  0  0  0  0  0  0  0
  128.8130  122.9020   61.7840 C   0  0  0  0  0  0  0  0  0  0  0  0
  129.7340  122.4280   62.7130 C   0  0  0  0  0  0  0  0  0  0  0  0
  130.4520  121.2680   62.4440 C   0  0  0  0  0  0  0  0  0  0  0  0
  130.2590  120.5850   61.2490 C   0  0  0  0  0  0  0  0  0  0  0  0
  129.3380  121.0640   60.3210 C   0  0  0  0  0  0  0  0  0  0  0  0
  127.9020  122.6150   58.2650 N   0  0  0  0  0  0  0  0  0  0  0  0
  127.0350  123.0370   57.3090 C   0  0  0  0  0  0  0  0  0  0  0  0
  127.5670  122.7970   55.6210 S   0  0  0  0  0  0  0  0  0  0  0  0
  127.9190  124.4310   54.8940 C   0  0  0  0  0  0  0  0  0  0  0  0
  128.4530  125.4160   55.9390 C   0  0  0  0  0  0  0  0  0  0  0  0
  127.9270  126.5230   56.0630 O   0  0  0  0  0  0  0  0  0  0  0  0
  129.5100  125.0080   56.6610 N   0  0  0  0  0  0  0  0  0  0  0  0
  130.2880  125.8440   57.5760 C   0  0  0  0  0  0  0  0  0  0  0  0
  131.3240  125.0310   58.3430 C   0  0  0  0  0  0  0  0  0  0  0  0
  132.6610  125.0320   57.9310 C   0  0  0  0  0  0  0  0  0  0  0  0
  133.6050  124.2820   58.6260 C   0  0  0  0  0  0  0  0  0  0  0  0
  133.2130  123.5410   59.7400 C   0  0  0  0  0  0  0  0  0  0  0  0
  131.8870  123.5510   60.1690 C   0  0  0  0  0  0  0  0  0  0  0  0
  130.9430  124.3020   59.4730 C   0  0  0  0  0  0  0  0  0  0  0  0
  125.7850  123.6060   57.6280 C   0  0  0  0  0  0  0  0  0  0  0  0
  124.8560  124.0550   56.5870 C   0  0  0  0  0  0  0  0  0  0  0  0
  124.1220  124.4090   55.7660 N   0  0  0  0  0  0  0  0  0  0  0  0
  1  2  1  0
  2  3  2  0
  3  4  1  0
  4  5  1  0
  5  6  2  0
  6  7  1  0
  7  8  2  0
  8  9  1  0
  9 10  2  0
  4 11  2  0
 11 12  1  0
 12 13  1  0
 13 14  1  0
 14 15  1  0
 15 16  2  0
 15 17  1  0
 17 18  1  0
 18 19  1  0
 19 20  2  0
 20 21  1  0
 21 22  2  0
 22 23  1  0
 23 24  2  0
 12 25  2  0
 25 26  1  0
 26 27  3  0
 25  2  1  0
 10  5  1  0
 24 19  1  0
M  END
>  <Binding energies>  (21) 
[-7.58]

>  <Ligand effiencies>  (21) 
[-0.27071428571428574]

>  <Interactions>  (21) 
["V-B:ALA:541:CB:9864, V-B:TYR:539:C:9839, V-B:PRO:540:CA:9855, V-B:PRO:540:CB:9857, H-B:TYR:539:N:9842, V-B:PRO:540:N:9856, V-B:TYR:539:CD2:9846, V-A:LEU:475:CD1:4258, V-B:LEU:363:CD1:8160, V-B:TYR:539:CE2:9848, V-A:ASP:366:CB:3212, V-A:ASP:366:CG:3213, V-B:ASP:366:CG:8184, V-B:TYR:539:CZ:9849, V-A:ILE:369:CG2:3237, H-B:TYR:539:OH:9850, V-A:ASP:366:CA:3210, H-B:TYR:531:OH:9767, V-A:ASP:366:C:3208"]

$$$$
3ca_Grossjean_2025
     RDKit          3D

 31 33  0  0  0  0  0  0  0  0999 V2000
  132.7530  131.4600   57.1880 C   0  0  0  0  0  0  0  0  0  0  0  0
  132.4770  132.4940   56.0920 C   0  0  0  0  0  0  0  0  0  0  0  0
  131.0950  132.8310   56.0970 O   0  0  0  0  0  0  0  0  0  0  0  0
  130.2950  132.5230   55.0440 C   0  0  0  0  0  0  0  0  0  0  0  0
  129.9020  133.3570   54.2220 O   0  0  0  0  0  0  0  0  0  0  0  0
  129.9390  131.0650   54.9750 C   0  0  0  0  0  0  0  0  0  0  0  0
  129.6170  130.4980   53.7350 C   0  0  0  0  0  0  0  0  0  0  0  0
  129.2830  129.1500   53.6380 C   0  0  0  0  0  0  0  0  0  0  0  0
  129.2570  128.3440   54.7780 C   0  0  0  0  0  0  0  0  0  0  0  0
  128.9080  126.9970   54.5680 N   0  0  0  0  0  0  0  0  0  0  0  0
  129.6740  125.8870   54.6380 C   0  0  0  0  0  0  0  0  0  0  0  0
  130.8690  125.8640   54.9330 O   0  0  0  0  0  0  0  0  0  0  0  0
  128.9490  124.5700   54.3400 C   0  0  0  0  0  0  0  0  0  0  0  0
  127.1320  124.7310   54.3640 S   0  0  0  0  0  0  0  0  0  0  0  0
  126.5970  125.3460   55.9550 C   0  0  0  0  0  0  0  0  0  0  0  0
  126.7460  126.6810   56.1480 N   0  0  0  0  0  0  0  0  0  0  0  0
  126.3440  127.2190   57.3200 C   0  0  0  0  0  0  0  0  0  0  0  0
  126.5260  128.7180   57.4540 C   0  0  0  0  0  0  0  0  0  0  0  0
  125.7950  126.4540   58.3470 C   0  0  0  0  0  0  0  0  0  0  0  0
  125.6480  125.0710   58.1790 C   0  0  0  0  0  0  0  0  0  0  0  0
  125.0680  124.2900   59.3120 C   0  0  0  0  0  0  0  0  0  0  0  0
  125.9040  123.5450   60.1530 C   0  0  0  0  0  0  0  0  0  0  0  0
  125.3710  122.8060   61.2060 C   0  0  0  0  0  0  0  0  0  0  0  0
  123.9950  122.8060   61.4200 C   0  0  0  0  0  0  0  0  0  0  0  0
  123.1490  123.5360   60.5890 C   0  0  0  0  0  0  0  0  0  0  0  0
  123.6860  124.2730   59.5360 C   0  0  0  0  0  0  0  0  0  0  0  0
  126.0510  124.4960   56.9460 C   0  0  0  0  0  0  0  0  0  0  0  0
  125.8740  123.0630   56.6920 C   0  0  0  0  0  0  0  0  0  0  0  0
  125.7340  121.9310   56.4930 N   0  0  0  0  0  0  0  0  0  0  0  0
  129.5860  128.9020   56.0220 C   0  0  0  0  0  0  0  0  0  0  0  0
  129.9220  130.2510   56.1170 C   0  0  0  0  0  0  0  0  0  0  0  0
  1  2  1  0
  2  3  1  0
  3  4  1  0
  4  5  2  0
  4  6  1  0
  6  7  2  0
  7  8  1  0
  8  9  2  0
  9 10  1  0
 10 11  1  0
 11 12  2  0
 11 13  1  0
 13 14  1  0
 14 15  1  0
 15 16  2  0
 16 17  1  0
 17 18  1  0
 17 19  2  0
 19 20  1  0
 20 21  1  0
 21 22  2  0
 22 23  1  0
 23 24  2  0
 24 25  1  0
 25 26  2  0
 20 27  2  0
 27 28  1  0
 28 29  3  0
  9 30  1  0
 30 31  2  0
 31  6  1  0
 27 15  1  0
 26 21  1  0
M  END
>  <Binding energies>  (22) 
[-9.46]

>  <Ligand effiencies>  (22) 
[-0.295625]

>  <Interactions>  (22) 
["V-B:GLU:543:CD:9880, H-A:TYR:539:N:4870, V-A:PRO:540:CD:4887, V-A:TYR:539:CE1:4875, V-A:PRO:540:CB:4885, V-A:PRO:540:N:4884, V-A:LEU:363:CD1:3189, V-A:ILE:538:CG2:4863, V-B:PRO:540:C:9853, V-B:PRO:540:CA:9855, V-B:PRO:540:CB:9857, V-B:PRO:540:CD:9859, V-B:GLU:543:CG:9879, H-B:TYR:539:N:9842, V-B:PRO:540:N:9856, V-B:LEU:363:CD1:8160, V-A:TYR:539:CD1:4873, V-A:PRO:540:CG:4886, V-A:ILE:538:CA:4860, V-B:ALA:541:CA:9862, V-B:TYR:539:CE1:9847, V-B:ASP:366:CG:8184, V-B:TYR:539:CZ:9849, V-B:LEU:363:CA:8156, H-A:TYR:531:OH:4795, H-B:TYR:539:OH:9850, H-A:ASN:370:ND2:3248, V-A:MET:535:CE:4835, H-B:TYR:531:OH:9767, V-B:ASN:362:C:8143, V-B:ASN:362:CB:8147, V-A:MET:535:CG:4833, H-B:MET:535:SD:9806, V-B:ASN:362:CA:8145"]

$$$$
3ce_Grossjean_2025
     RDKit          3D

 27 29  0  0  0  0  0  0  0  0999 V2000
  123.0400  129.9220   66.3290 C   0  0  0  0  0  0  0  0  0  0  0  0
  124.1270  129.8660   65.2730 C   0  0  0  0  0  0  0  0  0  0  0  0
  125.4450  129.5340   65.5970 C   0  0  0  0  0  0  0  0  0  0  0  0
  126.3900  129.4920   64.5720 C   0  0  0  0  0  0  0  0  0  0  0  0
  126.0000  129.7800   63.2620 C   0  0  0  0  0  0  0  0  0  0  0  0
  124.6660  130.1150   63.0080 C   0  0  0  0  0  0  0  0  0  0  0  0
  124.3270  130.3760   61.6690 N   0  0  0  0  0  0  0  0  0  0  0  0
  124.2710  131.5700   61.0390 C   0  0  0  0  0  0  0  0  0  0  0  0
  124.5230  132.6570   61.5610 O   0  0  0  0  0  0  0  0  0  0  0  0
  123.8670  131.5230   59.5660 C   0  0  0  0  0  0  0  0  0  0  0  0
  124.9820  130.4720   58.5890 S   0  0  0  0  0  0  0  0  0  0  0  0
  126.5640  131.2840   58.6220 C   0  0  0  0  0  0  0  0  0  0  0  0
  126.8320  131.9190   59.7890 N   0  0  0  0  0  0  0  0  0  0  0  0
  128.0200  132.5540   59.9210 C   0  0  0  0  0  0  0  0  0  0  0  0
  128.2610  133.2320   61.2560 C   0  0  0  0  0  0  0  0  0  0  0  0
  128.9680  132.5910   58.9020 C   0  0  0  0  0  0  0  0  0  0  0  0
  128.6970  131.9630   57.6790 C   0  0  0  0  0  0  0  0  0  0  0  0
  129.7340  132.0520   56.6070 C   0  0  0  0  0  0  0  0  0  0  0  0
  131.0610  131.6990   56.8810 C   0  0  0  0  0  0  0  0  0  0  0  0
  132.0330  131.7860   55.8890 C   0  0  0  0  0  0  0  0  0  0  0  0
  131.6850  132.2330   54.6170 C   0  0  0  0  0  0  0  0  0  0  0  0
  130.3710  132.5980   54.3320 C   0  0  0  0  0  0  0  0  0  0  0  0
  129.4010  132.5090   55.3250 C   0  0  0  0  0  0  0  0  0  0  0  0
  127.4620  131.2830   57.5290 C   0  0  0  0  0  0  0  0  0  0  0  0
  127.1300  130.5950   56.2780 C   0  0  0  0  0  0  0  0  0  0  0  0
  126.8690  130.0520   55.2900 N   0  0  0  0  0  0  0  0  0  0  0  0
  123.7330  130.1500   64.0050 N   0  0  0  0  0  0  0  0  0  0  0  0
  1  2  1  0
  2  3  2  0
  3  4  1  0
  4  5  2  0
  5  6  1  0
  6  7  1  0
  7  8  1  0
  8  9  2  0
  8 10  1  0
 10 11  1  0
 11 12  1  0
 12 13  2  0
 13 14  1  0
 14 15  1  0
 14 16  2  0
 16 17  1  0
 17 18  1  0
 18 19  2  0
 19 20  1  0
 20 21  2  0
 21 22  1  0
 22 23  2  0
 17 24  2  0
 24 25  1  0
 25 26  3  0
  6 27  2  0
 27  2  1  0
 24 12  1  0
 23 18  1  0
M  END
>  <Binding energies>  (23) 
[-8.67]

>  <Ligand effiencies>  (23) 
[-0.30964285714285716]

>  <Interactions>  (23) 
["V-A:ILE:538:CD1:4865, V-A:TYR:539:CD2:4874, V-A:TYR:539:C:4867, V-A:TYR:539:CZ:4877, V-A:TYR:539:CE1:4875, V-A:TYR:531:CE2:4793, V-A:PRO:540:CA:4883, V-A:PRO:540:N:4884, V-A:LEU:363:CD1:3189, V-A:TYR:539:CE2:4876, V-B:ILE:369:CG2:8208, V-A:ALA:541:CB:4892, V-A:TYR:539:CG:4872, V-A:TYR:539:CD1:4873, V-A:ILE:538:CA:4860, V-B:ASP:366:CG:8184, V-B:ARG:545:CG:9894, H-B:ASP:366:OD1:8185, V-B:GLY:453:CA:9015, H-B:ARG:545:NH1:9899, H-B:ARG:545:NH2:9900, V-B:ARG:545:CZ:9898, H-B:GLY:454:N:9021, V-B:GLY:454:CA:9020, H-B:ARG:545:NE:9896, V-B:GLY:453:C:9013, V-B:ARG:545:CD:9895, H-B:TYR:531:OH:9767, H-A:TYR:539:OH:4878, H-B:ASP:366:OD2:8186, V-B:ILE:455:C:9023, V-B:GLY:454:C:9018"]

$$$$
3cj_Grossjean_2025
     RDKit          3D

 25 27  0  0  0  0  0  0  0  0999 V2000
  127.9980  133.4870   61.2770 C   0  0  0  0  0  0  0  0  0  0  0  0
  127.8800  132.7320   59.9670 C   0  0  0  0  0  0  0  0  0  0  0  0
  128.8780  132.7970   58.9970 C   0  0  0  0  0  0  0  0  0  0  0  0
  128.7390  132.0650   57.8100 C   0  0  0  0  0  0  0  0  0  0  0  0
  129.8610  132.1120   56.8280 C   0  0  0  0  0  0  0  0  0  0  0  0
  131.1580  131.7500   57.2120 C   0  0  0  0  0  0  0  0  0  0  0  0
  132.2070  131.8080   56.2990 C   0  0  0  0  0  0  0  0  0  0  0  0
  131.9630  132.2330   54.9960 C   0  0  0  0  0  0  0  0  0  0  0  0
  130.6810  132.6050   54.6020 C   0  0  0  0  0  0  0  0  0  0  0  0
  129.6330  132.5470   55.5170 C   0  0  0  0  0  0  0  0  0  0  0  0
  127.5590  131.3030   57.6230 C   0  0  0  0  0  0  0  0  0  0  0  0
  127.3410  130.5390   56.3900 C   0  0  0  0  0  0  0  0  0  0  0  0
  127.1710  129.9350   55.4170 N   0  0  0  0  0  0  0  0  0  0  0  0
  126.6010  131.2920   58.6610 C   0  0  0  0  0  0  0  0  0  0  0  0
  125.1410  130.2740   58.6120 S   0  0  0  0  0  0  0  0  0  0  0  0
  123.8490  131.2720   59.4190 C   0  0  0  0  0  0  0  0  0  0  0  0
  124.0880  131.4040   60.9270 C   0  0  0  0  0  0  0  0  0  0  0  0
  123.9500  132.5020   61.4700 O   0  0  0  0  0  0  0  0  0  0  0  0
  124.4060  130.2560   61.5650 N   0  0  0  0  0  0  0  0  0  0  0  0
  124.5390  130.0800   62.9320 C   0  0  0  0  0  0  0  0  0  0  0  0
  123.6400  130.2970   63.8670 N   0  0  0  0  0  0  0  0  0  0  0  0
  124.1020  129.9910   65.0630 C   0  0  0  0  0  0  0  0  0  0  0  0
  125.4080  129.5140   65.1160 C   0  0  0  0  0  0  0  0  0  0  0  0
  126.0590  129.4680   63.5040 S   0  0  0  0  0  0  0  0  0  0  0  0
  126.7640  131.9860   59.8160 N   0  0  0  0  0  0  0  0  0  0  0  0
  1  2  1  0
  2  3  2  0
  3  4  1  0
  4  5  1  0
  5  6  2  0
  6  7  1  0
  7  8  2  0
  8  9  1  0
  9 10  2  0
  4 11  2  0
 11 12  1  0
 12 13  3  0
 11 14  1  0
 14 15  1  0
 15 16  1  0
 16 17  1  0
 17 18  2  0
 17 19  1  0
 19 20  1  0
 20 21  2  0
 21 22  1  0
 22 23  2  0
 23 24  1  0
 14 25  2  0
 25  2  1  0
 10  5  1  0
 24 20  1  0
M  END
>  <Binding energies>  (24) 
[-7.9]

>  <Ligand effiencies>  (24) 
[-0.3038461538461539]

>  <Interactions>  (24) 
["V-A:ILE:538:CD1:4865, V-A:TYR:539:CD2:4874, V-A:TYR:539:C:4867, V-A:TYR:539:CZ:4877, V-A:PRO:540:CD:4887, V-A:TYR:539:CE1:4875, V-A:TYR:531:CE2:4793, V-A:PRO:540:CB:4885, V-A:PRO:540:CA:4883, V-A:PRO:540:N:4884, V-A:LEU:363:CD1:3189, V-A:TYR:539:CE2:4876, V-A:ILE:538:CG2:4863, V-B:ILE:369:CG2:8208, V-A:ALA:541:CB:4892, V-B:ILE:369:CD1:8210, V-A:TYR:539:CG:4872, V-A:TYR:539:CD1:4873, V-A:ILE:538:CA:4860, V-B:ASP:366:CG:8184, V-B:ASP:366:CB:8183, H-B:ASP:366:OD1:8185, H-B:ARG:545:NH1:9899, H-B:ARG:545:NH2:9900, V-B:ARG:545:CZ:9898, H-B:GLY:454:N:9021, V-B:GLY:454:CA:9020, V-B:ARG:545:CD:9895, V-B:ASP:366:CA:8181, H-B:TYR:531:OH:9767, H-A:TYR:539:OH:4878, H-B:ASP:366:OD2:8186"]

$$$$
4ba_Grossjean_2025
     RDKit          3D

 28 30  0  0  0  0  0  0  0  0999 V2000
  126.3050  128.1240   66.5520 C   0  0  0  0  0  0  0  0  0  0  0  0
  125.2410  129.1480   66.9900 C   0  0  0  0  0  0  0  0  0  0  0  0
  124.5470  129.9040   65.8390 C   0  0  0  0  0  0  0  0  0  0  0  0
  123.3700  130.2520   65.9630 O   0  0  0  0  0  0  0  0  0  0  0  0
  125.3530  130.1880   64.6050 C   0  0  0  0  0  0  0  0  0  0  0  0
  126.7160  130.4870   64.7280 C   0  0  0  0  0  0  0  0  0  0  0  0
  127.4870  130.7560   63.6000 C   0  0  0  0  0  0  0  0  0  0  0  0
  126.9140  130.7280   62.3280 C   0  0  0  0  0  0  0  0  0  0  0  0
  127.7820  131.0240   61.2600 N   0  0  0  0  0  0  0  0  0  0  0  0
  128.9900  131.6390   61.2620 C   0  0  0  0  0  0  0  0  0  0  0  0
  129.5290  132.1010   62.2690 O   0  0  0  0  0  0  0  0  0  0  0  0
  129.6360  131.7520   59.9530 C   0  0  0  0  0  0  0  0  0  0  0  0
  128.9090  132.7400   58.6880 S   0  0  0  0  0  0  0  0  0  0  0  0
  130.1740  132.3110   57.5610 C   0  0  0  0  0  0  0  0  0  0  0  0
  130.1840  132.7830   56.3160 N   0  0  0  0  0  0  0  0  0  0  0  0
  131.2120  132.3800   55.5350 C   0  0  0  0  0  0  0  0  0  0  0  0
  131.1990  132.9230   54.1170 C   0  0  0  0  0  0  0  0  0  0  0  0
  132.2250  131.5280   55.9680 C   0  0  0  0  0  0  0  0  0  0  0  0
  132.2200  131.0270   57.2800 C   0  0  0  0  0  0  0  0  0  0  0  0
  133.3570  130.0940   57.7110 C   0  0  0  0  0  0  0  0  0  0  0  0
  134.2760  129.9170   56.7600 F   0  0  0  0  0  0  0  0  0  0  0  0
  133.9780  130.6000   58.7770 F   0  0  0  0  0  0  0  0  0  0  0  0
  132.8630  128.8940   58.0180 F   0  0  0  0  0  0  0  0  0  0  0  0
  131.1450  131.4290   58.1270 C   0  0  0  0  0  0  0  0  0  0  0  0
  130.8040  131.1200   59.4950 C   0  0  0  0  0  0  0  0  0  0  0  0
  131.5610  130.2820   60.2740 N   0  0  0  0  0  0  0  0  0  0  0  0
  125.5480  130.4360   62.1970 C   0  0  0  0  0  0  0  0  0  0  0  0
  124.7780  130.1680   63.3260 C   0  0  0  0  0  0  0  0  0  0  0  0
  1  2  1  0
  2  3  1  0
  3  4  2  0
  3  5  1  0
  5  6  2  0
  6  7  1  0
  7  8  2  0
  8  9  1  0
  9 10  1  0
 10 11  2  0
 10 12  1  0
 12 13  1  0
 13 14  1  0
 14 15  2  0
 15 16  1  0
 16 17  1  0
 16 18  2  0
 18 19  1  0
 19 20  1  0
 20 21  1  0
 20 22  1  0
 20 23  1  0
 19 24  2  0
 24 25  1  0
 25 26  1  0
  8 27  1  0
 27 28  2  0
 28  5  1  0
 25 12  2  0
 24 14  1  0
M  END
>  <Binding energies>  (25) 
[-7.86]

>  <Ligand effiencies>  (25) 
[-0.2535483870967742]

>  <Interactions>  (25) 
["V-B:HIS:456:CE1:9040, H-A:GLU:543:OE1:4909, V-A:ILE:538:CD1:4865, V-A:TYR:539:CD2:4874, V-A:TYR:539:C:4867, H-A:TYR:539:N:4870, V-A:TYR:531:CE2:4793, V-A:PRO:540:CB:4885, V-A:PRO:540:CA:4883, V-A:PRO:540:N:4884, V-A:LEU:363:CD1:3189, V-A:TYR:539:CE2:4876, V-A:ILE:538:CG2:4863, V-A:TYR:539:CG:4872, V-A:ASP:366:CB:3212, V-A:TYR:531:CZ:4794, V-A:ILE:538:C:4858, V-A:ILE:538:CA:4860, V-A:LEU:363:CG:3188, V-A:LEU:363:CB:3187, V-A:ASP:366:CG:3213, V-A:VAL:537:C:4850, V-A:LEU:363:CA:3185, V-B:ARG:545:CG:9894, H-A:ALA:541:N:4891, H-B:TYR:484:OH:9319, V-B:ARG:545:CZ:9898, H-B:GLY:454:N:9021, H-B:ILE:455:N:9026, H-B:ARG:545:NE:9896, V-B:ARG:545:CD:9895, V-A:ASN:362:C:3172, V-A:LEU:363:C:3183, H-A:ASP:366:OD1:3214, V-B:TYR:484:CZ:9318, V-A:ILE:538:CG1:4864, V-A:ILE:538:CB:4862"]

$$$$
4bb_Grossjean_2025
     RDKit          3D

 27 29  0  0  0  0  0  0  0  0999 V2000
  124.9670  128.8140   66.9610 C   0  0  0  0  0  0  0  0  0  0  0  0
  124.5370  129.7790   65.8540 C   0  0  0  0  0  0  0  0  0  0  0  0
  123.4130  130.2780   65.9240 O   0  0  0  0  0  0  0  0  0  0  0  0
  125.5010  130.0570   64.7390 C   0  0  0  0  0  0  0  0  0  0  0  0
  125.0240  130.5910   63.5360 C   0  0  0  0  0  0  0  0  0  0  0  0
  125.8970  130.8570   62.4850 C   0  0  0  0  0  0  0  0  0  0  0  0
  127.2630  130.6020   62.6190 C   0  0  0  0  0  0  0  0  0  0  0  0
  128.0550  130.9060   61.4940 N   0  0  0  0  0  0  0  0  0  0  0  0
  129.2060  131.6160   61.4050 C   0  0  0  0  0  0  0  0  0  0  0  0
  129.7560  132.1640   62.3600 O   0  0  0  0  0  0  0  0  0  0  0  0
  129.7680  131.7270   60.0560 C   0  0  0  0  0  0  0  0  0  0  0  0
  128.9600  132.7110   58.8370 S   0  0  0  0  0  0  0  0  0  0  0  0
  130.1570  132.2880   57.6350 C   0  0  0  0  0  0  0  0  0  0  0  0
  130.0950  132.7650   56.3930 N   0  0  0  0  0  0  0  0  0  0  0  0
  131.0770  132.3660   55.5530 C   0  0  0  0  0  0  0  0  0  0  0  0
  130.9870  132.9230   54.1440 C   0  0  0  0  0  0  0  0  0  0  0  0
  132.1100  131.5090   55.9210 C   0  0  0  0  0  0  0  0  0  0  0  0
  132.1820  131.0030   57.2280 C   0  0  0  0  0  0  0  0  0  0  0  0
  133.3380  130.0630   57.5870 C   0  0  0  0  0  0  0  0  0  0  0  0
  134.1800  129.8600   56.5710 F   0  0  0  0  0  0  0  0  0  0  0  0
  134.0430  130.5790   58.5940 F   0  0  0  0  0  0  0  0  0  0  0  0
  132.8570  128.8740   57.9500 F   0  0  0  0  0  0  0  0  0  0  0  0
  131.1600  131.4040   58.1410 C   0  0  0  0  0  0  0  0  0  0  0  0
  130.9070  131.0980   59.5270 C   0  0  0  0  0  0  0  0  0  0  0  0
  131.7160  130.2700   60.2620 N   0  0  0  0  0  0  0  0  0  0  0  0
  127.7470  130.0600   63.8200 C   0  0  0  0  0  0  0  0  0  0  0  0
  126.8710  129.7930   64.8690 C   0  0  0  0  0  0  0  0  0  0  0  0
  1  2  1  0
  2  3  2  0
  2  4  1  0
  4  5  2  0
  5  6  1  0
  6  7  2  0
  7  8  1  0
  8  9  1  0
  9 10  2  0
  9 11  1  0
 11 12  1  0
 12 13  1  0
 13 14  2  0
 14 15  1  0
 15 16  1  0
 15 17  2  0
 17 18  1  0
 18 19  1  0
 19 20  1  0
 19 21  1  0
 19 22  1  0
 18 23  2  0
 23 24  1  0
 24 25  1  0
  7 26  1  0
 26 27  2  0
 27  4  1  0
 24 11  2  0
 23 13  1  0
M  END
>  <Binding energies>  (26) 
[-8.14]

>  <Ligand effiencies>  (26) 
[-0.27133333333333337]

>  <Interactions>  (26) 
["V-B:HIS:456:CE1:9040, H-A:GLU:543:OE1:4909, V-A:ILE:538:CD1:4865, V-A:TYR:539:CD2:4874, V-A:TYR:539:C:4867, H-A:TYR:539:N:4870, V-A:TYR:531:CE2:4793, V-A:PRO:540:CB:4885, V-A:PRO:540:CA:4883, V-A:PRO:540:N:4884, V-A:LEU:363:CD1:3189, V-A:TYR:539:CE2:4876, V-A:ILE:538:CG2:4863, V-A:ASP:366:CB:3212, V-A:TYR:531:CZ:4794, V-A:ILE:538:C:4858, V-A:ILE:538:CA:4860, V-A:LEU:363:CG:3188, V-A:LEU:363:CB:3187, V-A:ASP:366:CG:3213, V-A:VAL:537:C:4850, V-A:LEU:363:CA:3185, V-B:ARG:545:CG:9894, H-A:ALA:541:N:4891, H-B:TYR:484:OH:9319, V-B:ARG:545:CZ:9898, H-B:GLY:454:N:9021, H-B:ILE:455:N:9026, H-B:ARG:545:NE:9896, V-B:ARG:545:CD:9895, V-A:ASN:362:C:3172, H-A:ASP:366:OD1:3214, V-A:ILE:538:CB:4862"]

$$$$
4bd_Grossjean_2025
     RDKit          3D

 24 26  0  0  0  0  0  0  0  0999 V2000
  127.1350  123.1750   53.7930 C   0  0  0  0  0  0  0  0  0  0  0  0
  126.7540  123.4610   55.2340 C   0  0  0  0  0  0  0  0  0  0  0  0
  125.6250  124.2130   55.5440 C   0  0  0  0  0  0  0  0  0  0  0  0
  125.2860  124.4710   56.8810 C   0  0  0  0  0  0  0  0  0  0  0  0
  124.0350  125.3070   57.1720 C   0  0  0  0  0  0  0  0  0  0  0  0
  123.2250  125.4190   56.1170 F   0  0  0  0  0  0  0  0  0  0  0  0
  123.3340  124.7440   58.1560 F   0  0  0  0  0  0  0  0  0  0  0  0
  124.3910  126.5400   57.5340 F   0  0  0  0  0  0  0  0  0  0  0  0
  126.1420  123.9320   57.8870 C   0  0  0  0  0  0  0  0  0  0  0  0
  126.1180  123.9840   59.3280 C   0  0  0  0  0  0  0  0  0  0  0  0
  125.1380  124.6400   60.0280 N   0  0  0  0  0  0  0  0  0  0  0  0
  127.1830  123.3070   59.9450 C   0  0  0  0  0  0  0  0  0  0  0  0
  127.4740  123.1730   61.3760 C   0  0  0  0  0  0  0  0  0  0  0  0
  126.7900  122.4390   62.0900 O   0  0  0  0  0  0  0  0  0  0  0  0
  128.5330  123.8940   61.8230 N   0  0  0  0  0  0  0  0  0  0  0  0
  129.0420  124.0180   63.1290 C   0  0  0  0  0  0  0  0  0  0  0  0
  129.3540  122.8220   63.7810 C   0  0  0  0  0  0  0  0  0  0  0  0
  129.8740  122.8400   65.0720 C   0  0  0  0  0  0  0  0  0  0  0  0
  130.0920  124.0580   65.7110 C   0  0  0  0  0  0  0  0  0  0  0  0
  129.7980  125.2580   65.0670 C   0  0  0  0  0  0  0  0  0  0  0  0
  129.2780  125.2430   63.7760 C   0  0  0  0  0  0  0  0  0  0  0  0
  128.2500  122.5730   58.7500 S   0  0  0  0  0  0  0  0  0  0  0  0
  127.2690  123.1790   57.4360 C   0  0  0  0  0  0  0  0  0  0  0  0
  127.5850  122.9360   56.1650 N   0  0  0  0  0  0  0  0  0  0  0  0
  1  2  1  0
  2  3  2  0
  3  4  1  0
  4  5  1  0
  5  6  1  0
  5  7  1  0
  5  8  1  0
  4  9  2  0
  9 10  1  0
 10 11  1  0
 10 12  2  0
 12 13  1  0
 13 14  2  0
 13 15  1  0
 15 16  1  0
 16 17  2  0
 17 18  1  0
 18 19  2  0
 19 20  1  0
 20 21  2  0
 12 22  1  0
 22 23  1  0
 23 24  2  0
 24  2  1  0
 23  9  1  0
 21 16  1  0
M  END
>  <Binding energies>  (27) 
[-6.92]

>  <Ligand effiencies>  (27) 
[-0.2562962962962963]

>  <Interactions>  (27) 
["V-B:GLU:543:CB:9878, V-B:GLU:543:CD:9880, V-B:ILE:538:CB:9834, V-B:ALA:541:CB:9864, V-B:TYR:539:C:9839, V-B:PRO:540:CA:9855, V-B:GLU:543:CG:9879, V-A:TYR:484:CE1:4345, V-B:TYR:539:CD2:9846, V-B:LEU:363:CD1:8160, V-B:ILE:538:CG2:9835, V-A:TYR:484:CZ:4347, V-B:TYR:539:CE2:9848, V-B:ILE:538:CA:9832, V-B:TYR:539:CE1:9847, V-B:ASP:366:CG:8184, V-B:TYR:531:CZ:9766, V-B:ASP:366:CB:8183, V-B:TYR:531:CE2:9765, V-B:TYR:539:CZ:9849, H-B:ALA:541:N:9863, V-B:LEU:363:CA:8156, H-B:ASP:366:OD1:8185, V-B:LEU:363:CG:8159, V-B:TYR:531:CD2:9763, V-B:GLU:543:CA:9876, H-B:GLU:543:OE2:9882, V-B:VAL:537:C:9822"]

$$$$
4be_Grossjean_2025
     RDKit          3D

 25 27  0  0  0  0  0  0  0  0999 V2000
  129.6040  126.4420   65.8710 C   0  0  0  0  0  0  0  0  0  0  0  0
  129.5980  125.1150   65.1370 C   0  0  0  0  0  0  0  0  0  0  0  0
  130.1200  123.9560   65.7180 C   0  0  0  0  0  0  0  0  0  0  0  0
  130.0830  122.7710   64.9830 C   0  0  0  0  0  0  0  0  0  0  0  0
  129.5320  122.7710   63.7000 C   0  0  0  0  0  0  0  0  0  0  0  0
  129.0210  123.9660   63.1800 C   0  0  0  0  0  0  0  0  0  0  0  0
  128.4860  123.9010   61.8810 N   0  0  0  0  0  0  0  0  0  0  0  0
  127.4360  123.1720   61.4270 C   0  0  0  0  0  0  0  0  0  0  0  0
  126.7610  122.4250   62.1380 O   0  0  0  0  0  0  0  0  0  0  0  0
  127.1480  123.3050   59.9960 C   0  0  0  0  0  0  0  0  0  0  0  0
  128.2160  122.5630   58.8060 S   0  0  0  0  0  0  0  0  0  0  0  0
  127.2520  123.1840   57.4870 C   0  0  0  0  0  0  0  0  0  0  0  0
  127.5710  122.9390   56.2170 N   0  0  0  0  0  0  0  0  0  0  0  0
  126.7480  123.4710   55.2840 C   0  0  0  0  0  0  0  0  0  0  0  0
  127.1310  123.1830   53.8440 C   0  0  0  0  0  0  0  0  0  0  0  0
  125.6240  124.2330   55.5890 C   0  0  0  0  0  0  0  0  0  0  0  0
  125.2810  124.4940   56.9250 C   0  0  0  0  0  0  0  0  0  0  0  0
  124.0330  125.3350   57.2100 C   0  0  0  0  0  0  0  0  0  0  0  0
  123.3010  124.8570   58.2200 F   0  0  0  0  0  0  0  0  0  0  0  0
  124.3890  126.5780   57.5330 F   0  0  0  0  0  0  0  0  0  0  0  0
  123.2520  125.3670   56.1300 F   0  0  0  0  0  0  0  0  0  0  0  0
  126.1310  123.9510   57.9340 C   0  0  0  0  0  0  0  0  0  0  0  0
  126.1060  124.0110   59.3750 C   0  0  0  0  0  0  0  0  0  0  0  0
  125.1420  124.6930   60.0710 N   0  0  0  0  0  0  0  0  0  0  0  0
  129.0580  125.1310   63.8910 N   0  0  0  0  0  0  0  0  0  0  0  0
  1  2  1  0
  2  3  2  0
  3  4  1  0
  4  5  2  0
  5  6  1  0
  6  7  1  0
  7  8  1  0
  8  9  2  0
  8 10  1  0
 10 11  1  0
 11 12  1  0
 12 13  2  0
 13 14  1  0
 14 15  1  0
 14 16  2  0
 16 17  1  0
 17 18  1  0
 18 19  1  0
 18 20  1  0
 18 21  1  0
 17 22  2  0
 22 23  1  0
 23 24  1  0
  6 25  2  0
 25  2  1  0
 23 10  2  0
 22 12  1  0
M  END
>  <Binding energies>  (28) 
[-7.04]

>  <Ligand effiencies>  (28) 
[-0.25142857142857145]

>  <Interactions>  (28) 
["V-B:GLU:543:CB:9878, V-A:GLU:543:CD:4908, V-B:GLU:543:CD:9880, V-B:ILE:538:CB:9834, V-B:ALA:541:CB:9864, V-B:TYR:539:C:9839, V-B:PRO:540:CA:9855, V-B:GLU:543:CG:9879, V-A:TYR:484:CE1:4345, V-B:PRO:540:N:9856, V-B:TYR:539:CD2:9846, V-B:LEU:363:CD1:8160, V-B:ILE:538:CG2:9835, V-A:TYR:484:CZ:4347, V-B:TYR:539:CE2:9848, V-B:ILE:538:CA:9832, V-B:TYR:539:CE1:9847, V-B:ASP:366:CG:8184, V-B:TYR:531:CZ:9766, V-B:ASP:366:CB:8183, V-B:TYR:531:CE2:9765, H-B:ALA:541:N:9863, V-B:LEU:363:CA:8156, H-B:ASP:366:OD1:8185, V-B:TYR:531:CD2:9763, H-B:GLU:543:OE2:9882"]

$$$$
4bg_Grossjean_2025
     RDKit          3D

 25 27  0  0  0  0  0  0  0  0999 V2000
  131.1340  132.3720   53.6390 C   0  0  0  0  0  0  0  0  0  0  0  0
  131.1950  132.0060   55.1110 C   0  0  0  0  0  0  0  0  0  0  0  0
  132.2010  131.1790   55.6030 C   0  0  0  0  0  0  0  0  0  0  0  0
  132.2420  130.8450   56.9670 C   0  0  0  0  0  0  0  0  0  0  0  0
  133.3680  129.9310   57.4630 C   0  0  0  0  0  0  0  0  0  0  0  0
  134.1080  130.4900   58.4230 F   0  0  0  0  0  0  0  0  0  0  0  0
  132.8510  128.8080   57.9610 F   0  0  0  0  0  0  0  0  0  0  0  0
  134.1850  129.6310   56.4530 F   0  0  0  0  0  0  0  0  0  0  0  0
  131.2210  131.3860   57.8020 C   0  0  0  0  0  0  0  0  0  0  0  0
  130.9370  131.2640   59.2110 C   0  0  0  0  0  0  0  0  0  0  0  0
  131.7010  130.5030   60.0590 N   0  0  0  0  0  0  0  0  0  0  0  0
  129.8200  131.9990   59.6350 C   0  0  0  0  0  0  0  0  0  0  0  0
  129.2360  132.0790   60.9740 C   0  0  0  0  0  0  0  0  0  0  0  0
  129.9420  132.1550   61.9800 O   0  0  0  0  0  0  0  0  0  0  0  0
  127.8880  132.1040   61.0290 N   0  0  0  0  0  0  0  0  0  0  0  0
  127.0890  132.1660   62.2540 C   0  0  0  0  0  0  0  0  0  0  0  0
  125.8030  132.9670   62.1030 C   0  0  0  0  0  0  0  0  0  0  0  0
  125.7960  134.1500   61.3580 C   0  0  0  0  0  0  0  0  0  0  0  0
  124.6110  134.8600   61.1910 C   0  0  0  0  0  0  0  0  0  0  0  0
  123.4320  134.3790   61.7550 C   0  0  0  0  0  0  0  0  0  0  0  0
  123.4270  133.1920   62.4840 C   0  0  0  0  0  0  0  0  0  0  0  0
  124.6130  132.4820   62.6540 C   0  0  0  0  0  0  0  0  0  0  0  0
  129.0550  132.8390   58.2890 S   0  0  0  0  0  0  0  0  0  0  0  0
  130.2510  132.2260   57.1720 C   0  0  0  0  0  0  0  0  0  0  0  0
  130.2160  132.5390   55.8760 N   0  0  0  0  0  0  0  0  0  0  0  0
  1  2  1  0
  2  3  2  0
  3  4  1  0
  4  5  1  0
  5  6  1  0
  5  7  1  0
  5  8  1  0
  4  9  2  0
  9 10  1  0
 10 11  1  0
 10 12  2  0
 12 13  1  0
 13 14  2  0
 13 15  1  0
 15 16  1  0
 16 17  1  0
 17 18  2  0
 18 19  1  0
 19 20  2  0
 20 21  1  0
 21 22  2  0
 12 23  1  0
 23 24  1  0
 24 25  2  0
 25  2  1  0
 24  9  1  0
 22 17  1  0
M  END
>  <Binding energies>  (29) 
[-7.02]

>  <Ligand effiencies>  (29) 
[-0.2507142857142857]

>  <Interactions>  (29) 
["H-A:GLU:543:OE1:4909, V-A:ILE:538:CD1:4865, V-A:TYR:539:CD2:4874, V-A:TYR:539:C:4867, H-A:TYR:539:N:4870, V-A:TYR:531:CE2:4793, V-A:PRO:540:CB:4885, V-A:PRO:540:CA:4883, V-A:PRO:540:N:4884, V-A:LEU:363:CD1:3189, V-B:TRP:381:CH2:8343, V-A:TYR:539:CE2:4876, V-B:LEU:475:CD1:9229, V-B:ILE:369:CG2:8208, V-B:TRP:381:CZ2:8341, V-B:ILE:369:CD1:8210, V-A:TYR:539:CG:4872, V-A:ASP:366:CB:3212, V-A:TYR:531:CZ:4794, V-A:ILE:538:CA:4860, V-A:LEU:363:CB:3187, V-A:ASP:366:CG:3213, V-A:LEU:363:CA:3185, H-A:ALA:541:N:4891, V-B:GLY:454:CA:9020, V-A:ASN:362:C:3172, H-A:ASP:366:OD1:3214"]

$$$$
4ca_Grossjean_2025
     RDKit          3D

 34 37  0  0  0  0  0  0  0  0999 V2000
  128.5110  123.9780   54.0690 C   0  0  0  0  0  0  0  0  0  0  0  0
  127.2540  123.1500   54.3530 C   0  0  0  0  0  0  0  0  0  0  0  0
  127.4150  122.4520   55.5810 O   0  0  0  0  0  0  0  0  0  0  0  0
  126.4130  122.4050   56.4980 C   0  0  0  0  0  0  0  0  0  0  0  0
  125.2620  122.0480   56.2290 O   0  0  0  0  0  0  0  0  0  0  0  0
  126.8470  122.8270   57.8710 C   0  0  0  0  0  0  0  0  0  0  0  0
  126.2070  123.9110   58.4880 C   0  0  0  0  0  0  0  0  0  0  0  0
  126.5840  124.3230   59.7630 C   0  0  0  0  0  0  0  0  0  0  0  0
  127.6110  123.6680   60.4440 C   0  0  0  0  0  0  0  0  0  0  0  0
  127.9040  124.1620   61.7300 N   0  0  0  0  0  0  0  0  0  0  0  0
  129.0760  124.6040   62.2490 C   0  0  0  0  0  0  0  0  0  0  0  0
  130.1260  124.6890   61.6110 O   0  0  0  0  0  0  0  0  0  0  0  0
  129.0240  125.0090   63.6560 C   0  0  0  0  0  0  0  0  0  0  0  0
  129.5140  123.8840   64.9200 S   0  0  0  0  0  0  0  0  0  0  0  0
  129.2160  125.0780   66.1600 C   0  0  0  0  0  0  0  0  0  0  0  0
  129.4220  124.8080   67.4470 N   0  0  0  0  0  0  0  0  0  0  0  0
  129.1770  125.8030   68.3380 C   0  0  0  0  0  0  0  0  0  0  0  0
  129.4280  125.4710   69.7810 C   0  0  0  0  0  0  0  0  0  0  0  0
  130.1020  124.2930   70.1400 C   0  0  0  0  0  0  0  0  0  0  0  0
  130.3330  123.9760   71.4760 C   0  0  0  0  0  0  0  0  0  0  0  0
  129.8920  124.8370   72.4760 C   0  0  0  0  0  0  0  0  0  0  0  0
  129.2200  126.0100   72.1480 C   0  0  0  0  0  0  0  0  0  0  0  0
  128.9900  126.3220   70.8110 C   0  0  0  0  0  0  0  0  0  0  0  0
  128.7030  127.0560   67.9350 C   0  0  0  0  0  0  0  0  0  0  0  0
  128.4780  127.3490   66.5810 C   0  0  0  0  0  0  0  0  0  0  0  0
  127.9620  128.7440   66.2080 C   0  0  0  0  0  0  0  0  0  0  0  0
  128.5510  129.2470   65.1220 F   0  0  0  0  0  0  0  0  0  0  0  0
  126.6530  128.6910   65.9630 F   0  0  0  0  0  0  0  0  0  0  0  0
  128.1880  129.5920   67.2120 F   0  0  0  0  0  0  0  0  0  0  0  0
  128.7490  126.3180   65.6360 C   0  0  0  0  0  0  0  0  0  0  0  0
  128.6510  126.2500   64.1990 C   0  0  0  0  0  0  0  0  0  0  0  0
  128.2280  127.3070   63.4340 N   0  0  0  0  0  0  0  0  0  0  0  0
  128.2540  122.5800   59.8380 C   0  0  0  0  0  0  0  0  0  0  0  0
  127.8740  122.1670   58.5630 C   0  0  0  0  0  0  0  0  0  0  0  0
  1  2  1  0
  2  3  1  0
  3  4  1  0
  4  5  2  0
  4  6  1  0
  6  7  2  0
  7  8  1  0
  8  9  2  0
  9 10  1  0
 10 11  1  0
 11 12  2  0
 11 13  1  0
 13 14  1  0
 14 15  1  0
 15 16  2  0
 16 17  1  0
 17 18  1  0
 18 19  2  0
 19 20  1  0
 20 21  2  0
 21 22  1  0
 22 23  2  0
 17 24  2  0
 24 25  1  0
 25 26  1  0
 26 27  1  0
 26 28  1  0
 26 29  1  0
 25 30  2  0
 30 31  1  0
 31 32  1  0
  9 33  1  0
 33 34  2  0
 34  6  1  0
 31 13  2  0
 30 15  1  0
 23 18  1  0
M  END
>  <Binding energies>  (30) 
[-8.35]

>  <Ligand effiencies>  (30) 
[-0.22567567567567567]

>  <Interactions>  (30) 
["V-B:GLU:543:CB:9878, V-B:HIS:456:CE1:9040, V-A:HIS:456:CD2:4068, V-A:GLU:543:CD:4908, V-B:GLU:543:CD:9880, H-A:GLU:543:OE1:4909, V-B:ILE:538:CB:9834, V-B:TYR:539:C:9839, V-B:PRO:540:CA:9855, V-B:PRO:540:CB:9857, V-B:PRO:540:CD:9859, V-B:GLU:543:CG:9879, V-A:TYR:484:CE1:4345, H-B:TYR:539:N:9842, V-B:PRO:540:N:9856, V-B:TYR:539:CD2:9846, V-B:ILE:538:CG2:9835, V-A:TYR:484:CZ:4347, V-B:TYR:539:CE2:9848, V-B:GLU:543:C:9874, V-B:ILE:538:CA:9832, V-B:TYR:539:CE1:9847, V-B:TYR:539:CG:9844, V-B:TYR:539:CZ:9849, V-A:TYR:484:CD1:4343, V-A:HIS:456:CG:4066, V-A:TYR:484:CE2:4346, H-A:TYR:484:OH:4348, V-A:HIS:456:CE1:4069, V-A:GLU:543:CB:4906, V-B:GLU:543:CA:9876, H-B:GLU:543:OE1:9881, V-B:TYR:484:CZ:9318, H-B:GLU:543:OE2:9882, V-B:TYR:484:CE1:9316, V-A:GLU:543:CG:4907"]

$$$$
4cb_Grossjean_2025
     RDKit          3D

 33 36  0  0  0  0  0  0  0  0999 V2000
  127.5030  123.2640   54.5980 C   0  0  0  0  0  0  0  0  0  0  0  0
  127.4850  122.3850   55.7140 O   0  0  0  0  0  0  0  0  0  0  0  0
  126.4690  122.4180   56.6140 C   0  0  0  0  0  0  0  0  0  0  0  0
  125.3050  122.1140   56.3370 O   0  0  0  0  0  0  0  0  0  0  0  0
  126.9030  122.8610   57.9830 C   0  0  0  0  0  0  0  0  0  0  0  0
  126.2120  123.9040   58.6140 C   0  0  0  0  0  0  0  0  0  0  0  0
  126.5850  124.3310   59.8860 C   0  0  0  0  0  0  0  0  0  0  0  0
  127.6560  123.7320   60.5480 C   0  0  0  0  0  0  0  0  0  0  0  0
  127.9360  124.2330   61.8340 N   0  0  0  0  0  0  0  0  0  0  0  0
  129.1240  124.3980   62.4660 C   0  0  0  0  0  0  0  0  0  0  0  0
  130.2190  124.1610   61.9550 O   0  0  0  0  0  0  0  0  0  0  0  0
  129.0360  124.9130   63.8360 C   0  0  0  0  0  0  0  0  0  0  0  0
  129.5160  123.9000   65.1960 S   0  0  0  0  0  0  0  0  0  0  0  0
  129.1740  125.1830   66.3320 C   0  0  0  0  0  0  0  0  0  0  0  0
  129.3560  125.0200   67.6400 N   0  0  0  0  0  0  0  0  0  0  0  0
  129.0720  126.0780   68.4440 C   0  0  0  0  0  0  0  0  0  0  0  0
  129.2920  125.8660   69.9130 C   0  0  0  0  0  0  0  0  0  0  0  0
  129.0440  126.8980   70.8330 C   0  0  0  0  0  0  0  0  0  0  0  0
  129.2500  126.7090   72.1970 C   0  0  0  0  0  0  0  0  0  0  0  0
  129.7070  125.4810   72.6630 C   0  0  0  0  0  0  0  0  0  0  0  0
  129.9640  124.4420   71.7730 C   0  0  0  0  0  0  0  0  0  0  0  0
  129.7590  124.6360   70.4100 C   0  0  0  0  0  0  0  0  0  0  0  0
  128.5880  127.2870   67.9310 C   0  0  0  0  0  0  0  0  0  0  0  0
  128.3900  127.4680   66.5530 C   0  0  0  0  0  0  0  0  0  0  0  0
  127.8590  128.8190   66.0590 C   0  0  0  0  0  0  0  0  0  0  0  0
  128.5170  129.2810   64.9930 F   0  0  0  0  0  0  0  0  0  0  0  0
  126.5770  128.6990   65.7140 F   0  0  0  0  0  0  0  0  0  0  0  0
  127.9720  129.7300   67.0240 F   0  0  0  0  0  0  0  0  0  0  0  0
  128.7000  126.3700   65.7000 C   0  0  0  0  0  0  0  0  0  0  0  0
  128.6360  126.1870   64.2700 C   0  0  0  0  0  0  0  0  0  0  0  0
  128.2190  127.1750   63.4150 N   0  0  0  0  0  0  0  0  0  0  0  0
  128.3510  122.6850   59.9240 C   0  0  0  0  0  0  0  0  0  0  0  0
  127.9760  122.2570   58.6540 C   0  0  0  0  0  0  0  0  0  0  0  0
  1  2  1  0
  2  3  1  0
  3  4  2  0
  3  5  1  0
  5  6  2  0
  6  7  1  0
  7  8  2  0
  8  9  1  0
  9 10  1  0
 10 11  2  0
 10 12  1  0
 12 13  1  0
 13 14  1  0
 14 15  2  0
 15 16  1  0
 16 17  1  0
 17 18  2  0
 18 19  1  0
 19 20  2  0
 20 21  1  0
 21 22  2  0
 16 23  2  0
 23 24  1  0
 24 25  1  0
 25 26  1  0
 25 27  1  0
 25 28  1  0
 24 29  2  0
 29 30  1  0
 30 31  1  0
  8 32  1  0
 32 33  2  0
 33  5  1  0
 30 12  2  0
 29 14  1  0
 22 17  1  0
M  END
>  <Binding energies>  (31) 
[-8.11]

>  <Ligand effiencies>  (31) 
[-0.22527777777777777]

>  <Interactions>  (31) 
["V-B:GLU:543:CB:9878, V-B:HIS:456:CE1:9040, V-A:HIS:456:CD2:4068, V-A:GLU:543:CD:4908, V-B:GLU:543:CD:9880, H-A:GLU:543:OE1:4909, V-B:ILE:538:CB:9834, V-B:TYR:539:C:9839, V-B:PRO:540:CA:9855, V-B:PRO:540:CD:9859, V-B:GLU:543:CG:9879, V-A:TYR:484:CE1:4345, H-B:TYR:539:N:9842, V-B:PRO:540:N:9856, V-B:TYR:539:CD2:9846, V-B:ILE:538:CG2:9835, V-A:TYR:484:CZ:4347, V-B:TYR:539:CE2:9848, V-B:ILE:538:CA:9832, V-B:TYR:539:CE1:9847, V-B:TYR:539:CG:9844, V-B:TYR:539:CZ:9849, V-B:TYR:539:CD1:9845, V-A:HIS:456:CG:4066, H-A:TYR:484:OH:4348, V-A:HIS:456:CE1:4069, V-A:GLU:543:CB:4906, V-B:GLU:543:CA:9876, H-B:GLU:543:OE1:9881, V-B:TYR:484:CZ:9318, H-B:GLU:543:OE2:9882, V-B:TYR:484:CE1:9316, V-A:GLU:543:CG:4907"]

$$$$
4cc_Grossjean_2025
     RDKit          3D

 31 34  0  0  0  0  0  0  0  0999 V2000
  126.4500  123.2010   55.4810 C   0  0  0  0  0  0  0  0  0  0  0  0
  126.3390  122.2830   56.5630 O   0  0  0  0  0  0  0  0  0  0  0  0
  126.7890  122.6580   57.8150 C   0  0  0  0  0  0  0  0  0  0  0  0
  126.0940  123.6910   58.4420 C   0  0  0  0  0  0  0  0  0  0  0  0
  126.4720  124.1360   59.7060 C   0  0  0  0  0  0  0  0  0  0  0  0
  127.5630  123.5570   60.3570 C   0  0  0  0  0  0  0  0  0  0  0  0
  127.8610  124.0620   61.6370 N   0  0  0  0  0  0  0  0  0  0  0  0
  129.0680  124.3280   62.1930 C   0  0  0  0  0  0  0  0  0  0  0  0
  130.1420  124.1950   61.6050 O   0  0  0  0  0  0  0  0  0  0  0  0
  129.0300  124.8040   63.5790 C   0  0  0  0  0  0  0  0  0  0  0  0
  129.5160  123.7380   64.8970 S   0  0  0  0  0  0  0  0  0  0  0  0
  129.2040  124.9860   66.0800 C   0  0  0  0  0  0  0  0  0  0  0  0
  129.4000  124.7750   67.3800 N   0  0  0  0  0  0  0  0  0  0  0  0
  129.1400  125.8080   68.2230 C   0  0  0  0  0  0  0  0  0  0  0  0
  129.3670  125.5400   69.6820 C   0  0  0  0  0  0  0  0  0  0  0  0
  128.9670  126.4720   70.6540 C   0  0  0  0  0  0  0  0  0  0  0  0
  129.1760  126.2310   72.0100 C   0  0  0  0  0  0  0  0  0  0  0  0
  129.7910  125.0510   72.4140 C   0  0  0  0  0  0  0  0  0  0  0  0
  130.2010  124.1130   71.4720 C   0  0  0  0  0  0  0  0  0  0  0  0
  129.9910  124.3580   70.1180 C   0  0  0  0  0  0  0  0  0  0  0  0
  128.6690  127.0400   67.7590 C   0  0  0  0  0  0  0  0  0  0  0  0
  128.4570  127.2720   66.3900 C   0  0  0  0  0  0  0  0  0  0  0  0
  127.9450  128.6490   65.9510 C   0  0  0  0  0  0  0  0  0  0  0  0
  128.5840  129.1300   64.8820 F   0  0  0  0  0  0  0  0  0  0  0  0
  126.6520  128.5710   65.6400 F   0  0  0  0  0  0  0  0  0  0  0  0
  128.1070  129.5270   66.9410 F   0  0  0  0  0  0  0  0  0  0  0  0
  128.7360  126.1990   65.4960 C   0  0  0  0  0  0  0  0  0  0  0  0
  128.6420  126.0630   64.0630 C   0  0  0  0  0  0  0  0  0  0  0  0
  128.2130  127.0810   63.2490 N   0  0  0  0  0  0  0  0  0  0  0  0
  128.2600  122.5090   59.7380 C   0  0  0  0  0  0  0  0  0  0  0  0
  127.8770  122.0670   58.4750 C   0  0  0  0  0  0  0  0  0  0  0  0
  1  2  1  0
  2  3  1  0
  3  4  2  0
  4  5  1  0
  5  6  2  0
  6  7  1  0
  7  8  1  0
  8  9  2  0
  8 10  1  0
 10 11  1  0
 11 12  1  0
 12 13  2  0
 13 14  1  0
 14 15  1  0
 15 16  2  0
 16 17  1  0
 17 18  2  0
 18 19  1  0
 19 20  2  0
 14 21  2  0
 21 22  1  0
 22 23  1  0
 23 24  1  0
 23 25  1  0
 23 26  1  0
 22 27  2  0
 27 28  1  0
 28 29  1  0
  6 30  1  0
 30 31  2  0
 31  3  1  0
 28 10  2  0
 27 12  1  0
 20 15  1  0
M  END
>  <Binding energies>  (32) 
[-7.3]

>  <Ligand effiencies>  (32) 
[-0.21470588235294116]

>  <Interactions>  (32) 
["V-B:GLU:543:CB:9878, V-B:HIS:456:CE1:9040, V-A:HIS:456:CD2:4068, V-A:GLU:543:CD:4908, V-B:GLU:543:CD:9880, H-A:GLU:543:OE1:4909, V-B:ILE:538:CB:9834, V-B:TYR:539:C:9839, V-B:PRO:540:CA:9855, V-B:PRO:540:CB:9857, V-B:PRO:540:CD:9859, V-B:GLU:543:CG:9879, V-A:TYR:484:CE1:4345, H-B:TYR:539:N:9842, V-B:PRO:540:N:9856, V-B:TYR:539:CD2:9846, V-B:ILE:538:CG2:9835, V-A:TYR:484:CZ:4347, V-B:TYR:539:CE2:9848, V-B:GLU:543:C:9874, V-B:ILE:538:CA:9832, V-B:TYR:539:CG:9844, V-A:TYR:484:CD1:4343, V-A:HIS:456:CG:4066, V-A:TYR:484:CE2:4346, H-A:TYR:484:OH:4348, V-A:HIS:456:CE1:4069, V-A:GLU:543:CB:4906, V-B:GLU:543:CA:9876, H-B:GLU:543:OE1:9881, V-B:TYR:484:CZ:9318, H-B:GLU:543:OE2:9882, V-B:TYR:484:CE1:9316, V-A:GLU:543:CG:4907"]

$$$$
4ce_Grossjean_2025
     RDKit          3D

 30 33  0  0  0  0  0  0  0  0999 V2000
  128.5030  119.6480   73.3710 C   0  0  0  0  0  0  0  0  0  0  0  0
  129.4200  120.8170   73.0660 C   0  0  0  0  0  0  0  0  0  0  0  0
  130.6430  120.9780   73.7240 C   0  0  0  0  0  0  0  0  0  0  0  0
  131.4390  122.0730   73.3860 C   0  0  0  0  0  0  0  0  0  0  0  0
  131.0010  122.9700   72.4100 C   0  0  0  0  0  0  0  0  0  0  0  0
  129.7620  122.7520   71.7940 C   0  0  0  0  0  0  0  0  0  0  0  0
  129.3870  123.6760   70.8020 N   0  0  0  0  0  0  0  0  0  0  0  0
  129.0780  124.9900   70.9390 C   0  0  0  0  0  0  0  0  0  0  0  0
  129.1020  125.5900   72.0140 O   0  0  0  0  0  0  0  0  0  0  0  0
  128.7040  125.6810   69.7030 C   0  0  0  0  0  0  0  0  0  0  0  0
  127.4240  126.8910   69.7160 S   0  0  0  0  0  0  0  0  0  0  0  0
  127.6430  127.2070   68.0120 C   0  0  0  0  0  0  0  0  0  0  0  0
  126.9050  128.1120   67.3730 N   0  0  0  0  0  0  0  0  0  0  0  0
  127.1590  128.2990   66.0510 C   0  0  0  0  0  0  0  0  0  0  0  0
  126.3140  129.3290   65.3620 C   0  0  0  0  0  0  0  0  0  0  0  0
  126.9040  130.3200   64.5600 C   0  0  0  0  0  0  0  0  0  0  0  0
  126.1260  131.2840   63.9230 C   0  0  0  0  0  0  0  0  0  0  0  0
  124.7440  131.2680   64.0780 C   0  0  0  0  0  0  0  0  0  0  0  0
  124.1350  130.2990   64.8680 C   0  0  0  0  0  0  0  0  0  0  0  0
  124.9160  129.3390   65.5050 C   0  0  0  0  0  0  0  0  0  0  0  0
  128.1370  127.5630   65.3740 C   0  0  0  0  0  0  0  0  0  0  0  0
  128.9170  126.6030   66.0370 C   0  0  0  0  0  0  0  0  0  0  0  0
  129.9720  125.8330   65.2350 C   0  0  0  0  0  0  0  0  0  0  0  0
  129.6780  124.5400   65.0880 F   0  0  0  0  0  0  0  0  0  0  0  0
  130.0810  126.3590   64.0140 F   0  0  0  0  0  0  0  0  0  0  0  0
  131.1500  125.9070   65.8530 F   0  0  0  0  0  0  0  0  0  0  0  0
  128.6700  126.4090   67.4270 C   0  0  0  0  0  0  0  0  0  0  0  0
  129.2590  125.5430   68.4190 C   0  0  0  0  0  0  0  0  0  0  0  0
  130.2710  124.6650   68.1300 N   0  0  0  0  0  0  0  0  0  0  0  0
  128.9800  121.6810   72.1150 N   0  0  0  0  0  0  0  0  0  0  0  0
  1  2  1  0
  2  3  2  0
  3  4  1  0
  4  5  2  0
  5  6  1  0
  6  7  1  0
  7  8  1  0
  8  9  2  0
  8 10  1  0
 10 11  1  0
 11 12  1  0
 12 13  2  0
 13 14  1  0
 14 15  1  0
 15 16  2  0
 16 17  1  0
 17 18  2  0
 18 19  1  0
 19 20  2  0
 14 21  2  0
 21 22  1  0
 22 23  1  0
 23 24  1  0
 23 25  1  0
 23 26  1  0
 22 27  2  0
 27 28  1  0
 28 29  1  0
  6 30  2  0
 30  2  1  0
 28 10  2  0
 27 12  1  0
 20 15  1  0
M  END
>  <Binding energies>  (33) 
[-8.19]

>  <Ligand effiencies>  (33) 
[-0.24818181818181817]

>  <Interactions>  (33) 
["H-B:LYS:547:NZ:9923, V-B:LYS:547:CE:9922, V-B:GLU:543:CB:9878, V-B:HIS:456:CE1:9040, V-B:GLY:544:C:9884, V-A:HIS:456:CD2:4068, V-A:GLU:543:CD:4908, V-B:GLU:543:CD:9880, V-B:LEU:475:CD1:9229, V-B:GLU:543:CG:9879, V-A:TYR:484:CE1:4345, V-A:TYR:484:CZ:4347, V-B:GLU:543:C:9874, V-A:HIS:456:CB:4065, V-A:TYR:484:CD1:4343, V-A:TYR:484:CG:4342, V-A:HIS:456:CG:4066, H-B:GLU:543:O:9875, V-A:TYR:484:CB:4341, V-A:TYR:484:CD2:4344, V-A:TYR:484:CE2:4346, H-A:TYR:484:OH:4348, V-A:HIS:456:CE1:4069, V-B:ARG:545:CZ:9898, V-B:GLY:454:CA:9020, V-B:ARG:545:CD:9895, H-A:HIS:456:ND1:4067, V-A:ASP:473:CG:4240, V-A:ASP:473:CB:4239"]

$$$$
4cf_Grossjean_2025
     RDKit          3D

 29 32  0  0  0  0  0  0  0  0999 V2000
  129.8920  124.4790   67.5540 N   0  0  0  0  0  0  0  0  0  0  0  0
  129.4490  125.7470   67.8290 C   0  0  0  0  0  0  0  0  0  0  0  0
  129.3080  126.2470   69.1330 C   0  0  0  0  0  0  0  0  0  0  0  0
  129.5500  125.5620   70.4060 C   0  0  0  0  0  0  0  0  0  0  0  0
  129.6590  126.2020   71.4530 O   0  0  0  0  0  0  0  0  0  0  0  0
  129.6280  124.2110   70.3320 N   0  0  0  0  0  0  0  0  0  0  0  0
  129.8970  123.2700   71.3440 C   0  0  0  0  0  0  0  0  0  0  0  0
  131.0180  123.2850   72.1960 C   0  0  0  0  0  0  0  0  0  0  0  0
  131.1720  122.2780   73.1520 C   0  0  0  0  0  0  0  0  0  0  0  0
  130.2010  121.2800   73.2340 C   0  0  0  0  0  0  0  0  0  0  0  0
  129.1150  121.2390   72.4210 N   0  0  0  0  0  0  0  0  0  0  0  0
  128.9800  122.2230   71.4950 C   0  0  0  0  0  0  0  0  0  0  0  0
  128.7230  127.9090   69.1180 S   0  0  0  0  0  0  0  0  0  0  0  0
  128.6630  127.9190   67.3710 C   0  0  0  0  0  0  0  0  0  0  0  0
  128.2560  128.9920   66.6950 N   0  0  0  0  0  0  0  0  0  0  0  0
  128.2280  128.8980   65.3400 C   0  0  0  0  0  0  0  0  0  0  0  0
  127.7580  130.1200   64.6060 C   0  0  0  0  0  0  0  0  0  0  0  0
  128.1810  131.4000   64.9970 C   0  0  0  0  0  0  0  0  0  0  0  0
  127.7500  132.5380   64.3210 C   0  0  0  0  0  0  0  0  0  0  0  0
  126.8870  132.4110   63.2380 C   0  0  0  0  0  0  0  0  0  0  0  0
  126.4540  131.1540   62.8250 C   0  0  0  0  0  0  0  0  0  0  0  0
  126.8890  130.0200   63.5040 C   0  0  0  0  0  0  0  0  0  0  0  0
  128.6330  127.7400   64.6700 C   0  0  0  0  0  0  0  0  0  0  0  0
  129.0680  126.6050   65.3730 C   0  0  0  0  0  0  0  0  0  0  0  0
  129.4920  125.3660   64.5760 C   0  0  0  0  0  0  0  0  0  0  0  0
  130.8160  125.2020   64.5270 F   0  0  0  0  0  0  0  0  0  0  0  0
  128.9750  124.2720   65.1340 F   0  0  0  0  0  0  0  0  0  0  0  0
  129.0570  125.4670   63.3190 F   0  0  0  0  0  0  0  0  0  0  0  0
  129.0840  126.6850   66.7950 C   0  0  0  0  0  0  0  0  0  0  0  0
  1  2  1  0
  2  3  2  0
  3  4  1  0
  4  5  2  0
  4  6  1  0
  6  7  1  0
  7  8  2  0
  8  9  1  0
  9 10  2  0
 10 11  1  0
 11 12  2  0
  3 13  1  0
 13 14  1  0
 14 15  2  0
 15 16  1  0
 16 17  1  0
 17 18  2  0
 18 19  1  0
 19 20  2  0
 20 21  1  0
 21 22  2  0
 16 23  2  0
 23 24  1  0
 24 25  1  0
 25 26  1  0
 25 27  1  0
 25 28  1  0
 24 29  2  0
 29  2  1  0
 12  7  1  0
 29 14  1  0
 22 17  1  0
M  END
>  <Binding energies>  (34) 
[-7.54]

>  <Ligand effiencies>  (34) 
[-0.235625]

>  <Interactions>  (34) 
["H-B:LYS:547:NZ:9923, V-B:LYS:547:CE:9922, V-B:GLU:543:CB:9878, V-B:HIS:456:CE1:9040, V-A:HIS:456:CD2:4068, H-A:HIS:456:NE2:4070, V-A:GLU:543:CD:4908, V-B:GLU:543:CD:9880, V-B:LEU:475:CD1:9229, V-A:ALA:541:CB:4892, V-B:GLU:543:CG:9879, V-A:TYR:484:CE1:4345, V-A:TYR:484:CZ:4347, V-B:GLU:543:C:9874, V-A:HIS:456:CB:4065, V-B:GLY:544:CA:9886, V-A:TYR:484:CD1:4343, V-A:TYR:484:CG:4342, V-A:HIS:456:CG:4066, H-B:GLU:543:O:9875, V-A:TYR:484:CB:4341, V-A:TYR:484:CD2:4344, V-A:TYR:484:CE2:4346, H-A:TYR:484:OH:4348, V-A:HIS:456:CE1:4069, V-A:GLU:543:CB:4906, V-B:GLU:543:CA:9876, H-A:HIS:456:ND1:4067, V-A:ASP:473:CG:4240, V-A:ASP:473:CB:4239, V-B:TYR:484:CZ:9318, V-B:TYR:484:CE1:9316"]

$$$$
4ci_Grossjean_2025
     RDKit          3D

 28 31  0  0  0  0  0  0  0  0999 V2000
  129.9010  124.3420   67.6870 N   0  0  0  0  0  0  0  0  0  0  0  0
  129.4060  125.5780   68.0140 C   0  0  0  0  0  0  0  0  0  0  0  0
  129.2640  126.0240   69.3380 C   0  0  0  0  0  0  0  0  0  0  0  0
  129.6000  125.3220   70.5800 C   0  0  0  0  0  0  0  0  0  0  0  0
  129.7460  125.9440   71.6350 O   0  0  0  0  0  0  0  0  0  0  0  0
  129.7450  123.9770   70.4690 N   0  0  0  0  0  0  0  0  0  0  0  0
  130.0620  123.0750   71.4760 C   0  0  0  0  0  0  0  0  0  0  0  0
  131.2390  123.1460   72.2210 C   0  0  0  0  0  0  0  0  0  0  0  0
  131.1730  122.0890   73.0980 C   0  0  0  0  0  0  0  0  0  0  0  0
  130.0150  121.4160   72.8930 O   0  0  0  0  0  0  0  0  0  0  0  0
  129.3210  122.0500   71.8620 N   0  0  0  0  0  0  0  0  0  0  0  0
  128.6100  127.6590   69.3930 S   0  0  0  0  0  0  0  0  0  0  0  0
  128.5230  127.7310   67.6480 C   0  0  0  0  0  0  0  0  0  0  0  0
  128.0690  128.8120   67.0180 N   0  0  0  0  0  0  0  0  0  0  0  0
  128.0420  128.7760   65.6610 C   0  0  0  0  0  0  0  0  0  0  0  0
  127.5190  130.0080   64.9790 C   0  0  0  0  0  0  0  0  0  0  0  0
  128.2400  131.2130   65.0170 C   0  0  0  0  0  0  0  0  0  0  0  0
  127.7610  132.3580   64.3850 C   0  0  0  0  0  0  0  0  0  0  0  0
  126.5490  132.3150   63.7060 C   0  0  0  0  0  0  0  0  0  0  0  0
  125.8120  131.1380   63.6560 C   0  0  0  0  0  0  0  0  0  0  0  0
  126.2940  129.9950   64.2900 C   0  0  0  0  0  0  0  0  0  0  0  0
  128.4560  127.6480   64.9440 C   0  0  0  0  0  0  0  0  0  0  0  0
  128.9380  126.5030   65.5980 C   0  0  0  0  0  0  0  0  0  0  0  0
  129.3750  125.3030   64.7500 C   0  0  0  0  0  0  0  0  0  0  0  0
  128.8590  125.3150   63.5200 F   0  0  0  0  0  0  0  0  0  0  0  0
  130.7020  125.3000   64.6270 F   0  0  0  0  0  0  0  0  0  0  0  0
  128.9850  124.1700   65.3360 F   0  0  0  0  0  0  0  0  0  0  0  0
  128.9810  126.5350   67.0210 C   0  0  0  0  0  0  0  0  0  0  0  0
  1  2  1  0
  2  3  2  0
  3  4  1  0
  4  5  2  0
  4  6  1  0
  6  7  1  0
  7  8  1  0
  8  9  2  0
  9 10  1  0
 10 11  1  0
  3 12  1  0
 12 13  1  0
 13 14  2  0
 14 15  1  0
 15 16  1  0
 16 17  2  0
 17 18  1  0
 18 19  2  0
 19 20  1  0
 20 21  2  0
 15 22  2  0
 22 23  1  0
 23 24  1  0
 24 25  1  0
 24 26  1  0
 24 27  1  0
 23 28  2  0
 28  2  1  0
 11  7  2  0
 28 13  1  0
 21 16  1  0
M  END
>  <Binding energies>  (35) 
[-8.48]

>  <Ligand effiencies>  (35) 
[-0.2735483870967742]

>  <Interactions>  (35) 
["H-B:LYS:547:NZ:9923, V-B:GLU:543:CB:9878, V-B:HIS:456:CE1:9040, V-A:HIS:456:CD2:4068, H-A:HIS:456:NE2:4070, V-A:GLU:543:CD:4908, V-B:GLU:543:CD:9880, V-B:LEU:475:CD1:9229, V-A:ALA:541:CB:4892, V-B:GLU:543:CG:9879, V-A:TYR:484:CE1:4345, V-A:TYR:484:CZ:4347, V-B:GLU:543:C:9874, V-A:HIS:456:CB:4065, V-A:TYR:484:CD1:4343, V-A:TYR:484:CG:4342, V-A:HIS:456:CG:4066, H-B:GLU:543:O:9875, V-A:TYR:484:CB:4341, V-A:TYR:484:CD2:4344, V-A:TYR:484:CE2:4346, H-A:TYR:484:OH:4348, V-A:HIS:456:CE1:4069, V-A:GLU:543:CB:4906, V-B:GLU:543:CA:9876, H-A:HIS:456:ND1:4067, V-A:ASP:473:CG:4240, V-A:ASP:473:CB:4239, V-B:TYR:484:CZ:9318, V-B:TYR:484:CE1:9316"]

$$$$
8a_Ghoteimi_2023
     RDKit          3D

 40 44  0  0  0  0  0  0  0  0999 V2000
  131.2170  131.9090   54.3750 C   0  0  0  0  0  0  0  0  0  0  0  0
  131.9770  132.7650   55.3920 C   0  0  0  0  0  0  0  0  0  0  0  0
  131.5970  132.3840   56.7080 O   0  0  0  0  0  0  0  0  0  0  0  0
  130.3320  132.5930   57.1610 C   0  0  0  0  0  0  0  0  0  0  0  0
  129.4990  133.2760   56.5580 O   0  0  0  0  0  0  0  0  0  0  0  0
  130.0520  131.9160   58.4710 C   0  0  0  0  0  0  0  0  0  0  0  0
  130.8130  130.8000   58.8400 C   0  0  0  0  0  0  0  0  0  0  0  0
  130.5770  130.1490   60.0480 C   0  0  0  0  0  0  0  0  0  0  0  0
  129.5760  130.5980   60.9110 C   0  0  0  0  0  0  0  0  0  0  0  0
  129.4240  129.8600   62.1010 N   0  0  0  0  0  0  0  0  0  0  0  0
  128.3030  129.5080   62.7780 C   0  0  0  0  0  0  0  0  0  0  0  0
  127.1600  129.8050   62.4290 O   0  0  0  0  0  0  0  0  0  0  0  0
  128.5280  128.7170   63.9920 C   0  0  0  0  0  0  0  0  0  0  0  0
  127.6930  129.1260   65.4900 S   0  0  0  0  0  0  0  0  0  0  0  0
  128.4780  127.8170   66.3410 C   0  0  0  0  0  0  0  0  0  0  0  0
  128.2600  127.5930   67.6360 N   0  0  0  0  0  0  0  0  0  0  0  0
  128.9260  126.5520   68.2030 C   0  0  0  0  0  0  0  0  0  0  0  0
  128.6820  126.3320   69.6620 C   0  0  0  0  0  0  0  0  0  0  0  0
  127.7600  127.1180   70.3680 C   0  0  0  0  0  0  0  0  0  0  0  0
  127.5460  126.9160   71.7280 C   0  0  0  0  0  0  0  0  0  0  0  0
  128.2430  125.9240   72.4160 C   0  0  0  0  0  0  0  0  0  0  0  0
  127.9680  125.7980   73.7640 O   0  0  0  0  0  0  0  0  0  0  0  0
  126.8920  126.5420   74.3240 C   0  0  0  0  0  0  0  0  0  0  0  0
  129.1630  125.1290   71.7180 C   0  0  0  0  0  0  0  0  0  0  0  0
  129.3770  125.3350   70.3570 C   0  0  0  0  0  0  0  0  0  0  0  0
  129.7970  125.7380   67.4750 C   0  0  0  0  0  0  0  0  0  0  0  0
  130.0160  125.9590   66.1110 C   0  0  0  0  0  0  0  0  0  0  0  0
  130.9270  125.0440   65.3770 C   0  0  0  0  0  0  0  0  0  0  0  0
  132.2730  125.3760   65.2120 C   0  0  0  0  0  0  0  0  0  0  0  0
  133.1350  124.5120   64.5420 C   0  0  0  0  0  0  0  0  0  0  0  0
  132.6690  123.2990   64.0320 C   0  0  0  0  0  0  0  0  0  0  0  0
  133.5950  122.5060   63.3840 O   0  0  0  0  0  0  0  0  0  0  0  0
  134.0210  122.8640   62.0750 C   0  0  0  0  0  0  0  0  0  0  0  0
  131.3180  122.9600   64.2040 C   0  0  0  0  0  0  0  0  0  0  0  0
  130.4580  123.8260   64.8760 C   0  0  0  0  0  0  0  0  0  0  0  0
  129.3460  127.0570   65.5010 C   0  0  0  0  0  0  0  0  0  0  0  0
  129.3690  127.6070   64.1680 C   0  0  0  0  0  0  0  0  0  0  0  0
  130.1610  127.0910   63.1720 N   0  0  0  0  0  0  0  0  0  0  0  0
  128.8120  131.7190   60.5520 C   0  0  0  0  0  0  0  0  0  0  0  0
  129.0500  132.3680   59.3430 C   0  0  0  0  0  0  0  0  0  0  0  0
  1  2  1  0
  2  3  1  0
  3  4  1  0
  4  5  2  0
  4  6  1  0
  6  7  2  0
  7  8  1  0
  8  9  2  0
  9 10  1  0
 10 11  1  0
 11 12  2  0
 11 13  1  0
 13 14  1  0
 14 15  1  0
 15 16  2  0
 16 17  1  0
 17 18  1  0
 18 19  2  0
 19 20  1  0
 20 21  2  0
 21 22  1  0
 22 23  1  0
 21 24  1  0
 24 25  2  0
 17 26  2  0
 26 27  1  0
 27 28  1  0
 28 29  2  0
 29 30  1  0
 30 31  2  0
 31 32  1  0
 32 33  1  0
 31 34  1  0
 34 35  2  0
 27 36  2  0
 36 37  1  0
 37 38  1  0
  9 39  1  0
 39 40  2  0
 40  6  1  0
 37 13  2  0
 36 15  1  0
 25 18  1  0
 35 28  1  0
M  END
>  <Binding energies>  (36) 
[-10.35]

>  <Ligand effiencies>  (36) 
[-0.24069767441860465]

>  <Interactions>  (36) 
["H-B:LYS:547:NZ:9923, V-B:LYS:547:CE:9922, V-B:HIS:456:CE1:9040, V-B:GLY:544:C:9884, V-A:HIS:456:CD2:4068, H-A:GLU:543:OE2:4910, V-A:GLU:543:CD:4908, H-A:GLU:543:OE1:4909, V-A:ILE:538:CD1:4865, V-A:TYR:539:C:4867, H-A:TYR:539:N:4870, V-A:PRO:540:CD:4887, V-A:TYR:531:CE2:4793, V-A:PRO:540:CB:4885, V-A:PRO:540:CA:4883, V-A:PRO:540:N:4884, V-A:LEU:363:CD1:3189, V-A:ILE:538:CG2:4863, V-A:TYR:484:CE1:4345, V-A:LEU:475:CD1:4258, V-B:LYS:547:CD:9921, V-A:ILE:538:CA:4860, V-A:ILE:369:CD1:3239, V-A:TYR:539:CA:4869, V-A:GLY:454:CA:4049, H-A:GLY:454:N:4050, V-A:HIS:456:CE1:4069"]

$$$$
8c_Ghoteimi_2023
     RDKit          3D

 34 38  0  0  0  0  0  0  0  0999 V2000
  123.4120  131.6440   61.9650 C   0  0  0  0  0  0  0  0  0  0  0  0
  123.8870  131.9370   63.2740 O   0  0  0  0  0  0  0  0  0  0  0  0
  124.7320  131.0410   63.9010 C   0  0  0  0  0  0  0  0  0  0  0  0
  124.1620  130.2270   64.8780 C   0  0  0  0  0  0  0  0  0  0  0  0
  124.9380  129.2960   65.5640 C   0  0  0  0  0  0  0  0  0  0  0  0
  126.3060  129.1560   65.2890 C   0  0  0  0  0  0  0  0  0  0  0  0
  127.1450  128.1600   66.0250 C   0  0  0  0  0  0  0  0  0  0  0  0
  128.1520  127.4290   65.3870 C   0  0  0  0  0  0  0  0  0  0  0  0
  128.9250  126.5060   66.0990 C   0  0  0  0  0  0  0  0  0  0  0  0
  129.9770  125.7420   65.3910 C   0  0  0  0  0  0  0  0  0  0  0  0
  131.3020  125.7970   65.8300 C   0  0  0  0  0  0  0  0  0  0  0  0
  132.2880  125.0700   65.1690 C   0  0  0  0  0  0  0  0  0  0  0  0
  131.9680  124.2830   64.0620 C   0  0  0  0  0  0  0  0  0  0  0  0
  133.0110  123.5950   63.4710 O   0  0  0  0  0  0  0  0  0  0  0  0
  133.8830  124.2850   62.5840 C   0  0  0  0  0  0  0  0  0  0  0  0
  130.6370  124.2320   63.6200 C   0  0  0  0  0  0  0  0  0  0  0  0
  129.6510  124.9590   64.2820 C   0  0  0  0  0  0  0  0  0  0  0  0
  128.6590  126.3400   67.4840 C   0  0  0  0  0  0  0  0  0  0  0  0
  129.2470  125.5030   68.4970 C   0  0  0  0  0  0  0  0  0  0  0  0
  130.2780  124.6380   68.2290 N   0  0  0  0  0  0  0  0  0  0  0  0
  128.6700  125.6570   69.7680 C   0  0  0  0  0  0  0  0  0  0  0  0
  129.0180  124.9750   71.0160 C   0  0  0  0  0  0  0  0  0  0  0  0
  128.7940  125.5050   72.1070 O   0  0  0  0  0  0  0  0  0  0  0  0
  129.5900  123.7540   70.8720 N   0  0  0  0  0  0  0  0  0  0  0  0
  130.0090  122.9040   71.8850 C   0  0  0  0  0  0  0  0  0  0  0  0
  129.4900  121.7470   72.2360 N   0  0  0  0  0  0  0  0  0  0  0  0
  130.1470  121.2070   73.2430 C   0  0  0  0  0  0  0  0  0  0  0  0
  131.2270  121.9330   73.7340 C   0  0  0  0  0  0  0  0  0  0  0  0
  131.3820  123.4030   72.8190 S   0  0  0  0  0  0  0  0  0  0  0  0
  127.3760  126.8560   69.7390 S   0  0  0  0  0  0  0  0  0  0  0  0
  127.6150  127.1410   68.0300 C   0  0  0  0  0  0  0  0  0  0  0  0
  126.8760  128.0200   67.3520 N   0  0  0  0  0  0  0  0  0  0  0  0
  126.8710  129.9760   64.3030 C   0  0  0  0  0  0  0  0  0  0  0  0
  126.0980  130.9080   63.6170 C   0  0  0  0  0  0  0  0  0  0  0  0
  1  2  1  0
  2  3  1  0
  3  4  2  0
  4  5  1  0
  5  6  2  0
  6  7  1  0
  7  8  2  0
  8  9  1  0
  9 10  1  0
 10 11  2  0
 11 12  1  0
 12 13  2  0
 13 14  1  0
 14 15  1  0
 13 16  1  0
 16 17  2  0
  9 18  2  0
 18 19  1  0
 19 20  1  0
 19 21  2  0
 21 22  1  0
 22 23  2  0
 22 24  1  0
 24 25  1  0
 25 26  2  0
 26 27  1  0
 27 28  2  0
 28 29  1  0
 21 30  1  0
 30 31  1  0
 31 32  2  0
  6 33  1  0
 33 34  2  0
 34  3  1  0
 32  7  1  0
 17 10  1  0
 31 18  1  0
 29 25  1  0
M  END
>  <Binding energies>  (37) 
[-9.3]

>  <Ligand effiencies>  (37) 
[-0.2513513513513514]

>  <Interactions>  (37) 
["H-B:LYS:547:NZ:9923, V-B:GLU:543:CB:9878, V-B:HIS:456:CE1:9040, V-B:GLY:544:C:9884, V-A:HIS:456:CD2:4068, V-A:GLU:543:CD:4908, V-B:GLU:543:CD:9880, V-B:ILE:369:CD1:8210, V-B:GLU:543:CG:9879, V-A:TYR:484:CE1:4345, V-A:TYR:484:CZ:4347, V-B:GLU:543:C:9874, V-A:HIS:456:CB:4065, V-A:TYR:484:CD1:4343, V-A:TYR:484:CG:4342, V-A:HIS:456:CG:4066, H-B:GLU:543:O:9875, V-A:TYR:484:CB:4341, V-A:TYR:484:CD2:4344, V-A:TYR:484:CE2:4346, H-A:GLY:454:N:4050, H-A:TYR:484:OH:4348, V-A:HIS:456:CE1:4069, V-B:ARG:545:CZ:9898, H-B:GLY:454:N:9021, V-B:GLY:454:CA:9020, V-B:ARG:545:CD:9895, H-A:HIS:456:ND1:4067, V-A:ASP:473:CG:4240, V-A:ASP:473:CB:4239"]

$$$$
8d_Ghoteimi_2023
     RDKit          3D

 30 33  0  0  0  0  0  0  0  0999 V2000
  131.0560  123.2310   72.2220 C   0  0  0  0  0  0  0  0  0  0  0  0
  129.7720  123.5580   71.7100 O   0  0  0  0  0  0  0  0  0  0  0  0
  129.2640  124.8100   71.8510 C   0  0  0  0  0  0  0  0  0  0  0  0
  129.1540  125.3910   72.9340 O   0  0  0  0  0  0  0  0  0  0  0  0
  128.8520  125.4130   70.5650 C   0  0  0  0  0  0  0  0  0  0  0  0
  127.5330  126.5850   70.5250 S   0  0  0  0  0  0  0  0  0  0  0  0
  127.6920  126.7630   68.7930 C   0  0  0  0  0  0  0  0  0  0  0  0
  126.9070  127.5840   68.0950 N   0  0  0  0  0  0  0  0  0  0  0  0
  127.1170  127.6490   66.7530 C   0  0  0  0  0  0  0  0  0  0  0  0
  126.2200  128.5740   65.9930 C   0  0  0  0  0  0  0  0  0  0  0  0
  126.6210  129.1300   64.7700 C   0  0  0  0  0  0  0  0  0  0  0  0
  125.7830  129.9910   64.0680 C   0  0  0  0  0  0  0  0  0  0  0  0
  124.5230  130.3200   64.5680 C   0  0  0  0  0  0  0  0  0  0  0  0
  123.7600  131.1800   63.8040 O   0  0  0  0  0  0  0  0  0  0  0  0
  123.3350  130.7680   62.5090 C   0  0  0  0  0  0  0  0  0  0  0  0
  124.1110  129.7680   65.7890 C   0  0  0  0  0  0  0  0  0  0  0  0
  124.9530  128.9060   66.4890 C   0  0  0  0  0  0  0  0  0  0  0  0
  128.1010  126.8900   66.1140 C   0  0  0  0  0  0  0  0  0  0  0  0
  128.9260  126.0300   66.8460 C   0  0  0  0  0  0  0  0  0  0  0  0
  129.9660  125.2450   66.1410 C   0  0  0  0  0  0  0  0  0  0  0  0
  131.2300  125.7960   65.9180 C   0  0  0  0  0  0  0  0  0  0  0  0
  132.2050  125.0610   65.2470 C   0  0  0  0  0  0  0  0  0  0  0  0
  131.9340  123.7690   64.7960 C   0  0  0  0  0  0  0  0  0  0  0  0
  132.9600  123.1170   64.1410 O   0  0  0  0  0  0  0  0  0  0  0  0
  133.4470  123.6460   62.9130 C   0  0  0  0  0  0  0  0  0  0  0  0
  130.6630  123.2160   65.0270 C   0  0  0  0  0  0  0  0  0  0  0  0
  129.6890  123.9520   65.6960 C   0  0  0  0  0  0  0  0  0  0  0  0
  128.7270  125.9500   68.2500 C   0  0  0  0  0  0  0  0  0  0  0  0
  129.3720  125.1890   69.2850 C   0  0  0  0  0  0  0  0  0  0  0  0
  130.4020  124.3190   69.0310 N   0  0  0  0  0  0  0  0  0  0  0  0
  1  2  1  0
  2  3  1  0
  3  4  2  0
  3  5  1  0
  5  6  1  0
  6  7  1  0
  7  8  2  0
  8  9  1  0
  9 10  1  0
 10 11  2  0
 11 12  1  0
 12 13  2  0
 13 14  1  0
 14 15  1  0
 13 16  1  0
 16 17  2  0
  9 18  2  0
 18 19  1  0
 19 20  1  0
 20 21  2  0
 21 22  1  0
 22 23  2  0
 23 24  1  0
 24 25  1  0
 23 26  1  0
 26 27  2  0
 19 28  2  0
 28 29  1  0
 29 30  1  0
 29  5  2  0
 28  7  1  0
 17 10  1  0
 27 20  1  0
M  END
>  <Binding energies>  (38) 
[-7.99]

>  <Ligand effiencies>  (38) 
[-0.2496875]

>  <Interactions>  (38) 
["H-B:LYS:547:NZ:9923, V-B:GLU:543:CB:9878, V-B:HIS:456:CE1:9040, V-B:GLY:544:C:9884, V-A:HIS:456:CD2:4068, V-A:GLU:543:CD:4908, V-B:GLU:543:CD:9880, V-B:ILE:369:CD1:8210, V-B:GLU:543:CG:9879, V-A:TYR:484:CE1:4345, V-A:TYR:484:CZ:4347, V-B:GLU:543:C:9874, V-A:HIS:456:CB:4065, V-A:TYR:484:CD1:4343, V-A:TYR:484:CG:4342, V-A:HIS:456:CG:4066, H-B:GLU:543:O:9875, V-A:TYR:484:CD2:4344, V-B:ARG:545:CG:9894, V-A:TYR:484:CE2:4346, V-A:GLY:454:CA:4049, H-A:GLY:454:N:4050, H-A:TYR:484:OH:4348, V-A:HIS:456:CE1:4069, V-B:ARG:545:CZ:9898, H-B:GLY:454:N:9021, V-B:GLY:454:CA:9020, V-B:ARG:545:CD:9895, V-B:GLU:543:CA:9876, H-A:HIS:456:ND1:4067"]

$$$$
9a_Ghoteimi_2023
     RDKit          3D

 48 54  0  0  0  0  0  0  0  0999 V2000
  131.3710  132.0670   54.3620 C   0  0  0  0  0  0  0  0  0  0  0  0
  132.2230  132.1460   55.6330 C   0  0  0  0  0  0  0  0  0  0  0  0
  131.5810  132.9890   56.5820 O   0  0  0  0  0  0  0  0  0  0  0  0
  130.2570  132.8600   56.8520 C   0  0  0  0  0  0  0  0  0  0  0  0
  129.3660  133.2810   56.1060 O   0  0  0  0  0  0  0  0  0  0  0  0
  129.9800  132.1590   58.1510 C   0  0  0  0  0  0  0  0  0  0  0  0
  130.8610  131.1640   58.5940 C   0  0  0  0  0  0  0  0  0  0  0  0
  130.6310  130.4960   59.7930 C   0  0  0  0  0  0  0  0  0  0  0  0
  129.5190  130.8070   60.5740 C   0  0  0  0  0  0  0  0  0  0  0  0
  129.3870  130.0670   61.7650 N   0  0  0  0  0  0  0  0  0  0  0  0
  128.2800  129.7320   62.4740 C   0  0  0  0  0  0  0  0  0  0  0  0
  127.1330  130.0480   62.1560 O   0  0  0  0  0  0  0  0  0  0  0  0
  128.5260  128.9370   63.6800 C   0  0  0  0  0  0  0  0  0  0  0  0
  128.2350  129.6290   65.2770 S   0  0  0  0  0  0  0  0  0  0  0  0
  128.7230  128.1440   66.0590 C   0  0  0  0  0  0  0  0  0  0  0  0
  128.7020  128.0130   67.3850 N   0  0  0  0  0  0  0  0  0  0  0  0
  129.0890  126.8130   67.8930 C   0  0  0  0  0  0  0  0  0  0  0  0
  129.0470  126.6850   69.3810 C   0  0  0  0  0  0  0  0  0  0  0  0
  129.0290  127.8250   70.1920 C   0  0  0  0  0  0  0  0  0  0  0  0
  128.9890  127.7160   71.5800 C   0  0  0  0  0  0  0  0  0  0  0  0
  128.9520  126.4610   72.2080 C   0  0  0  0  0  0  0  0  0  0  0  0
  128.9310  126.3350   73.6010 N   0  0  0  0  0  0  0  0  0  0  0  0
  130.1750  126.1700   74.3800 C   0  0  0  0  0  0  0  0  0  0  0  0
  129.9430  125.6890   75.8280 C   0  0  0  0  0  0  0  0  0  0  0  0
  129.0400  126.5570   76.4910 O   0  0  0  0  0  0  0  0  0  0  0  0
  127.7800  126.5940   75.8370 C   0  0  0  0  0  0  0  0  0  0  0  0
  127.9510  127.1070   74.3930 C   0  0  0  0  0  0  0  0  0  0  0  0
  128.9850  125.3210   71.3910 C   0  0  0  0  0  0  0  0  0  0  0  0
  129.0280  125.4320   70.0040 C   0  0  0  0  0  0  0  0  0  0  0  0
  129.5190  125.7630   67.0790 C   0  0  0  0  0  0  0  0  0  0  0  0
  129.5620  125.9030   65.6870 C   0  0  0  0  0  0  0  0  0  0  0  0
  130.0620  124.7670   64.8710 C   0  0  0  0  0  0  0  0  0  0  0  0
  129.4270  123.5240   64.9170 C   0  0  0  0  0  0  0  0  0  0  0  0
  129.8890  122.4650   64.1410 C   0  0  0  0  0  0  0  0  0  0  0  0
  130.9890  122.6270   63.2830 C   0  0  0  0  0  0  0  0  0  0  0  0
  131.4780  121.5760   62.5030 N   0  0  0  0  0  0  0  0  0  0  0  0
  132.7350  121.7620   61.7510 C   0  0  0  0  0  0  0  0  0  0  0  0
  133.3510  120.4370   61.2530 C   0  0  0  0  0  0  0  0  0  0  0  0
  132.4010  119.7180   60.4820 O   0  0  0  0  0  0  0  0  0  0  0  0
  131.2410  119.4040   61.2370 C   0  0  0  0  0  0  0  0  0  0  0  0
  130.5690  120.7020   61.7340 C   0  0  0  0  0  0  0  0  0  0  0  0
  131.6170  123.8800   63.2430 C   0  0  0  0  0  0  0  0  0  0  0  0
  131.1580  124.9370   64.0220 C   0  0  0  0  0  0  0  0  0  0  0  0
  129.1260  127.1400   65.1310 C   0  0  0  0  0  0  0  0  0  0  0  0
  128.9810  127.6130   63.7770 C   0  0  0  0  0  0  0  0  0  0  0  0
  129.2510  126.8260   62.6870 N   0  0  0  0  0  0  0  0  0  0  0  0
  128.6320  131.8050   60.1410 C   0  0  0  0  0  0  0  0  0  0  0  0
  128.8630  132.4720   58.9400 C   0  0  0  0  0  0  0  0  0  0  0  0
  1  2  1  0
  2  3  1  0
  3  4  1  0
  4  5  2  0
  4  6  1  0
  6  7  2  0
  7  8  1  0
  8  9  2  0
  9 10  1  0
 10 11  1  0
 11 12  2  0
 11 13  1  0
 13 14  1  0
 14 15  1  0
 15 16  2  0
 16 17  1  0
 17 18  1  0
 18 19  2  0
 19 20  1  0
 20 21  2  0
 21 22  1  0
 22 23  1  0
 23 24  1  0
 24 25  1  0
 25 26  1  0
 26 27  1  0
 21 28  1  0
 28 29  2  0
 17 30  2  0
 30 31  1  0
 31 32  1  0
 32 33  2  0
 33 34  1  0
 34 35  2  0
 35 36  1  0
 36 37  1  0
 37 38  1  0
 38 39  1  0
 39 40  1  0
 40 41  1  0
 35 42  1  0
 42 43  2  0
 31 44  2  0
 44 45  1  0
 45 46  1  0
  9 47  1  0
 47 48  2  0
 48  6  1  0
 45 13  2  0
 44 15  1  0
 29 18  1  0
 43 32  1  0
 27 22  1  0
 41 36  1  0
M  END
>  <Binding energies>  (39) 
[-10.87]

>  <Ligand effiencies>  (39) 
[-0.21313725490196078]

>  <Interactions>  (39) 
["V-B:GLU:543:CB:9878, V-B:HIS:456:CE1:9040, V-A:HIS:456:CD2:4068, H-A:GLU:543:OE2:4910, V-A:GLU:543:CD:4908, H-A:GLU:543:OE1:4909, V-A:ILE:538:CD1:4865, V-A:TYR:539:CD2:4874, V-A:TYR:539:C:4867, H-A:TYR:539:N:4870, V-A:PRO:540:CD:4887, V-A:TYR:531:CE2:4793, V-A:PRO:540:CB:4885, V-A:PRO:540:CA:4883, V-A:PRO:540:N:4884, V-A:LEU:363:CD1:3189, V-A:TYR:539:CE2:4876, V-B:ALA:541:CB:9864, V-A:PRO:482:CB:4326, V-B:GLU:543:CG:9879, V-A:TYR:484:CE1:4345, V-A:TRP:381:CZ2:3370, V-A:TRP:381:CH2:3372, V-A:LEU:475:CD1:4258, V-A:PRO:482:CG:4327, V-A:TYR:539:CG:4872, V-A:TYR:539:CD1:4873, V-B:LYS:547:CD:9921, V-B:GLU:543:C:9874, V-B:HIS:456:CD2:9039, V-A:ILE:538:CA:4860, V-A:ILE:369:CD1:3239, V-A:ILE:369:CG2:3237, V-A:TYR:539:CA:4869, V-A:HIS:456:CE1:4069, V-A:GLU:543:CB:4906, V-B:GLU:543:CA:9876, H-B:GLU:543:OE1:9881, H-B:GLU:543:OE2:9882"]

$$$$
9b_Ghoteimi_2023
     RDKit          3D

 42 48  0  0  0  0  0  0  0  0999 V2000
  129.8740  124.2850   67.5920 N   0  0  0  0  0  0  0  0  0  0  0  0
  129.4400  125.5590   67.8580 C   0  0  0  0  0  0  0  0  0  0  0  0
  129.2180  126.0450   69.1560 C   0  0  0  0  0  0  0  0  0  0  0  0
  129.4100  125.3560   70.4350 C   0  0  0  0  0  0  0  0  0  0  0  0
  129.3030  125.9670   71.5010 O   0  0  0  0  0  0  0  0  0  0  0  0
  129.7120  124.0360   70.3470 N   0  0  0  0  0  0  0  0  0  0  0  0
  129.9550  123.1510   71.3900 C   0  0  0  0  0  0  0  0  0  0  0  0
  131.1090  123.1940   72.1700 C   0  0  0  0  0  0  0  0  0  0  0  0
  130.9650  122.1700   73.0780 C   0  0  0  0  0  0  0  0  0  0  0  0
  129.7840  121.5440   72.8550 O   0  0  0  0  0  0  0  0  0  0  0  0
  129.1540  122.1750   71.7820 N   0  0  0  0  0  0  0  0  0  0  0  0
  128.6340  127.7080   69.1230 S   0  0  0  0  0  0  0  0  0  0  0  0
  128.6750  127.7360   67.3770 C   0  0  0  0  0  0  0  0  0  0  0  0
  128.2880  128.8070   66.6860 N   0  0  0  0  0  0  0  0  0  0  0  0
  128.3420  128.7200   65.3310 C   0  0  0  0  0  0  0  0  0  0  0  0
  127.8830  129.9280   64.5800 C   0  0  0  0  0  0  0  0  0  0  0  0
  128.2250  131.2170   65.0050 C   0  0  0  0  0  0  0  0  0  0  0  0
  127.7830  132.3390   64.3100 C   0  0  0  0  0  0  0  0  0  0  0  0
  126.9700  132.2130   63.1730 C   0  0  0  0  0  0  0  0  0  0  0  0
  126.5200  133.3320   62.4620 N   0  0  0  0  0  0  0  0  0  0  0  0
  125.2520  133.3040   61.7070 C   0  0  0  0  0  0  0  0  0  0  0  0
  124.7480  134.6990   61.2830 C   0  0  0  0  0  0  0  0  0  0  0  0
  125.7570  135.3790   60.5550 O   0  0  0  0  0  0  0  0  0  0  0  0
  126.9270  135.5620   61.3350 C   0  0  0  0  0  0  0  0  0  0  0  0
  127.4980  134.1940   61.7660 C   0  0  0  0  0  0  0  0  0  0  0  0
  126.6470  130.9190   62.7410 C   0  0  0  0  0  0  0  0  0  0  0  0
  127.0930  129.7970   63.4330 C   0  0  0  0  0  0  0  0  0  0  0  0
  128.8040  127.5770   64.6740 C   0  0  0  0  0  0  0  0  0  0  0  0
  129.2310  126.4560   65.3970 C   0  0  0  0  0  0  0  0  0  0  0  0
  129.7420  125.2770   64.6520 C   0  0  0  0  0  0  0  0  0  0  0  0
  128.9890  124.7140   63.6210 C   0  0  0  0  0  0  0  0  0  0  0  0
  129.4740  123.6220   62.9090 C   0  0  0  0  0  0  0  0  0  0  0  0
  130.7250  123.0610   63.2090 C   0  0  0  0  0  0  0  0  0  0  0  0
  131.2380  121.9740   62.4960 N   0  0  0  0  0  0  0  0  0  0  0  0
  130.3140  121.1020   61.7450 C   0  0  0  0  0  0  0  0  0  0  0  0
  130.9410  119.7480   61.3510 C   0  0  0  0  0  0  0  0  0  0  0  0
  132.1380  119.9620   60.6180 O   0  0  0  0  0  0  0  0  0  0  0  0
  133.0960  120.6870   61.3740 C   0  0  0  0  0  0  0  0  0  0  0  0
  132.5220  122.0630   61.7740 C   0  0  0  0  0  0  0  0  0  0  0  0
  131.4810  123.6470   64.2350 C   0  0  0  0  0  0  0  0  0  0  0  0
  130.9960  124.7400   64.9480 C   0  0  0  0  0  0  0  0  0  0  0  0
  129.1510  126.5130   66.8160 C   0  0  0  0  0  0  0  0  0  0  0  0
  1  2  1  0
  2  3  2  0
  3  4  1  0
  4  5  2  0
  4  6  1  0
  6  7  1  0
  7  8  1  0
  8  9  2  0
  9 10  1  0
 10 11  1  0
  3 12  1  0
 12 13  1  0
 13 14  2  0
 14 15  1  0
 15 16  1  0
 16 17  2  0
 17 18  1  0
 18 19  2  0
 19 20  1  0
 20 21  1  0
 21 22  1  0
 22 23  1  0
 23 24  1  0
 24 25  1  0
 19 26  1  0
 26 27  2  0
 15 28  2  0
 28 29  1  0
 29 30  1  0
 30 31  2  0
 31 32  1  0
 32 33  2  0
 33 34  1  0
 34 35  1  0
 35 36  1  0
 36 37  1  0
 37 38  1  0
 38 39  1  0
 33 40  1  0
 40 41  2  0
 29 42  2  0
 42  2  1  0
 11  7  2  0
 42 13  1  0
 27 16  1  0
 41 30  1  0
 25 20  1  0
 39 34  1  0
M  END
>  <Binding energies>  (40) 
[-12.25]

>  <Ligand effiencies>  (40) 
[-0.2722222222222222]

>  <Interactions>  (40) 
["H-B:LYS:547:NZ:9923, V-B:GLU:543:CB:9878, V-B:HIS:456:CE1:9040, V-A:HIS:456:CD2:4068, H-A:HIS:456:NE2:4070, V-A:GLU:543:CD:4908, V-B:GLU:543:CD:9880, V-A:TYR:539:CD2:4874, V-B:PRO:482:CG:9298, V-B:TRP:381:CH2:8343, V-B:LEU:475:CD1:9229, V-A:ALA:541:CB:4892, V-B:PRO:482:CB:9297, V-B:TRP:381:CZ2:8341, V-B:ALA:541:CB:9864, V-A:PRO:482:CB:4326, V-B:GLU:543:CG:9879, V-A:TYR:484:CE1:4345, V-A:TRP:381:CH2:3372, V-A:LEU:475:CD1:4258, V-A:TYR:484:CZ:4347, V-B:GLU:543:C:9874, V-A:HIS:456:CB:4065, V-A:ILE:369:CD1:3239, V-A:TYR:484:CD1:4343, V-A:TYR:484:CG:4342, V-A:HIS:456:CG:4066, H-B:GLU:543:O:9875, V-A:TYR:484:CB:4341, V-A:TYR:484:CD2:4344, V-A:TYR:484:CE2:4346, H-A:TYR:484:OH:4348, V-A:HIS:456:CE1:4069, V-A:GLU:543:CB:4906, V-B:GLU:543:CA:9876, H-A:HIS:456:ND1:4067, V-A:ASP:473:CB:4239, V-B:TYR:484:CZ:9318, V-B:TYR:484:CE1:9316"]

$$$$
9c_Ghoteimi_2023
     RDKit          3D

 42 48  0  0  0  0  0  0  0  0999 V2000
  129.8600  124.3010   67.5200 N   0  0  0  0  0  0  0  0  0  0  0  0
  129.4230  125.5710   67.7990 C   0  0  0  0  0  0  0  0  0  0  0  0
  129.2020  126.0450   69.1020 C   0  0  0  0  0  0  0  0  0  0  0  0
  129.3950  125.3420   70.3740 C   0  0  0  0  0  0  0  0  0  0  0  0
  129.2740  125.9360   71.4470 O   0  0  0  0  0  0  0  0  0  0  0  0
  129.7140  124.0280   70.2700 N   0  0  0  0  0  0  0  0  0  0  0  0
  129.9620  123.1450   71.3110 C   0  0  0  0  0  0  0  0  0  0  0  0
  129.3040  122.0470   71.6140 N   0  0  0  0  0  0  0  0  0  0  0  0
  129.8150  121.4530   72.6760 C   0  0  0  0  0  0  0  0  0  0  0  0
  130.9150  122.0750   73.2590 C   0  0  0  0  0  0  0  0  0  0  0  0
  131.2930  123.5140   72.3610 S   0  0  0  0  0  0  0  0  0  0  0  0
  128.6170  127.7080   69.0850 S   0  0  0  0  0  0  0  0  0  0  0  0
  128.6540  127.7520   67.3390 C   0  0  0  0  0  0  0  0  0  0  0  0
  128.2670  128.8300   66.6590 N   0  0  0  0  0  0  0  0  0  0  0  0
  128.3180  128.7560   65.3040 C   0  0  0  0  0  0  0  0  0  0  0  0
  127.8580  129.9710   64.5660 C   0  0  0  0  0  0  0  0  0  0  0  0
  128.2400  131.2540   64.9740 C   0  0  0  0  0  0  0  0  0  0  0  0
  127.8010  132.3830   64.2890 C   0  0  0  0  0  0  0  0  0  0  0  0
  126.9510  132.2710   63.1770 C   0  0  0  0  0  0  0  0  0  0  0  0
  126.5060  133.3960   62.4730 N   0  0  0  0  0  0  0  0  0  0  0  0
  125.2320  133.3810   61.7250 C   0  0  0  0  0  0  0  0  0  0  0  0
  124.7350  134.7830   61.3130 C   0  0  0  0  0  0  0  0  0  0  0  0
  125.7450  135.4590   60.5810 O   0  0  0  0  0  0  0  0  0  0  0  0
  126.9210  135.6290   61.3550 C   0  0  0  0  0  0  0  0  0  0  0  0
  127.4850  134.2540   61.7740 C   0  0  0  0  0  0  0  0  0  0  0  0
  126.5870  130.9820   62.7610 C   0  0  0  0  0  0  0  0  0  0  0  0
  127.0300  129.8530   63.4440 C   0  0  0  0  0  0  0  0  0  0  0  0
  128.7810  127.6200   64.6350 C   0  0  0  0  0  0  0  0  0  0  0  0
  129.2100  126.4930   65.3460 C   0  0  0  0  0  0  0  0  0  0  0  0
  129.7230  125.3230   64.5910 C   0  0  0  0  0  0  0  0  0  0  0  0
  130.9480  124.7460   64.9310 C   0  0  0  0  0  0  0  0  0  0  0  0
  131.4240  123.6380   64.2360 C   0  0  0  0  0  0  0  0  0  0  0  0
  130.6880  123.0770   63.1810 C   0  0  0  0  0  0  0  0  0  0  0  0
  131.1420  121.9580   62.4770 N   0  0  0  0  0  0  0  0  0  0  0  0
  130.1590  121.0820   61.8070 C   0  0  0  0  0  0  0  0  0  0  0  0
  130.7380  119.7060   61.4150 C   0  0  0  0  0  0  0  0  0  0  0  0
  131.8930  119.8770   60.6060 O   0  0  0  0  0  0  0  0  0  0  0  0
  132.9060  120.6030   61.2850 C   0  0  0  0  0  0  0  0  0  0  0  0
  132.3820  122.0010   61.6790 C   0  0  0  0  0  0  0  0  0  0  0  0
  129.4490  123.6520   62.8610 C   0  0  0  0  0  0  0  0  0  0  0  0
  128.9730  124.7610   63.5560 C   0  0  0  0  0  0  0  0  0  0  0  0
  129.1320  126.5350   66.7670 C   0  0  0  0  0  0  0  0  0  0  0  0
  1  2  1  0
  2  3  2  0
  3  4  1  0
  4  5  2  0
  4  6  1  0
  6  7  1  0
  7  8  2  0
  8  9  1  0
  9 10  2  0
 10 11  1  0
  3 12  1  0
 12 13  1  0
 13 14  2  0
 14 15  1  0
 15 16  1  0
 16 17  2  0
 17 18  1  0
 18 19  2  0
 19 20  1  0
 20 21  1  0
 21 22  1  0
 22 23  1  0
 23 24  1  0
 24 25  1  0
 19 26  1  0
 26 27  2  0
 15 28  2  0
 28 29  1  0
 29 30  1  0
 30 31  2  0
 31 32  1  0
 32 33  2  0
 33 34  1  0
 34 35  1  0
 35 36  1  0
 36 37  1  0
 37 38  1  0
 38 39  1  0
 33 40  1  0
 40 41  2  0
 29 42  2  0
 42  2  1  0
 11  7  1  0
 42 13  1  0
 27 16  1  0
 41 30  1  0
 25 20  1  0
 39 34  1  0
M  END
>  <Binding energies>  (41) 
[-11.13]

>  <Ligand effiencies>  (41) 
[-0.24733333333333335]

>  <Interactions>  (41) 
["H-B:LYS:547:NZ:9923, V-B:LYS:547:CE:9922, V-B:GLU:543:CB:9878, V-B:HIS:456:CE1:9040, V-A:HIS:456:CD2:4068, H-A:HIS:456:NE2:4070, V-A:GLU:543:CD:4908, V-B:GLU:543:CD:9880, V-A:TYR:539:CD2:4874, V-B:PRO:482:CG:9298, V-B:TRP:381:CH2:8343, V-B:LEU:475:CD1:9229, V-A:ALA:541:CB:4892, V-B:PRO:482:CB:9297, V-B:TRP:381:CZ2:8341, V-B:ALA:541:CB:9864, V-A:PRO:482:CB:4326, V-B:GLU:543:CG:9879, V-A:TYR:484:CE1:4345, V-A:TRP:381:CH2:3372, V-A:LEU:475:CD1:4258, V-A:PRO:482:CG:4327, V-A:TYR:484:CZ:4347, V-B:GLU:543:C:9874, V-A:HIS:456:CB:4065, V-A:TYR:484:CD1:4343, V-A:TYR:484:CG:4342, V-A:HIS:456:CG:4066, H-B:GLU:543:O:9875, V-A:TYR:484:CB:4341, V-A:TYR:484:CD2:4344, V-A:TYR:484:CE2:4346, H-A:TYR:484:OH:4348, V-A:HIS:456:CE1:4069, V-A:GLU:543:CB:4906, V-B:GLU:543:CA:9876, H-A:HIS:456:ND1:4067, V-A:ASP:473:CG:4240, V-A:ASP:473:CB:4239, V-B:TYR:484:CZ:9318, V-B:TYR:484:CE1:9316"]

$$$$
RR11_Rahimova_2017
     RDKit          3D

 33 38  0  0  0  0  0  0  0  0999 V2000
  130.5430  119.6750   60.2360 N   0  0  0  0  0  0  0  0  0  0  0  0
  130.3580  120.6530   61.2110 C   0  0  0  0  0  0  0  0  0  0  0  0
  129.1540  121.3540   61.2710 C   0  0  0  0  0  0  0  0  0  0  0  0
  128.9690  122.3290   62.2470 C   0  0  0  0  0  0  0  0  0  0  0  0
  129.9830  122.6120   63.1720 C   0  0  0  0  0  0  0  0  0  0  0  0
  129.7800  123.6590   64.2260 C   0  0  0  0  0  0  0  0  0  0  0  0
  129.0860  124.7630   64.0540 N   0  0  0  0  0  0  0  0  0  0  0  0
  129.1450  125.4190   65.2550 C   0  0  0  0  0  0  0  0  0  0  0  0
  128.5700  126.6420   65.6260 C   0  0  0  0  0  0  0  0  0  0  0  0
  128.7610  127.0990   66.9360 C   0  0  0  0  0  0  0  0  0  0  0  0
  128.1530  128.4270   67.3650 C   0  0  0  0  0  0  0  0  0  0  0  0
  127.0460  128.9020   66.4340 C   0  0  0  0  0  0  0  0  0  0  0  0
  125.7530  129.0830   66.9370 C   0  0  0  0  0  0  0  0  0  0  0  0
  124.7070  129.5260   66.1250 C   0  0  0  0  0  0  0  0  0  0  0  0
  124.9850  129.7940   64.7780 C   0  0  0  0  0  0  0  0  0  0  0  0
  124.1420  130.2260   63.7870 N   0  0  0  0  0  0  0  0  0  0  0  0
  124.8920  130.3170   62.7090 C   0  0  0  0  0  0  0  0  0  0  0  0
  124.3890  130.7420   61.3590 C   0  0  0  0  0  0  0  0  0  0  0  0
  123.0260  130.9900   61.1550 C   0  0  0  0  0  0  0  0  0  0  0  0
  122.5580  131.3740   59.9000 C   0  0  0  0  0  0  0  0  0  0  0  0
  123.4520  131.5120   58.8410 C   0  0  0  0  0  0  0  0  0  0  0  0
  122.9840  131.8910   57.5830 N   0  0  0  0  0  0  0  0  0  0  0  0
  124.8100  131.2720   59.0310 C   0  0  0  0  0  0  0  0  0  0  0  0
  125.2770  130.8890   60.2850 C   0  0  0  0  0  0  0  0  0  0  0  0
  126.2010  129.9660   62.9600 N   0  0  0  0  0  0  0  0  0  0  0  0
  126.3000  129.6190   64.2860 C   0  0  0  0  0  0  0  0  0  0  0  0
  127.3520  129.1810   65.0950 C   0  0  0  0  0  0  0  0  0  0  0  0
  129.5310  126.3610   67.8420 C   0  0  0  0  0  0  0  0  0  0  0  0
  130.1210  125.1410   67.5020 C   0  0  0  0  0  0  0  0  0  0  0  0
  129.9080  124.6900   66.1980 C   0  0  0  0  0  0  0  0  0  0  0  0
  130.3010  123.5710   65.5010 N   0  0  0  0  0  0  0  0  0  0  0  0
  131.1890  121.9010   63.0990 C   0  0  0  0  0  0  0  0  0  0  0  0
  131.3760  120.9250   62.1240 C   0  0  0  0  0  0  0  0  0  0  0  0
  1  2  1  0
  2  3  2  0
  3  4  1  0
  4  5  2  0
  5  6  1  0
  6  7  2  0
  7  8  1  0
  8  9  2  0
  9 10  1  0
 10 11  1  0
 11 12  1  0
 12 13  2  0
 13 14  1  0
 14 15  2  0
 15 16  1  0
 16 17  2  0
 17 18  1  0
 18 19  2  0
 19 20  1  0
 20 21  2  0
 21 22  1  0
 21 23  1  0
 23 24  2  0
 17 25  1  0
 25 26  1  0
 26 27  2  0
 10 28  2  0
 28 29  1  0
 29 30  2  0
 30 31  1  0
  5 32  1  0
 32 33  2  0
 33  2  1  0
 31  6  1  0
 30  8  1  0
 27 12  1  0
 26 15  1  0
 24 18  1  0
M  END
>  <Binding energies>  (42) 
[-8.99]

>  <Ligand effiencies>  (42) 
[-0.23051282051282052]

>  <Interactions>  (42) 
["V-B:GLU:543:CB:9878, V-B:HIS:456:CE1:9040, V-B:GLU:543:CD:9880, V-A:TYR:539:CZ:4877, V-A:TYR:539:CE2:4876, V-B:ILE:369:CG2:8208, V-B:ILE:369:CD1:8210, V-B:ALA:541:CB:9864, V-B:GLU:543:CG:9879, V-A:TYR:484:CE1:4345, V-B:TYR:539:CD2:9846, V-A:TRP:381:CH2:3372, V-A:LEU:475:CD1:4258, V-A:TYR:484:CZ:4347, V-B:TYR:539:CE2:9848, V-B:ALA:541:CA:9862, V-B:ASP:366:CG:8184, V-B:ASP:366:CB:8183, V-B:ARG:545:CG:9894, H-B:TYR:539:O:9840, H-A:TYR:484:OH:4348, V-A:HIS:456:CE1:4069, H-B:ARG:545:NH2:9900, V-B:ARG:545:CZ:9898, H-B:GLY:454:N:9021, V-B:ARG:545:CD:9895, V-B:ASP:366:CA:8181, H-B:ASP:366:O:8180, V-B:ASP:366:C:8179, H-A:TYR:539:OH:4878, V-B:ILE:369:CB:8207, V-B:TYR:484:CZ:9318, V-B:ASN:370:CB:8216, V-B:ILE:369:CG1:8209"]

$$$$
RR16_Rahimova_2017
     RDKit          3D

 44 49  0  0  0  0  0  0  0  0999 V2000
  130.2060  124.8080   73.5580 O   0  0  0  0  0  0  0  0  0  0  0  0
  129.8390  126.2190   73.3900 S   0  0  0  0  0  0  0  0  0  0  0  0
  130.8050  127.2860   73.6760 O   0  0  0  0  0  0  0  0  0  0  0  0
  128.3950  126.5120   74.3610 N   0  0  0  0  0  0  0  0  0  0  0  0
  127.1150  126.8990   73.7230 C   0  0  0  0  0  0  0  0  0  0  0  0
  125.9520  126.1410   74.4150 C   0  0  0  0  0  0  0  0  0  0  0  0
  124.5170  126.4970   73.9780 C   0  0  0  0  0  0  0  0  0  0  0  0
  124.1410  127.9710   74.2070 C   0  0  0  0  0  0  0  0  0  0  0  0
  124.9320  128.7000   75.3120 C   0  0  0  0  0  0  0  0  0  0  0  0
  126.4070  129.0400   75.0180 C   0  0  0  0  0  0  0  0  0  0  0  0
  127.0090  128.4420   73.7320 C   0  0  0  0  0  0  0  0  0  0  0  0
  129.2870  126.4140   71.7000 C   0  0  0  0  0  0  0  0  0  0  0  0
  129.7330  127.4930   70.9330 C   0  0  0  0  0  0  0  0  0  0  0  0
  129.2030  127.7020   69.6630 C   0  0  0  0  0  0  0  0  0  0  0  0
  128.2300  126.8320   69.1660 C   0  0  0  0  0  0  0  0  0  0  0  0
  127.4440  127.1770   67.5940 S   0  0  0  0  0  0  0  0  0  0  0  0
  127.5130  128.6290   67.3780 O   0  0  0  0  0  0  0  0  0  0  0  0
  126.1480  126.4880   67.5890 O   0  0  0  0  0  0  0  0  0  0  0  0
  128.4940  126.3880   66.4010 N   0  0  0  0  0  0  0  0  0  0  0  0
  128.8140  127.2220   65.2140 C   0  0  0  0  0  0  0  0  0  0  0  0
  129.4550  126.3620   64.1060 C   0  0  0  0  0  0  0  0  0  0  0  0
  130.6750  125.5650   64.6320 C   0  0  0  0  0  0  0  0  0  0  0  0
  131.2980  124.6690   63.5580 C   0  0  0  0  0  0  0  0  0  0  0  0
  132.6560  124.8100   63.2360 C   0  0  0  0  0  0  0  0  0  0  0  0
  133.2670  124.0090   62.2700 C   0  0  0  0  0  0  0  0  0  0  0  0
  134.5970  124.1600   61.9710 O   0  0  0  0  0  0  0  0  0  0  0  0
  132.4850  123.0440   61.6190 C   0  0  0  0  0  0  0  0  0  0  0  0
  132.8070  122.1240   60.6630 N   0  0  0  0  0  0  0  0  0  0  0  0
  131.6710  121.3950   60.3890 N   0  0  0  0  0  0  0  0  0  0  0  0
  130.6600  121.8880   61.1300 N   0  0  0  0  0  0  0  0  0  0  0  0
  129.3510  121.2470   61.1030 C   0  0  0  0  0  0  0  0  0  0  0  0
  128.2910  122.1050   60.4270 C   0  0  0  0  0  0  0  0  0  0  0  0
  127.5770  123.0530   61.1680 C   0  0  0  0  0  0  0  0  0  0  0  0
  126.6210  123.8560   60.5460 C   0  0  0  0  0  0  0  0  0  0  0  0
  126.3730  123.7160   59.1800 C   0  0  0  0  0  0  0  0  0  0  0  0
  127.0830  122.7740   58.4350 C   0  0  0  0  0  0  0  0  0  0  0  0
  126.7870  122.6070   56.7430 Cl  0  0  0  0  0  0  0  0  0  0  0  0
  128.0380  121.9680   59.0580 C   0  0  0  0  0  0  0  0  0  0  0  0
  131.1140  122.9130   61.9440 C   0  0  0  0  0  0  0  0  0  0  0  0
  130.4990  123.7170   62.9090 C   0  0  0  0  0  0  0  0  0  0  0  0
  130.3570  124.8000   65.9430 C   0  0  0  0  0  0  0  0  0  0  0  0
  129.6770  125.7070   66.9880 C   0  0  0  0  0  0  0  0  0  0  0  0
  127.8160  125.7290   69.9180 C   0  0  0  0  0  0  0  0  0  0  0  0
  128.3440  125.5230   71.1880 C   0  0  0  0  0  0  0  0  0  0  0  0
  1  2  2  0
  2  3  2  0
  2  4  1  0
  4  5  1  0
  5  6  1  0
  6  7  1  0
  7  8  1  0
  8  9  1  0
  9 10  1  0
 10 11  1  0
  2 12  1  0
 12 13  2  0
 13 14  1  0
 14 15  2  0
 15 16  1  0
 16 17  2  0
 16 18  2  0
 16 19  1  0
 19 20  1  0
 20 21  1  0
 21 22  1  0
 22 23  1  0
 23 24  2  0
 24 25  1  0
 25 26  1  0
 25 27  2  0
 27 28  1  0
 28 29  2  0
 29 30  1  0
 30 31  1  0
 31 32  1  0
 32 33  2  0
 33 34  1  0
 34 35  2  0
 35 36  1  0
 36 37  1  0
 36 38  2  0
 30 39  1  0
 39 40  2  0
 22 41  1  0
 41 42  1  0
 15 43  1  0
 43 44  2  0
 11  5  1  0
 44 12  1  0
 42 19  1  0
 40 23  1  0
 39 27  1  0
 38 32  1  0
M  END
>  <Binding energies>  (43) 
[-9.8]

>  <Ligand effiencies>  (43) 
[-0.2041666666666667]

>  <Interactions>  (43) 
["H-B:LYS:547:NZ:9923, V-B:LYS:547:CE:9922, V-B:GLU:543:CB:9878, H-B:HIS:456:NE2:9041, V-B:HIS:456:CE1:9040, V-B:GLY:544:C:9884, V-A:HIS:456:CD2:4068, H-A:LYS:547:NZ:4951, V-A:GLU:543:CD:4908, V-B:GLU:543:CD:9880, V-B:ALA:541:CB:9864, V-B:PRO:540:C:9853, V-B:TYR:539:C:9839, V-B:PRO:540:CA:9855, V-B:PRO:540:CB:9857, V-B:PRO:540:CD:9859, V-B:GLU:543:CG:9879, V-A:TYR:484:CE1:4345, V-B:PRO:540:N:9856, V-B:TYR:539:CD2:9846, V-A:TYR:484:CZ:4347, V-B:TYR:539:CE2:9848, V-B:LYS:547:CG:9920, V-B:VAL:458:CG2:9058, V-B:ARG:545:C:9889, V-B:HIS:456:CG:9037, V-B:LYS:547:CD:9921, V-B:GLU:543:C:9874, V-B:HIS:456:CD2:9039, V-B:VAL:457:C:9044, V-B:GLY:544:CA:9886, V-B:TYR:539:CG:9844, V-B:HIS:456:CB:9036, V-A:ARG:545:CZ:4926, H-A:GLY:454:N:4050, V-A:HIS:456:CE1:4069, V-B:HIS:456:CA:9034, V-B:HIS:456:C:9032, H-A:ASP:366:OD2:3215, V-B:VAL:457:CA:9046"]

$$$$
RR18_Rahimova_2017
     RDKit          3D

 36 41  0  0  0  0  0  0  0  0999 V2000
  126.4430  127.8440   58.0130 C   0  0  0  0  0  0  0  0  0  0  0  0
  127.2440  128.1900   59.2430 C   0  0  0  0  0  0  0  0  0  0  0  0
  128.1880  127.5170   60.0010 C   0  0  0  0  0  0  0  0  0  0  0  0
  128.5680  128.3790   61.0300 C   0  0  0  0  0  0  0  0  0  0  0  0
  127.8430  129.5470   60.8630 C   0  0  0  0  0  0  0  0  0  0  0  0
  127.7820  130.8720   61.6190 C   0  0  1  0  0  0  0  0  0  0  0  0
  127.5090  132.0670   60.6580 C   0  0  0  0  0  0  0  0  0  0  0  0
  128.4890  132.4350   59.6410 C   0  0  0  0  0  0  0  0  0  0  0  0
  129.3540  133.2890   59.8500 O   0  0  0  0  0  0  0  0  0  0  0  0
  128.3670  131.7510   58.4800 N   0  0  0  0  0  0  0  0  0  0  0  0
  129.1090  131.8460   57.2820 C   0  0  0  0  0  0  0  0  0  0  0  0
  130.3460  132.5080   57.1860 C   0  0  0  0  0  0  0  0  0  0  0  0
  131.0250  132.5720   55.9710 C   0  0  0  0  0  0  0  0  0  0  0  0
  130.4780  131.9840   54.8340 C   0  0  0  0  0  0  0  0  0  0  0  0
  129.2480  131.3350   54.9110 C   0  0  0  0  0  0  0  0  0  0  0  0
  128.5560  131.2620   56.1240 C   0  0  0  0  0  0  0  0  0  0  0  0
  127.2100  130.5430   56.1540 C   0  0  0  0  0  0  0  0  0  0  0  0
  126.3010  132.6860   60.7210 C   0  0  0  0  0  0  0  0  0  0  0  0
  125.3400  132.4210   61.6490 N   0  0  0  0  0  0  0  0  0  0  0  0
  125.5860  131.5880   62.5920 C   0  0  0  0  0  0  0  0  0  0  0  0
  124.5130  131.2600   63.9310 S   0  0  0  0  0  0  0  0  0  0  0  0
  125.6750  130.1000   64.6470 C   0  0  0  0  0  0  0  0  0  0  0  0
  125.5210  129.3780   65.8110 C   0  0  0  0  0  0  0  0  0  0  0  0
  124.3360  129.5780   66.6570 C   0  0  0  0  0  0  0  0  0  0  0  0
  123.3630  130.3140   66.4960 O   0  0  0  0  0  0  0  0  0  0  0  0
  124.4770  128.7960   67.7330 N   0  0  0  0  0  0  0  0  0  0  0  0
  125.6170  128.0520   67.7020 C   0  0  0  0  0  0  0  0  0  0  0  0
  126.0610  127.1300   68.6490 C   0  0  0  0  0  0  0  0  0  0  0  0
  127.2490  126.4440   68.4140 C   0  0  0  0  0  0  0  0  0  0  0  0
  127.9620  126.6820   67.2400 C   0  0  0  0  0  0  0  0  0  0  0  0
  127.4960  127.6110   66.3060 C   0  0  0  0  0  0  0  0  0  0  0  0
  126.3100  128.3330   66.5370 C   0  0  0  0  0  0  0  0  0  0  0  0
  126.8540  130.0500   63.7820 C   0  0  0  0  0  0  0  0  0  0  0  0
  127.8780  129.4030   63.9800 O   0  0  0  0  0  0  0  0  0  0  0  0
  126.7190  130.8450   62.6860 N   0  0  0  0  0  0  0  0  0  0  0  0
  127.0390  129.4240   59.7730 O   0  0  0  0  0  0  0  0  0  0  0  0
  1  2  1  0
  2  3  2  0
  3  4  1  0
  4  5  2  0
  6  5  1  6
  6  7  1  0
  7  8  1  0
  8  9  2  0
  8 10  1  0
 10 11  1  0
 11 12  2  0
 12 13  1  0
 13 14  2  0
 14 15  1  0
 15 16  2  0
 16 17  1  0
  7 18  2  0
 18 19  1  0
 19 20  2  0
 20 21  1  0
 21 22  1  0
 22 23  2  0
 23 24  1  0
 24 25  2  0
 24 26  1  0
 26 27  1  0
 27 28  2  0
 28 29  1  0
 29 30  2  0
 30 31  1  0
 31 32  2  0
 22 33  1  0
 33 34  2  0
 33 35  1  0
  5 36  1  0
 36  2  1  0
 35  6  1  0
 16 11  1  0
 35 20  1  0
 32 23  1  0
 32 27  1  0
M  END
>  <Binding energies>  (44) 
[-9.22]

>  <Ligand effiencies>  (44) 
[-0.24263157894736845]

>  <Interactions>  (44) 
["V-B:GLU:543:CB:9878, V-B:HIS:456:CE1:9040, V-B:GLY:544:C:9884, V-B:GLU:543:CD:9880, V-A:TYR:539:C:4867, V-A:TYR:539:CZ:4877, V-A:PRO:540:CD:4887, V-A:TYR:539:CE1:4875, V-A:PRO:540:CB:4885, V-A:PRO:540:CA:4883, V-A:PRO:540:N:4884, V-A:TYR:539:CE2:4876, V-A:TYR:539:CD1:4873, V-B:GLU:543:C:9874, V-B:ARG:545:CA:9891, V-B:ARG:545:CG:9894, H-A:ALA:541:N:4891, H-B:TYR:484:OH:9319, H-B:GLY:454:N:9021, V-B:GLY:454:CA:9020, H-B:ILE:455:N:9026, V-B:ARG:545:CD:9895, H-B:HIS:456:ND1:9038, V-B:ILE:455:C:9023, V-B:TYR:484:CZ:9318, V-B:ARG:545:CB:9893, H-B:ILE:455:O:9024"]

$$$$
RR20_Rahimova_2017
     RDKit          3D

 38 43  0  0  0  0  0  0  0  0999 V2000
  123.4350  130.1200   76.3640 C   0  0  0  0  0  0  0  0  0  0  0  0
  124.4750  129.3130   75.6080 C   0  0  0  0  0  0  0  0  0  0  0  0
  124.0970  128.1530   74.9320 C   0  0  0  0  0  0  0  0  0  0  0  0
  125.0480  127.4160   74.2300 C   0  0  0  0  0  0  0  0  0  0  0  0
  126.3860  127.8260   74.2100 C   0  0  0  0  0  0  0  0  0  0  0  0
  127.4000  127.0230   73.4250 C   0  0  0  0  0  0  0  0  0  0  0  0
  127.5150  125.8260   73.6990 O   0  0  0  0  0  0  0  0  0  0  0  0
  128.1290  127.6380   72.4480 N   0  0  0  0  0  0  0  0  0  0  0  0
  129.3610  128.3810   72.7580 C   0  0  0  0  0  0  0  0  0  0  0  0
  129.9650  128.7830   71.4230 C   0  0  0  0  0  0  0  0  0  0  0  0
  129.2300  127.9140   70.4480 C   0  0  0  0  0  0  0  0  0  0  0  0
  129.4200  127.7800   69.0730 C   0  0  0  0  0  0  0  0  0  0  0  0
  128.5210  127.0360   68.2980 C   0  0  0  0  0  0  0  0  0  0  0  0
  128.7300  126.8840   66.8170 C   0  0  0  0  0  0  0  0  0  0  0  0
  128.4620  127.9180   66.0350 N   0  0  0  0  0  0  0  0  0  0  0  0
  128.6990  127.6810   64.7690 C   0  0  0  0  0  0  0  0  0  0  0  0
  128.5330  128.5400   63.6940 N   0  0  0  0  0  0  0  0  0  0  0  0
  127.4250  128.6800   62.9260 C   0  0  0  0  0  0  0  0  0  0  0  0
  126.3790  128.0540   63.1050 O   0  0  0  0  0  0  0  0  0  0  0  0
  127.4680  129.7060   61.7690 C   0  0  0  0  0  0  0  0  0  0  0  0
  126.3150  130.6260   61.7730 N   0  0  0  0  0  0  0  0  0  0  0  0
  125.6130  130.6410   63.0650 C   0  0  0  0  0  0  0  0  0  0  0  0
  124.2750  131.4030   62.9350 C   0  0  0  0  0  0  0  0  0  0  0  0
  124.4120  132.7270   62.1830 C   0  0  0  0  0  0  0  0  0  0  0  0
  123.3820  133.6740   62.1970 C   0  0  0  0  0  0  0  0  0  0  0  0
  123.4910  134.8630   61.4800 C   0  0  0  0  0  0  0  0  0  0  0  0
  124.6400  135.1210   60.7380 C   0  0  0  0  0  0  0  0  0  0  0  0
  125.6760  134.1910   60.7230 C   0  0  0  0  0  0  0  0  0  0  0  0
  125.5790  132.9920   61.4380 C   0  0  0  0  0  0  0  0  0  0  0  0
  126.7400  131.9970   61.4680 C   0  0  0  0  0  0  0  0  0  0  0  0
  129.2810  126.0960   64.4400 S   0  0  0  0  0  0  0  0  0  0  0  0
  129.1880  125.7300   66.1460 C   0  0  0  0  0  0  0  0  0  0  0  0
  129.5450  124.3500   66.6540 C   0  0  0  0  0  0  0  0  0  0  0  0
  127.3980  126.4770   68.9270 C   0  0  0  0  0  0  0  0  0  0  0  0
  127.1960  126.6250   70.2990 C   0  0  0  0  0  0  0  0  0  0  0  0
  128.1470  127.2990   71.0760 C   0  0  0  0  0  0  0  0  0  0  0  0
  126.7530  129.0080   74.8670 C   0  0  0  0  0  0  0  0  0  0  0  0
  125.8020  129.7460   75.5680 C   0  0  0  0  0  0  0  0  0  0  0  0
  1  2  1  0
  2  3  2  0
  3  4  1  0
  4  5  2  0
  5  6  1  0
  6  7  2  0
  6  8  1  0
  8  9  1  0
  9 10  1  0
 10 11  1  0
 11 12  2  0
 12 13  1  0
 13 14  1  0
 14 15  1  0
 15 16  2  0
 16 17  1  0
 17 18  1  0
 18 19  2  0
 18 20  1  0
 20 21  1  0
 21 22  1  0
 22 23  1  0
 23 24  1  0
 24 25  2  0
 25 26  1  0
 26 27  2  0
 27 28  1  0
 28 29  2  0
 29 30  1  0
 16 31  1  0
 31 32  1  0
 32 33  1  0
 13 34  2  0
 34 35  1  0
 35 36  2  0
  5 37  1  0
 37 38  2  0
 38  2  1  0
 36  8  1  0
 36 11  1  0
 32 14  2  0
 30 21  1  0
 29 24  1  0
M  END
>  <Binding energies>  (45) 
[-11.08]

>  <Ligand effiencies>  (45) 
[-0.2841025641025641]

>  <Interactions>  (45) 
["H-B:LYS:547:NZ:9923, V-B:GLU:543:CB:9878, V-B:HIS:456:CE1:9040, V-B:GLY:544:C:9884, V-A:HIS:456:CD2:4068, H-A:GLU:543:OE2:4910, V-A:GLU:543:CD:4908, V-B:GLU:543:CD:9880, H-A:GLU:543:OE1:4909, V-A:TYR:539:CD2:4874, V-B:TRP:381:CH2:8343, V-A:TYR:539:CE2:4876, V-B:LEU:475:CD1:9229, V-B:ILE:369:CG2:8208, V-B:TRP:381:CZ2:8341, V-B:ILE:369:CD1:8210, V-B:GLU:543:CG:9879, V-A:TYR:484:CE1:4345, V-A:TYR:484:CZ:4347, V-B:VAL:458:CG2:9058, V-B:HIS:456:CG:9037, V-B:GLU:543:C:9874, V-B:HIS:456:CD2:9039, V-B:VAL:457:C:9044, V-B:HIS:456:CB:9036, V-A:LYS:547:CE:4950, V-A:HIS:456:CE1:4069, H-B:ARG:545:NH2:9900, V-B:GLY:454:CA:9020, V-B:GLU:543:CA:9876, V-A:GLU:543:C:4902, V-B:LYS:471:CE:9191, V-B:HIS:456:CA:9034, V-B:LYS:471:CG:9189, V-B:HIS:456:C:9032, V-B:VAL:457:CA:9046, V-B:LYS:471:C:9184, V-B:VAL:458:CB:9056"]

$$$$
RR21_Rahimova_2017
     RDKit          3D

 40 45  0  0  0  0  0  0  0  0999 V2000
  123.9040  130.4940   63.1070 C   0  0  0  0  0  0  0  0  0  0  0  0
  124.1200  130.6200   64.5090 O   0  0  0  0  0  0  0  0  0  0  0  0
  125.0690  129.8230   65.1210 C   0  0  0  0  0  0  0  0  0  0  0  0
  126.3400  129.5550   64.5840 C   0  0  0  0  0  0  0  0  0  0  0  0
  127.2420  128.7410   65.2680 C   0  0  0  0  0  0  0  0  0  0  0  0
  126.9020  128.1780   66.5040 C   0  0  0  0  0  0  0  0  0  0  0  0
  127.8750  127.3080   67.2390 C   0  0  0  0  0  0  0  0  0  0  0  0
  127.8950  127.3150   68.5570 N   0  0  0  0  0  0  0  0  0  0  0  0
  128.8500  126.4520   68.9330 N   0  0  0  0  0  0  0  0  0  0  0  0
  129.1250  126.2010   70.3020 C   0  0  0  0  0  0  0  0  0  0  0  0
  129.5790  124.9420   70.7240 C   0  0  0  0  0  0  0  0  0  0  0  0
  129.8500  124.7080   72.0700 C   0  0  0  0  0  0  0  0  0  0  0  0
  129.6680  125.7310   72.9980 C   0  0  0  0  0  0  0  0  0  0  0  0
  129.2150  126.9840   72.5930 C   0  0  0  0  0  0  0  0  0  0  0  0
  128.9430  127.2200   71.2480 C   0  0  0  0  0  0  0  0  0  0  0  0
  129.4310  125.8790   67.8300 C   0  0  0  0  0  0  0  0  0  0  0  0
  128.8340  126.4200   66.7010 C   0  0  0  0  0  0  0  0  0  0  0  0
  129.0840  126.0890   65.3060 C   0  0  0  0  0  0  0  0  0  0  0  0
  130.2420  125.6820   64.7370 C   0  0  0  0  0  0  0  0  0  0  0  0
  131.8180  125.4360   65.5220 S   0  0  0  0  0  0  0  0  0  0  0  0
  132.4910  124.9280   63.9800 C   0  0  0  0  0  0  0  0  0  0  0  0
  133.7020  124.5350   63.7300 N   0  0  0  0  0  0  0  0  0  0  0  0
  134.1170  124.1360   62.4310 C   0  0  0  0  0  0  0  0  0  0  0  0
  135.2370  123.7330   62.1170 O   0  0  0  0  0  0  0  0  0  0  0  0
  133.0340  124.2310   61.3910 C   0  0  0  0  0  0  0  0  0  0  0  0
  133.3710  123.8450   59.9450 C   0  0  0  0  0  0  0  0  0  0  0  0
  132.5160  124.5450   58.8910 C   0  0  0  0  0  0  0  0  0  0  0  0
  133.1260  125.2050   57.8200 C   0  0  0  0  0  0  0  0  0  0  0  0
  132.3450  125.8290   56.8500 C   0  0  0  0  0  0  0  0  0  0  0  0
  130.9530  125.7940   56.9470 C   0  0  0  0  0  0  0  0  0  0  0  0
  130.1060  126.4650   55.8810 C   0  0  0  0  0  0  0  0  0  0  0  0
  130.3410  125.1250   58.0110 C   0  0  0  0  0  0  0  0  0  0  0  0
  131.1210  124.5020   58.9800 C   0  0  0  0  0  0  0  0  0  0  0  0
  131.8320  124.6300   61.6530 N   0  0  0  0  0  0  0  0  0  0  0  0
  131.5560  124.9820   62.9790 N   0  0  0  0  0  0  0  0  0  0  0  0
  130.3060  125.3900   63.3110 C   0  0  0  0  0  0  0  0  0  0  0  0
  129.3630  125.4900   62.5170 O   0  0  0  0  0  0  0  0  0  0  0  0
  125.6350  128.4400   67.0350 C   0  0  0  0  0  0  0  0  0  0  0  0
  124.7300  129.2530   66.3530 C   0  0  0  0  0  0  0  0  0  0  0  0
  123.5120  129.4880   66.8950 F   0  0  0  0  0  0  0  0  0  0  0  0
  1  2  1  0
  2  3  1  0
  3  4  2  0
  4  5  1  0
  5  6  2  0
  6  7  1  0
  7  8  2  0
  8  9  1  0
  9 10  1  0
 10 11  2  0
 11 12  1  0
 12 13  2  0
 13 14  1  0
 14 15  2  0
  9 16  1  0
 16 17  2  0
 17 18  1  0
 18 19  2  0
 19 20  1  0
 20 21  1  0
 21 22  2  0
 22 23  1  0
 23 24  2  0
 23 25  1  0
 25 26  1  0
 26 27  1  0
 27 28  2  0
 28 29  1  0
 29 30  2  0
 30 31  1  0
 30 32  1  0
 32 33  2  0
 25 34  2  0
 34 35  1  0
 35 36  1  0
 36 37  2  0
  6 38  1  0
 38 39  2  0
 39 40  1  0
 39  3  1  0
 17  7  1  0
 36 19  1  0
 15 10  1  0
 35 21  1  0
 33 27  1  0
M  END
>  <Binding energies>  (46) 
[-10.41]

>  <Ligand effiencies>  (46) 
[-0.26025]

>  <Interactions>  (46) 
["V-B:GLU:543:CB:9878, V-B:HIS:456:CE1:9040, V-A:HIS:456:CD2:4068, V-B:GLU:543:CD:9880, V-B:GLU:543:CG:9879, V-B:TYR:539:CE2:9848, V-A:ASP:366:CB:3212, V-A:ASP:366:CG:3213, V-B:TYR:539:CZ:9849, V-B:ARG:545:CG:9894, V-A:ARG:545:CZ:4926, H-A:GLY:454:N:4050, V-A:HIS:456:CE1:4069, H-A:ARG:545:NH2:4928, H-B:TYR:484:OH:9319, V-B:ARG:545:CZ:9898, H-B:GLY:454:N:9021, V-B:ARG:545:CD:9895, V-A:ASP:366:CA:3210, V-A:ASP:366:C:3208, V-B:ILE:455:C:9023, V-A:GLY:453:CA:4044, V-A:GLY:453:C:4042, V-B:ARG:545:CB:9893"]

$$$$
RR23_Rahimova_2017
     RDKit          3D

 39 44  0  0  0  0  0  0  0  0999 V2000
  129.2470  125.9720   67.0450 C   0  0  0  0  0  0  0  0  0  0  0  0
  129.8430  125.0860   65.9660 C   0  0  0  0  0  0  0  0  0  0  0  0
  130.7950  125.6030   65.0860 C   0  0  0  0  0  0  0  0  0  0  0  0
  131.3490  124.7870   64.1020 C   0  0  0  0  0  0  0  0  0  0  0  0
  130.9450  123.4520   63.9830 C   0  0  0  0  0  0  0  0  0  0  0  0
  131.5730  122.5780   62.9210 C   0  0  0  0  0  0  0  0  0  0  0  0
  132.7970  122.4360   62.9480 O   0  0  0  0  0  0  0  0  0  0  0  0
  130.7730  121.9720   61.9930 N   0  0  0  0  0  0  0  0  0  0  0  0
  130.4080  120.5500   62.1020 C   0  0  0  0  0  0  0  0  0  0  0  0
  129.4070  120.2800   60.9910 C   0  0  0  0  0  0  0  0  0  0  0  0
  128.9950  121.6580   60.5700 C   0  0  0  0  0  0  0  0  0  0  0  0
  128.0270  122.0410   59.6410 C   0  0  0  0  0  0  0  0  0  0  0  0
  127.8980  123.3860   59.2650 C   0  0  0  0  0  0  0  0  0  0  0  0
  126.8460  123.8510   58.2460 C   0  0  2  0  0  0  0  0  0  0  0  0
  127.0350  125.2320   57.8570 N   0  0  0  0  0  0  0  0  0  0  0  0
  125.9300  125.8050   57.5910 C   0  0  0  0  0  0  0  0  0  0  0  0
  125.7230  127.0970   57.2200 N   0  0  0  0  0  0  0  0  0  0  0  0
  126.6170  128.1150   57.1810 C   0  0  0  0  0  0  0  0  0  0  0  0
  127.8180  128.0250   57.4450 O   0  0  0  0  0  0  0  0  0  0  0  0
  126.0460  129.4820   56.7710 C   0  0  0  0  0  0  0  0  0  0  0  0
  127.0700  130.2260   56.0040 N   0  0  0  0  0  0  0  0  0  0  0  0
  126.8600  130.2870   54.6320 N   0  0  0  0  0  0  0  0  0  0  0  0
  127.6840  130.9060   53.8490 N   0  0  0  0  0  0  0  0  0  0  0  0
  128.8120  131.5330   54.3840 C   0  0  0  0  0  0  0  0  0  0  0  0
  129.6820  132.1910   53.5110 C   0  0  0  0  0  0  0  0  0  0  0  0
  130.8180  132.8260   54.0150 C   0  0  0  0  0  0  0  0  0  0  0  0
  131.0860  132.8040   55.3860 C   0  0  0  0  0  0  0  0  0  0  0  0
  130.2180  132.1460   56.2600 C   0  0  0  0  0  0  0  0  0  0  0  0
  129.0770  131.5110   55.7540 C   0  0  0  0  0  0  0  0  0  0  0  0
  128.1280  130.7900   56.6820 C   0  0  0  0  0  0  0  0  0  0  0  0
  128.2910  130.7100   57.9040 O   0  0  0  0  0  0  0  0  0  0  0  0
  124.4490  124.8130   57.7290 S   0  0  0  0  0  0  0  0  0  0  0  0
  125.3830  123.6030   58.6830 C   0  0  2  0  0  0  0  0  0  0  0  0
  125.0670  123.7930   60.1820 C   0  0  0  0  0  0  0  0  0  0  0  0
  128.7870  124.3250   59.7990 C   0  0  0  0  0  0  0  0  0  0  0  0
  129.7700  123.9400   60.7130 C   0  0  0  0  0  0  0  0  0  0  0  0
  129.8400  122.6090   61.1450 C   0  0  0  0  0  0  0  0  0  0  0  0
  130.0090  122.9330   64.8870 C   0  0  0  0  0  0  0  0  0  0  0  0
  129.4570  123.7490   65.8710 C   0  0  0  0  0  0  0  0  0  0  0  0
  1  2  1  0
  2  3  2  0
  3  4  1  0
  4  5  2  0
  5  6  1  0
  6  7  2  0
  6  8  1  0
  8  9  1  0
  9 10  1  0
 10 11  1  0
 11 12  2  0
 12 13  1  0
 14 13  1  1
 14 15  1  0
 15 16  2  0
 16 17  1  0
 17 18  1  0
 18 19  2  0
 18 20  1  0
 20 21  1  0
 21 22  1  0
 22 23  2  0
 23 24  1  0
 24 25  2  0
 25 26  1  0
 26 27  2  0
 27 28  1  0
 28 29  2  0
 29 30  1  0
 30 31  2  0
 16 32  1  0
 32 33  1  0
 33 34  1  1
 13 35  2  0
 35 36  1  0
 36 37  2  0
  5 38  1  0
 38 39  2  0
 39  2  1  0
 37  8  1  0
 37 11  1  0
 33 14  1  0
 30 21  1  0
 29 24  1  0
M  END
>  <Binding energies>  (47) 
[-10.65]

>  <Ligand effiencies>  (47) 
[-0.26625]

>  <Interactions>  (47) 
["V-B:GLU:543:CB:9878, V-A:ILE:538:CD1:4865, V-A:TYR:539:CZ:4877, V-A:PRO:540:CD:4887, V-A:TYR:539:CE1:4875, V-A:PRO:540:N:4884, V-B:ALA:541:CB:9864, V-B:PRO:540:C:9853, V-B:TYR:539:C:9839, V-B:PRO:540:CA:9855, V-B:PRO:540:CB:9857, V-B:GLU:543:CG:9879, V-A:TYR:484:CE1:4345, V-B:PRO:540:N:9856, V-B:TYR:539:CD2:9846, V-A:LEU:475:CD1:4258, V-A:PRO:482:CG:4327, V-A:TYR:484:CZ:4347, V-B:TYR:539:CE2:9848, V-A:TYR:539:CD1:4873, V-B:GLU:543:C:9874, V-A:ILE:538:C:4858, V-A:ILE:538:CA:4860, V-A:VAL:537:C:4850, V-B:ALA:541:CA:9862, V-B:TYR:531:CZ:9766, H-B:ASP:366:OD1:8185, V-A:HIS:456:CE1:4069, V-B:GLU:543:CA:9876, H-B:TYR:531:OH:9767, H-A:TYR:539:OH:4878, V-A:ILE:538:CB:4862"]

$$$$
RR26_Rahimova_2017
     RDKit          3D

 38 44  0  0  0  0  0  0  0  0999 V2000
  124.2030  132.2750   61.9070 C   0  0  0  0  0  0  0  0  0  0  0  0
  125.3010  133.3190   61.7480 C   0  0  0  0  0  0  0  0  0  0  0  0
  124.9790  134.5300   61.1260 C   0  0  0  0  0  0  0  0  0  0  0  0
  125.9330  135.5360   60.9890 C   0  0  0  0  0  0  0  0  0  0  0  0
  127.2200  135.3420   61.4810 C   0  0  0  0  0  0  0  0  0  0  0  0
  127.5530  134.1410   62.1030 C   0  0  0  0  0  0  0  0  0  0  0  0
  126.6080  133.1130   62.2420 C   0  0  0  0  0  0  0  0  0  0  0  0
  127.0540  131.8450   62.9110 C   0  0  0  0  0  0  0  0  0  0  0  0
  127.3340  131.7860   64.2100 N   0  0  0  0  0  0  0  0  0  0  0  0
  127.6580  130.5300   64.3610 C   0  0  0  0  0  0  0  0  0  0  0  0
  128.1670  129.5330   65.6720 S   0  0  0  0  0  0  0  0  0  0  0  0
  128.2480  128.1290   64.5430 C   0  0  0  0  0  0  0  0  0  0  0  0
  128.6080  126.8570   64.8270 C   0  0  0  0  0  0  0  0  0  0  0  0
  129.0110  126.3060   66.1110 C   0  0  0  0  0  0  0  0  0  0  0  0
  128.5730  126.6700   67.3750 C   0  0  0  0  0  0  0  0  0  0  0  0
  129.1920  125.8530   68.2870 N   0  0  0  0  0  0  0  0  0  0  0  0
  129.0500  125.8480   69.6990 C   0  0  0  0  0  0  0  0  0  0  0  0
  129.6660  124.8580   70.4790 C   0  0  0  0  0  0  0  0  0  0  0  0
  129.5160  124.8640   71.8640 C   0  0  0  0  0  0  0  0  0  0  0  0
  128.7560  125.8590   72.4720 C   0  0  0  0  0  0  0  0  0  0  0  0
  128.1420  126.8500   71.7090 C   0  0  0  0  0  0  0  0  0  0  0  0
  128.2870  126.8450   70.3250 C   0  0  0  0  0  0  0  0  0  0  0  0
  129.9810  124.9670   67.6590 N   0  0  0  0  0  0  0  0  0  0  0  0
  129.8870  125.2280   66.3700 C   0  0  0  0  0  0  0  0  0  0  0  0
  130.6660  124.4110   65.3860 C   0  0  0  0  0  0  0  0  0  0  0  0
  130.1500  123.1990   64.9030 C   0  0  0  0  0  0  0  0  0  0  0  0
  130.8700  122.4280   63.9880 C   0  0  0  0  0  0  0  0  0  0  0  0
  132.1180  122.8650   63.5500 C   0  0  0  0  0  0  0  0  0  0  0  0
  132.6370  124.0840   64.0110 C   0  0  0  0  0  0  0  0  0  0  0  0
  131.9180  124.8480   64.9290 C   0  0  0  0  0  0  0  0  0  0  0  0
  133.8880  124.5350   63.6380 O   0  0  0  0  0  0  0  0  0  0  0  0
  134.4010  123.9220   62.4510 C   0  0  0  0  0  0  0  0  0  0  0  0
  134.1700  122.3920   62.4860 C   0  0  0  0  0  0  0  0  0  0  0  0
  132.7740  122.0970   62.6090 O   0  0  0  0  0  0  0  0  0  0  0  0
  127.8800  128.4930   63.1780 C   0  0  0  0  0  0  0  0  0  0  0  0
  127.8330  127.7850   62.1700 O   0  0  0  0  0  0  0  0  0  0  0  0
  127.5670  129.8610   63.1970 N   0  0  0  0  0  0  0  0  0  0  0  0
  127.1690  130.7070   62.2430 N   0  0  0  0  0  0  0  0  0  0  0  0
  1  2  1  0
  2  3  2  0
  3  4  1  0
  4  5  2  0
  5  6  1  0
  6  7  2  0
  7  8  1  0
  8  9  1  0
  9 10  2  0
 10 11  1  0
 11 12  1  0
 12 13  2  0
 13 14  1  0
 14 15  2  0
 15 16  1  0
 16 17  1  0
 17 18  2  0
 18 19  1  0
 19 20  2  0
 20 21  1  0
 21 22  2  0
 16 23  1  0
 23 24  2  0
 24 25  1  0
 25 26  2  0
 26 27  1  0
 27 28  2  0
 28 29  1  0
 29 30  2  0
 29 31  1  0
 31 32  1  0
 32 33  1  0
 33 34  1  0
 12 35  1  0
 35 36  2  0
 35 37  1  0
 37 38  1  0
  7  2  1  0
 38  8  2  0
 37 10  1  0
 24 14  1  0
 30 25  1  0
 22 17  1  0
 34 28  1  0
M  END
>  <Binding energies>  (48) 
[-10.17]

>  <Ligand effiencies>  (48) 
[-0.26763157894736844]

>  <Interactions>  (48) 
["V-B:GLU:543:CB:9878, V-B:HIS:456:CE1:9040, V-A:HIS:456:CD2:4068, H-A:HIS:456:NE2:4070, V-A:GLU:543:CD:4908, V-B:GLU:543:CD:9880, V-A:TYR:539:CD2:4874, V-B:PRO:482:CG:9298, V-B:TRP:381:CH2:8343, V-A:TYR:539:CE2:4876, V-B:LEU:475:CD1:9229, V-A:ALA:541:CB:4892, V-B:PRO:482:CB:9297, V-B:TRP:381:CZ2:8341, V-B:ILE:369:CD1:8210, V-B:GLU:543:CG:9879, V-A:TYR:484:CE1:4345, V-A:LEU:475:CD1:4258, V-A:TYR:484:CZ:4347, V-A:ILE:369:CD1:3239, V-A:HIS:456:CG:4066, V-A:GLY:454:CA:4049, H-A:GLY:454:N:4050, H-A:TYR:484:OH:4348, V-A:HIS:456:CE1:4069, H-A:ARG:545:NH2:4928, H-B:TYR:484:OH:9319, V-A:GLU:543:CB:4906, V-B:TRP:381:CZ3:8342, V-A:GLY:453:CA:4044, V-A:GLY:453:C:4042"]

$$$$
RR2_Rahimova_2017
     RDKit          3D

 46 50  0  0  0  0  0  0  0  0999 V2000
  133.8780  119.7280   61.2260 C   0  0  0  0  0  0  0  0  0  0  0  0
  132.6890  119.2660   60.5950 O   0  0  0  0  0  0  0  0  0  0  0  0
  131.5350  120.0220   60.6960 C   0  0  0  0  0  0  0  0  0  0  0  0
  130.2580  119.4900   60.9210 C   0  0  0  0  0  0  0  0  0  0  0  0
  129.1510  120.3300   61.0050 C   0  0  0  0  0  0  0  0  0  0  0  0
  129.2930  121.7170   60.8630 C   0  0  0  0  0  0  0  0  0  0  0  0
  128.0700  122.6100   60.9510 C   0  0  0  0  0  0  0  0  0  0  0  0
  127.4770  122.7490   62.0260 O   0  0  0  0  0  0  0  0  0  0  0  0
  127.6900  123.2060   59.7970 N   0  0  0  0  0  0  0  0  0  0  0  0
  126.5220  123.9610   59.8020 N   0  0  0  0  0  0  0  0  0  0  0  0
  125.6140  123.7360   58.8310 C   0  0  0  0  0  0  0  0  0  0  0  0
  125.8080  123.0400   57.8300 O   0  0  0  0  0  0  0  0  0  0  0  0
  124.2450  124.3980   59.0400 C   0  0  0  0  0  0  0  0  0  0  0  0
  123.6360  125.3820   57.6220 S   0  0  0  0  0  0  0  0  0  0  0  0
  125.1620  125.7960   56.8330 C   0  0  0  0  0  0  0  0  0  0  0  0
  125.8190  124.9610   56.0680 N   0  0  0  0  0  0  0  0  0  0  0  0
  126.9960  125.5860   55.6820 N   0  0  0  0  0  0  0  0  0  0  0  0
  126.9930  126.7900   56.2050 C   0  0  0  0  0  0  0  0  0  0  0  0
  128.0940  127.7790   55.9980 C   0  0  0  0  0  0  0  0  0  0  0  0
  129.1820  127.8000   56.8740 C   0  0  0  0  0  0  0  0  0  0  0  0
  130.2090  128.7220   56.6950 C   0  0  0  0  0  0  0  0  0  0  0  0
  130.1650  129.6220   55.6240 C   0  0  0  0  0  0  0  0  0  0  0  0
  131.1660  130.5800   55.4000 N   0  0  0  0  0  0  0  0  0  0  0  0
  131.1460  132.2350   56.0480 S   0  0  0  0  0  0  0  0  0  0  0  0
  130.3270  133.0230   55.1190 O   0  0  0  0  0  0  0  0  0  0  0  0
  132.5290  132.6240   56.3470 O   0  0  0  0  0  0  0  0  0  0  0  0
  130.2260  132.1270   57.5820 C   0  0  0  0  0  0  0  0  0  0  0  0
  128.8960  132.5490   57.6450 C   0  0  0  0  0  0  0  0  0  0  0  0
  128.2040  132.4710   58.8510 C   0  0  0  0  0  0  0  0  0  0  0  0
  128.8380  131.9670   59.9890 C   0  0  0  0  0  0  0  0  0  0  0  0
  128.0870  131.8970   61.3060 C   0  0  0  0  0  0  0  0  0  0  0  0
  130.1700  131.5500   59.9230 C   0  0  0  0  0  0  0  0  0  0  0  0
  130.8630  131.6290   58.7190 C   0  0  0  0  0  0  0  0  0  0  0  0
  129.0800  129.5980   54.7480 C   0  0  0  0  0  0  0  0  0  0  0  0
  128.0490  128.6800   54.9310 C   0  0  0  0  0  0  0  0  0  0  0  0
  125.8480  126.9900   56.9590 N   0  0  0  0  0  0  0  0  0  0  0  0
  125.4840  128.1220   57.7160 C   0  0  0  0  0  0  0  0  0  0  0  0
  124.5930  129.0570   57.1870 C   0  0  0  0  0  0  0  0  0  0  0  0
  124.2340  130.1700   57.9410 C   0  0  0  0  0  0  0  0  0  0  0  0
  124.7580  130.3610   59.2210 C   0  0  0  0  0  0  0  0  0  0  0  0
  124.3440  131.4950   59.8910 O   0  0  0  0  0  0  0  0  0  0  0  0
  123.5470  131.3580   61.0640 C   0  0  0  0  0  0  0  0  0  0  0  0
  125.6550  129.4150   59.7450 C   0  0  0  0  0  0  0  0  0  0  0  0
  126.0150  128.2990   58.9960 C   0  0  0  0  0  0  0  0  0  0  0  0
  130.5760  122.2430   60.6430 C   0  0  0  0  0  0  0  0  0  0  0  0
  131.6810  121.4010   60.5620 C   0  0  0  0  0  0  0  0  0  0  0  0
  1  2  1  0
  2  3  1  0
  3  4  2  0
  4  5  1  0
  5  6  2  0
  6  7  1  0
  7  8  2  0
  7  9  1  0
  9 10  1  0
 10 11  1  0
 11 12  2  0
 11 13  1  0
 13 14  1  0
 14 15  1  0
 15 16  2  0
 16 17  1  0
 17 18  2  0
 18 19  1  0
 19 20  2  0
 20 21  1  0
 21 22  2  0
 22 23  1  0
 23 24  1  0
 24 25  2  0
 24 26  2  0
 24 27  1  0
 27 28  2  0
 28 29  1  0
 29 30  2  0
 30 31  1  0
 30 32  1  0
 32 33  2  0
 22 34  1  0
 34 35  2  0
 18 36  1  0
 36 37  1  0
 37 38  2  0
 38 39  1  0
 39 40  2  0
 40 41  1  0
 41 42  1  0
 40 43  1  0
 43 44  2  0
  6 45  1  0
 45 46  2  0
 46  3  1  0
 36 15  1  0
 44 37  1  0
 35 19  1  0
 33 27  1  0
M  END
>  <Binding energies>  (49) 
[-10.89]

>  <Ligand effiencies>  (49) 
[-0.22224489795918367]

>  <Interactions>  (49) 
["V-A:TYR:539:CD2:4874, V-A:TYR:539:C:4867, V-A:TYR:539:CZ:4877, H-A:TYR:539:N:4870, V-A:PRO:540:CD:4887, V-A:TYR:539:CE1:4875, V-A:TYR:531:CE2:4793, V-A:PRO:540:CB:4885, V-A:PRO:540:CA:4883, V-A:PRO:540:N:4884, V-A:TYR:539:CE2:4876, V-B:ILE:369:CD1:8210, V-B:ALA:541:CB:9864, V-B:PRO:540:C:9853, V-B:TYR:539:C:9839, V-B:PRO:540:CA:9855, V-A:PRO:482:CB:4326, V-B:PRO:540:CB:9857, V-B:TYR:539:CD2:9846, V-A:TRP:381:CH2:3372, V-A:LEU:475:CD1:4258, V-B:LEU:363:CD1:8160, V-A:PRO:482:CG:4327, V-B:TYR:539:CE2:9848, V-A:TYR:539:CG:4872, V-A:TYR:531:CZ:4794, V-A:TYR:539:CD1:4873, V-B:ALA:541:CA:9862, V-B:ASP:366:CG:8184, V-B:TYR:531:CZ:9766, V-B:ASP:366:CB:8183, V-B:TYR:531:CE2:9765, V-A:ILE:369:CD1:3239, H-B:ALA:541:N:9863, V-A:ILE:369:CG2:3237, H-B:TYR:539:O:9840, H-A:TYR:531:OH:4795, V-B:ASP:366:CA:8181, H-B:TYR:531:OH:9767, H-B:GLU:543:OE2:9882, V-A:SER:385:C:3405"]

$$$$
RR33_Rahimova_2017
     RDKit          3D

 18 19  0  0  0  0  0  0  0  0999 V2000
  124.0220  131.7440   75.6500 C   0  0  0  0  0  0  0  0  0  0  0  0
  123.4360  130.4910   76.3060 C   0  0  0  0  0  0  0  0  0  0  0  0
  124.5010  129.5970   76.6170 O   0  0  0  0  0  0  0  0  0  0  0  0
  125.1240  128.9030   75.5980 C   0  0  0  0  0  0  0  0  0  0  0  0
  126.4840  129.1520   75.4180 C   0  0  0  0  0  0  0  0  0  0  0  0
  127.1960  128.5020   74.4130 C   0  0  0  0  0  0  0  0  0  0  0  0
  126.5540  127.5900   73.5700 C   0  0  0  0  0  0  0  0  0  0  0  0
  127.3190  126.8940   72.4900 C   0  0  0  0  0  0  0  0  0  0  0  0
  128.2270  125.9540   72.6290 N   0  0  0  0  0  0  0  0  0  0  0  0
  128.6130  125.6560   71.3980 C   0  0  0  0  0  0  0  0  0  0  0  0
  129.6570  124.5900   71.1460 C   0  0  0  0  0  0  0  0  0  0  0  0
  129.1410  123.2740   71.4930 N   0  0  0  0  0  0  0  0  0  0  0  0
  130.2080  122.4180   71.9860 C   0  0  0  0  0  0  0  0  0  0  0  0
  127.9160  126.4420   70.4880 C   0  0  0  0  0  0  0  0  0  0  0  0
  127.8930  126.5780   68.9850 C   0  0  0  0  0  0  0  0  0  0  0  0
  127.0850  127.2390   71.1970 O   0  0  0  0  0  0  0  0  0  0  0  0
  125.1910  127.3350   73.7490 C   0  0  0  0  0  0  0  0  0  0  0  0
  124.4790  127.9860   74.7540 C   0  0  0  0  0  0  0  0  0  0  0  0
  1  2  1  0
  2  3  1  0
  3  4  1  0
  4  5  2  0
  5  6  1  0
  6  7  2  0
  7  8  1  0
  8  9  2  0
  9 10  1  0
 10 11  1  0
 11 12  1  0
 12 13  1  0
 10 14  2  0
 14 15  1  0
 14 16  1  0
  7 17  1  0
 17 18  2  0
 18  4  1  0
 16  8  1  0
M  END
>  <Binding energies>  (50) 
[-5.85]

>  <Ligand effiencies>  (50) 
[-0.3078947368421052]

>  <Interactions>  (50) 
["H-B:LYS:547:NZ:9923, H-B:HIS:456:NE2:9041, V-B:HIS:456:CE1:9040, V-B:GLY:544:C:9884, V-A:HIS:456:CD2:4068, V-A:TYR:484:CE1:4345, V-B:VAL:458:CG2:9058, V-B:ARG:545:C:9889, V-B:HIS:456:CG:9037, V-B:HIS:456:CD2:9039, V-B:VAL:457:C:9044, V-A:TYR:484:CD1:4343, V-A:TYR:484:CG:4342, H-B:GLU:543:O:9875, V-A:TYR:484:CB:4341, V-B:HIS:456:CB:9036, V-A:TYR:484:CD2:4344, V-A:TYR:484:CE2:4346, V-A:HIS:456:CE1:4069, V-B:ASP:473:CG:9211, V-B:LYS:471:CE:9191, V-B:HIS:456:CA:9034, V-B:LYS:471:CG:9189, V-B:HIS:456:C:9032, V-B:VAL:457:CA:9046, V-B:LYS:471:C:9184, V-B:ASP:473:CB:9210, V-B:LYS:471:CB:9188, V-B:LEU:472:CA:9199"]

$$$$
RR3_Rahimova_2017
     RDKit          3D

 38 44  0  0  0  0  0  0  0  0999 V2000
  123.8880  132.0660   62.3810 C   0  0  0  0  0  0  0  0  0  0  0  0
  125.0970  132.5010   62.9140 C   0  0  0  0  0  0  0  0  0  0  0  0
  125.8010  131.6780   63.7880 C   0  0  0  0  0  0  0  0  0  0  0  0
  125.3070  130.4120   64.1400 C   0  0  0  0  0  0  0  0  0  0  0  0
  126.0660  129.5280   65.0800 C   0  0  0  0  0  0  0  0  0  0  0  0
  127.4500  129.3550   64.9470 C   0  0  0  0  0  0  0  0  0  0  0  0
  128.1550  128.5290   65.8190 C   0  0  0  0  0  0  0  0  0  0  0  0
  127.4870  127.8500   66.8410 C   0  0  0  0  0  0  0  0  0  0  0  0
  128.2380  126.9560   67.7790 C   0  0  0  0  0  0  0  0  0  0  0  0
  128.2920  127.2470   69.0740 N   0  0  0  0  0  0  0  0  0  0  0  0
  128.9670  126.2810   69.6470 C   0  0  0  0  0  0  0  0  0  0  0  0
  129.2680  126.1950   71.0740 C   0  0  0  0  0  0  0  0  0  0  0  0
  128.9410  127.1430   72.0290 C   0  0  0  0  0  0  0  0  0  0  0  0
  129.3670  126.7350   73.2660 N   0  0  0  0  0  0  0  0  0  0  0  0
  129.9890  125.5100   73.1670 C   0  0  0  0  0  0  0  0  0  0  0  0
  130.5780  124.7030   74.1460 C   0  0  0  0  0  0  0  0  0  0  0  0
  131.1350  123.4970   73.7210 C   0  0  0  0  0  0  0  0  0  0  0  0
  131.1100  123.1070   72.3860 C   0  0  0  0  0  0  0  0  0  0  0  0
  130.5220  123.9100   71.4110 C   0  0  0  0  0  0  0  0  0  0  0  0
  129.9460  125.1370   71.7860 C   0  0  0  0  0  0  0  0  0  0  0  0
  129.3670  125.3510   68.7280 N   0  0  0  0  0  0  0  0  0  0  0  0
  128.9310  125.7670   67.4960 C   0  0  0  0  0  0  0  0  0  0  0  0
  129.2370  125.0270   66.2350 C   0  0  0  0  0  0  0  0  0  0  0  0
  129.3770  123.6390   66.2550 C   0  0  0  0  0  0  0  0  0  0  0  0
  129.6740  122.9480   65.0850 C   0  0  0  0  0  0  0  0  0  0  0  0
  129.8340  123.6260   63.8670 C   0  0  0  0  0  0  0  0  0  0  0  0
  130.1740  122.8810   62.6150 C   0  0  0  0  0  0  0  0  0  0  0  0
  131.5090  122.6160   62.2740 C   0  0  0  0  0  0  0  0  0  0  0  0
  131.8240  121.9190   61.1100 C   0  0  0  0  0  0  0  0  0  0  0  0
  130.8040  121.4770   60.2730 C   0  0  0  0  0  0  0  0  0  0  0  0
  129.4740  121.7280   60.5920 C   0  0  0  0  0  0  0  0  0  0  0  0
  129.1620  122.4260   61.7550 C   0  0  0  0  0  0  0  0  0  0  0  0
  129.6740  125.0180   63.8580 C   0  0  0  0  0  0  0  0  0  0  0  0
  129.3760  125.7130   65.0270 C   0  0  0  0  0  0  0  0  0  0  0  0
  126.1100  128.0260   66.9900 C   0  0  0  0  0  0  0  0  0  0  0  0
  125.4080  128.8520   66.1160 C   0  0  0  0  0  0  0  0  0  0  0  0
  124.0860  129.9960   63.5910 C   0  0  0  0  0  0  0  0  0  0  0  0
  123.3790  130.8160   62.7160 C   0  0  0  0  0  0  0  0  0  0  0  0
  1  2  2  0
  2  3  1  0
  3  4  2  0
  4  5  1  0
  5  6  2  0
  6  7  1  0
  7  8  2  0
  8  9  1  0
  9 10  1  0
 10 11  2  0
 11 12  1  0
 12 13  2  0
 13 14  1  0
 14 15  1  0
 15 16  2  0
 16 17  1  0
 17 18  2  0
 18 19  1  0
 19 20  2  0
 11 21  1  0
 21 22  1  0
 22 23  1  0
 23 24  2  0
 24 25  1  0
 25 26  2  0
 26 27  1  0
 27 28  2  0
 28 29  1  0
 29 30  2  0
 30 31  1  0
 31 32  2  0
 26 33  1  0
 33 34  2  0
  8 35  1  0
 35 36  2  0
  4 37  1  0
 37 38  2  0
 38  1  1  0
 36  5  1  0
 22  9  2  0
 34 23  1  0
 20 12  1  0
 32 27  1  0
 20 15  1  0
M  END
>  <Binding energies>  (51) 
[-10.34]

>  <Ligand effiencies>  (51) 
[-0.2585]

>  <Interactions>  (51) 
["V-B:GLU:543:CB:9878, V-B:HIS:456:CE1:9040, V-A:HIS:456:CD2:4068, V-A:GLU:543:CD:4908, V-B:GLU:543:CD:9880, V-B:LEU:475:CD1:9229, V-B:ILE:369:CD1:8210, V-B:ALA:541:CB:9864, V-B:GLU:543:CG:9879, V-A:TYR:484:CE1:4345, V-B:TYR:539:CD2:9846, V-A:LEU:475:CD1:4258, V-A:TYR:484:CZ:4347, V-B:TYR:539:CE2:9848, V-B:GLU:543:C:9874, V-A:HIS:456:CB:4065, V-A:TYR:484:CG:4342, V-A:HIS:456:CG:4066, H-B:GLU:543:O:9875, V-A:TYR:484:CD2:4344, V-B:ARG:545:CG:9894, V-A:TYR:484:CE2:4346, H-A:TYR:484:OH:4348, V-A:HIS:456:CE1:4069, V-B:ARG:545:CZ:9898, V-B:GLY:454:CA:9020, V-B:GLY:453:C:9013, V-B:ARG:545:CD:9895, V-B:GLU:543:CA:9876, H-A:HIS:456:ND1:4067"]

$$$$
RR4_Rahimova_2017
     RDKit          3D

 40 44  0  0  0  0  0  0  0  0999 V2000
  127.2690  126.6640   74.4730 C   0  0  0  0  0  0  0  0  0  0  0  0
  128.1600  125.8530   73.7150 O   0  0  0  0  0  0  0  0  0  0  0  0
  128.2790  126.0720   72.3550 C   0  0  0  0  0  0  0  0  0  0  0  0
  129.1570  125.2420   71.6630 C   0  0  0  0  0  0  0  0  0  0  0  0
  129.3400  125.3880   70.2920 C   0  0  0  0  0  0  0  0  0  0  0  0
  128.6510  126.3740   69.5700 C   0  0  0  0  0  0  0  0  0  0  0  0
  128.8510  126.5300   68.0900 C   0  0  0  0  0  0  0  0  0  0  0  0
  129.7690  125.7640   67.3650 C   0  0  0  0  0  0  0  0  0  0  0  0
  129.9170  125.9440   65.9840 C   0  0  0  0  0  0  0  0  0  0  0  0
  130.8960  125.0690   65.2710 C   0  0  0  0  0  0  0  0  0  0  0  0
  130.4600  123.9080   64.6260 C   0  0  0  0  0  0  0  0  0  0  0  0
  131.3650  123.0930   63.9500 C   0  0  0  0  0  0  0  0  0  0  0  0
  132.7180  123.4250   63.9000 C   0  0  0  0  0  0  0  0  0  0  0  0
  133.5400  122.5580   63.2060 O   0  0  0  0  0  0  0  0  0  0  0  0
  133.9510  122.8980   61.8850 C   0  0  0  0  0  0  0  0  0  0  0  0
  133.1590  124.5930   64.5410 C   0  0  0  0  0  0  0  0  0  0  0  0
  132.2530  125.4060   65.2160 C   0  0  0  0  0  0  0  0  0  0  0  0
  129.1360  126.9400   65.3460 C   0  0  0  0  0  0  0  0  0  0  0  0
  129.2510  127.1690   63.9020 C   0  0  0  0  0  0  0  0  0  0  0  0
  129.3410  127.3510   62.7630 N   0  0  0  0  0  0  0  0  0  0  0  0
  128.2500  127.6980   66.1450 C   0  0  0  0  0  0  0  0  0  0  0  0
  127.2050  128.9950   65.5170 S   0  0  0  0  0  0  0  0  0  0  0  0
  128.2500  130.4610   65.2250 C   0  0  0  0  0  0  0  0  0  0  0  0
  128.1020  131.0820   63.8300 C   0  0  0  0  0  0  0  0  0  0  0  0
  127.5220  132.1600   63.6820 O   0  0  0  0  0  0  0  0  0  0  0  0
  128.6360  130.3490   62.8240 N   0  0  0  0  0  0  0  0  0  0  0  0
  128.6660  130.6410   61.4580 C   0  0  0  0  0  0  0  0  0  0  0  0
  127.3070  130.3710   60.4010 S   0  0  0  0  0  0  0  0  0  0  0  0
  128.1880  130.9610   59.0250 C   0  0  0  0  0  0  0  0  0  0  0  0
  129.4910  131.3490   59.3750 C   0  0  0  0  0  0  0  0  0  0  0  0
  129.7540  131.1820   60.7560 C   0  0  0  0  0  0  0  0  0  0  0  0
  131.0280  131.5290   61.3790 C   0  0  0  0  0  0  0  0  0  0  0  0
  132.0380  131.8030   61.8730 N   0  0  0  0  0  0  0  0  0  0  0  0
  130.4560  131.9410   58.3420 C   0  0  0  0  0  0  0  0  0  0  0  0
  129.6910  132.3960   57.0780 C   0  0  0  0  0  0  0  0  0  0  0  0
  128.6790  131.3400   56.6010 C   0  0  0  0  0  0  0  0  0  0  0  0
  127.5650  131.0930   57.6410 C   0  0  0  0  0  0  0  0  0  0  0  0
  128.1040  127.4810   67.4730 N   0  0  0  0  0  0  0  0  0  0  0  0
  127.7650  127.2040   70.2760 C   0  0  0  0  0  0  0  0  0  0  0  0
  127.5800  127.0600   71.6480 C   0  0  0  0  0  0  0  0  0  0  0  0
  1  2  1  0
  2  3  1  0
  3  4  2  0
  4  5  1  0
  5  6  2  0
  6  7  1  0
  7  8  2  0
  8  9  1  0
  9 10  1  0
 10 11  2  0
 11 12  1  0
 12 13  2  0
 13 14  1  0
 14 15  1  0
 13 16  1  0
 16 17  2  0
  9 18  2  0
 18 19  1  0
 19 20  3  0
 18 21  1  0
 21 22  1  0
 22 23  1  0
 23 24  1  0
 24 25  2  0
 24 26  1  0
 26 27  1  0
 27 28  1  0
 28 29  1  0
 29 30  2  0
 30 31  1  0
 31 32  1  0
 32 33  3  0
 30 34  1  0
 34 35  1  0
 35 36  1  0
 36 37  1  0
 21 38  2  0
  6 39  1  0
 39 40  2  0
 40  3  1  0
 38  7  1  0
 17 10  1  0
 31 27  2  0
 37 29  1  0
M  END
>  <Binding energies>  (52) 
[-10.21]

>  <Ligand effiencies>  (52) 
[-0.24902439024390247]

>  <Interactions>  (52) 
["H-B:LYS:547:NZ:9923, V-B:LYS:547:CE:9922, V-B:HIS:456:CE1:9040, V-B:GLY:544:C:9884, V-A:HIS:456:CD2:4068, V-A:GLU:543:CD:4908, H-A:GLU:543:OE1:4909, V-A:TYR:539:C:4867, V-A:TYR:539:CZ:4877, V-A:TYR:539:CE1:4875, V-A:PRO:540:CB:4885, V-A:PRO:540:CA:4883, V-A:PRO:540:N:4884, V-A:TYR:539:CE2:4876, V-A:LEU:475:CD1:4258, V-A:TYR:539:CG:4872, V-A:TYR:539:CD1:4873, V-A:PRO:540:C:4881, V-B:HIS:456:CG:9037, V-B:LYS:547:CD:9921, V-B:HIS:456:CD2:9039, V-A:ILE:369:CD1:3239, V-A:ARG:545:CZ:4926, V-A:GLY:454:CA:4049, H-A:GLY:454:N:4050, V-A:HIS:456:CE1:4069, H-A:ALA:541:N:4891, H-B:TYR:484:OH:9319, V-A:GLU:543:CB:4906, V-A:GLU:543:CG:4907"]

$$$$
RR6_Rahimova_2017
     RDKit          3D

 38 41  0  0  0  0  0  0  0  0999 V2000
  128.1870  124.3900   55.5710 C   0  0  0  0  0  0  0  0  0  0  0  0
  127.3900  124.2310   56.7370 O   0  0  0  0  0  0  0  0  0  0  0  0
  127.4100  123.0710   57.4430 C   0  0  0  0  0  0  0  0  0  0  0  0
  127.0550  121.9840   56.9760 O   0  0  0  0  0  0  0  0  0  0  0  0
  127.9070  123.2410   58.8500 C   0  0  0  0  0  0  0  0  0  0  0  0
  129.2470  123.5430   59.1340 C   0  0  0  0  0  0  0  0  0  0  0  0
  129.6790  123.6870   60.4500 C   0  0  0  0  0  0  0  0  0  0  0  0
  128.7730  123.5270   61.5090 C   0  0  0  0  0  0  0  0  0  0  0  0
  129.1080  123.6220   62.8730 N   0  0  0  0  0  0  0  0  0  0  0  0
  129.7450  122.7290   63.6620 C   0  0  0  0  0  0  0  0  0  0  0  0
  130.1700  121.6320   63.3000 O   0  0  0  0  0  0  0  0  0  0  0  0
  129.8760  123.1250   65.1370 C   0  0  0  0  0  0  0  0  0  0  0  0
  130.7470  124.7060   65.3970 S   0  0  0  0  0  0  0  0  0  0  0  0
  129.6180  125.7800   66.2590 C   0  0  0  0  0  0  0  0  0  0  0  0
  129.7220  125.7300   67.6090 N   0  0  0  0  0  0  0  0  0  0  0  0
  128.9330  126.5250   68.3750 C   0  0  0  0  0  0  0  0  0  0  0  0
  129.1530  126.4540   69.8570 C   0  0  0  0  0  0  0  0  0  0  0  0
  129.1980  127.6200   70.6370 C   0  0  0  0  0  0  0  0  0  0  0  0
  129.4160  127.5550   72.0110 C   0  0  0  0  0  0  0  0  0  0  0  0
  129.5880  126.3190   72.6330 C   0  0  0  0  0  0  0  0  0  0  0  0
  129.8340  126.2540   74.1290 C   0  0  0  0  0  0  0  0  0  0  0  0
  129.5450  125.1500   71.8770 C   0  0  0  0  0  0  0  0  0  0  0  0
  129.3260  125.2210   70.5050 C   0  0  0  0  0  0  0  0  0  0  0  0
  128.0020  127.3880   67.7870 C   0  0  0  0  0  0  0  0  0  0  0  0
  127.8720  127.4540   66.3920 C   0  0  0  0  0  0  0  0  0  0  0  0
  126.8720  128.4100   65.8310 C   0  0  0  0  0  0  0  0  0  0  0  0
  127.1960  129.1950   64.7200 C   0  0  0  0  0  0  0  0  0  0  0  0
  126.2640  130.0780   64.1810 C   0  0  0  0  0  0  0  0  0  0  0  0
  124.9900  130.1890   64.7360 C   0  0  0  0  0  0  0  0  0  0  0  0
  124.1310  131.0880   64.1340 O   0  0  0  0  0  0  0  0  0  0  0  0
  123.8300  130.9400   62.7510 C   0  0  0  0  0  0  0  0  0  0  0  0
  124.6580  129.4000   65.8480 C   0  0  0  0  0  0  0  0  0  0  0  0
  125.5920  128.5180   66.3840 C   0  0  0  0  0  0  0  0  0  0  0  0
  128.7000  126.6220   65.5990 C   0  0  0  0  0  0  0  0  0  0  0  0
  128.5950  126.6200   64.1360 C   0  0  0  0  0  0  0  0  0  0  0  0
  128.5140  126.6200   62.9820 N   0  0  0  0  0  0  0  0  0  0  0  0
  127.4360  123.2440   61.2300 C   0  0  0  0  0  0  0  0  0  0  0  0
  127.0070  123.0970   59.9140 C   0  0  0  0  0  0  0  0  0  0  0  0
  1  2  1  0
  2  3  1  0
  3  4  2  0
  3  5  1  0
  5  6  2  0
  6  7  1  0
  7  8  2  0
  8  9  1  0
  9 10  1  0
 10 11  2  0
 10 12  1  0
 12 13  1  0
 13 14  1  0
 14 15  2  0
 15 16  1  0
 16 17  1  0
 17 18  2  0
 18 19  1  0
 19 20  2  0
 20 21  1  0
 20 22  1  0
 22 23  2  0
 16 24  2  0
 24 25  1  0
 25 26  1  0
 26 27  2  0
 27 28  1  0
 28 29  2  0
 29 30  1  0
 30 31  1  0
 29 32  1  0
 32 33  2  0
 25 34  2  0
 34 35  1  0
 35 36  3  0
  8 37  1  0
 37 38  2  0
 38  5  1  0
 34 14  1  0
 23 17  1  0
 33 26  1  0
M  END
>  <Binding energies>  (53) 
[-9.45]

>  <Ligand effiencies>  (53) 
[-0.24230769230769228]

>  <Interactions>  (53) 
["V-B:GLU:543:CB:9878, V-B:HIS:456:CE1:9040, V-A:HIS:456:CD2:4068, H-A:HIS:456:NE2:4070, V-B:GLU:543:CD:9880, V-B:ALA:541:CB:9864, V-B:PRO:540:CA:9855, V-B:GLU:543:CG:9879, V-A:TYR:484:CE1:4345, H-B:TYR:539:N:9842, V-B:TYR:539:CD2:9846, V-A:TYR:484:CZ:4347, V-B:TYR:539:CE2:9848, V-B:TYR:539:CE1:9847, V-B:TYR:539:CZ:9849, V-B:ARG:545:CG:9894, H-A:TYR:484:OH:4348, V-A:HIS:456:CE1:4069, H-B:TYR:484:OH:9319, V-B:ARG:545:CZ:9898, H-B:GLY:454:N:9021, V-B:ARG:545:CD:9895, V-B:GLU:543:CA:9876, H-B:GLU:543:OE2:9882"]

$$$$
RR7_Rahimova_2017
     RDKit          3D

 47 53  0  0  0  0  0  0  0  0999 V2000
  127.2330  135.1470   61.7690 C   0  0  0  0  0  0  0  0  0  0  0  0
  127.8370  133.9070   62.1250 O   0  0  0  0  0  0  0  0  0  0  0  0
  128.3010  133.0740   61.1250 C   0  0  0  0  0  0  0  0  0  0  0  0
  127.6150  133.1140   59.9120 C   0  0  0  0  0  0  0  0  0  0  0  0
  128.0130  132.3150   58.8460 C   0  0  0  0  0  0  0  0  0  0  0  0
  129.1050  131.4430   58.9710 C   0  0  0  0  0  0  0  0  0  0  0  0
  129.5930  130.5590   57.7810 C   0  0  0  0  0  0  0  0  0  0  0  0
  128.4190  130.2460   56.9980 O   0  0  0  0  0  0  0  0  0  0  0  0
  128.0710  128.8820   56.7420 C   0  0  0  0  0  0  0  0  0  0  0  0
  126.5490  128.7180   56.8870 C   0  0  1  0  0  0  0  0  0  0  0  0
  126.3210  128.0790   58.1400 O   0  0  0  0  0  0  0  0  0  0  0  0
  125.5150  128.8520   58.9820 C   0  0  1  0  0  0  0  0  0  0  0  0
  125.9000  128.6490   60.3660 N   0  0  0  0  0  0  0  0  0  0  0  0
  126.4930  127.5330   60.9300 C   0  0  0  0  0  0  0  0  0  0  0  0
  126.6920  127.5980   62.2240 N   0  0  0  0  0  0  0  0  0  0  0  0
  126.1620  128.8100   62.5750 C   0  0  0  0  0  0  0  0  0  0  0  0
  126.0480  129.4640   63.8170 C   0  0  0  0  0  0  0  0  0  0  0  0
  126.5610  128.8300   64.9650 N   0  0  0  0  0  0  0  0  0  0  0  0
  127.4430  129.3010   65.8770 C   0  0  0  0  0  0  0  0  0  0  0  0
  127.9700  130.4150   65.8230 O   0  0  0  0  0  0  0  0  0  0  0  0
  127.7950  128.3500   67.0010 C   0  0  0  0  0  0  0  0  0  0  0  0
  126.8550  127.3980   67.4250 C   0  0  0  0  0  0  0  0  0  0  0  0
  127.1600  126.5100   68.4520 C   0  0  0  0  0  0  0  0  0  0  0  0
  128.4090  126.5620   69.0610 C   0  0  0  0  0  0  0  0  0  0  0  0
  129.3580  127.4950   68.6520 C   0  0  0  0  0  0  0  0  0  0  0  0
  129.0540  128.3860   67.6250 C   0  0  0  0  0  0  0  0  0  0  0  0
  125.4430  130.6890   63.8740 N   0  0  0  0  0  0  0  0  0  0  0  0
  124.9750  131.2190   62.7140 C   0  0  0  0  0  0  0  0  0  0  0  0
  125.0350  130.6780   61.4670 N   0  0  0  0  0  0  0  0  0  0  0  0
  125.6390  129.4830   61.4420 C   0  0  0  0  0  0  0  0  0  0  0  0
  125.6630  130.2820   58.4770 C   0  0  0  0  0  0  0  0  0  0  0  0
  125.7610  130.0320   56.9820 C   0  0  2  0  0  0  0  0  0  0  0  0
  124.4840  129.9420   56.3730 O   0  0  0  0  0  0  0  0  0  0  0  0
  130.5730  131.3180   56.8450 C   0  0  0  0  0  0  0  0  0  0  0  0
  130.2560  131.5050   55.4900 C   0  0  0  0  0  0  0  0  0  0  0  0
  131.1320  132.1700   54.6400 C   0  0  0  0  0  0  0  0  0  0  0  0
  132.3380  132.6560   55.1360 C   0  0  0  0  0  0  0  0  0  0  0  0
  132.6730  132.4820   56.4750 C   0  0  0  0  0  0  0  0  0  0  0  0
  131.7960  131.8150   57.3260 C   0  0  0  0  0  0  0  0  0  0  0  0
  130.3230  129.2430   58.1710 C   0  0  0  0  0  0  0  0  0  0  0  0
  131.3400  128.7260   57.3530 C   0  0  0  0  0  0  0  0  0  0  0  0
  131.9930  127.5430   57.6880 C   0  0  0  0  0  0  0  0  0  0  0  0
  131.6270  126.8590   58.8440 C   0  0  0  0  0  0  0  0  0  0  0  0
  130.6130  127.3460   59.6620 C   0  0  0  0  0  0  0  0  0  0  0  0
  129.9620  128.5280   59.3250 C   0  0  0  0  0  0  0  0  0  0  0  0
  129.8000  131.4180   60.1880 C   0  0  0  0  0  0  0  0  0  0  0  0
  129.4030  132.2180   61.2550 C   0  0  0  0  0  0  0  0  0  0  0  0
  1  2  1  0
  2  3  1  0
  3  4  2  0
  4  5  1  0
  5  6  2  0
  6  7  1  0
  7  8  1  0
  8  9  1  0
 10  9  1  1
 10 11  1  0
 11 12  1  0
 12 13  1  1
 13 14  1  0
 14 15  2  0
 15 16  1  0
 16 17  2  0
 17 18  1  0
 18 19  1  0
 19 20  2  0
 19 21  1  0
 21 22  2  0
 22 23  1  0
 23 24  2  0
 24 25  1  0
 25 26  2  0
 17 27  1  0
 27 28  2  0
 28 29  1  0
 29 30  2  0
 12 31  1  0
 31 32  1  0
 32 33  1  1
  7 34  1  0
 34 35  2  0
 35 36  1  0
 36 37  2  0
 37 38  1  0
 38 39  2  0
  7 40  1  0
 40 41  2  0
 41 42  1  0
 42 43  2  0
 43 44  1  0
 44 45  2  0
  6 46  1  0
 46 47  2  0
 47  3  1  0
 32 10  1  0
 39 34  1  0
 45 40  1  0
 30 13  1  0
 30 16  1  0
 26 21  1  0
M  END
>  <Binding energies>  (54) 
[-9.57]

>  <Ligand effiencies>  (54) 
[-0.1953061224489796]

>  <Interactions>  (54) 
["V-B:GLU:543:CB:9878, V-B:HIS:456:CE1:9040, V-B:GLY:544:C:9884, V-A:GLU:543:CD:4908, V-B:GLU:543:CD:9880, V-A:ILE:538:CD1:4865, V-A:TYR:539:CD2:4874, V-A:TYR:539:CZ:4877, V-A:PRO:540:CD:4887, V-A:PRO:540:CB:4885, V-B:PRO:482:CG:9298, V-A:PRO:540:CA:4883, V-A:PRO:540:N:4884, V-A:LEU:363:CD1:3189, V-A:TYR:539:CE2:4876, V-B:LEU:475:CD1:9229, V-A:ILE:538:CG2:4863, V-A:ALA:541:CB:4892, V-B:PRO:482:CB:9297, V-A:ASP:366:CB:3212, V-A:PRO:540:CG:4886, V-B:GLU:543:C:9874, V-A:ILE:538:CA:4860, V-A:ASP:366:CG:3213, V-B:ASP:366:CG:8184, V-B:ASP:366:CB:8183, V-B:ARG:545:CG:9894, V-A:HIS:456:CE1:4069, H-A:ALA:541:N:4891, H-B:TYR:484:OH:9319, H-B:ARG:545:NH2:9900, V-A:GLU:543:CB:4906, H-B:ASP:366:O:8180, H-B:TYR:531:OH:9767, H-A:TYR:539:OH:4878, H-B:GLU:543:OE1:9881, V-A:GLU:543:CG:4907, V-A:ILE:538:CB:4862"]

$$$$
RR8_A_Rahimova_2017
     RDKit          3D

 42 46  0  0  0  0  0  0  0  0999 V2000
  126.6250  127.4120   61.1780 O   0  0  0  0  0  0  0  0  0  0  0  0
  126.4990  127.3970   59.9490 C   0  0  0  0  0  0  0  0  0  0  0  0
  126.3370  128.5140   59.1750 O   0  0  0  0  0  0  0  0  0  0  0  0
  126.7280  129.7440   59.7210 C   0  0  1  0  0  0  0  0  0  0  0  0
  128.0410  129.7020   60.1980 O   0  0  0  0  0  0  0  0  0  0  0  0
  128.7360  130.9200   59.9430 C   0  0  2  0  0  0  0  0  0  0  0  0
  129.2760  131.4650   61.2760 C   0  0  0  0  0  0  0  0  0  0  0  0
  130.6470  131.8000   61.1130 O   0  0  0  0  0  0  0  0  0  0  0  0
  131.5200  130.6780   61.1080 C   0  0  0  0  0  0  0  0  0  0  0  0
  132.0270  130.4250   59.6960 C   0  0  0  0  0  0  0  0  0  0  0  0
  133.2000  131.0420   59.2560 C   0  0  0  0  0  0  0  0  0  0  0  0
  133.6700  130.8070   57.9660 C   0  0  0  0  0  0  0  0  0  0  0  0
  132.9660  129.9520   57.1200 C   0  0  0  0  0  0  0  0  0  0  0  0
  131.7970  129.3280   57.5530 C   0  0  0  0  0  0  0  0  0  0  0  0
  131.3290  129.5620   58.8430 C   0  0  0  0  0  0  0  0  0  0  0  0
  127.6900  131.7980   59.2450 C   0  0  1  0  0  0  0  0  0  0  0  0
  128.2340  132.5890   58.1900 O   0  0  0  0  0  0  0  0  0  0  0  0
  129.6510  132.5560   58.0630 C   0  0  0  0  0  0  0  0  0  0  0  0
  130.0370  132.3610   56.6030 C   0  0  0  0  0  0  0  0  0  0  0  0
  129.1250  131.7810   55.7160 C   0  0  0  0  0  0  0  0  0  0  0  0
  129.4740  131.5920   54.3820 C   0  0  0  0  0  0  0  0  0  0  0  0
  130.7370  131.9800   53.9370 C   0  0  0  0  0  0  0  0  0  0  0  0
  131.6540  132.5510   54.8150 C   0  0  0  0  0  0  0  0  0  0  0  0
  131.3060  132.7390   56.1510 C   0  0  0  0  0  0  0  0  0  0  0  0
  126.7500  130.7880   58.6130 C   0  0  2  0  0  0  0  0  0  0  0  0
  125.4780  131.3770   58.3560 O   0  0  0  0  0  0  0  0  0  0  0  0
  124.3720  130.7690   59.0140 C   0  0  0  0  0  0  0  0  0  0  0  0
  124.1420  131.4340   60.3630 C   0  0  0  0  0  0  0  0  0  0  0  0
  123.9450  130.6530   61.5070 C   0  0  0  0  0  0  0  0  0  0  0  0
  123.7450  131.2660   62.7410 C   0  0  0  0  0  0  0  0  0  0  0  0
  123.7470  132.6560   62.8300 C   0  0  0  0  0  0  0  0  0  0  0  0
  123.9480  133.4410   61.6970 C   0  0  0  0  0  0  0  0  0  0  0  0
  124.1490  132.8280   60.4610 C   0  0  0  0  0  0  0  0  0  0  0  0
  126.5200  126.1310   59.1420 C   0  0  0  0  0  0  0  0  0  0  0  0
  125.7360  125.0190   59.4860 C   0  0  0  0  0  0  0  0  0  0  0  0
  125.7780  123.8590   58.7180 C   0  0  0  0  0  0  0  0  0  0  0  0
  126.6040  123.7790   57.5890 C   0  0  0  0  0  0  0  0  0  0  0  0
  126.6470  122.5430   56.7700 N   0  0  0  0  0  0  0  0  0  0  0  0
  125.5880  122.0480   56.3970 O   0  0  0  0  0  0  0  0  0  0  0  0
  127.7400  122.0580   56.4940 O   0  0  0  0  0  0  0  0  0  0  0  0
  127.3870  124.8890   57.2480 C   0  0  0  0  0  0  0  0  0  0  0  0
  127.3470  126.0490   58.0140 C   0  0  0  0  0  0  0  0  0  0  0  0
  1  2  2  0
  2  3  1  0
  4  3  1  6
  4  5  1  0
  5  6  1  0
  6  7  1  1
  7  8  1  0
  8  9  1  0
  9 10  1  0
 10 11  2  0
 11 12  1  0
 12 13  2  0
 13 14  1  0
 14 15  2  0
  6 16  1  0
 16 17  1  6
 17 18  1  0
 18 19  1  0
 19 20  2  0
 20 21  1  0
 21 22  2  0
 22 23  1  0
 23 24  2  0
 16 25  1  0
 25 26  1  1
 26 27  1  0
 27 28  1  0
 28 29  2  0
 29 30  1  0
 30 31  2  0
 31 32  1  0
 32 33  2  0
  2 34  1  0
 34 35  2  0
 35 36  1  0
 36 37  2  0
 37 38  1  0
 38 39  2  0
 38 40  1  0
 37 41  1  0
 41 42  2  0
 25  4  1  0
 33 28  1  0
 42 34  1  0
 15 10  1  0
 24 19  1  0
M  CHG  2  38   1  40  -1
M  END
>  <Binding energies>  (55) 
[-10.03]

>  <Ligand effiencies>  (55) 
[-0.2388095238095238]

>  <Interactions>  (55) 
["V-A:ILE:538:CD1:4865, V-A:TYR:539:C:4867, V-A:TYR:539:CZ:4877, V-A:PRO:540:CD:4887, V-A:TYR:539:CE1:4875, V-A:TYR:531:CE2:4793, V-A:PRO:540:CB:4885, V-A:PRO:540:CA:4883, V-A:PRO:540:N:4884, V-A:LEU:363:CD1:3189, V-A:TYR:539:CE2:4876, V-B:LEU:475:CD1:9229, V-A:ILE:538:CG2:4863, V-B:ILE:369:CG2:8208, V-B:ILE:369:CD1:8210, V-B:TYR:539:C:9839, V-B:PRO:540:CA:9855, V-B:PRO:540:CB:9857, V-B:PRO:540:CD:9859, H-B:TYR:539:N:9842, V-B:PRO:540:N:9856, V-A:ASP:366:CB:3212, V-A:TYR:531:CZ:4794, V-A:TYR:539:CD1:4873, V-A:ILE:538:CA:4860, V-A:LEU:363:CB:3187, V-A:LEU:363:CA:3185, V-B:ASP:366:CG:8184, V-B:ASP:366:CB:8183, H-A:ALA:541:N:4891, H-B:ARG:545:NH2:9900, V-B:GLY:454:CA:9020, H-A:TYR:539:OH:4878"]

$$$$
RR8_B_Rahimova_2017
     RDKit          3D

 42 46  0  0  0  0  0  0  0  0999 V2000
  128.9920  128.1320   53.6700 O   0  0  0  0  0  0  0  0  0  0  0  0
  128.5730  127.8530   54.7980 C   0  0  0  0  0  0  0  0  0  0  0  0
  128.5120  128.7380   55.8400 O   0  0  0  0  0  0  0  0  0  0  0  0
  127.5530  129.7650   55.7830 C   0  0  2  0  0  0  0  0  0  0  0  0
  127.9100  130.7620   54.8670 O   0  0  0  0  0  0  0  0  0  0  0  0
  128.6560  131.8040   55.4950 C   0  0  2  0  0  0  0  0  0  0  0  0
  130.0250  131.9440   54.8050 C   0  0  0  0  0  0  0  0  0  0  0  0
  130.8580  132.7930   55.5850 O   0  0  0  0  0  0  0  0  0  0  0  0
  132.1250  132.2450   55.9170 C   0  0  0  0  0  0  0  0  0  0  0  0
  131.9390  131.1320   56.9370 C   0  0  0  0  0  0  0  0  0  0  0  0
  131.4770  129.8800   56.5210 C   0  0  0  0  0  0  0  0  0  0  0  0
  131.2810  128.8640   57.4530 C   0  0  0  0  0  0  0  0  0  0  0  0
  131.5490  129.1040   58.8000 C   0  0  0  0  0  0  0  0  0  0  0  0
  132.0160  130.3470   59.2210 C   0  0  0  0  0  0  0  0  0  0  0  0
  132.2090  131.3640   58.2890 C   0  0  0  0  0  0  0  0  0  0  0  0
  128.7010  131.4010   56.9740 C   0  0  1  0  0  0  0  0  0  0  0  0
  128.6370  132.5680   57.7980 O   0  0  0  0  0  0  0  0  0  0  0  0
  129.3760  132.5410   59.0220 C   0  0  0  0  0  0  0  0  0  0  0  0
  128.4760  132.7100   60.2430 C   0  0  0  0  0  0  0  0  0  0  0  0
  127.4780  133.6880   60.2480 C   0  0  0  0  0  0  0  0  0  0  0  0
  126.6380  133.8180   61.3510 C   0  0  0  0  0  0  0  0  0  0  0  0
  126.8020  132.9720   62.4460 C   0  0  0  0  0  0  0  0  0  0  0  0
  127.7980  131.9980   62.4500 C   0  0  0  0  0  0  0  0  0  0  0  0
  128.6360  131.8650   61.3450 C   0  0  0  0  0  0  0  0  0  0  0  0
  127.4950  130.4830   57.1310 C   0  0  2  0  0  0  0  0  0  0  0  0
  127.6700  129.6180   58.2500 O   0  0  0  0  0  0  0  0  0  0  0  0
  126.5260  128.8730   58.6360 C   0  0  0  0  0  0  0  0  0  0  0  0
  125.4220  129.8500   59.0000 C   0  0  0  0  0  0  0  0  0  0  0  0
  125.3550  130.3910   60.2870 C   0  0  0  0  0  0  0  0  0  0  0  0
  124.3270  131.2720   60.6150 C   0  0  0  0  0  0  0  0  0  0  0  0
  123.3710  131.6060   59.6590 C   0  0  0  0  0  0  0  0  0  0  0  0
  123.4330  131.0710   58.3730 C   0  0  0  0  0  0  0  0  0  0  0  0
  124.4610  130.1920   58.0440 C   0  0  0  0  0  0  0  0  0  0  0  0
  128.1070  126.4800   55.1840 C   0  0  0  0  0  0  0  0  0  0  0  0
  128.1940  126.0130   56.5050 C   0  0  0  0  0  0  0  0  0  0  0  0
  127.7620  124.7320   56.8320 C   0  0  0  0  0  0  0  0  0  0  0  0
  127.2420  123.8820   55.8480 C   0  0  0  0  0  0  0  0  0  0  0  0
  126.8070  122.5070   56.1950 N   0  0  0  0  0  0  0  0  0  0  0  0
  125.7350  122.1000   55.7540 O   0  0  0  0  0  0  0  0  0  0  0  0
  127.5360  121.8200   56.9070 O   0  0  0  0  0  0  0  0  0  0  0  0
  127.1490  124.3500   54.5310 C   0  0  0  0  0  0  0  0  0  0  0  0
  127.5740  125.6340   54.2040 C   0  0  0  0  0  0  0  0  0  0  0  0
  1  2  2  0
  2  3  1  0
  4  3  1  1
  4  5  1  0
  5  6  1  0
  6  7  1  6
  7  8  1  0
  8  9  1  0
  9 10  1  0
 10 11  2  0
 11 12  1  0
 12 13  2  0
 13 14  1  0
 14 15  2  0
  6 16  1  0
 16 17  1  1
 17 18  1  0
 18 19  1  0
 19 20  2  0
 20 21  1  0
 21 22  2  0
 22 23  1  0
 23 24  2  0
 16 25  1  0
 25 26  1  1
 26 27  1  0
 27 28  1  0
 28 29  2  0
 29 30  1  0
 30 31  2  0
 31 32  1  0
 32 33  2  0
  2 34  1  0
 34 35  2  0
 35 36  1  0
 36 37  2  0
 37 38  1  0
 38 39  2  0
 38 40  1  0
 37 41  1  0
 41 42  2  0
 25  4  1  0
 33 28  1  0
 42 34  1  0
 15 10  1  0
 24 19  1  0
M  CHG  2  38   1  40  -1
M  END
>  <Binding energies>  (56) 
[-9.57]

>  <Ligand effiencies>  (56) 
[-0.22785714285714287]

>  <Interactions>  (56) 
["V-A:TYR:539:CD2:4874, V-A:TYR:539:C:4867, V-A:TYR:539:CZ:4877, H-A:TYR:539:N:4870, V-A:PRO:540:CD:4887, V-A:TYR:539:CE1:4875, V-A:PRO:540:CB:4885, V-A:PRO:540:CA:4883, V-A:PRO:540:N:4884, V-A:LEU:363:CD1:3189, V-A:TYR:539:CE2:4876, V-B:LEU:475:CD1:9229, V-B:ILE:369:CG2:8208, V-A:ALA:541:CB:4892, V-B:ILE:369:CD1:8210, V-B:ILE:538:CB:9834, V-B:TYR:539:C:9839, H-B:TYR:539:N:9842, V-B:PRO:540:N:9856, V-A:TYR:531:CZ:4794, V-A:TYR:539:CD1:4873, V-A:ASP:366:CG:3213, V-B:ILE:538:CA:9832, V-B:ASP:366:CG:8184, V-B:ASP:366:CB:8183, V-B:MET:535:CG:9805, H-A:TYR:531:OH:4795, V-B:ASP:366:CA:8181, V-A:MET:535:CE:4835, V-B:ASP:366:C:8179, V-B:ILE:369:CB:8207"]

$$$$
RR9_Rahimova_2017
     RDKit          3D

 36 40  0  0  0  0  0  0  0  0999 V2000
  131.1850  123.0950   72.2650 C   0  0  0  0  0  0  0  0  0  0  0  0
  130.3890  123.5340   71.0320 C   0  0  0  0  0  0  0  0  0  0  0  0
  129.6440  124.7020   71.3610 O   0  0  0  0  0  0  0  0  0  0  0  0
  129.0260  125.4190   70.3550 C   0  0  0  0  0  0  0  0  0  0  0  0
  127.8900  126.1430   70.7110 C   0  0  0  0  0  0  0  0  0  0  0  0
  127.2010  126.8930   69.7630 C   0  0  0  0  0  0  0  0  0  0  0  0
  127.6290  126.9390   68.4280 C   0  0  0  0  0  0  0  0  0  0  0  0
  126.8880  127.7420   67.4010 C   0  0  0  0  0  0  0  0  0  0  0  0
  127.4650  128.0670   66.1630 C   0  0  0  0  0  0  0  0  0  0  0  0
  126.7600  128.8090   65.1980 C   0  0  0  0  0  0  0  0  0  0  0  0
  127.3950  129.0380   63.8540 C   0  0  0  0  0  0  0  0  0  0  0  0
  128.2260  129.9330   63.7020 O   0  0  0  0  0  0  0  0  0  0  0  0
  126.9740  128.2270   62.8620 N   0  0  0  0  0  0  0  0  0  0  0  0
  127.3440  128.3380   61.4470 C   0  0  0  0  0  0  0  0  0  0  0  0
  126.5290  129.4130   60.6910 C   0  0  0  0  0  0  0  0  0  0  0  0
  127.3190  130.6620   60.3150 C   0  0  0  0  0  0  0  0  0  0  0  0
  127.8880  131.4590   61.3120 C   0  0  0  0  0  0  0  0  0  0  0  0
  128.6370  132.5800   60.9640 C   0  0  0  0  0  0  0  0  0  0  0  0
  128.8110  132.9030   59.6200 C   0  0  0  0  0  0  0  0  0  0  0  0
  128.2430  132.1150   58.6200 C   0  0  0  0  0  0  0  0  0  0  0  0
  127.4940  130.9930   58.9680 C   0  0  0  0  0  0  0  0  0  0  0  0
  125.4580  129.2330   65.5610 C   0  0  0  0  0  0  0  0  0  0  0  0
  124.3730  130.0060   65.0050 C   0  0  0  0  0  0  0  0  0  0  0  0
  124.3080  130.7630   63.7200 C   0  0  0  0  0  0  0  0  0  0  0  0
  123.4560  130.3390   62.6950 C   0  0  0  0  0  0  0  0  0  0  0  0
  123.4090  131.0370   61.4910 C   0  0  0  0  0  0  0  0  0  0  0  0
  124.2120  132.1640   61.3080 C   0  0  0  0  0  0  0  0  0  0  0  0
  124.1750  132.9140   59.9890 C   0  0  0  0  0  0  0  0  0  0  0  0
  125.0650  132.5900   62.3280 C   0  0  0  0  0  0  0  0  0  0  0  0
  125.1080  131.8930   63.5320 C   0  0  0  0  0  0  0  0  0  0  0  0
  123.3430  130.0090   65.8220 N   0  0  0  0  0  0  0  0  0  0  0  0
  123.6900  129.3300   66.9270 N   0  0  0  0  0  0  0  0  0  0  0  0
  124.9720  128.8430   66.8320 C   0  0  0  0  0  0  0  0  0  0  0  0
  125.6290  128.1320   67.7470 N   0  0  0  0  0  0  0  0  0  0  0  0
  128.7720  126.2060   68.0770 C   0  0  0  0  0  0  0  0  0  0  0  0
  129.4650  125.4560   69.0240 C   0  0  0  0  0  0  0  0  0  0  0  0
  1  2  1  0
  2  3  1  0
  3  4  1  0
  4  5  2  0
  5  6  1  0
  6  7  2  0
  7  8  1  0
  8  9  2  0
  9 10  1  0
 10 11  1  0
 11 12  2  0
 11 13  1  0
 13 14  1  0
 14 15  1  0
 15 16  1  0
 16 17  2  0
 17 18  1  0
 18 19  2  0
 19 20  1  0
 20 21  2  0
 10 22  2  0
 22 23  1  0
 23 24  1  0
 24 25  2  0
 25 26  1  0
 26 27  2  0
 27 28  1  0
 27 29  1  0
 29 30  2  0
 23 31  2  0
 31 32  1  0
 32 33  1  0
 33 34  2  0
  7 35  1  0
 35 36  2  0
 36  4  1  0
 34  8  1  0
 21 16  1  0
 33 22  1  0
 30 24  1  0
M  END
>  <Binding energies>  (57) 
[-9.66]

>  <Ligand effiencies>  (57) 
[-0.2542105263157895]

>  <Interactions>  (57) 
["H-B:LYS:547:NZ:9923, V-B:GLU:543:CB:9878, V-B:HIS:456:CE1:9040, V-B:GLY:544:C:9884, V-A:HIS:456:CD2:4068, H-A:HIS:456:NE2:4070, V-B:GLU:543:CD:9880, V-A:TYR:539:CD2:4874, V-A:TYR:539:C:4867, V-A:TYR:539:CZ:4877, V-A:PRO:540:CA:4883, V-A:PRO:540:N:4884, V-A:TYR:539:CE2:4876, V-B:LEU:475:CD1:9229, V-B:ILE:369:CG2:8208, V-A:ALA:541:CB:4892, V-B:ILE:369:CD1:8210, V-A:TYR:484:CE1:4345, V-A:TYR:484:CZ:4347, V-B:GLU:543:C:9874, V-A:HIS:456:CB:4065, V-B:ASP:366:CG:8184, V-A:TYR:484:CD1:4343, V-A:TYR:484:CG:4342, V-A:HIS:456:CG:4066, V-A:TYR:484:CD2:4344, V-B:ARG:545:CG:9894, V-A:TYR:484:CE2:4346, V-A:HIS:456:CE1:4069, H-B:TYR:484:OH:9319, V-B:ARG:545:CZ:9898, H-B:GLY:454:N:9021, V-B:GLY:454:CA:9020, H-B:ILE:455:N:9026, H-B:ARG:545:NE:9896, V-B:ARG:545:CD:9895, H-B:HIS:456:ND1:9038, V-B:ILE:455:C:9023, H-B:GLU:543:OE1:9881, H-B:GLU:543:OE2:9882, V-B:ARG:545:CB:9893, H-B:ILE:455:O:9024"]

$$$$
