1a_Ghoteimi_2023
     RDKit          3D

 40 43  0  0  0  0  0  0  0  0999 V2000
  129.9780  118.3440   61.1000 C   0  0  0  0  0  0  0  0  0  0  0  0
  131.1050  117.7850   60.2260 C   0  0  0  0  0  0  0  0  0  0  0  0
  132.3590  118.0740   60.8310 O   0  0  0  0  0  0  0  0  0  0  0  0
  133.0860  119.1580   60.4550 C   0  0  0  0  0  0  0  0  0  0  0  0
  133.8740  119.1520   59.5050 O   0  0  0  0  0  0  0  0  0  0  0  0
  132.8310  120.3670   61.3080 C   0  0  0  0  0  0  0  0  0  0  0  0
  133.8350  120.9390   62.1040 C   0  0  0  0  0  0  0  0  0  0  0  0
  133.5680  122.0580   62.8870 C   0  0  0  0  0  0  0  0  0  0  0  0
  132.2880  122.6320   62.8850 C   0  0  0  0  0  0  0  0  0  0  0  0
  131.9070  123.7580   63.6390 N   0  0  0  0  0  0  0  0  0  0  0  0
  132.5580  124.9240   63.8420 C   0  0  0  0  0  0  0  0  0  0  0  0
  133.6500  125.2270   63.3630 O   0  0  0  0  0  0  0  0  0  0  0  0
  131.8400  125.9290   64.7420 C   0  0  0  0  0  0  0  0  0  0  0  0
  131.0910  125.1220   66.1880 S   0  0  0  0  0  0  0  0  0  0  0  0
  129.8690  126.2550   66.8100 C   0  0  0  0  0  0  0  0  0  0  0  0
  129.8640  126.3700   68.1590 N   0  0  0  0  0  0  0  0  0  0  0  0
  128.9800  127.2090   68.7610 C   0  0  0  0  0  0  0  0  0  0  0  0
  129.0500  127.2980   70.2580 C   0  0  0  0  0  0  0  0  0  0  0  0
  128.7500  126.1920   71.0700 C   0  0  0  0  0  0  0  0  0  0  0  0
  128.8170  126.2770   72.4570 C   0  0  0  0  0  0  0  0  0  0  0  0
  129.1830  127.4680   73.0780 C   0  0  0  0  0  0  0  0  0  0  0  0
  129.2260  127.4610   74.4590 O   0  0  0  0  0  0  0  0  0  0  0  0
  128.0060  127.3930   75.1900 C   0  0  0  0  0  0  0  0  0  0  0  0
  129.4820  128.5830   72.2820 C   0  0  0  0  0  0  0  0  0  0  0  0
  129.4140  128.4950   70.8950 C   0  0  0  0  0  0  0  0  0  0  0  0
  128.0720  127.9550   67.9980 C   0  0  0  0  0  0  0  0  0  0  0  0
  128.0420  127.8330   66.6030 C   0  0  0  0  0  0  0  0  0  0  0  0
  127.0260  128.6350   65.8570 C   0  0  0  0  0  0  0  0  0  0  0  0
  125.6740  128.5890   66.2130 C   0  0  0  0  0  0  0  0  0  0  0  0
  124.7350  129.3510   65.5220 C   0  0  0  0  0  0  0  0  0  0  0  0
  125.1280  130.1770   64.4700 C   0  0  0  0  0  0  0  0  0  0  0  0
  124.1290  130.8950   63.8440 O   0  0  0  0  0  0  0  0  0  0  0  0
  124.3450  131.3800   62.5240 C   0  0  0  0  0  0  0  0  0  0  0  0
  126.4850  130.2310   64.1150 C   0  0  0  0  0  0  0  0  0  0  0  0
  127.4220  129.4680   64.8060 C   0  0  0  0  0  0  0  0  0  0  0  0
  128.9690  126.9610   65.9830 C   0  0  0  0  0  0  0  0  0  0  0  0
  128.9960  126.8030   64.5250 C   0  0  0  0  0  0  0  0  0  0  0  0
  129.0170  126.6790   63.3740 N   0  0  0  0  0  0  0  0  0  0  0  0
  131.2860  122.0630   62.0970 C   0  0  0  0  0  0  0  0  0  0  0  0
  131.5540  120.9430   61.3140 C   0  0  0  0  0  0  0  0  0  0  0  0
  1  2  1  0
  2  3  1  0
  3  4  1  0
  4  5  2  0
  4  6  1  0
  6  7  2  0
  7  8  1  0
  8  9  2  0
  9 10  1  0
 10 11  1  0
 11 12  2  0
 11 13  1  0
 13 14  1  0
 14 15  1  0
 15 16  2  0
 16 17  1  0
 17 18  1  0
 18 19  2  0
 19 20  1  0
 20 21  2  0
 21 22  1  0
 22 23  1  0
 21 24  1  0
 24 25  2  0
 17 26  2  0
 26 27  1  0
 27 28  1  0
 28 29  2  0
 29 30  1  0
 30 31  2  0
 31 32  1  0
 32 33  1  0
 31 34  1  0
 34 35  2  0
 27 36  2  0
 36 37  1  0
 37 38  3  0
  9 39  1  0
 39 40  2  0
 40  6  1  0
 36 15  1  0
 25 18  1  0
 35 28  1  0
M  END
>  <Binding energies>  (1) 
[-8.57]

>  <Ligand effiencies>  (1) 
[-0.20902439024390246]

>  <Interactions>  (1) 
["H-A:LYS:547:NZ:4951, V-B:HIS:456:CD2:9039, V-A:GLU:543:C:4902, V-A:HIS:456:CE1:4069, H-A:GLY:454:N:4049, H-A:ARG:545:NH2:4928, V-A:ARG:545:CZ:4926, H-A:TYR:484:OH:4347, V-B:GLU:543:CD:9880, V-B:ALA:541:CB:9864, V-B:ILE:369:CD1:8210, V-A:GLU:543:CD:4908, V-A:PRO:482:CG:4326, V-B:TYR:539:CD2:9846, V-A:PRO:482:CB:4325, V-B:TYR:539:C:9839, V-A:GLY:454:CA:4048, V-A:ILE:369:CG2:3236, V-A:LEU:475:CD1:4257, V-B:PRO:540:C:9853, V-B:HIS:456:CE1:9041, V-B:ARG:545:CZ:9898, V-B:ARG:545:CD:9895, H-A:ARG:545:NH1:4927, H-A:SER:385:OG:3409, H-A:HIS:383:NE2:3393, V-A:HIS:383:CE1:3392, H-B:GLY:454:N:9021"]

$$$$
1b_Ghoteimi_2023
     RDKit          3D

 34 37  0  0  0  0  0  0  0  0999 V2000
  133.9380  125.4980   66.5930 C   0  0  0  0  0  0  0  0  0  0  0  0
  133.8660  124.8770   65.3140 O   0  0  0  0  0  0  0  0  0  0  0  0
  132.8050  125.1740   64.4810 C   0  0  0  0  0  0  0  0  0  0  0  0
  133.0480  125.1000   63.1100 C   0  0  0  0  0  0  0  0  0  0  0  0
  132.0390  125.3830   62.1940 C   0  0  0  0  0  0  0  0  0  0  0  0
  130.7530  125.7450   62.6210 C   0  0  0  0  0  0  0  0  0  0  0  0
  129.6670  126.0520   61.6290 C   0  0  0  0  0  0  0  0  0  0  0  0
  129.1760  125.1070   60.7210 C   0  0  0  0  0  0  0  0  0  0  0  0
  128.1590  125.4430   59.8190 C   0  0  0  0  0  0  0  0  0  0  0  0
  127.6880  124.3860   58.8750 C   0  0  0  0  0  0  0  0  0  0  0  0
  126.3220  124.1310   58.7250 C   0  0  0  0  0  0  0  0  0  0  0  0
  125.8780  123.1410   57.8530 C   0  0  0  0  0  0  0  0  0  0  0  0
  126.7900  122.3840   57.1180 C   0  0  0  0  0  0  0  0  0  0  0  0
  126.2590  121.4230   56.2780 O   0  0  0  0  0  0  0  0  0  0  0  0
  125.2200  121.7880   55.3760 C   0  0  0  0  0  0  0  0  0  0  0  0
  128.1630  122.6300   57.2710 C   0  0  0  0  0  0  0  0  0  0  0  0
  128.6030  123.6210   58.1440 C   0  0  0  0  0  0  0  0  0  0  0  0
  127.6310  126.7580   59.8560 C   0  0  0  0  0  0  0  0  0  0  0  0
  126.5020  127.1310   58.9990 C   0  0  0  0  0  0  0  0  0  0  0  0
  125.6100  127.4240   58.3220 N   0  0  0  0  0  0  0  0  0  0  0  0
  128.1860  127.6680   60.7830 C   0  0  0  0  0  0  0  0  0  0  0  0
  127.6550  129.3590   60.9640 S   0  0  0  0  0  0  0  0  0  0  0  0
  129.1120  130.3600   61.4140 C   0  0  0  0  0  0  0  0  0  0  0  0
  129.5840  131.3430   60.3330 C   0  0  0  0  0  0  0  0  0  0  0  0
  129.7490  132.5360   60.5950 O   0  0  0  0  0  0  0  0  0  0  0  0
  129.7870  130.7880   59.1170 N   0  0  0  0  0  0  0  0  0  0  0  0
  130.2130  131.4300   57.9600 C   0  0  0  0  0  0  0  0  0  0  0  0
  131.5240  131.3600   57.4890 C   0  0  0  0  0  0  0  0  0  0  0  0
  131.5320  132.1180   56.3400 C   0  0  0  0  0  0  0  0  0  0  0  0
  130.2900  132.6160   56.1290 O   0  0  0  0  0  0  0  0  0  0  0  0
  129.4630  132.1720   57.1620 N   0  0  0  0  0  0  0  0  0  0  0  0
  129.1600  127.3120   61.6540 N   0  0  0  0  0  0  0  0  0  0  0  0
  130.5200  125.8180   64.0040 C   0  0  0  0  0  0  0  0  0  0  0  0
  131.5260  125.5380   64.9230 C   0  0  0  0  0  0  0  0  0  0  0  0
  1  2  1  0
  2  3  1  0
  3  4  2  0
  4  5  1  0
  5  6  2  0
  6  7  1  0
  7  8  2  0
  8  9  1  0
  9 10  1  0
 10 11  2  0
 11 12  1  0
 12 13  2  0
 13 14  1  0
 14 15  1  0
 13 16  1  0
 16 17  2  0
  9 18  2  0
 18 19  1  0
 19 20  3  0
 18 21  1  0
 21 22  1  0
 22 23  1  0
 23 24  1  0
 24 25  2  0
 24 26  1  0
 26 27  1  0
 27 28  1  0
 28 29  2  0
 29 30  1  0
 30 31  1  0
 21 32  2  0
  6 33  1  0
 33 34  2  0
 34  3  1  0
 32  7  1  0
 17 10  1  0
 31 27  2  0
M  END
>  <Binding energies>  (2) 
[-9.38]

>  <Ligand effiencies>  (2) 
[-0.268]

>  <Interactions>  (2) 
["H-A:GLY:454:N:4049, V-A:ARG:545:CZ:4926, V-A:ASP:366:CG:3212, H-A:TYR:484:OH:4347, H-A:ARG:545:NE:4924, V-A:ARG:545:CD:4923, V-A:ARG:545:CG:4922, V-A:PRO:540:CB:4885, V-A:ILE:538:CB:4862, V-A:LEU:363:CD1:3188, V-A:PRO:540:N:4884, V-A:PRO:540:CA:4883, V-B:ASP:366:CG:8184, H-B:TYR:531:OH:9767, H-A:ALA:541:N:4891, V-A:PRO:540:CD:4887, V-B:PRO:540:CB:9857, V-B:TYR:539:CE2:9848, V-B:PRO:540:CD:9859, V-B:PRO:540:N:9856, V-B:PRO:540:CA:9855, V-B:MET:535:CE:9807, V-B:TYR:539:CD2:9846, V-B:TYR:539:C:9839, V-B:LEU:363:CD1:8160, V-B:TYR:539:CZ:9849, H-A:TYR:539:N:4870, V-B:TYR:539:CE1:9847, V-B:ILE:538:CG2:9835, H-B:TYR:539:N:9842, V-B:ILE:538:CA:9832, V-B:MET:535:CG:9805, V-B:ILE:538:CB:9834, V-B:ILE:538:CG1:9836"]

$$$$
1c_Ghoteimi_2023
     RDKit          3D

 34 37  0  0  0  0  0  0  0  0999 V2000
  127.8480  133.4930   61.3660 C   0  0  0  0  0  0  0  0  0  0  0  0
  129.0360  132.7780   61.0440 O   0  0  0  0  0  0  0  0  0  0  0  0
  129.0470  131.4010   61.1590 C   0  0  0  0  0  0  0  0  0  0  0  0
  127.8130  130.7590   61.1020 C   0  0  0  0  0  0  0  0  0  0  0  0
  127.7300  129.3730   61.2130 C   0  0  0  0  0  0  0  0  0  0  0  0
  128.8800  128.5880   61.3850 C   0  0  0  0  0  0  0  0  0  0  0  0
  128.7950  127.0940   61.5100 C   0  0  0  0  0  0  0  0  0  0  0  0
  128.3610  126.2720   60.4650 C   0  0  0  0  0  0  0  0  0  0  0  0
  128.3240  124.8810   60.6190 C   0  0  0  0  0  0  0  0  0  0  0  0
  127.9160  124.0610   59.4410 C   0  0  0  0  0  0  0  0  0  0  0  0
  126.5980  124.0900   58.9760 C   0  0  0  0  0  0  0  0  0  0  0  0
  126.2140  123.3090   57.8910 C   0  0  0  0  0  0  0  0  0  0  0  0
  127.1370  122.4800   57.2530 C   0  0  0  0  0  0  0  0  0  0  0  0
  126.6670  121.7400   56.1840 O   0  0  0  0  0  0  0  0  0  0  0  0
  125.2760  121.7670   55.8790 C   0  0  0  0  0  0  0  0  0  0  0  0
  128.4590  122.4430   57.7210 C   0  0  0  0  0  0  0  0  0  0  0  0
  128.8410  123.2260   58.8070 C   0  0  0  0  0  0  0  0  0  0  0  0
  128.7060  124.3310   61.8660 C   0  0  0  0  0  0  0  0  0  0  0  0
  128.6570  122.8840   62.1020 C   0  0  0  0  0  0  0  0  0  0  0  0
  128.6180  121.7430   62.2870 N   0  0  0  0  0  0  0  0  0  0  0  0
  129.1490  125.2160   62.8700 C   0  0  0  0  0  0  0  0  0  0  0  0
  129.8170  124.6550   64.4210 S   0  0  0  0  0  0  0  0  0  0  0  0
  131.3960  125.5470   64.5990 C   0  0  0  0  0  0  0  0  0  0  0  0
  132.4350  125.0960   63.5670 C   0  0  0  0  0  0  0  0  0  0  0  0
  133.5180  124.6520   63.9490 O   0  0  0  0  0  0  0  0  0  0  0  0
  132.0430  125.1870   62.2770 N   0  0  0  0  0  0  0  0  0  0  0  0
  132.7220  124.7080   61.1690 C   0  0  0  0  0  0  0  0  0  0  0  0
  133.9270  124.1800   61.1260 N   0  0  0  0  0  0  0  0  0  0  0  0
  134.2420  123.7940   59.9050 C   0  0  0  0  0  0  0  0  0  0  0  0
  133.2770  124.0050   58.9250 C   0  0  0  0  0  0  0  0  0  0  0  0
  131.8860  124.7540   59.6500 S   0  0  0  0  0  0  0  0  0  0  0  0
  129.1990  126.5580   62.6920 N   0  0  0  0  0  0  0  0  0  0  0  0
  130.1180  129.2450   61.4350 C   0  0  0  0  0  0  0  0  0  0  0  0
  130.2060  130.6300   61.3260 C   0  0  0  0  0  0  0  0  0  0  0  0
  1  2  1  0
  2  3  1  0
  3  4  2  0
  4  5  1  0
  5  6  2  0
  6  7  1  0
  7  8  2  0
  8  9  1  0
  9 10  1  0
 10 11  2  0
 11 12  1  0
 12 13  2  0
 13 14  1  0
 14 15  1  0
 13 16  1  0
 16 17  2  0
  9 18  2  0
 18 19  1  0
 19 20  3  0
 18 21  1  0
 21 22  1  0
 22 23  1  0
 23 24  1  0
 24 25  2  0
 24 26  1  0
 26 27  1  0
 27 28  2  0
 28 29  1  0
 29 30  2  0
 30 31  1  0
 21 32  2  0
  6 33  1  0
 33 34  2  0
 34  3  1  0
 32  7  1  0
 17 10  1  0
 31 27  1  0
M  END
>  <Binding energies>  (3) 
[-7.97]

>  <Ligand effiencies>  (3) 
[-0.2277142857142857]

>  <Interactions>  (3) 
["H-A:GLY:454:N:4049, H-A:ARG:545:NH2:4928, H-B:ALA:541:N:9863, V-A:ARG:545:CZ:4926, V-A:ASP:366:CG:3212, H-A:TYR:484:OH:4347, V-B:GLU:543:CD:9880, V-B:ALA:541:CB:9864, V-A:ALA:541:CB:4892, H-A:ALA:541:N:4891, V-A:GLU:543:CD:4908, V-A:ALA:541:CA:4890, V-B:PRO:540:CB:9857, V-B:TYR:539:CE2:9848, V-B:PRO:540:CD:9859, V-B:PRO:540:N:9856, V-B:PRO:540:CA:9855, V-B:MET:535:CE:9807, V-B:TYR:539:CD2:9846, V-B:TYR:539:C:9839, V-B:LEU:363:CD1:8160, V-A:ILE:369:CG2:3236, V-A:ASP:366:CB:3211, V-A:ILE:369:CB:3235, V-A:ILE:369:CD1:3238, V-B:TYR:539:CG:9844, V-B:TYR:539:CZ:9849, V-A:ASP:366:CA:3209, V-B:ILE:538:CG2:9835, H-B:TYR:539:N:9842, V-B:ILE:538:CA:9832"]

$$$$
1d_Ghoteimi_2023
     RDKit          3D

 30 32  0  0  0  0  0  0  0  0999 V2000
  126.1950  128.4170   66.6050 C   0  0  0  0  0  0  0  0  0  0  0  0
  124.9090  129.0000   66.4680 O   0  0  0  0  0  0  0  0  0  0  0  0
  124.5720  129.6610   65.3410 C   0  0  0  0  0  0  0  0  0  0  0  0
  123.4810  129.6220   64.7710 O   0  0  0  0  0  0  0  0  0  0  0  0
  125.7230  130.5040   64.7980 C   0  0  0  0  0  0  0  0  0  0  0  0
  126.2210  129.7880   63.2030 S   0  0  0  0  0  0  0  0  0  0  0  0
  126.8620  131.1200   62.2110 C   0  0  0  0  0  0  0  0  0  0  0  0
  128.1030  130.8870   61.7220 N   0  0  0  0  0  0  0  0  0  0  0  0
  128.7140  131.8220   60.9520 C   0  0  0  0  0  0  0  0  0  0  0  0
  130.0860  131.4840   60.4450 C   0  0  0  0  0  0  0  0  0  0  0  0
  130.3150  131.2120   59.0870 C   0  0  0  0  0  0  0  0  0  0  0  0
  131.5860  130.8930   58.6200 C   0  0  0  0  0  0  0  0  0  0  0  0
  132.6680  130.8320   59.4950 C   0  0  0  0  0  0  0  0  0  0  0  0
  133.8920  130.5030   58.9440 O   0  0  0  0  0  0  0  0  0  0  0  0
  133.9390  129.9810   57.6200 C   0  0  0  0  0  0  0  0  0  0  0  0
  132.4560  131.0990   60.8540 C   0  0  0  0  0  0  0  0  0  0  0  0
  131.1830  131.4200   61.3170 C   0  0  0  0  0  0  0  0  0  0  0  0
  128.0690  133.0270   60.6470 C   0  0  0  0  0  0  0  0  0  0  0  0
  126.7920  133.3000   61.1520 C   0  0  0  0  0  0  0  0  0  0  0  0
  126.1640  134.6090   60.7930 C   0  0  0  0  0  0  0  0  0  0  0  0
  126.8540  135.8040   61.0150 C   0  0  0  0  0  0  0  0  0  0  0  0
  126.2760  137.0270   60.6820 C   0  0  0  0  0  0  0  0  0  0  0  0
  125.0020  137.0780   60.1190 C   0  0  0  0  0  0  0  0  0  0  0  0
  124.5050  138.3340   59.8280 O   0  0  0  0  0  0  0  0  0  0  0  0
  125.3850  139.3290   59.3160 C   0  0  0  0  0  0  0  0  0  0  0  0
  124.3100  135.8800   59.8830 C   0  0  0  0  0  0  0  0  0  0  0  0
  124.8910  134.6590   60.2150 C   0  0  0  0  0  0  0  0  0  0  0  0
  126.1710  132.3300   61.9770 C   0  0  0  0  0  0  0  0  0  0  0  0
  124.8810  132.6060   62.6160 C   0  0  0  0  0  0  0  0  0  0  0  0
  123.8630  132.8260   63.1200 N   0  0  0  0  0  0  0  0  0  0  0  0
  1  2  1  0
  2  3  1  0
  3  4  2  0
  3  5  1  0
  5  6  1  0
  6  7  1  0
  7  8  2  0
  8  9  1  0
  9 10  1  0
 10 11  2  0
 11 12  1  0
 12 13  2  0
 13 14  1  0
 14 15  1  0
 13 16  1  0
 16 17  2  0
  9 18  2  0
 18 19  1  0
 19 20  1  0
 20 21  2  0
 21 22  1  0
 22 23  2  0
 23 24  1  0
 24 25  1  0
 23 26  1  0
 26 27  2  0
 19 28  2  0
 28 29  1  0
 29 30  3  0
 28  7  1  0
 17 10  1  0
 27 20  1  0
M  END
>  <Binding energies>  (4) 
[-7.96]

>  <Ligand effiencies>  (4) 
[-0.2653333333333333]

>  <Interactions>  (4) 
["V-A:ASP:366:CG:3212, V-A:TYR:539:CD1:4873, V-A:PRO:540:CB:4885, V-A:LEU:363:CD1:3188, V-A:TYR:539:CE1:4875, V-A:PRO:540:CA:4883, V-B:ILE:369:CG2:8208, V-B:LEU:475:CD1:9229, V-A:ALA:541:CB:4892, V-A:TYR:539:C:4867, V-A:GLU:543:CD:4908, H-B:ARG:545:NH2:9900, V-A:ASP:366:CB:3211, V-B:HIS:456:CE1:9041, V-A:PRO:540:C:4881, V-A:LEU:363:CA:3184, V-A:LEU:363:CB:3186, V-B:GLY:454:CA:9020, V-B:ARG:545:CZ:9898, V-B:PRO:482:CB:9297, V-A:TYR:539:CB:4871, V-B:PRO:482:CG:9298, V-B:LEU:373:CD1:8251, H-B:SER:385:OG:8381, V-B:SER:385:CB:8380, V-A:ILE:343:CG2:2991, V-B:HIS:383:CD2:8363, V-B:HIS:383:CE1:8365, H-B:GLY:454:N:9021, H-B:TYR:484:OH:9319, H-B:ARG:545:NE:9896, H-B:ARG:545:NH1:9899, H-A:LEU:363:N:3185"]

$$$$
1j_Grossjean_2025
     RDKit          3D

 20 21  0  0  0  0  0  0  0  0999 V2000
  126.0750  119.6270   76.8480 C   0  0  0  0  0  0  0  0  0  0  0  0
  124.7920  119.5530   76.0420 C   0  0  0  0  0  0  0  0  0  0  0  0
  123.5810  119.1960   76.6310 C   0  0  0  0  0  0  0  0  0  0  0  0
  122.4270  119.1580   75.8410 C   0  0  0  0  0  0  0  0  0  0  0  0
  121.1070  118.7810   76.5130 C   0  0  0  0  0  0  0  0  0  0  0  0
  122.5190  119.4750   74.4670 C   0  0  0  0  0  0  0  0  0  0  0  0
  121.3150  119.4930   73.6330 C   0  0  0  0  0  0  0  0  0  0  0  0
  120.3610  119.5070   72.9780 N   0  0  0  0  0  0  0  0  0  0  0  0
  123.7950  119.8010   73.9490 C   0  0  0  0  0  0  0  0  0  0  0  0
  124.0950  120.2220   72.2460 S   0  0  0  0  0  0  0  0  0  0  0  0
  125.4420  119.1620   71.6440 C   0  0  0  0  0  0  0  0  0  0  0  0
  126.8060  119.8460   71.7570 C   0  0  0  0  0  0  0  0  0  0  0  0
  127.5280  119.9240   70.7630 O   0  0  0  0  0  0  0  0  0  0  0  0
  127.1150  120.3280   72.9810 N   0  0  0  0  0  0  0  0  0  0  0  0
  128.2860  120.9800   73.3420 C   0  0  0  0  0  0  0  0  0  0  0  0
  128.7230  122.1470   72.9210 N   0  0  0  0  0  0  0  0  0  0  0  0
  129.8770  122.4610   73.4760 C   0  0  0  0  0  0  0  0  0  0  0  0
  130.4000  121.5360   74.3740 C   0  0  0  0  0  0  0  0  0  0  0  0
  129.3130  120.1840   74.4910 S   0  0  0  0  0  0  0  0  0  0  0  0
  124.9040  119.8560   74.7280 N   0  0  0  0  0  0  0  0  0  0  0  0
  1  2  1  0
  2  3  2  0
  3  4  1  0
  4  5  1  0
  4  6  2  0
  6  7  1  0
  7  8  3  0
  6  9  1  0
  9 10  1  0
 10 11  1  0
 11 12  1  0
 12 13  2  0
 12 14  1  0
 14 15  1  0
 15 16  2  0
 16 17  1  0
 17 18  2  0
 18 19  1  0
  9 20  2  0
 20  2  1  0
 19 15  1  0
M  END
>  <Binding energies>  (5) 
[-6.35]

>  <Ligand effiencies>  (5) 
[-0.30238095238095236]

>  <Interactions>  (5) 
["V-B:LYS:547:CG:9920, V-B:LYS:547:CE:9922, V-A:HIS:456:CD2:4067, V-B:GLY:544:CA:9886, V-B:LYS:547:CD:9921, V-A:ASP:473:CG:4239, V-B:GLU:543:C:9874, H-B:LYS:547:NZ:9923, V-B:ILE:546:C:9906, V-B:VAL:542:CG1:9871, V-A:TYR:484:CG:4341, V-A:TYR:484:CB:4340, V-A:TYR:484:C:4336, H-B:GLY:544:N:9887, H-B:GLU:357:N:8104, V-B:PHE:548:CE2:9937, V-B:PHE:548:CD2:9935, H-A:TYR:484:N:4339, H-A:SER:483:OG:4333, H-B:GLU:543:N:9877"]

$$$$
1o_Grossjean_2025
     RDKit          3D

 26 27  0  0  0  0  0  0  0  0999 V2000
  125.0960  124.2720   58.0610 C   0  0  0  0  0  0  0  0  0  0  0  0
  125.9710  123.9680   56.9830 O   0  0  0  0  0  0  0  0  0  0  0  0
  126.7170  122.8340   56.9850 C   0  0  0  0  0  0  0  0  0  0  0  0
  126.3210  121.7590   56.5230 O   0  0  0  0  0  0  0  0  0  0  0  0
  128.0730  123.0160   57.6040 C   0  0  0  0  0  0  0  0  0  0  0  0
  128.5650  122.1410   58.5830 C   0  0  0  0  0  0  0  0  0  0  0  0
  129.8290  122.3370   59.1350 C   0  0  0  0  0  0  0  0  0  0  0  0
  130.6220  123.4090   58.7260 C   0  0  0  0  0  0  0  0  0  0  0  0
  131.8850  123.5080   59.3420 N   0  0  0  0  0  0  0  0  0  0  0  0
  133.0170  124.1010   58.9050 C   0  0  0  0  0  0  0  0  0  0  0  0
  133.1290  124.7290   57.8520 O   0  0  0  0  0  0  0  0  0  0  0  0
  134.2290  123.9830   59.8410 C   0  0  0  0  0  0  0  0  0  0  0  0
  133.8440  123.6830   61.3030 C   0  0  0  0  0  0  0  0  0  0  0  0
  134.0140  121.9330   61.7660 S   0  0  0  0  0  0  0  0  0  0  0  0
  132.4260  121.1460   61.5900 C   0  0  0  0  0  0  0  0  0  0  0  0
  131.3980  121.8900   62.0710 N   0  0  0  0  0  0  0  0  0  0  0  0
  130.1400  121.3970   61.9830 C   0  0  0  0  0  0  0  0  0  0  0  0
  129.0420  122.2910   62.5290 C   0  0  0  0  0  0  0  0  0  0  0  0
  129.8590  120.1500   61.4300 C   0  0  0  0  0  0  0  0  0  0  0  0
  130.9130  119.3640   60.9540 C   0  0  0  0  0  0  0  0  0  0  0  0
  130.5800  117.9940   60.3650 C   0  0  0  0  0  0  0  0  0  0  0  0
  132.2360  119.8560   61.0380 C   0  0  0  0  0  0  0  0  0  0  0  0
  133.3580  119.0220   60.6000 C   0  0  0  0  0  0  0  0  0  0  0  0
  134.2430  118.3630   60.2520 N   0  0  0  0  0  0  0  0  0  0  0  0
  130.1380  124.2850   57.7420 C   0  0  0  0  0  0  0  0  0  0  0  0
  128.8750  124.0880   57.1910 C   0  0  0  0  0  0  0  0  0  0  0  0
  1  2  1  0
  2  3  1  0
  3  4  2  0
  3  5  1  0
  5  6  2  0
  6  7  1  0
  7  8  2  0
  8  9  1  0
  9 10  1  0
 10 11  2  0
 10 12  1  0
 12 13  1  0
 13 14  1  0
 14 15  1  0
 15 16  2  0
 16 17  1  0
 17 18  1  0
 17 19  2  0
 19 20  1  0
 20 21  1  0
 20 22  2  0
 22 23  1  0
 23 24  3  0
  8 25  1  0
 25 26  2  0
 26  5  1  0
 22 15  1  0
M  END
>  <Binding energies>  (6) 
[-8.05]

>  <Ligand effiencies>  (6) 
[-0.29814814814814816]

>  <Interactions>  (6) 
["V-A:ASP:366:CG:3212, V-B:ALA:541:CB:9864, H-B:TYR:531:OH:9767, V-A:PRO:482:CG:4326, V-B:TYR:539:CE2:9848, V-B:PRO:540:N:9856, V-B:PRO:540:CA:9855, V-B:MET:535:CE:9807, V-B:TYR:539:CD2:9846, V-B:TYR:531:CE2:9765, V-B:TYR:539:C:9839, V-B:LEU:363:CD1:8160, V-A:ILE:369:CG2:3236, V-A:ASP:366:CB:3211, V-A:ILE:369:CB:3235, V-A:LEU:475:CD1:4257, V-B:ALA:541:CA:9862, V-B:PRO:540:C:9853, V-A:ILE:369:CD1:3238, V-A:SER:385:CA:3406, V-B:TYR:539:CZ:9849, H-B:TYR:539:OH:9850, V-A:ASP:366:CA:3209, V-B:TYR:539:CB:9843, H-B:TYR:539:N:9842, H-A:SER:385:OG:3409, H-A:HIS:383:NE2:3393"]

$$$$
1p_Grossjean_2025
     RDKit          3D

 21 22  0  0  0  0  0  0  0  0999 V2000
  134.3010  123.2000   62.1700 C   0  0  0  0  0  0  0  0  0  0  0  0
  133.5630  121.9440   61.7480 C   0  0  0  0  0  0  0  0  0  0  0  0
  134.2340  120.8580   61.1880 C   0  0  0  0  0  0  0  0  0  0  0  0
  133.5010  119.7300   60.8050 C   0  0  0  0  0  0  0  0  0  0  0  0
  134.2550  118.5580   60.1800 C   0  0  0  0  0  0  0  0  0  0  0  0
  132.1010  119.7160   61.0020 C   0  0  0  0  0  0  0  0  0  0  0  0
  131.3060  118.5670   60.5660 C   0  0  0  0  0  0  0  0  0  0  0  0
  130.6770  117.6580   60.2200 N   0  0  0  0  0  0  0  0  0  0  0  0
  131.5070  120.8530   61.5990 C   0  0  0  0  0  0  0  0  0  0  0  0
  129.7650  120.9960   61.9270 S   0  0  0  0  0  0  0  0  0  0  0  0
  129.1590  122.4040   60.9520 C   0  0  0  0  0  0  0  0  0  0  0  0
  129.9920  122.6880   59.6880 C   0  0  0  0  0  0  0  0  0  0  0  0
  129.1420  122.8660   58.4200 C   0  0  0  0  0  0  0  0  0  0  0  0
  129.5210  123.6390   57.5380 O   0  0  0  0  0  0  0  0  0  0  0  0
  128.0130  122.1240   58.3650 N   0  0  0  0  0  0  0  0  0  0  0  0
  127.0760  122.0950   57.3400 C   0  0  0  0  0  0  0  0  0  0  0  0
  125.8990  122.8430   57.3630 C   0  0  0  0  0  0  0  0  0  0  0  0
  125.2580  122.5380   56.1840 C   0  0  0  0  0  0  0  0  0  0  0  0
  126.0080  121.6510   55.4890 O   0  0  0  0  0  0  0  0  0  0  0  0
  127.1580  121.3770   56.2320 N   0  0  0  0  0  0  0  0  0  0  0  0
  132.2240  121.9510   61.9480 N   0  0  0  0  0  0  0  0  0  0  0  0
  1  2  1  0
  2  3  2  0
  3  4  1  0
  4  5  1  0
  4  6  2  0
  6  7  1  0
  7  8  3  0
  6  9  1  0
  9 10  1  0
 10 11  1  0
 11 12  1  0
 12 13  1  0
 13 14  2  0
 13 15  1  0
 15 16  1  0
 16 17  1  0
 17 18  2  0
 18 19  1  0
 19 20  1  0
  9 21  2  0
 21  2  1  0
 20 16  2  0
M  END
>  <Binding energies>  (7) 
[-7.47]

>  <Ligand effiencies>  (7) 
[-0.33954545454545454]

>  <Interactions>  (7) 
["H-B:ALA:541:N:9863, V-A:GLY:453:C:4041, V-B:PRO:540:CB:9857, V-B:TYR:539:CE2:9848, V-B:PRO:540:CD:9859, V-B:PRO:540:N:9856, V-B:PRO:540:CA:9855, V-B:MET:535:CE:9807, V-B:TYR:539:CA:9841, V-B:TYR:539:CD2:9846, V-B:TYR:531:CE2:9765, V-B:TYR:539:C:9839, V-B:LEU:363:CD1:8160, V-A:GLY:454:CA:4048, V-A:ILE:369:CG2:3236, V-A:LEU:475:CD1:4257, V-A:SER:385:C:3404, V-A:ILE:369:CD1:3238, V-A:SER:385:CA:3406, V-A:SER:385:CB:3408, V-B:TYR:539:CZ:9849, H-B:TYR:539:OH:9850, H-B:TYR:539:O:9840, H-B:TYR:539:N:9842, V-A:HIS:383:CD2:3391, H-A:HIS:383:NE2:3393"]

$$$$
2a_Ghoteimi_2023
     RDKit          3D

 48 53  0  0  0  0  0  0  0  0999 V2000
  125.2760  139.0480   59.0750 C   0  0  0  0  0  0  0  0  0  0  0  0
  125.8400  138.2220   60.2350 C   0  0  0  0  0  0  0  0  0  0  0  0
  125.8000  136.8420   59.8950 O   0  0  0  0  0  0  0  0  0  0  0  0
  124.7020  136.0870   60.1570 C   0  0  0  0  0  0  0  0  0  0  0  0
  123.5520  136.4390   59.8780 O   0  0  0  0  0  0  0  0  0  0  0  0
  125.0280  134.7750   60.8120 C   0  0  0  0  0  0  0  0  0  0  0  0
  126.2820  134.1630   60.6670 C   0  0  0  0  0  0  0  0  0  0  0  0
  126.5510  132.9480   61.2890 C   0  0  0  0  0  0  0  0  0  0  0  0
  125.5790  132.3210   62.0700 C   0  0  0  0  0  0  0  0  0  0  0  0
  125.9580  131.0940   62.6490 N   0  0  0  0  0  0  0  0  0  0  0  0
  125.2570  130.2620   63.4500 C   0  0  0  0  0  0  0  0  0  0  0  0
  124.1190  130.4750   63.8710 O   0  0  0  0  0  0  0  0  0  0  0  0
  125.9980  128.9870   63.8730 C   0  0  0  0  0  0  0  0  0  0  0  0
  127.6620  128.8090   63.1540 S   0  0  0  0  0  0  0  0  0  0  0  0
  128.4030  127.4280   63.9950 C   0  0  0  0  0  0  0  0  0  0  0  0
  128.4830  127.5840   65.3370 N   0  0  0  0  0  0  0  0  0  0  0  0
  129.0380  126.6010   66.0900 C   0  0  0  0  0  0  0  0  0  0  0  0
  129.1020  126.8460   67.5640 C   0  0  0  0  0  0  0  0  0  0  0  0
  128.9170  125.8040   68.4810 C   0  0  0  0  0  0  0  0  0  0  0  0
  128.9650  126.0400   69.8520 C   0  0  0  0  0  0  0  0  0  0  0  0
  129.2090  127.3250   70.3580 C   0  0  0  0  0  0  0  0  0  0  0  0
  129.2260  127.5520   71.7380 N   0  0  0  0  0  0  0  0  0  0  0  0
  129.3710  128.9130   72.2930 C   0  0  0  0  0  0  0  0  0  0  0  0
  129.0080  129.0180   73.7890 C   0  0  0  0  0  0  0  0  0  0  0  0
  129.7630  128.0800   74.5400 O   0  0  0  0  0  0  0  0  0  0  0  0
  129.4980  126.7510   74.1230 C   0  0  0  0  0  0  0  0  0  0  0  0
  129.8750  126.5750   72.6370 C   0  0  0  0  0  0  0  0  0  0  0  0
  129.3820  128.3680   69.4340 C   0  0  0  0  0  0  0  0  0  0  0  0
  129.3360  128.1310   68.0640 C   0  0  0  0  0  0  0  0  0  0  0  0
  129.5160  125.4260   65.5060 C   0  0  0  0  0  0  0  0  0  0  0  0
  129.4430  125.2420   64.1180 C   0  0  0  0  0  0  0  0  0  0  0  0
  129.9790  123.9640   63.5590 C   0  0  0  0  0  0  0  0  0  0  0  0
  131.3110  123.6040   63.7780 C   0  0  0  0  0  0  0  0  0  0  0  0
  131.8240  122.4260   63.2450 C   0  0  0  0  0  0  0  0  0  0  0  0
  131.0200  121.5690   62.4780 C   0  0  0  0  0  0  0  0  0  0  0  0
  131.5210  120.3910   61.9180 N   0  0  0  0  0  0  0  0  0  0  0  0
  132.7970  120.4280   61.1760 C   0  0  0  0  0  0  0  0  0  0  0  0
  133.4170  119.0310   60.9590 C   0  0  0  0  0  0  0  0  0  0  0  0
  132.4830  118.1790   60.3140 O   0  0  0  0  0  0  0  0  0  0  0  0
  131.3010  118.0190   61.0820 C   0  0  0  0  0  0  0  0  0  0  0  0
  130.6270  119.3890   61.3060 C   0  0  0  0  0  0  0  0  0  0  0  0
  129.6880  121.9440   62.2530 C   0  0  0  0  0  0  0  0  0  0  0  0
  129.1740  123.1230   62.7840 C   0  0  0  0  0  0  0  0  0  0  0  0
  128.8650  126.2690   63.3330 C   0  0  0  0  0  0  0  0  0  0  0  0
  128.7100  126.1110   61.8840 C   0  0  0  0  0  0  0  0  0  0  0  0
  128.5900  125.9850   60.7390 N   0  0  0  0  0  0  0  0  0  0  0  0
  124.3200  132.9220   62.2130 C   0  0  0  0  0  0  0  0  0  0  0  0
  124.0520  134.1390   61.5920 C   0  0  0  0  0  0  0  0  0  0  0  0
  1  2  1  0
  2  3  1  0
  3  4  1  0
  4  5  2  0
  4  6  1  0
  6  7  2  0
  7  8  1  0
  8  9  2  0
  9 10  1  0
 10 11  1  0
 11 12  2  0
 11 13  1  0
 13 14  1  0
 14 15  1  0
 15 16  2  0
 16 17  1  0
 17 18  1  0
 18 19  2  0
 19 20  1  0
 20 21  2  0
 21 22  1  0
 22 23  1  0
 23 24  1  0
 24 25  1  0
 25 26  1  0
 26 27  1  0
 21 28  1  0
 28 29  2  0
 17 30  2  0
 30 31  1  0
 31 32  1  0
 32 33  2  0
 33 34  1  0
 34 35  2  0
 35 36  1  0
 36 37  1  0
 37 38  1  0
 38 39  1  0
 39 40  1  0
 40 41  1  0
 35 42  1  0
 42 43  2  0
 31 44  2  0
 44 45  1  0
 45 46  3  0
  9 47  1  0
 47 48  2  0
 48  6  1  0
 44 15  1  0
 29 18  1  0
 43 32  1  0
 27 22  1  0
 41 36  1  0
M  END
>  <Binding energies>  (8) 
[-10.96]

>  <Ligand effiencies>  (8) 
[-0.22367346938775512]

>  <Interactions>  (8) 
["H-A:LYS:547:NZ:4951, V-B:HIS:456:CD2:9039, V-A:GLU:543:C:4902, V-A:HIS:456:CD2:4067, V-A:HIS:456:CE1:4069, V-B:GLU:543:CG:9879, V-B:GLU:543:CD:9880, V-B:ALA:541:CB:9864, V-A:TYR:539:CD1:4873, V-A:TYR:539:CE1:4875, V-B:ILE:369:CG2:8208, V-B:LEU:475:CD1:9229, V-B:ILE:369:CD1:8210, V-A:GLU:543:CD:4908, V-A:PRO:482:CG:4326, V-A:PRO:482:CB:4325, V-A:ILE:369:CG2:3236, V-A:LEU:475:CD1:4257, V-A:SER:385:C:3404, V-A:SER:385:CA:3406, V-A:SER:385:CB:3408, V-B:GLU:543:CB:9878, V-B:GLU:543:C:9874, V-A:GLU:543:CB:4906, V-B:HIS:456:CE1:9041, V-B:ARG:545:CZ:9898, V-B:PRO:482:CG:9298, V-B:LEU:373:CD1:8251, H-B:SER:385:OG:8381, V-B:SER:385:CB:8380, V-A:ILE:343:CG2:2991, V-B:LEU:373:CD2:8252, H-A:SER:385:OG:3409, H-A:HIS:383:NE2:3393, H-B:GLY:454:N:9021"]

$$$$
2aa_Ghoteimi_2023
     RDKit          3D

 48 53  0  0  0  0  0  0  0  0999 V2000
  125.9860  138.1570   59.2990 C   0  0  0  0  0  0  0  0  0  0  0  0
  125.9900  137.6140   60.7320 C   0  0  0  0  0  0  0  0  0  0  0  0
  126.3070  136.2280   60.7090 O   0  0  0  0  0  0  0  0  0  0  0  0
  125.3400  135.2890   60.5350 C   0  0  0  0  0  0  0  0  0  0  0  0
  124.4220  135.4020   59.7160 O   0  0  0  0  0  0  0  0  0  0  0  0
  125.5080  134.0930   61.4280 C   0  0  0  0  0  0  0  0  0  0  0  0
  126.7690  133.6790   61.8830 C   0  0  0  0  0  0  0  0  0  0  0  0
  126.8910  132.5690   62.7120 C   0  0  0  0  0  0  0  0  0  0  0  0
  125.7610  131.8460   63.0980 C   0  0  0  0  0  0  0  0  0  0  0  0
  126.0000  130.7430   63.9410 N   0  0  0  0  0  0  0  0  0  0  0  0
  125.1240  129.9070   64.5400 C   0  0  0  0  0  0  0  0  0  0  0  0
  123.8990  129.9580   64.4180 O   0  0  0  0  0  0  0  0  0  0  0  0
  125.7720  128.8190   65.4070 C   0  0  0  0  0  0  0  0  0  0  0  0
  127.1960  128.9560   65.3670 O   0  0  0  0  0  0  0  0  0  0  0  0
  128.0070  127.9690   65.9120 C   0  0  0  0  0  0  0  0  0  0  0  0
  128.1690  127.9490   67.2650 N   0  0  0  0  0  0  0  0  0  0  0  0
  128.9510  126.9960   67.8310 C   0  0  0  0  0  0  0  0  0  0  0  0
  129.0870  127.0400   69.3200 C   0  0  0  0  0  0  0  0  0  0  0  0
  128.6780  125.9580   70.1060 C   0  0  0  0  0  0  0  0  0  0  0  0
  128.8080  125.9900   71.4920 C   0  0  0  0  0  0  0  0  0  0  0  0
  129.3660  127.1020   72.1430 C   0  0  0  0  0  0  0  0  0  0  0  0
  129.4920  127.1560   73.5360 N   0  0  0  0  0  0  0  0  0  0  0  0
  130.7840  126.8910   74.2030 C   0  0  0  0  0  0  0  0  0  0  0  0
  130.6610  126.6450   75.7210 C   0  0  0  0  0  0  0  0  0  0  0  0
  129.9860  127.7290   76.3370 O   0  0  0  0  0  0  0  0  0  0  0  0
  128.6750  127.8870   75.8160 C   0  0  0  0  0  0  0  0  0  0  0  0
  128.7380  128.1710   74.3000 C   0  0  0  0  0  0  0  0  0  0  0  0
  129.7540  128.1920   71.3520 C   0  0  0  0  0  0  0  0  0  0  0  0
  129.6210  128.1600   69.9670 C   0  0  0  0  0  0  0  0  0  0  0  0
  129.6080  126.0420   67.0480 C   0  0  0  0  0  0  0  0  0  0  0  0
  129.4670  126.0470   65.6550 C   0  0  0  0  0  0  0  0  0  0  0  0
  130.2140  125.0180   64.8690 C   0  0  0  0  0  0  0  0  0  0  0  0
  129.7090  123.7220   64.7440 C   0  0  0  0  0  0  0  0  0  0  0  0
  130.4090  122.7530   64.0300 C   0  0  0  0  0  0  0  0  0  0  0  0
  131.6440  123.0490   63.4330 C   0  0  0  0  0  0  0  0  0  0  0  0
  132.3630  122.0940   62.7100 N   0  0  0  0  0  0  0  0  0  0  0  0
  133.7820  122.3010   62.3620 C   0  0  0  0  0  0  0  0  0  0  0  0
  134.4920  121.0150   61.8870 C   0  0  0  0  0  0  0  0  0  0  0  0
  133.7830  120.4430   60.7980 O   0  0  0  0  0  0  0  0  0  0  0  0
  132.4540  120.1030   61.1620 C   0  0  0  0  0  0  0  0  0  0  0  0
  131.6900  121.3640   61.6160 C   0  0  0  0  0  0  0  0  0  0  0  0
  132.1400  124.3550   63.5580 C   0  0  0  0  0  0  0  0  0  0  0  0
  131.4400  125.3230   64.2710 C   0  0  0  0  0  0  0  0  0  0  0  0
  128.6320  127.0290   65.0730 C   0  0  0  0  0  0  0  0  0  0  0  0
  128.3860  127.0800   63.6300 C   0  0  0  0  0  0  0  0  0  0  0  0
  128.1920  127.1190   62.4900 N   0  0  0  0  0  0  0  0  0  0  0  0
  124.4970  132.2570   62.6530 C   0  0  0  0  0  0  0  0  0  0  0  0
  124.3760  133.3710   61.8260 C   0  0  0  0  0  0  0  0  0  0  0  0
  1  2  1  0
  2  3  1  0
  3  4  1  0
  4  5  2  0
  4  6  1  0
  6  7  2  0
  7  8  1  0
  8  9  2  0
  9 10  1  0
 10 11  1  0
 11 12  2  0
 11 13  1  0
 13 14  1  0
 14 15  1  0
 15 16  2  0
 16 17  1  0
 17 18  1  0
 18 19  2  0
 19 20  1  0
 20 21  2  0
 21 22  1  0
 22 23  1  0
 23 24  1  0
 24 25  1  0
 25 26  1  0
 26 27  1  0
 21 28  1  0
 28 29  2  0
 17 30  2  0
 30 31  1  0
 31 32  1  0
 32 33  2  0
 33 34  1  0
 34 35  2  0
 35 36  1  0
 36 37  1  0
 37 38  1  0
 38 39  1  0
 39 40  1  0
 40 41  1  0
 35 42  1  0
 42 43  2  0
 31 44  2  0
 44 45  1  0
 45 46  3  0
  9 47  1  0
 47 48  2  0
 48  6  1  0
 44 15  1  0
 29 18  1  0
 43 32  1  0
 27 22  1  0
 41 36  1  0
M  END
>  <Binding energies>  (9) 
[-10.33]

>  <Ligand effiencies>  (9) 
[-0.21081632653061225]

>  <Interactions>  (9) 
["H-A:LYS:547:NZ:4951, V-B:HIS:456:CD2:9039, V-A:GLU:543:C:4902, V-A:HIS:456:CE1:4069, V-B:GLU:543:CG:9879, V-B:GLU:543:CD:9880, V-B:ALA:541:CB:9864, V-A:TYR:539:CD1:4873, V-B:ILE:369:CG2:8208, V-B:LEU:475:CD1:9229, V-A:ALA:541:CB:4892, V-B:ILE:369:CD1:8210, V-A:GLU:543:CD:4908, H-B:ARG:545:NH2:9900, V-A:GLY:454:CA:4048, V-A:ILE:369:CG2:3236, V-A:LEU:475:CD1:4257, V-A:SER:385:C:3404, V-A:ILE:369:CD1:3238, V-B:GLU:543:CB:9878, V-B:GLU:543:C:9874, V-B:HIS:456:CE1:9041, V-B:GLY:454:CA:9020, V-B:ARG:545:CZ:9898, V-B:PRO:482:CB:9297, V-A:TYR:539:CB:4871, V-B:PRO:482:CG:9298, V-B:LEU:373:CD1:8251, H-B:SER:385:OG:8381, V-B:SER:385:CB:8380, H-B:GLY:454:N:9021, H-B:ARG:545:NH1:9899"]

$$$$
2b_Ghoteimi_2023
     RDKit          3D

 42 47  0  0  0  0  0  0  0  0999 V2000
  127.7550  131.9630   65.6530 N   0  0  0  0  0  0  0  0  0  0  0  0
  127.6610  131.0650   64.9300 C   0  0  0  0  0  0  0  0  0  0  0  0
  127.5410  129.9230   64.0180 C   0  0  0  0  0  0  0  0  0  0  0  0
  127.7640  128.6030   64.4840 C   0  0  0  0  0  0  0  0  0  0  0  0
  128.1240  128.2710   65.8950 C   0  0  0  0  0  0  0  0  0  0  0  0
  128.6490  127.0160   66.2100 C   0  0  0  0  0  0  0  0  0  0  0  0
  128.9870  126.7000   67.5230 C   0  0  0  0  0  0  0  0  0  0  0  0
  128.7910  127.6260   68.5600 C   0  0  0  0  0  0  0  0  0  0  0  0
  129.1330  127.3370   69.8820 N   0  0  0  0  0  0  0  0  0  0  0  0
  129.3800  128.4500   70.8210 C   0  0  0  0  0  0  0  0  0  0  0  0
  130.1060  128.0130   72.1110 C   0  0  0  0  0  0  0  0  0  0  0  0
  129.3910  126.9620   72.7420 O   0  0  0  0  0  0  0  0  0  0  0  0
  129.2730  125.8270   71.8980 C   0  0  0  0  0  0  0  0  0  0  0  0
  128.5170  126.2080   70.6080 C   0  0  0  0  0  0  0  0  0  0  0  0
  128.2600  128.8810   68.2340 C   0  0  0  0  0  0  0  0  0  0  0  0
  127.9270  129.1990   66.9210 C   0  0  0  0  0  0  0  0  0  0  0  0
  127.6330  127.5450   63.5770 C   0  0  0  0  0  0  0  0  0  0  0  0
  127.2600  127.7900   62.2530 C   0  0  0  0  0  0  0  0  0  0  0  0
  127.0780  126.6920   61.2530 C   0  0  0  0  0  0  0  0  0  0  0  0
  126.8700  126.9860   59.9010 C   0  0  0  0  0  0  0  0  0  0  0  0
  126.7160  125.9690   58.9620 C   0  0  0  0  0  0  0  0  0  0  0  0
  126.7510  124.6190   59.3420 C   0  0  0  0  0  0  0  0  0  0  0  0
  126.6270  123.5860   58.4060 N   0  0  0  0  0  0  0  0  0  0  0  0
  125.3810  123.4450   57.6250 C   0  0  0  0  0  0  0  0  0  0  0  0
  125.2340  122.0700   56.9390 C   0  0  0  0  0  0  0  0  0  0  0  0
  126.3720  121.8040   56.1340 O   0  0  0  0  0  0  0  0  0  0  0  0
  127.5600  121.7740   56.9080 C   0  0  0  0  0  0  0  0  0  0  0  0
  127.7770  123.1390   57.5960 C   0  0  0  0  0  0  0  0  0  0  0  0
  126.9660  124.3290   60.6970 C   0  0  0  0  0  0  0  0  0  0  0  0
  127.1230  125.3460   61.6350 C   0  0  0  0  0  0  0  0  0  0  0  0
  127.0460  129.0540   61.8080 N   0  0  0  0  0  0  0  0  0  0  0  0
  127.1990  130.0970   62.6580 C   0  0  0  0  0  0  0  0  0  0  0  0
  126.8840  131.6800   61.9080 S   0  0  0  0  0  0  0  0  0  0  0  0
  127.0310  131.4720   60.1070 C   0  0  0  0  0  0  0  0  0  0  0  0
  128.4200  131.8570   59.5960 C   0  0  0  0  0  0  0  0  0  0  0  0
  129.2520  132.3060   60.3860 O   0  0  0  0  0  0  0  0  0  0  0  0
  128.6250  131.6710   58.2730 N   0  0  0  0  0  0  0  0  0  0  0  0
  129.7860  131.9250   57.5570 C   0  0  0  0  0  0  0  0  0  0  0  0
  131.0370  131.4470   57.9430 C   0  0  0  0  0  0  0  0  0  0  0  0
  131.9080  131.9100   56.9850 C   0  0  0  0  0  0  0  0  0  0  0  0
  131.2180  132.6300   56.0700 O   0  0  0  0  0  0  0  0  0  0  0  0
  129.8720  132.6320   56.4420 N   0  0  0  0  0  0  0  0  0  0  0  0
  1  2  3  0
  2  3  1  0
  3  4  2  0
  4  5  1  0
  5  6  2  0
  6  7  1  0
  7  8  2  0
  8  9  1  0
  9 10  1  0
 10 11  1  0
 11 12  1  0
 12 13  1  0
 13 14  1  0
  8 15  1  0
 15 16  2  0
  4 17  1  0
 17 18  2  0
 18 19  1  0
 19 20  2  0
 20 21  1  0
 21 22  2  0
 22 23  1  0
 23 24  1  0
 24 25  1  0
 25 26  1  0
 26 27  1  0
 27 28  1  0
 22 29  1  0
 29 30  2  0
 18 31  1  0
 31 32  2  0
 32 33  1  0
 33 34  1  0
 34 35  1  0
 35 36  2  0
 35 37  1  0
 37 38  1  0
 38 39  1  0
 39 40  2  0
 40 41  1  0
 41 42  1  0
 32  3  1  0
 42 38  2  0
 16  5  1  0
 30 19  1  0
 14  9  1  0
 28 23  1  0
M  END
>  <Binding energies>  (10) 
[-10.76]

>  <Ligand effiencies>  (10) 
[-0.2502325581395349]

>  <Interactions>  (10) 
["V-B:HIS:456:CD2:9039, V-A:GLU:543:C:4902, V-A:HIS:456:CD2:4067, V-A:HIS:456:CE1:4069, V-B:GLU:543:CD:9880, V-A:TYR:539:CD1:4873, V-A:PRO:540:CB:4885, V-A:LEU:363:CD1:3188, V-A:PRO:540:N:4884, V-A:TYR:539:CE1:4875, V-A:PRO:540:CA:4883, H-A:ALA:541:N:4891, V-A:TYR:539:C:4867, V-A:PRO:540:CD:4887, V-A:GLU:543:CD:4908, V-A:GLU:543:CG:4907, V-B:PRO:540:CB:9857, V-B:PRO:540:CD:9859, V-B:PRO:540:N:9856, V-B:PRO:540:CA:9855, V-B:MET:535:CE:9807, V-B:TYR:539:CA:9841, V-B:TYR:539:CD2:9846, V-B:TYR:531:CE2:9765, V-B:TYR:539:C:9839, V-B:LEU:363:CD1:8160, V-B:GLU:543:CB:9878, V-B:GLU:543:C:9874, V-A:GLU:543:CB:4906, V-B:HIS:456:CE1:9041, V-B:TYR:539:CG:9844, V-B:TYR:484:CE2:9317, H-A:TYR:539:N:4870, V-B:TYR:539:CE1:9847, V-B:TYR:539:CD1:9845, H-B:TYR:539:N:9842, H-B:TYR:484:OH:9319, V-B:PRO:540:CG:9858"]

$$$$
2c_Ghoteimi_2023
     RDKit          3D

 42 47  0  0  0  0  0  0  0  0999 V2000
  125.7680  130.2540   60.1030 N   0  0  0  0  0  0  0  0  0  0  0  0
  126.1320  129.9130   61.1470 C   0  0  0  0  0  0  0  0  0  0  0  0
  126.5960  129.4760   62.4670 C   0  0  0  0  0  0  0  0  0  0  0  0
  127.0070  128.1370   62.6810 C   0  0  0  0  0  0  0  0  0  0  0  0
  127.0020  127.0860   61.6190 C   0  0  0  0  0  0  0  0  0  0  0  0
  126.4270  125.8380   61.8690 C   0  0  0  0  0  0  0  0  0  0  0  0
  126.4140  124.8550   60.8830 C   0  0  0  0  0  0  0  0  0  0  0  0
  126.9890  125.0870   59.6240 C   0  0  0  0  0  0  0  0  0  0  0  0
  126.9690  124.1220   58.6140 N   0  0  0  0  0  0  0  0  0  0  0  0
  127.9660  123.0340   58.6350 C   0  0  0  0  0  0  0  0  0  0  0  0
  128.0810  122.2860   57.2890 C   0  0  0  0  0  0  0  0  0  0  0  0
  126.8070  121.7990   56.8940 O   0  0  0  0  0  0  0  0  0  0  0  0
  125.8700  122.8520   56.7300 C   0  0  0  0  0  0  0  0  0  0  0  0
  125.6980  123.6150   58.0600 C   0  0  0  0  0  0  0  0  0  0  0  0
  127.5660  126.3420   59.3840 C   0  0  0  0  0  0  0  0  0  0  0  0
  127.5770  127.3250   60.3690 C   0  0  0  0  0  0  0  0  0  0  0  0
  127.4450  127.7700   63.9590 C   0  0  0  0  0  0  0  0  0  0  0  0
  127.4980  128.7150   64.9890 C   0  0  0  0  0  0  0  0  0  0  0  0
  127.9740  128.3770   66.3650 C   0  0  0  0  0  0  0  0  0  0  0  0
  128.1840  129.3820   67.3150 C   0  0  0  0  0  0  0  0  0  0  0  0
  128.6220  129.0740   68.6010 C   0  0  0  0  0  0  0  0  0  0  0  0
  128.8790  127.7470   68.9800 C   0  0  0  0  0  0  0  0  0  0  0  0
  129.2950  127.4170   70.2750 N   0  0  0  0  0  0  0  0  0  0  0  0
  129.7220  128.4840   71.2040 C   0  0  0  0  0  0  0  0  0  0  0  0
  130.5050  127.9620   72.4270 C   0  0  0  0  0  0  0  0  0  0  0  0
  129.7440  126.9770   73.1060 O   0  0  0  0  0  0  0  0  0  0  0  0
  129.4640  125.8670   72.2680 C   0  0  0  0  0  0  0  0  0  0  0  0
  128.6540  126.3250   71.0360 C   0  0  0  0  0  0  0  0  0  0  0  0
  128.6550  126.7420   68.0290 C   0  0  0  0  0  0  0  0  0  0  0  0
  128.2150  127.0510   66.7440 C   0  0  0  0  0  0  0  0  0  0  0  0
  127.1070  129.9980   64.7810 N   0  0  0  0  0  0  0  0  0  0  0  0
  126.6490  130.3690   63.5610 C   0  0  0  0  0  0  0  0  0  0  0  0
  126.1690  132.0800   63.4720 S   0  0  0  0  0  0  0  0  0  0  0  0
  126.7440  132.7240   61.8720 C   0  0  0  0  0  0  0  0  0  0  0  0
  126.0200  134.0130   61.4790 C   0  0  0  0  0  0  0  0  0  0  0  0
  124.8410  134.1670   61.8040 O   0  0  0  0  0  0  0  0  0  0  0  0
  126.7550  134.9050   60.7800 N   0  0  0  0  0  0  0  0  0  0  0  0
  126.3380  136.1470   60.3240 C   0  0  0  0  0  0  0  0  0  0  0  0
  127.0610  137.2350   60.1710 N   0  0  0  0  0  0  0  0  0  0  0  0
  126.3380  138.2360   59.7090 C   0  0  0  0  0  0  0  0  0  0  0  0
  124.9930  137.9670   59.4760 C   0  0  0  0  0  0  0  0  0  0  0  0
  124.6670  136.3100   59.8890 S   0  0  0  0  0  0  0  0  0  0  0  0
  1  2  3  0
  2  3  1  0
  3  4  2  0
  4  5  1  0
  5  6  2  0
  6  7  1  0
  7  8  2  0
  8  9  1  0
  9 10  1  0
 10 11  1  0
 11 12  1  0
 12 13  1  0
 13 14  1  0
  8 15  1  0
 15 16  2  0
  4 17  1  0
 17 18  2  0
 18 19  1  0
 19 20  2  0
 20 21  1  0
 21 22  2  0
 22 23  1  0
 23 24  1  0
 24 25  1  0
 25 26  1  0
 26 27  1  0
 27 28  1  0
 22 29  1  0
 29 30  2  0
 18 31  1  0
 31 32  2  0
 32 33  1  0
 33 34  1  0
 34 35  1  0
 35 36  2  0
 35 37  1  0
 37 38  1  0
 38 39  2  0
 39 40  1  0
 40 41  2  0
 41 42  1  0
 32  3  1  0
 42 38  1  0
 16  5  1  0
 30 19  1  0
 14  9  1  0
 28 23  1  0
M  END
>  <Binding energies>  (11) 
[-10.37]

>  <Ligand effiencies>  (11) 
[-0.2411627906976744]

>  <Interactions>  (11) 
["V-B:HIS:456:CD2:9039, V-A:GLU:543:C:4902, V-A:HIS:456:CD2:4067, V-A:HIS:456:CE1:4069, V-B:GLU:543:CD:9880, V-A:TYR:539:CD1:4873, V-B:ILE:369:CG2:8208, V-B:ASP:366:CG:8184, V-B:LEU:475:CD1:9229, V-A:ALA:541:CB:4892, V-A:GLU:543:CD:4908, V-A:GLU:543:CG:4907, V-A:TYR:539:CG:4872, V-B:PRO:540:CB:9857, V-B:TYR:539:CE2:9848, V-B:PRO:540:N:9856, V-B:PRO:540:CA:9855, V-B:MET:535:CE:9807, V-B:TYR:539:CD2:9846, V-B:TYR:539:C:9839, V-B:LEU:363:CD1:8160, V-B:GLU:543:CB:9878, V-A:GLU:543:CB:4906, V-B:HIS:456:CE1:9041, V-B:TYR:539:CG:9844, V-B:TYR:539:CZ:9849, V-B:TYR:484:CE2:9317, V-B:TYR:539:CE1:9847, V-B:TYR:539:CD1:9845, H-B:TYR:539:N:9842, H-A:TYR:539:O:4868, V-A:TYR:539:CB:4871, V-B:PRO:482:CG:9298, V-B:LEU:373:CD1:8251, H-B:SER:385:OG:8381, V-B:SER:385:CB:8380, V-A:VAL:344:CG1:3000"]

$$$$
2j_Grossjean_2025
     RDKit          3D

 23 24  0  0  0  0  0  0  0  0999 V2000
  129.3690  122.4720   62.5430 C   0  0  0  0  0  0  0  0  0  0  0  0
  130.4000  121.5220   61.9630 C   0  0  0  0  0  0  0  0  0  0  0  0
  130.0590  120.2350   61.5560 C   0  0  0  0  0  0  0  0  0  0  0  0
  131.0480  119.3950   61.0230 C   0  0  0  0  0  0  0  0  0  0  0  0
  130.6530  117.9740   60.5770 C   0  0  0  0  0  0  0  0  0  0  0  0
  130.9370  117.8070   59.2850 F   0  0  0  0  0  0  0  0  0  0  0  0
  131.3250  117.0680   61.2890 F   0  0  0  0  0  0  0  0  0  0  0  0
  129.3510  117.7260   60.7370 F   0  0  0  0  0  0  0  0  0  0  0  0
  132.3720  119.8900   60.9190 C   0  0  0  0  0  0  0  0  0  0  0  0
  133.4460  119.0550   60.3710 C   0  0  0  0  0  0  0  0  0  0  0  0
  134.2930  118.3960   59.9360 N   0  0  0  0  0  0  0  0  0  0  0  0
  132.6300  121.2100   61.3580 C   0  0  0  0  0  0  0  0  0  0  0  0
  134.2590  121.9390   61.2720 S   0  0  0  0  0  0  0  0  0  0  0  0
  134.0750  123.7520   61.1720 C   0  0  0  0  0  0  0  0  0  0  0  0
  134.1770  124.4860   62.5170 C   0  0  0  0  0  0  0  0  0  0  0  0
  135.1900  125.1260   62.8090 O   0  0  0  0  0  0  0  0  0  0  0  0
  133.0960  124.3550   63.3180 N   0  0  0  0  0  0  0  0  0  0  0  0
  132.9250  124.9130   64.5780 C   0  0  0  0  0  0  0  0  0  0  0  0
  133.8420  125.1280   65.4960 N   0  0  0  0  0  0  0  0  0  0  0  0
  133.3250  125.6770   66.5790 C   0  0  0  0  0  0  0  0  0  0  0  0
  131.9550  125.9180   66.5520 C   0  0  0  0  0  0  0  0  0  0  0  0
  131.3190  125.3940   65.0210 S   0  0  0  0  0  0  0  0  0  0  0  0
  131.6580  122.0090   61.8690 N   0  0  0  0  0  0  0  0  0  0  0  0
  1  2  1  0
  2  3  2  0
  3  4  1  0
  4  5  1  0
  5  6  1  0
  5  7  1  0
  5  8  1  0
  4  9  2  0
  9 10  1  0
 10 11  3  0
  9 12  1  0
 12 13  1  0
 13 14  1  0
 14 15  1  0
 15 16  2  0
 15 17  1  0
 17 18  1  0
 18 19  2  0
 19 20  1  0
 20 21  2  0
 21 22  1  0
 12 23  2  0
 23  2  1  0
 22 18  1  0
M  END
>  <Binding energies>  (12) 
[-6.37]

>  <Ligand effiencies>  (12) 
[-0.2654166666666667]

>  <Interactions>  (12) 
["V-A:HIS:456:CE1:4069, H-A:GLY:454:N:4049, H-A:ARG:545:NH2:4928, V-A:TYR:484:CZ:4346, V-A:ARG:545:CZ:4926, V-A:ASP:366:CG:3212, H-A:TYR:484:OH:4347, H-A:ARG:545:NE:4924, V-B:ALA:541:CB:9864, V-A:GLY:453:C:4041, V-A:ARG:545:CD:4923, V-A:ARG:545:CG:4922, V-A:GLY:453:CA:4043, V-A:PRO:482:CG:4326, V-B:PRO:540:N:9856, V-B:TYR:539:CA:9841, V-B:TYR:539:CD2:9846, V-A:PRO:482:CB:4325, V-B:TYR:539:C:9839, V-A:ILE:369:CG2:3236, V-A:LEU:475:CD1:4257, V-B:ALA:541:CA:9862, V-B:PRO:540:C:9853, V-A:ILE:369:CD1:3238, V-A:SER:385:CA:3406, V-B:TYR:539:CG:9844, V-B:TYR:539:CB:9843, H-A:ARG:545:NH1:4927, H-A:SER:385:OG:3409, H-A:HIS:383:NE2:3393, V-A:HIS:383:CE1:3392, V-A:PRO:482:CD:4327"]

$$$$
3ab_Grossjean_2025
     RDKit          3D

 33 35  0  0  0  0  0  0  0  0999 V2000
  130.3380  116.8490   59.7880 C   0  0  0  0  0  0  0  0  0  0  0  0
  131.4260  117.6700   59.3860 O   0  0  0  0  0  0  0  0  0  0  0  0
  132.1290  118.3920   60.2960 C   0  0  0  0  0  0  0  0  0  0  0  0
  133.1920  118.0090   60.7930 O   0  0  0  0  0  0  0  0  0  0  0  0
  131.4870  119.7070   60.6350 C   0  0  0  0  0  0  0  0  0  0  0  0
  132.0300  120.9300   60.2120 C   0  0  0  0  0  0  0  0  0  0  0  0
  131.4130  122.1330   60.5400 C   0  0  0  0  0  0  0  0  0  0  0  0
  130.2350  122.1340   61.3040 C   0  0  0  0  0  0  0  0  0  0  0  0
  129.5250  123.2880   61.6880 N   0  0  0  0  0  0  0  0  0  0  0  0
  128.2390  123.4250   62.0740 C   0  0  0  0  0  0  0  0  0  0  0  0
  127.4130  122.5150   62.1470 O   0  0  0  0  0  0  0  0  0  0  0  0
  127.8120  124.8490   62.4380 C   0  0  0  0  0  0  0  0  0  0  0  0
  126.7620  125.5980   61.1570 S   0  0  0  0  0  0  0  0  0  0  0  0
  127.1210  124.7710   59.6210 C   0  0  0  0  0  0  0  0  0  0  0  0
  128.3600  125.0360   59.1410 N   0  0  0  0  0  0  0  0  0  0  0  0
  128.7690  124.4660   57.9780 C   0  0  0  0  0  0  0  0  0  0  0  0
  130.1550  124.8080   57.5160 C   0  0  0  0  0  0  0  0  0  0  0  0
  130.3590  125.5440   56.3380 C   0  0  0  0  0  0  0  0  0  0  0  0
  131.6430  125.8650   55.9050 C   0  0  0  0  0  0  0  0  0  0  0  0
  132.7450  125.4500   56.6470 C   0  0  0  0  0  0  0  0  0  0  0  0
  132.5710  124.7160   57.8150 C   0  0  0  0  0  0  0  0  0  0  0  0
  131.2860  124.3980   58.2440 C   0  0  0  0  0  0  0  0  0  0  0  0
  127.9180  123.6240   57.2540 C   0  0  0  0  0  0  0  0  0  0  0  0
  126.6240  123.3500   57.7210 C   0  0  0  0  0  0  0  0  0  0  0  0
  125.7170  122.4210   56.8920 C   0  0  0  0  0  0  0  0  0  0  0  0
  124.6830  121.9490   57.5920 F   0  0  0  0  0  0  0  0  0  0  0  0
  125.2210  123.0790   55.8430 F   0  0  0  0  0  0  0  0  0  0  0  0
  126.4170  121.3740   56.4530 F   0  0  0  0  0  0  0  0  0  0  0  0
  126.2030  123.9450   58.9370 C   0  0  0  0  0  0  0  0  0  0  0  0
  124.8420  123.7380   59.4400 C   0  0  0  0  0  0  0  0  0  0  0  0
  123.7670  123.5720   59.8340 N   0  0  0  0  0  0  0  0  0  0  0  0
  129.6890  120.9200   61.7210 C   0  0  0  0  0  0  0  0  0  0  0  0
  130.3090  119.7180   61.3920 C   0  0  0  0  0  0  0  0  0  0  0  0
  1  2  1  0
  2  3  1  0
  3  4  2  0
  3  5  1  0
  5  6  2  0
  6  7  1  0
  7  8  2  0
  8  9  1  0
  9 10  1  0
 10 11  2  0
 10 12  1  0
 12 13  1  0
 13 14  1  0
 14 15  2  0
 15 16  1  0
 16 17  1  0
 17 18  2  0
 18 19  1  0
 19 20  2  0
 20 21  1  0
 21 22  2  0
 16 23  2  0
 23 24  1  0
 24 25  1  0
 25 26  1  0
 25 27  1  0
 25 28  1  0
 24 29  2  0
 29 30  1  0
 30 31  3  0
  8 32  1  0
 32 33  2  0
 33  5  1  0
 29 14  1  0
 22 17  1  0
M  END
>  <Binding energies>  (13) 
[-8.51]

>  <Ligand effiencies>  (13) 
[-0.25029411764705883]

>  <Interactions>  (13) 
["H-B:ALA:541:N:9863, V-A:ASP:366:CG:3212, V-B:GLU:543:CD:9880, V-B:ALA:541:CB:9864, V-A:PRO:482:CG:4326, V-B:PRO:540:CB:9857, V-B:TYR:539:CE2:9848, V-B:PRO:540:CD:9859, V-B:PRO:540:N:9856, V-B:PRO:540:CA:9855, V-B:MET:535:CE:9807, V-B:TYR:539:CA:9841, V-B:TYR:539:CD2:9846, V-B:TYR:531:CE2:9765, V-B:TYR:539:C:9839, V-B:TYR:531:CZ:9766, V-B:LEU:363:CD1:8160, V-A:ASP:366:CB:3211, V-A:LEU:475:CD1:4257, V-B:ALA:541:CA:9862, V-B:PRO:540:C:9853, V-B:TYR:539:CZ:9849, V-A:ASP:366:CA:3209, V-A:ASP:366:C:3207, V-B:LEU:363:CB:8158, V-B:TYR:539:CB:9843, V-B:ILE:538:CA:9832, H-A:SER:385:OG:3409, H-A:HIS:383:NE2:3393, H-B:LEU:363:N:8157, V-A:HIS:383:CE1:3392, V-B:VAL:344:CG1:7972, V-A:TYR:531:CE1:4792, V-B:MET:535:CG:9805, V-B:ILE:538:C:9830, V-B:PRO:540:CG:9858, V-B:LEU:363:CG:8159"]

$$$$
3ac_Grossjean_2025
     RDKit          3D

 31 33  0  0  0  0  0  0  0  0999 V2000
  128.7700  132.3290   55.0260 C   0  0  0  0  0  0  0  0  0  0  0  0
  129.7040  132.3500   56.1010 O   0  0  0  0  0  0  0  0  0  0  0  0
  130.3360  131.1770   56.4690 C   0  0  0  0  0  0  0  0  0  0  0  0
  129.6070  130.0000   56.3050 C   0  0  0  0  0  0  0  0  0  0  0  0
  130.1620  128.7700   56.6450 C   0  0  0  0  0  0  0  0  0  0  0  0
  131.4560  128.7010   57.1650 C   0  0  0  0  0  0  0  0  0  0  0  0
  131.9390  127.4120   57.4590 N   0  0  0  0  0  0  0  0  0  0  0  0
  131.9610  126.3120   56.6760 C   0  0  0  0  0  0  0  0  0  0  0  0
  131.5830  126.2650   55.5050 O   0  0  0  0  0  0  0  0  0  0  0  0
  132.5110  125.0460   57.3340 C   0  0  0  0  0  0  0  0  0  0  0  0
  132.2410  125.0320   59.1330 S   0  0  0  0  0  0  0  0  0  0  0  0
  131.1280  123.6990   59.5340 C   0  0  0  0  0  0  0  0  0  0  0  0
  129.9320  123.7950   58.9050 N   0  0  0  0  0  0  0  0  0  0  0  0
  128.9820  122.8460   59.1080 C   0  0  0  0  0  0  0  0  0  0  0  0
  127.6840  123.0310   58.3800 C   0  0  0  0  0  0  0  0  0  0  0  0
  127.3200  122.1710   57.3300 C   0  0  0  0  0  0  0  0  0  0  0  0
  126.1140  122.3340   56.6550 C   0  0  0  0  0  0  0  0  0  0  0  0
  125.2530  123.3640   57.0190 C   0  0  0  0  0  0  0  0  0  0  0  0
  125.5900  124.2330   58.0510 C   0  0  0  0  0  0  0  0  0  0  0  0
  126.7980  124.0660   58.7240 C   0  0  0  0  0  0  0  0  0  0  0  0
  129.2140  121.7740   59.9750 C   0  0  0  0  0  0  0  0  0  0  0  0
  130.4360  121.6630   60.6560 C   0  0  0  0  0  0  0  0  0  0  0  0
  130.6480  120.4680   61.6060 C   0  0  0  0  0  0  0  0  0  0  0  0
  130.7410  120.8350   62.8860 F   0  0  0  0  0  0  0  0  0  0  0  0
  129.6260  119.6150   61.5110 F   0  0  0  0  0  0  0  0  0  0  0  0
  131.7740  119.8290   61.2860 F   0  0  0  0  0  0  0  0  0  0  0  0
  131.4220  122.6580   60.4450 C   0  0  0  0  0  0  0  0  0  0  0  0
  132.6810  122.6270   61.1920 C   0  0  0  0  0  0  0  0  0  0  0  0
  133.6770  122.6010   61.7820 N   0  0  0  0  0  0  0  0  0  0  0  0
  132.1990  129.8810   57.3260 C   0  0  0  0  0  0  0  0  0  0  0  0
  131.6400  131.1100   56.9840 C   0  0  0  0  0  0  0  0  0  0  0  0
  1  2  1  0
  2  3  1  0
  3  4  2  0
  4  5  1  0
  5  6  2  0
  6  7  1  0
  7  8  1  0
  8  9  2  0
  8 10  1  0
 10 11  1  0
 11 12  1  0
 12 13  2  0
 13 14  1  0
 14 15  1  0
 15 16  2  0
 16 17  1  0
 17 18  2  0
 18 19  1  0
 19 20  2  0
 14 21  2  0
 21 22  1  0
 22 23  1  0
 23 24  1  0
 23 25  1  0
 23 26  1  0
 22 27  2  0
 27 28  1  0
 28 29  3  0
  6 30  1  0
 30 31  2  0
 31  3  1  0
 27 12  1  0
 20 15  1  0
M  END
>  <Binding energies>  (14) 
[-8.5]

>  <Ligand effiencies>  (14) 
[-0.265625]

>  <Interactions>  (14) 
["V-A:ASP:366:CG:3212, V-B:ALA:541:CB:9864, V-A:TYR:539:CD1:4873, V-A:ILE:538:CB:4862, H-A:ASP:366:OD2:3214, V-A:TYR:539:CE1:4875, V-A:ILE:538:CA:4860, V-A:TYR:539:CD2:4874, V-A:TYR:539:CE2:4876, V-A:TYR:539:CZ:4877, V-A:ILE:538:C:4858, V-A:TYR:539:CG:4872, V-B:PRO:540:CB:9857, V-B:TYR:539:CE2:9848, V-B:PRO:540:CD:9859, V-B:PRO:540:N:9856, V-B:PRO:540:CA:9855, V-B:MET:535:CE:9807, V-B:TYR:539:CD2:9846, V-B:TYR:531:CE2:9765, V-B:TYR:539:C:9839, V-B:LEU:363:CD1:8160, V-A:ASP:366:CB:3211, V-A:LEU:475:CD1:4257, V-B:ALA:541:CA:9862, V-B:PRO:540:C:9853, V-B:TYR:539:CZ:9849, H-B:TYR:539:OH:9850, H-A:TYR:531:OH:4795, H-A:TYR:539:N:4870, V-A:ASP:366:CA:3209, V-A:ASP:366:C:3207"]

$$$$
3af_Grossjean_2025
     RDKit          3D

 29 31  0  0  0  0  0  0  0  0999 V2000
  123.9060  131.1230   59.2990 N   0  0  0  0  0  0  0  0  0  0  0  0
  125.0510  131.1390   59.4730 C   0  0  0  0  0  0  0  0  0  0  0  0
  126.4990  131.1600   59.6940 C   0  0  0  0  0  0  0  0  0  0  0  0
  127.0980  132.1910   60.4570 C   0  0  0  0  0  0  0  0  0  0  0  0
  126.2800  133.3090   61.1330 C   0  0  0  0  0  0  0  0  0  0  0  0
  125.5270  133.9950   60.2700 F   0  0  0  0  0  0  0  0  0  0  0  0
  125.4650  132.7860   62.0500 F   0  0  0  0  0  0  0  0  0  0  0  0
  127.0970  134.1800   61.7260 F   0  0  0  0  0  0  0  0  0  0  0  0
  128.4950  132.1990   60.5960 C   0  0  0  0  0  0  0  0  0  0  0  0
  129.2700  131.2060   59.9880 C   0  0  0  0  0  0  0  0  0  0  0  0
  130.7660  131.1770   60.0880 C   0  0  0  0  0  0  0  0  0  0  0  0
  131.4120  131.4950   61.2940 C   0  0  0  0  0  0  0  0  0  0  0  0
  132.8000  131.4670   61.3930 C   0  0  0  0  0  0  0  0  0  0  0  0
  133.5640  131.1190   60.2850 C   0  0  0  0  0  0  0  0  0  0  0  0
  132.9500  130.7960   59.0790 C   0  0  0  0  0  0  0  0  0  0  0  0
  131.5610  130.8240   58.9840 C   0  0  0  0  0  0  0  0  0  0  0  0
  128.6920  130.2210   59.2550 N   0  0  0  0  0  0  0  0  0  0  0  0
  127.3440  130.1800   59.1260 C   0  0  0  0  0  0  0  0  0  0  0  0
  126.7710  128.8090   58.1420 S   0  0  0  0  0  0  0  0  0  0  0  0
  126.1510  129.4690   56.5650 C   0  0  0  0  0  0  0  0  0  0  0  0
  127.2170  130.2800   55.8300 C   0  0  0  0  0  0  0  0  0  0  0  0
  126.9620  130.7310   54.7130 O   0  0  0  0  0  0  0  0  0  0  0  0
  128.3860  130.4310   56.4890 N   0  0  0  0  0  0  0  0  0  0  0  0
  129.5590  131.1050   56.0950 C   0  0  0  0  0  0  0  0  0  0  0  0
  130.4110  130.7240   55.0420 C   0  0  0  0  0  0  0  0  0  0  0  0
  131.5460  131.4870   54.7620 C   0  0  0  0  0  0  0  0  0  0  0  0
  131.8040  132.6150   55.5430 C   0  0  0  0  0  0  0  0  0  0  0  0
  130.9980  133.0030   56.5620 N   0  0  0  0  0  0  0  0  0  0  0  0
  129.8990  132.2510   56.8220 C   0  0  0  0  0  0  0  0  0  0  0  0
  1  2  3  0
  2  3  1  0
  3  4  2  0
  4  5  1  0
  5  6  1  0
  5  7  1  0
  5  8  1  0
  4  9  1  0
  9 10  2  0
 10 11  1  0
 11 12  2  0
 12 13  1  0
 13 14  2  0
 14 15  1  0
 15 16  2  0
 10 17  1  0
 17 18  2  0
 18 19  1  0
 19 20  1  0
 20 21  1  0
 21 22  2  0
 21 23  1  0
 23 24  1  0
 24 25  2  0
 25 26  1  0
 26 27  2  0
 27 28  1  0
 28 29  2  0
 18  3  1  0
 29 24  1  0
 16 11  1  0
M  END
>  <Binding energies>  (15) 
[-7.83]

>  <Ligand effiencies>  (15) 
[-0.261]

>  <Interactions>  (15) 
["V-A:ASP:366:CG:3212, V-A:TYR:539:CD1:4873, H-A:TYR:539:OH:4878, V-A:PRO:540:CB:4885, V-A:ILE:538:CB:4862, V-A:ILE:538:CG2:4863, V-A:LEU:363:CD1:3188, V-A:PRO:540:N:4884, V-A:TYR:531:CE2:4793, V-A:TYR:539:CE1:4875, V-A:PRO:540:CA:4883, H-B:LYS:534:NZ:9795, V-B:ILE:369:CG2:8208, V-B:LEU:475:CD1:9229, V-A:ALA:541:CB:4892, H-B:TYR:531:OH:9767, V-A:TYR:531:CZ:4794, V-A:ILE:538:CA:4860, V-A:TYR:539:C:4867, V-A:PRO:540:CD:4887, V-A:TYR:539:CZ:4877, V-B:TYR:531:CZ:9766, V-B:TYR:531:CE1:9764, V-A:PRO:540:C:4881, V-A:LEU:363:CA:3184, V-A:ASN:362:CB:3175, V-A:ASN:362:C:3171, H-A:TYR:539:N:4870, V-A:TYR:539:CA:4869"]

$$$$
3ag_Grossjean_2025
     RDKit          3D

 30 32  0  0  0  0  0  0  0  0999 V2000
  134.2440  129.9560   57.6550 N   0  0  0  0  0  0  0  0  0  0  0  0
  133.2850  130.3190   58.1910 C   0  0  0  0  0  0  0  0  0  0  0  0
  132.0730  130.7790   58.8740 C   0  0  0  0  0  0  0  0  0  0  0  0
  132.1130  131.1760   60.2330 C   0  0  0  0  0  0  0  0  0  0  0  0
  133.4180  131.2060   61.0520 C   0  0  0  0  0  0  0  0  0  0  0  0
  133.8390  129.9880   61.4000 F   0  0  0  0  0  0  0  0  0  0  0  0
  134.3880  131.7780   60.3390 F   0  0  0  0  0  0  0  0  0  0  0  0
  133.2390  131.9010   62.1760 F   0  0  0  0  0  0  0  0  0  0  0  0
  130.9150  131.5580   60.8570 C   0  0  0  0  0  0  0  0  0  0  0  0
  129.7100  131.5320   60.1470 C   0  0  0  0  0  0  0  0  0  0  0  0
  128.4020  131.9270   60.7640 C   0  0  0  0  0  0  0  0  0  0  0  0
  128.1320  131.6480   62.1130 C   0  0  0  0  0  0  0  0  0  0  0  0
  126.9200  132.0120   62.6920 C   0  0  0  0  0  0  0  0  0  0  0  0
  125.9560  132.6610   61.9260 C   0  0  0  0  0  0  0  0  0  0  0  0
  126.1980  132.9470   60.5860 C   0  0  0  0  0  0  0  0  0  0  0  0
  127.4110  132.5810   60.0110 C   0  0  0  0  0  0  0  0  0  0  0  0
  129.6770  131.1640   58.8410 N   0  0  0  0  0  0  0  0  0  0  0  0
  130.8240  130.8100   58.2130 C   0  0  0  0  0  0  0  0  0  0  0  0
  130.5920  130.3610   56.5070 S   0  0  0  0  0  0  0  0  0  0  0  0
  129.3250  131.4700   55.8230 C   0  0  0  0  0  0  0  0  0  0  0  0
  127.9510  130.8010   55.7470 C   0  0  0  0  0  0  0  0  0  0  0  0
  127.3320  130.7890   54.6820 O   0  0  0  0  0  0  0  0  0  0  0  0
  127.4940  130.2460   56.8830 N   0  0  0  0  0  0  0  0  0  0  0  0
  126.2280  129.5280   57.0270 C   0  0  0  0  0  0  0  0  0  0  0  0
  125.5000  129.8070   58.3370 C   0  0  0  0  0  0  0  0  0  0  0  0
  124.2980  130.5200   58.3240 C   0  0  0  0  0  0  0  0  0  0  0  0
  123.6140  130.7510   59.5150 C   0  0  0  0  0  0  0  0  0  0  0  0
  124.1300  130.2600   60.7130 C   0  0  0  0  0  0  0  0  0  0  0  0
  125.3200  129.5360   60.7310 C   0  0  0  0  0  0  0  0  0  0  0  0
  126.0030  129.3040   59.5400 C   0  0  0  0  0  0  0  0  0  0  0  0
  1  2  3  0
  2  3  1  0
  3  4  2  0
  4  5  1  0
  5  6  1  0
  5  7  1  0
  5  8  1  0
  4  9  1  0
  9 10  2  0
 10 11  1  0
 11 12  2  0
 12 13  1  0
 13 14  2  0
 14 15  1  0
 15 16  2  0
 10 17  1  0
 17 18  2  0
 18 19  1  0
 19 20  1  0
 20 21  1  0
 21 22  2  0
 21 23  1  0
 23 24  1  0
 24 25  1  0
 25 26  2  0
 26 27  1  0
 27 28  2  0
 28 29  1  0
 29 30  2  0
 18  3  1  0
 30 25  1  0
 16 11  1  0
M  END
>  <Binding energies>  (16) 
[-7.38]

>  <Ligand effiencies>  (16) 
[-0.23806451612903226]

>  <Interactions>  (16) 
["V-A:ARG:545:CZ:4926, V-A:ASP:366:CG:3212, V-A:TYR:539:CD1:4873, H-A:TYR:539:OH:4878, V-A:PRO:540:CB:4885, V-A:LEU:363:CD1:3188, V-A:TYR:539:CE1:4875, V-A:PRO:540:CA:4883, H-B:LYS:534:NZ:9795, V-B:ILE:369:CG2:8208, V-B:ASP:366:CG:8184, V-B:ASP:366:CA:8181, V-B:LEU:475:CD1:9229, V-A:ALA:541:CB:4892, V-B:ILE:369:CD1:8210, V-B:ILE:369:CB:8207, V-B:ASP:366:CB:8183, V-A:TYR:539:CZ:4877, V-B:ASP:366:C:8179, V-B:TYR:531:CZ:9766, V-A:ASP:366:CB:3211, V-B:TYR:531:CE1:9764, H-A:TYR:531:OH:4795, V-A:PRO:540:C:4881, V-A:LEU:363:CA:3184, V-A:ASN:362:CB:3175, V-A:ASN:362:C:3171, V-A:LEU:363:CB:3186, V-A:ASN:362:CA:3173, V-A:ALA:541:C:4888, V-A:ASN:362:CG:3176"]

$$$$
3bc_Grossjean_2025
     RDKit          3D

 28 30  0  0  0  0  0  0  0  0999 V2000
  129.4460  125.9540   67.7890 C   0  0  0  0  0  0  0  0  0  0  0  0
  130.7960  126.3930   67.6990 O   0  0  0  0  0  0  0  0  0  0  0  0
  131.5540  126.0220   66.6040 C   0  0  0  0  0  0  0  0  0  0  0  0
  130.8580  125.7910   65.4160 C   0  0  0  0  0  0  0  0  0  0  0  0
  131.5350  125.4120   64.2600 C   0  0  0  0  0  0  0  0  0  0  0  0
  132.9220  125.2500   64.2790 C   0  0  0  0  0  0  0  0  0  0  0  0
  133.5190  124.8770   63.0600 N   0  0  0  0  0  0  0  0  0  0  0  0
  133.6130  123.6550   62.4960 C   0  0  0  0  0  0  0  0  0  0  0  0
  133.1300  122.6240   62.9700 O   0  0  0  0  0  0  0  0  0  0  0  0
  134.3530  123.6230   61.1510 C   0  0  0  0  0  0  0  0  0  0  0  0
  133.3260  123.1720   59.7110 S   0  0  0  0  0  0  0  0  0  0  0  0
  132.0310  122.0950   60.2830 C   0  0  0  0  0  0  0  0  0  0  0  0
  130.7860  122.6110   60.1300 N   0  0  0  0  0  0  0  0  0  0  0  0
  129.7030  121.8920   60.5240 C   0  0  0  0  0  0  0  0  0  0  0  0
  128.3640  122.5420   60.3400 C   0  0  0  0  0  0  0  0  0  0  0  0
  127.6110  122.9590   61.4490 C   0  0  0  0  0  0  0  0  0  0  0  0
  126.3670  123.5640   61.2860 C   0  0  0  0  0  0  0  0  0  0  0  0
  125.8570  123.7580   60.0070 C   0  0  0  0  0  0  0  0  0  0  0  0
  126.5810  123.3510   58.8910 C   0  0  0  0  0  0  0  0  0  0  0  0
  127.8240  122.7460   59.0590 C   0  0  0  0  0  0  0  0  0  0  0  0
  129.8500  120.6210   61.0880 C   0  0  0  0  0  0  0  0  0  0  0  0
  131.1260  120.0650   61.2320 C   0  0  0  0  0  0  0  0  0  0  0  0
  131.2390  118.6660   61.8370 C   0  0  0  0  0  0  0  0  0  0  0  0
  132.2540  120.8050   60.8130 C   0  0  0  0  0  0  0  0  0  0  0  0
  133.5940  120.2230   60.9090 C   0  0  0  0  0  0  0  0  0  0  0  0
  134.6530  119.7610   60.9850 N   0  0  0  0  0  0  0  0  0  0  0  0
  133.6300  125.4920   65.4650 C   0  0  0  0  0  0  0  0  0  0  0  0
  132.9490  125.8720   66.6190 C   0  0  0  0  0  0  0  0  0  0  0  0
  1  2  1  0
  2  3  1  0
  3  4  2  0
  4  5  1  0
  5  6  2  0
  6  7  1  0
  7  8  1  0
  8  9  2  0
  8 10  1  0
 10 11  1  0
 11 12  1  0
 12 13  2  0
 13 14  1  0
 14 15  1  0
 15 16  2  0
 16 17  1  0
 17 18  2  0
 18 19  1  0
 19 20  2  0
 14 21  2  0
 21 22  1  0
 22 23  1  0
 22 24  2  0
 24 25  1  0
 25 26  3  0
  6 27  1  0
 27 28  2  0
 28  3  1  0
 24 12  1  0
 20 15  1  0
M  END
>  <Binding energies>  (17) 
[-7.88]

>  <Ligand effiencies>  (17) 
[-0.2717241379310345]

>  <Interactions>  (17) 
["V-A:HIS:456:CE1:4069, H-A:GLY:454:N:4049, V-A:ARG:545:CZ:4926, V-A:ASP:366:CG:3212, V-B:GLU:543:CD:9880, V-B:ALA:541:CB:9864, V-A:ARG:545:CD:4923, V-A:ARG:545:CG:4922, H-A:ASP:366:OD2:3214, V-A:PRO:482:CG:4326, V-B:PRO:540:CB:9857, V-B:TYR:539:CE2:9848, V-B:PRO:540:N:9856, V-B:PRO:540:CA:9855, V-A:PRO:482:CB:4325, V-B:TYR:539:C:9839, V-A:ILE:369:CG2:3236, V-A:LEU:475:CD1:4257, V-B:PRO:540:C:9853, V-A:ILE:369:CD1:3238, V-B:GLU:543:CB:9878, H-A:ASP:366:OD1:3213, H-A:SER:385:OG:3409"]

$$$$
3bd_Grossjean_2025
     RDKit          3D

 26 28  0  0  0  0  0  0  0  0999 V2000
  128.9780  126.7280   58.3810 C   0  0  0  0  0  0  0  0  0  0  0  0
  128.6130  128.1530   57.9690 C   0  0  0  0  0  0  0  0  0  0  0  0
  128.0710  129.0040   58.9400 C   0  0  0  0  0  0  0  0  0  0  0  0
  127.7190  130.3150   58.6020 C   0  0  0  0  0  0  0  0  0  0  0  0
  127.1380  131.2800   59.5930 C   0  0  0  0  0  0  0  0  0  0  0  0
  125.7570  131.3020   59.8470 C   0  0  0  0  0  0  0  0  0  0  0  0
  125.2110  132.1960   60.7650 C   0  0  0  0  0  0  0  0  0  0  0  0
  126.0410  133.0830   61.4430 C   0  0  0  0  0  0  0  0  0  0  0  0
  127.4120  133.0830   61.2070 C   0  0  0  0  0  0  0  0  0  0  0  0
  127.9540  132.1880   60.2890 C   0  0  0  0  0  0  0  0  0  0  0  0
  127.9110  130.7840   57.3410 N   0  0  0  0  0  0  0  0  0  0  0  0
  128.4350  129.9730   56.3870 C   0  0  0  0  0  0  0  0  0  0  0  0
  128.6240  130.7040   54.7690 S   0  0  0  0  0  0  0  0  0  0  0  0
  130.2880  131.4300   54.6710 C   0  0  0  0  0  0  0  0  0  0  0  0
  130.8290  131.8120   56.0490 C   0  0  0  0  0  0  0  0  0  0  0  0
  130.6690  132.9630   56.4560 O   0  0  0  0  0  0  0  0  0  0  0  0
  131.4700  130.8300   56.7190 N   0  0  0  0  0  0  0  0  0  0  0  0
  132.0470  130.8640   58.0030 C   0  0  0  0  0  0  0  0  0  0  0  0
  131.1600  131.0170   59.0720 C   0  0  0  0  0  0  0  0  0  0  0  0
  131.6380  131.0700   60.3780 C   0  0  0  0  0  0  0  0  0  0  0  0
  133.0070  130.9820   60.6160 C   0  0  0  0  0  0  0  0  0  0  0  0
  133.9030  130.8430   59.5580 C   0  0  0  0  0  0  0  0  0  0  0  0
  133.4270  130.7880   58.2510 C   0  0  0  0  0  0  0  0  0  0  0  0
  128.8030  128.6370   56.6570 C   0  0  0  0  0  0  0  0  0  0  0  0
  129.3700  127.7720   55.6190 C   0  0  0  0  0  0  0  0  0  0  0  0
  129.8180  127.0880   54.8000 N   0  0  0  0  0  0  0  0  0  0  0  0
  1  2  1  0
  2  3  2  0
  3  4  1  0
  4  5  1  0
  5  6  2  0
  6  7  1  0
  7  8  2  0
  8  9  1  0
  9 10  2  0
  4 11  2  0
 11 12  1  0
 12 13  1  0
 13 14  1  0
 14 15  1  0
 15 16  2  0
 15 17  1  0
 17 18  1  0
 18 19  2  0
 19 20  1  0
 20 21  2  0
 21 22  1  0
 22 23  2  0
 12 24  2  0
 24 25  1  0
 25 26  3  0
 24  2  1  0
 10  5  1  0
 23 18  1  0
M  END
>  <Binding energies>  (18) 
[-7.79]

>  <Ligand effiencies>  (18) 
[-0.2885185185185185]

>  <Interactions>  (18) 
["V-A:ASP:366:CG:3212, V-A:TYR:539:CD1:4873, V-A:PRO:540:CB:4885, V-A:ILE:538:CB:4862, V-A:ILE:538:CG2:4863, V-A:LEU:363:CD1:3188, V-A:TYR:539:CE1:4875, V-A:PRO:540:CA:4883, H-B:LYS:534:NZ:9795, V-B:ILE:369:CG2:8208, V-A:ALA:541:CB:4892, V-A:ILE:538:CA:4860, V-A:ASP:366:CB:3211, H-A:TYR:531:OH:4795, V-A:LEU:363:CA:3184, V-A:ASN:362:CB:3175, V-A:ASN:362:C:3171, V-A:LEU:363:CB:3186, H-A:TYR:539:N:4870"]

$$$$
3be_Grossjean_2025
     RDKit          3D

 27 29  0  0  0  0  0  0  0  0999 V2000
  134.2590  125.4500   67.3550 C   0  0  0  0  0  0  0  0  0  0  0  0
  133.3500  125.4670   66.1420 C   0  0  0  0  0  0  0  0  0  0  0  0
  132.0200  125.8850   66.2300 C   0  0  0  0  0  0  0  0  0  0  0  0
  131.2410  125.8720   65.0730 C   0  0  0  0  0  0  0  0  0  0  0  0
  131.8040  125.4450   63.8670 C   0  0  0  0  0  0  0  0  0  0  0  0
  133.1440  125.0430   63.8470 C   0  0  0  0  0  0  0  0  0  0  0  0
  133.6490  124.6140   62.6060 N   0  0  0  0  0  0  0  0  0  0  0  0
  133.9380  123.3590   62.1980 C   0  0  0  0  0  0  0  0  0  0  0  0
  133.8010  122.3490   62.8910 O   0  0  0  0  0  0  0  0  0  0  0  0
  134.4680  123.2580   60.7590 C   0  0  0  0  0  0  0  0  0  0  0  0
  133.1900  123.0440   59.4740 S   0  0  0  0  0  0  0  0  0  0  0  0
  131.9080  122.0030   60.1370 C   0  0  0  0  0  0  0  0  0  0  0  0
  130.6680  122.5410   60.0430 N   0  0  0  0  0  0  0  0  0  0  0  0
  129.5920  121.8510   60.5080 C   0  0  0  0  0  0  0  0  0  0  0  0
  128.2580  122.5230   60.3790 C   0  0  0  0  0  0  0  0  0  0  0  0
  127.5350  122.9080   61.5190 C   0  0  0  0  0  0  0  0  0  0  0  0
  126.2950  123.5290   61.4070 C   0  0  0  0  0  0  0  0  0  0  0  0
  125.7580  123.7750   60.1480 C   0  0  0  0  0  0  0  0  0  0  0  0
  126.4510  123.4020   59.0020 C   0  0  0  0  0  0  0  0  0  0  0  0
  127.6910  122.7800   59.1190 C   0  0  0  0  0  0  0  0  0  0  0  0
  129.7480  120.5870   61.0880 C   0  0  0  0  0  0  0  0  0  0  0  0
  131.0180  120.0070   61.1700 C   0  0  0  0  0  0  0  0  0  0  0  0
  131.1360  118.6180   61.7950 C   0  0  0  0  0  0  0  0  0  0  0  0
  132.1340  120.7160   60.6760 C   0  0  0  0  0  0  0  0  0  0  0  0
  133.4650  120.1040   60.7020 C   0  0  0  0  0  0  0  0  0  0  0  0
  134.5150  119.6190   60.7240 N   0  0  0  0  0  0  0  0  0  0  0  0
  133.9100  125.0510   64.9780 N   0  0  0  0  0  0  0  0  0  0  0  0
  1  2  1  0
  2  3  2  0
  3  4  1  0
  4  5  2  0
  5  6  1  0
  6  7  1  0
  7  8  1  0
  8  9  2  0
  8 10  1  0
 10 11  1  0
 11 12  1  0
 12 13  2  0
 13 14  1  0
 14 15  1  0
 15 16  2  0
 16 17  1  0
 17 18  2  0
 18 19  1  0
 19 20  2  0
 14 21  2  0
 21 22  1  0
 22 23  1  0
 22 24  2  0
 24 25  1  0
 25 26  3  0
  6 27  2  0
 27  2  1  0
 24 12  1  0
 20 15  1  0
M  END
>  <Binding energies>  (19) 
[-8.77]

>  <Ligand effiencies>  (19) 
[-0.3132142857142857]

>  <Interactions>  (19) 
["V-A:HIS:456:CE1:4069, H-A:GLY:454:N:4049, H-A:ARG:545:NH2:4928, V-A:TYR:484:CZ:4346, V-A:ILE:455:C:4051, V-A:ARG:545:CZ:4926, V-A:ASP:366:CG:3212, H-A:TYR:484:OH:4347, V-B:GLU:543:CD:9880, H-A:ARG:545:NE:4924, V-B:ALA:541:CB:9864, V-A:ARG:545:CD:4923, V-A:ARG:545:CG:4922, H-A:ASP:366:OD2:3214, V-A:GLU:543:CD:4908, V-A:PRO:482:CG:4326, V-B:PRO:540:CB:9857, V-B:TYR:539:CE2:9848, V-B:PRO:540:N:9856, V-B:PRO:540:CA:9855, V-B:TYR:539:CD2:9846, V-A:PRO:482:CB:4325, V-B:TYR:539:C:9839, V-A:ILE:369:CG1:3237, V-A:ILE:369:CG2:3236, V-A:ILE:369:CB:3235, V-A:LEU:475:CD1:4257, V-B:PRO:540:C:9853, V-A:ILE:369:CD1:3238, H-A:ASP:366:OD1:3213, H-A:ARG:545:NH1:4927, H-A:SER:385:OG:3409"]

$$$$
3bf_Grossjean_2025
     RDKit          3D

 26 28  0  0  0  0  0  0  0  0999 V2000
  129.7500  125.1750   56.0040 C   0  0  0  0  0  0  0  0  0  0  0  0
  129.8070  124.5780   57.4090 C   0  0  0  0  0  0  0  0  0  0  0  0
  131.0330  124.5890   58.0810 C   0  0  0  0  0  0  0  0  0  0  0  0
  131.1260  124.0660   59.3750 C   0  0  0  0  0  0  0  0  0  0  0  0
  132.4040  124.0680   60.1580 C   0  0  0  0  0  0  0  0  0  0  0  0
  133.6440  123.9890   59.5040 C   0  0  0  0  0  0  0  0  0  0  0  0
  134.8360  123.9890   60.2230 C   0  0  0  0  0  0  0  0  0  0  0  0
  134.8030  124.0690   61.6120 C   0  0  0  0  0  0  0  0  0  0  0  0
  133.5880  124.1470   62.2840 C   0  0  0  0  0  0  0  0  0  0  0  0
  132.3980  124.1450   61.5600 C   0  0  0  0  0  0  0  0  0  0  0  0
  130.0350  123.5420   59.9950 N   0  0  0  0  0  0  0  0  0  0  0  0
  128.8440  123.5020   59.3470 C   0  0  0  0  0  0  0  0  0  0  0  0
  127.5330  122.7780   60.3090 S   0  0  0  0  0  0  0  0  0  0  0  0
  128.1400  122.5560   62.0160 C   0  0  0  0  0  0  0  0  0  0  0  0
  129.4700  121.7980   62.1420 C   0  0  0  0  0  0  0  0  0  0  0  0
  130.1720  121.9220   63.1470 O   0  0  0  0  0  0  0  0  0  0  0  0
  129.7610  120.9940   61.0970 N   0  0  0  0  0  0  0  0  0  0  0  0
  130.8920  120.1810   60.8960 C   0  0  0  0  0  0  0  0  0  0  0  0
  132.1340  120.8230   60.8180 C   0  0  0  0  0  0  0  0  0  0  0  0
  133.2950  120.0700   60.6330 C   0  0  0  0  0  0  0  0  0  0  0  0
  133.1820  118.6830   60.5360 C   0  0  0  0  0  0  0  0  0  0  0  0
  131.9940  118.0340   60.6180 N   0  0  0  0  0  0  0  0  0  0  0  0
  130.8720  118.7790   60.7980 C   0  0  0  0  0  0  0  0  0  0  0  0
  128.6740  124.0290   58.0480 C   0  0  0  0  0  0  0  0  0  0  0  0
  127.3690  124.0520   57.3810 C   0  0  0  0  0  0  0  0  0  0  0  0
  126.3390  124.0700   56.8530 N   0  0  0  0  0  0  0  0  0  0  0  0
  1  2  1  0
  2  3  2  0
  3  4  1  0
  4  5  1  0
  5  6  2  0
  6  7  1  0
  7  8  2  0
  8  9  1  0
  9 10  2  0
  4 11  2  0
 11 12  1  0
 12 13  1  0
 13 14  1  0
 14 15  1  0
 15 16  2  0
 15 17  1  0
 17 18  1  0
 18 19  2  0
 19 20  1  0
 20 21  2  0
 21 22  1  0
 22 23  2  0
 12 24  2  0
 24 25  1  0
 25 26  3  0
 24  2  1  0
 10  5  1  0
 23 18  1  0
M  END
>  <Binding energies>  (20) 
[-7.85]

>  <Ligand effiencies>  (20) 
[-0.29074074074074074]

>  <Interactions>  (20) 
["H-B:ALA:541:N:9863, V-A:ASP:366:CG:3212, V-B:ALA:541:CB:9864, V-A:GLY:453:C:4041, V-A:GLY:453:CA:4043, H-B:TYR:531:OH:9767, V-A:PRO:482:CG:4326, V-B:TYR:539:CE2:9848, V-B:PRO:540:CA:9855, V-B:MET:535:CE:9807, V-B:TYR:539:CD2:9846, V-A:ILE:369:CG1:3237, V-A:ILE:369:CG2:3236, V-A:ASP:366:CB:3211, V-A:ILE:369:CB:3235, V-B:ALA:541:CA:9862, V-A:ILE:369:CD1:3238, V-A:SER:385:CA:3406, V-B:TYR:539:CZ:9849, V-A:ASP:366:CA:3209, H-B:TYR:539:O:9840, V-A:HIS:383:CD2:3391, H-A:SER:385:OG:3409, H-A:HIS:383:NE2:3393"]

$$$$
3bg_Grossjean_2025
     RDKit          3D

 27 29  0  0  0  0  0  0  0  0999 V2000
  133.2420  130.7760   61.1860 C   0  0  0  0  0  0  0  0  0  0  0  0
  131.9990  131.0040   60.3290 C   0  0  0  0  0  0  0  0  0  0  0  0
  130.8260  131.4230   60.9640 C   0  0  0  0  0  0  0  0  0  0  0  0
  129.6640  131.6510   60.2140 C   0  0  0  0  0  0  0  0  0  0  0  0
  128.3740  132.1140   60.8320 C   0  0  0  0  0  0  0  0  0  0  0  0
  128.0570  131.8020   62.1650 C   0  0  0  0  0  0  0  0  0  0  0  0
  126.8720  132.2430   62.7460 C   0  0  0  0  0  0  0  0  0  0  0  0
  125.9790  133.0060   62.0010 C   0  0  0  0  0  0  0  0  0  0  0  0
  126.2610  133.3200   60.6770 C   0  0  0  0  0  0  0  0  0  0  0  0
  127.4460  132.8750   60.0990 C   0  0  0  0  0  0  0  0  0  0  0  0
  129.6700  131.4860   58.8640 N   0  0  0  0  0  0  0  0  0  0  0  0
  130.8020  131.0820   58.2310 C   0  0  0  0  0  0  0  0  0  0  0  0
  130.6850  130.9360   56.4550 S   0  0  0  0  0  0  0  0  0  0  0  0
  129.1570  131.7690   55.9130 C   0  0  0  0  0  0  0  0  0  0  0  0
  127.9760  130.7970   55.8310 C   0  0  0  0  0  0  0  0  0  0  0  0
  127.2700  130.7730   54.8220 O   0  0  0  0  0  0  0  0  0  0  0  0
  127.7620  130.0240   56.9090 N   0  0  0  0  0  0  0  0  0  0  0  0
  126.5970  129.1640   57.1200 C   0  0  0  0  0  0  0  0  0  0  0  0
  125.7440  129.6440   58.2890 C   0  0  0  0  0  0  0  0  0  0  0  0
  124.5340  130.3030   58.0490 C   0  0  0  0  0  0  0  0  0  0  0  0
  123.7600  130.7500   59.1150 C   0  0  0  0  0  0  0  0  0  0  0  0
  124.1920  130.5270   60.4220 C   0  0  0  0  0  0  0  0  0  0  0  0
  125.3860  129.8540   60.6700 C   0  0  0  0  0  0  0  0  0  0  0  0
  126.1610  129.4070   59.6010 C   0  0  0  0  0  0  0  0  0  0  0  0
  131.9980  130.8180   58.9300 C   0  0  0  0  0  0  0  0  0  0  0  0
  133.2140  130.3870   58.2360 C   0  0  0  0  0  0  0  0  0  0  0  0
  134.1750  130.0460   57.6890 N   0  0  0  0  0  0  0  0  0  0  0  0
  1  2  1  0
  2  3  2  0
  3  4  1  0
  4  5  1  0
  5  6  2  0
  6  7  1  0
  7  8  2  0
  8  9  1  0
  9 10  2  0
  4 11  2  0
 11 12  1  0
 12 13  1  0
 13 14  1  0
 14 15  1  0
 15 16  2  0
 15 17  1  0
 17 18  1  0
 18 19  1  0
 19 20  2  0
 20 21  1  0
 21 22  2  0
 22 23  1  0
 23 24  2  0
 12 25  2  0
 25 26  1  0
 26 27  3  0
 25  2  1  0
 10  5  1  0
 24 19  1  0
M  END
>  <Binding energies>  (21) 
[-7.96]

>  <Ligand effiencies>  (21) 
[-0.2842857142857143]

>  <Interactions>  (21) 
["V-A:ASP:366:CG:3212, V-A:TYR:539:CD1:4873, H-A:TYR:539:OH:4878, V-A:PRO:540:CB:4885, V-A:LEU:363:CD1:3188, V-A:TYR:539:CE1:4875, V-A:PRO:540:CA:4883, H-B:LYS:534:NZ:9795, V-B:ILE:369:CG2:8208, V-B:ASP:366:CG:8184, V-B:ASP:366:CA:8181, V-B:LEU:475:CD1:9229, V-A:ALA:541:CB:4892, V-B:ILE:369:CD1:8210, V-B:ILE:369:CB:8207, V-B:ASP:366:CB:8183, V-A:TYR:539:C:4867, V-A:TYR:539:CZ:4877, V-B:ASP:366:C:8179, V-B:TYR:531:CZ:9766, V-A:ASP:366:CB:3211, V-B:TYR:531:CE1:9764, H-A:TYR:531:OH:4795, V-A:PRO:540:C:4881, V-A:LEU:363:CA:3184, V-A:ASN:362:CB:3175, V-A:ASN:362:C:3171"]

$$$$
3ca_Grossjean_2025
     RDKit          3D

 31 33  0  0  0  0  0  0  0  0999 V2000
  125.2450  122.1510   55.2290 C   0  0  0  0  0  0  0  0  0  0  0  0
  125.9290  122.6280   56.5140 C   0  0  0  0  0  0  0  0  0  0  0  0
  125.3370  123.8490   56.9390 O   0  0  0  0  0  0  0  0  0  0  0  0
  125.1000  124.0930   58.2530 C   0  0  0  0  0  0  0  0  0  0  0  0
  123.9930  124.4130   58.6970 O   0  0  0  0  0  0  0  0  0  0  0  0
  126.3180  123.9280   59.1170 C   0  0  0  0  0  0  0  0  0  0  0  0
  126.1800  123.3750   60.3960 C   0  0  0  0  0  0  0  0  0  0  0  0
  127.2890  123.2100   61.2200 C   0  0  0  0  0  0  0  0  0  0  0  0
  128.5570  123.6010   60.7860 C   0  0  0  0  0  0  0  0  0  0  0  0
  129.6100  123.3880   61.6970 N   0  0  0  0  0  0  0  0  0  0  0  0
  130.3580  122.2840   61.9060 C   0  0  0  0  0  0  0  0  0  0  0  0
  130.2540  121.2250   61.2890 O   0  0  0  0  0  0  0  0  0  0  0  0
  131.4270  122.4150   62.9970 C   0  0  0  0  0  0  0  0  0  0  0  0
  132.4240  123.9350   62.8460 S   0  0  0  0  0  0  0  0  0  0  0  0
  132.5630  124.7300   64.4410 C   0  0  0  0  0  0  0  0  0  0  0  0
  133.8200  124.8160   64.9470 N   0  0  0  0  0  0  0  0  0  0  0  0
  134.0030  125.4230   66.1400 C   0  0  0  0  0  0  0  0  0  0  0  0
  135.4360  125.4960   66.6280 C   0  0  0  0  0  0  0  0  0  0  0  0
  132.9490  125.9520   66.8810 C   0  0  0  0  0  0  0  0  0  0  0  0
  131.6410  125.8590   66.3900 C   0  0  0  0  0  0  0  0  0  0  0  0
  130.5410  126.4290   67.2250 C   0  0  0  0  0  0  0  0  0  0  0  0
  130.7000  127.6760   67.8420 C   0  0  0  0  0  0  0  0  0  0  0  0
  129.6840  128.2100   68.6300 C   0  0  0  0  0  0  0  0  0  0  0  0
  128.5030  127.4940   68.8100 C   0  0  0  0  0  0  0  0  0  0  0  0
  128.3310  126.2490   68.2100 C   0  0  0  0  0  0  0  0  0  0  0  0
  129.3500  125.7180   67.4220 C   0  0  0  0  0  0  0  0  0  0  0  0
  131.4360  125.2400   65.1300 C   0  0  0  0  0  0  0  0  0  0  0  0
  130.0960  125.1590   64.5410 C   0  0  0  0  0  0  0  0  0  0  0  0
  129.0370  125.0960   64.0760 N   0  0  0  0  0  0  0  0  0  0  0  0
  128.7060  124.1490   59.5030 C   0  0  0  0  0  0  0  0  0  0  0  0
  127.5950  124.3110   58.6800 C   0  0  0  0  0  0  0  0  0  0  0  0
  1  2  1  0
  2  3  1  0
  3  4  1  0
  4  5  2  0
  4  6  1  0
  6  7  2  0
  7  8  1  0
  8  9  2  0
  9 10  1  0
 10 11  1  0
 11 12  2  0
 11 13  1  0
 13 14  1  0
 14 15  1  0
 15 16  2  0
 16 17  1  0
 17 18  1  0
 17 19  2  0
 19 20  1  0
 20 21  1  0
 21 22  2  0
 22 23  1  0
 23 24  2  0
 24 25  1  0
 25 26  2  0
 20 27  2  0
 27 28  1  0
 28 29  3  0
  9 30  1  0
 30 31  2  0
 31  6  1  0
 27 15  1  0
 26 21  1  0
M  END
>  <Binding energies>  (22) 
[-8.41]

>  <Ligand effiencies>  (22) 
[-0.2628125]

>  <Interactions>  (22) 
["V-A:GLU:543:C:4902, V-A:HIS:456:CE1:4069, H-A:GLY:454:N:4049, V-A:TYR:484:CZ:4346, V-B:GLU:543:CG:9879, V-A:ILE:455:C:4051, V-A:ARG:545:CZ:4926, H-A:TYR:484:OH:4347, V-A:GLY:453:C:4041, V-A:ARG:545:CD:4923, V-A:ARG:545:CG:4922, V-A:GLY:453:CA:4043, H-B:TYR:531:OH:9767, V-A:GLU:543:CD:4908, V-A:GLU:543:CG:4907, V-B:PRO:540:CB:9857, V-B:PRO:540:CA:9855, V-B:MET:535:CE:9807, V-B:TYR:531:CE2:9765, V-B:LEU:363:CD1:8160, V-A:GLY:454:CA:4048, V-A:LEU:475:CD1:4257, V-B:GLU:543:CB:9878, V-A:TYR:484:CE2:4345, V-A:GLU:543:CB:4906, V-B:HIS:456:CE1:9041, V-B:ILE:538:CG2:9835, V-A:ARG:545:CB:4921, V-B:ILE:538:CA:9832, V-B:MET:535:CG:9805, V-B:ILE:538:CB:9834, V-B:ILE:538:CG1:9836"]

$$$$
3ce_Grossjean_2025
     RDKit          3D

 27 29  0  0  0  0  0  0  0  0999 V2000
  134.4080  125.4770   66.9700 C   0  0  0  0  0  0  0  0  0  0  0  0
  133.4050  125.4980   65.8320 C   0  0  0  0  0  0  0  0  0  0  0  0
  132.0790  125.8900   66.0340 C   0  0  0  0  0  0  0  0  0  0  0  0
  131.2150  125.8940   64.9390 C   0  0  0  0  0  0  0  0  0  0  0  0
  131.6900  125.5100   63.6830 C   0  0  0  0  0  0  0  0  0  0  0  0
  133.0270  125.1190   63.5530 C   0  0  0  0  0  0  0  0  0  0  0  0
  133.4540  124.7610   62.2630 N   0  0  0  0  0  0  0  0  0  0  0  0
  133.7960  123.5360   61.8050 C   0  0  0  0  0  0  0  0  0  0  0  0
  133.7780  122.5020   62.4740 O   0  0  0  0  0  0  0  0  0  0  0  0
  134.2210  123.4720   60.3380 C   0  0  0  0  0  0  0  0  0  0  0  0
  132.9710  124.1950   59.2360 S   0  0  0  0  0  0  0  0  0  0  0  0
  131.4720  123.2910   59.5460 C   0  0  0  0  0  0  0  0  0  0  0  0
  131.5700  122.3910   60.5560 N   0  0  0  0  0  0  0  0  0  0  0  0
  130.4770  121.6630   60.8820 C   0  0  0  0  0  0  0  0  0  0  0  0
  130.6530  120.6860   62.0280 C   0  0  0  0  0  0  0  0  0  0  0  0
  129.2630  121.7930   60.2130 C   0  0  0  0  0  0  0  0  0  0  0  0
  129.1490  122.6980   59.1500 C   0  0  0  0  0  0  0  0  0  0  0  0
  127.8340  122.7830   58.4470 C   0  0  0  0  0  0  0  0  0  0  0  0
  126.7950  123.5480   58.9900 C   0  0  0  0  0  0  0  0  0  0  0  0
  125.5640  123.6270   58.3430 C   0  0  0  0  0  0  0  0  0  0  0  0
  125.3640  122.9340   57.1520 C   0  0  0  0  0  0  0  0  0  0  0  0
  126.3850  122.1600   56.6050 C   0  0  0  0  0  0  0  0  0  0  0  0
  127.6140  122.0840   57.2530 C   0  0  0  0  0  0  0  0  0  0  0  0
  130.2820  123.4770   58.8030 C   0  0  0  0  0  0  0  0  0  0  0  0
  130.2180  124.4520   57.7100 C   0  0  0  0  0  0  0  0  0  0  0  0
  130.1670  125.2210   56.8470 N   0  0  0  0  0  0  0  0  0  0  0  0
  133.8810  125.1200   64.6180 N   0  0  0  0  0  0  0  0  0  0  0  0
  1  2  1  0
  2  3  2  0
  3  4  1  0
  4  5  2  0
  5  6  1  0
  6  7  1  0
  7  8  1  0
  8  9  2  0
  8 10  1  0
 10 11  1  0
 11 12  1  0
 12 13  2  0
 13 14  1  0
 14 15  1  0
 14 16  2  0
 16 17  1  0
 17 18  1  0
 18 19  2  0
 19 20  1  0
 20 21  2  0
 21 22  1  0
 22 23  2  0
 17 24  2  0
 24 25  1  0
 25 26  3  0
  6 27  2  0
 27  2  1  0
 24 12  1  0
 23 18  1  0
M  END
>  <Binding energies>  (23) 
[-8.84]

>  <Ligand effiencies>  (23) 
[-0.3157142857142857]

>  <Interactions>  (23) 
["H-A:GLY:454:N:4049, H-A:ARG:545:NH2:4928, V-A:ILE:455:C:4051, V-A:ARG:545:CZ:4926, V-A:ASP:366:CG:3212, H-A:TYR:484:OH:4347, H-A:ARG:545:NE:4924, V-B:ALA:541:CB:9864, V-A:ARG:545:CD:4923, V-A:ARG:545:CG:4922, H-A:ASP:366:OD2:3214, V-A:GLU:543:CD:4908, V-B:PRO:540:CB:9857, V-B:TYR:539:CE2:9848, V-B:PRO:540:CD:9859, V-B:PRO:540:N:9856, V-B:PRO:540:CA:9855, V-B:MET:535:CE:9807, V-B:TYR:539:CA:9841, V-B:TYR:539:CD2:9846, V-B:TYR:531:CE2:9765, V-B:TYR:539:C:9839, V-B:LEU:363:CD1:8160, V-A:ILE:369:CG2:3236, V-A:ILE:369:CB:3235, V-A:LEU:475:CD1:4257, V-A:ILE:369:CD1:3238, V-B:TYR:539:CG:9844, V-B:TYR:539:CZ:9849, H-B:TYR:539:OH:9850, V-A:ASP:366:CA:3209, H-A:ASP:366:OD1:3213, H-A:ARG:545:NH1:4927"]

$$$$
3cj_Grossjean_2025
     RDKit          3D

 25 27  0  0  0  0  0  0  0  0999 V2000
  130.5620  120.8310   62.1210 C   0  0  0  0  0  0  0  0  0  0  0  0
  130.3820  121.7550   60.9320 C   0  0  0  0  0  0  0  0  0  0  0  0
  129.1790  121.8150   60.2320 C   0  0  0  0  0  0  0  0  0  0  0  0
  129.0490  122.7000   59.1530 C   0  0  0  0  0  0  0  0  0  0  0  0
  127.7230  122.7780   58.4740 C   0  0  0  0  0  0  0  0  0  0  0  0
  127.5090  122.1230   57.2560 C   0  0  0  0  0  0  0  0  0  0  0  0
  126.2750  122.2070   56.6160 C   0  0  0  0  0  0  0  0  0  0  0  0
  125.2510  122.9530   57.1910 C   0  0  0  0  0  0  0  0  0  0  0  0
  125.4510  123.6180   58.3980 C   0  0  0  0  0  0  0  0  0  0  0  0
  126.6860  123.5330   59.0360 C   0  0  0  0  0  0  0  0  0  0  0  0
  130.1690  123.4880   58.7890 C   0  0  0  0  0  0  0  0  0  0  0  0
  130.1040  124.4120   57.6520 C   0  0  0  0  0  0  0  0  0  0  0  0
  130.0520  125.1420   56.7550 N   0  0  0  0  0  0  0  0  0  0  0  0
  131.3480  123.3660   59.5580 C   0  0  0  0  0  0  0  0  0  0  0  0
  132.7800  124.3900   59.2920 S   0  0  0  0  0  0  0  0  0  0  0  0
  134.1280  123.5490   60.1830 C   0  0  0  0  0  0  0  0  0  0  0  0
  134.2670  124.0600   61.6200 C   0  0  0  0  0  0  0  0  0  0  0  0
  135.3840  124.3470   62.0570 O   0  0  0  0  0  0  0  0  0  0  0  0
  133.1090  124.1920   62.3020 N   0  0  0  0  0  0  0  0  0  0  0  0
  132.9490  124.7540   63.5580 C   0  0  0  0  0  0  0  0  0  0  0  0
  133.8420  124.8560   64.5180 N   0  0  0  0  0  0  0  0  0  0  0  0
  133.3510  125.4780   65.5720 C   0  0  0  0  0  0  0  0  0  0  0  0
  132.0270  125.8960   65.4790 C   0  0  0  0  0  0  0  0  0  0  0  0
  131.3980  125.4430   63.9220 S   0  0  0  0  0  0  0  0  0  0  0  0
  131.4490  122.5220   60.6160 N   0  0  0  0  0  0  0  0  0  0  0  0
  1  2  1  0
  2  3  2  0
  3  4  1  0
  4  5  1  0
  5  6  2  0
  6  7  1  0
  7  8  2  0
  8  9  1  0
  9 10  2  0
  4 11  2  0
 11 12  1  0
 12 13  3  0
 11 14  1  0
 14 15  1  0
 15 16  1  0
 16 17  1  0
 17 18  2  0
 17 19  1  0
 19 20  1  0
 20 21  2  0
 21 22  1  0
 22 23  2  0
 23 24  1  0
 14 25  2  0
 25  2  1  0
 10  5  1  0
 24 20  1  0
M  END
>  <Binding energies>  (24) 
[-7.64]

>  <Ligand effiencies>  (24) 
[-0.2938461538461538]

>  <Interactions>  (24) 
["H-A:GLY:454:N:4049, H-A:ARG:545:NH2:4928, V-A:ARG:545:CZ:4926, V-A:ASP:366:CG:3212, H-A:TYR:484:OH:4347, V-B:ALA:541:CB:9864, V-A:ARG:545:CD:4923, V-B:PRO:540:CB:9857, V-B:TYR:539:CE2:9848, V-B:PRO:540:CD:9859, V-B:PRO:540:N:9856, V-B:PRO:540:CA:9855, V-B:MET:535:CE:9807, V-B:TYR:539:CA:9841, V-B:TYR:539:CD2:9846, V-B:TYR:531:CE2:9765, V-B:TYR:539:C:9839, V-B:LEU:363:CD1:8160, V-A:ILE:369:CG2:3236, V-A:ILE:369:CB:3235, V-A:LEU:475:CD1:4257, V-A:ILE:369:CD1:3238, V-B:TYR:539:CZ:9849, H-B:TYR:539:OH:9850, V-A:ASP:366:CA:3209"]

$$$$
4ba_Grossjean_2025
     RDKit          3D

 28 30  0  0  0  0  0  0  0  0999 V2000
  124.8440  124.2720   57.5230 C   0  0  0  0  0  0  0  0  0  0  0  0
  125.2900  123.2950   56.4190 C   0  0  0  0  0  0  0  0  0  0  0  0
  126.5180  122.4290   56.7680 C   0  0  0  0  0  0  0  0  0  0  0  0
  126.7330  121.3950   56.1310 O   0  0  0  0  0  0  0  0  0  0  0  0
  127.4090  122.8980   57.8810 C   0  0  0  0  0  0  0  0  0  0  0  0
  126.9360  122.8680   59.1990 C   0  0  0  0  0  0  0  0  0  0  0  0
  127.7400  123.2990   60.2510 C   0  0  0  0  0  0  0  0  0  0  0  0
  129.0330  123.7640   60.0080 C   0  0  0  0  0  0  0  0  0  0  0  0
  129.7560  124.1820   61.1420 N   0  0  0  0  0  0  0  0  0  0  0  0
  129.3620  124.9370   62.1970 C   0  0  0  0  0  0  0  0  0  0  0  0
  128.2430  125.4400   62.3080 O   0  0  0  0  0  0  0  0  0  0  0  0
  130.3820  125.1530   63.2260 C   0  0  0  0  0  0  0  0  0  0  0  0
  132.0630  124.7290   62.9100 S   0  0  0  0  0  0  0  0  0  0  0  0
  132.5350  125.2120   64.5220 C   0  0  0  0  0  0  0  0  0  0  0  0
  133.8000  125.1190   64.9320 N   0  0  0  0  0  0  0  0  0  0  0  0
  134.0440  125.5210   66.2000 C   0  0  0  0  0  0  0  0  0  0  0  0
  135.4890  125.3980   66.6490 C   0  0  0  0  0  0  0  0  0  0  0  0
  133.0650  126.0140   67.0580 C   0  0  0  0  0  0  0  0  0  0  0  0
  131.7310  126.1150   66.6320 C   0  0  0  0  0  0  0  0  0  0  0  0
  130.6890  126.6660   67.6110 C   0  0  0  0  0  0  0  0  0  0  0  0
  131.2050  127.5220   68.4960 F   0  0  0  0  0  0  0  0  0  0  0  0
  129.7350  127.3120   66.9410 F   0  0  0  0  0  0  0  0  0  0  0  0
  130.1420  125.6630   68.2990 F   0  0  0  0  0  0  0  0  0  0  0  0
  131.4390  125.6930   65.3010 C   0  0  0  0  0  0  0  0  0  0  0  0
  130.2170  125.6380   64.5340 C   0  0  0  0  0  0  0  0  0  0  0  0
  129.0060  126.0290   65.0440 N   0  0  0  0  0  0  0  0  0  0  0  0
  129.5120  123.8030   58.6900 C   0  0  0  0  0  0  0  0  0  0  0  0
  128.7060  123.3720   57.6390 C   0  0  0  0  0  0  0  0  0  0  0  0
  1  2  1  0
  2  3  1  0
  3  4  2  0
  3  5  1  0
  5  6  2  0
  6  7  1  0
  7  8  2  0
  8  9  1  0
  9 10  1  0
 10 11  2  0
 10 12  1  0
 12 13  1  0
 13 14  1  0
 14 15  2  0
 15 16  1  0
 16 17  1  0
 16 18  2  0
 18 19  1  0
 19 20  1  0
 20 21  1  0
 20 22  1  0
 20 23  1  0
 19 24  2  0
 24 25  1  0
 25 26  1  0
  8 27  1  0
 27 28  2  0
 28  5  1  0
 25 12  2  0
 24 14  1  0
M  END
>  <Binding energies>  (25) 
[-7.17]

>  <Ligand effiencies>  (25) 
[-0.23129032258064516]

>  <Interactions>  (25) 
["V-A:HIS:456:CE1:4069, H-A:GLY:454:N:4049, H-A:ARG:545:NH2:4928, V-A:TYR:484:CZ:4346, V-B:GLU:543:CG:9879, V-A:ILE:455:C:4051, V-A:ARG:545:CZ:4926, H-A:TYR:484:OH:4347, V-B:GLU:543:CD:9880, H-B:GLU:543:OE2:9882, H-A:ARG:545:NE:4924, V-A:GLY:453:C:4041, V-A:ARG:545:CD:4923, V-A:ARG:545:CG:4922, V-A:GLY:453:CA:4043, V-A:GLU:543:CD:4908, H-A:GLU:543:OE1:4909, V-B:PRO:540:CB:9857, V-B:TYR:539:CE2:9848, V-B:PRO:540:N:9856, V-B:PRO:540:CA:9855, V-B:MET:535:CE:9807, V-B:TYR:531:CE2:9765, V-B:TYR:539:C:9839, V-B:TYR:531:CZ:9766, V-B:LEU:363:CD1:8160, V-A:GLY:454:CA:4048, V-A:TYR:484:CE2:4345, V-A:GLU:543:CB:4906, V-B:TYR:539:CZ:9849, H-A:ARG:545:NH1:4927, H-B:TYR:539:N:9842, V-A:GLY:454:C:4046, V-A:ILE:455:CA:4053"]

$$$$
4bb_Grossjean_2025
     RDKit          3D

 27 29  0  0  0  0  0  0  0  0999 V2000
  125.3030  123.2340   56.3920 C   0  0  0  0  0  0  0  0  0  0  0  0
  126.5020  122.4240   56.8890 C   0  0  0  0  0  0  0  0  0  0  0  0
  126.8190  121.4120   56.2610 O   0  0  0  0  0  0  0  0  0  0  0  0
  127.2200  122.8980   58.1170 C   0  0  0  0  0  0  0  0  0  0  0  0
  128.6210  122.8820   58.1430 C   0  0  0  0  0  0  0  0  0  0  0  0
  129.3120  123.3160   59.2710 C   0  0  0  0  0  0  0  0  0  0  0  0
  128.6180  123.7800   60.3900 C   0  0  0  0  0  0  0  0  0  0  0  0
  129.4160  124.1910   61.4760 N   0  0  0  0  0  0  0  0  0  0  0  0
  129.1370  125.0540   62.4840 C   0  0  0  0  0  0  0  0  0  0  0  0
  128.0780  125.6720   62.5930 O   0  0  0  0  0  0  0  0  0  0  0  0
  130.2140  125.2430   63.4590 C   0  0  0  0  0  0  0  0  0  0  0  0
  131.8390  124.6580   63.1100 S   0  0  0  0  0  0  0  0  0  0  0  0
  132.4210  125.2040   64.6660 C   0  0  0  0  0  0  0  0  0  0  0  0
  133.6910  125.0390   65.0310 N   0  0  0  0  0  0  0  0  0  0  0  0
  134.0210  125.5010   66.2590 C   0  0  0  0  0  0  0  0  0  0  0  0
  135.4740  125.3040   66.6540 C   0  0  0  0  0  0  0  0  0  0  0  0
  133.1210  126.1190   67.1220 C   0  0  0  0  0  0  0  0  0  0  0  0
  131.7810  126.2960   66.7430 C   0  0  0  0  0  0  0  0  0  0  0  0
  130.8270  126.9820   67.7270 C   0  0  0  0  0  0  0  0  0  0  0  0
  129.8830  127.7050   67.1200 F   0  0  0  0  0  0  0  0  0  0  0  0
  130.2100  126.0630   68.4710 F   0  0  0  0  0  0  0  0  0  0  0  0
  131.5110  127.8040   68.5220 F   0  0  0  0  0  0  0  0  0  0  0  0
  131.3980  125.8190   65.4530 C   0  0  0  0  0  0  0  0  0  0  0  0
  130.1470  125.8220   64.7380 C   0  0  0  0  0  0  0  0  0  0  0  0
  128.9960  126.3520   65.2620 N   0  0  0  0  0  0  0  0  0  0  0  0
  127.2150  123.7910   60.3740 C   0  0  0  0  0  0  0  0  0  0  0  0
  126.5260  123.3550   59.2450 C   0  0  0  0  0  0  0  0  0  0  0  0
  1  2  1  0
  2  3  2  0
  2  4  1  0
  4  5  2  0
  5  6  1  0
  6  7  2  0
  7  8  1  0
  8  9  1  0
  9 10  2  0
  9 11  1  0
 11 12  1  0
 12 13  1  0
 13 14  2  0
 14 15  1  0
 15 16  1  0
 15 17  2  0
 17 18  1  0
 18 19  1  0
 19 20  1  0
 19 21  1  0
 19 22  1  0
 18 23  2  0
 23 24  1  0
 24 25  1  0
  7 26  1  0
 26 27  2  0
 27  4  1  0
 24 11  2  0
 23 13  1  0
M  END
>  <Binding energies>  (26) 
[-7.28]

>  <Ligand effiencies>  (26) 
[-0.24266666666666667]

>  <Interactions>  (26) 
["V-A:GLU:543:C:4902, V-A:HIS:456:CE1:4069, H-A:GLY:454:N:4049, H-A:ARG:545:NH2:4928, V-B:GLU:543:CG:9879, V-A:ILE:455:C:4051, V-A:ARG:545:CZ:4926, H-A:TYR:484:OH:4347, V-B:GLU:543:CD:9880, H-B:GLU:543:OE1:9881, H-B:GLU:543:OE2:9882, H-A:ARG:545:NE:4924, V-A:GLY:453:C:4041, V-A:ARG:545:CD:4923, V-A:ARG:545:CG:4922, V-A:GLY:453:CA:4043, V-A:GLU:543:CD:4908, H-A:GLU:543:OE1:4909, V-A:GLU:543:CG:4907, V-B:PRO:540:CB:9857, V-B:TYR:539:CE2:9848, V-B:PRO:540:CD:9859, V-B:PRO:540:N:9856, V-B:PRO:540:CA:9855, V-B:MET:535:CE:9807, V-B:TYR:539:CD2:9846, V-B:TYR:531:CE2:9765, V-B:TYR:539:C:9839, V-B:TYR:531:CZ:9766, V-B:LEU:363:CD1:8160, V-A:GLY:454:CA:4048, V-A:GLU:543:CB:4906, V-B:TYR:539:CZ:9849, H-B:TYR:539:N:9842, V-A:GLY:454:C:4046, V-A:ILE:455:CA:4053"]

$$$$
4bd_Grossjean_2025
     RDKit          3D

 24 26  0  0  0  0  0  0  0  0999 V2000
  124.5550  129.6860   65.4890 C   0  0  0  0  0  0  0  0  0  0  0  0
  125.2180  130.4600   64.3650 C   0  0  0  0  0  0  0  0  0  0  0  0
  124.5980  131.5660   63.7910 C   0  0  0  0  0  0  0  0  0  0  0  0
  125.2220  132.2720   62.7500 C   0  0  0  0  0  0  0  0  0  0  0  0
  124.4990  133.4810   62.1470 C   0  0  0  0  0  0  0  0  0  0  0  0
  125.2560  134.5790   62.1150 F   0  0  0  0  0  0  0  0  0  0  0  0
  124.1350  133.2110   60.8940 F   0  0  0  0  0  0  0  0  0  0  0  0
  123.4160  133.7650   62.8700 F   0  0  0  0  0  0  0  0  0  0  0  0
  126.5000  131.8060   62.3210 C   0  0  0  0  0  0  0  0  0  0  0  0
  127.4220  132.2610   61.3090 C   0  0  0  0  0  0  0  0  0  0  0  0
  127.1700  133.3500   60.5160 N   0  0  0  0  0  0  0  0  0  0  0  0
  128.5930  131.4900   61.2100 C   0  0  0  0  0  0  0  0  0  0  0  0
  129.7210  131.6570   60.2890 C   0  0  0  0  0  0  0  0  0  0  0  0
  130.8550  131.8740   60.7170 O   0  0  0  0  0  0  0  0  0  0  0  0
  129.4180  131.5420   58.9720 N   0  0  0  0  0  0  0  0  0  0  0  0
  130.2500  131.6870   57.8460 C   0  0  0  0  0  0  0  0  0  0  0  0
  129.6160  132.0740   56.6620 C   0  0  0  0  0  0  0  0  0  0  0  0
  130.3550  132.2540   55.4960 C   0  0  0  0  0  0  0  0  0  0  0  0
  131.7330  132.0560   55.5150 C   0  0  0  0  0  0  0  0  0  0  0  0
  132.3780  131.6840   56.6910 C   0  0  0  0  0  0  0  0  0  0  0  0
  131.6430  131.5020   57.8590 C   0  0  0  0  0  0  0  0  0  0  0  0
  128.5900  130.1740   62.3810 S   0  0  0  0  0  0  0  0  0  0  0  0
  127.0260  130.6590   62.9920 C   0  0  0  0  0  0  0  0  0  0  0  0
  126.4290  129.9940   63.9800 N   0  0  0  0  0  0  0  0  0  0  0  0
  1  2  1  0
  2  3  2  0
  3  4  1  0
  4  5  1  0
  5  6  1  0
  5  7  1  0
  5  8  1  0
  4  9  2  0
  9 10  1  0
 10 11  1  0
 10 12  2  0
 12 13  1  0
 13 14  2  0
 13 15  1  0
 15 16  1  0
 16 17  2  0
 17 18  1  0
 18 19  2  0
 19 20  1  0
 20 21  2  0
 12 22  1  0
 22 23  1  0
 23 24  2  0
 24  2  1  0
 23  9  1  0
 21 16  1  0
M  END
>  <Binding energies>  (27) 
[-6.28]

>  <Ligand effiencies>  (27) 
[-0.2325925925925926]

>  <Interactions>  (27) 
["V-A:TYR:539:CD1:4873, V-A:PRO:540:CB:4885, V-A:ILE:538:CB:4862, V-A:ILE:538:CG2:4863, V-A:LEU:363:CD1:3188, V-A:PRO:540:N:4884, V-A:TYR:539:CE1:4875, V-A:PRO:540:CA:4883, V-B:ILE:369:CG2:8208, V-B:LEU:475:CD1:9229, V-B:ILE:369:CD1:8210, V-B:ILE:369:CB:8207, V-A:ILE:538:CA:4860, H-A:ALA:541:N:4891, V-B:ILE:369:CG1:8209, V-A:TYR:539:C:4867, V-A:PRO:540:CD:4887, V-A:GLU:543:CD:4908, V-A:ILE:538:C:4858, V-B:GLY:454:CA:9020, V-B:ARG:545:CZ:9898, H-A:TYR:539:O:4868, V-B:SER:385:C:8376"]

$$$$
4be_Grossjean_2025
     RDKit          3D

 25 27  0  0  0  0  0  0  0  0999 V2000
  125.2570  122.8100   55.7260 C   0  0  0  0  0  0  0  0  0  0  0  0
  125.9270  123.2500   57.0140 C   0  0  0  0  0  0  0  0  0  0  0  0
  126.7890  122.4040   57.7160 C   0  0  0  0  0  0  0  0  0  0  0  0
  127.3680  122.8750   58.8940 C   0  0  0  0  0  0  0  0  0  0  0  0
  127.0750  124.1670   59.3380 C   0  0  0  0  0  0  0  0  0  0  0  0
  126.2080  124.9650   58.5830 C   0  0  0  0  0  0  0  0  0  0  0  0
  125.9490  126.2520   59.0880 N   0  0  0  0  0  0  0  0  0  0  0  0
  126.4920  127.4380   58.7170 C   0  0  0  0  0  0  0  0  0  0  0  0
  127.3360  127.5570   57.8260 O   0  0  0  0  0  0  0  0  0  0  0  0
  126.0250  128.6070   59.4680 C   0  0  0  0  0  0  0  0  0  0  0  0
  125.6870  130.1200   58.6300 S   0  0  0  0  0  0  0  0  0  0  0  0
  125.2620  130.9090   60.1310 C   0  0  0  0  0  0  0  0  0  0  0  0
  124.8790  132.1840   60.1610 N   0  0  0  0  0  0  0  0  0  0  0  0
  124.5740  132.6830   61.3810 C   0  0  0  0  0  0  0  0  0  0  0  0
  124.1430  134.1380   61.3950 C   0  0  0  0  0  0  0  0  0  0  0  0
  124.6410  131.9440   62.5590 C   0  0  0  0  0  0  0  0  0  0  0  0
  125.0430  130.5990   62.5330 C   0  0  0  0  0  0  0  0  0  0  0  0
  125.0970  129.8250   63.8550 C   0  0  0  0  0  0  0  0  0  0  0  0
  126.0110  128.8510   63.8510 F   0  0  0  0  0  0  0  0  0  0  0  0
  125.4040  130.6550   64.8520 F   0  0  0  0  0  0  0  0  0  0  0  0
  123.9130  129.2630   64.0980 F   0  0  0  0  0  0  0  0  0  0  0  0
  125.3760  130.0430   61.2630 C   0  0  0  0  0  0  0  0  0  0  0  0
  125.8250  128.7350   60.8510 C   0  0  0  0  0  0  0  0  0  0  0  0
  126.0300  127.7090   61.7380 N   0  0  0  0  0  0  0  0  0  0  0  0
  125.6340  124.5080   57.4320 N   0  0  0  0  0  0  0  0  0  0  0  0
  1  2  1  0
  2  3  2  0
  3  4  1  0
  4  5  2  0
  5  6  1  0
  6  7  1  0
  7  8  1  0
  8  9  2  0
  8 10  1  0
 10 11  1  0
 11 12  1  0
 12 13  2  0
 13 14  1  0
 14 15  1  0
 14 16  2  0
 16 17  1  0
 17 18  1  0
 18 19  1  0
 18 20  1  0
 18 21  1  0
 17 22  2  0
 22 23  1  0
 23 24  1  0
  6 25  2  0
 25  2  1  0
 23 10  2  0
 22 12  1  0
M  END
>  <Binding energies>  (28) 
[-6.43]

>  <Ligand effiencies>  (28) 
[-0.22964285714285712]

>  <Interactions>  (28) 
["H-B:GLU:543:OE2:9882, V-A:TYR:539:CE1:4875, V-B:ILE:369:CG2:8208, V-B:ASP:366:CG:8184, V-B:LEU:475:CD1:9229, V-B:ILE:369:CD1:8210, H-B:TYR:531:OH:9767, V-B:ASP:366:CB:8183, V-B:PRO:540:CB:9857, V-B:PRO:540:CD:9859, V-B:PRO:540:N:9856, V-B:PRO:540:CA:9855, V-B:MET:535:CE:9807, H-B:ASP:366:OD1:8185, V-B:TYR:531:CE2:9765, V-B:TYR:539:C:9839, V-B:LEU:363:CD1:8160, V-B:GLY:454:CA:9020, V-B:ARG:545:CZ:9898, H-B:ASP:366:OD2:8186, V-B:GLY:453:CA:9015, V-B:MET:535:CG:9805"]

$$$$
4bg_Grossjean_2025
     RDKit          3D

 25 27  0  0  0  0  0  0  0  0999 V2000
  133.4950  123.2810   58.1600 C   0  0  0  0  0  0  0  0  0  0  0  0
  132.9920  123.3870   59.5880 C   0  0  0  0  0  0  0  0  0  0  0  0
  131.8070  122.7700   59.9790 C   0  0  0  0  0  0  0  0  0  0  0  0
  131.3500  122.8800   61.3030 C   0  0  0  0  0  0  0  0  0  0  0  0
  130.0410  122.1840   61.6860 C   0  0  0  0  0  0  0  0  0  0  0  0
  129.1410  123.0180   62.2120 F   0  0  0  0  0  0  0  0  0  0  0  0
  129.4890  121.6340   60.6040 F   0  0  0  0  0  0  0  0  0  0  0  0
  130.2810  121.2350   62.5890 F   0  0  0  0  0  0  0  0  0  0  0  0
  132.1500  123.6420   62.2060 C   0  0  0  0  0  0  0  0  0  0  0  0
  132.0060  123.9750   63.6020 C   0  0  0  0  0  0  0  0  0  0  0  0
  130.9360  123.5650   64.3580 N   0  0  0  0  0  0  0  0  0  0  0  0
  133.0590  124.7460   64.1170 C   0  0  0  0  0  0  0  0  0  0  0  0
  133.2200  125.2820   65.4690 C   0  0  0  0  0  0  0  0  0  0  0  0
  134.1020  124.8700   66.2230 O   0  0  0  0  0  0  0  0  0  0  0  0
  132.3740  126.2740   65.8160 N   0  0  0  0  0  0  0  0  0  0  0  0
  132.3410  126.9470   67.1140 C   0  0  0  0  0  0  0  0  0  0  0  0
  130.9600  126.9660   67.7560 C   0  0  0  0  0  0  0  0  0  0  0  0
  130.5590  128.0630   68.5260 C   0  0  0  0  0  0  0  0  0  0  0  0
  129.2820  128.0950   69.0790 C   0  0  0  0  0  0  0  0  0  0  0  0
  128.4030  127.0380   68.8500 C   0  0  0  0  0  0  0  0  0  0  0  0
  128.7890  125.9510   68.0700 C   0  0  0  0  0  0  0  0  0  0  0  0
  130.0670  125.9170   67.5170 C   0  0  0  0  0  0  0  0  0  0  0  0
  134.2490  125.1190   62.8740 S   0  0  0  0  0  0  0  0  0  0  0  0
  133.3470  124.2170   61.6790 C   0  0  0  0  0  0  0  0  0  0  0  0
  133.7740  124.1110   60.4210 N   0  0  0  0  0  0  0  0  0  0  0  0
  1  2  1  0
  2  3  2  0
  3  4  1  0
  4  5  1  0
  5  6  1  0
  5  7  1  0
  5  8  1  0
  4  9  2  0
  9 10  1  0
 10 11  1  0
 10 12  2  0
 12 13  1  0
 13 14  2  0
 13 15  1  0
 15 16  1  0
 16 17  1  0
 17 18  2  0
 18 19  1  0
 19 20  2  0
 20 21  1  0
 21 22  2  0
 12 23  1  0
 23 24  1  0
 24 25  2  0
 25  2  1  0
 24  9  1  0
 22 17  1  0
M  END
>  <Binding energies>  (29) 
[-6.39]

>  <Ligand effiencies>  (29) 
[-0.2282142857142857]

>  <Interactions>  (29) 
["V-A:GLU:543:C:4902, V-A:HIS:456:CE1:4069, H-A:GLY:454:N:4049, V-B:GLU:543:CG:9879, V-A:ARG:545:CZ:4926, V-A:ASP:366:CG:3212, H-A:TYR:484:OH:4347, H-A:ARG:545:NE:4924, H-A:ILE:455:N:4054, V-B:ALA:541:CB:9864, V-A:GLY:453:C:4041, V-A:ARG:545:CD:4923, V-A:ARG:545:CG:4922, V-A:GLY:453:CA:4043, H-A:GLU:543:OE2:4910, V-A:GLU:543:CD:4908, H-A:GLU:543:OE1:4909, V-B:TYR:539:CE2:9848, V-B:PRO:540:CA:9855, V-A:GLU:543:CA:4904, V-A:ILE:369:CG2:3236, V-A:ILE:369:CB:3235, V-A:LEU:475:CD1:4257, V-B:GLU:543:CB:9878, V-A:GLU:543:CB:4906, V-B:HIS:456:CE1:9041, V-B:TYR:539:CZ:9849, V-A:ASP:366:CA:3209"]

$$$$
4ca_Grossjean_2025
     RDKit          3D

 34 37  0  0  0  0  0  0  0  0999 V2000
  129.0780  125.0560   72.9700 C   0  0  0  0  0  0  0  0  0  0  0  0
  128.8980  126.5540   73.2350 C   0  0  0  0  0  0  0  0  0  0  0  0
  129.8010  127.2900   72.4200 O   0  0  0  0  0  0  0  0  0  0  0  0
  129.3490  128.1240   71.4470 C   0  0  0  0  0  0  0  0  0  0  0  0
  128.9640  129.2770   71.6650 O   0  0  0  0  0  0  0  0  0  0  0  0
  129.3660  127.5040   70.0810 C   0  0  0  0  0  0  0  0  0  0  0  0
  128.6870  126.2970   69.8680 C   0  0  0  0  0  0  0  0  0  0  0  0
  128.6810  125.7000   68.6100 C   0  0  0  0  0  0  0  0  0  0  0  0
  129.3590  126.2900   67.5440 C   0  0  0  0  0  0  0  0  0  0  0  0
  129.2800  125.6060   66.3150 N   0  0  0  0  0  0  0  0  0  0  0  0
  130.2650  125.2220   65.4650 C   0  0  0  0  0  0  0  0  0  0  0  0
  131.4660  125.3860   65.6800 O   0  0  0  0  0  0  0  0  0  0  0  0
  129.8100  124.5600   64.2400 C   0  0  0  0  0  0  0  0  0  0  0  0
  128.5670  125.3070   63.2390 S   0  0  0  0  0  0  0  0  0  0  0  0
  128.6580  124.0050   62.0770 C   0  0  0  0  0  0  0  0  0  0  0  0
  127.8940  123.9930   60.9870 N   0  0  0  0  0  0  0  0  0  0  0  0
  128.0440  122.9470   60.1340 C   0  0  0  0  0  0  0  0  0  0  0  0
  127.1760  122.9680   58.9090 C   0  0  0  0  0  0  0  0  0  0  0  0
  126.0700  123.8280   58.8270 C   0  0  0  0  0  0  0  0  0  0  0  0
  125.2570  123.8480   57.6960 C   0  0  0  0  0  0  0  0  0  0  0  0
  125.5400  123.0030   56.6280 C   0  0  0  0  0  0  0  0  0  0  0  0
  126.6280  122.1390   56.6840 C   0  0  0  0  0  0  0  0  0  0  0  0
  127.4380  122.1220   57.8170 C   0  0  0  0  0  0  0  0  0  0  0  0
  128.9440  121.9070   60.3910 C   0  0  0  0  0  0  0  0  0  0  0  0
  129.7500  121.9080   61.5400 C   0  0  0  0  0  0  0  0  0  0  0  0
  130.7170  120.7380   61.7580 C   0  0  0  0  0  0  0  0  0  0  0  0
  130.5040  120.0890   62.9040 F   0  0  0  0  0  0  0  0  0  0  0  0
  130.5870  119.8540   60.7690 F   0  0  0  0  0  0  0  0  0  0  0  0
  131.9720  121.1880   61.7830 F   0  0  0  0  0  0  0  0  0  0  0  0
  129.6140  123.0090   62.4320 C   0  0  0  0  0  0  0  0  0  0  0  0
  130.2600  123.3550   63.6750 C   0  0  0  0  0  0  0  0  0  0  0  0
  131.2260  122.5710   64.2510 N   0  0  0  0  0  0  0  0  0  0  0  0
  130.0380  127.5010   67.7460 C   0  0  0  0  0  0  0  0  0  0  0  0
  130.0410  128.0980   69.0040 C   0  0  0  0  0  0  0  0  0  0  0  0
  1  2  1  0
  2  3  1  0
  3  4  1  0
  4  5  2  0
  4  6  1  0
  6  7  2  0
  7  8  1  0
  8  9  2  0
  9 10  1  0
 10 11  1  0
 11 12  2  0
 11 13  1  0
 13 14  1  0
 14 15  1  0
 15 16  2  0
 16 17  1  0
 17 18  1  0
 18 19  2  0
 19 20  1  0
 20 21  2  0
 21 22  1  0
 22 23  2  0
 17 24  2  0
 24 25  1  0
 25 26  1  0
 26 27  1  0
 26 28  1  0
 26 29  1  0
 25 30  2  0
 30 31  1  0
 31 32  1  0
  9 33  1  0
 33 34  2  0
 34  6  1  0
 31 13  2  0
 30 15  1  0
 23 18  1  0
M  END
>  <Binding energies>  (30) 
[-7.82]

>  <Ligand effiencies>  (30) 
[-0.21135135135135136]

>  <Interactions>  (30) 
["V-B:HIS:456:CD2:9039, V-A:GLU:543:C:4902, V-A:HIS:456:CD2:4067, V-A:HIS:456:CE1:4069, V-A:TYR:484:CZ:4346, V-B:GLU:543:CG:9879, H-A:TYR:484:OH:4347, V-B:GLU:543:CD:9880, H-B:GLU:543:OE2:9882, V-B:ALA:541:CB:9864, V-A:GLU:543:CD:4908, V-B:PRO:540:CB:9857, V-B:PRO:540:CD:9859, V-B:PRO:540:N:9856, V-B:PRO:540:CA:9855, V-B:MET:535:CE:9807, V-B:TYR:539:CD2:9846, V-B:TYR:531:CE2:9765, V-B:TYR:539:C:9839, V-B:LEU:363:CD1:8160, V-A:LEU:475:CD1:4257, V-B:ALA:541:CA:9862, V-B:GLU:543:CB:9878, V-B:GLU:543:C:9874, V-A:GLU:543:CB:4906, V-B:HIS:456:CE1:9041, V-B:GLU:543:CA:9876, V-A:LEU:475:CD2:4258, V-A:LEU:475:CG:4256"]

$$$$
4cb_Grossjean_2025
     RDKit          3D

 33 36  0  0  0  0  0  0  0  0999 V2000
  124.9290  121.8690   54.9500 C   0  0  0  0  0  0  0  0  0  0  0  0
  125.5230  121.3750   56.1430 O   0  0  0  0  0  0  0  0  0  0  0  0
  126.6930  121.8860   56.6040 C   0  0  0  0  0  0  0  0  0  0  0  0
  127.7850  121.3290   56.4560 O   0  0  0  0  0  0  0  0  0  0  0  0
  126.5290  123.2010   57.3120 C   0  0  0  0  0  0  0  0  0  0  0  0
  127.6690  123.9340   57.6680 C   0  0  0  0  0  0  0  0  0  0  0  0
  127.5490  125.1580   58.3180 C   0  0  0  0  0  0  0  0  0  0  0  0
  126.2900  125.6730   58.6320 C   0  0  0  0  0  0  0  0  0  0  0  0
  126.2860  126.9250   59.2760 N   0  0  0  0  0  0  0  0  0  0  0  0
  126.3800  127.2290   60.5930 C   0  0  0  0  0  0  0  0  0  0  0  0
  126.5410  126.3960   61.4860 O   0  0  0  0  0  0  0  0  0  0  0  0
  126.2950  128.6570   60.9130 C   0  0  0  0  0  0  0  0  0  0  0  0
  126.1690  129.8490   59.6210 S   0  0  0  0  0  0  0  0  0  0  0  0
  126.0760  131.1580   60.7760 C   0  0  0  0  0  0  0  0  0  0  0  0
  125.9570  132.4240   60.3830 N   0  0  0  0  0  0  0  0  0  0  0  0
  125.8820  133.3710   61.3540 C   0  0  0  0  0  0  0  0  0  0  0  0
  125.7420  134.7890   60.8800 C   0  0  0  0  0  0  0  0  0  0  0  0
  124.5380  135.2430   60.3190 C   0  0  0  0  0  0  0  0  0  0  0  0
  124.4030  136.5560   59.8740 C   0  0  0  0  0  0  0  0  0  0  0  0
  125.4740  137.4360   59.9850 C   0  0  0  0  0  0  0  0  0  0  0  0
  126.6800  137.0120   60.5350 C   0  0  0  0  0  0  0  0  0  0  0  0
  126.8110  135.6980   60.9770 C   0  0  0  0  0  0  0  0  0  0  0  0
  125.9490  133.0440   62.7130 C   0  0  0  0  0  0  0  0  0  0  0  0
  126.0780  131.7130   63.1370 C   0  0  0  0  0  0  0  0  0  0  0  0
  126.1430  131.4240   64.6420 C   0  0  0  0  0  0  0  0  0  0  0  0
  127.1270  130.5830   64.9700 F   0  0  0  0  0  0  0  0  0  0  0  0
  126.3500  132.5590   65.3090 F   0  0  0  0  0  0  0  0  0  0  0  0
  124.9980  130.8770   65.0470 F   0  0  0  0  0  0  0  0  0  0  0  0
  126.1410  130.7090   62.1270 C   0  0  0  0  0  0  0  0  0  0  0  0
  126.2610  129.2720   62.1750 C   0  0  0  0  0  0  0  0  0  0  0  0
  126.3360  128.5740   63.3530 N   0  0  0  0  0  0  0  0  0  0  0  0
  125.1430  124.9470   58.2760 C   0  0  0  0  0  0  0  0  0  0  0  0
  125.2650  123.7230   57.6250 C   0  0  0  0  0  0  0  0  0  0  0  0
  1  2  1  0
  2  3  1  0
  3  4  2  0
  3  5  1  0
  5  6  2  0
  6  7  1  0
  7  8  2  0
  8  9  1  0
  9 10  1  0
 10 11  2  0
 10 12  1  0
 12 13  1  0
 13 14  1  0
 14 15  2  0
 15 16  1  0
 16 17  1  0
 17 18  2  0
 18 19  1  0
 19 20  2  0
 20 21  1  0
 21 22  2  0
 16 23  2  0
 23 24  1  0
 24 25  1  0
 25 26  1  0
 25 27  1  0
 25 28  1  0
 24 29  2  0
 29 30  1  0
 30 31  1  0
  8 32  1  0
 32 33  2  0
 33  5  1  0
 30 12  2  0
 29 14  1  0
 22 17  1  0
M  END
>  <Binding energies>  (31) 
[-7.75]

>  <Ligand effiencies>  (31) 
[-0.2152777777777778]

>  <Interactions>  (31) 
["H-B:GLU:543:OE2:9882, V-A:TYR:539:CD1:4873, V-B:ILE:369:CG2:8208, V-B:ASP:366:CG:8184, V-B:LEU:475:CD1:9229, H-B:TYR:531:OH:9767, V-B:ASP:366:CB:8183, V-B:PRO:540:CD:9859, V-B:PRO:540:N:9856, V-B:PRO:540:CA:9855, V-B:MET:535:CE:9807, V-B:TYR:539:CA:9841, H-B:ASP:366:OD1:8185, V-B:TYR:531:CE2:9765, V-B:TYR:539:C:9839, H-B:ARG:545:NH2:9900, V-B:TYR:531:CZ:9766, V-B:LEU:363:CD1:8160, V-B:TYR:484:CZ:9318, V-B:GLY:454:CA:9020, V-B:TYR:484:CE2:9317, V-B:ARG:545:CZ:9898, V-B:ILE:538:CG2:9835, H-B:TYR:539:N:9842, V-B:ILE:538:CA:9832, V-B:PRO:482:CB:9297, V-A:TYR:539:CB:4871, V-B:PRO:482:CG:9298, V-B:LEU:373:CD1:8251, V-B:SER:385:CB:8380, V-B:SER:385:CA:8378, V-B:LEU:475:CD2:9230, V-B:MET:535:CG:9805, V-B:ILE:538:CB:9834, V-B:ILE:538:CG1:9836, V-B:LEU:475:CG:9228"]

$$$$
4cc_Grossjean_2025
     RDKit          3D

 31 34  0  0  0  0  0  0  0  0999 V2000
  125.3290  121.3770   55.3720 C   0  0  0  0  0  0  0  0  0  0  0  0
  126.1930  121.3960   56.5030 O   0  0  0  0  0  0  0  0  0  0  0  0
  126.3710  122.5770   57.1960 C   0  0  0  0  0  0  0  0  0  0  0  0
  125.2620  123.4180   57.2870 C   0  0  0  0  0  0  0  0  0  0  0  0
  125.3450  124.6300   57.9680 C   0  0  0  0  0  0  0  0  0  0  0  0
  126.5470  125.0230   58.5600 C   0  0  0  0  0  0  0  0  0  0  0  0
  126.5310  126.2550   59.2390 N   0  0  0  0  0  0  0  0  0  0  0  0
  126.5190  126.4990   60.5720 C   0  0  0  0  0  0  0  0  0  0  0  0
  126.5610  125.6190   61.4330 O   0  0  0  0  0  0  0  0  0  0  0  0
  126.4530  127.9130   60.9530 C   0  0  0  0  0  0  0  0  0  0  0  0
  126.2820  129.1590   59.7170 S   0  0  0  0  0  0  0  0  0  0  0  0
  126.2760  130.4200   60.9260 C   0  0  0  0  0  0  0  0  0  0  0  0
  126.1630  131.7030   60.5910 N   0  0  0  0  0  0  0  0  0  0  0  0
  126.1580  132.6120   61.6000 C   0  0  0  0  0  0  0  0  0  0  0  0
  126.0320  134.0510   61.1920 C   0  0  0  0  0  0  0  0  0  0  0  0
  124.8530  134.5270   60.5960 C   0  0  0  0  0  0  0  0  0  0  0  0
  124.7290  135.8600   60.2120 C   0  0  0  0  0  0  0  0  0  0  0  0
  125.7870  136.7380   60.4190 C   0  0  0  0  0  0  0  0  0  0  0  0
  126.9680  136.2920   61.0040 C   0  0  0  0  0  0  0  0  0  0  0  0
  127.0880  134.9580   61.3850 C   0  0  0  0  0  0  0  0  0  0  0  0
  126.2840  132.2290   62.9390 C   0  0  0  0  0  0  0  0  0  0  0  0
  126.4060  130.8780   63.3040 C   0  0  0  0  0  0  0  0  0  0  0  0
  126.5340  130.5300   64.7910 C   0  0  0  0  0  0  0  0  0  0  0  0
  127.5810  129.7450   65.0580 F   0  0  0  0  0  0  0  0  0  0  0  0
  126.6810  131.6450   65.5050 F   0  0  0  0  0  0  0  0  0  0  0  0
  125.4400  129.8870   65.2000 F   0  0  0  0  0  0  0  0  0  0  0  0
  126.4030  129.9160   62.2540 C   0  0  0  0  0  0  0  0  0  0  0  0
  126.5060  128.4780   62.2370 C   0  0  0  0  0  0  0  0  0  0  0  0
  126.6420  127.7310   63.3800 N   0  0  0  0  0  0  0  0  0  0  0  0
  127.6640  124.1770   58.4830 C   0  0  0  0  0  0  0  0  0  0  0  0
  127.5750  122.9660   57.8020 C   0  0  0  0  0  0  0  0  0  0  0  0
  1  2  1  0
  2  3  1  0
  3  4  2  0
  4  5  1  0
  5  6  2  0
  6  7  1  0
  7  8  1  0
  8  9  2  0
  8 10  1  0
 10 11  1  0
 11 12  1  0
 12 13  2  0
 13 14  1  0
 14 15  1  0
 15 16  2  0
 16 17  1  0
 17 18  2  0
 18 19  1  0
 19 20  2  0
 14 21  2  0
 21 22  1  0
 22 23  1  0
 23 24  1  0
 23 25  1  0
 23 26  1  0
 22 27  2  0
 27 28  1  0
 28 29  1  0
  6 30  1  0
 30 31  2  0
 31  3  1  0
 28 10  2  0
 27 12  1  0
 20 15  1  0
M  END
>  <Binding energies>  (32) 
[-7.44]

>  <Ligand effiencies>  (32) 
[-0.21882352941176472]

>  <Interactions>  (32) 
["V-B:GLU:543:CD:9880, H-B:GLU:543:OE1:9881, H-B:GLU:543:OE2:9882, V-A:TYR:539:CD1:4873, V-B:ILE:369:CG2:8208, V-B:ASP:366:CG:8184, V-B:LEU:475:CD1:9229, V-A:ALA:541:CB:4892, H-B:TYR:531:OH:9767, V-A:GLU:543:CD:4908, V-A:GLU:543:CG:4907, V-B:PRO:540:CB:9857, V-B:PRO:540:CD:9859, V-B:PRO:540:N:9856, V-B:PRO:540:CA:9855, V-B:MET:535:CE:9807, V-B:TYR:531:CE2:9765, V-B:TYR:539:C:9839, H-B:ARG:545:NH2:9900, V-B:TYR:531:CZ:9766, V-B:LEU:363:CD1:8160, V-B:TYR:484:CZ:9318, V-B:TYR:484:CE2:9317, V-B:ARG:545:CZ:9898, V-B:ILE:538:CG2:9835, H-B:TYR:539:N:9842, V-B:ILE:538:CA:9832, V-B:PRO:482:CB:9297, V-A:TYR:539:CB:4871, V-B:PRO:482:CG:9298, V-B:LEU:373:CD1:8251, V-B:SER:385:CB:8380, V-B:ILE:538:CB:9834, V-B:ILE:538:CG1:9836, V-B:ILE:538:C:9830"]

$$$$
4ce_Grossjean_2025
     RDKit          3D

 30 33  0  0  0  0  0  0  0  0999 V2000
  129.3780  128.3370   71.1540 C   0  0  0  0  0  0  0  0  0  0  0  0
  129.0510  127.7300   69.8030 C   0  0  0  0  0  0  0  0  0  0  0  0
  129.0170  126.3460   69.6120 C   0  0  0  0  0  0  0  0  0  0  0  0
  128.7010  125.8580   68.3430 C   0  0  0  0  0  0  0  0  0  0  0  0
  128.4280  126.7540   67.3080 C   0  0  0  0  0  0  0  0  0  0  0  0
  128.4850  128.1290   67.5670 C   0  0  0  0  0  0  0  0  0  0  0  0
  128.1770  128.9800   66.4900 N   0  0  0  0  0  0  0  0  0  0  0  0
  127.0010  129.1210   65.8290 C   0  0  0  0  0  0  0  0  0  0  0  0
  125.9780  128.4950   66.1120 O   0  0  0  0  0  0  0  0  0  0  0  0
  127.0090  130.0870   64.7290 C   0  0  0  0  0  0  0  0  0  0  0  0
  125.9550  131.4990   64.7800 S   0  0  0  0  0  0  0  0  0  0  0  0
  126.5790  132.0760   63.2540 C   0  0  0  0  0  0  0  0  0  0  0  0
  126.1410  133.2080   62.7090 N   0  0  0  0  0  0  0  0  0  0  0  0
  126.6970  133.5840   61.5270 C   0  0  0  0  0  0  0  0  0  0  0  0
  126.1860  134.8670   60.9420 C   0  0  0  0  0  0  0  0  0  0  0  0
  124.8760  134.9550   60.4430 C   0  0  0  0  0  0  0  0  0  0  0  0
  124.3970  136.1410   59.8920 C   0  0  0  0  0  0  0  0  0  0  0  0
  125.2230  137.2580   59.8340 C   0  0  0  0  0  0  0  0  0  0  0  0
  126.5240  137.1980   60.3200 C   0  0  0  0  0  0  0  0  0  0  0  0
  127.0010  136.0090   60.8680 C   0  0  0  0  0  0  0  0  0  0  0  0
  127.6730  132.8110   60.8890 C   0  0  0  0  0  0  0  0  0  0  0  0
  128.1380  131.6120   61.4530 C   0  0  0  0  0  0  0  0  0  0  0  0
  129.2100  130.8160   60.7020 C   0  0  0  0  0  0  0  0  0  0  0  0
  128.8350  129.5670   60.4210 F   0  0  0  0  0  0  0  0  0  0  0  0
  129.4920  131.4180   59.5460 F   0  0  0  0  0  0  0  0  0  0  0  0
  130.3180  130.7430   61.4400 F   0  0  0  0  0  0  0  0  0  0  0  0
  127.5740  131.2170   62.7000 C   0  0  0  0  0  0  0  0  0  0  0  0
  127.7980  130.0850   63.5660 C   0  0  0  0  0  0  0  0  0  0  0  0
  128.7030  129.0970   63.2760 N   0  0  0  0  0  0  0  0  0  0  0  0
  128.7890  128.6140   68.8060 N   0  0  0  0  0  0  0  0  0  0  0  0
  1  2  1  0
  2  3  2  0
  3  4  1  0
  4  5  2  0
  5  6  1  0
  6  7  1  0
  7  8  1  0
  8  9  2  0
  8 10  1  0
 10 11  1  0
 11 12  1  0
 12 13  2  0
 13 14  1  0
 14 15  1  0
 15 16  2  0
 16 17  1  0
 17 18  2  0
 18 19  1  0
 19 20  2  0
 14 21  2  0
 21 22  1  0
 22 23  1  0
 23 24  1  0
 23 25  1  0
 23 26  1  0
 22 27  2  0
 27 28  1  0
 28 29  1  0
  6 30  2  0
 30  2  1  0
 28 10  2  0
 27 12  1  0
 20 15  1  0
M  END
>  <Binding energies>  (33) 
[-7.75]

>  <Ligand effiencies>  (33) 
[-0.23484848484848486]

>  <Interactions>  (33) 
["V-B:HIS:456:CD2:9039, V-A:HIS:456:CE1:4069, V-B:GLU:543:CG:9879, V-B:GLU:543:CD:9880, V-A:TYR:539:CD1:4873, H-A:GLU:543:OE2:4910, V-A:PRO:540:CA:4883, V-B:ILE:369:CG2:8208, V-B:LEU:475:CD1:9229, V-A:ALA:541:CB:4892, V-A:TYR:539:C:4867, V-A:GLU:543:CD:4908, H-A:GLU:543:OE1:4909, V-A:GLU:543:CG:4907, V-B:GLU:543:CB:9878, V-B:GLU:543:C:9874, V-A:GLU:543:CB:4906, V-B:HIS:456:CE1:9041, V-B:TYR:484:CZ:9318, V-B:GLY:454:CA:9020, V-B:PRO:482:CB:9297, V-A:TYR:539:CB:4871, V-B:PRO:482:CG:9298, V-B:LEU:373:CD1:8251, V-B:SER:385:CB:8380, H-B:TYR:484:OH:9319, H-B:ARG:545:NE:9896, V-B:GLU:543:CA:9876"]

$$$$
4cf_Grossjean_2025
     RDKit          3D

 29 32  0  0  0  0  0  0  0  0999 V2000
  128.7660  129.1090   63.2050 N   0  0  0  0  0  0  0  0  0  0  0  0
  127.8670  130.0970   63.5130 C   0  0  0  0  0  0  0  0  0  0  0  0
  127.0890  130.0930   64.6830 C   0  0  0  0  0  0  0  0  0  0  0  0
  127.0410  129.0830   65.7440 C   0  0  0  0  0  0  0  0  0  0  0  0
  126.0140  128.4330   65.9440 O   0  0  0  0  0  0  0  0  0  0  0  0
  128.1870  128.9270   66.4500 N   0  0  0  0  0  0  0  0  0  0  0  0
  128.4570  128.0920   67.5510 C   0  0  0  0  0  0  0  0  0  0  0  0
  128.2220  126.7050   67.6000 C   0  0  0  0  0  0  0  0  0  0  0  0
  128.5230  125.9950   68.7640 C   0  0  0  0  0  0  0  0  0  0  0  0
  129.0510  126.6890   69.8530 C   0  0  0  0  0  0  0  0  0  0  0  0
  129.2800  128.0260   69.8340 N   0  0  0  0  0  0  0  0  0  0  0  0
  128.9810  128.7030   68.6950 C   0  0  0  0  0  0  0  0  0  0  0  0
  126.0490  131.5130   64.7600 S   0  0  0  0  0  0  0  0  0  0  0  0
  126.6540  132.0950   63.2270 C   0  0  0  0  0  0  0  0  0  0  0  0
  126.2080  133.2290   62.6890 N   0  0  0  0  0  0  0  0  0  0  0  0
  126.7270  133.5900   61.4860 C   0  0  0  0  0  0  0  0  0  0  0  0
  126.2000  134.8680   60.9000 C   0  0  0  0  0  0  0  0  0  0  0  0
  124.8830  134.9480   60.4200 C   0  0  0  0  0  0  0  0  0  0  0  0
  124.3860  136.1300   59.8760 C   0  0  0  0  0  0  0  0  0  0  0  0
  125.2030  137.2530   59.8070 C   0  0  0  0  0  0  0  0  0  0  0  0
  126.5110  137.2040   60.2780 C   0  0  0  0  0  0  0  0  0  0  0  0
  127.0030  136.0200   60.8210 C   0  0  0  0  0  0  0  0  0  0  0  0
  127.7060  132.8280   60.8430 C   0  0  0  0  0  0  0  0  0  0  0  0
  128.1860  131.6340   61.4040 C   0  0  0  0  0  0  0  0  0  0  0  0
  129.2570  130.8440   60.6420 C   0  0  0  0  0  0  0  0  0  0  0  0
  128.8950  129.5850   60.3840 F   0  0  0  0  0  0  0  0  0  0  0  0
  129.5070  131.4340   59.4740 F   0  0  0  0  0  0  0  0  0  0  0  0
  130.3790  130.7950   61.3610 F   0  0  0  0  0  0  0  0  0  0  0  0
  127.6360  131.2340   62.6560 C   0  0  0  0  0  0  0  0  0  0  0  0
  1  2  1  0
  2  3  2  0
  3  4  1  0
  4  5  2  0
  4  6  1  0
  6  7  1  0
  7  8  2  0
  8  9  1  0
  9 10  2  0
 10 11  1  0
 11 12  2  0
  3 13  1  0
 13 14  1  0
 14 15  2  0
 15 16  1  0
 16 17  1  0
 17 18  2  0
 18 19  1  0
 19 20  2  0
 20 21  1  0
 21 22  2  0
 16 23  2  0
 23 24  1  0
 24 25  1  0
 25 26  1  0
 25 27  1  0
 25 28  1  0
 24 29  2  0
 29  2  1  0
 12  7  1  0
 29 14  1  0
 22 17  1  0
M  END
>  <Binding energies>  (34) 
[-7.39]

>  <Ligand effiencies>  (34) 
[-0.2309375]

>  <Interactions>  (34) 
["V-A:GLU:543:C:4902, V-A:HIS:456:CE1:4069, V-B:GLU:543:CD:9880, V-A:TYR:539:CD1:4873, H-A:GLU:543:OE2:4910, V-A:PRO:540:CA:4883, V-B:ILE:369:CG2:8208, V-B:LEU:475:CD1:9229, V-A:ALA:541:CB:4892, V-A:TYR:539:C:4867, V-A:GLU:543:CD:4908, H-A:GLU:543:OE1:4909, V-A:GLU:543:CG:4907, H-B:ARG:545:NH2:9900, V-B:GLU:543:CB:9878, V-B:GLU:543:C:9874, V-A:GLU:543:CB:4906, V-B:HIS:456:CE1:9041, V-B:TYR:484:CZ:9318, V-B:PRO:482:CB:9297, V-A:TYR:539:CB:4871, V-B:PRO:482:CG:9298, V-B:LEU:373:CD1:8251, V-B:SER:385:CB:8380, H-B:ARG:545:NE:9896, V-B:GLU:543:CA:9876"]

$$$$
4ci_Grossjean_2025
     RDKit          3D

 28 31  0  0  0  0  0  0  0  0999 V2000
  129.2450  121.6660   60.3320 N   0  0  0  0  0  0  0  0  0  0  0  0
  128.7940  122.7670   61.0130 C   0  0  0  0  0  0  0  0  0  0  0  0
  127.6350  123.4730   60.6540 C   0  0  0  0  0  0  0  0  0  0  0  0
  126.7050  123.2020   59.5540 C   0  0  0  0  0  0  0  0  0  0  0  0
  125.4910  123.3600   59.7030 O   0  0  0  0  0  0  0  0  0  0  0  0
  127.2740  122.7650   58.4020 N   0  0  0  0  0  0  0  0  0  0  0  0
  126.6340  122.4330   57.2150 C   0  0  0  0  0  0  0  0  0  0  0  0
  125.6080  123.1970   56.6620 C   0  0  0  0  0  0  0  0  0  0  0  0
  125.2500  122.5380   55.5090 C   0  0  0  0  0  0  0  0  0  0  0  0
  126.0230  121.4330   55.3740 O   0  0  0  0  0  0  0  0  0  0  0  0
  126.8950  121.3770   56.4620 N   0  0  0  0  0  0  0  0  0  0  0  0
  127.3460  124.8230   61.7480 S   0  0  0  0  0  0  0  0  0  0  0  0
  128.7800  124.4400   62.6720 C   0  0  0  0  0  0  0  0  0  0  0  0
  129.1400  125.1640   63.7290 N   0  0  0  0  0  0  0  0  0  0  0  0
  130.2680  124.7880   64.3860 C   0  0  0  0  0  0  0  0  0  0  0  0
  130.6520  125.6270   65.5710 C   0  0  0  0  0  0  0  0  0  0  0  0
  131.9990  125.9190   65.8410 C   0  0  0  0  0  0  0  0  0  0  0  0
  132.3610  126.6980   66.9370 C   0  0  0  0  0  0  0  0  0  0  0  0
  131.3760  127.1960   67.7840 C   0  0  0  0  0  0  0  0  0  0  0  0
  130.0350  126.9190   67.5440 C   0  0  0  0  0  0  0  0  0  0  0  0
  129.6780  126.1390   66.4470 C   0  0  0  0  0  0  0  0  0  0  0  0
  131.0370  123.6970   63.9670 C   0  0  0  0  0  0  0  0  0  0  0  0
  130.6650  122.9260   62.8530 C   0  0  0  0  0  0  0  0  0  0  0  0
  131.5550  121.7440   62.4500 C   0  0  0  0  0  0  0  0  0  0  0  0
  131.9220  121.7780   61.1680 F   0  0  0  0  0  0  0  0  0  0  0  0
  132.6670  121.7480   63.1840 F   0  0  0  0  0  0  0  0  0  0  0  0
  130.9010  120.5990   62.6490 F   0  0  0  0  0  0  0  0  0  0  0  0
  129.4780  123.3050   62.1650 C   0  0  0  0  0  0  0  0  0  0  0  0
  1  2  1  0
  2  3  2  0
  3  4  1  0
  4  5  2  0
  4  6  1  0
  6  7  1  0
  7  8  1  0
  8  9  2  0
  9 10  1  0
 10 11  1  0
  3 12  1  0
 12 13  1  0
 13 14  2  0
 14 15  1  0
 15 16  1  0
 16 17  2  0
 17 18  1  0
 18 19  2  0
 19 20  1  0
 20 21  2  0
 15 22  2  0
 22 23  1  0
 23 24  1  0
 24 25  1  0
 24 26  1  0
 24 27  1  0
 23 28  2  0
 28  2  1  0
 11  7  2  0
 28 13  1  0
 21 16  1  0
M  END
>  <Binding energies>  (35) 
[-7.6]

>  <Ligand effiencies>  (35) 
[-0.24516129032258063]

>  <Interactions>  (35) 
["V-A:HIS:456:CE1:4069, V-B:GLU:543:CD:9880, V-B:ALA:541:CB:9864, V-A:ARG:545:CD:4923, V-A:ARG:545:CG:4922, V-A:GLU:543:CD:4908, V-B:PRO:540:CB:9857, V-B:PRO:540:CD:9859, V-B:PRO:540:N:9856, V-B:PRO:540:CA:9855, V-B:MET:535:CE:9807, V-B:TYR:531:CE2:9765, V-B:TYR:539:C:9839, V-B:LEU:363:CD1:8160, V-A:GLY:454:CA:4048, V-A:LEU:475:CD1:4257, V-A:GLU:543:CB:4906, H-B:TYR:539:O:9840, H-B:TYR:539:N:9842, V-B:MET:535:CG:9805"]

$$$$
8a_Ghoteimi_2023
     RDKit          3D

 40 44  0  0  0  0  0  0  0  0999 V2000
  130.5100  116.7250   59.5410 C   0  0  0  0  0  0  0  0  0  0  0  0
  130.6530  117.9320   60.4720 C   0  0  0  0  0  0  0  0  0  0  0  0
  132.0280  118.1410   60.7670 O   0  0  0  0  0  0  0  0  0  0  0  0
  132.6350  119.3230   60.4820 C   0  0  0  0  0  0  0  0  0  0  0  0
  133.4140  119.4770   59.5360 O   0  0  0  0  0  0  0  0  0  0  0  0
  132.2690  120.4240   61.4360 C   0  0  0  0  0  0  0  0  0  0  0  0
  130.9510  120.5160   61.8990 C   0  0  0  0  0  0  0  0  0  0  0  0
  130.5800  121.5250   62.7830 C   0  0  0  0  0  0  0  0  0  0  0  0
  131.5160  122.4630   63.2210 C   0  0  0  0  0  0  0  0  0  0  0  0
  131.0260  123.4410   64.1100 N   0  0  0  0  0  0  0  0  0  0  0  0
  130.5580  124.6900   63.8680 C   0  0  0  0  0  0  0  0  0  0  0  0
  130.4880  125.2000   62.7500 O   0  0  0  0  0  0  0  0  0  0  0  0
  130.1160  125.4320   65.0530 C   0  0  0  0  0  0  0  0  0  0  0  0
  130.8620  125.1310   66.6220 S   0  0  0  0  0  0  0  0  0  0  0  0
  129.8280  126.3120   67.3920 C   0  0  0  0  0  0  0  0  0  0  0  0
  129.8960  126.5540   68.7010 N   0  0  0  0  0  0  0  0  0  0  0  0
  129.0430  127.4870   69.2000 C   0  0  0  0  0  0  0  0  0  0  0  0
  129.1210  127.7280   70.6740 C   0  0  0  0  0  0  0  0  0  0  0  0
  129.0230  129.0230   71.2020 C   0  0  0  0  0  0  0  0  0  0  0  0
  129.1090  129.2410   72.5740 C   0  0  0  0  0  0  0  0  0  0  0  0
  129.2920  128.1740   73.4520 C   0  0  0  0  0  0  0  0  0  0  0  0
  129.3680  128.4860   74.7960 O   0  0  0  0  0  0  0  0  0  0  0  0
  129.3930  127.4310   75.7520 C   0  0  0  0  0  0  0  0  0  0  0  0
  129.3850  126.8750   72.9340 C   0  0  0  0  0  0  0  0  0  0  0  0
  129.3020  126.6590   71.5610 C   0  0  0  0  0  0  0  0  0  0  0  0
  128.1360  128.1780   68.3930 C   0  0  0  0  0  0  0  0  0  0  0  0
  128.0740  127.9390   67.0160 C   0  0  0  0  0  0  0  0  0  0  0  0
  127.1130  128.7240   66.1990 C   0  0  0  0  0  0  0  0  0  0  0  0
  125.7380  128.5460   66.3660 C   0  0  0  0  0  0  0  0  0  0  0  0
  124.8350  129.2950   65.6170 C   0  0  0  0  0  0  0  0  0  0  0  0
  125.2890  130.2360   64.6930 C   0  0  0  0  0  0  0  0  0  0  0  0
  124.3200  130.9320   63.9950 O   0  0  0  0  0  0  0  0  0  0  0  0
  124.0080  130.5410   62.6640 C   0  0  0  0  0  0  0  0  0  0  0  0
  126.6700  130.4220   64.5290 C   0  0  0  0  0  0  0  0  0  0  0  0
  127.5720  129.6730   65.2810 C   0  0  0  0  0  0  0  0  0  0  0  0
  128.9420  126.9490   66.4750 C   0  0  0  0  0  0  0  0  0  0  0  0
  129.1160  126.4130   65.1470 C   0  0  0  0  0  0  0  0  0  0  0  0
  128.3530  126.8210   64.0820 N   0  0  0  0  0  0  0  0  0  0  0  0
  132.8400  122.3750   62.7660 C   0  0  0  0  0  0  0  0  0  0  0  0
  133.2100  121.3650   61.8820 C   0  0  0  0  0  0  0  0  0  0  0  0
  1  2  1  0
  2  3  1  0
  3  4  1  0
  4  5  2  0
  4  6  1  0
  6  7  2  0
  7  8  1  0
  8  9  2  0
  9 10  1  0
 10 11  1  0
 11 12  2  0
 11 13  1  0
 13 14  1  0
 14 15  1  0
 15 16  2  0
 16 17  1  0
 17 18  1  0
 18 19  2  0
 19 20  1  0
 20 21  2  0
 21 22  1  0
 22 23  1  0
 21 24  1  0
 24 25  2  0
 17 26  2  0
 26 27  1  0
 27 28  1  0
 28 29  2  0
 29 30  1  0
 30 31  2  0
 31 32  1  0
 32 33  1  0
 31 34  1  0
 34 35  2  0
 27 36  2  0
 36 37  1  0
 37 38  1  0
  9 39  1  0
 39 40  2  0
 40  6  1  0
 37 13  2  0
 36 15  1  0
 25 18  1  0
 35 28  1  0
M  END
>  <Binding energies>  (36) 
[-8.62]

>  <Ligand effiencies>  (36) 
[-0.20046511627906974]

>  <Interactions>  (36) 
["H-A:LYS:547:NZ:4951, V-B:HIS:456:CD2:9039, V-A:GLU:543:C:4902, V-A:HIS:456:CE1:4069, V-A:TYR:484:CZ:4346, V-B:GLU:543:CG:9879, H-A:TYR:484:OH:4347, V-B:GLU:543:CD:9880, H-B:GLU:543:OE1:9881, H-B:GLU:543:OE2:9882, V-B:ALA:541:CB:9864, V-B:ASP:366:CG:8184, V-B:ILE:369:CD1:8210, V-A:GLU:543:CD:4908, H-A:GLU:543:OE1:4909, V-A:GLU:543:CG:4907, V-A:PRO:482:CG:4326, V-B:TYR:539:CD2:9846, V-B:TYR:539:C:9839, V-A:GLY:454:CA:4048, V-A:LEU:475:CD1:4257, V-A:TYR:484:CE2:4345, V-B:HIS:456:CE1:9041, V-B:ARG:545:CZ:9898, V-B:ARG:545:CG:9894, V-B:ARG:545:CD:9895, V-B:TYR:539:CB:9843, H-A:SER:385:OG:3409, H-A:HIS:383:NE2:3393, V-A:HIS:383:CE1:3392, H-B:GLY:454:N:9021, V-B:VAL:344:CG1:7972"]

$$$$
8c_Ghoteimi_2023
     RDKit          3D

 34 38  0  0  0  0  0  0  0  0999 V2000
  124.8870  138.9780   59.5000 C   0  0  0  0  0  0  0  0  0  0  0  0
  125.6300  138.3220   60.5210 O   0  0  0  0  0  0  0  0  0  0  0  0
  125.6660  136.9400   60.5460 C   0  0  0  0  0  0  0  0  0  0  0  0
  126.6880  136.3570   61.2920 C   0  0  0  0  0  0  0  0  0  0  0  0
  126.8040  134.9730   61.3720 C   0  0  0  0  0  0  0  0  0  0  0  0
  125.8990  134.1340   60.7060 C   0  0  0  0  0  0  0  0  0  0  0  0
  126.0210  132.6450   60.7850 C   0  0  0  0  0  0  0  0  0  0  0  0
  125.9720  131.9650   62.0050 C   0  0  0  0  0  0  0  0  0  0  0  0
  126.0850  130.5710   62.0510 C   0  0  0  0  0  0  0  0  0  0  0  0
  126.0380  129.8820   63.3600 C   0  0  0  0  0  0  0  0  0  0  0  0
  127.1610  129.2020   63.8390 C   0  0  0  0  0  0  0  0  0  0  0  0
  127.1170  128.5630   65.0740 C   0  0  0  0  0  0  0  0  0  0  0  0
  125.9550  128.5900   65.8470 C   0  0  0  0  0  0  0  0  0  0  0  0
  126.0050  127.9310   67.0600 O   0  0  0  0  0  0  0  0  0  0  0  0
  127.2220  127.3150   67.4670 C   0  0  0  0  0  0  0  0  0  0  0  0
  124.8270  129.2700   65.3620 C   0  0  0  0  0  0  0  0  0  0  0  0
  124.8710  129.9100   64.1270 C   0  0  0  0  0  0  0  0  0  0  0  0
  126.2460  129.8740   60.8240 C   0  0  0  0  0  0  0  0  0  0  0  0
  126.3870  128.4770   60.5070 C   0  0  0  0  0  0  0  0  0  0  0  0
  126.3850  127.5000   61.4710 N   0  0  0  0  0  0  0  0  0  0  0  0
  126.5240  128.2160   59.1340 C   0  0  0  0  0  0  0  0  0  0  0  0
  126.6820  126.9240   58.4630 C   0  0  0  0  0  0  0  0  0  0  0  0
  127.7240  126.6480   57.8650 O   0  0  0  0  0  0  0  0  0  0  0  0
  125.6170  126.0890   58.5510 N   0  0  0  0  0  0  0  0  0  0  0  0
  125.5090  124.8150   58.0110 C   0  0  0  0  0  0  0  0  0  0  0  0
  126.0890  124.3450   56.9280 N   0  0  0  0  0  0  0  0  0  0  0  0
  125.7630  123.0870   56.7110 C   0  0  0  0  0  0  0  0  0  0  0  0
  124.8970  122.5070   57.6320 C   0  0  0  0  0  0  0  0  0  0  0  0
  124.4910  123.6850   58.8450 S   0  0  0  0  0  0  0  0  0  0  0  0
  126.4770  129.7080   58.1940 S   0  0  0  0  0  0  0  0  0  0  0  0
  126.2770  130.6690   59.6420 C   0  0  0  0  0  0  0  0  0  0  0  0
  126.1710  131.9970   59.5980 N   0  0  0  0  0  0  0  0  0  0  0  0
  124.8720  134.7280   59.9600 C   0  0  0  0  0  0  0  0  0  0  0  0
  124.7540  136.1120   59.8770 C   0  0  0  0  0  0  0  0  0  0  0  0
  1  2  1  0
  2  3  1  0
  3  4  2  0
  4  5  1  0
  5  6  2  0
  6  7  1  0
  7  8  2  0
  8  9  1  0
  9 10  1  0
 10 11  2  0
 11 12  1  0
 12 13  2  0
 13 14  1  0
 14 15  1  0
 13 16  1  0
 16 17  2  0
  9 18  2  0
 18 19  1  0
 19 20  1  0
 19 21  2  0
 21 22  1  0
 22 23  2  0
 22 24  1  0
 24 25  1  0
 25 26  2  0
 26 27  1  0
 27 28  2  0
 28 29  1  0
 21 30  1  0
 30 31  1  0
 31 32  2  0
  6 33  1  0
 33 34  2  0
 34  3  1  0
 32  7  1  0
 17 10  1  0
 31 18  1  0
 29 25  1  0
M  END
>  <Binding energies>  (37) 
[-8.62]

>  <Ligand effiencies>  (37) 
[-0.23297297297297295]

>  <Interactions>  (37) 
["V-B:GLU:543:CD:9880, V-A:TYR:539:CD1:4873, V-A:TYR:539:CE1:4875, V-B:ILE:369:CG2:8208, V-B:ASP:366:CG:8184, V-B:LEU:475:CD1:9229, V-A:ALA:541:CB:4892, H-B:TYR:531:OH:9767, V-B:ASP:366:CB:8183, V-B:PRO:540:CB:9857, V-B:PRO:540:CD:9859, V-B:PRO:540:N:9856, V-B:PRO:540:CA:9855, V-B:MET:535:CE:9807, H-B:ASP:366:OD1:8185, V-B:TYR:531:CE2:9765, V-B:TYR:531:CZ:9766, V-B:LEU:363:CD1:8160, V-B:GLU:543:CB:9878, V-B:HIS:456:CE1:9041, V-B:LEU:363:CA:8156, V-B:ARG:545:CZ:9898, V-B:LEU:363:CB:8158, H-B:ASP:366:OD2:8186, V-B:PRO:482:CB:9297, V-B:PRO:482:CG:9298, V-B:LEU:373:CD1:8251, H-B:SER:385:OG:8381, V-B:SER:385:CB:8380, V-B:LEU:373:CD2:8252, H-B:ARG:545:NE:9896, V-B:PRO:540:CG:9858"]

$$$$
8d_Ghoteimi_2023
     RDKit          3D

 30 33  0  0  0  0  0  0  0  0999 V2000
  132.2430  131.5070   61.2930 C   0  0  0  0  0  0  0  0  0  0  0  0
  130.8270  131.4740   61.4040 O   0  0  0  0  0  0  0  0  0  0  0  0
  130.0480  131.2440   60.3150 C   0  0  0  0  0  0  0  0  0  0  0  0
  129.6060  132.1320   59.5830 O   0  0  0  0  0  0  0  0  0  0  0  0
  129.7810  129.8060   60.0920 C   0  0  0  0  0  0  0  0  0  0  0  0
  128.6100  129.3080   58.8690 S   0  0  0  0  0  0  0  0  0  0  0  0
  128.8850  127.6210   59.2360 C   0  0  0  0  0  0  0  0  0  0  0  0
  128.2400  126.6470   58.5940 N   0  0  0  0  0  0  0  0  0  0  0  0
  128.5300  125.3690   58.9570 C   0  0  0  0  0  0  0  0  0  0  0  0
  127.7900  124.2950   58.2240 C   0  0  0  0  0  0  0  0  0  0  0  0
  126.4230  124.4240   57.9370 C   0  0  0  0  0  0  0  0  0  0  0  0
  125.7380  123.4220   57.2560 C   0  0  0  0  0  0  0  0  0  0  0  0
  126.4000  122.2660   56.8440 C   0  0  0  0  0  0  0  0  0  0  0  0
  125.6420  121.3260   56.1740 O   0  0  0  0  0  0  0  0  0  0  0  0
  124.9010  121.7220   55.0240 C   0  0  0  0  0  0  0  0  0  0  0  0
  127.7670  122.1270   57.1230 C   0  0  0  0  0  0  0  0  0  0  0  0
  128.4480  123.1320   57.8050 C   0  0  0  0  0  0  0  0  0  0  0  0
  129.4550  125.0700   59.9620 C   0  0  0  0  0  0  0  0  0  0  0  0
  130.1340  126.0910   60.6330 C   0  0  0  0  0  0  0  0  0  0  0  0
  131.1140  125.7420   61.6870 C   0  0  0  0  0  0  0  0  0  0  0  0
  130.8510  126.0540   63.0230 C   0  0  0  0  0  0  0  0  0  0  0  0
  131.7760  125.7340   64.0120 C   0  0  0  0  0  0  0  0  0  0  0  0
  132.9720  125.0950   63.6840 C   0  0  0  0  0  0  0  0  0  0  0  0
  133.8300  124.8180   64.7310 O   0  0  0  0  0  0  0  0  0  0  0  0
  133.6370  125.4720   65.9790 C   0  0  0  0  0  0  0  0  0  0  0  0
  133.2330  124.7790   62.3410 C   0  0  0  0  0  0  0  0  0  0  0  0
  132.3070  125.1000   61.3520 C   0  0  0  0  0  0  0  0  0  0  0  0
  129.8480  127.4340   60.2680 C   0  0  0  0  0  0  0  0  0  0  0  0
  130.3420  128.6990   60.7380 C   0  0  0  0  0  0  0  0  0  0  0  0
  131.2780  128.8020   61.7360 N   0  0  0  0  0  0  0  0  0  0  0  0
  1  2  1  0
  2  3  1  0
  3  4  2  0
  3  5  1  0
  5  6  1  0
  6  7  1  0
  7  8  2  0
  8  9  1  0
  9 10  1  0
 10 11  2  0
 11 12  1  0
 12 13  2  0
 13 14  1  0
 14 15  1  0
 13 16  1  0
 16 17  2  0
  9 18  2  0
 18 19  1  0
 19 20  1  0
 20 21  2  0
 21 22  1  0
 22 23  2  0
 23 24  1  0
 24 25  1  0
 23 26  1  0
 26 27  2  0
 19 28  2  0
 28 29  1  0
 29 30  1  0
 29  5  2  0
 28  7  1  0
 17 10  1  0
 27 20  1  0
M  END
>  <Binding energies>  (38) 
[-7.77]

>  <Ligand effiencies>  (38) 
[-0.2428125]

>  <Interactions>  (38) 
["H-A:GLY:454:N:4049, H-A:ARG:545:NH2:4928, V-A:ARG:545:CZ:4926, V-A:ASP:366:CG:3212, H-A:TYR:484:OH:4347, V-A:ARG:545:CD:4923, V-A:ARG:545:CG:4922, H-A:GLU:543:OE2:4910, V-A:PRO:540:CB:4885, H-A:ASP:366:OD2:3214, V-A:PRO:540:CA:4883, H-A:ALA:541:N:4891, V-A:GLU:543:CD:4908, H-A:GLU:543:OE1:4909, V-B:PRO:540:CB:9857, V-B:TYR:539:CE2:9848, V-B:PRO:540:CD:9859, V-B:PRO:540:N:9856, V-B:PRO:540:CA:9855, V-B:MET:535:CE:9807, V-B:TYR:539:CA:9841, V-B:TYR:539:CD2:9846, V-B:TYR:531:CE2:9765, V-B:TYR:539:C:9839, V-B:LEU:363:CD1:8160, V-B:TYR:539:CG:9844, V-B:TYR:539:CZ:9849, V-A:PRO:540:C:4881, H-A:ASP:366:OD1:3213, V-B:TYR:539:CE1:9847, V-B:TYR:539:CD1:9845, V-B:ILE:538:CG2:9835, H-B:TYR:539:N:9842, V-B:ILE:538:CA:9832, V-B:MET:535:CG:9805, V-B:ILE:538:CB:9834, V-B:ILE:538:CG1:9836"]

$$$$
9a_Ghoteimi_2023
     RDKit          3D

 48 54  0  0  0  0  0  0  0  0999 V2000
  125.4190  139.3050   60.6960 C   0  0  0  0  0  0  0  0  0  0  0  0
  125.4220  138.3300   59.5140 C   0  0  0  0  0  0  0  0  0  0  0  0
  125.6600  137.0100   59.9880 O   0  0  0  0  0  0  0  0  0  0  0  0
  124.6330  136.1540   60.2260 C   0  0  0  0  0  0  0  0  0  0  0  0
  123.4570  136.4080   59.9430 O   0  0  0  0  0  0  0  0  0  0  0  0
  125.0660  134.8710   60.8730 C   0  0  0  0  0  0  0  0  0  0  0  0
  126.4160  134.5010   60.8240 C   0  0  0  0  0  0  0  0  0  0  0  0
  126.8490  133.3160   61.4140 C   0  0  0  0  0  0  0  0  0  0  0  0
  125.9440  132.4780   62.0650 C   0  0  0  0  0  0  0  0  0  0  0  0
  126.4930  131.3080   62.6230 N   0  0  0  0  0  0  0  0  0  0  0  0
  126.4640  130.8450   63.8980 C   0  0  0  0  0  0  0  0  0  0  0  0
  125.9080  131.4240   64.8320 O   0  0  0  0  0  0  0  0  0  0  0  0
  127.1490  129.5670   64.1160 C   0  0  0  0  0  0  0  0  0  0  0  0
  127.4590  128.4810   62.7600 S   0  0  0  0  0  0  0  0  0  0  0  0
  128.2450  127.3240   63.8090 C   0  0  0  0  0  0  0  0  0  0  0  0
  128.7650  126.1930   63.3350 N   0  0  0  0  0  0  0  0  0  0  0  0
  129.3650  125.3670   64.2320 C   0  0  0  0  0  0  0  0  0  0  0  0
  129.9510  124.1090   63.6770 C   0  0  0  0  0  0  0  0  0  0  0  0
  131.2550  123.7250   64.0080 C   0  0  0  0  0  0  0  0  0  0  0  0
  131.8080  122.5540   63.4960 C   0  0  0  0  0  0  0  0  0  0  0  0
  131.0720  121.7160   62.6440 C   0  0  0  0  0  0  0  0  0  0  0  0
  131.6200  120.5460   62.1070 N   0  0  0  0  0  0  0  0  0  0  0  0
  130.7650  119.4680   61.5700 C   0  0  0  0  0  0  0  0  0  0  0  0
  131.5060  118.1310   61.3620 C   0  0  0  0  0  0  0  0  0  0  0  0
  132.6480  118.3300   60.5450 O   0  0  0  0  0  0  0  0  0  0  0  0
  133.5570  119.2450   61.1360 C   0  0  0  0  0  0  0  0  0  0  0  0
  132.8750  120.6140   61.3300 C   0  0  0  0  0  0  0  0  0  0  0  0
  129.7700  122.1130   62.3040 C   0  0  0  0  0  0  0  0  0  0  0  0
  129.2190  123.2850   62.8140 C   0  0  0  0  0  0  0  0  0  0  0  0
  129.4190  125.6600   65.5970 C   0  0  0  0  0  0  0  0  0  0  0  0
  128.8560  126.8380   66.1010 C   0  0  0  0  0  0  0  0  0  0  0  0
  128.9090  127.0840   67.5650 C   0  0  0  0  0  0  0  0  0  0  0  0
  128.2360  126.2410   68.4530 C   0  0  0  0  0  0  0  0  0  0  0  0
  128.2980  126.4650   69.8250 C   0  0  0  0  0  0  0  0  0  0  0  0
  129.0500  127.5280   70.3480 C   0  0  0  0  0  0  0  0  0  0  0  0
  129.1180  127.7800   71.7210 N   0  0  0  0  0  0  0  0  0  0  0  0
  128.9730  129.1660   72.2070 C   0  0  0  0  0  0  0  0  0  0  0  0
  128.6870  129.2560   73.7210 C   0  0  0  0  0  0  0  0  0  0  0  0
  129.6930  128.5680   74.4470 O   0  0  0  0  0  0  0  0  0  0  0  0
  129.7480  127.1950   74.0940 C   0  0  0  0  0  0  0  0  0  0  0  0
  130.0620  127.0490   72.5900 C   0  0  0  0  0  0  0  0  0  0  0  0
  129.7240  128.3670   69.4480 C   0  0  0  0  0  0  0  0  0  0  0  0
  129.6580  128.1450   68.0760 C   0  0  0  0  0  0  0  0  0  0  0  0
  128.2540  127.7360   65.1740 C   0  0  0  0  0  0  0  0  0  0  0  0
  127.6410  129.0340   65.3160 C   0  0  0  0  0  0  0  0  0  0  0  0
  127.5660  129.6850   66.5200 N   0  0  0  0  0  0  0  0  0  0  0  0
  124.5890  132.8420   62.1220 C   0  0  0  0  0  0  0  0  0  0  0  0
  124.1580  134.0270   61.5310 C   0  0  0  0  0  0  0  0  0  0  0  0
  1  2  1  0
  2  3  1  0
  3  4  1  0
  4  5  2  0
  4  6  1  0
  6  7  2  0
  7  8  1  0
  8  9  2  0
  9 10  1  0
 10 11  1  0
 11 12  2  0
 11 13  1  0
 13 14  1  0
 14 15  1  0
 15 16  2  0
 16 17  1  0
 17 18  1  0
 18 19  2  0
 19 20  1  0
 20 21  2  0
 21 22  1  0
 22 23  1  0
 23 24  1  0
 24 25  1  0
 25 26  1  0
 26 27  1  0
 21 28  1  0
 28 29  2  0
 17 30  2  0
 30 31  1  0
 31 32  1  0
 32 33  2  0
 33 34  1  0
 34 35  2  0
 35 36  1  0
 36 37  1  0
 37 38  1  0
 38 39  1  0
 39 40  1  0
 40 41  1  0
 35 42  1  0
 42 43  2  0
 31 44  2  0
 44 45  1  0
 45 46  1  0
  9 47  1  0
 47 48  2  0
 48  6  1  0
 45 13  2  0
 44 15  1  0
 29 18  1  0
 43 32  1  0
 27 22  1  0
 41 36  1  0
M  END
>  <Binding energies>  (39) 
[-10.63]

>  <Ligand effiencies>  (39) 
[-0.2084313725490196]

>  <Interactions>  (39) 
["H-A:LYS:547:NZ:4951, V-B:HIS:456:CD2:9039, V-A:GLU:543:C:4902, V-A:HIS:456:CE1:4069, V-B:GLU:543:CG:9879, V-B:GLU:543:CD:9880, V-B:ALA:541:CB:9864, V-A:TYR:539:CD1:4873, V-B:ILE:369:CG2:8208, V-B:LEU:475:CD1:9229, V-A:ALA:541:CB:4892, V-B:ILE:369:CD1:8210, V-A:GLU:543:CD:4908, H-A:GLU:543:OE1:4909, V-A:GLU:543:CG:4907, V-A:PRO:482:CG:4326, V-A:PRO:482:CB:4325, V-A:ILE:369:CG2:3236, V-A:LEU:475:CD1:4257, V-A:SER:385:C:3404, V-A:SER:385:CA:3406, V-B:GLU:543:CB:9878, V-B:GLU:543:C:9874, V-A:GLU:543:CB:4906, V-B:HIS:456:CE1:9041, V-B:TYR:484:CZ:9318, V-B:TYR:484:CE2:9317, V-A:TYR:539:CB:4871, V-B:PRO:482:CG:9298, V-B:LEU:373:CD1:8251, H-B:SER:385:OG:8381, V-B:SER:385:CB:8380, V-B:HIS:383:CD2:8363, H-A:SER:385:OG:3409, H-A:HIS:383:NE2:3393, H-B:TYR:484:OH:9319"]

$$$$
9b_Ghoteimi_2023
     RDKit          3D

 42 48  0  0  0  0  0  0  0  0999 V2000
  126.0120  129.6220   60.1930 N   0  0  0  0  0  0  0  0  0  0  0  0
  126.4640  128.6710   61.0720 C   0  0  0  0  0  0  0  0  0  0  0  0
  126.5800  127.3100   60.7480 C   0  0  0  0  0  0  0  0  0  0  0  0
  126.2890  126.6460   59.4750 C   0  0  0  0  0  0  0  0  0  0  0  0
  125.8940  127.2940   58.5040 O   0  0  0  0  0  0  0  0  0  0  0  0
  126.4810  125.3030   59.4610 N   0  0  0  0  0  0  0  0  0  0  0  0
  126.2740  124.4290   58.4020 C   0  0  0  0  0  0  0  0  0  0  0  0
  126.7490  123.1180   58.3930 C   0  0  0  0  0  0  0  0  0  0  0  0
  126.3360  122.5970   57.1880 C   0  0  0  0  0  0  0  0  0  0  0  0
  125.6490  123.5450   56.5080 O   0  0  0  0  0  0  0  0  0  0  0  0
  125.6160  124.7010   57.2870 N   0  0  0  0  0  0  0  0  0  0  0  0
  127.1620  126.3740   62.1250 S   0  0  0  0  0  0  0  0  0  0  0  0
  127.2270  127.8040   63.1270 C   0  0  0  0  0  0  0  0  0  0  0  0
  127.5990  127.7450   64.4050 N   0  0  0  0  0  0  0  0  0  0  0  0
  127.5990  128.9120   65.1020 C   0  0  0  0  0  0  0  0  0  0  0  0
  128.0010  128.8140   66.5380 C   0  0  0  0  0  0  0  0  0  0  0  0
  128.1860  129.9620   67.3180 C   0  0  0  0  0  0  0  0  0  0  0  0
  128.5740  129.8650   68.6510 C   0  0  0  0  0  0  0  0  0  0  0  0
  128.8050  128.6170   69.2490 C   0  0  0  0  0  0  0  0  0  0  0  0
  129.1930  128.5040   70.5890 N   0  0  0  0  0  0  0  0  0  0  0  0
  129.3410  127.1860   71.2390 C   0  0  0  0  0  0  0  0  0  0  0  0
  130.0970  127.2350   72.5820 C   0  0  0  0  0  0  0  0  0  0  0  0
  129.4760  128.1630   73.4550 O   0  0  0  0  0  0  0  0  0  0  0  0
  129.4810  129.4730   72.9110 C   0  0  0  0  0  0  0  0  0  0  0  0
  128.7090  129.4950   71.5740 C   0  0  0  0  0  0  0  0  0  0  0  0
  128.5990  127.4710   68.4690 C   0  0  0  0  0  0  0  0  0  0  0  0
  128.2070  127.5670   67.1370 C   0  0  0  0  0  0  0  0  0  0  0  0
  127.2550  130.1320   64.5150 C   0  0  0  0  0  0  0  0  0  0  0  0
  126.8830  130.2020   63.1680 C   0  0  0  0  0  0  0  0  0  0  0  0
  126.5550  131.5270   62.5840 C   0  0  0  0  0  0  0  0  0  0  0  0
  125.2710  132.0570   62.7160 C   0  0  0  0  0  0  0  0  0  0  0  0
  124.9660  133.3070   62.1870 C   0  0  0  0  0  0  0  0  0  0  0  0
  125.9370  134.0620   61.5100 C   0  0  0  0  0  0  0  0  0  0  0  0
  125.6560  135.3260   60.9840 N   0  0  0  0  0  0  0  0  0  0  0  0
  126.7720  136.2230   60.6250 C   0  0  0  0  0  0  0  0  0  0  0  0
  126.3370  137.6930   60.4450 C   0  0  0  0  0  0  0  0  0  0  0  0
  125.2960  137.7770   59.4840 O   0  0  0  0  0  0  0  0  0  0  0  0
  124.1570  137.0250   59.8750 C   0  0  0  0  0  0  0  0  0  0  0  0
  124.5370  135.5390   60.0460 C   0  0  0  0  0  0  0  0  0  0  0  0
  127.2290  133.5270   61.3990 C   0  0  0  0  0  0  0  0  0  0  0  0
  127.5340  132.2760   61.9280 C   0  0  0  0  0  0  0  0  0  0  0  0
  126.8420  128.9870   62.4270 C   0  0  0  0  0  0  0  0  0  0  0  0
  1  2  1  0
  2  3  2  0
  3  4  1  0
  4  5  2  0
  4  6  1  0
  6  7  1  0
  7  8  1  0
  8  9  2  0
  9 10  1  0
 10 11  1  0
  3 12  1  0
 12 13  1  0
 13 14  2  0
 14 15  1  0
 15 16  1  0
 16 17  2  0
 17 18  1  0
 18 19  2  0
 19 20  1  0
 20 21  1  0
 21 22  1  0
 22 23  1  0
 23 24  1  0
 24 25  1  0
 19 26  1  0
 26 27  2  0
 15 28  2  0
 28 29  1  0
 29 30  1  0
 30 31  2  0
 31 32  1  0
 32 33  2  0
 33 34  1  0
 34 35  1  0
 35 36  1  0
 36 37  1  0
 37 38  1  0
 38 39  1  0
 33 40  1  0
 40 41  2  0
 29 42  2  0
 42  2  1  0
 11  7  2  0
 42 13  1  0
 27 16  1  0
 41 30  1  0
 25 20  1  0
 39 34  1  0
M  END
>  <Binding energies>  (40) 
[-9.06]

>  <Ligand effiencies>  (40) 
[-0.20133333333333334]

>  <Interactions>  (40) 
["V-B:HIS:456:CG:9037, V-A:LYS:547:CE:4950, H-A:LYS:547:NZ:4951, V-B:HIS:456:CD2:9039, V-A:GLU:543:C:4902, V-A:HIS:456:CE1:4069, V-B:GLU:543:CD:9880, V-A:TYR:539:CD1:4873, V-B:ILE:369:CG2:8208, V-B:ASP:366:CG:8184, V-B:LEU:475:CD1:9229, V-A:ALA:541:CB:4892, H-B:TYR:531:OH:9767, V-B:ASP:366:CB:8183, V-A:TYR:539:C:4867, V-A:GLU:543:CD:4908, V-A:GLU:543:CG:4907, V-B:PRO:540:CB:9857, V-B:PRO:540:CD:9859, V-B:PRO:540:N:9856, V-B:PRO:540:CA:9855, V-B:MET:535:CE:9807, H-B:ASP:366:OD1:8185, V-B:TYR:539:C:9839, V-B:TYR:484:CD2:9315, V-A:GLU:543:CA:4904, V-A:GLU:543:CB:4906, V-B:HIS:456:CE1:9041, V-B:TYR:484:CZ:9318, V-B:TYR:484:CE2:9317, V-B:PRO:482:CB:9297, V-A:TYR:539:CB:4871, V-B:PRO:482:CG:9298, V-B:LEU:373:CD1:8251, V-B:SER:385:CB:8380, V-B:SER:385:CA:8378"]

$$$$
9c_Ghoteimi_2023
     RDKit          3D

 42 48  0  0  0  0  0  0  0  0999 V2000
  127.2990  129.4710   66.7950 N   0  0  0  0  0  0  0  0  0  0  0  0
  127.5360  128.9270   65.5580 C   0  0  0  0  0  0  0  0  0  0  0  0
  127.1080  129.5160   64.3590 C   0  0  0  0  0  0  0  0  0  0  0  0
  126.3770  130.7730   64.1690 C   0  0  0  0  0  0  0  0  0  0  0  0
  125.8780  131.3640   65.1280 O   0  0  0  0  0  0  0  0  0  0  0  0
  126.2960  131.2100   62.8880 N   0  0  0  0  0  0  0  0  0  0  0  0
  125.6530  132.3540   62.4360 C   0  0  0  0  0  0  0  0  0  0  0  0
  124.3980  132.7030   62.6220 N   0  0  0  0  0  0  0  0  0  0  0  0
  124.1260  133.8580   62.0440 C   0  0  0  0  0  0  0  0  0  0  0  0
  125.1770  134.4700   61.3670 C   0  0  0  0  0  0  0  0  0  0  0  0
  126.5940  133.4730   61.5020 S   0  0  0  0  0  0  0  0  0  0  0  0
  127.5590  128.5310   62.9680 S   0  0  0  0  0  0  0  0  0  0  0  0
  128.2990  127.3310   64.0000 C   0  0  0  0  0  0  0  0  0  0  0  0
  128.8500  126.2260   63.5010 N   0  0  0  0  0  0  0  0  0  0  0  0
  129.3830  125.3480   64.3900 C   0  0  0  0  0  0  0  0  0  0  0  0
  129.9750  124.1060   63.8050 C   0  0  0  0  0  0  0  0  0  0  0  0
  131.3150  123.7680   64.0260 C   0  0  0  0  0  0  0  0  0  0  0  0
  131.8630  122.6150   63.4720 C   0  0  0  0  0  0  0  0  0  0  0  0
  131.0930  121.7630   62.6640 C   0  0  0  0  0  0  0  0  0  0  0  0
  131.6280  120.5970   62.1050 N   0  0  0  0  0  0  0  0  0  0  0  0
  132.8310  120.6360   61.2490 C   0  0  0  0  0  0  0  0  0  0  0  0
  133.4750  119.2530   61.0150 C   0  0  0  0  0  0  0  0  0  0  0  0
  132.5110  118.3530   60.4930 O   0  0  0  0  0  0  0  0  0  0  0  0
  131.4260  118.1770   61.3890 C   0  0  0  0  0  0  0  0  0  0  0  0
  130.7200  119.5270   61.6410 C   0  0  0  0  0  0  0  0  0  0  0  0
  129.7460  122.0970   62.4610 C   0  0  0  0  0  0  0  0  0  0  0  0
  129.1980  123.2480   63.0200 C   0  0  0  0  0  0  0  0  0  0  0  0
  129.3910  125.5900   65.7660 C   0  0  0  0  0  0  0  0  0  0  0  0
  128.8340  126.7610   66.2920 C   0  0  0  0  0  0  0  0  0  0  0  0
  128.8950  126.9870   67.7570 C   0  0  0  0  0  0  0  0  0  0  0  0
  128.3480  126.0530   68.6380 C   0  0  0  0  0  0  0  0  0  0  0  0
  128.4180  126.2530   70.0140 C   0  0  0  0  0  0  0  0  0  0  0  0
  129.0360  127.3950   70.5460 C   0  0  0  0  0  0  0  0  0  0  0  0
  129.1280  127.6120   71.9240 N   0  0  0  0  0  0  0  0  0  0  0  0
  130.0860  126.8140   72.7160 C   0  0  0  0  0  0  0  0  0  0  0  0
  129.8130  126.8670   74.2340 C   0  0  0  0  0  0  0  0  0  0  0  0
  129.7950  128.2160   74.6780 O   0  0  0  0  0  0  0  0  0  0  0  0
  128.7860  128.9690   74.0240 C   0  0  0  0  0  0  0  0  0  0  0  0
  129.0280  128.9670   72.4990 C   0  0  0  0  0  0  0  0  0  0  0  0
  129.6000  128.3180   69.6520 C   0  0  0  0  0  0  0  0  0  0  0  0
  129.5300  128.1170   68.2760 C   0  0  0  0  0  0  0  0  0  0  0  0
  128.2360  127.6790   65.3820 C   0  0  0  0  0  0  0  0  0  0  0  0
  1  2  1  0
  2  3  2  0
  3  4  1  0
  4  5  2  0
  4  6  1  0
  6  7  1  0
  7  8  2  0
  8  9  1  0
  9 10  2  0
 10 11  1  0
  3 12  1  0
 12 13  1  0
 13 14  2  0
 14 15  1  0
 15 16  1  0
 16 17  2  0
 17 18  1  0
 18 19  2  0
 19 20  1  0
 20 21  1  0
 21 22  1  0
 22 23  1  0
 23 24  1  0
 24 25  1  0
 19 26  1  0
 26 27  2  0
 15 28  2  0
 28 29  1  0
 29 30  1  0
 30 31  2  0
 31 32  1  0
 32 33  2  0
 33 34  1  0
 34 35  1  0
 35 36  1  0
 36 37  1  0
 37 38  1  0
 38 39  1  0
 33 40  1  0
 40 41  2  0
 29 42  2  0
 42  2  1  0
 11  7  1  0
 42 13  1  0
 27 16  1  0
 41 30  1  0
 25 20  1  0
 39 34  1  0
M  END
>  <Binding energies>  (41) 
[-9.17]

>  <Ligand effiencies>  (41) 
[-0.20377777777777778]

>  <Interactions>  (41) 
["H-A:LYS:547:NZ:4951, V-B:HIS:456:CD2:9039, V-A:GLU:543:C:4902, V-A:HIS:456:CD2:4067, V-A:HIS:456:CE1:4069, V-B:GLU:543:CG:9879, V-B:GLU:543:CD:9880, V-B:ALA:541:CB:9864, V-B:ILE:369:CG2:8208, V-B:LEU:475:CD1:9229, V-B:ILE:369:CD1:8210, V-A:GLU:543:CD:4908, V-A:PRO:482:CG:4326, V-A:PRO:482:CB:4325, V-A:ILE:369:CG2:3236, V-A:LEU:475:CD1:4257, V-A:SER:385:C:3404, V-A:SER:385:CA:3406, V-B:GLU:543:CB:9878, V-B:GLU:543:C:9874, V-A:GLU:543:CB:4906, V-B:HIS:456:CE1:9041, V-B:TYR:484:CZ:9318, V-B:TYR:484:CE2:9317, H-A:SER:385:OG:3409, H-A:HIS:383:NE2:3393, H-B:TYR:484:OH:9319, H-B:HIS:456:NE2:9042, V-B:GLU:543:CA:9876"]

$$$$
RR11_Rahimova_2017
     RDKit          3D

 33 38  0  0  0  0  0  0  0  0999 V2000
  133.6640  123.6470   57.6870 N   0  0  0  0  0  0  0  0  0  0  0  0
  133.1870  124.0400   58.9360 C   0  0  0  0  0  0  0  0  0  0  0  0
  132.0090  124.7800   59.0270 C   0  0  0  0  0  0  0  0  0  0  0  0
  131.5320  125.1700   60.2740 C   0  0  0  0  0  0  0  0  0  0  0  0
  132.2260  124.8260   61.4420 C   0  0  0  0  0  0  0  0  0  0  0  0
  131.7080  125.2430   62.7860 C   0  0  0  0  0  0  0  0  0  0  0  0
  130.4490  125.5240   63.0420 N   0  0  0  0  0  0  0  0  0  0  0  0
  130.4130  125.8400   64.3750 C   0  0  0  0  0  0  0  0  0  0  0  0
  129.3180  126.2100   65.1690 C   0  0  0  0  0  0  0  0  0  0  0  0
  129.5370  126.4690   66.5270 C   0  0  0  0  0  0  0  0  0  0  0  0
  128.3680  126.8780   67.4120 C   0  0  0  0  0  0  0  0  0  0  0  0
  127.4070  127.8350   66.7210 C   0  0  0  0  0  0  0  0  0  0  0  0
  126.0380  127.7610   67.0060 C   0  0  0  0  0  0  0  0  0  0  0  0
  125.1180  128.6220   66.4050 C   0  0  0  0  0  0  0  0  0  0  0  0
  125.6010  129.5790   65.5030 C   0  0  0  0  0  0  0  0  0  0  0  0
  124.9120  130.5220   64.7850 N   0  0  0  0  0  0  0  0  0  0  0  0
  125.8250  131.1630   64.0870 C   0  0  0  0  0  0  0  0  0  0  0  0
  125.5310  132.2840   63.1320 C   0  0  0  0  0  0  0  0  0  0  0  0
  126.5750  132.9650   62.4920 C   0  0  0  0  0  0  0  0  0  0  0  0
  126.3040  134.0110   61.6150 C   0  0  0  0  0  0  0  0  0  0  0  0
  124.9840  134.3850   61.3710 C   0  0  0  0  0  0  0  0  0  0  0  0
  124.7110  135.4360   60.4960 N   0  0  0  0  0  0  0  0  0  0  0  0
  123.9360  133.7150   61.9970 C   0  0  0  0  0  0  0  0  0  0  0  0
  124.2090  132.6690   62.8740 C   0  0  0  0  0  0  0  0  0  0  0  0
  127.0930  130.6780   64.3270 N   0  0  0  0  0  0  0  0  0  0  0  0
  126.9890  129.6510   65.2350 C   0  0  0  0  0  0  0  0  0  0  0  0
  127.9150  128.7950   65.8370 C   0  0  0  0  0  0  0  0  0  0  0  0
  130.8240  126.3850   67.0700 C   0  0  0  0  0  0  0  0  0  0  0  0
  131.9360  126.0250   66.3050 C   0  0  0  0  0  0  0  0  0  0  0  0
  131.7000  125.7530   64.9550 C   0  0  0  0  0  0  0  0  0  0  0  0
  132.5030  125.3710   63.9060 N   0  0  0  0  0  0  0  0  0  0  0  0
  133.4100  124.0840   61.3350 C   0  0  0  0  0  0  0  0  0  0  0  0
  133.8890  123.6910   60.0880 C   0  0  0  0  0  0  0  0  0  0  0  0
  1  2  1  0
  2  3  2  0
  3  4  1  0
  4  5  2  0
  5  6  1  0
  6  7  2  0
  7  8  1  0
  8  9  2  0
  9 10  1  0
 10 11  1  0
 11 12  1  0
 12 13  2  0
 13 14  1  0
 14 15  2  0
 15 16  1  0
 16 17  2  0
 17 18  1  0
 18 19  2  0
 19 20  1  0
 20 21  2  0
 21 22  1  0
 21 23  1  0
 23 24  2  0
 17 25  1  0
 25 26  1  0
 26 27  2  0
 10 28  2  0
 28 29  1  0
 29 30  2  0
 30 31  1  0
  5 32  1  0
 32 33  2  0
 33  2  1  0
 31  6  1  0
 30  8  1  0
 27 12  1  0
 26 15  1  0
 24 18  1  0
M  END
>  <Binding energies>  (42) 
[-8.95]

>  <Ligand effiencies>  (42) 
[-0.22948717948717948]

>  <Interactions>  (42) 
["V-A:HIS:456:CE1:4069, V-B:GLU:543:CG:9879, V-A:ARG:545:CZ:4926, V-A:ASP:366:CG:3212, V-B:GLU:543:CD:9880, V-A:TYR:539:CD1:4873, V-B:ILE:369:CG2:8208, V-B:LEU:475:CD1:9229, V-A:ALA:541:CB:4892, V-B:ILE:369:CD1:8210, V-A:GLU:543:CD:4908, V-A:GLU:543:CG:4907, V-B:TYR:539:CE2:9848, V-A:ILE:369:CG2:3236, V-A:ASP:366:CB:3211, V-A:ILE:369:CB:3235, V-A:ILE:369:CD1:3238, V-B:GLU:543:CB:9878, V-B:HIS:456:CE1:9041, V-B:TYR:539:CZ:9849, H-B:TYR:539:OH:9850, V-B:GLY:454:CA:9020, V-B:ARG:545:CZ:9898, V-B:ARG:545:CG:9894, V-B:ARG:545:CD:9895, V-A:ASP:366:CA:3209, V-A:ASP:366:C:3207, V-B:LEU:373:CD1:8251, H-B:SER:385:OG:8381, V-B:SER:385:CB:8380, H-B:GLY:454:N:9021, H-B:TYR:484:OH:9319, H-A:ASP:366:O:3208"]

$$$$
RR16_Rahimova_2017
     RDKit          3D

 44 49  0  0  0  0  0  0  0  0999 V2000
  130.4880  121.0410   64.1090 O   0  0  0  0  0  0  0  0  0  0  0  0
  130.8740  122.2660   63.4010 S   0  0  0  0  0  0  0  0  0  0  0  0
  132.2850  122.5740   63.1420 O   0  0  0  0  0  0  0  0  0  0  0  0
  130.1660  123.6290   64.2710 N   0  0  0  0  0  0  0  0  0  0  0  0
  130.7950  124.9700   64.2260 C   0  0  0  0  0  0  0  0  0  0  0  0
  129.7420  126.0390   64.6160 C   0  0  0  0  0  0  0  0  0  0  0  0
  129.1290  125.9470   66.0260 C   0  0  0  0  0  0  0  0  0  0  0  0
  130.1700  125.8330   67.1530 C   0  0  0  0  0  0  0  0  0  0  0  0
  131.4500  126.6680   66.9680 C   0  0  0  0  0  0  0  0  0  0  0  0
  132.3940  126.2650   65.8180 C   0  0  0  0  0  0  0  0  0  0  0  0
  132.0740  124.9410   65.0960 C   0  0  0  0  0  0  0  0  0  0  0  0
  130.0180  122.2480   61.8300 C   0  0  0  0  0  0  0  0  0  0  0  0
  130.7360  122.3320   60.6350 C   0  0  0  0  0  0  0  0  0  0  0  0
  130.0520  122.4410   59.4270 C   0  0  0  0  0  0  0  0  0  0  0  0
  128.6560  122.4640   59.4190 C   0  0  0  0  0  0  0  0  0  0  0  0
  127.7780  122.7460   57.8840 S   0  0  0  0  0  0  0  0  0  0  0  0
  126.3410  122.6520   58.1760 O   0  0  0  0  0  0  0  0  0  0  0  0
  128.3840  121.8800   56.8650 O   0  0  0  0  0  0  0  0  0  0  0  0
  128.1530  124.4300   57.4710 N   0  0  0  0  0  0  0  0  0  0  0  0
  128.1760  125.3570   58.6320 C   0  0  0  0  0  0  0  0  0  0  0  0
  128.1960  126.8230   58.1520 C   0  0  0  0  0  0  0  0  0  0  0  0
  129.3460  127.0830   57.1470 C   0  0  0  0  0  0  0  0  0  0  0  0
  129.3550  128.5210   56.6230 C   0  0  0  0  0  0  0  0  0  0  0  0
  128.2560  129.0040   55.8990 C   0  0  0  0  0  0  0  0  0  0  0  0
  128.2180  130.3110   55.4090 C   0  0  0  0  0  0  0  0  0  0  0  0
  127.1330  130.7670   54.7060 O   0  0  0  0  0  0  0  0  0  0  0  0
  129.3180  131.1440   55.6610 C   0  0  0  0  0  0  0  0  0  0  0  0
  129.5500  132.4480   55.3280 N   0  0  0  0  0  0  0  0  0  0  0  0
  130.7780  132.7960   55.8470 N   0  0  0  0  0  0  0  0  0  0  0  0
  131.3090  131.7130   56.4480 N   0  0  0  0  0  0  0  0  0  0  0  0
  132.5750  131.8180   57.1610 C   0  0  0  0  0  0  0  0  0  0  0  0
  132.4520  131.4460   58.6320 C   0  0  0  0  0  0  0  0  0  0  0  0
  133.5940  131.1160   59.3700 C   0  0  0  0  0  0  0  0  0  0  0  0
  133.4880  130.7980   60.7250 C   0  0  0  0  0  0  0  0  0  0  0  0
  132.2400  130.8080   61.3480 C   0  0  0  0  0  0  0  0  0  0  0  0
  131.0970  131.1380   60.6190 C   0  0  0  0  0  0  0  0  0  0  0  0
  129.5540  131.1620   61.3900 Cl  0  0  0  0  0  0  0  0  0  0  0  0
  131.2030  131.4530   59.2620 C   0  0  0  0  0  0  0  0  0  0  0  0
  130.4270  130.6470   56.3860 C   0  0  0  0  0  0  0  0  0  0  0  0
  130.4670  129.3370   56.8740 C   0  0  0  0  0  0  0  0  0  0  0  0
  129.3830  126.0280   56.0100 C   0  0  0  0  0  0  0  0  0  0  0  0
  129.3140  124.5890   56.5580 C   0  0  0  0  0  0  0  0  0  0  0  0
  127.9400  122.3380   60.6120 C   0  0  0  0  0  0  0  0  0  0  0  0
  128.6220  122.2330   61.8190 C   0  0  0  0  0  0  0  0  0  0  0  0
  1  2  2  0
  2  3  2  0
  2  4  1  0
  4  5  1  0
  5  6  1  0
  6  7  1  0
  7  8  1  0
  8  9  1  0
  9 10  1  0
 10 11  1  0
  2 12  1  0
 12 13  2  0
 13 14  1  0
 14 15  2  0
 15 16  1  0
 16 17  2  0
 16 18  2  0
 16 19  1  0
 19 20  1  0
 20 21  1  0
 21 22  1  0
 22 23  1  0
 23 24  2  0
 24 25  1  0
 25 26  1  0
 25 27  2  0
 27 28  1  0
 28 29  2  0
 29 30  1  0
 30 31  1  0
 31 32  1  0
 32 33  2  0
 33 34  1  0
 34 35  2  0
 35 36  1  0
 36 37  1  0
 36 38  2  0
 30 39  1  0
 39 40  2  0
 22 41  1  0
 41 42  1  0
 15 43  1  0
 43 44  2  0
 11  5  1  0
 44 12  1  0
 42 19  1  0
 40 23  1  0
 39 27  1  0
 38 32  1  0
M  END
>  <Binding energies>  (43) 
[-11.23]

>  <Ligand effiencies>  (43) 
[-0.23395833333333335]

>  <Interactions>  (43) 
["V-A:HIS:456:CE1:4069, V-A:TYR:484:CZ:4346, V-B:GLU:543:CG:9879, V-A:ARG:545:CZ:4926, V-A:ASP:366:CG:3212, H-A:TYR:484:OH:4347, V-B:GLU:543:CD:9880, H-B:GLU:543:OE2:9882, V-B:ALA:541:CB:9864, V-A:ARG:545:CD:4923, H-A:TYR:539:OH:4878, V-A:PRO:540:CB:4885, V-A:LEU:363:CD1:3188, V-A:PRO:540:N:4884, V-A:PRO:540:CA:4883, H-B:LYS:534:NZ:9795, H-B:TYR:531:OH:9767, V-A:PRO:540:CD:4887, V-A:GLU:543:CD:4908, V-A:TYR:539:CZ:4877, V-B:TYR:539:CE2:9848, V-B:PRO:540:N:9856, V-B:PRO:540:CA:9855, V-B:MET:535:CE:9807, V-B:TYR:539:CD2:9846, V-B:TYR:539:C:9839, V-A:LEU:475:CD1:4257, V-B:ALA:541:CA:9862, V-B:PRO:540:C:9853, V-B:GLU:543:CB:9878, V-A:TYR:484:CE2:4345, V-B:TYR:539:CZ:9849, V-A:LEU:363:CA:3184, V-A:ASN:362:CB:3175, V-A:ASN:362:C:3171, V-A:LEU:363:CB:3186, H-A:TYR:539:N:4870, H-B:TYR:539:N:9842, V-A:PRO:540:CG:4886"]

$$$$
RR18_Rahimova_2017
     RDKit          3D

 36 41  0  0  0  0  0  0  0  0999 V2000
  134.6250  123.9890   60.5780 C   0  0  0  0  0  0  0  0  0  0  0  0
  133.3410  124.2330   59.8240 C   0  0  0  0  0  0  0  0  0  0  0  0
  132.9900  124.2130   58.4840 C   0  0  0  0  0  0  0  0  0  0  0  0
  131.6330  124.5280   58.4190 C   0  0  0  0  0  0  0  0  0  0  0  0
  131.2040  124.7280   59.7220 C   0  0  0  0  0  0  0  0  0  0  0  0
  129.8590  125.0850   60.3500 C   0  0  1  0  0  0  0  0  0  0  0  0
  129.5750  124.2270   61.6180 C   0  0  0  0  0  0  0  0  0  0  0  0
  129.3930  122.7830   61.5070 C   0  0  0  0  0  0  0  0  0  0  0  0
  128.2760  122.2640   61.5420 O   0  0  0  0  0  0  0  0  0  0  0  0
  130.5450  122.0900   61.3490 N   0  0  0  0  0  0  0  0  0  0  0  0
  130.7650  120.7000   61.2300 C   0  0  0  0  0  0  0  0  0  0  0  0
  129.7510  119.7380   61.3890 C   0  0  0  0  0  0  0  0  0  0  0  0
  130.0360  118.3800   61.2650 C   0  0  0  0  0  0  0  0  0  0  0  0
  131.3340  117.9610   60.9870 C   0  0  0  0  0  0  0  0  0  0  0  0
  132.3500  118.9020   60.8380 C   0  0  0  0  0  0  0  0  0  0  0  0
  132.0790  120.2690   60.9590 C   0  0  0  0  0  0  0  0  0  0  0  0
  133.2290  121.2580   60.7910 C   0  0  0  0  0  0  0  0  0  0  0  0
  129.6030  124.8370   62.8320 C   0  0  0  0  0  0  0  0  0  0  0  0
  129.7460  126.1770   63.0250 N   0  0  0  0  0  0  0  0  0  0  0  0
  129.7810  126.9600   62.0100 C   0  0  0  0  0  0  0  0  0  0  0  0
  129.8090  128.7050   62.1040 S   0  0  0  0  0  0  0  0  0  0  0  0
  129.8070  128.8540   60.3180 C   0  0  0  0  0  0  0  0  0  0  0  0
  129.8210  130.0170   59.5790 C   0  0  0  0  0  0  0  0  0  0  0  0
  129.7540  131.3230   60.2510 C   0  0  0  0  0  0  0  0  0  0  0  0
  129.7080  131.5960   61.4500 O   0  0  0  0  0  0  0  0  0  0  0  0
  129.7290  132.2600   59.2970 N   0  0  0  0  0  0  0  0  0  0  0  0
  129.8070  131.7420   58.0400 C   0  0  0  0  0  0  0  0  0  0  0  0
  129.8200  132.4330   56.8300 C   0  0  0  0  0  0  0  0  0  0  0  0
  129.9370  131.7130   55.6450 C   0  0  0  0  0  0  0  0  0  0  0  0
  130.0480  130.3240   55.6910 C   0  0  0  0  0  0  0  0  0  0  0  0
  130.0310  129.6530   56.9160 C   0  0  0  0  0  0  0  0  0  0  0  0
  129.8900  130.3630   58.1240 C   0  0  0  0  0  0  0  0  0  0  0  0
  129.7740  127.5040   59.7530 C   0  0  0  0  0  0  0  0  0  0  0  0
  129.7130  127.2130   58.5630 O   0  0  0  0  0  0  0  0  0  0  0  0
  129.7970  126.5450   60.7180 N   0  0  0  0  0  0  0  0  0  0  0  0
  132.2510  124.5480   60.5710 O   0  0  0  0  0  0  0  0  0  0  0  0
  1  2  1  0
  2  3  2  0
  3  4  1  0
  4  5  2  0
  6  5  1  1
  6  7  1  0
  7  8  1  0
  8  9  2  0
  8 10  1  0
 10 11  1  0
 11 12  2  0
 12 13  1  0
 13 14  2  0
 14 15  1  0
 15 16  2  0
 16 17  1  0
  7 18  2  0
 18 19  1  0
 19 20  2  0
 20 21  1  0
 21 22  1  0
 22 23  2  0
 23 24  1  0
 24 25  2  0
 24 26  1  0
 26 27  1  0
 27 28  2  0
 28 29  1  0
 29 30  2  0
 30 31  1  0
 31 32  2  0
 22 33  1  0
 33 34  2  0
 33 35  1  0
  5 36  1  0
 36  2  1  0
 35  6  1  0
 16 11  1  0
 35 20  1  0
 32 23  1  0
 32 27  1  0
M  END
>  <Binding energies>  (44) 
[-9.14]

>  <Ligand effiencies>  (44) 
[-0.2405263157894737]

>  <Interactions>  (44) 
["H-B:ALA:541:N:9863, V-A:ASP:366:CG:3212, V-B:ALA:541:CB:9864, V-A:TYR:539:CD1:4873, V-A:PRO:540:N:4884, V-A:PRO:540:CA:4883, H-A:ALA:541:N:4891, V-A:TYR:539:C:4867, V-A:GLU:543:CD:4908, V-A:PRO:482:CG:4326, V-B:TYR:539:CE2:9848, V-A:PRO:482:CB:4325, V-B:TYR:539:C:9839, V-A:ILE:369:CG2:3236, V-A:ASP:366:CB:3211, V-A:ILE:369:CB:3235, V-A:LEU:475:CD1:4257, V-B:ALA:541:CA:9862, V-B:PRO:540:C:9853, V-A:ILE:369:CD1:3238, V-A:PRO:540:C:4881, V-A:ASP:366:CA:3209, H-A:TYR:539:O:4868, V-A:TYR:539:CA:4869"]

$$$$
RR20_Rahimova_2017
     RDKit          3D

 38 43  0  0  0  0  0  0  0  0999 V2000
  126.7310  136.0850   60.6120 C   0  0  0  0  0  0  0  0  0  0  0  0
  126.1670  134.7720   61.1250 C   0  0  0  0  0  0  0  0  0  0  0  0
  127.0030  133.8630   61.7720 C   0  0  0  0  0  0  0  0  0  0  0  0
  126.4860  132.6620   62.2510 C   0  0  0  0  0  0  0  0  0  0  0  0
  125.1320  132.3550   62.0750 C   0  0  0  0  0  0  0  0  0  0  0  0
  124.5850  131.0550   62.6210 C   0  0  0  0  0  0  0  0  0  0  0  0
  123.3840  131.0110   62.8970 O   0  0  0  0  0  0  0  0  0  0  0  0
  125.4240  129.9890   62.7740 N   0  0  0  0  0  0  0  0  0  0  0  0
  126.1710  129.4250   61.6380 C   0  0  0  0  0  0  0  0  0  0  0  0
  127.1000  128.3710   62.2160 C   0  0  0  0  0  0  0  0  0  0  0  0
  127.0810  128.6780   63.6830 C   0  0  0  0  0  0  0  0  0  0  0  0
  127.8160  128.0910   64.7130 C   0  0  0  0  0  0  0  0  0  0  0  0
  127.5420  128.4000   66.0510 C   0  0  0  0  0  0  0  0  0  0  0  0
  128.3390  127.7750   67.1610 C   0  0  0  0  0  0  0  0  0  0  0  0
  128.3890  128.3990   68.3280 N   0  0  0  0  0  0  0  0  0  0  0  0
  129.0940  127.7560   69.2250 C   0  0  0  0  0  0  0  0  0  0  0  0
  129.3430  128.1230   70.5380 N   0  0  0  0  0  0  0  0  0  0  0  0
  128.9700  127.4530   71.6560 C   0  0  0  0  0  0  0  0  0  0  0  0
  128.3590  126.3830   71.6460 O   0  0  0  0  0  0  0  0  0  0  0  0
  129.3590  128.0540   73.0280 C   0  0  0  0  0  0  0  0  0  0  0  0
  130.1910  127.1470   73.8400 N   0  0  0  0  0  0  0  0  0  0  0  0
  129.9950  125.7340   73.4810 C   0  0  0  0  0  0  0  0  0  0  0  0
  130.6750  124.8200   74.5260 C   0  0  0  0  0  0  0  0  0  0  0  0
  132.0900  125.2750   74.8860 C   0  0  0  0  0  0  0  0  0  0  0  0
  132.9560  124.4390   75.6000 C   0  0  0  0  0  0  0  0  0  0  0  0
  134.2310  124.8680   75.9610 C   0  0  0  0  0  0  0  0  0  0  0  0
  134.6570  126.1440   75.6080 C   0  0  0  0  0  0  0  0  0  0  0  0
  133.8090  126.9830   74.8900 C   0  0  0  0  0  0  0  0  0  0  0  0
  132.5250  126.5660   74.5220 C   0  0  0  0  0  0  0  0  0  0  0  0
  131.6150  127.4650   73.6830 C   0  0  0  0  0  0  0  0  0  0  0  0
  129.7820  126.2820   68.6660 S   0  0  0  0  0  0  0  0  0  0  0  0
  129.0660  126.5670   67.0970 C   0  0  0  0  0  0  0  0  0  0  0  0
  129.3050  125.5990   65.9590 C   0  0  0  0  0  0  0  0  0  0  0  0
  126.4760  129.2680   66.3320 C   0  0  0  0  0  0  0  0  0  0  0  0
  125.7270  129.8420   65.3050 C   0  0  0  0  0  0  0  0  0  0  0  0
  126.0660  129.5910   63.9690 C   0  0  0  0  0  0  0  0  0  0  0  0
  124.2920  133.2860   61.4510 C   0  0  0  0  0  0  0  0  0  0  0  0
  124.8090  134.4880   60.9720 C   0  0  0  0  0  0  0  0  0  0  0  0
  1  2  1  0
  2  3  2  0
  3  4  1  0
  4  5  2  0
  5  6  1  0
  6  7  2  0
  6  8  1  0
  8  9  1  0
  9 10  1  0
 10 11  1  0
 11 12  2  0
 12 13  1  0
 13 14  1  0
 14 15  1  0
 15 16  2  0
 16 17  1  0
 17 18  1  0
 18 19  2  0
 18 20  1  0
 20 21  1  0
 21 22  1  0
 22 23  1  0
 23 24  1  0
 24 25  2  0
 25 26  1  0
 26 27  2  0
 27 28  1  0
 28 29  2  0
 29 30  1  0
 16 31  1  0
 31 32  1  0
 32 33  1  0
 13 34  2  0
 34 35  1  0
 35 36  2  0
  5 37  1  0
 37 38  2  0
 38  2  1  0
 36  8  1  0
 36 11  1  0
 32 14  2  0
 30 21  1  0
 29 24  1  0
M  END
>  <Binding energies>  (45) 
[-10.54]

>  <Ligand effiencies>  (45) 
[-0.27025641025641023]

>  <Interactions>  (45) 
["V-A:LYS:547:CD:4949, V-A:LYS:547:CE:4950, V-A:LYS:547:CG:4948, V-B:HIS:456:CD2:9039, V-A:HIS:456:CD2:4067, V-A:HIS:456:CE1:4069, V-A:HIS:456:CB:4064, V-A:VAL:458:CG2:4086, V-A:HIS:456:CG:4065, V-B:GLU:543:CG:9879, V-B:GLU:543:CD:9880, V-A:TYR:539:CD1:4873, V-B:ILE:369:CG2:8208, V-B:LEU:475:CD1:9229, V-A:ALA:541:CB:4892, V-B:ILE:369:CD1:8210, V-A:TYR:539:C:4867, V-A:GLU:543:CD:4908, V-A:LYS:471:CD:4218, V-B:GLU:543:CB:9878, V-B:HIS:456:CE1:9041, V-B:TYR:484:CZ:9318, V-B:PRO:482:CB:9297, V-A:TYR:539:CB:4871, V-B:PRO:482:CG:9298, V-A:HIS:456:C:4060, H-B:GLY:454:N:9021, H-A:GLU:543:O:4903"]

$$$$
RR21_Rahimova_2017
     RDKit          3D

 40 45  0  0  0  0  0  0  0  0999 V2000
  124.6500  130.0220   62.6720 C   0  0  0  0  0  0  0  0  0  0  0  0
  124.5490  130.1500   64.0870 O   0  0  0  0  0  0  0  0  0  0  0  0
  125.4630  129.4960   64.8910 C   0  0  0  0  0  0  0  0  0  0  0  0
  126.8080  129.2790   64.5450 C   0  0  0  0  0  0  0  0  0  0  0  0
  127.6670  128.6110   65.4170 C   0  0  0  0  0  0  0  0  0  0  0  0
  127.2080  128.1450   66.6540 C   0  0  0  0  0  0  0  0  0  0  0  0
  128.1340  127.4320   67.5910 C   0  0  0  0  0  0  0  0  0  0  0  0
  128.1900  127.7920   68.8580 N   0  0  0  0  0  0  0  0  0  0  0  0
  129.0900  126.9900   69.4470 N   0  0  0  0  0  0  0  0  0  0  0  0
  129.3830  127.0950   70.8320 C   0  0  0  0  0  0  0  0  0  0  0  0
  128.9030  126.1410   71.7420 C   0  0  0  0  0  0  0  0  0  0  0  0
  129.2010  126.2520   73.0970 C   0  0  0  0  0  0  0  0  0  0  0  0
  129.9780  127.3170   73.5480 C   0  0  0  0  0  0  0  0  0  0  0  0
  130.4580  128.2720   72.6560 C   0  0  0  0  0  0  0  0  0  0  0  0
  130.1610  128.1640   71.3000 C   0  0  0  0  0  0  0  0  0  0  0  0
  129.5970  126.0970   68.5360 C   0  0  0  0  0  0  0  0  0  0  0  0
  129.0110  126.3600   67.3070 C   0  0  0  0  0  0  0  0  0  0  0  0
  129.1980  125.6480   66.0520 C   0  0  0  0  0  0  0  0  0  0  0  0
  130.3500  125.4290   65.3770 C   0  0  0  0  0  0  0  0  0  0  0  0
  131.9900  125.9560   65.8160 S   0  0  0  0  0  0  0  0  0  0  0  0
  132.6150  125.1590   64.3800 C   0  0  0  0  0  0  0  0  0  0  0  0
  133.8490  125.0830   63.9860 N   0  0  0  0  0  0  0  0  0  0  0  0
  134.2240  124.3920   62.8010 C   0  0  0  0  0  0  0  0  0  0  0  0
  135.3700  124.2560   62.3720 O   0  0  0  0  0  0  0  0  0  0  0  0
  133.0660  123.7880   62.0560 C   0  0  0  0  0  0  0  0  0  0  0  0
  133.3470  123.0340   60.7500 C   0  0  0  0  0  0  0  0  0  0  0  0
  132.7770  121.6180   60.7050 C   0  0  0  0  0  0  0  0  0  0  0  0
  133.6050  120.5220   60.9570 C   0  0  0  0  0  0  0  0  0  0  0  0
  133.0810  119.2320   60.9320 C   0  0  0  0  0  0  0  0  0  0  0  0
  131.7270  119.0350   60.6580 C   0  0  0  0  0  0  0  0  0  0  0  0
  131.1580  117.6280   60.6450 C   0  0  0  0  0  0  0  0  0  0  0  0
  130.8940  120.1310   60.4170 C   0  0  0  0  0  0  0  0  0  0  0  0
  131.4180  121.4200   60.4410 C   0  0  0  0  0  0  0  0  0  0  0  0
  131.8400  123.8780   62.4580 N   0  0  0  0  0  0  0  0  0  0  0  0
  131.6130  124.5770   63.6500 N   0  0  0  0  0  0  0  0  0  0  0  0
  130.3470  124.6850   64.1250 C   0  0  0  0  0  0  0  0  0  0  0  0
  129.3450  124.2140   63.5750 O   0  0  0  0  0  0  0  0  0  0  0  0
  125.8680  128.3540   66.9970 C   0  0  0  0  0  0  0  0  0  0  0  0
  125.0060  129.0230   66.1260 C   0  0  0  0  0  0  0  0  0  0  0  0
  123.7160  129.2090   66.4880 F   0  0  0  0  0  0  0  0  0  0  0  0
  1  2  1  0
  2  3  1  0
  3  4  2  0
  4  5  1  0
  5  6  2  0
  6  7  1  0
  7  8  2  0
  8  9  1  0
  9 10  1  0
 10 11  2  0
 11 12  1  0
 12 13  2  0
 13 14  1  0
 14 15  2  0
  9 16  1  0
 16 17  2  0
 17 18  1  0
 18 19  2  0
 19 20  1  0
 20 21  1  0
 21 22  2  0
 22 23  1  0
 23 24  2  0
 23 25  1  0
 25 26  1  0
 26 27  1  0
 27 28  2  0
 28 29  1  0
 29 30  2  0
 30 31  1  0
 30 32  1  0
 32 33  2  0
 25 34  2  0
 34 35  1  0
 35 36  1  0
 36 37  2  0
  6 38  1  0
 38 39  2  0
 39 40  1  0
 39  3  1  0
 17  7  1  0
 36 19  1  0
 15 10  1  0
 35 21  1  0
 33 27  1  0
M  END
>  <Binding energies>  (46) 
[-11.04]

>  <Ligand effiencies>  (46) 
[-0.27599999999999997]

>  <Interactions>  (46) 
["V-A:LYS:547:CE:4950, V-B:HIS:456:CD2:9039, V-A:GLU:543:C:4902, V-A:HIS:456:CE1:4069, H-A:GLY:454:N:4049, H-A:ARG:545:NH2:4928, V-B:GLU:543:CG:9879, V-A:ARG:545:CZ:4926, V-B:GLU:543:CD:9880, H-A:ARG:545:NE:4924, V-A:GLY:453:C:4041, V-A:GLY:453:CA:4043, V-B:ASP:366:CG:8184, V-A:GLU:543:CD:4908, V-A:PRO:482:CG:4326, V-B:TYR:539:CE2:9848, V-B:TYR:539:CD2:9846, V-A:ILE:369:CG2:3236, V-A:LEU:475:CD1:4257, V-B:GLU:543:CB:9878, V-B:HIS:456:CE1:9041, V-B:ARG:545:CZ:9898, V-B:ARG:545:CG:9894, V-B:ARG:545:CD:9895, H-A:ARG:545:NH1:4927, V-A:HIS:383:CE1:3392, H-B:GLY:454:N:9021"]

$$$$
RR23_Rahimova_2017
     RDKit          3D

 39 44  0  0  0  0  0  0  0  0999 V2000
  131.2470  117.2650   60.8280 C   0  0  0  0  0  0  0  0  0  0  0  0
  131.6860  118.7160   60.7530 C   0  0  0  0  0  0  0  0  0  0  0  0
  130.7310  119.7330   60.7170 C   0  0  0  0  0  0  0  0  0  0  0  0
  131.1350  121.0640   60.6570 C   0  0  0  0  0  0  0  0  0  0  0  0
  132.4960  121.3890   60.6220 C   0  0  0  0  0  0  0  0  0  0  0  0
  132.9130  122.8410   60.5780 C   0  0  0  0  0  0  0  0  0  0  0  0
  132.9750  123.3850   59.4730 O   0  0  0  0  0  0  0  0  0  0  0  0
  133.1890  123.4950   61.7460 N   0  0  0  0  0  0  0  0  0  0  0  0
  134.3540  124.3850   61.8740 C   0  0  0  0  0  0  0  0  0  0  0  0
  134.2470  125.0340   63.2440 C   0  0  0  0  0  0  0  0  0  0  0  0
  132.8300  124.7510   63.6380 C   0  0  0  0  0  0  0  0  0  0  0  0
  132.1290  125.1790   64.7660 C   0  0  0  0  0  0  0  0  0  0  0  0
  130.8490  124.6720   65.0410 C   0  0  0  0  0  0  0  0  0  0  0  0
  130.0430  125.1170   66.2710 C   0  0  2  0  0  0  0  0  0  0  0  0
  129.0370  126.1020   65.9370 N   0  0  0  0  0  0  0  0  0  0  0  0
  128.8380  126.9180   66.8930 C   0  0  0  0  0  0  0  0  0  0  0  0
  127.9900  127.9820   66.9240 N   0  0  0  0  0  0  0  0  0  0  0  0
  127.2640  128.5100   65.9100 C   0  0  0  0  0  0  0  0  0  0  0  0
  127.2190  128.0730   64.7580 O   0  0  0  0  0  0  0  0  0  0  0  0
  126.4440  129.7620   66.2640 C   0  0  0  0  0  0  0  0  0  0  0  0
  125.9520  130.3880   65.0160 N   0  0  0  0  0  0  0  0  0  0  0  0
  124.6770  130.0030   64.6190 N   0  0  0  0  0  0  0  0  0  0  0  0
  124.1320  130.4780   63.5450 N   0  0  0  0  0  0  0  0  0  0  0  0
  124.8310  131.3980   62.7600 C   0  0  0  0  0  0  0  0  0  0  0  0
  124.2150  131.8890   61.6060 C   0  0  0  0  0  0  0  0  0  0  0  0
  124.8870  132.8090   60.8010 C   0  0  0  0  0  0  0  0  0  0  0  0
  126.1710  133.2380   61.1460 C   0  0  0  0  0  0  0  0  0  0  0  0
  126.7890  132.7480   62.2980 C   0  0  0  0  0  0  0  0  0  0  0  0
  126.1130  131.8270   63.1070 C   0  0  0  0  0  0  0  0  0  0  0  0
  126.7650  131.2820   64.3560 C   0  0  0  0  0  0  0  0  0  0  0  0
  127.8990  131.5950   64.7310 O   0  0  0  0  0  0  0  0  0  0  0  0
  129.7890  126.6660   68.3850 S   0  0  0  0  0  0  0  0  0  0  0  0
  130.9080  125.6020   67.4570 C   0  0  2  0  0  0  0  0  0  0  0  0
  132.1830  126.3970   67.1060 C   0  0  0  0  0  0  0  0  0  0  0  0
  130.3130  123.6970   64.1920 C   0  0  0  0  0  0  0  0  0  0  0  0
  131.0230  123.2520   63.0760 C   0  0  0  0  0  0  0  0  0  0  0  0
  132.2640  123.8220   62.7640 C   0  0  0  0  0  0  0  0  0  0  0  0
  133.4490  120.3640   60.6860 C   0  0  0  0  0  0  0  0  0  0  0  0
  133.0450  119.0330   60.7470 C   0  0  0  0  0  0  0  0  0  0  0  0
  1  2  1  0
  2  3  2  0
  3  4  1  0
  4  5  2  0
  5  6  1  0
  6  7  2  0
  6  8  1  0
  8  9  1  0
  9 10  1  0
 10 11  1  0
 11 12  2  0
 12 13  1  0
 14 13  1  6
 14 15  1  0
 15 16  2  0
 16 17  1  0
 17 18  1  0
 18 19  2  0
 18 20  1  0
 20 21  1  0
 21 22  1  0
 22 23  2  0
 23 24  1  0
 24 25  2  0
 25 26  1  0
 26 27  2  0
 27 28  1  0
 28 29  2  0
 29 30  1  0
 30 31  2  0
 16 32  1  0
 32 33  1  0
 33 34  1  6
 13 35  2  0
 35 36  1  0
 36 37  2  0
  5 38  1  0
 38 39  2  0
 39  2  1  0
 37  8  1  0
 37 11  1  0
 33 14  1  0
 30 21  1  0
 29 24  1  0
M  END
>  <Binding energies>  (47) 
[-10.79]

>  <Ligand effiencies>  (47) 
[-0.26975]

>  <Interactions>  (47) 
["V-A:HIS:456:CE1:4069, V-A:TYR:484:CZ:4346, V-B:GLU:543:CG:9879, V-A:ARG:545:CZ:4926, V-A:ASP:366:CG:3212, V-A:GLY:453:C:4041, V-A:ARG:545:CG:4922, V-A:GLY:453:CA:4043, V-A:TYR:539:CD1:4873, V-A:TYR:539:CE1:4875, V-B:ILE:369:CG2:8208, V-B:LEU:475:CD1:9229, V-A:ALA:541:CB:4892, V-B:ILE:369:CD1:8210, V-A:PRO:482:CG:4326, V-B:TYR:539:CE2:9848, V-B:TYR:539:CD2:9846, V-A:PRO:482:CB:4325, V-A:ILE:369:CG2:3236, V-A:LEU:475:CD1:4257, V-A:ILE:369:CD1:3238, V-B:GLU:543:CB:9878, V-A:TYR:484:CE2:4345, V-B:HIS:456:CE1:9041, V-B:TYR:484:CZ:9318, V-B:TYR:484:CE2:9317, V-A:HIS:383:CE1:3392, H-B:GLY:454:N:9021, H-B:TYR:484:OH:9319, H-B:HIS:456:NE2:9042"]

$$$$
RR26_Rahimova_2017
     RDKit          3D

 38 44  0  0  0  0  0  0  0  0999 V2000
  124.1230  124.7450   58.0850 C   0  0  0  0  0  0  0  0  0  0  0  0
  125.4230  123.9930   57.8330 C   0  0  0  0  0  0  0  0  0  0  0  0
  125.3480  122.6870   57.3360 C   0  0  0  0  0  0  0  0  0  0  0  0
  126.5050  121.9660   57.0490 C   0  0  0  0  0  0  0  0  0  0  0  0
  127.7520  122.5500   57.2500 C   0  0  0  0  0  0  0  0  0  0  0  0
  127.8410  123.8500   57.7430 C   0  0  0  0  0  0  0  0  0  0  0  0
  126.6860  124.5880   58.0470 C   0  0  0  0  0  0  0  0  0  0  0  0
  126.8710  125.9760   58.5880 C   0  0  0  0  0  0  0  0  0  0  0  0
  125.8490  126.8060   58.7820 N   0  0  0  0  0  0  0  0  0  0  0  0
  126.4470  127.8630   59.2610 C   0  0  0  0  0  0  0  0  0  0  0  0
  125.9540  129.4280   59.7930 S   0  0  0  0  0  0  0  0  0  0  0  0
  127.6750  129.8170   60.1680 C   0  0  0  0  0  0  0  0  0  0  0  0
  128.1730  130.9710   60.6660 C   0  0  0  0  0  0  0  0  0  0  0  0
  127.4470  132.1780   61.0290 C   0  0  0  0  0  0  0  0  0  0  0  0
  127.2230  133.3070   60.2570 C   0  0  0  0  0  0  0  0  0  0  0  0
  126.4560  134.1750   60.9920 N   0  0  0  0  0  0  0  0  0  0  0  0
  125.9730  135.4550   60.6140 C   0  0  0  0  0  0  0  0  0  0  0  0
  126.8250  136.5680   60.5980 C   0  0  0  0  0  0  0  0  0  0  0  0
  126.3370  137.8190   60.2290 C   0  0  0  0  0  0  0  0  0  0  0  0
  124.9990  137.9600   59.8720 C   0  0  0  0  0  0  0  0  0  0  0  0
  124.1420  136.8610   59.8810 C   0  0  0  0  0  0  0  0  0  0  0  0
  124.6260  135.6100   60.2520 C   0  0  0  0  0  0  0  0  0  0  0  0
  126.1580  133.6370   62.1850 N   0  0  0  0  0  0  0  0  0  0  0  0
  126.7430  132.4570   62.2220 C   0  0  0  0  0  0  0  0  0  0  0  0
  126.6100  131.5970   63.4410 C   0  0  0  0  0  0  0  0  0  0  0  0
  127.7300  131.3130   64.2370 C   0  0  0  0  0  0  0  0  0  0  0  0
  127.6170  130.5100   65.3730 C   0  0  0  0  0  0  0  0  0  0  0  0
  126.3760  129.9800   65.7210 C   0  0  0  0  0  0  0  0  0  0  0  0
  125.2450  130.2710   64.9440 C   0  0  0  0  0  0  0  0  0  0  0  0
  125.3620  131.0690   63.8070 C   0  0  0  0  0  0  0  0  0  0  0  0
  124.0050  129.7330   65.2270 O   0  0  0  0  0  0  0  0  0  0  0  0
  123.8690  129.2460   66.5660 C   0  0  0  0  0  0  0  0  0  0  0  0
  125.1170  128.4280   66.9760 C   0  0  0  0  0  0  0  0  0  0  0  0
  126.2990  129.2310   66.8780 O   0  0  0  0  0  0  0  0  0  0  0  0
  128.5750  128.7100   59.8560 C   0  0  0  0  0  0  0  0  0  0  0  0
  129.7980  128.6440   59.9840 O   0  0  0  0  0  0  0  0  0  0  0  0
  127.7750  127.6710   59.3570 N   0  0  0  0  0  0  0  0  0  0  0  0
  128.0640  126.4400   58.9250 N   0  0  0  0  0  0  0  0  0  0  0  0
  1  2  1  0
  2  3  2  0
  3  4  1  0
  4  5  2  0
  5  6  1  0
  6  7  2  0
  7  8  1  0
  8  9  1  0
  9 10  2  0
 10 11  1  0
 11 12  1  0
 12 13  2  0
 13 14  1  0
 14 15  2  0
 15 16  1  0
 16 17  1  0
 17 18  2  0
 18 19  1  0
 19 20  2  0
 20 21  1  0
 21 22  2  0
 16 23  1  0
 23 24  2  0
 24 25  1  0
 25 26  2  0
 26 27  1  0
 27 28  2  0
 28 29  1  0
 29 30  2  0
 29 31  1  0
 31 32  1  0
 32 33  1  0
 33 34  1  0
 12 35  1  0
 35 36  2  0
 35 37  1  0
 37 38  1  0
  7  2  1  0
 38  8  2  0
 37 10  1  0
 24 14  1  0
 30 25  1  0
 22 17  1  0
 34 28  1  0
M  END
>  <Binding energies>  (48) 
[-10.1]

>  <Ligand effiencies>  (48) 
[-0.2657894736842105]

>  <Interactions>  (48) 
["V-A:TYR:539:CD1:4873, V-A:TYR:539:CE1:4875, V-B:ILE:369:CG2:8208, V-B:ASP:366:CG:8184, V-B:LEU:475:CD1:9229, V-A:ALA:541:CB:4892, H-B:TYR:531:OH:9767, V-B:ASP:366:CB:8183, V-A:TYR:539:C:4867, V-A:GLU:543:CD:4908, V-A:GLU:543:CG:4907, V-B:PRO:540:CB:9857, V-B:PRO:540:CD:9859, V-B:PRO:540:N:9856, V-B:PRO:540:CA:9855, V-B:MET:535:CE:9807, V-B:TYR:539:CA:9841, V-B:TYR:531:CE2:9765, V-B:TYR:539:C:9839, H-B:ARG:545:NH2:9900, V-B:TYR:531:CZ:9766, V-B:LEU:363:CD1:8160, V-B:HIS:456:CE1:9041, V-B:LEU:363:CA:8156, V-B:TYR:484:CZ:9318, V-B:GLY:454:CA:9020, V-B:TYR:484:CE2:9317, V-B:ARG:545:CZ:9898, V-B:ARG:545:CG:9894, V-B:ARG:545:CD:9895, V-B:PRO:482:CB:9297, V-A:TYR:539:CB:4871, V-B:PRO:482:CG:9298, V-B:LEU:373:CD1:8251, V-B:SER:385:CB:8380, V-B:SER:385:CA:8378, H-B:GLY:454:N:9021, H-B:TYR:484:OH:9319, H-B:ARG:545:NE:9896, H-B:ARG:545:NH1:9899"]

$$$$
RR2_Rahimova_2017
     RDKit          3D

 46 50  0  0  0  0  0  0  0  0999 V2000
  133.6720  122.4540   61.0170 C   0  0  0  0  0  0  0  0  0  0  0  0
  132.6930  122.4360   59.9850 O   0  0  0  0  0  0  0  0  0  0  0  0
  132.4770  123.5800   59.2400 C   0  0  0  0  0  0  0  0  0  0  0  0
  133.0290  123.8160   57.9730 C   0  0  0  0  0  0  0  0  0  0  0  0
  132.7580  125.0020   57.2970 C   0  0  0  0  0  0  0  0  0  0  0  0
  131.9340  125.9800   57.8700 C   0  0  0  0  0  0  0  0  0  0  0  0
  131.6600  127.2670   57.1160 C   0  0  0  0  0  0  0  0  0  0  0  0
  131.0790  127.2380   56.0260 O   0  0  0  0  0  0  0  0  0  0  0  0
  132.0990  128.4030   57.7070 N   0  0  0  0  0  0  0  0  0  0  0  0
  131.9560  129.6010   57.0160 N   0  0  0  0  0  0  0  0  0  0  0  0
  132.6910  130.6580   57.4140 C   0  0  0  0  0  0  0  0  0  0  0  0
  133.3520  130.7060   58.4550 O   0  0  0  0  0  0  0  0  0  0  0  0
  132.6930  131.8590   56.4580 C   0  0  0  0  0  0  0  0  0  0  0  0
  131.0560  132.6270   56.1760 S   0  0  0  0  0  0  0  0  0  0  0  0
  130.0400  131.1880   56.0410 C   0  0  0  0  0  0  0  0  0  0  0  0
  129.7470  130.6270   54.8950 N   0  0  0  0  0  0  0  0  0  0  0  0
  128.8790  129.5750   55.1550 N   0  0  0  0  0  0  0  0  0  0  0  0
  128.7040  129.5210   56.4550 C   0  0  0  0  0  0  0  0  0  0  0  0
  127.8420  128.5020   57.1260 C   0  0  0  0  0  0  0  0  0  0  0  0
  126.5470  128.8420   57.5260 C   0  0  0  0  0  0  0  0  0  0  0  0
  125.7390  127.9020   58.1580 C   0  0  0  0  0  0  0  0  0  0  0  0
  126.2140  126.6050   58.3820 C   0  0  0  0  0  0  0  0  0  0  0  0
  125.4480  125.6200   59.0240 N   0  0  0  0  0  0  0  0  0  0  0  0
  125.4000  123.9070   58.5510 S   0  0  0  0  0  0  0  0  0  0  0  0
  125.6450  123.8800   57.1050 O   0  0  0  0  0  0  0  0  0  0  0  0
  124.1850  123.3110   59.1200 O   0  0  0  0  0  0  0  0  0  0  0  0
  126.8320  123.1660   59.3300 C   0  0  0  0  0  0  0  0  0  0  0  0
  126.9160  123.0690   60.7210 C   0  0  0  0  0  0  0  0  0  0  0  0
  128.0450  122.5040   61.3080 C   0  0  0  0  0  0  0  0  0  0  0  0
  129.0850  122.0300   60.5060 C   0  0  0  0  0  0  0  0  0  0  0  0
  130.3220  121.4270   61.1480 C   0  0  0  0  0  0  0  0  0  0  0  0
  129.0010  122.1310   59.1150 C   0  0  0  0  0  0  0  0  0  0  0  0
  127.8740  122.6980   58.5270 C   0  0  0  0  0  0  0  0  0  0  0  0
  127.5050  126.2650   57.9790 C   0  0  0  0  0  0  0  0  0  0  0  0
  128.3160  127.2070   57.3520 C   0  0  0  0  0  0  0  0  0  0  0  0
  129.4160  130.5290   57.0840 N   0  0  0  0  0  0  0  0  0  0  0  0
  129.4610  130.8440   58.4580 C   0  0  0  0  0  0  0  0  0  0  0  0
  128.9130  132.0430   58.9170 C   0  0  0  0  0  0  0  0  0  0  0  0
  128.9570  132.3450   60.2750 C   0  0  0  0  0  0  0  0  0  0  0  0
  129.5450  131.4610   61.1810 C   0  0  0  0  0  0  0  0  0  0  0  0
  129.5420  131.8480   62.5070 O   0  0  0  0  0  0  0  0  0  0  0  0
  128.5590  131.3100   63.3860 C   0  0  0  0  0  0  0  0  0  0  0  0
  130.0940  130.2570   60.7100 C   0  0  0  0  0  0  0  0  0  0  0  0
  130.0510  129.9490   59.3540 C   0  0  0  0  0  0  0  0  0  0  0  0
  131.3800  125.7350   59.1360 C   0  0  0  0  0  0  0  0  0  0  0  0
  131.6510  124.5470   59.8090 C   0  0  0  0  0  0  0  0  0  0  0  0
  1  2  1  0
  2  3  1  0
  3  4  2  0
  4  5  1  0
  5  6  2  0
  6  7  1  0
  7  8  2  0
  7  9  1  0
  9 10  1  0
 10 11  1  0
 11 12  2  0
 11 13  1  0
 13 14  1  0
 14 15  1  0
 15 16  2  0
 16 17  1  0
 17 18  2  0
 18 19  1  0
 19 20  2  0
 20 21  1  0
 21 22  2  0
 22 23  1  0
 23 24  1  0
 24 25  2  0
 24 26  2  0
 24 27  1  0
 27 28  2  0
 28 29  1  0
 29 30  2  0
 30 31  1  0
 30 32  1  0
 32 33  2  0
 22 34  1  0
 34 35  2  0
 18 36  1  0
 36 37  1  0
 37 38  2  0
 38 39  1  0
 39 40  2  0
 40 41  1  0
 41 42  1  0
 40 43  1  0
 43 44  2  0
  6 45  1  0
 45 46  2  0
 46  3  1  0
 36 15  1  0
 44 37  1  0
 35 19  1  0
 33 27  1  0
M  END
>  <Binding energies>  (49) 
[-10.87]

>  <Ligand effiencies>  (49) 
[-0.22183673469387755]

>  <Interactions>  (49) 
["V-A:ASP:366:CG:3212, V-B:ALA:541:CB:9864, V-A:TYR:539:CD1:4873, V-A:PRO:540:CB:4885, V-A:LEU:363:CD1:3188, H-A:ASP:366:OD2:3214, V-A:PRO:540:N:4884, V-A:TYR:539:CE1:4875, V-A:PRO:540:CA:4883, V-B:ASP:366:CG:8184, V-A:ALA:541:CB:4892, H-B:TYR:531:OH:9767, V-A:TYR:531:CZ:4794, V-B:ASP:366:CB:8183, H-A:ALA:541:N:4891, V-A:TYR:539:C:4867, V-A:PRO:540:CD:4887, V-A:GLU:543:CD:4908, V-A:GLU:543:CG:4907, V-B:PRO:540:CB:9857, V-B:TYR:539:CE2:9848, V-B:PRO:540:N:9856, V-B:PRO:540:CA:9855, H-B:ASP:366:OD1:8185, V-B:TYR:539:CD2:9846, V-B:TYR:539:C:9839, V-B:TYR:531:CZ:9766, V-A:ILE:369:CG2:3236, V-A:ASP:366:CB:3211, V-B:PRO:540:C:9853, V-A:ILE:369:CD1:3238, V-B:TYR:539:CZ:9849, H-A:TYR:531:OH:4795, H-A:TYR:539:N:4870, V-A:ASP:366:CA:3209, V-A:ASP:366:C:3207, H-B:ASP:366:OD2:8186, V-A:LEU:363:CG:3187"]

$$$$
RR33_Rahimova_2017
     RDKit          3D

 18 19  0  0  0  0  0  0  0  0999 V2000
  125.9300  129.6250   56.6970 C   0  0  0  0  0  0  0  0  0  0  0  0
  124.5550  129.5290   57.3640 C   0  0  0  0  0  0  0  0  0  0  0  0
  124.3920  130.6420   58.2390 O   0  0  0  0  0  0  0  0  0  0  0  0
  124.4990  130.4540   59.6030 C   0  0  0  0  0  0  0  0  0  0  0  0
  125.5640  129.6670   60.0400 C   0  0  0  0  0  0  0  0  0  0  0  0
  125.7510  129.4180   61.3970 C   0  0  0  0  0  0  0  0  0  0  0  0
  124.8730  129.9580   62.3410 C   0  0  0  0  0  0  0  0  0  0  0  0
  125.0740  129.6910   63.7980 C   0  0  0  0  0  0  0  0  0  0  0  0
  126.2110  129.4980   64.4290 N   0  0  0  0  0  0  0  0  0  0  0  0
  125.8800  129.3040   65.6960 C   0  0  0  0  0  0  0  0  0  0  0  0
  126.9400  129.0570   66.7480 C   0  0  0  0  0  0  0  0  0  0  0  0
  127.0710  127.6330   67.0200 N   0  0  0  0  0  0  0  0  0  0  0  0
  128.3030  127.3610   67.7420 C   0  0  0  0  0  0  0  0  0  0  0  0
  124.5000  129.3800   65.8340 C   0  0  0  0  0  0  0  0  0  0  0  0
  123.5270  129.2580   66.9820 C   0  0  0  0  0  0  0  0  0  0  0  0
  123.9850  129.6290   64.6080 O   0  0  0  0  0  0  0  0  0  0  0  0
  123.8060  130.7520   61.9080 C   0  0  0  0  0  0  0  0  0  0  0  0
  123.6180  131.0000   60.5500 C   0  0  0  0  0  0  0  0  0  0  0  0
  1  2  1  0
  2  3  1  0
  3  4  1  0
  4  5  2  0
  5  6  1  0
  6  7  2  0
  7  8  1  0
  8  9  2  0
  9 10  1  0
 10 11  1  0
 11 12  1  0
 12 13  1  0
 10 14  2  0
 14 15  1  0
 14 16  1  0
  7 17  1  0
 17 18  2  0
 18  4  1  0
 16  8  1  0
M  END
>  <Binding energies>  (50) 
[-5.4]

>  <Ligand effiencies>  (50) 
[-0.28421052631578947]

>  <Interactions>  (50) 
["H-B:GLU:543:OE2:9882, H-A:TYR:539:OH:4878, V-A:TYR:539:CE1:4875, V-B:ILE:369:CG2:8208, V-B:ASP:366:CG:8184, V-B:ASP:366:CA:8181, V-B:ILE:369:CD1:8210, V-B:ILE:369:CB:8207, V-B:ASP:366:CB:8183, V-B:ILE:369:CG1:8209, V-A:TYR:539:CZ:4877, V-B:ASP:366:C:8179, H-B:ARG:545:NH2:9900, V-B:TYR:531:CZ:9766, V-B:TYR:531:CE1:9764, V-B:HIS:456:CE1:9041, V-B:ARG:545:CZ:9898, V-B:ARG:545:CG:9894, V-B:ARG:545:CD:9895, H-B:GLY:454:N:9021, H-B:ARG:545:NE:9896, H-B:ARG:545:NH1:9899"]

$$$$
RR3_Rahimova_2017
     RDKit          3D

 38 44  0  0  0  0  0  0  0  0999 V2000
  126.2700  123.9400   57.2300 C   0  0  0  0  0  0  0  0  0  0  0  0
  127.4020  124.7270   57.4170 C   0  0  0  0  0  0  0  0  0  0  0  0
  127.2770  125.9900   57.9890 C   0  0  0  0  0  0  0  0  0  0  0  0
  126.0230  126.4820   58.3810 C   0  0  0  0  0  0  0  0  0  0  0  0
  125.8900  127.8400   58.9960 C   0  0  0  0  0  0  0  0  0  0  0  0
  125.3170  128.9010   58.2820 C   0  0  0  0  0  0  0  0  0  0  0  0
  125.1970  130.1650   58.8540 C   0  0  0  0  0  0  0  0  0  0  0  0
  125.6550  130.3980   60.1530 C   0  0  0  0  0  0  0  0  0  0  0  0
  125.5340  131.7560   60.7720 C   0  0  0  0  0  0  0  0  0  0  0  0
  125.1520  132.7910   60.0320 N   0  0  0  0  0  0  0  0  0  0  0  0
  125.0910  133.8250   60.8370 C   0  0  0  0  0  0  0  0  0  0  0  0
  124.7110  135.1780   60.4420 C   0  0  0  0  0  0  0  0  0  0  0  0
  123.4170  135.6360   60.2600 C   0  0  0  0  0  0  0  0  0  0  0  0
  123.4290  136.9580   59.8990 N   0  0  0  0  0  0  0  0  0  0  0  0
  124.7280  137.4130   59.8290 C   0  0  0  0  0  0  0  0  0  0  0  0
  125.2370  138.6750   59.5050 C   0  0  0  0  0  0  0  0  0  0  0  0
  126.6240  138.8220   59.5220 C   0  0  0  0  0  0  0  0  0  0  0  0
  127.4690  137.7650   59.8450 C   0  0  0  0  0  0  0  0  0  0  0  0
  126.9620  136.5080   60.1680 C   0  0  0  0  0  0  0  0  0  0  0  0
  125.5700  136.3070   60.1660 C   0  0  0  0  0  0  0  0  0  0  0  0
  125.4410  133.4730   62.1110 N   0  0  0  0  0  0  0  0  0  0  0  0
  125.7580  132.1390   62.1050 C   0  0  0  0  0  0  0  0  0  0  0  0
  126.2470  131.4160   63.3170 C   0  0  0  0  0  0  0  0  0  0  0  0
  127.4930  131.7260   63.8630 C   0  0  0  0  0  0  0  0  0  0  0  0
  127.9570  131.0460   64.9840 C   0  0  0  0  0  0  0  0  0  0  0  0
  127.1850  130.0430   65.5890 C   0  0  0  0  0  0  0  0  0  0  0  0
  127.6950  129.3000   66.7830 C   0  0  0  0  0  0  0  0  0  0  0  0
  128.4120  129.9630   67.7920 C   0  0  0  0  0  0  0  0  0  0  0  0
  128.8830  129.2720   68.9050 C   0  0  0  0  0  0  0  0  0  0  0  0
  128.6410  127.9070   69.0230 C   0  0  0  0  0  0  0  0  0  0  0  0
  127.9320  127.2300   68.0360 C   0  0  0  0  0  0  0  0  0  0  0  0
  127.4640  127.9230   66.9240 C   0  0  0  0  0  0  0  0  0  0  0  0
  125.9280  129.7530   65.0420 C   0  0  0  0  0  0  0  0  0  0  0  0
  125.4600  130.4320   63.9200 C   0  0  0  0  0  0  0  0  0  0  0  0
  126.2150  129.3440   60.8770 C   0  0  0  0  0  0  0  0  0  0  0  0
  126.3340  128.0820   60.3030 C   0  0  0  0  0  0  0  0  0  0  0  0
  124.8960  125.6710   58.1810 C   0  0  0  0  0  0  0  0  0  0  0  0
  125.0170  124.4070   57.6110 C   0  0  0  0  0  0  0  0  0  0  0  0
  1  2  2  0
  2  3  1  0
  3  4  2  0
  4  5  1  0
  5  6  2  0
  6  7  1  0
  7  8  2  0
  8  9  1  0
  9 10  1  0
 10 11  2  0
 11 12  1  0
 12 13  2  0
 13 14  1  0
 14 15  1  0
 15 16  2  0
 16 17  1  0
 17 18  2  0
 18 19  1  0
 19 20  2  0
 11 21  1  0
 21 22  1  0
 22 23  1  0
 23 24  2  0
 24 25  1  0
 25 26  2  0
 26 27  1  0
 27 28  2  0
 28 29  1  0
 29 30  2  0
 30 31  1  0
 31 32  2  0
 26 33  1  0
 33 34  2  0
  8 35  1  0
 35 36  2  0
  4 37  1  0
 37 38  2  0
 38  1  1  0
 36  5  1  0
 22  9  2  0
 34 23  1  0
 20 12  1  0
 32 27  1  0
 20 15  1  0
M  END
>  <Binding energies>  (51) 
[-9.66]

>  <Ligand effiencies>  (51) 
[-0.2415]

>  <Interactions>  (51) 
["V-A:GLU:543:C:4902, V-A:TYR:539:CD1:4873, V-A:TYR:539:CE1:4875, V-B:ILE:369:CG2:8208, V-B:ASP:366:CG:8184, V-B:LEU:475:CD1:9229, V-A:ALA:541:CB:4892, V-B:ILE:369:CB:8207, V-B:ASP:366:CB:8183, V-A:TYR:539:C:4867, V-A:GLU:543:CD:4908, V-A:GLU:543:CG:4907, V-A:TYR:539:CG:4872, V-B:MET:535:CE:9807, V-B:TYR:531:CE2:9765, V-B:TYR:531:CZ:9766, V-B:LEU:363:CD1:8160, V-B:TYR:484:CD2:9315, V-A:GLU:543:CA:4904, V-B:GLU:543:CB:9878, V-A:GLU:543:CB:4906, V-B:HIS:456:CE1:9041, V-B:TYR:484:CZ:9318, V-B:TYR:484:CE2:9317, V-B:PRO:482:CB:9297, V-A:TYR:539:CB:4871, V-B:PRO:482:CG:9298, V-B:LEU:373:CD1:8251, H-B:SER:385:OG:8381, V-B:SER:385:CB:8380, V-A:ILE:343:CG2:2991, V-B:VAL:384:C:8368, V-A:VAL:344:CG1:3000, V-B:SER:385:CA:8378, V-A:TYR:539:CA:4869, H-B:VAL:384:O:8369, V-B:PRO:482:CD:9299"]

$$$$
RR4_Rahimova_2017
     RDKit          3D

 40 44  0  0  0  0  0  0  0  0999 V2000
  130.5500  126.4110   75.1260 C   0  0  0  0  0  0  0  0  0  0  0  0
  129.6120  127.2660   74.4820 O   0  0  0  0  0  0  0  0  0  0  0  0
  129.5440  127.2750   73.1020 C   0  0  0  0  0  0  0  0  0  0  0  0
  128.7670  126.2830   72.5080 C   0  0  0  0  0  0  0  0  0  0  0  0
  128.6400  126.2150   71.1240 C   0  0  0  0  0  0  0  0  0  0  0  0
  129.2910  127.1370   70.2910 C   0  0  0  0  0  0  0  0  0  0  0  0
  129.1520  127.0600   68.7970 C   0  0  0  0  0  0  0  0  0  0  0  0
  128.1250  127.7010   68.0970 C   0  0  0  0  0  0  0  0  0  0  0  0
  128.0410  127.6020   66.7030 C   0  0  0  0  0  0  0  0  0  0  0  0
  126.9330  128.3370   66.0210 C   0  0  0  0  0  0  0  0  0  0  0  0
  127.1260  128.8700   64.7430 C   0  0  0  0  0  0  0  0  0  0  0  0
  126.0950  129.5460   64.0960 C   0  0  0  0  0  0  0  0  0  0  0  0
  124.8510  129.6960   64.7100 C   0  0  0  0  0  0  0  0  0  0  0  0
  123.8890  130.3810   63.9920 O   0  0  0  0  0  0  0  0  0  0  0  0
  124.1190  130.6630   62.6160 C   0  0  0  0  0  0  0  0  0  0  0  0
  124.6510  129.1580   65.9900 C   0  0  0  0  0  0  0  0  0  0  0  0
  125.6840  128.4820   66.6350 C   0  0  0  0  0  0  0  0  0  0  0  0
  129.0030  126.8150   66.0230 C   0  0  0  0  0  0  0  0  0  0  0  0
  128.9620  126.6790   64.5640 C   0  0  0  0  0  0  0  0  0  0  0  0
  128.9300  126.5710   63.4120 N   0  0  0  0  0  0  0  0  0  0  0  0
  129.9960  126.1710   66.7950 C   0  0  0  0  0  0  0  0  0  0  0  0
  131.2740  125.1370   66.1130 S   0  0  0  0  0  0  0  0  0  0  0  0
  131.8620  125.9200   64.5740 C   0  0  0  0  0  0  0  0  0  0  0  0
  132.1300  124.9420   63.4230 C   0  0  0  0  0  0  0  0  0  0  0  0
  132.3940  125.3600   62.2930 O   0  0  0  0  0  0  0  0  0  0  0  0
  132.0360  123.6340   63.7580 N   0  0  0  0  0  0  0  0  0  0  0  0
  132.2240  122.5130   62.9450 C   0  0  0  0  0  0  0  0  0  0  0  0
  133.7960  121.8400   62.6050 S   0  0  0  0  0  0  0  0  0  0  0  0
  133.1100  120.5980   61.6030 C   0  0  0  0  0  0  0  0  0  0  0  0
  131.7120  120.7060   61.5330 C   0  0  0  0  0  0  0  0  0  0  0  0
  131.2110  121.7810   62.3060 C   0  0  0  0  0  0  0  0  0  0  0  0
  129.7900  122.0970   62.4180 C   0  0  0  0  0  0  0  0  0  0  0  0
  128.6640  122.3480   62.5050 N   0  0  0  0  0  0  0  0  0  0  0  0
  130.8690  119.7000   60.7390 C   0  0  0  0  0  0  0  0  0  0  0  0
  131.6910  118.4300   60.4220 C   0  0  0  0  0  0  0  0  0  0  0  0
  133.0990  118.7650   59.9000 C   0  0  0  0  0  0  0  0  0  0  0  0
  133.9480  119.5030   60.9570 C   0  0  0  0  0  0  0  0  0  0  0  0
  130.0730  126.3100   68.1400 N   0  0  0  0  0  0  0  0  0  0  0  0
  130.0690  128.1350   70.8990 C   0  0  0  0  0  0  0  0  0  0  0  0
  130.1980  128.2060   72.2830 C   0  0  0  0  0  0  0  0  0  0  0  0
  1  2  1  0
  2  3  1  0
  3  4  2  0
  4  5  1  0
  5  6  2  0
  6  7  1  0
  7  8  2  0
  8  9  1  0
  9 10  1  0
 10 11  2  0
 11 12  1  0
 12 13  2  0
 13 14  1  0
 14 15  1  0
 13 16  1  0
 16 17  2  0
  9 18  2  0
 18 19  1  0
 19 20  3  0
 18 21  1  0
 21 22  1  0
 22 23  1  0
 23 24  1  0
 24 25  2  0
 24 26  1  0
 26 27  1  0
 27 28  1  0
 28 29  1  0
 29 30  2  0
 30 31  1  0
 31 32  1  0
 32 33  3  0
 30 34  1  0
 34 35  1  0
 35 36  1  0
 36 37  1  0
 21 38  2  0
  6 39  1  0
 39 40  2  0
 40  3  1  0
 38  7  1  0
 17 10  1  0
 31 27  2  0
 37 29  1  0
M  END
>  <Binding energies>  (52) 
[-10.24]

>  <Ligand effiencies>  (52) 
[-0.2497560975609756]

>  <Interactions>  (52) 
["H-A:LYS:547:NZ:4951, V-B:HIS:456:CD2:9039, V-A:GLU:543:C:4902, V-A:HIS:456:CE1:4069, H-A:ARG:545:NH2:4928, H-B:ALA:541:N:9863, V-A:ARG:545:CZ:4926, H-A:TYR:484:OH:4347, V-B:GLU:543:CD:9880, V-B:ALA:541:CB:9864, V-B:ILE:369:CD1:8210, V-A:GLU:543:CD:4908, V-B:TYR:539:CD2:9846, V-A:GLY:454:CA:4048, V-A:ILE:369:CG2:3236, V-A:LEU:475:CD1:4257, V-A:SER:385:C:3404, V-A:SER:385:CA:3406, V-B:HIS:456:CE1:9041, V-B:ARG:545:CZ:9898, V-B:ARG:545:CG:9894, V-B:ARG:545:CD:9895, V-A:HIS:383:CD2:3391, H-B:GLY:454:N:9021"]

$$$$
RR6_Rahimova_2017
     RDKit          3D

 38 41  0  0  0  0  0  0  0  0999 V2000
  133.6050  125.5090   66.1310 C   0  0  0  0  0  0  0  0  0  0  0  0
  133.9680  125.3090   64.7730 O   0  0  0  0  0  0  0  0  0  0  0  0
  133.1150  124.7120   63.9020 C   0  0  0  0  0  0  0  0  0  0  0  0
  133.3550  123.6360   63.3440 O   0  0  0  0  0  0  0  0  0  0  0  0
  131.8480  125.4890   63.6840 C   0  0  0  0  0  0  0  0  0  0  0  0
  130.8030  125.4850   64.6200 C   0  0  0  0  0  0  0  0  0  0  0  0
  129.6370  126.2100   64.3850 C   0  0  0  0  0  0  0  0  0  0  0  0
  129.4960  126.9520   63.2030 C   0  0  0  0  0  0  0  0  0  0  0  0
  128.3530  127.6960   62.8540 N   0  0  0  0  0  0  0  0  0  0  0  0
  127.1150  127.2610   62.5320 C   0  0  0  0  0  0  0  0  0  0  0  0
  126.7580  126.0830   62.4990 O   0  0  0  0  0  0  0  0  0  0  0  0
  126.1180  128.3500   62.1220 C   0  0  0  0  0  0  0  0  0  0  0  0
  126.1510  129.8200   63.2010 S   0  0  0  0  0  0  0  0  0  0  0  0
  126.8280  131.1530   62.2330 C   0  0  0  0  0  0  0  0  0  0  0  0
  128.0640  130.9090   61.7360 N   0  0  0  0  0  0  0  0  0  0  0  0
  128.6720  131.8390   60.9580 C   0  0  0  0  0  0  0  0  0  0  0  0
  130.0130  131.4660   60.3970 C   0  0  0  0  0  0  0  0  0  0  0  0
  131.0790  131.1210   61.2420 C   0  0  0  0  0  0  0  0  0  0  0  0
  132.3270  130.7880   60.7210 C   0  0  0  0  0  0  0  0  0  0  0  0
  132.5310  130.7890   59.3420 C   0  0  0  0  0  0  0  0  0  0  0  0
  133.8950  130.4340   58.7800 C   0  0  0  0  0  0  0  0  0  0  0  0
  131.4850  131.1260   58.4860 C   0  0  0  0  0  0  0  0  0  0  0  0
  130.2400  131.4580   59.0110 C   0  0  0  0  0  0  0  0  0  0  0  0
  128.0420  133.0550   60.6730 C   0  0  0  0  0  0  0  0  0  0  0  0
  126.7650  133.3330   61.1790 C   0  0  0  0  0  0  0  0  0  0  0  0
  126.1440  134.6420   60.8210 C   0  0  0  0  0  0  0  0  0  0  0  0
  126.8500  135.8330   61.0190 C   0  0  0  0  0  0  0  0  0  0  0  0
  126.2840  137.0570   60.6720 C   0  0  0  0  0  0  0  0  0  0  0  0
  125.0070  137.1150   60.1170 C   0  0  0  0  0  0  0  0  0  0  0  0
  124.5280  138.3720   59.8020 O   0  0  0  0  0  0  0  0  0  0  0  0
  125.3750  139.2850   59.1130 C   0  0  0  0  0  0  0  0  0  0  0  0
  124.2960  135.9230   59.9110 C   0  0  0  0  0  0  0  0  0  0  0  0
  124.8650  134.7000   60.2580 C   0  0  0  0  0  0  0  0  0  0  0  0
  126.1360  132.3560   61.9910 C   0  0  0  0  0  0  0  0  0  0  0  0
  124.8130  132.5940   62.5770 C   0  0  0  0  0  0  0  0  0  0  0  0
  123.7680  132.7810   63.0370 N   0  0  0  0  0  0  0  0  0  0  0  0
  130.5410  126.9730   62.2780 C   0  0  0  0  0  0  0  0  0  0  0  0
  131.7040  126.2450   62.5130 C   0  0  0  0  0  0  0  0  0  0  0  0
  1  2  1  0
  2  3  1  0
  3  4  2  0
  3  5  1  0
  5  6  2  0
  6  7  1  0
  7  8  2  0
  8  9  1  0
  9 10  1  0
 10 11  2  0
 10 12  1  0
 12 13  1  0
 13 14  1  0
 14 15  2  0
 15 16  1  0
 16 17  1  0
 17 18  2  0
 18 19  1  0
 19 20  2  0
 20 21  1  0
 20 22  1  0
 22 23  2  0
 16 24  2  0
 24 25  1  0
 25 26  1  0
 26 27  2  0
 27 28  1  0
 28 29  2  0
 29 30  1  0
 30 31  1  0
 29 32  1  0
 32 33  2  0
 25 34  2  0
 34 35  1  0
 35 36  3  0
  8 37  1  0
 37 38  2  0
 38  5  1  0
 34 14  1  0
 23 17  1  0
 33 26  1  0
M  END
>  <Binding energies>  (53) 
[-9.58]

>  <Ligand effiencies>  (53) 
[-0.24564102564102563]

>  <Interactions>  (53) 
["H-A:GLY:454:N:4049, H-A:ARG:545:NH2:4928, V-A:ARG:545:CZ:4926, V-A:ASP:366:CG:3212, H-A:TYR:484:OH:4347, V-B:GLU:543:CD:9880, H-A:ARG:545:NE:4924, V-A:ARG:545:CD:4923, V-A:ARG:545:CG:4922, V-A:TYR:539:CD1:4873, V-A:PRO:540:CB:4885, V-A:LEU:363:CD1:3188, V-A:PRO:540:N:4884, V-A:TYR:539:CE1:4875, V-A:PRO:540:CA:4883, V-B:ILE:369:CG2:8208, V-B:ASP:366:CG:8184, V-B:LEU:475:CD1:9229, V-A:ALA:541:CB:4892, V-B:ILE:369:CD1:8210, V-A:TYR:539:C:4867, V-A:GLU:543:CD:4908, H-A:GLU:543:OE1:4909, H-B:ARG:545:NH2:9900, V-A:ASP:366:CB:3211, V-A:LEU:363:CA:3184, V-A:ASN:362:C:3171, V-A:LEU:363:CB:3186, H-A:ARG:545:NH1:4927, V-B:PRO:482:CB:9297, V-A:TYR:539:CB:4871, V-B:PRO:482:CG:9298, V-B:LEU:373:CD1:8251, H-B:SER:385:OG:8381, V-B:SER:385:CB:8380, V-A:ILE:343:CG2:2991, V-B:HIS:383:CE1:8365, V-B:LEU:373:CD2:8252, H-B:GLY:454:N:9021"]

$$$$
RR7_Rahimova_2017
     RDKit          3D

 47 53  0  0  0  0  0  0  0  0999 V2000
  124.8680  122.1210   54.7990 C   0  0  0  0  0  0  0  0  0  0  0  0
  124.9310  121.8010   56.1850 O   0  0  0  0  0  0  0  0  0  0  0  0
  125.9280  122.3610   56.9600 C   0  0  0  0  0  0  0  0  0  0  0  0
  127.2060  121.8260   56.8130 C   0  0  0  0  0  0  0  0  0  0  0  0
  128.2750  122.3290   57.5480 C   0  0  0  0  0  0  0  0  0  0  0  0
  128.0870  123.3770   58.4610 C   0  0  0  0  0  0  0  0  0  0  0  0
  129.2740  123.9830   59.2740 C   0  0  0  0  0  0  0  0  0  0  0  0
  128.7260  125.0840   60.0330 O   0  0  0  0  0  0  0  0  0  0  0  0
  128.9300  126.4300   59.5920 C   0  0  0  0  0  0  0  0  0  0  0  0
  130.2240  126.9720   60.2200 C   0  0  1  0  0  0  0  0  0  0  0  0
  130.2840  128.3620   59.9080 O   0  0  0  0  0  0  0  0  0  0  0  0
  130.3380  129.1550   61.0580 C   0  0  1  0  0  0  0  0  0  0  0  0
  129.6500  130.4110   60.8310 N   0  0  0  0  0  0  0  0  0  0  0  0
  130.2030  131.6410   60.5200 C   0  0  0  0  0  0  0  0  0  0  0  0
  129.3490  132.6290   60.4130 N   0  0  0  0  0  0  0  0  0  0  0  0
  128.1440  132.0540   60.7130 C   0  0  0  0  0  0  0  0  0  0  0  0
  126.8400  132.5810   60.7890 C   0  0  0  0  0  0  0  0  0  0  0  0
  126.6460  133.9460   60.5050 N   0  0  0  0  0  0  0  0  0  0  0  0
  125.5220  134.6900   60.6270 C   0  0  0  0  0  0  0  0  0  0  0  0
  124.4350  134.2490   61.0100 O   0  0  0  0  0  0  0  0  0  0  0  0
  125.6520  136.1440   60.2250 C   0  0  0  0  0  0  0  0  0  0  0  0
  124.5040  136.8730   59.8780 C   0  0  0  0  0  0  0  0  0  0  0  0
  124.6000  138.2120   59.5110 C   0  0  0  0  0  0  0  0  0  0  0  0
  125.8430  138.8350   59.4920 C   0  0  0  0  0  0  0  0  0  0  0  0
  126.9940  138.1310   59.8370 C   0  0  0  0  0  0  0  0  0  0  0  0
  126.8990  136.7900   60.2040 C   0  0  0  0  0  0  0  0  0  0  0  0
  125.8060  131.7570   61.1370 N   0  0  0  0  0  0  0  0  0  0  0  0
  126.0930  130.4550   61.3980 C   0  0  0  0  0  0  0  0  0  0  0  0
  127.3070  129.8440   61.3510 N   0  0  0  0  0  0  0  0  0  0  0  0
  128.2990  130.6730   61.0010 C   0  0  0  0  0  0  0  0  0  0  0  0
  129.7490  128.2910   62.1680 C   0  0  0  0  0  0  0  0  0  0  0  0
  130.2710  126.9260   61.7540 C   0  0  2  0  0  0  0  0  0  0  0  0
  131.5770  126.6830   62.2480 O   0  0  0  0  0  0  0  0  0  0  0  0
  129.8630  122.9760   60.2970 C   0  0  0  0  0  0  0  0  0  0  0  0
  130.2860  121.7050   59.8770 C   0  0  0  0  0  0  0  0  0  0  0  0
  130.8030  120.7890   60.7880 C   0  0  0  0  0  0  0  0  0  0  0  0
  130.9020  121.1360   62.1320 C   0  0  0  0  0  0  0  0  0  0  0  0
  130.4890  122.3900   62.5710 C   0  0  0  0  0  0  0  0  0  0  0  0
  129.9710  123.3050   61.6590 C   0  0  0  0  0  0  0  0  0  0  0  0
  130.4840  124.4830   58.4350 C   0  0  0  0  0  0  0  0  0  0  0  0
  130.2790  125.1010   57.1910 C   0  0  0  0  0  0  0  0  0  0  0  0
  131.3560  125.5420   56.4290 C   0  0  0  0  0  0  0  0  0  0  0  0
  132.6540  125.3620   56.8990 C   0  0  0  0  0  0  0  0  0  0  0  0
  132.8810  124.7400   58.1230 C   0  0  0  0  0  0  0  0  0  0  0  0
  131.8020  124.2990   58.8840 C   0  0  0  0  0  0  0  0  0  0  0  0
  126.8020  123.9220   58.5950 C   0  0  0  0  0  0  0  0  0  0  0  0
  125.7330  123.4190   57.8590 C   0  0  0  0  0  0  0  0  0  0  0  0
  1  2  1  0
  2  3  1  0
  3  4  2  0
  4  5  1  0
  5  6  2  0
  6  7  1  0
  7  8  1  0
  8  9  1  0
 10  9  1  1
 10 11  1  0
 11 12  1  0
 12 13  1  6
 13 14  1  0
 14 15  2  0
 15 16  1  0
 16 17  2  0
 17 18  1  0
 18 19  1  0
 19 20  2  0
 19 21  1  0
 21 22  2  0
 22 23  1  0
 23 24  2  0
 24 25  1  0
 25 26  2  0
 17 27  1  0
 27 28  2  0
 28 29  1  0
 29 30  2  0
 12 31  1  0
 31 32  1  0
 32 33  1  6
  7 34  1  0
 34 35  2  0
 35 36  1  0
 36 37  2  0
 37 38  1  0
 38 39  2  0
  7 40  1  0
 40 41  2  0
 41 42  1  0
 42 43  2  0
 43 44  1  0
 44 45  2  0
  6 46  1  0
 46 47  2  0
 47  3  1  0
 32 10  1  0
 39 34  1  0
 45 40  1  0
 30 13  1  0
 30 16  1  0
 26 21  1  0
M  END
>  <Binding energies>  (54) 
[-11.24]

>  <Ligand effiencies>  (54) 
[-0.22938775510204082]

>  <Interactions>  (54) 
["H-A:ARG:545:NH2:4928, V-A:ASP:366:CG:3212, V-B:ALA:541:CB:9864, V-A:TYR:539:CD1:4873, H-A:GLU:543:OE2:4910, H-A:ASP:366:OD2:3214, V-A:TYR:539:CE1:4875, V-A:PRO:540:CA:4883, V-B:ILE:369:CG2:8208, H-A:ALA:541:N:4891, V-A:TYR:539:C:4867, V-A:GLU:543:CD:4908, V-A:TYR:539:CG:4872, V-B:PRO:540:CB:9857, V-B:TYR:539:CE2:9848, V-B:PRO:540:CD:9859, V-B:PRO:540:N:9856, V-B:PRO:540:CA:9855, V-B:MET:535:CE:9807, V-B:TYR:539:CA:9841, V-B:TYR:539:CD2:9846, V-B:TYR:531:CE2:9765, V-B:TYR:539:C:9839, V-B:LEU:363:CD1:8160, V-A:ASP:366:CB:3211, V-A:LEU:475:CD1:4257, V-B:TYR:539:CG:9844, V-B:TYR:539:CZ:9849, V-A:PRO:540:C:4881, V-A:ASP:366:CA:3209, H-A:ASP:366:OD1:3213, V-A:ASP:366:C:3207, V-B:TYR:539:CE1:9847, V-B:TYR:539:CD1:9845, V-B:ILE:538:CG2:9835, V-B:ILE:538:CA:9832, H-A:TYR:539:O:4868, V-B:PRO:482:CB:9297, V-A:TYR:539:CB:4871, V-B:PRO:482:CG:9298, V-B:LEU:373:CD1:8251, H-B:SER:385:OG:8381, V-B:SER:385:CB:8380, V-A:ILE:343:CG2:2991, V-A:VAL:344:CG1:3000, V-B:SER:385:CA:8378, V-B:LEU:373:CD2:8252, V-B:MET:535:CG:9805, V-B:ILE:538:CB:9834, V-B:ILE:538:CG1:9836, V-B:MET:535:CB:9804"]

$$$$
RR8_A_Rahimova_2017
     RDKit          3D

 42 46  0  0  0  0  0  0  0  0999 V2000
  127.6750  126.3780   61.9840 O   0  0  0  0  0  0  0  0  0  0  0  0
  127.0080  127.4040   62.1540 C   0  0  0  0  0  0  0  0  0  0  0  0
  126.7930  127.9940   63.3710 O   0  0  0  0  0  0  0  0  0  0  0  0
  127.5470  129.1330   63.6810 C   0  0  1  0  0  0  0  0  0  0  0  0
  128.2570  129.6000   62.5710 O   0  0  0  0  0  0  0  0  0  0  0  0
  128.2870  131.0240   62.5210 C   0  0  2  0  0  0  0  0  0  0  0  0
  129.7540  131.4820   62.4610 C   0  0  0  0  0  0  0  0  0  0  0  0
  130.0410  131.9300   61.1430 O   0  0  0  0  0  0  0  0  0  0  0  0
  130.6380  130.9420   60.3140 C   0  0  0  0  0  0  0  0  0  0  0  0
  130.6180  131.4040   58.8650 C   0  0  0  0  0  0  0  0  0  0  0  0
  131.7920  131.3740   58.1070 C   0  0  0  0  0  0  0  0  0  0  0  0
  131.7750  131.7910   56.7780 C   0  0  0  0  0  0  0  0  0  0  0  0
  130.5820  132.2330   56.2090 C   0  0  0  0  0  0  0  0  0  0  0  0
  129.4060  132.2600   56.9550 C   0  0  0  0  0  0  0  0  0  0  0  0
  129.4230  131.8430   58.2830 C   0  0  0  0  0  0  0  0  0  0  0  0
  127.5120  131.4490   63.7750 C   0  0  1  0  0  0  0  0  0  0  0  0
  126.6830  132.5900   63.5620 O   0  0  0  0  0  0  0  0  0  0  0  0
  125.8530  132.5420   62.4070 C   0  0  0  0  0  0  0  0  0  0  0  0
  125.9130  133.8720   61.6690 C   0  0  0  0  0  0  0  0  0  0  0  0
  127.0480  134.6800   61.7870 C   0  0  0  0  0  0  0  0  0  0  0  0
  127.1060  135.9010   61.1230 C   0  0  0  0  0  0  0  0  0  0  0  0
  126.0270  136.3160   60.3430 C   0  0  0  0  0  0  0  0  0  0  0  0
  124.8900  135.5210   60.2260 C   0  0  0  0  0  0  0  0  0  0  0  0
  124.8310  134.2990   60.8920 C   0  0  0  0  0  0  0  0  0  0  0  0
  126.5970  130.2680   64.0390 C   0  0  2  0  0  0  0  0  0  0  0  0
  126.1740  130.2540   65.4000 O   0  0  0  0  0  0  0  0  0  0  0  0
  125.9670  128.9660   65.9680 C   0  0  0  0  0  0  0  0  0  0  0  0
  127.0940  128.6390   66.9360 C   0  0  0  0  0  0  0  0  0  0  0  0
  127.9590  129.6460   67.3750 C   0  0  0  0  0  0  0  0  0  0  0  0
  128.9830  129.3440   68.2690 C   0  0  0  0  0  0  0  0  0  0  0  0
  129.1380  128.0360   68.7250 C   0  0  0  0  0  0  0  0  0  0  0  0
  128.2770  127.0280   68.2970 C   0  0  0  0  0  0  0  0  0  0  0  0
  127.2520  127.3300   67.4020 C   0  0  0  0  0  0  0  0  0  0  0  0
  126.3510  128.1470   61.0270 C   0  0  0  0  0  0  0  0  0  0  0  0
  125.5210  129.2560   61.2540 C   0  0  0  0  0  0  0  0  0  0  0  0
  124.9250  129.9240   60.1870 C   0  0  0  0  0  0  0  0  0  0  0  0
  125.1410  129.5000   58.8690 C   0  0  0  0  0  0  0  0  0  0  0  0
  124.5060  130.2130   57.7340 N   0  0  0  0  0  0  0  0  0  0  0  0
  124.7270  129.8160   56.5930 O   0  0  0  0  0  0  0  0  0  0  0  0
  123.7820  131.1740   57.9740 O   0  0  0  0  0  0  0  0  0  0  0  0
  125.9660  128.3910   58.6450 C   0  0  0  0  0  0  0  0  0  0  0  0
  126.5630  127.7230   59.7090 C   0  0  0  0  0  0  0  0  0  0  0  0
  1  2  2  0
  2  3  1  0
  4  3  1  6
  4  5  1  0
  5  6  1  0
  6  7  1  1
  7  8  1  0
  8  9  1  0
  9 10  1  0
 10 11  2  0
 11 12  1  0
 12 13  2  0
 13 14  1  0
 14 15  2  0
  6 16  1  0
 16 17  1  6
 17 18  1  0
 18 19  1  0
 19 20  2  0
 20 21  1  0
 21 22  2  0
 22 23  1  0
 23 24  2  0
 16 25  1  0
 25 26  1  1
 26 27  1  0
 27 28  1  0
 28 29  2  0
 29 30  1  0
 30 31  2  0
 31 32  1  0
 32 33  2  0
  2 34  1  0
 34 35  2  0
 35 36  1  0
 36 37  2  0
 37 38  1  0
 38 39  2  0
 38 40  1  0
 37 41  1  0
 41 42  2  0
 25  4  1  0
 33 28  1  0
 42 34  1  0
 15 10  1  0
 24 19  1  0
M  CHG  2  38   1  40  -1
M  END
>  <Binding energies>  (55) 
[-9.74]

>  <Ligand effiencies>  (55) 
[-0.23190476190476192]

>  <Interactions>  (55) 
["V-A:GLU:543:C:4902, V-B:GLU:543:CD:9880, V-A:TYR:539:CD1:4873, H-A:TYR:539:OH:4878, V-A:PRO:540:CB:4885, V-A:ILE:538:CB:4862, V-A:LEU:363:CD1:3188, V-A:PRO:540:N:4884, V-A:TYR:539:CE1:4875, V-A:PRO:540:CA:4883, V-B:ILE:369:CG2:8208, V-B:ASP:366:CG:8184, V-B:ASP:366:CA:8181, V-B:LEU:475:CD1:9229, V-A:ALA:541:CB:4892, H-B:TYR:531:OH:9767, V-B:ASP:366:CB:8183, H-A:ALA:541:N:4891, V-A:TYR:539:C:4867, V-A:PRO:540:CD:4887, V-A:GLU:543:CD:4908, V-A:ALA:541:CA:4890, V-A:TYR:539:CZ:4877, V-A:GLU:543:CG:4907, V-A:TYR:539:CG:4872, V-B:ASP:366:C:8179, H-B:ARG:545:NH2:9900, V-A:GLU:543:CA:4904, V-B:GLU:543:CB:9878, V-A:GLU:543:CB:4906, V-B:HIS:456:CE1:9041, V-B:TYR:484:CZ:9318, V-B:TYR:484:CE2:9317, V-B:ARG:545:CZ:9898, V-B:PRO:482:CB:9297, V-A:TYR:539:CB:4871, V-B:PRO:482:CG:9298, V-B:LEU:373:CD1:8251, V-B:SER:385:CB:8380, H-B:TYR:484:OH:9319, V-A:TYR:539:CA:4869"]

$$$$
RR8_B_Rahimova_2017
     RDKit          3D

 42 46  0  0  0  0  0  0  0  0999 V2000
  129.5140  132.6270   56.4270 O   0  0  0  0  0  0  0  0  0  0  0  0
  129.2510  131.6780   57.1730 C   0  0  0  0  0  0  0  0  0  0  0  0
  128.7090  131.8050   58.4220 O   0  0  0  0  0  0  0  0  0  0  0  0
  129.5520  132.2020   59.4750 C   0  0  2  0  0  0  0  0  0  0  0  0
  130.3960  131.1650   59.8880 O   0  0  0  0  0  0  0  0  0  0  0  0
  129.8120  130.4070   60.9470 C   0  0  2  0  0  0  0  0  0  0  0  0
  129.7000  128.9320   60.5220 C   0  0  0  0  0  0  0  0  0  0  0  0
  128.3280  128.5590   60.4850 O   0  0  0  0  0  0  0  0  0  0  0  0
  127.8020  128.3410   59.1840 C   0  0  0  0  0  0  0  0  0  0  0  0
  126.5040  129.1180   59.0320 C   0  0  0  0  0  0  0  0  0  0  0  0
  125.9230  129.2580   57.7680 C   0  0  0  0  0  0  0  0  0  0  0  0
  124.7470  129.9890   57.6180 C   0  0  0  0  0  0  0  0  0  0  0  0
  124.1540  130.5760   58.7350 C   0  0  0  0  0  0  0  0  0  0  0  0
  124.7230  130.4350   59.9980 C   0  0  0  0  0  0  0  0  0  0  0  0
  125.9010  129.7070   60.1480 C   0  0  0  0  0  0  0  0  0  0  0  0
  128.4810  131.1150   61.2310 C   0  0  1  0  0  0  0  0  0  0  0  0
  128.1950  131.0670   62.6310 O   0  0  0  0  0  0  0  0  0  0  0  0
  128.1150  129.7740   63.2350 C   0  0  0  0  0  0  0  0  0  0  0  0
  126.8830  129.6260   64.1230 C   0  0  0  0  0  0  0  0  0  0  0  0
  125.6300  130.0370   63.6580 C   0  0  0  0  0  0  0  0  0  0  0  0
  124.5030  129.8710   64.4590 C   0  0  0  0  0  0  0  0  0  0  0  0
  124.6330  129.2990   65.7230 C   0  0  0  0  0  0  0  0  0  0  0  0
  125.8790  128.8920   66.1950 C   0  0  0  0  0  0  0  0  0  0  0  0
  127.0070  129.0540   65.3930 C   0  0  0  0  0  0  0  0  0  0  0  0
  128.7100  132.5280   60.7080 C   0  0  2  0  0  0  0  0  0  0  0  0
  127.4650  133.1530   60.4050 O   0  0  0  0  0  0  0  0  0  0  0  0
  126.8460  133.8420   61.4800 C   0  0  0  0  0  0  0  0  0  0  0  0
  126.1110  135.0440   60.9150 C   0  0  0  0  0  0  0  0  0  0  0  0
  124.8040  134.9120   60.4360 C   0  0  0  0  0  0  0  0  0  0  0  0
  124.1460  136.0170   59.9020 C   0  0  0  0  0  0  0  0  0  0  0  0
  124.7960  137.2480   59.8470 C   0  0  0  0  0  0  0  0  0  0  0  0
  126.0980  137.3870   60.3240 C   0  0  0  0  0  0  0  0  0  0  0  0
  126.7560  136.2840   60.8590 C   0  0  0  0  0  0  0  0  0  0  0  0
  129.5300  130.2480   56.8120 C   0  0  0  0  0  0  0  0  0  0  0  0
  130.6030  129.5390   57.3740 C   0  0  0  0  0  0  0  0  0  0  0  0
  130.8430  128.2180   57.0140 C   0  0  0  0  0  0  0  0  0  0  0  0
  130.0260  127.5740   56.0770 C   0  0  0  0  0  0  0  0  0  0  0  0
  130.3000  126.1720   55.6750 N   0  0  0  0  0  0  0  0  0  0  0  0
  131.2640  125.9460   54.9490 O   0  0  0  0  0  0  0  0  0  0  0  0
  129.5550  125.2860   56.0870 O   0  0  0  0  0  0  0  0  0  0  0  0
  128.9510  128.2800   55.5210 C   0  0  0  0  0  0  0  0  0  0  0  0
  128.7050  129.5990   55.8860 C   0  0  0  0  0  0  0  0  0  0  0  0
  1  2  2  0
  2  3  1  0
  4  3  1  6
  4  5  1  0
  5  6  1  0
  6  7  1  6
  7  8  1  0
  8  9  1  0
  9 10  1  0
 10 11  2  0
 11 12  1  0
 12 13  2  0
 13 14  1  0
 14 15  2  0
  6 16  1  0
 16 17  1  1
 17 18  1  0
 18 19  1  0
 19 20  2  0
 20 21  1  0
 21 22  2  0
 22 23  1  0
 23 24  2  0
 16 25  1  0
 25 26  1  6
 26 27  1  0
 27 28  1  0
 28 29  2  0
 29 30  1  0
 30 31  2  0
 31 32  1  0
 32 33  2  0
  2 34  1  0
 34 35  2  0
 35 36  1  0
 36 37  2  0
 37 38  1  0
 38 39  2  0
 38 40  1  0
 37 41  1  0
 41 42  2  0
 25  4  1  0
 33 28  1  0
 42 34  1  0
 15 10  1  0
 24 19  1  0
M  CHG  2  38   1  40  -1
M  END
>  <Binding energies>  (56) 
[-9.67]

>  <Ligand effiencies>  (56) 
[-0.23023809523809524]

>  <Interactions>  (56) 
["V-A:TYR:539:CD1:4873, V-A:PRO:540:N:4884, V-A:TYR:539:CE1:4875, V-A:PRO:540:CA:4883, V-B:ILE:369:CG2:8208, V-B:ASP:366:CG:8184, V-B:ASP:366:CA:8181, V-B:LEU:475:CD1:9229, V-A:ALA:541:CB:4892, V-B:ILE:369:CB:8207, V-B:ASP:366:CB:8183, V-A:TYR:539:C:4867, V-A:GLU:543:CD:4908, V-A:TYR:539:CZ:4877, V-B:ASP:366:C:8179, V-B:HIS:456:CE1:9041, H-B:TYR:539:OH:9850, H-A:TYR:531:OH:4795, V-A:PRO:540:C:4881, V-B:GLY:454:CA:9020, V-B:ARG:545:CZ:9898, V-B:ARG:545:CD:9895, H-A:TYR:539:N:4870, V-B:PRO:482:CB:9297, V-A:TYR:539:CB:4871, V-B:PRO:482:CG:9298, V-B:LEU:373:CD1:8251, V-B:SER:385:CB:8380, V-B:SER:385:CA:8378"]

$$$$
RR9_Rahimova_2017
     RDKit          3D

 36 40  0  0  0  0  0  0  0  0999 V2000
  130.8990  128.4390   72.6780 C   0  0  0  0  0  0  0  0  0  0  0  0
  129.6500  127.5580   72.5740 C   0  0  0  0  0  0  0  0  0  0  0  0
  129.7540  126.7530   71.4040 O   0  0  0  0  0  0  0  0  0  0  0  0
  129.2050  127.2050   70.2190 C   0  0  0  0  0  0  0  0  0  0  0  0
  128.4220  126.2960   69.5090 C   0  0  0  0  0  0  0  0  0  0  0  0
  127.8300  126.6610   68.3040 C   0  0  0  0  0  0  0  0  0  0  0  0
  128.0040  127.9480   67.7740 C   0  0  0  0  0  0  0  0  0  0  0  0
  127.3720  128.3460   66.4730 C   0  0  0  0  0  0  0  0  0  0  0  0
  127.8390  127.8490   65.2460 C   0  0  0  0  0  0  0  0  0  0  0  0
  127.2340  128.2150   64.0300 C   0  0  0  0  0  0  0  0  0  0  0  0
  127.7150  127.5710   62.7580 C   0  0  0  0  0  0  0  0  0  0  0  0
  128.4970  128.1650   62.0160 O   0  0  0  0  0  0  0  0  0  0  0  0
  127.2180  126.3450   62.4980 N   0  0  0  0  0  0  0  0  0  0  0  0
  127.4310  125.5740   61.2690 C   0  0  0  0  0  0  0  0  0  0  0  0
  126.3790  124.4610   61.0620 C   0  0  0  0  0  0  0  0  0  0  0  0
  126.3990  123.8130   59.6820 C   0  0  0  0  0  0  0  0  0  0  0  0
  127.5420  123.1400   59.2390 C   0  0  0  0  0  0  0  0  0  0  0  0
  127.5450  122.5210   57.9920 C   0  0  0  0  0  0  0  0  0  0  0  0
  126.4070  122.5810   57.1900 C   0  0  0  0  0  0  0  0  0  0  0  0
  125.2660  123.2540   57.6220 C   0  0  0  0  0  0  0  0  0  0  0  0
  125.2630  123.8720   58.8700 C   0  0  0  0  0  0  0  0  0  0  0  0
  126.1580  129.1330   64.1150 C   0  0  0  0  0  0  0  0  0  0  0  0
  125.2560  129.8340   63.2330 C   0  0  0  0  0  0  0  0  0  0  0  0
  125.2210  129.8650   61.7410 C   0  0  0  0  0  0  0  0  0  0  0  0
  125.6670  128.7650   61.0030 C   0  0  0  0  0  0  0  0  0  0  0  0
  125.6490  128.8020   59.6110 C   0  0  0  0  0  0  0  0  0  0  0  0
  125.1810  129.9390   58.9510 C   0  0  0  0  0  0  0  0  0  0  0  0
  125.1780  129.9880   57.4340 C   0  0  0  0  0  0  0  0  0  0  0  0
  124.7360  131.0410   59.6840 C   0  0  0  0  0  0  0  0  0  0  0  0
  124.7530  131.0010   61.0750 C   0  0  0  0  0  0  0  0  0  0  0  0
  124.3880  130.5380   63.9250 N   0  0  0  0  0  0  0  0  0  0  0  0
  124.6880  130.3990   65.2270 N   0  0  0  0  0  0  0  0  0  0  0  0
  125.7650  129.5630   65.4050 C   0  0  0  0  0  0  0  0  0  0  0  0
  126.3250  129.2140   66.5620 N   0  0  0  0  0  0  0  0  0  0  0  0
  128.7940  128.8560   68.4930 C   0  0  0  0  0  0  0  0  0  0  0  0
  129.3870  128.4940   69.7010 C   0  0  0  0  0  0  0  0  0  0  0  0
  1  2  1  0
  2  3  1  0
  3  4  1  0
  4  5  2  0
  5  6  1  0
  6  7  2  0
  7  8  1  0
  8  9  2  0
  9 10  1  0
 10 11  1  0
 11 12  2  0
 11 13  1  0
 13 14  1  0
 14 15  1  0
 15 16  1  0
 16 17  2  0
 17 18  1  0
 18 19  2  0
 19 20  1  0
 20 21  2  0
 10 22  2  0
 22 23  1  0
 23 24  1  0
 24 25  2  0
 25 26  1  0
 26 27  2  0
 27 28  1  0
 27 29  1  0
 29 30  2  0
 23 31  2  0
 31 32  1  0
 32 33  1  0
 33 34  2  0
  7 35  1  0
 35 36  2  0
 36  4  1  0
 34  8  1  0
 21 16  1  0
 33 22  1  0
 30 24  1  0
M  END
>  <Binding energies>  (57) 
[-9.15]

>  <Ligand effiencies>  (57) 
[-0.24078947368421053]

>  <Interactions>  (57) 
["V-A:GLY:544:CA:4914, V-A:LYS:547:CE:4950, V-A:GLU:543:C:4902, V-A:HIS:456:CE1:4069, H-A:HIS:456:ND1:4066, V-B:GLU:543:CD:9880, H-B:GLU:543:OE1:9881, H-B:GLU:543:OE2:9882, V-A:TYR:539:CE1:4875, V-B:ILE:369:CG2:8208, V-B:ASP:366:CG:8184, V-B:ASP:366:CB:8183, V-A:GLU:543:CD:4908, V-A:TYR:539:CZ:4877, V-B:PRO:540:CB:9857, V-B:PRO:540:CD:9859, V-B:PRO:540:N:9856, V-B:PRO:540:CA:9855, V-B:MET:535:CE:9807, V-B:TYR:539:C:9839, V-B:LEU:363:CD1:8160, V-B:GLU:543:CB:9878, V-B:GLU:543:C:9874, V-A:GLU:543:CB:4906, V-B:HIS:456:CE1:9041, V-B:GLY:454:CA:9020, V-B:ARG:545:CZ:9898, V-A:GLY:544:C:4912, H-B:GLY:454:N:9021, H-B:TYR:484:OH:9319"]

$$$$
