1a_Grossjean_2025
     RDKit          3D

 26 27  0  0  0  0  0  0  0  0999 V2000
  124.5600  123.6210   58.7880 C   0  0  0  0  0  0  0  0  0  0  0  0
  125.4840  124.5990   58.0570 C   0  0  0  0  0  0  0  0  0  0  0  0
  125.9790  123.9870   56.8720 O   0  0  0  0  0  0  0  0  0  0  0  0
  126.7480  122.8680   56.9300 C   0  0  0  0  0  0  0  0  0  0  0  0
  126.3970  121.7780   56.4680 O   0  0  0  0  0  0  0  0  0  0  0  0
  128.0600  123.0850   57.6270 C   0  0  0  0  0  0  0  0  0  0  0  0
  128.4950  122.1470   58.5730 C   0  0  0  0  0  0  0  0  0  0  0  0
  129.7040  122.3220   59.2390 C   0  0  0  0  0  0  0  0  0  0  0  0
  130.5030  123.4360   58.9760 C   0  0  0  0  0  0  0  0  0  0  0  0
  131.7030  123.5130   59.7090 N   0  0  0  0  0  0  0  0  0  0  0  0
  132.9830  123.4170   59.2910 C   0  0  0  0  0  0  0  0  0  0  0  0
  133.3440  123.2360   58.1280 O   0  0  0  0  0  0  0  0  0  0  0  0
  134.0430  123.5490   60.3870 C   0  0  0  0  0  0  0  0  0  0  0  0
  134.2680  122.0000   61.3120 S   0  0  0  0  0  0  0  0  0  0  0  0
  132.6750  121.2190   61.4440 C   0  0  0  0  0  0  0  0  0  0  0  0
  131.7270  122.0020   62.0170 N   0  0  0  0  0  0  0  0  0  0  0  0
  130.4780  121.5040   62.1710 C   0  0  0  0  0  0  0  0  0  0  0  0
  129.4750  122.4320   62.8320 C   0  0  0  0  0  0  0  0  0  0  0  0
  130.1220  120.2230   61.7550 C   0  0  0  0  0  0  0  0  0  0  0  0
  131.0870  119.4150   61.1430 C   0  0  0  0  0  0  0  0  0  0  0  0
  130.6700  118.0200   60.6810 C   0  0  0  0  0  0  0  0  0  0  0  0
  132.3980  119.9160   60.9690 C   0  0  0  0  0  0  0  0  0  0  0  0
  133.4110  119.1060   60.2870 C   0  0  0  0  0  0  0  0  0  0  0  0
  134.2100  118.4650   59.7480 N   0  0  0  0  0  0  0  0  0  0  0  0
  130.0790  124.3760   58.0240 C   0  0  0  0  0  0  0  0  0  0  0  0
  128.8690  124.2000   57.3590 C   0  0  0  0  0  0  0  0  0  0  0  0
  1  2  1  0
  2  3  1  0
  3  4  1  0
  4  5  2  0
  4  6  1  0
  6  7  2  0
  7  8  1  0
  8  9  2  0
  9 10  1  0
 10 11  1  0
 11 12  2  0
 11 13  1  0
 13 14  1  0
 14 15  1  0
 15 16  2  0
 16 17  1  0
 17 18  1  0
 17 19  2  0
 19 20  1  0
 20 21  1  0
 20 22  2  0
 22 23  1  0
 23 24  3  0
  9 25  1  0
 25 26  2  0
 26  6  1  0
 22 15  1  0
M  END
>  <Binding energies>  (1) 
[-8.2]

>  <Ligand effiencies>  (1) 
[-0.3037037037037037]

>  <Interactions>  (1) 
["V-A:ASP:366:CG:3212, V-B:ALA:541:CB:9864, H-B:TYR:531:OH:9767, V-A:PRO:482:CG:4326, V-B:PRO:540:CB:9857, V-B:TYR:539:CE2:9848, V-B:PRO:540:N:9856, V-B:PRO:540:CA:9855, V-B:MET:535:CE:9807, V-B:TYR:539:CD2:9846, V-B:TYR:531:CE2:9765, V-B:TYR:539:C:9839, V-B:TYR:531:CZ:9766, V-B:LEU:363:CD1:8160, V-A:ILE:369:CG2:3236, V-A:ILE:369:CB:3235, V-A:LEU:475:CD1:4257, V-B:ALA:541:CA:9862, V-A:ILE:369:CD1:3238, V-A:SER:385:CA:3406, V-B:TYR:539:CZ:9849, H-B:TYR:539:OH:9850, V-B:LEU:363:CA:8156, V-A:ASP:366:CA:3209, V-B:LEU:363:CB:8158, H-B:TYR:539:N:9842, H-A:SER:385:OG:3409, H-A:HIS:383:NE2:3393"]

$$$$
1aa_Ghoteimi_2023
     RDKit          3D

 40 43  0  0  0  0  0  0  0  0999 V2000
  130.7250  117.5740   60.1670 C   0  0  0  0  0  0  0  0  0  0  0  0
  131.6400  117.7430   61.3830 C   0  0  0  0  0  0  0  0  0  0  0  0
  132.8530  118.3660   60.9800 O   0  0  0  0  0  0  0  0  0  0  0  0
  132.8580  119.6240   60.4700 C   0  0  0  0  0  0  0  0  0  0  0  0
  133.1110  119.8790   59.2880 O   0  0  0  0  0  0  0  0  0  0  0  0
  132.5260  120.6790   61.4860 C   0  0  0  0  0  0  0  0  0  0  0  0
  131.2010  120.9720   61.8450 C   0  0  0  0  0  0  0  0  0  0  0  0
  130.9230  121.9560   62.7920 C   0  0  0  0  0  0  0  0  0  0  0  0
  131.9700  122.6630   63.4000 C   0  0  0  0  0  0  0  0  0  0  0  0
  131.8100  123.6750   64.3650 N   0  0  0  0  0  0  0  0  0  0  0  0
  132.6140  124.7150   64.6860 C   0  0  0  0  0  0  0  0  0  0  0  0
  133.6890  124.9670   64.1430 O   0  0  0  0  0  0  0  0  0  0  0  0
  132.1410  125.6490   65.8120 C   0  0  0  0  0  0  0  0  0  0  0  0
  130.9630  125.1240   66.4380 O   0  0  0  0  0  0  0  0  0  0  0  0
  130.0390  125.9780   67.0230 C   0  0  0  0  0  0  0  0  0  0  0  0
  130.0890  126.1480   68.3730 N   0  0  0  0  0  0  0  0  0  0  0  0
  129.1920  126.9650   68.9850 C   0  0  0  0  0  0  0  0  0  0  0  0
  129.3150  127.1000   70.4750 C   0  0  0  0  0  0  0  0  0  0  0  0
  128.6840  126.1910   71.3370 C   0  0  0  0  0  0  0  0  0  0  0  0
  128.7950  126.3150   72.7200 C   0  0  0  0  0  0  0  0  0  0  0  0
  129.5400  127.3490   73.2820 C   0  0  0  0  0  0  0  0  0  0  0  0
  129.5930  127.3940   74.6620 O   0  0  0  0  0  0  0  0  0  0  0  0
  130.3990  126.4480   75.3570 C   0  0  0  0  0  0  0  0  0  0  0  0
  130.1810  128.2620   72.4340 C   0  0  0  0  0  0  0  0  0  0  0  0
  130.0690  128.1350   71.0530 C   0  0  0  0  0  0  0  0  0  0  0  0
  128.2270  127.6510   68.2380 C   0  0  0  0  0  0  0  0  0  0  0  0
  128.1610  127.5030   66.8460 C   0  0  0  0  0  0  0  0  0  0  0  0
  127.1160  128.2700   66.1050 C   0  0  0  0  0  0  0  0  0  0  0  0
  125.8130  128.3490   66.6080 C   0  0  0  0  0  0  0  0  0  0  0  0
  124.8360  129.0700   65.9280 C   0  0  0  0  0  0  0  0  0  0  0  0
  125.1400  129.7320   64.7390 C   0  0  0  0  0  0  0  0  0  0  0  0
  124.1070  130.4220   64.1340 O   0  0  0  0  0  0  0  0  0  0  0  0
  124.1680  130.6790   62.7360 C   0  0  0  0  0  0  0  0  0  0  0  0
  126.4470  129.6620   64.2360 C   0  0  0  0  0  0  0  0  0  0  0  0
  127.4240  128.9400   64.9160 C   0  0  0  0  0  0  0  0  0  0  0  0
  129.0880  126.6340   66.2240 C   0  0  0  0  0  0  0  0  0  0  0  0
  129.0680  126.3820   64.7820 C   0  0  0  0  0  0  0  0  0  0  0  0
  129.0540  126.1820   63.6420 N   0  0  0  0  0  0  0  0  0  0  0  0
  133.2880  122.3750   63.0430 C   0  0  0  0  0  0  0  0  0  0  0  0
  133.5650  121.3930   62.0970 C   0  0  0  0  0  0  0  0  0  0  0  0
  1  2  1  0
  2  3  1  0
  3  4  1  0
  4  5  2  0
  4  6  1  0
  6  7  2  0
  7  8  1  0
  8  9  2  0
  9 10  1  0
 10 11  1  0
 11 12  2  0
 11 13  1  0
 13 14  1  0
 14 15  1  0
 15 16  2  0
 16 17  1  0
 17 18  1  0
 18 19  2  0
 19 20  1  0
 20 21  2  0
 21 22  1  0
 22 23  1  0
 21 24  1  0
 24 25  2  0
 17 26  2  0
 26 27  1  0
 27 28  1  0
 28 29  2  0
 29 30  1  0
 30 31  2  0
 31 32  1  0
 32 33  1  0
 31 34  1  0
 34 35  2  0
 27 36  2  0
 36 37  1  0
 37 38  3  0
  9 39  1  0
 39 40  2  0
 40  6  1  0
 36 15  1  0
 25 18  1  0
 35 28  1  0
M  END
>  <Binding energies>  (2) 
[-9.37]

>  <Ligand effiencies>  (2) 
[-0.22853658536585364]

>  <Interactions>  (2) 
["H-A:LYS:547:NZ:4951, V-B:HIS:456:CD2:9039, V-A:GLU:543:C:4902, V-A:HIS:456:CE1:4069, H-A:GLY:454:N:4049, H-A:ARG:545:NH2:4928, V-A:TYR:484:CZ:4346, H-A:TYR:484:OH:4347, V-B:GLU:543:CD:9880, V-B:ALA:541:CB:9864, V-B:ILE:369:CD1:8210, V-A:GLU:543:CD:4908, V-A:PRO:482:CG:4326, V-B:TYR:539:CD2:9846, V-A:PRO:482:CB:4325, V-B:TYR:539:C:9839, V-A:GLY:454:CA:4048, V-A:ILE:369:CG2:3236, V-A:LEU:475:CD1:4257, V-B:HIS:456:CE1:9041, V-B:ARG:545:CZ:9898, V-B:ARG:545:CG:9894, V-B:ARG:545:CD:9895, V-B:TYR:539:CB:9843, H-A:ARG:545:NH1:4927, H-A:SER:385:OG:3409, H-A:HIS:383:NE2:3393, V-A:HIS:383:CE1:3392, H-B:GLY:454:N:9021"]

$$$$
1b_Grossjean_2025
     RDKit          3D

 25 26  0  0  0  0  0  0  0  0999 V2000
  125.1810  124.3010   58.0070 C   0  0  0  0  0  0  0  0  0  0  0  0
  125.9770  123.9370   56.8880 O   0  0  0  0  0  0  0  0  0  0  0  0
  126.7300  122.8070   56.9050 C   0  0  0  0  0  0  0  0  0  0  0  0
  126.3830  121.7500   56.3680 O   0  0  0  0  0  0  0  0  0  0  0  0
  128.0320  122.9710   57.6360 C   0  0  0  0  0  0  0  0  0  0  0  0
  128.3930  122.1380   58.7050 C   0  0  0  0  0  0  0  0  0  0  0  0
  129.6070  122.3180   59.3620 C   0  0  0  0  0  0  0  0  0  0  0  0
  130.4830  123.3290   58.9670 C   0  0  0  0  0  0  0  0  0  0  0  0
  131.6800  123.4190   59.7030 N   0  0  0  0  0  0  0  0  0  0  0  0
  132.9640  123.3740   59.2860 C   0  0  0  0  0  0  0  0  0  0  0  0
  133.3330  123.2440   58.1190 O   0  0  0  0  0  0  0  0  0  0  0  0
  134.0160  123.5100   60.3880 C   0  0  0  0  0  0  0  0  0  0  0  0
  134.2460  121.9610   61.3120 S   0  0  0  0  0  0  0  0  0  0  0  0
  132.6550  121.1730   61.4310 C   0  0  0  0  0  0  0  0  0  0  0  0
  131.7180  121.9250   62.0600 N   0  0  0  0  0  0  0  0  0  0  0  0
  130.4700  121.4220   62.2050 C   0  0  0  0  0  0  0  0  0  0  0  0
  129.4710  122.3250   62.9040 C   0  0  0  0  0  0  0  0  0  0  0  0
  130.1110  120.1570   61.7430 C   0  0  0  0  0  0  0  0  0  0  0  0
  131.0760  119.3650   61.1130 C   0  0  0  0  0  0  0  0  0  0  0  0
  130.6640  117.9760   60.6300 C   0  0  0  0  0  0  0  0  0  0  0  0
  132.3860  119.8700   60.9510 C   0  0  0  0  0  0  0  0  0  0  0  0
  133.4250  119.0410   60.3330 C   0  0  0  0  0  0  0  0  0  0  0  0
  134.2420  118.3840   59.8450 N   0  0  0  0  0  0  0  0  0  0  0  0
  130.1290  124.1660   57.8980 C   0  0  0  0  0  0  0  0  0  0  0  0
  128.9160  123.9850   57.2420 C   0  0  0  0  0  0  0  0  0  0  0  0
  1  2  1  0
  2  3  1  0
  3  4  2  0
  3  5  1  0
  5  6  2  0
  6  7  1  0
  7  8  2  0
  8  9  1  0
  9 10  1  0
 10 11  2  0
 10 12  1  0
 12 13  1  0
 13 14  1  0
 14 15  2  0
 15 16  1  0
 16 17  1  0
 16 18  2  0
 18 19  1  0
 19 20  1  0
 19 21  2  0
 21 22  1  0
 22 23  3  0
  8 24  1  0
 24 25  2  0
 25  5  1  0
 21 14  1  0
M  END
>  <Binding energies>  (3) 
[-8.02]

>  <Ligand effiencies>  (3) 
[-0.30846153846153845]

>  <Interactions>  (3) 
["V-A:ASP:366:CG:3212, V-B:ALA:541:CB:9864, H-B:TYR:531:OH:9767, V-A:PRO:482:CG:4326, V-B:TYR:539:CE2:9848, V-B:PRO:540:N:9856, V-B:PRO:540:CA:9855, V-B:MET:535:CE:9807, V-B:TYR:539:CD2:9846, V-B:TYR:531:CE2:9765, V-B:TYR:539:C:9839, V-B:LEU:363:CD1:8160, V-A:ILE:369:CG2:3236, V-A:ILE:369:CB:3235, V-A:LEU:475:CD1:4257, V-B:ALA:541:CA:9862, V-A:ILE:369:CD1:3238, V-A:SER:385:CA:3406, V-B:TYR:539:CZ:9849, H-B:TYR:539:OH:9850, V-A:ASP:366:CA:3209, H-B:TYR:539:N:9842, H-A:SER:385:OG:3409, H-A:HIS:383:NE2:3393"]

$$$$
1c_Grossjean_2025
     RDKit          3D

 23 24  0  0  0  0  0  0  0  0999 V2000
  125.1950  122.1210   55.1240 C   0  0  0  0  0  0  0  0  0  0  0  0
  126.3500  121.5980   55.7710 O   0  0  0  0  0  0  0  0  0  0  0  0
  126.7730  122.1650   56.9580 C   0  0  0  0  0  0  0  0  0  0  0  0
  128.1340  122.0650   57.2460 C   0  0  0  0  0  0  0  0  0  0  0  0
  128.6560  122.6060   58.4170 C   0  0  0  0  0  0  0  0  0  0  0  0
  127.8110  123.2690   59.3200 C   0  0  0  0  0  0  0  0  0  0  0  0
  128.2300  123.8420   60.5360 N   0  0  0  0  0  0  0  0  0  0  0  0
  128.2370  123.3110   61.7770 C   0  0  0  0  0  0  0  0  0  0  0  0
  127.8760  122.1710   62.0680 O   0  0  0  0  0  0  0  0  0  0  0  0
  128.7520  124.2350   62.8830 C   0  0  0  0  0  0  0  0  0  0  0  0
  129.8700  123.3690   64.0240 S   0  0  0  0  0  0  0  0  0  0  0  0
  130.9860  122.3650   63.0650 C   0  0  0  0  0  0  0  0  0  0  0  0
  130.3970  121.2670   62.5260 N   0  0  0  0  0  0  0  0  0  0  0  0
  131.1480  120.4280   61.7760 C   0  0  0  0  0  0  0  0  0  0  0  0
  130.4180  119.2280   61.1990 C   0  0  0  0  0  0  0  0  0  0  0  0
  132.5040  120.6390   61.5410 C   0  0  0  0  0  0  0  0  0  0  0  0
  133.1270  121.7530   62.1110 C   0  0  0  0  0  0  0  0  0  0  0  0
  134.6190  121.9540   61.8540 C   0  0  0  0  0  0  0  0  0  0  0  0
  132.3630  122.6440   62.9010 C   0  0  0  0  0  0  0  0  0  0  0  0
  133.0100  123.7870   63.5510 C   0  0  0  0  0  0  0  0  0  0  0  0
  133.5210  124.6890   64.0630 N   0  0  0  0  0  0  0  0  0  0  0  0
  126.4460  123.3610   59.0410 C   0  0  0  0  0  0  0  0  0  0  0  0
  125.9280  122.8180   57.8690 C   0  0  0  0  0  0  0  0  0  0  0  0
  1  2  1  0
  2  3  1  0
  3  4  2  0
  4  5  1  0
  5  6  2  0
  6  7  1  0
  7  8  1  0
  8  9  2  0
  8 10  1  0
 10 11  1  0
 11 12  1  0
 12 13  2  0
 13 14  1  0
 14 15  1  0
 14 16  2  0
 16 17  1  0
 17 18  1  0
 17 19  2  0
 19 20  1  0
 20 21  3  0
  6 22  1  0
 22 23  2  0
 23  3  1  0
 19 12  1  0
M  END
>  <Binding energies>  (4) 
[-7.9]

>  <Ligand effiencies>  (4) 
[-0.32916666666666666]

>  <Interactions>  (4) 
["H-A:GLY:454:N:4049, H-A:ARG:545:NH2:4928, V-B:GLU:543:CG:9879, H-B:ALA:541:N:9863, H-A:TYR:484:OH:4347, V-B:GLU:543:CD:9880, V-B:ALA:541:CB:9864, V-A:PRO:482:CG:4326, V-B:PRO:540:CB:9857, V-B:TYR:539:CE2:9848, V-B:PRO:540:CD:9859, V-B:PRO:540:N:9856, V-B:PRO:540:CA:9855, V-B:MET:535:CE:9807, V-B:TYR:539:CA:9841, V-B:TYR:539:CD2:9846, V-B:TYR:531:CE2:9765, V-B:TYR:539:C:9839, V-B:LEU:363:CD1:8160, V-A:GLY:454:CA:4048, V-A:ILE:369:CG2:3236, V-A:LEU:475:CD1:4257, V-A:ILE:369:CD1:3238, V-B:TYR:539:CG:9844, V-B:TYR:539:CZ:9849, V-B:TYR:539:CE1:9847, V-B:TYR:539:CD1:9845, V-B:ILE:538:CG2:9835, H-B:TYR:539:N:9842, V-B:ILE:538:CA:9832, V-B:MET:535:CG:9805, V-B:ILE:538:CB:9834, V-B:ILE:538:CG1:9836"]

$$$$
1d_Grossjean_2025
     RDKit          3D

 21 22  0  0  0  0  0  0  0  0999 V2000
  132.6620  130.7490   61.3120 C   0  0  0  0  0  0  0  0  0  0  0  0
  131.8770  131.1300   60.0730 C   0  0  0  0  0  0  0  0  0  0  0  0
  132.4630  131.1320   58.8090 C   0  0  0  0  0  0  0  0  0  0  0  0
  131.6870  131.4830   57.6990 C   0  0  0  0  0  0  0  0  0  0  0  0
  132.3470  131.4620   56.3220 C   0  0  0  0  0  0  0  0  0  0  0  0
  130.3310  131.8360   57.8880 C   0  0  0  0  0  0  0  0  0  0  0  0
  129.4870  132.1610   56.7360 C   0  0  0  0  0  0  0  0  0  0  0  0
  128.8220  132.4170   55.8240 N   0  0  0  0  0  0  0  0  0  0  0  0
  129.8260  131.8310   59.2100 C   0  0  0  0  0  0  0  0  0  0  0  0
  128.1480  132.2480   59.6300 S   0  0  0  0  0  0  0  0  0  0  0  0
  128.1630  132.9220   61.3190 C   0  0  0  0  0  0  0  0  0  0  0  0
  127.1600  134.0640   61.4920 C   0  0  0  0  0  0  0  0  0  0  0  0
  126.6510  134.2540   62.5970 O   0  0  0  0  0  0  0  0  0  0  0  0
  126.9310  134.8050   60.3870 N   0  0  0  0  0  0  0  0  0  0  0  0
  126.0690  135.9010   60.1980 C   0  0  0  0  0  0  0  0  0  0  0  0
  126.6870  137.1530   60.1220 C   0  0  0  0  0  0  0  0  0  0  0  0
  125.9260  138.3020   59.9310 C   0  0  0  0  0  0  0  0  0  0  0  0
  124.5420  138.2010   59.8080 C   0  0  0  0  0  0  0  0  0  0  0  0
  123.9140  136.9600   59.8740 C   0  0  0  0  0  0  0  0  0  0  0  0
  124.6730  135.8080   60.0660 C   0  0  0  0  0  0  0  0  0  0  0  0
  130.5820  131.4680   60.2770 N   0  0  0  0  0  0  0  0  0  0  0  0
  1  2  1  0
  2  3  2  0
  3  4  1  0
  4  5  1  0
  4  6  2  0
  6  7  1  0
  7  8  3  0
  6  9  1  0
  9 10  1  0
 10 11  1  0
 11 12  1  0
 12 13  2  0
 12 14  1  0
 14 15  1  0
 15 16  2  0
 16 17  1  0
 17 18  2  0
 18 19  1  0
 19 20  2  0
  9 21  2  0
 21  2  1  0
 20 15  1  0
M  END
>  <Binding energies>  (5) 
[-7.88]

>  <Ligand effiencies>  (5) 
[-0.35818181818181816]

>  <Interactions>  (5) 
["V-A:ASP:366:CG:3212, V-A:TYR:539:CD1:4873, V-A:PRO:540:CB:4885, V-A:LEU:363:CD1:3188, V-A:PRO:540:N:4884, V-A:TYR:539:CE1:4875, V-A:PRO:540:CA:4883, V-B:ILE:369:CG2:8208, V-A:ALA:541:CB:4892, H-A:ALA:541:N:4891, V-A:TYR:539:C:4867, V-A:TYR:539:CG:4872, V-A:ASN:362:CB:3175, H-A:TYR:539:N:4870, H-A:TYR:539:O:4868, V-B:PRO:482:CB:9297, V-A:TYR:539:CB:4871, V-B:PRO:482:CG:9298, V-B:LEU:373:CD1:8251, V-B:SER:385:CB:8380, V-B:SER:385:CA:8378"]

$$$$
1e_Grossjean_2025
     RDKit          3D

 22 23  0  0  0  0  0  0  0  0999 V2000
  131.6470  131.1620   56.9950 C   0  0  0  0  0  0  0  0  0  0  0  0
  132.1290  131.0980   58.4320 C   0  0  0  0  0  0  0  0  0  0  0  0
  133.4900  131.1200   58.7480 C   0  0  0  0  0  0  0  0  0  0  0  0
  133.8590  131.0550   60.0920 C   0  0  0  0  0  0  0  0  0  0  0  0
  132.8720  130.9690   61.0760 C   0  0  0  0  0  0  0  0  0  0  0  0
  131.5260  130.9560   60.6900 C   0  0  0  0  0  0  0  0  0  0  0  0
  130.5780  130.8560   61.7250 N   0  0  0  0  0  0  0  0  0  0  0  0
  129.4540  131.5820   61.9070 C   0  0  0  0  0  0  0  0  0  0  0  0
  129.0720  132.4910   61.1690 O   0  0  0  0  0  0  0  0  0  0  0  0
  128.6340  131.2360   63.1520 C   0  0  0  0  0  0  0  0  0  0  0  0
  127.6700  129.7100   62.9310 S   0  0  0  0  0  0  0  0  0  0  0  0
  126.9690  129.2450   64.5010 C   0  0  0  0  0  0  0  0  0  0  0  0
  127.8430  128.5930   65.3100 N   0  0  0  0  0  0  0  0  0  0  0  0
  127.4230  128.1870   66.5310 C   0  0  0  0  0  0  0  0  0  0  0  0
  128.4560  127.4720   67.3810 C   0  0  0  0  0  0  0  0  0  0  0  0
  126.1250  128.4000   66.9890 C   0  0  0  0  0  0  0  0  0  0  0  0
  125.2090  129.0490   66.1550 C   0  0  0  0  0  0  0  0  0  0  0  0
  123.7860  129.2540   66.6730 C   0  0  0  0  0  0  0  0  0  0  0  0
  125.6240  129.4790   64.8740 C   0  0  0  0  0  0  0  0  0  0  0  0
  124.6610  130.1080   63.9660 C   0  0  0  0  0  0  0  0  0  0  0  0
  123.8990  130.6040   63.2500 N   0  0  0  0  0  0  0  0  0  0  0  0
  131.1580  131.0150   59.3760 N   0  0  0  0  0  0  0  0  0  0  0  0
  1  2  1  0
  2  3  2  0
  3  4  1  0
  4  5  2  0
  5  6  1  0
  6  7  1  0
  7  8  1  0
  8  9  2  0
  8 10  1  0
 10 11  1  0
 11 12  1  0
 12 13  2  0
 13 14  1  0
 14 15  1  0
 14 16  2  0
 16 17  1  0
 17 18  1  0
 17 19  2  0
 19 20  1  0
 20 21  3  0
  6 22  2  0
 22  2  1  0
 19 12  1  0
M  END
>  <Binding energies>  (6) 
[-7.41]

>  <Ligand effiencies>  (6) 
[-0.32217391304347825]

>  <Interactions>  (6) 
["V-A:ASP:366:CG:3212, H-A:GLU:543:OE2:4910, V-A:PRO:540:CB:4885, V-A:LEU:363:CD1:3188, V-A:PRO:540:CA:4883, V-A:ALA:541:CB:4892, H-A:ALA:541:N:4891, V-A:GLU:543:CD:4908, H-A:GLU:543:OE1:4909, V-A:GLU:543:CG:4907, V-B:HIS:456:CE1:9041, V-A:LEU:363:CA:3184, V-A:ASN:362:CB:3175, V-A:ASN:362:C:3171, V-A:LEU:363:CB:3186, V-B:ARG:545:CZ:9898, V-B:ARG:545:CG:9894, V-B:ARG:545:CD:9895, H-B:GLY:454:N:9021"]

$$$$
1f_Grossjean_2025
     RDKit          3D

 21 22  0  0  0  0  0  0  0  0999 V2000
  130.5230  118.4050   60.7000 C   0  0  0  0  0  0  0  0  0  0  0  0
  131.2280  119.6180   61.2770 C   0  0  0  0  0  0  0  0  0  0  0  0
  132.6120  119.7590   61.2070 C   0  0  0  0  0  0  0  0  0  0  0  0
  133.2080  120.8940   61.7680 C   0  0  0  0  0  0  0  0  0  0  0  0
  134.7280  121.0170   61.6950 C   0  0  0  0  0  0  0  0  0  0  0  0
  132.3920  121.8720   62.3820 C   0  0  0  0  0  0  0  0  0  0  0  0
  133.0030  123.0390   63.0240 C   0  0  0  0  0  0  0  0  0  0  0  0
  133.4860  123.9600   63.5300 N   0  0  0  0  0  0  0  0  0  0  0  0
  130.9930  121.6600   62.3820 C   0  0  0  0  0  0  0  0  0  0  0  0
  129.8110  122.7780   63.1070 S   0  0  0  0  0  0  0  0  0  0  0  0
  129.1390  123.8430   61.7850 C   0  0  0  0  0  0  0  0  0  0  0  0
  128.0420  123.1940   60.9280 C   0  0  0  0  0  0  0  0  0  0  0  0
  127.1840  122.4790   61.4470 O   0  0  0  0  0  0  0  0  0  0  0  0
  128.1330  123.4580   59.6070 N   0  0  0  0  0  0  0  0  0  0  0  0
  127.3040  123.0390   58.5480 C   0  0  0  0  0  0  0  0  0  0  0  0
  125.9550  123.4000   58.3720 C   0  0  0  0  0  0  0  0  0  0  0  0
  125.2480  122.9130   57.2680 C   0  0  0  0  0  0  0  0  0  0  0  0
  125.9100  122.0800   56.3650 C   0  0  0  0  0  0  0  0  0  0  0  0
  127.2100  121.7230   56.5090 N   0  0  0  0  0  0  0  0  0  0  0  0
  127.8830  122.2030   57.5870 C   0  0  0  0  0  0  0  0  0  0  0  0
  130.4280  120.5440   61.8570 N   0  0  0  0  0  0  0  0  0  0  0  0
  1  2  1  0
  2  3  2  0
  3  4  1  0
  4  5  1  0
  4  6  2  0
  6  7  1  0
  7  8  3  0
  6  9  1  0
  9 10  1  0
 10 11  1  0
 11 12  1  0
 12 13  2  0
 12 14  1  0
 14 15  1  0
 15 16  2  0
 16 17  1  0
 17 18  2  0
 18 19  1  0
 19 20  2  0
  9 21  2  0
 21  2  1  0
 20 15  1  0
M  END
>  <Binding energies>  (7) 
[-7.36]

>  <Ligand effiencies>  (7) 
[-0.33454545454545453]

>  <Interactions>  (7) 
["H-A:GLY:454:N:4049, H-B:ALA:541:N:9863, H-A:TYR:484:OH:4347, V-B:ALA:541:CB:9864, V-A:PRO:482:CG:4326, V-B:PRO:540:CB:9857, V-B:TYR:539:CE2:9848, V-B:PRO:540:CD:9859, V-B:PRO:540:N:9856, V-B:PRO:540:CA:9855, V-B:MET:535:CE:9807, V-B:TYR:539:CD2:9846, V-B:TYR:539:C:9839, V-B:LEU:363:CD1:8160, V-A:GLY:454:CA:4048, V-A:ILE:369:CG2:3236, V-A:LEU:475:CD1:4257, V-A:SER:385:C:3404, V-A:ILE:369:CD1:3238, V-B:TYR:539:CG:9844, H-B:TYR:539:N:9842"]

$$$$
1g_Grossjean_2025
     RDKit          3D

 22 23  0  0  0  0  0  0  0  0999 V2000
  127.9830  132.4280   59.6010 C   0  0  0  0  0  0  0  0  0  0  0  0
  129.3470  131.8760   59.2300 C   0  0  0  0  0  0  0  0  0  0  0  0
  130.3000  131.5720   60.2010 C   0  0  0  0  0  0  0  0  0  0  0  0
  131.5460  131.0810   59.7980 C   0  0  0  0  0  0  0  0  0  0  0  0
  132.5800  130.7700   60.8790 C   0  0  0  0  0  0  0  0  0  0  0  0
  131.8050  130.8960   58.4220 C   0  0  0  0  0  0  0  0  0  0  0  0
  133.1210  130.4330   57.9740 C   0  0  0  0  0  0  0  0  0  0  0  0
  134.1620  130.0680   57.6230 N   0  0  0  0  0  0  0  0  0  0  0  0
  130.7700  131.2070   57.5080 C   0  0  0  0  0  0  0  0  0  0  0  0
  130.9220  131.0260   55.7450 S   0  0  0  0  0  0  0  0  0  0  0  0
  129.3830  131.6500   55.0040 C   0  0  0  0  0  0  0  0  0  0  0  0
  128.1910  130.7440   55.3110 C   0  0  0  0  0  0  0  0  0  0  0  0
  127.1620  130.8280   54.6380 O   0  0  0  0  0  0  0  0  0  0  0  0
  128.3420  129.8870   56.3360 N   0  0  0  0  0  0  0  0  0  0  0  0
  127.3570  128.8940   56.7650 C   0  0  0  0  0  0  0  0  0  0  0  0
  126.3050  129.4300   57.7310 C   0  0  0  0  0  0  0  0  0  0  0  0
  126.5300  129.3720   59.1100 C   0  0  0  0  0  0  0  0  0  0  0  0
  125.5700  129.8620   59.9920 C   0  0  0  0  0  0  0  0  0  0  0  0
  124.3910  130.4130   59.4920 C   0  0  0  0  0  0  0  0  0  0  0  0
  124.1640  130.4780   58.1200 C   0  0  0  0  0  0  0  0  0  0  0  0
  125.1220  129.9870   57.2370 C   0  0  0  0  0  0  0  0  0  0  0  0
  129.5720  131.7050   57.9060 N   0  0  0  0  0  0  0  0  0  0  0  0
  1  2  1  0
  2  3  2  0
  3  4  1  0
  4  5  1  0
  4  6  2  0
  6  7  1  0
  7  8  3  0
  6  9  1  0
  9 10  1  0
 10 11  1  0
 11 12  1  0
 12 13  2  0
 12 14  1  0
 14 15  1  0
 15 16  1  0
 16 17  2  0
 17 18  1  0
 18 19  2  0
 19 20  1  0
 20 21  2  0
  9 22  2  0
 22  2  1  0
 21 16  1  0
M  END
>  <Binding energies>  (8) 
[-6.73]

>  <Ligand effiencies>  (8) 
[-0.29260869565217396]

>  <Interactions>  (8) 
["V-A:ASP:366:CG:3212, V-A:TYR:539:CD1:4873, H-A:TYR:539:OH:4878, V-A:PRO:540:CB:4885, V-A:ILE:538:CB:4862, V-A:ILE:538:CG2:4863, V-A:LEU:363:CD1:3188, V-A:PRO:540:N:4884, V-A:TYR:539:CE1:4875, V-A:PRO:540:CA:4883, H-B:LYS:534:NZ:9795, V-B:ILE:369:CG2:8208, V-B:ASP:366:CG:8184, V-B:ASP:366:CA:8181, V-A:ILE:538:CA:4860, V-B:ASP:366:CB:8183, V-A:TYR:539:C:4867, V-A:TYR:539:CZ:4877, V-B:ASP:366:C:8179, V-B:TYR:531:CZ:9766, V-A:ASP:366:CB:3211, V-B:TYR:531:CE1:9764, H-A:TYR:531:OH:4795, V-A:PRO:540:C:4881, V-A:LEU:363:CA:3184"]

$$$$
1h_Grossjean_2025
     RDKit          3D

 28 29  0  0  0  0  0  0  0  0999 V2000
  127.2910  125.6130   61.4110 C   0  0  0  0  0  0  0  0  0  0  0  0
  126.6390  125.0340   60.2870 O   0  0  0  0  0  0  0  0  0  0  0  0
  127.3990  124.5460   59.2390 C   0  0  0  0  0  0  0  0  0  0  0  0
  128.6250  125.0990   58.8360 C   0  0  0  0  0  0  0  0  0  0  0  0
  129.3320  124.5620   57.7590 C   0  0  0  0  0  0  0  0  0  0  0  0
  130.6730  125.1590   57.3450 C   0  0  0  0  0  0  0  0  0  0  0  0
  131.8260  124.3280   57.6910 N   0  0  0  0  0  0  0  0  0  0  0  0
  132.3380  124.1840   58.9260 C   0  0  0  0  0  0  0  0  0  0  0  0
  131.8690  124.7250   59.9270 O   0  0  0  0  0  0  0  0  0  0  0  0
  133.5760  123.2950   59.0520 C   0  0  0  0  0  0  0  0  0  0  0  0
  133.6770  122.4950   60.6820 S   0  0  0  0  0  0  0  0  0  0  0  0
  132.1700  121.5730   60.9400 C   0  0  0  0  0  0  0  0  0  0  0  0
  131.0740  122.3110   61.2560 N   0  0  0  0  0  0  0  0  0  0  0  0
  129.8970  121.6760   61.4610 C   0  0  0  0  0  0  0  0  0  0  0  0
  128.7180  122.5670   61.8060 C   0  0  0  0  0  0  0  0  0  0  0  0
  129.7610  120.2930   61.3630 C   0  0  0  0  0  0  0  0  0  0  0  0
  130.8830  119.5210   61.0410 C   0  0  0  0  0  0  0  0  0  0  0  0
  130.7120  118.0070   60.9370 C   0  0  0  0  0  0  0  0  0  0  0  0
  132.1220  120.1650   60.8220 C   0  0  0  0  0  0  0  0  0  0  0  0
  133.3150  119.3820   60.4850 C   0  0  0  0  0  0  0  0  0  0  0  0
  134.2560  118.7630   60.2190 N   0  0  0  0  0  0  0  0  0  0  0  0
  128.8320  123.4380   57.0990 C   0  0  0  0  0  0  0  0  0  0  0  0
  127.6120  122.8610   57.4850 C   0  0  0  0  0  0  0  0  0  0  0  0
  127.0570  121.7500   56.8760 O   0  0  0  0  0  0  0  0  0  0  0  0
  125.8400  121.8850   56.1510 C   0  0  0  0  0  0  0  0  0  0  0  0
  126.9000  123.4310   58.5500 C   0  0  0  0  0  0  0  0  0  0  0  0
  125.7080  122.8720   58.9430 O   0  0  0  0  0  0  0  0  0  0  0  0
  124.5830  123.7210   58.7590 C   0  0  0  0  0  0  0  0  0  0  0  0
  1  2  1  0
  2  3  1  0
  3  4  2  0
  4  5  1  0
  5  6  1  0
  6  7  1  0
  7  8  1  0
  8  9  2  0
  8 10  1  0
 10 11  1  0
 11 12  1  0
 12 13  2  0
 13 14  1  0
 14 15  1  0
 14 16  2  0
 16 17  1  0
 17 18  1  0
 17 19  2  0
 19 20  1  0
 20 21  3  0
  5 22  2  0
 22 23  1  0
 23 24  1  0
 24 25  1  0
 23 26  2  0
 26 27  1  0
 27 28  1  0
 26  3  1  0
 19 12  1  0
M  END
>  <Binding energies>  (9) 
[-6.49]

>  <Ligand effiencies>  (9) 
[-0.22379310344827588]

>  <Interactions>  (9) 
["V-A:ASP:366:CG:3212, V-B:ALA:541:CB:9864, V-A:PRO:482:CG:4326, V-B:PRO:540:CB:9857, V-B:TYR:539:CE2:9848, V-B:PRO:540:CD:9859, V-B:PRO:540:N:9856, V-B:PRO:540:CA:9855, V-B:MET:535:CE:9807, V-B:TYR:539:CD2:9846, V-A:PRO:482:CB:4325, V-B:TYR:539:C:9839, V-B:LEU:363:CD1:8160, V-A:ILE:369:CG2:3236, V-A:ASP:366:CB:3211, V-A:ILE:369:CB:3235, V-A:LEU:475:CD1:4257, V-B:ALA:541:CA:9862, V-B:PRO:540:C:9853, V-B:TYR:539:CZ:9849, H-B:TYR:539:OH:9850, V-B:LEU:363:CA:8156, V-A:ASP:366:CA:3209, V-B:LEU:363:CB:8158, V-B:TYR:539:CE1:9847, V-B:ILE:538:CG2:9835, H-B:TYR:539:N:9842, H-A:SER:385:OG:3409, H-A:HIS:383:NE2:3393"]

$$$$
1i_Grossjean_2025
     RDKit          3D

 20 21  0  0  0  0  0  0  0  0999 V2000
  132.4440  130.7610   61.3670 C   0  0  0  0  0  0  0  0  0  0  0  0
  131.7150  131.1570   60.0970 C   0  0  0  0  0  0  0  0  0  0  0  0
  132.3590  131.1750   58.8620 C   0  0  0  0  0  0  0  0  0  0  0  0
  131.6330  131.5390   57.7220 C   0  0  0  0  0  0  0  0  0  0  0  0
  132.3570  131.5350   56.3770 C   0  0  0  0  0  0  0  0  0  0  0  0
  130.2680  131.8850   57.8530 C   0  0  0  0  0  0  0  0  0  0  0  0
  129.4770  132.2200   56.6660 C   0  0  0  0  0  0  0  0  0  0  0  0
  128.8540  132.4830   55.7270 N   0  0  0  0  0  0  0  0  0  0  0  0
  129.7040  131.8620   59.1500 C   0  0  0  0  0  0  0  0  0  0  0  0
  128.0060  132.2670   59.4970 S   0  0  0  0  0  0  0  0  0  0  0  0
  127.9380  132.9590   61.1770 C   0  0  0  0  0  0  0  0  0  0  0  0
  126.8580  134.0350   61.3130 C   0  0  0  0  0  0  0  0  0  0  0  0
  126.1430  134.0480   62.3160 O   0  0  0  0  0  0  0  0  0  0  0  0
  126.7780  134.9130   60.2890 N   0  0  0  0  0  0  0  0  0  0  0  0
  125.8930  135.9730   60.1590 C   0  0  0  0  0  0  0  0  0  0  0  0
  126.2820  137.3070   60.2730 C   0  0  0  0  0  0  0  0  0  0  0  0
  125.1290  138.0330   60.0820 C   0  0  0  0  0  0  0  0  0  0  0  0
  124.0990  137.1810   59.8660 O   0  0  0  0  0  0  0  0  0  0  0  0
  124.5950  135.8780   59.9190 N   0  0  0  0  0  0  0  0  0  0  0  0
  130.4110  131.4880   60.2460 N   0  0  0  0  0  0  0  0  0  0  0  0
  1  2  1  0
  2  3  2  0
  3  4  1  0
  4  5  1  0
  4  6  2  0
  6  7  1  0
  7  8  3  0
  6  9  1  0
  9 10  1  0
 10 11  1  0
 11 12  1  0
 12 13  2  0
 12 14  1  0
 14 15  1  0
 15 16  1  0
 16 17  2  0
 17 18  1  0
 18 19  1  0
  9 20  2  0
 20  2  1  0
 19 15  2  0
M  END
>  <Binding energies>  (10) 
[-7.13]

>  <Ligand effiencies>  (10) 
[-0.3395238095238095]

>  <Interactions>  (10) 
["V-A:TYR:539:CD1:4873, V-A:PRO:540:CB:4885, V-A:LEU:363:CD1:3188, V-A:PRO:540:N:4884, V-A:TYR:539:CE1:4875, V-A:PRO:540:CA:4883, V-A:ALA:541:CB:4892, H-A:ALA:541:N:4891, V-A:TYR:539:C:4867, V-A:GLU:543:CD:4908, V-A:TYR:539:CG:4872, H-A:TYR:539:N:4870, H-A:TYR:539:O:4868, V-B:PRO:482:CB:9297, V-A:TYR:539:CB:4871, V-B:PRO:482:CG:9298, V-B:LEU:373:CD1:8251, H-B:SER:385:OG:8381, V-B:SER:385:CB:8380, V-A:TYR:539:CA:4869"]

$$$$
1k_Grossjean_2025
     RDKit          3D

 25 25  0  0  0  0  0  0  0  0999 V2000
  125.2520  121.7630   55.5720 C   0  0  0  0  0  0  0  0  0  0  0  0
  126.5260  121.5730   56.1660 O   0  0  0  0  0  0  0  0  0  0  0  0
  126.6630  122.2120   57.4280 C   0  0  0  0  0  0  0  0  0  0  0  0
  125.5110  123.2060   57.6270 C   0  0  0  0  0  0  0  0  0  0  0  0
  125.9590  124.5190   57.3130 O   0  0  0  0  0  0  0  0  0  0  0  0
  126.9660  125.0040   58.1910 C   0  0  0  0  0  0  0  0  0  0  0  0
  126.4470  126.2480   58.9230 C   0  0  0  0  0  0  0  0  0  0  0  0
  126.3510  127.3320   58.0060 O   0  0  0  0  0  0  0  0  0  0  0  0
  126.4410  128.6100   58.6210 C   0  0  0  0  0  0  0  0  0  0  0  0
  126.1730  129.7070   57.5740 C   0  0  0  0  0  0  0  0  0  0  0  0
  127.3840  130.2610   56.9680 N   0  0  0  0  0  0  0  0  0  0  0  0
  128.1550  129.6320   56.0630 C   0  0  0  0  0  0  0  0  0  0  0  0
  127.9090  128.5020   55.6390 O   0  0  0  0  0  0  0  0  0  0  0  0
  129.3860  130.4170   55.5830 C   0  0  0  0  0  0  0  0  0  0  0  0
  129.6340  132.0520   56.3580 S   0  0  0  0  0  0  0  0  0  0  0  0
  129.7620  131.8480   58.1290 C   0  0  0  0  0  0  0  0  0  0  0  0
  128.6620  132.1950   58.8470 N   0  0  0  0  0  0  0  0  0  0  0  0
  128.6950  132.0740   60.1940 C   0  0  0  0  0  0  0  0  0  0  0  0
  127.4320  132.4890   60.9240 C   0  0  0  0  0  0  0  0  0  0  0  0
  129.8120  131.5990   60.8790 C   0  0  0  0  0  0  0  0  0  0  0  0
  130.9480  131.2320   60.1510 C   0  0  0  0  0  0  0  0  0  0  0  0
  132.1610  130.7150   60.9200 C   0  0  0  0  0  0  0  0  0  0  0  0
  130.9360  131.3540   58.7440 C   0  0  0  0  0  0  0  0  0  0  0  0
  132.1140  130.9800   57.9560 C   0  0  0  0  0  0  0  0  0  0  0  0
  133.0450  130.6850   57.3350 N   0  0  0  0  0  0  0  0  0  0  0  0
  1  2  1  0
  2  3  1  0
  3  4  1  0
  4  5  1  0
  5  6  1  0
  6  7  1  0
  7  8  1  0
  8  9  1  0
  9 10  1  0
 10 11  1  0
 11 12  1  0
 12 13  2  0
 12 14  1  0
 14 15  1  0
 15 16  1  0
 16 17  2  0
 17 18  1  0
 18 19  1  0
 18 20  2  0
 20 21  1  0
 21 22  1  0
 21 23  2  0
 23 24  1  0
 24 25  3  0
 23 16  1  0
M  END
>  <Binding energies>  (11) 
[-5.85]

>  <Ligand effiencies>  (11) 
[-0.22499999999999998]

>  <Interactions>  (11) 
["V-A:TYR:539:CD1:4873, V-A:PRO:540:CB:4885, V-A:PRO:540:N:4884, V-A:TYR:539:CE1:4875, V-A:PRO:540:CA:4883, H-B:TYR:531:OH:9767, V-A:TYR:539:C:4867, V-A:TYR:539:CZ:4877, V-B:PRO:540:CB:9857, V-B:PRO:540:CD:9859, V-B:PRO:540:N:9856, V-B:PRO:540:CA:9855, V-B:MET:535:CE:9807, V-B:TYR:539:C:9839, V-B:LEU:363:CD1:8160, H-A:TYR:531:OH:4795, H-A:TYR:539:N:4870, V-B:ILE:538:CG2:9835, H-B:TYR:539:N:9842, V-B:ILE:538:CA:9832, V-B:ILE:538:CB:9834, V-B:ILE:538:CG1:9836"]

$$$$
1l_Grossjean_2025
     RDKit          3D

 17 17  0  0  0  0  0  0  0  0999 V2000
  132.4060  132.7340   55.7880 C   0  0  0  0  0  0  0  0  0  0  0  0
  131.0450  132.4840   55.4690 O   0  0  0  0  0  0  0  0  0  0  0  0
  130.3980  131.9100   56.5620 N   0  0  0  0  0  0  0  0  0  0  0  0
  129.0520  131.9110   56.6000 C   0  0  0  0  0  0  0  0  0  0  0  0
  128.3410  132.1820   55.6280 O   0  0  0  0  0  0  0  0  0  0  0  0
  128.4370  131.5300   57.9540 C   0  0  0  0  0  0  0  0  0  0  0  0
  129.1520  130.0440   58.7350 S   0  0  0  0  0  0  0  0  0  0  0  0
  130.8990  130.3250   58.9690 C   0  0  0  0  0  0  0  0  0  0  0  0
  131.7040  129.9130   57.9550 N   0  0  0  0  0  0  0  0  0  0  0  0
  133.0410  130.0940   58.0670 C   0  0  0  0  0  0  0  0  0  0  0  0
  133.8720  129.6090   56.8950 C   0  0  0  0  0  0  0  0  0  0  0  0
  133.6270  130.6890   59.1820 C   0  0  0  0  0  0  0  0  0  0  0  0
  132.8090  131.1180   60.2320 C   0  0  0  0  0  0  0  0  0  0  0  0
  133.4740  131.7690   61.4440 C   0  0  0  0  0  0  0  0  0  0  0  0
  131.4120  130.9380   60.1360 C   0  0  0  0  0  0  0  0  0  0  0  0
  130.5300  131.3780   61.2220 C   0  0  0  0  0  0  0  0  0  0  0  0
  129.8360  131.7260   62.0790 N   0  0  0  0  0  0  0  0  0  0  0  0
  1  2  1  0
  2  3  1  0
  3  4  1  0
  4  5  2  0
  4  6  1  0
  6  7  1  0
  7  8  1  0
  8  9  2  0
  9 10  1  0
 10 11  1  0
 10 12  2  0
 12 13  1  0
 13 14  1  0
 13 15  2  0
 15 16  1  0
 16 17  3  0
 15  8  1  0
M  END
>  <Binding energies>  (12) 
[-5.54]

>  <Ligand effiencies>  (12) 
[-0.30777777777777776]

>  <Interactions>  (12) 
["V-A:ASP:366:CG:3212, V-A:TYR:539:CD1:4873, H-A:TYR:539:OH:4878, V-A:PRO:540:CB:4885, V-A:ILE:538:CB:4862, V-A:ILE:538:CG2:4863, V-A:LEU:363:CD1:3188, V-A:PRO:540:N:4884, V-A:TYR:531:CE2:4793, V-A:TYR:539:CE1:4875, V-A:PRO:540:CA:4883, V-A:TYR:531:CZ:4794, H-A:ALA:541:N:4891, V-A:TYR:539:C:4867, V-A:PRO:540:CD:4887, V-A:TYR:539:CZ:4877, V-A:TYR:539:CG:4872, V-A:ASP:366:CB:3211, V-A:PRO:540:C:4881, V-A:LEU:363:CA:3184, V-A:ASN:362:CB:3175, V-A:ASN:362:C:3171, V-A:LEU:363:CB:3186, H-A:TYR:539:N:4870, V-A:PRO:540:CG:4886, V-A:ILE:538:CD1:4865"]

$$$$
1m_Grossjean_2025
     RDKit          3D

 20 20  0  0  0  0  0  0  0  0999 V2000
  129.0260  122.2110   59.8430 C   0  0  0  0  0  0  0  0  0  0  0  0
  128.6860  123.4130   60.5190 O   0  0  0  0  0  0  0  0  0  0  0  0
  128.0630  123.3740   61.7150 C   0  0  0  0  0  0  0  0  0  0  0  0
  128.1960  122.4890   62.5650 O   0  0  0  0  0  0  0  0  0  0  0  0
  127.1460  124.5990   61.9150 C   0  0  0  0  0  0  0  0  0  0  0  0
  125.8900  124.5010   61.1560 N   0  0  0  0  0  0  0  0  0  0  0  0
  125.0650  123.4360   61.1380 C   0  0  0  0  0  0  0  0  0  0  0  0
  125.2940  122.3980   61.7610 O   0  0  0  0  0  0  0  0  0  0  0  0
  123.8060  123.5910   60.2740 C   0  0  0  0  0  0  0  0  0  0  0  0
  124.1240  123.7260   58.4810 S   0  0  0  0  0  0  0  0  0  0  0  0
  125.7050  124.5130   58.2600 C   0  0  0  0  0  0  0  0  0  0  0  0
  125.7460  125.7890   58.7230 N   0  0  0  0  0  0  0  0  0  0  0  0
  126.9020  126.4840   58.6140 C   0  0  0  0  0  0  0  0  0  0  0  0
  126.8770  127.8950   59.1700 C   0  0  0  0  0  0  0  0  0  0  0  0
  128.0500  125.9490   58.0340 C   0  0  0  0  0  0  0  0  0  0  0  0
  128.0120  124.6440   57.5300 C   0  0  0  0  0  0  0  0  0  0  0  0
  129.2780  124.0840   56.8850 C   0  0  0  0  0  0  0  0  0  0  0  0
  126.8150  123.8980   57.6320 C   0  0  0  0  0  0  0  0  0  0  0  0
  126.7390  122.5490   57.0670 C   0  0  0  0  0  0  0  0  0  0  0  0
  126.6790  121.4830   56.6210 N   0  0  0  0  0  0  0  0  0  0  0  0
  1  2  1  0
  2  3  1  0
  3  4  2  0
  3  5  1  0
  5  6  1  0
  6  7  1  0
  7  8  2  0
  7  9  1  0
  9 10  1  0
 10 11  1  0
 11 12  2  0
 12 13  1  0
 13 14  1  0
 13 15  2  0
 15 16  1  0
 16 17  1  0
 16 18  2  0
 18 19  1  0
 19 20  3  0
 18 11  1  0
M  END
>  <Binding energies>  (13) 
[-5.44]

>  <Ligand effiencies>  (13) 
[-0.2590476190476191]

>  <Interactions>  (13) 
["H-B:ALA:541:N:9863, V-B:GLU:543:CD:9880, V-B:ASP:366:CG:8184, H-B:TYR:531:OH:9767, V-B:PRO:540:CB:9857, V-B:TYR:539:CE2:9848, V-B:PRO:540:N:9856, V-B:PRO:540:CA:9855, V-B:MET:535:CE:9807, H-B:ASP:366:OD1:8185, V-B:TYR:539:C:9839, V-B:TYR:539:CZ:9849, V-B:LEU:363:CA:8156, V-B:LEU:363:CB:8158, H-B:TYR:539:N:9842, V-B:ASN:362:C:8143, V-B:ASN:362:CB:8147"]

$$$$
1n_Grossjean_2025
     RDKit          3D

 27 28  0  0  0  0  0  0  0  0999 V2000
  124.4890  123.7600   58.8450 C   0  0  0  0  0  0  0  0  0  0  0  0
  125.5700  124.6100   58.1710 C   0  0  0  0  0  0  0  0  0  0  0  0
  125.9950  123.9710   56.9730 O   0  0  0  0  0  0  0  0  0  0  0  0
  126.8370  122.9060   57.0070 C   0  0  0  0  0  0  0  0  0  0  0  0
  126.5440  121.7930   56.5610 O   0  0  0  0  0  0  0  0  0  0  0  0
  128.1670  123.2220   57.6290 C   0  0  0  0  0  0  0  0  0  0  0  0
  128.6750  122.4850   58.7100 C   0  0  0  0  0  0  0  0  0  0  0  0
  129.9100  122.8050   59.2660 C   0  0  0  0  0  0  0  0  0  0  0  0
  130.6580  123.8700   58.7620 C   0  0  0  0  0  0  0  0  0  0  0  0
  131.8890  124.1100   59.4020 N   0  0  0  0  0  0  0  0  0  0  0  0
  133.1260  123.6680   59.0880 C   0  0  0  0  0  0  0  0  0  0  0  0
  133.4040  122.9460   58.1310 O   0  0  0  0  0  0  0  0  0  0  0  0
  134.2520  124.1290   60.0230 C   0  0  0  0  0  0  0  0  0  0  0  0
  134.0470  123.6790   61.4860 C   0  0  0  0  0  0  0  0  0  0  0  0
  134.2060  121.8880   61.7530 S   0  0  0  0  0  0  0  0  0  0  0  0
  132.5710  121.1860   61.6930 C   0  0  0  0  0  0  0  0  0  0  0  0
  131.6200  121.9780   62.2500 N   0  0  0  0  0  0  0  0  0  0  0  0
  130.3350  121.5520   62.2460 C   0  0  0  0  0  0  0  0  0  0  0  0
  129.3260  122.4930   62.8750 C   0  0  0  0  0  0  0  0  0  0  0  0
  129.9490  120.3300   61.6990 C   0  0  0  0  0  0  0  0  0  0  0  0
  130.9250  119.4970   61.1400 C   0  0  0  0  0  0  0  0  0  0  0  0
  130.4810  118.1570   60.5590 C   0  0  0  0  0  0  0  0  0  0  0  0
  132.2750  119.9190   61.1380 C   0  0  0  0  0  0  0  0  0  0  0  0
  133.3190  119.0420   60.6060 C   0  0  0  0  0  0  0  0  0  0  0  0
  134.1430  118.3460   60.1860 N   0  0  0  0  0  0  0  0  0  0  0  0
  130.1620  124.6050   57.6750 C   0  0  0  0  0  0  0  0  0  0  0  0
  128.9280  124.2810   57.1180 C   0  0  0  0  0  0  0  0  0  0  0  0
  1  2  1  0
  2  3  1  0
  3  4  1  0
  4  5  2  0
  4  6  1  0
  6  7  2  0
  7  8  1  0
  8  9  2  0
  9 10  1  0
 10 11  1  0
 11 12  2  0
 11 13  1  0
 13 14  1  0
 14 15  1  0
 15 16  1  0
 16 17  2  0
 17 18  1  0
 18 19  1  0
 18 20  2  0
 20 21  1  0
 21 22  1  0
 21 23  2  0
 23 24  1  0
 24 25  3  0
  9 26  1  0
 26 27  2  0
 27  6  1  0
 23 16  1  0
M  END
>  <Binding energies>  (14) 
[-8.33]

>  <Ligand effiencies>  (14) 
[-0.2975]

>  <Interactions>  (14) 
["V-A:ASP:366:CG:3212, V-B:ALA:541:CB:9864, H-A:ASP:366:OD2:3214, H-B:TYR:531:OH:9767, V-A:PRO:482:CG:4326, V-B:PRO:540:CB:9857, V-B:TYR:539:CE2:9848, V-B:PRO:540:CA:9855, V-B:MET:535:CE:9807, V-B:TYR:539:CD2:9846, V-B:TYR:531:CE2:9765, V-B:TYR:539:C:9839, V-B:LEU:363:CD1:8160, V-A:ILE:369:CG2:3236, V-A:ASP:366:CB:3211, V-A:ILE:369:CB:3235, V-A:LEU:475:CD1:4257, V-B:ALA:541:CA:9862, V-B:PRO:540:C:9853, V-A:ILE:369:CD1:3238, V-A:SER:385:CA:3406, V-B:TYR:539:CZ:9849, H-B:TYR:539:OH:9850, V-B:LEU:363:CA:8156, V-A:ASP:366:CA:3209, V-B:LEU:363:CB:8158, H-B:TYR:539:N:9842, H-A:SER:385:OG:3409, H-A:HIS:383:NE2:3393"]

$$$$
1q_Grossjean_2025
     RDKit          3D

 21 21  0  0  0  0  0  0  0  0999 V2000
  125.1790  124.2900   57.9920 C   0  0  0  0  0  0  0  0  0  0  0  0
  126.3310  123.9390   57.2380 O   0  0  0  0  0  0  0  0  0  0  0  0
  126.8030  122.6680   57.2540 C   0  0  0  0  0  0  0  0  0  0  0  0
  126.4170  121.7510   56.5270 O   0  0  0  0  0  0  0  0  0  0  0  0
  127.8920  122.4160   58.3180 C   0  0  0  0  0  0  0  0  0  0  0  0
  127.9230  123.4490   59.3640 N   0  0  0  0  0  0  0  0  0  0  0  0
  127.7620  123.2400   60.6850 C   0  0  0  0  0  0  0  0  0  0  0  0
  127.5670  122.1250   61.1720 O   0  0  0  0  0  0  0  0  0  0  0  0
  127.8510  124.4860   61.5780 C   0  0  0  0  0  0  0  0  0  0  0  0
  128.6800  124.2860   62.8630 C   0  0  0  0  0  0  0  0  0  0  0  0
  130.1520  125.3480   62.9500 S   0  0  0  0  0  0  0  0  0  0  0  0
  130.5070  125.6870   64.6630 C   0  0  0  0  0  0  0  0  0  0  0  0
  129.4040  126.0030   65.3890 N   0  0  0  0  0  0  0  0  0  0  0  0
  129.5480  126.2830   66.7050 C   0  0  0  0  0  0  0  0  0  0  0  0
  128.2740  126.6440   67.4460 C   0  0  0  0  0  0  0  0  0  0  0  0
  130.7820  126.2500   67.3500 C   0  0  0  0  0  0  0  0  0  0  0  0
  131.9210  125.9000   66.6190 C   0  0  0  0  0  0  0  0  0  0  0  0
  133.2610  125.8530   67.3530 C   0  0  0  0  0  0  0  0  0  0  0  0
  131.7960  125.6010   65.2430 C   0  0  0  0  0  0  0  0  0  0  0  0
  132.9690  125.1780   64.4750 C   0  0  0  0  0  0  0  0  0  0  0  0
  133.8980  124.8440   63.8710 N   0  0  0  0  0  0  0  0  0  0  0  0
  1  2  1  0
  2  3  1  0
  3  4  2  0
  3  5  1  0
  5  6  1  0
  6  7  1  0
  7  8  2  0
  7  9  1  0
  9 10  1  0
 10 11  1  0
 11 12  1  0
 12 13  2  0
 13 14  1  0
 14 15  1  0
 14 16  2  0
 16 17  1  0
 17 18  1  0
 17 19  2  0
 19 20  1  0
 20 21  3  0
 19 12  1  0
M  END
>  <Binding energies>  (15) 
[-6.62]

>  <Ligand effiencies>  (15) 
[-0.3009090909090909]

>  <Interactions>  (15) 
["V-A:HIS:456:CE1:4069, H-A:GLY:454:N:4049, H-A:ARG:545:NH2:4928, V-A:TYR:484:CZ:4346, V-B:GLU:543:CG:9879, H-B:ALA:541:N:9863, V-A:ARG:545:CZ:4926, V-B:GLU:543:CD:9880, V-A:ARG:545:CD:4923, V-A:ARG:545:CG:4922, H-B:TYR:531:OH:9767, V-B:PRO:540:N:9856, V-B:PRO:540:CA:9855, V-B:MET:535:CE:9807, V-B:TYR:531:CE2:9765, V-B:TYR:539:C:9839, V-B:LEU:363:CD1:8160, V-B:GLU:543:CB:9878, H-A:ARG:545:NH1:4927, H-B:TYR:539:N:9842"]

$$$$
2a_Grossjean_2025
     RDKit          3D

 29 30  0  0  0  0  0  0  0  0999 V2000
  124.4900  123.6380   58.7460 C   0  0  0  0  0  0  0  0  0  0  0  0
  125.5140  124.5650   58.0850 C   0  0  0  0  0  0  0  0  0  0  0  0
  125.9900  123.9620   56.8880 O   0  0  0  0  0  0  0  0  0  0  0  0
  126.7300  122.8230   56.9240 C   0  0  0  0  0  0  0  0  0  0  0  0
  126.3600  121.7550   56.4270 O   0  0  0  0  0  0  0  0  0  0  0  0
  128.0540  123.0000   57.6110 C   0  0  0  0  0  0  0  0  0  0  0  0
  128.4890  122.1270   58.6190 C   0  0  0  0  0  0  0  0  0  0  0  0
  129.7210  122.3200   59.2360 C   0  0  0  0  0  0  0  0  0  0  0  0
  130.5390  123.3880   58.8670 C   0  0  0  0  0  0  0  0  0  0  0  0
  131.7550  123.4940   59.5680 N   0  0  0  0  0  0  0  0  0  0  0  0
  133.0260  123.4230   59.1160 C   0  0  0  0  0  0  0  0  0  0  0  0
  133.3590  123.2160   57.9490 O   0  0  0  0  0  0  0  0  0  0  0  0
  134.1150  123.6180   60.1760 C   0  0  0  0  0  0  0  0  0  0  0  0
  134.2220  122.2380   61.3640 S   0  0  0  0  0  0  0  0  0  0  0  0
  132.6270  121.4390   61.5060 C   0  0  0  0  0  0  0  0  0  0  0  0
  131.6460  122.1800   62.0820 N   0  0  0  0  0  0  0  0  0  0  0  0
  130.4190  121.6350   62.2330 C   0  0  0  0  0  0  0  0  0  0  0  0
  129.3840  122.5150   62.9090 C   0  0  0  0  0  0  0  0  0  0  0  0
  130.1140  120.3430   61.8140 C   0  0  0  0  0  0  0  0  0  0  0  0
  131.1100  119.5620   61.2070 C   0  0  0  0  0  0  0  0  0  0  0  0
  130.7560  118.1350   60.7480 C   0  0  0  0  0  0  0  0  0  0  0  0
  131.0510  117.9830   59.4570 F   0  0  0  0  0  0  0  0  0  0  0  0
  131.4470  117.2430   61.4590 F   0  0  0  0  0  0  0  0  0  0  0  0
  129.4600  117.8510   60.9000 F   0  0  0  0  0  0  0  0  0  0  0  0
  132.4030  120.1200   61.0460 C   0  0  0  0  0  0  0  0  0  0  0  0
  133.4820  119.3470   60.4220 C   0  0  0  0  0  0  0  0  0  0  0  0
  134.3330  118.7370   59.9300 N   0  0  0  0  0  0  0  0  0  0  0  0
  130.1150  124.2600   57.8550 C   0  0  0  0  0  0  0  0  0  0  0  0
  128.8840  124.0640   57.2350 C   0  0  0  0  0  0  0  0  0  0  0  0
  1  2  1  0
  2  3  1  0
  3  4  1  0
  4  5  2  0
  4  6  1  0
  6  7  2  0
  7  8  1  0
  8  9  2  0
  9 10  1  0
 10 11  1  0
 11 12  2  0
 11 13  1  0
 13 14  1  0
 14 15  1  0
 15 16  2  0
 16 17  1  0
 17 18  1  0
 17 19  2  0
 19 20  1  0
 20 21  1  0
 21 22  1  0
 21 23  1  0
 21 24  1  0
 20 25  2  0
 25 26  1  0
 26 27  3  0
  9 28  1  0
 28 29  2  0
 29  6  1  0
 25 15  1  0
M  END
>  <Binding energies>  (16) 
[-7.99]

>  <Ligand effiencies>  (16) 
[-0.26633333333333337]

>  <Interactions>  (16) 
["V-A:ASP:366:CG:3212, V-B:ALA:541:CB:9864, H-B:TYR:531:OH:9767, V-A:PRO:482:CG:4326, V-B:PRO:540:CB:9857, V-B:TYR:539:CE2:9848, V-B:PRO:540:N:9856, V-B:PRO:540:CA:9855, V-B:MET:535:CE:9807, V-B:TYR:539:CD2:9846, V-B:TYR:531:CE2:9765, V-A:PRO:482:CB:4325, V-B:TYR:539:C:9839, V-B:LEU:363:CD1:8160, V-A:ILE:369:CG2:3236, V-A:ILE:369:CB:3235, V-A:LEU:475:CD1:4257, V-B:ALA:541:CA:9862, V-B:PRO:540:C:9853, V-A:ILE:369:CD1:3238, V-A:SER:385:CA:3406, V-B:TYR:539:CG:9844, V-B:TYR:539:CZ:9849, H-B:TYR:539:OH:9850, V-B:LEU:363:CA:8156, V-A:ASP:366:CA:3209, V-B:LEU:363:CB:8158, V-B:TYR:539:CB:9843, H-B:TYR:539:N:9842, H-A:SER:385:OG:3409, H-A:HIS:383:NE2:3393, V-A:HIS:383:CE1:3392, V-A:PRO:482:CD:4327"]

$$$$
2b_Grossjean_2025
     RDKit          3D

 28 29  0  0  0  0  0  0  0  0999 V2000
  125.1890  124.3260   58.0090 C   0  0  0  0  0  0  0  0  0  0  0  0
  125.9980  123.9620   56.8990 O   0  0  0  0  0  0  0  0  0  0  0  0
  126.7520  122.8340   56.9230 C   0  0  0  0  0  0  0  0  0  0  0  0
  126.3890  121.7620   56.4260 O   0  0  0  0  0  0  0  0  0  0  0  0
  128.0710  123.0170   57.6160 C   0  0  0  0  0  0  0  0  0  0  0  0
  128.5070  122.1440   58.6240 C   0  0  0  0  0  0  0  0  0  0  0  0
  129.7350  122.3430   59.2480 C   0  0  0  0  0  0  0  0  0  0  0  0
  130.5540  123.4100   58.8760 C   0  0  0  0  0  0  0  0  0  0  0  0
  131.7710  123.5210   59.5760 N   0  0  0  0  0  0  0  0  0  0  0  0
  133.0380  123.4180   59.1220 C   0  0  0  0  0  0  0  0  0  0  0  0
  133.3610  123.1690   57.9600 O   0  0  0  0  0  0  0  0  0  0  0  0
  134.1280  123.6160   60.1800 C   0  0  0  0  0  0  0  0  0  0  0  0
  134.2410  122.2310   61.3610 S   0  0  0  0  0  0  0  0  0  0  0  0
  132.6530  121.4230   61.5080 C   0  0  0  0  0  0  0  0  0  0  0  0
  131.6720  122.1540   62.0940 N   0  0  0  0  0  0  0  0  0  0  0  0
  130.4460  121.6040   62.2420 C   0  0  0  0  0  0  0  0  0  0  0  0
  129.4090  122.4810   62.9180 C   0  0  0  0  0  0  0  0  0  0  0  0
  130.1440  120.3160   61.8100 C   0  0  0  0  0  0  0  0  0  0  0  0
  131.1410  119.5440   61.1940 C   0  0  0  0  0  0  0  0  0  0  0  0
  130.7890  118.1220   60.7170 C   0  0  0  0  0  0  0  0  0  0  0  0
  131.0840  117.9890   59.4230 F   0  0  0  0  0  0  0  0  0  0  0  0
  131.4830  117.2200   61.4130 F   0  0  0  0  0  0  0  0  0  0  0  0
  129.4950  117.8320   60.8660 F   0  0  0  0  0  0  0  0  0  0  0  0
  132.4340  120.1070   61.0380 C   0  0  0  0  0  0  0  0  0  0  0  0
  133.5150  119.3430   60.4080 C   0  0  0  0  0  0  0  0  0  0  0  0
  134.3680  118.7400   59.9100 N   0  0  0  0  0  0  0  0  0  0  0  0
  130.1220  124.2910   57.8750 C   0  0  0  0  0  0  0  0  0  0  0  0
  128.8930  124.0920   57.2520 C   0  0  0  0  0  0  0  0  0  0  0  0
  1  2  1  0
  2  3  1  0
  3  4  2  0
  3  5  1  0
  5  6  2  0
  6  7  1  0
  7  8  2  0
  8  9  1  0
  9 10  1  0
 10 11  2  0
 10 12  1  0
 12 13  1  0
 13 14  1  0
 14 15  2  0
 15 16  1  0
 16 17  1  0
 16 18  2  0
 18 19  1  0
 19 20  1  0
 20 21  1  0
 20 22  1  0
 20 23  1  0
 19 24  2  0
 24 25  1  0
 25 26  3  0
  8 27  1  0
 27 28  2  0
 28  5  1  0
 24 14  1  0
M  END
>  <Binding energies>  (17) 
[-7.7]

>  <Ligand effiencies>  (17) 
[-0.2655172413793104]

>  <Interactions>  (17) 
["V-A:ASP:366:CG:3212, V-B:ALA:541:CB:9864, H-B:TYR:531:OH:9767, V-A:PRO:482:CG:4326, V-B:TYR:539:CE2:9848, V-B:PRO:540:N:9856, V-B:PRO:540:CA:9855, V-B:MET:535:CE:9807, V-B:TYR:539:CD2:9846, V-B:TYR:531:CE2:9765, V-A:PRO:482:CB:4325, V-B:TYR:539:C:9839, V-B:LEU:363:CD1:8160, V-A:ILE:369:CG2:3236, V-A:ILE:369:CB:3235, V-A:LEU:475:CD1:4257, V-B:ALA:541:CA:9862, V-B:PRO:540:C:9853, V-A:ILE:369:CD1:3238, V-A:SER:385:CA:3406, V-B:TYR:539:CG:9844, V-B:TYR:539:CZ:9849, H-B:TYR:539:OH:9850, V-A:ASP:366:CA:3209, V-B:TYR:539:CB:9843, H-B:TYR:539:N:9842, H-A:SER:385:OG:3409, H-A:HIS:383:NE2:3393, V-A:HIS:383:CE1:3392, V-A:PRO:482:CD:4327"]

$$$$
2c_Grossjean_2025
     RDKit          3D

 26 27  0  0  0  0  0  0  0  0999 V2000
  125.0570  121.7620   55.4370 C   0  0  0  0  0  0  0  0  0  0  0  0
  126.4090  121.5560   55.8310 O   0  0  0  0  0  0  0  0  0  0  0  0
  126.8540  122.0990   57.0200 C   0  0  0  0  0  0  0  0  0  0  0  0
  128.2180  121.9820   57.2860 C   0  0  0  0  0  0  0  0  0  0  0  0
  128.7610  122.4970   58.4610 C   0  0  0  0  0  0  0  0  0  0  0  0
  127.9300  123.1320   59.3950 C   0  0  0  0  0  0  0  0  0  0  0  0
  128.3890  123.6990   60.5990 N   0  0  0  0  0  0  0  0  0  0  0  0
  128.0650  123.3620   61.8660 C   0  0  0  0  0  0  0  0  0  0  0  0
  127.2390  122.5010   62.1730 O   0  0  0  0  0  0  0  0  0  0  0  0
  128.7850  124.1730   62.9540 C   0  0  0  0  0  0  0  0  0  0  0  0
  129.9130  123.2180   64.0280 S   0  0  0  0  0  0  0  0  0  0  0  0
  130.8480  122.0640   63.0320 C   0  0  0  0  0  0  0  0  0  0  0  0
  130.1570  120.9880   62.5740 N   0  0  0  0  0  0  0  0  0  0  0  0
  130.8020  120.0700   61.8220 C   0  0  0  0  0  0  0  0  0  0  0  0
  129.9670  118.8900   61.3640 C   0  0  0  0  0  0  0  0  0  0  0  0
  132.1500  120.1850   61.4870 C   0  0  0  0  0  0  0  0  0  0  0  0
  132.8810  121.2910   61.9420 C   0  0  0  0  0  0  0  0  0  0  0  0
  134.3700  121.4060   61.5620 C   0  0  0  0  0  0  0  0  0  0  0  0
  135.0980  121.6810   62.6450 F   0  0  0  0  0  0  0  0  0  0  0  0
  134.7970  120.2590   61.0330 F   0  0  0  0  0  0  0  0  0  0  0  0
  134.6010  122.3710   60.6680 F   0  0  0  0  0  0  0  0  0  0  0  0
  132.2180  122.2610   62.7370 C   0  0  0  0  0  0  0  0  0  0  0  0
  132.9340  123.4370   63.2420 C   0  0  0  0  0  0  0  0  0  0  0  0
  133.4990  124.3660   63.6400 N   0  0  0  0  0  0  0  0  0  0  0  0
  126.5670  123.2670   59.1270 C   0  0  0  0  0  0  0  0  0  0  0  0
  126.0290  122.7510   57.9510 C   0  0  0  0  0  0  0  0  0  0  0  0
  1  2  1  0
  2  3  1  0
  3  4  2  0
  4  5  1  0
  5  6  2  0
  6  7  1  0
  7  8  1  0
  8  9  2  0
  8 10  1  0
 10 11  1  0
 11 12  1  0
 12 13  2  0
 13 14  1  0
 14 15  1  0
 14 16  2  0
 16 17  1  0
 17 18  1  0
 18 19  1  0
 18 20  1  0
 18 21  1  0
 17 22  2  0
 22 23  1  0
 23 24  3  0
  6 25  1  0
 25 26  2  0
 26  3  1  0
 22 12  1  0
M  END
>  <Binding energies>  (18) 
[-7.3]

>  <Ligand effiencies>  (18) 
[-0.27037037037037037]

>  <Interactions>  (18) 
["H-A:GLY:454:N:4049, V-B:GLU:543:CG:9879, H-B:ALA:541:N:9863, V-B:GLU:543:CD:9880, V-B:ALA:541:CB:9864, V-A:GLY:453:C:4041, V-A:PRO:482:CG:4326, V-B:PRO:540:CB:9857, V-B:TYR:539:CE2:9848, V-B:PRO:540:CD:9859, V-B:PRO:540:N:9856, V-B:PRO:540:CA:9855, V-B:MET:535:CE:9807, V-B:TYR:539:CA:9841, V-B:TYR:539:CD2:9846, V-A:PRO:482:CB:4325, V-B:TYR:539:C:9839, V-B:LEU:363:CD1:8160, V-A:GLY:454:CA:4048, V-A:ILE:369:CG1:3237, V-A:ILE:369:CG2:3236, V-A:ILE:369:CB:3235, V-A:LEU:475:CD1:4257, V-B:ALA:541:CA:9862, V-B:PRO:540:C:9853, V-A:SER:385:C:3404, V-A:ILE:369:CD1:3238, V-A:SER:385:CA:3406, V-B:TYR:539:CG:9844, V-B:TYR:539:CZ:9849, V-B:TYR:539:CE1:9847, V-B:TYR:539:CD1:9845, V-B:ILE:538:CG2:9835, H-B:TYR:539:N:9842, V-B:ILE:538:CA:9832, V-B:ILE:538:CB:9834, V-B:ILE:538:CG1:9836"]

$$$$
2d_Ghoteimi_2023
     RDKit          3D

 38 42  0  0  0  0  0  0  0  0999 V2000
  128.3770  126.7860   68.4200 C   0  0  0  0  0  0  0  0  0  0  0  0
  129.0770  127.8650   67.8200 O   0  0  0  0  0  0  0  0  0  0  0  0
  128.6260  129.1300   67.9470 C   0  0  0  0  0  0  0  0  0  0  0  0
  128.5890  129.7760   68.9980 O   0  0  0  0  0  0  0  0  0  0  0  0
  128.1580  129.6930   66.5960 C   0  0  0  0  0  0  0  0  0  0  0  0
  127.1450  128.4750   65.6880 S   0  0  0  0  0  0  0  0  0  0  0  0
  126.8700  129.0930   64.0400 C   0  0  0  0  0  0  0  0  0  0  0  0
  126.8270  128.1150   63.1030 N   0  0  0  0  0  0  0  0  0  0  0  0
  126.6310  128.4420   61.8000 C   0  0  0  0  0  0  0  0  0  0  0  0
  126.6130  127.3130   60.8220 C   0  0  0  0  0  0  0  0  0  0  0  0
  126.9290  126.0120   61.2300 C   0  0  0  0  0  0  0  0  0  0  0  0
  126.9150  124.9550   60.3230 C   0  0  0  0  0  0  0  0  0  0  0  0
  126.5730  125.1590   58.9780 C   0  0  0  0  0  0  0  0  0  0  0  0
  126.5720  124.1110   58.0500 N   0  0  0  0  0  0  0  0  0  0  0  0
  127.4730  122.9510   58.1950 C   0  0  0  0  0  0  0  0  0  0  0  0
  127.5990  122.1020   56.9130 C   0  0  0  0  0  0  0  0  0  0  0  0
  126.3120  121.6910   56.4760 O   0  0  0  0  0  0  0  0  0  0  0  0
  125.4830  122.8030   56.1810 C   0  0  0  0  0  0  0  0  0  0  0  0
  125.2990  123.6770   57.4400 C   0  0  0  0  0  0  0  0  0  0  0  0
  126.2710  126.4660   58.5710 C   0  0  0  0  0  0  0  0  0  0  0  0
  126.2870  127.5230   59.4760 C   0  0  0  0  0  0  0  0  0  0  0  0
  126.4670  129.7740   61.4090 C   0  0  0  0  0  0  0  0  0  0  0  0
  126.4730  130.8000   62.3610 C   0  0  0  0  0  0  0  0  0  0  0  0
  126.2640  132.1960   61.8730 C   0  0  0  0  0  0  0  0  0  0  0  0
  124.9810  132.6430   61.5520 C   0  0  0  0  0  0  0  0  0  0  0  0
  124.7730  133.9450   61.1080 C   0  0  0  0  0  0  0  0  0  0  0  0
  125.8470  134.8400   60.9700 C   0  0  0  0  0  0  0  0  0  0  0  0
  125.6610  136.1560   60.5390 N   0  0  0  0  0  0  0  0  0  0  0  0
  124.4140  136.5770   59.8700 C   0  0  0  0  0  0  0  0  0  0  0  0
  124.2430  138.1090   59.7950 C   0  0  0  0  0  0  0  0  0  0  0  0
  125.3760  138.6940   59.1710 O   0  0  0  0  0  0  0  0  0  0  0  0
  126.5700  138.4180   59.8870 C   0  0  0  0  0  0  0  0  0  0  0  0
  126.8010  136.8930   59.9610 C   0  0  0  0  0  0  0  0  0  0  0  0
  127.1290  134.3880   61.3120 C   0  0  0  0  0  0  0  0  0  0  0  0
  127.3360  133.0860   61.7570 C   0  0  0  0  0  0  0  0  0  0  0  0
  126.6750  130.4570   63.7220 C   0  0  0  0  0  0  0  0  0  0  0  0
  126.6710  131.4930   64.7580 C   0  0  0  0  0  0  0  0  0  0  0  0
  126.6670  132.3150   65.5740 N   0  0  0  0  0  0  0  0  0  0  0  0
  1  2  1  0
  2  3  1  0
  3  4  2  0
  3  5  1  0
  5  6  1  0
  6  7  1  0
  7  8  2  0
  8  9  1  0
  9 10  1  0
 10 11  2  0
 11 12  1  0
 12 13  2  0
 13 14  1  0
 14 15  1  0
 15 16  1  0
 16 17  1  0
 17 18  1  0
 18 19  1  0
 13 20  1  0
 20 21  2  0
  9 22  2  0
 22 23  1  0
 23 24  1  0
 24 25  2  0
 25 26  1  0
 26 27  2  0
 27 28  1  0
 28 29  1  0
 29 30  1  0
 30 31  1  0
 31 32  1  0
 32 33  1  0
 27 34  1  0
 34 35  2  0
 23 36  2  0
 36 37  1  0
 37 38  3  0
 36  7  1  0
 21 10  1  0
 35 24  1  0
 19 14  1  0
 33 28  1  0
M  END
>  <Binding energies>  (19) 
[-9.35]

>  <Ligand effiencies>  (19) 
[-0.24605263157894736]

>  <Interactions>  (19) 
["V-A:TYR:539:CD1:4873, V-B:ILE:369:CG2:8208, V-B:ASP:366:CG:8184, V-B:LEU:475:CD1:9229, V-A:ALA:541:CB:4892, V-B:ASP:366:CB:8183, V-A:TYR:539:C:4867, V-A:GLU:543:CD:4908, V-A:GLU:543:CG:4907, V-A:TYR:539:CG:4872, V-B:PRO:540:N:9856, V-B:PRO:540:CA:9855, V-B:MET:535:CE:9807, V-B:TYR:539:CA:9841, V-B:TYR:531:CE2:9765, V-B:TYR:539:C:9839, H-B:ARG:545:NH2:9900, V-B:LEU:363:CD1:8160, V-A:GLU:543:CA:4904, V-B:GLU:543:CB:9878, V-A:GLU:543:CB:4906, V-B:HIS:456:CE1:9041, V-B:TYR:539:CG:9844, V-B:TYR:484:CE2:9317, V-B:TYR:539:CE1:9847, V-B:TYR:539:CD1:9845, H-B:TYR:539:N:9842, V-A:TYR:539:CB:4871, V-B:PRO:482:CG:9298, V-B:LEU:373:CD1:8251, V-B:SER:385:CB:8380, V-B:VAL:384:C:8368, V-A:VAL:344:CG1:3000, V-B:SER:385:CA:8378, V-B:LEU:373:CD2:8252, H-B:TYR:484:OH:9319, V-A:TYR:539:CA:4869"]

$$$$
2d_Grossjean_2025
     RDKit          3D

 24 25  0  0  0  0  0  0  0  0999 V2000
  129.3450  122.3790   62.6270 C   0  0  0  0  0  0  0  0  0  0  0  0
  130.3870  121.4370   62.0530 C   0  0  0  0  0  0  0  0  0  0  0  0
  130.0370  120.1910   61.5360 C   0  0  0  0  0  0  0  0  0  0  0  0
  131.0360  119.3580   61.0120 C   0  0  0  0  0  0  0  0  0  0  0  0
  130.6300  117.9870   60.4360 C   0  0  0  0  0  0  0  0  0  0  0  0
  129.3270  117.7800   60.6270 F   0  0  0  0  0  0  0  0  0  0  0  0
  130.8850  117.9480   59.1270 F   0  0  0  0  0  0  0  0  0  0  0  0
  131.2850  116.9730   61.0030 F   0  0  0  0  0  0  0  0  0  0  0  0
  132.3790  119.8130   61.0330 C   0  0  0  0  0  0  0  0  0  0  0  0
  133.4530  119.0000   60.4550 C   0  0  0  0  0  0  0  0  0  0  0  0
  134.3000  118.3580   59.9980 N   0  0  0  0  0  0  0  0  0  0  0  0
  132.6430  121.0820   61.6000 C   0  0  0  0  0  0  0  0  0  0  0  0
  134.2720  121.7930   61.7360 S   0  0  0  0  0  0  0  0  0  0  0  0
  134.1600  123.5820   61.4050 C   0  0  0  0  0  0  0  0  0  0  0  0
  134.0480  124.4220   62.6810 C   0  0  0  0  0  0  0  0  0  0  0  0
  134.9960  125.1340   63.0140 O   0  0  0  0  0  0  0  0  0  0  0  0
  132.8970  124.2830   63.3720 N   0  0  0  0  0  0  0  0  0  0  0  0
  132.4950  124.9130   64.5650 C   0  0  0  0  0  0  0  0  0  0  0  0
  133.5140  125.2180   65.4700 C   0  0  0  0  0  0  0  0  0  0  0  0
  133.2150  125.8360   66.6810 C   0  0  0  0  0  0  0  0  0  0  0  0
  131.8920  126.1420   66.9910 C   0  0  0  0  0  0  0  0  0  0  0  0
  130.8660  125.8310   66.1030 C   0  0  0  0  0  0  0  0  0  0  0  0
  131.1620  125.2140   64.8910 C   0  0  0  0  0  0  0  0  0  0  0  0
  131.6630  121.8840   62.0830 N   0  0  0  0  0  0  0  0  0  0  0  0
  1  2  1  0
  2  3  2  0
  3  4  1  0
  4  5  1  0
  5  6  1  0
  5  7  1  0
  5  8  1  0
  4  9  2  0
  9 10  1  0
 10 11  3  0
  9 12  1  0
 12 13  1  0
 13 14  1  0
 14 15  1  0
 15 16  2  0
 15 17  1  0
 17 18  1  0
 18 19  2  0
 19 20  1  0
 20 21  2  0
 21 22  1  0
 22 23  2  0
 12 24  2  0
 24  2  1  0
 23 18  1  0
M  END
>  <Binding energies>  (20) 
[-6.68]

>  <Ligand effiencies>  (20) 
[-0.2672]

>  <Interactions>  (20) 
["V-A:HIS:456:CE1:4069, H-A:GLY:454:N:4049, H-A:ARG:545:NH2:4928, V-A:ARG:545:CZ:4926, V-B:ALA:541:CB:9864, V-A:GLY:453:C:4041, V-A:ARG:545:CD:4923, V-A:ARG:545:CG:4922, V-A:GLY:453:CA:4043, V-A:PRO:482:CG:4326, V-B:TYR:539:CE2:9848, V-B:PRO:540:N:9856, V-B:TYR:539:CA:9841, V-B:TYR:539:CD2:9846, V-A:PRO:482:CB:4325, V-B:TYR:539:C:9839, V-A:ILE:369:CG2:3236, V-A:LEU:475:CD1:4257, V-B:ALA:541:CA:9862, V-B:PRO:540:C:9853, V-A:ILE:369:CD1:3238, V-A:SER:385:CA:3406, V-B:TYR:539:CG:9844, V-B:TYR:539:CB:9843, H-A:ARG:545:NH1:4927, H-A:SER:385:OG:3409, H-A:HIS:383:NE2:3393, V-A:HIS:383:CE1:3392, V-A:PRO:482:CD:4327"]

$$$$
2e_Grossjean_2025
     RDKit          3D

 25 26  0  0  0  0  0  0  0  0999 V2000
  134.2400  125.5910   67.7500 C   0  0  0  0  0  0  0  0  0  0  0  0
  133.1520  125.4890   66.6980 C   0  0  0  0  0  0  0  0  0  0  0  0
  131.8810  126.0320   66.9040 C   0  0  0  0  0  0  0  0  0  0  0  0
  130.9340  125.9100   65.8870 C   0  0  0  0  0  0  0  0  0  0  0  0
  131.2750  125.2560   64.7000 C   0  0  0  0  0  0  0  0  0  0  0  0
  132.5640  124.7270   64.5630 C   0  0  0  0  0  0  0  0  0  0  0  0
  132.8670  124.1180   63.3330 N   0  0  0  0  0  0  0  0  0  0  0  0
  133.9720  124.2810   62.5720 C   0  0  0  0  0  0  0  0  0  0  0  0
  134.9520  124.9590   62.8860 O   0  0  0  0  0  0  0  0  0  0  0  0
  133.9480  123.5900   61.2050 C   0  0  0  0  0  0  0  0  0  0  0  0
  134.2600  121.8000   61.3380 S   0  0  0  0  0  0  0  0  0  0  0  0
  132.6570  121.0320   61.2750 C   0  0  0  0  0  0  0  0  0  0  0  0
  131.6500  121.7810   61.7900 N   0  0  0  0  0  0  0  0  0  0  0  0
  130.4050  121.2540   61.8230 C   0  0  0  0  0  0  0  0  0  0  0  0
  129.3280  122.1440   62.4110 C   0  0  0  0  0  0  0  0  0  0  0  0
  130.1170  119.9730   61.3540 C   0  0  0  0  0  0  0  0  0  0  0  0
  131.1490  119.1830   60.8260 C   0  0  0  0  0  0  0  0  0  0  0  0
  130.8190  117.7620   60.3320 C   0  0  0  0  0  0  0  0  0  0  0  0
  131.2200  117.6120   59.0690 F   0  0  0  0  0  0  0  0  0  0  0  0
  131.4390  116.8590   61.0930 F   0  0  0  0  0  0  0  0  0  0  0  0
  129.5120  117.4930   60.3730 F   0  0  0  0  0  0  0  0  0  0  0  0
  132.4580  119.7220   60.7800 C   0  0  0  0  0  0  0  0  0  0  0  0
  133.5850  118.9360   60.2680 C   0  0  0  0  0  0  0  0  0  0  0  0
  134.4740  118.3140   59.8640 N   0  0  0  0  0  0  0  0  0  0  0  0
  133.4980  124.8490   65.5510 N   0  0  0  0  0  0  0  0  0  0  0  0
  1  2  1  0
  2  3  2  0
  3  4  1  0
  4  5  2  0
  5  6  1  0
  6  7  1  0
  7  8  1  0
  8  9  2  0
  8 10  1  0
 10 11  1  0
 11 12  1  0
 12 13  2  0
 13 14  1  0
 14 15  1  0
 14 16  2  0
 16 17  1  0
 17 18  1  0
 18 19  1  0
 18 20  1  0
 18 21  1  0
 17 22  2  0
 22 23  1  0
 23 24  3  0
  6 25  2  0
 25  2  1  0
 22 12  1  0
M  END
>  <Binding energies>  (21) 
[-6.98]

>  <Ligand effiencies>  (21) 
[-0.2684615384615385]

>  <Interactions>  (21) 
["V-A:HIS:456:CE1:4069, H-A:GLY:454:N:4049, H-A:ARG:545:NH2:4928, V-A:TYR:484:CZ:4346, V-A:ILE:455:C:4051, H-A:TYR:484:OH:4347, V-B:ALA:541:CB:9864, V-A:GLY:453:C:4041, V-A:ARG:545:CD:4923, V-A:ARG:545:CG:4922, V-A:GLY:453:CA:4043, V-A:PRO:482:CG:4326, V-B:TYR:539:CA:9841, V-B:TYR:539:CD2:9846, V-A:PRO:482:CB:4325, V-B:TYR:539:C:9839, V-A:ILE:369:CG2:3236, V-A:LEU:475:CD1:4257, V-B:PRO:540:C:9853, V-A:ILE:369:CD1:3238, V-A:SER:385:CA:3406, V-B:TYR:539:CG:9844, V-B:TYR:539:CB:9843, V-A:ARG:545:CB:4921, H-A:ARG:545:NH1:4927, V-A:HIS:383:CD2:3391, H-A:SER:385:OG:3409, H-A:HIS:383:NE2:3393, V-A:HIS:383:CE1:3392, V-B:VAL:344:CG1:7972, V-A:PRO:482:CD:4327"]

$$$$
2f_Grossjean_2025
     RDKit          3D

 24 25  0  0  0  0  0  0  0  0999 V2000
  129.1130  122.4860   62.3880 C   0  0  0  0  0  0  0  0  0  0  0  0
  130.1920  121.5510   61.8760 C   0  0  0  0  0  0  0  0  0  0  0  0
  129.8960  120.2610   61.4430 C   0  0  0  0  0  0  0  0  0  0  0  0
  130.9310  119.4310   60.9860 C   0  0  0  0  0  0  0  0  0  0  0  0
  130.5840  118.0030   60.5230 C   0  0  0  0  0  0  0  0  0  0  0  0
  130.8880  117.8530   59.2320 F   0  0  0  0  0  0  0  0  0  0  0  0
  131.2750  117.1140   61.2360 F   0  0  0  0  0  0  0  0  0  0  0  0
  129.2890  117.7140   60.6640 F   0  0  0  0  0  0  0  0  0  0  0  0
  132.2540  119.9420   60.9730 C   0  0  0  0  0  0  0  0  0  0  0  0
  133.3760  119.0960   60.5580 C   0  0  0  0  0  0  0  0  0  0  0  0
  134.2620  118.4280   60.2300 N   0  0  0  0  0  0  0  0  0  0  0  0
  132.4570  121.2740   61.4070 C   0  0  0  0  0  0  0  0  0  0  0  0
  134.0450  122.0810   61.4470 S   0  0  0  0  0  0  0  0  0  0  0  0
  133.7650  123.8840   61.4240 C   0  0  0  0  0  0  0  0  0  0  0  0
  133.6510  124.5420   62.8070 C   0  0  0  0  0  0  0  0  0  0  0  0
  134.6330  125.0600   63.3400 O   0  0  0  0  0  0  0  0  0  0  0  0
  132.4190  124.4780   63.3570 N   0  0  0  0  0  0  0  0  0  0  0  0
  131.9630  124.9800   64.5910 C   0  0  0  0  0  0  0  0  0  0  0  0
  132.7260  125.7440   65.4940 C   0  0  0  0  0  0  0  0  0  0  0  0
  132.1480  126.1850   66.6860 C   0  0  0  0  0  0  0  0  0  0  0  0
  130.8170  125.8560   66.9440 C   0  0  0  0  0  0  0  0  0  0  0  0
  130.0580  125.1280   66.0870 N   0  0  0  0  0  0  0  0  0  0  0  0
  130.6340  124.7070   64.9320 C   0  0  0  0  0  0  0  0  0  0  0  0
  131.4480  122.0530   61.8660 N   0  0  0  0  0  0  0  0  0  0  0  0
  1  2  1  0
  2  3  2  0
  3  4  1  0
  4  5  1  0
  5  6  1  0
  5  7  1  0
  5  8  1  0
  4  9  2  0
  9 10  1  0
 10 11  3  0
  9 12  1  0
 12 13  1  0
 13 14  1  0
 14 15  1  0
 15 16  2  0
 15 17  1  0
 17 18  1  0
 18 19  2  0
 19 20  1  0
 20 21  2  0
 21 22  1  0
 22 23  2  0
 12 24  2  0
 24  2  1  0
 23 18  1  0
M  END
>  <Binding energies>  (22) 
[-6.35]

>  <Ligand effiencies>  (22) 
[-0.254]

>  <Interactions>  (22) 
["V-A:HIS:456:CE1:4069, H-A:GLY:454:N:4049, H-A:ARG:545:NH2:4928, V-A:TYR:484:CZ:4346, V-A:ARG:545:CZ:4926, V-A:ASP:366:CG:3212, H-A:TYR:484:OH:4347, V-B:ALA:541:CB:9864, V-A:ARG:545:CG:4922, V-A:PRO:482:CG:4326, V-B:PRO:540:N:9856, V-B:TYR:539:CA:9841, V-B:TYR:539:CD2:9846, V-A:PRO:482:CB:4325, V-B:TYR:539:C:9839, V-A:ILE:369:CG2:3236, V-A:LEU:475:CD1:4257, V-B:ALA:541:CA:9862, V-B:PRO:540:C:9853, V-A:SER:385:CA:3406, V-B:TYR:539:CG:9844, V-B:TYR:539:CB:9843, H-A:ARG:545:NH1:4927, H-A:SER:385:OG:3409, H-A:HIS:383:NE2:3393, V-A:HIS:383:CE1:3392, V-A:PRO:482:CD:4327"]

$$$$
2g_Grossjean_2025
     RDKit          3D

 25 26  0  0  0  0  0  0  0  0999 V2000
  125.7880  129.6270   58.2010 C   0  0  0  0  0  0  0  0  0  0  0  0
  126.9140  128.8240   57.5790 C   0  0  0  0  0  0  0  0  0  0  0  0
  127.2040  127.5280   57.9990 C   0  0  0  0  0  0  0  0  0  0  0  0
  128.2610  126.8280   57.3970 C   0  0  0  0  0  0  0  0  0  0  0  0
  128.5730  125.3990   57.8820 C   0  0  0  0  0  0  0  0  0  0  0  0
  127.7700  125.0680   58.8940 F   0  0  0  0  0  0  0  0  0  0  0  0
  128.3890  124.5330   56.8840 F   0  0  0  0  0  0  0  0  0  0  0  0
  129.8300  125.2610   58.3080 F   0  0  0  0  0  0  0  0  0  0  0  0
  128.9980  127.4670   56.3670 C   0  0  0  0  0  0  0  0  0  0  0  0
  130.1470  126.8020   55.7450 C   0  0  0  0  0  0  0  0  0  0  0  0
  131.0540  126.2770   55.2550 N   0  0  0  0  0  0  0  0  0  0  0  0
  128.6120  128.7740   55.9850 C   0  0  0  0  0  0  0  0  0  0  0  0
  129.4100  129.7090   54.6970 S   0  0  0  0  0  0  0  0  0  0  0  0
  129.1220  131.4780   55.0460 C   0  0  0  0  0  0  0  0  0  0  0  0
  129.7060  131.9730   56.3760 C   0  0  0  0  0  0  0  0  0  0  0  0
  130.4950  132.9180   56.4190 O   0  0  0  0  0  0  0  0  0  0  0  0
  129.3000  131.3030   57.4700 N   0  0  0  0  0  0  0  0  0  0  0  0
  129.7100  131.5930   58.8450 C   0  0  0  0  0  0  0  0  0  0  0  0
  131.1690  131.2700   59.1480 C   0  0  0  0  0  0  0  0  0  0  0  0
  132.0420  130.9530   58.1030 C   0  0  0  0  0  0  0  0  0  0  0  0
  133.3840  130.6940   58.3730 C   0  0  0  0  0  0  0  0  0  0  0  0
  133.8500  130.7640   59.6830 C   0  0  0  0  0  0  0  0  0  0  0  0
  132.9870  131.0920   60.7270 C   0  0  0  0  0  0  0  0  0  0  0  0
  131.6460  131.3510   60.4590 C   0  0  0  0  0  0  0  0  0  0  0  0
  127.6020  129.4440   56.5940 N   0  0  0  0  0  0  0  0  0  0  0  0
  1  2  1  0
  2  3  2  0
  3  4  1  0
  4  5  1  0
  5  6  1  0
  5  7  1  0
  5  8  1  0
  4  9  2  0
  9 10  1  0
 10 11  3  0
  9 12  1  0
 12 13  1  0
 13 14  1  0
 14 15  1  0
 15 16  2  0
 15 17  1  0
 17 18  1  0
 18 19  1  0
 19 20  2  0
 20 21  1  0
 21 22  2  0
 22 23  1  0
 23 24  2  0
 12 25  2  0
 25  2  1  0
 24 19  1  0
M  END
>  <Binding energies>  (23) 
[-6.48]

>  <Ligand effiencies>  (23) 
[-0.24923076923076926]

>  <Interactions>  (23) 
["V-A:ASP:366:CG:3212, V-A:TYR:539:CD1:4873, V-A:PRO:540:CB:4885, V-A:LEU:363:CD1:3188, V-A:PRO:540:N:4884, V-A:TYR:539:CE1:4875, V-A:PRO:540:CA:4883, H-B:TYR:531:OH:9767, V-A:TYR:539:C:4867, V-B:MET:535:CE:9807, V-A:ASP:366:CB:3211, H-B:TYR:539:OH:9850, H-A:TYR:531:OH:4795, V-A:PRO:540:C:4881, V-A:LEU:363:CA:3184, V-A:ASN:362:CB:3175, V-A:ASN:362:C:3171, V-A:LEU:363:CB:3186, H-A:TYR:539:N:4870"]

$$$$
2h_Grossjean_2025
     RDKit          3D

 31 32  0  0  0  0  0  0  0  0999 V2000
  125.2460  121.7430   55.4840 C   0  0  0  0  0  0  0  0  0  0  0  0
  125.8960  121.6050   56.7430 O   0  0  0  0  0  0  0  0  0  0  0  0
  126.9010  122.4900   57.0890 C   0  0  0  0  0  0  0  0  0  0  0  0
  128.2490  122.1270   57.2360 C   0  0  0  0  0  0  0  0  0  0  0  0
  129.2080  123.0770   57.5790 C   0  0  0  0  0  0  0  0  0  0  0  0
  128.8440  124.4090   57.7820 C   0  0  0  0  0  0  0  0  0  0  0  0
  129.9160  125.4370   58.1370 C   0  0  0  0  0  0  0  0  0  0  0  0
  129.6360  126.7790   57.6250 N   0  0  0  0  0  0  0  0  0  0  0  0
  130.1040  127.2750   56.4660 C   0  0  0  0  0  0  0  0  0  0  0  0
  130.8980  126.6680   55.7440 O   0  0  0  0  0  0  0  0  0  0  0  0
  129.5790  128.6640   56.0790 C   0  0  0  0  0  0  0  0  0  0  0  0
  129.8370  129.9630   57.3340 S   0  0  0  0  0  0  0  0  0  0  0  0
  128.2610  130.2480   58.1100 C   0  0  0  0  0  0  0  0  0  0  0  0
  127.2170  129.6980   57.4430 N   0  0  0  0  0  0  0  0  0  0  0  0
  125.9700  129.8700   57.9360 C   0  0  0  0  0  0  0  0  0  0  0  0
  124.8510  129.2330   57.1350 C   0  0  0  0  0  0  0  0  0  0  0  0
  125.7150  130.5850   59.1040 C   0  0  0  0  0  0  0  0  0  0  0  0
  126.7850  131.1450   59.8190 C   0  0  0  0  0  0  0  0  0  0  0  0
  126.4840  131.9250   61.1140 C   0  0  0  0  0  0  0  0  0  0  0  0
  127.0120  131.2900   62.1600 F   0  0  0  0  0  0  0  0  0  0  0  0
  126.9860  133.1620   61.1000 F   0  0  0  0  0  0  0  0  0  0  0  0
  125.1660  132.0290   61.2900 F   0  0  0  0  0  0  0  0  0  0  0  0
  128.1000  130.9670   59.3190 C   0  0  0  0  0  0  0  0  0  0  0  0
  129.2560  131.4810   60.0590 C   0  0  0  0  0  0  0  0  0  0  0  0
  130.1670  131.8840   60.6460 N   0  0  0  0  0  0  0  0  0  0  0  0
  127.4970  124.7830   57.6620 C   0  0  0  0  0  0  0  0  0  0  0  0
  127.1300  126.0920   57.8630 O   0  0  0  0  0  0  0  0  0  0  0  0
  126.7380  126.3930   59.1970 C   0  0  0  0  0  0  0  0  0  0  0  0
  126.5340  123.8260   57.2970 C   0  0  0  0  0  0  0  0  0  0  0  0
  125.2170  124.1920   57.1600 O   0  0  0  0  0  0  0  0  0  0  0  0
  124.4720  124.1470   58.3690 C   0  0  0  0  0  0  0  0  0  0  0  0
  1  2  1  0
  2  3  1  0
  3  4  2  0
  4  5  1  0
  5  6  2  0
  6  7  1  0
  7  8  1  0
  8  9  1  0
  9 10  2  0
  9 11  1  0
 11 12  1  0
 12 13  1  0
 13 14  2  0
 14 15  1  0
 15 16  1  0
 15 17  2  0
 17 18  1  0
 18 19  1  0
 19 20  1  0
 19 21  1  0
 19 22  1  0
 18 23  2  0
 23 24  1  0
 24 25  3  0
  6 26  1  0
 26 27  1  0
 27 28  1  0
 26 29  2  0
 29 30  1  0
 30 31  1  0
 29  3  1  0
 23 13  1  0
M  END
>  <Binding energies>  (24) 
[-6.09]

>  <Ligand effiencies>  (24) 
[-0.1903125]

>  <Interactions>  (24) 
["V-A:TYR:539:CD1:4873, V-A:TYR:539:CE1:4875, V-A:PRO:540:CA:4883, H-B:TYR:531:OH:9767, V-B:ASP:366:CB:8183, H-A:ALA:541:N:4891, V-B:ASP:366:C:8179, V-B:PRO:540:CB:9857, V-B:TYR:539:CE2:9848, V-B:PRO:540:CD:9859, V-B:PRO:540:N:9856, V-B:PRO:540:CA:9855, V-B:MET:535:CE:9807, V-B:TYR:539:CA:9841, V-B:TYR:539:CD2:9846, V-B:TYR:531:CE2:9765, V-B:TYR:539:C:9839, V-B:TYR:531:CZ:9766, V-B:LEU:363:CD1:8160, V-B:TYR:531:CE1:9764, V-B:TYR:539:CG:9844, V-B:TYR:539:CZ:9849, H-A:TYR:531:OH:4795, V-B:LEU:363:CA:8156, V-B:TYR:539:CE1:9847, V-B:TYR:539:CD1:9845, V-B:ILE:538:CG2:9835, H-B:TYR:539:N:9842, V-B:ILE:538:CA:9832, V-B:ILE:538:CB:9834, V-B:ILE:538:CG1:9836"]

$$$$
2i_Grossjean_2025
     RDKit          3D

 23 24  0  0  0  0  0  0  0  0999 V2000
  130.2900  131.4880   60.5910 C   0  0  0  0  0  0  0  0  0  0  0  0
  128.8080  131.3970   60.2760 C   0  0  0  0  0  0  0  0  0  0  0  0
  127.8900  132.2890   60.8240 C   0  0  0  0  0  0  0  0  0  0  0  0
  126.5310  132.1650   60.5000 C   0  0  0  0  0  0  0  0  0  0  0  0
  125.5280  133.1600   61.1150 C   0  0  0  0  0  0  0  0  0  0  0  0
  124.5380  132.4970   61.7150 F   0  0  0  0  0  0  0  0  0  0  0  0
  126.1410  133.9300   62.0150 F   0  0  0  0  0  0  0  0  0  0  0  0
  124.9770  133.9670   60.2060 F   0  0  0  0  0  0  0  0  0  0  0  0
  126.1370  131.1260   59.6180 C   0  0  0  0  0  0  0  0  0  0  0  0
  124.7290  130.9520   59.2450 C   0  0  0  0  0  0  0  0  0  0  0  0
  123.6190  130.8130   58.9500 N   0  0  0  0  0  0  0  0  0  0  0  0
  127.1350  130.2640   59.1100 C   0  0  0  0  0  0  0  0  0  0  0  0
  126.7570  128.9180   58.0000 S   0  0  0  0  0  0  0  0  0  0  0  0
  126.3590  129.6230   56.3720 C   0  0  0  0  0  0  0  0  0  0  0  0
  127.5140  130.4460   55.7980 C   0  0  0  0  0  0  0  0  0  0  0  0
  127.4180  130.8990   54.6560 O   0  0  0  0  0  0  0  0  0  0  0  0
  128.5890  130.5900   56.6030 N   0  0  0  0  0  0  0  0  0  0  0  0
  129.7580  131.2710   56.3060 C   0  0  0  0  0  0  0  0  0  0  0  0
  131.0850  130.8160   56.2740 C   0  0  0  0  0  0  0  0  0  0  0  0
  131.8240  131.9200   55.9160 C   0  0  0  0  0  0  0  0  0  0  0  0
  130.9910  132.9730   55.7370 O   0  0  0  0  0  0  0  0  0  0  0  0
  129.6850  132.5440   55.9820 N   0  0  0  0  0  0  0  0  0  0  0  0
  128.4460  130.4030   59.4350 N   0  0  0  0  0  0  0  0  0  0  0  0
  1  2  1  0
  2  3  2  0
  3  4  1  0
  4  5  1  0
  5  6  1  0
  5  7  1  0
  5  8  1  0
  4  9  2  0
  9 10  1  0
 10 11  3  0
  9 12  1  0
 12 13  1  0
 13 14  1  0
 14 15  1  0
 15 16  2  0
 15 17  1  0
 17 18  1  0
 18 19  1  0
 19 20  2  0
 20 21  1  0
 21 22  1  0
 12 23  2  0
 23  2  1  0
 22 18  2  0
M  END
>  <Binding energies>  (25) 
[-6.4]

>  <Ligand effiencies>  (25) 
[-0.26666666666666666]

>  <Interactions>  (25) 
["V-A:TYR:539:CD1:4873, H-A:TYR:539:OH:4878, V-A:ILE:538:CB:4862, V-A:ILE:538:CG2:4863, V-A:LEU:363:CD1:3188, V-A:TYR:539:CE1:4875, V-A:PRO:540:CA:4883, H-B:LYS:534:NZ:9795, V-B:ILE:369:CG2:8208, V-B:LEU:475:CD1:9229, V-B:ILE:369:CD1:8210, H-B:TYR:531:OH:9767, V-A:TYR:539:CZ:4877, V-B:TYR:531:CZ:9766, V-B:TYR:531:CE1:9764, V-A:PRO:540:C:4881, H-A:TYR:539:N:4870"]

$$$$
2k_Grossjean_2025
     RDKit          3D

 28 28  0  0  0  0  0  0  0  0999 V2000
  125.1530  125.2150   58.4030 C   0  0  0  0  0  0  0  0  0  0  0  0
  125.3400  124.3970   57.2590 O   0  0  0  0  0  0  0  0  0  0  0  0
  125.2290  123.0060   57.5330 C   0  0  0  0  0  0  0  0  0  0  0  0
  125.7110  122.1990   56.3210 C   0  0  0  0  0  0  0  0  0  0  0  0
  127.0400  121.7580   56.5570 O   0  0  0  0  0  0  0  0  0  0  0  0
  127.6830  122.4010   57.6510 C   0  0  0  0  0  0  0  0  0  0  0  0
  128.2030  123.7640   57.1750 C   0  0  0  0  0  0  0  0  0  0  0  0
  128.7280  124.4470   58.3020 O   0  0  0  0  0  0  0  0  0  0  0  0
  129.6890  123.7220   59.0550 C   0  0  0  0  0  0  0  0  0  0  0  0
  131.0930  124.0270   58.4990 C   0  0  0  0  0  0  0  0  0  0  0  0
  132.1430  123.9370   59.5170 N   0  0  0  0  0  0  0  0  0  0  0  0
  133.4510  123.7240   59.2760 C   0  0  0  0  0  0  0  0  0  0  0  0
  133.9210  123.6090   58.1430 O   0  0  0  0  0  0  0  0  0  0  0  0
  134.3470  123.6090   60.5180 C   0  0  0  0  0  0  0  0  0  0  0  0
  133.4700  123.2880   62.0880 S   0  0  0  0  0  0  0  0  0  0  0  0
  132.0880  122.1960   61.7840 C   0  0  0  0  0  0  0  0  0  0  0  0
  130.8570  122.7440   61.9500 N   0  0  0  0  0  0  0  0  0  0  0  0
  129.7660  121.9750   61.7420 C   0  0  0  0  0  0  0  0  0  0  0  0
  128.4290  122.6560   61.9590 C   0  0  0  0  0  0  0  0  0  0  0  0
  129.8500  120.6410   61.3500 C   0  0  0  0  0  0  0  0  0  0  0  0
  131.1120  120.0560   61.1640 C   0  0  0  0  0  0  0  0  0  0  0  0
  131.1880  118.5810   60.7260 C   0  0  0  0  0  0  0  0  0  0  0  0
  131.8780  117.8230   61.5800 F   0  0  0  0  0  0  0  0  0  0  0  0
  129.9600  118.0670   60.6370 F   0  0  0  0  0  0  0  0  0  0  0  0
  131.7830  118.4880   59.5360 F   0  0  0  0  0  0  0  0  0  0  0  0
  132.2660  120.8500   61.3880 C   0  0  0  0  0  0  0  0  0  0  0  0
  133.6100  120.2890   61.2120 C   0  0  0  0  0  0  0  0  0  0  0  0
  134.6700  119.8460   61.0730 N   0  0  0  0  0  0  0  0  0  0  0  0
  1  2  1  0
  2  3  1  0
  3  4  1  0
  4  5  1  0
  5  6  1  0
  6  7  1  0
  7  8  1  0
  8  9  1  0
  9 10  1  0
 10 11  1  0
 11 12  1  0
 12 13  2  0
 12 14  1  0
 14 15  1  0
 15 16  1  0
 16 17  2  0
 17 18  1  0
 18 19  1  0
 18 20  2  0
 20 21  1  0
 21 22  1  0
 22 23  1  0
 22 24  1  0
 22 25  1  0
 21 26  2  0
 26 27  1  0
 27 28  3  0
 26 16  1  0
M  END
>  <Binding energies>  (26) 
[-5.55]

>  <Ligand effiencies>  (26) 
[-0.19137931034482758]

>  <Interactions>  (26) 
["V-A:ASP:366:CG:3212, V-B:ALA:541:CB:9864, V-B:ASP:366:CG:8184, H-B:TYR:531:OH:9767, V-B:ASP:366:CB:8183, V-A:PRO:482:CG:4326, V-B:PRO:540:CB:9857, V-B:TYR:539:CE2:9848, V-B:PRO:540:CD:9859, V-B:PRO:540:N:9856, V-B:PRO:540:CA:9855, V-B:MET:535:CE:9807, V-B:TYR:539:CD2:9846, V-B:TYR:531:CE2:9765, V-A:PRO:482:CB:4325, V-B:TYR:539:C:9839, V-B:TYR:531:CZ:9766, V-B:LEU:363:CD1:8160, V-A:ILE:369:CG2:3236, V-A:ASP:366:CB:3211, V-A:ILE:369:CB:3235, V-A:LEU:475:CD1:4257, V-B:PRO:540:C:9853, V-A:ILE:369:CD1:3238, V-B:TYR:539:CG:9844, V-B:TYR:539:CZ:9849, H-B:TYR:539:OH:9850, V-A:ASP:366:CA:3209, V-B:TYR:539:CB:9843, H-B:TYR:539:N:9842"]

$$$$
3aa_Grossjean_2025
     RDKit          3D

 34 36  0  0  0  0  0  0  0  0999 V2000
  130.4840  117.2630   60.1090 C   0  0  0  0  0  0  0  0  0  0  0  0
  131.6100  117.6370   61.0770 C   0  0  0  0  0  0  0  0  0  0  0  0
  132.7090  118.1650   60.3440 O   0  0  0  0  0  0  0  0  0  0  0  0
  133.3420  119.2950   60.7510 C   0  0  0  0  0  0  0  0  0  0  0  0
  134.5700  119.3950   60.8350 O   0  0  0  0  0  0  0  0  0  0  0  0
  132.3990  120.4090   61.1070 C   0  0  0  0  0  0  0  0  0  0  0  0
  131.1350  120.5310   60.5120 C   0  0  0  0  0  0  0  0  0  0  0  0
  130.2830  121.5730   60.8680 C   0  0  0  0  0  0  0  0  0  0  0  0
  130.6720  122.5080   61.8280 C   0  0  0  0  0  0  0  0  0  0  0  0
  129.7350  123.5200   62.1180 N   0  0  0  0  0  0  0  0  0  0  0  0
  128.3850  123.4850   62.0610 C   0  0  0  0  0  0  0  0  0  0  0  0
  127.7100  122.5180   61.7060 O   0  0  0  0  0  0  0  0  0  0  0  0
  127.6750  124.7760   62.4680 C   0  0  0  0  0  0  0  0  0  0  0  0
  126.6650  125.4470   61.1130 S   0  0  0  0  0  0  0  0  0  0  0  0
  127.1800  124.6230   59.6220 C   0  0  0  0  0  0  0  0  0  0  0  0
  128.4980  124.7700   59.3480 N   0  0  0  0  0  0  0  0  0  0  0  0
  129.0220  124.1930   58.2360 C   0  0  0  0  0  0  0  0  0  0  0  0
  130.4910  124.3890   58.0090 C   0  0  0  0  0  0  0  0  0  0  0  0
  131.4330  123.6550   58.7480 C   0  0  0  0  0  0  0  0  0  0  0  0
  132.7990  123.8310   58.5420 C   0  0  0  0  0  0  0  0  0  0  0  0
  133.2410  124.7460   57.5930 C   0  0  0  0  0  0  0  0  0  0  0  0
  132.3280  125.4840   56.8460 C   0  0  0  0  0  0  0  0  0  0  0  0
  130.9630  125.3040   57.0520 C   0  0  0  0  0  0  0  0  0  0  0  0
  128.2210  123.4390   57.3720 C   0  0  0  0  0  0  0  0  0  0  0  0
  126.8500  123.2870   57.6270 C   0  0  0  0  0  0  0  0  0  0  0  0
  125.9990  122.4590   56.6450 C   0  0  0  0  0  0  0  0  0  0  0  0
  125.0210  121.7820   57.2510 F   0  0  0  0  0  0  0  0  0  0  0  0
  125.4290  123.2580   55.7430 F   0  0  0  0  0  0  0  0  0  0  0  0
  126.7690  121.5730   56.0130 F   0  0  0  0  0  0  0  0  0  0  0  0
  126.3040  123.9050   58.7780 C   0  0  0  0  0  0  0  0  0  0  0  0
  124.8680  123.8290   59.0630 C   0  0  0  0  0  0  0  0  0  0  0  0
  123.7340  123.7690   59.2880 N   0  0  0  0  0  0  0  0  0  0  0  0
  131.9410  122.4000   62.4180 C   0  0  0  0  0  0  0  0  0  0  0  0
  132.7910  121.3590   62.0590 C   0  0  0  0  0  0  0  0  0  0  0  0
  1  2  1  0
  2  3  1  0
  3  4  1  0
  4  5  2  0
  4  6  1  0
  6  7  2  0
  7  8  1  0
  8  9  2  0
  9 10  1  0
 10 11  1  0
 11 12  2  0
 11 13  1  0
 13 14  1  0
 14 15  1  0
 15 16  2  0
 16 17  1  0
 17 18  1  0
 18 19  2  0
 19 20  1  0
 20 21  2  0
 21 22  1  0
 22 23  2  0
 17 24  2  0
 24 25  1  0
 25 26  1  0
 26 27  1  0
 26 28  1  0
 26 29  1  0
 25 30  2  0
 30 31  1  0
 31 32  3  0
  9 33  1  0
 33 34  2  0
 34  6  1  0
 30 15  1  0
 23 18  1  0
M  END
>  <Binding energies>  (27) 
[-8.2]

>  <Ligand effiencies>  (27) 
[-0.23428571428571426]

>  <Interactions>  (27) 
["V-B:GLU:543:CG:9879, H-B:ALA:541:N:9863, V-A:ASP:366:CG:3212, V-B:GLU:543:CD:9880, V-A:PRO:482:CG:4326, V-B:PRO:540:CB:9857, V-B:TYR:539:CE2:9848, V-B:PRO:540:CD:9859, V-B:PRO:540:N:9856, V-B:PRO:540:CA:9855, V-B:MET:535:CE:9807, V-B:TYR:539:CA:9841, V-B:TYR:539:CD2:9846, V-B:TYR:531:CE2:9765, V-A:PRO:482:CB:4325, V-B:TYR:539:C:9839, V-B:TYR:531:CZ:9766, V-B:LEU:363:CD1:8160, V-A:ILE:369:CG2:3236, V-A:ASP:366:CB:3211, V-A:LEU:475:CD1:4257, V-A:SER:385:CA:3406, V-B:TYR:539:CZ:9849, V-A:ASP:366:CA:3209, V-A:ASP:366:C:3207, V-B:TYR:539:CB:9843, V-B:TYR:539:CD1:9845, V-B:ILE:538:CA:9832, H-A:SER:385:OG:3409, H-A:HIS:383:NE2:3393, H-B:LEU:363:N:8157, V-A:HIS:383:CE1:3392, V-B:MET:535:CG:9805, V-B:ILE:538:C:9830, V-B:PRO:540:CG:9858"]

$$$$
3ad_Grossjean_2025
     RDKit          3D

 29 31  0  0  0  0  0  0  0  0999 V2000
  130.8910  126.2540   54.6290 N   0  0  0  0  0  0  0  0  0  0  0  0
  130.1100  126.7630   55.3140 C   0  0  0  0  0  0  0  0  0  0  0  0
  129.1190  127.4050   56.1850 C   0  0  0  0  0  0  0  0  0  0  0  0
  128.4920  126.6790   57.2260 C   0  0  0  0  0  0  0  0  0  0  0  0
  128.8330  125.2100   57.5390 C   0  0  0  0  0  0  0  0  0  0  0  0
  128.2210  124.7580   58.6360 F   0  0  0  0  0  0  0  0  0  0  0  0
  128.4620  124.4310   56.5220 F   0  0  0  0  0  0  0  0  0  0  0  0
  130.1460  125.0750   57.7310 F   0  0  0  0  0  0  0  0  0  0  0  0
  127.5170  127.3270   58.0000 C   0  0  0  0  0  0  0  0  0  0  0  0
  127.1760  128.6580   57.7400 C   0  0  0  0  0  0  0  0  0  0  0  0
  126.1310  129.3930   58.5270 C   0  0  0  0  0  0  0  0  0  0  0  0
  126.1850  129.4320   59.9290 C   0  0  0  0  0  0  0  0  0  0  0  0
  125.2190  130.1130   60.6650 C   0  0  0  0  0  0  0  0  0  0  0  0
  124.1820  130.7670   60.0050 C   0  0  0  0  0  0  0  0  0  0  0  0
  124.1090  130.7460   58.6170 C   0  0  0  0  0  0  0  0  0  0  0  0
  125.0770  130.0640   57.8840 C   0  0  0  0  0  0  0  0  0  0  0  0
  127.7760  129.3470   56.7370 N   0  0  0  0  0  0  0  0  0  0  0  0
  128.7340  128.7500   55.9890 C   0  0  0  0  0  0  0  0  0  0  0  0
  129.4180  129.8050   54.7310 S   0  0  0  0  0  0  0  0  0  0  0  0
  129.2680  131.5180   55.3220 C   0  0  0  0  0  0  0  0  0  0  0  0
  130.3400  131.8680   56.3570 C   0  0  0  0  0  0  0  0  0  0  0  0
  131.0670  132.8420   56.1600 O   0  0  0  0  0  0  0  0  0  0  0  0
  130.3970  131.0510   57.4310 N   0  0  0  0  0  0  0  0  0  0  0  0
  131.2430  131.0980   58.5540 C   0  0  0  0  0  0  0  0  0  0  0  0
  132.5990  130.8680   58.3020 C   0  0  0  0  0  0  0  0  0  0  0  0
  133.5210  130.8870   59.3440 C   0  0  0  0  0  0  0  0  0  0  0  0
  133.0880  131.1340   60.6440 C   0  0  0  0  0  0  0  0  0  0  0  0
  131.7410  131.3580   60.9110 C   0  0  0  0  0  0  0  0  0  0  0  0
  130.8140  131.3390   59.8710 C   0  0  0  0  0  0  0  0  0  0  0  0
  1  2  3  0
  2  3  1  0
  3  4  2  0
  4  5  1  0
  5  6  1  0
  5  7  1  0
  5  8  1  0
  4  9  1  0
  9 10  2  0
 10 11  1  0
 11 12  2  0
 12 13  1  0
 13 14  2  0
 14 15  1  0
 15 16  2  0
 10 17  1  0
 17 18  2  0
 18 19  1  0
 19 20  1  0
 20 21  1  0
 21 22  2  0
 21 23  1  0
 23 24  1  0
 24 25  2  0
 25 26  1  0
 26 27  2  0
 27 28  1  0
 28 29  2  0
 18  3  1  0
 29 24  1  0
 16 11  1  0
M  END
>  <Binding energies>  (28) 
[-7.76]

>  <Ligand effiencies>  (28) 
[-0.25866666666666666]

>  <Interactions>  (28) 
["V-A:ASP:366:CG:3212, V-A:PRO:540:CB:4885, V-A:LEU:363:CD1:3188, V-A:TYR:539:CE1:4875, V-A:PRO:540:CA:4883, V-B:ILE:369:CG2:8208, V-B:ASP:366:CG:8184, V-B:ASP:366:CA:8181, V-B:ILE:369:CD1:8210, H-B:TYR:531:OH:9767, V-B:ILE:369:CB:8207, V-B:ASP:366:CB:8183, V-A:TYR:539:CZ:4877, V-B:ASP:366:C:8179, V-B:MET:535:CE:9807, V-A:ASP:366:CB:3211, H-B:TYR:539:OH:9850, H-A:TYR:531:OH:4795, V-A:PRO:540:C:4881, V-A:LEU:363:CA:3184, V-A:ASN:362:CB:3175, V-A:ASN:362:C:3171, V-A:LEU:363:CB:3186, H-A:TYR:539:N:4870"]

$$$$
3ai_Grossjean_2025
     RDKit          3D

 28 30  0  0  0  0  0  0  0  0999 V2000
  124.1180  131.1730   59.3680 N   0  0  0  0  0  0  0  0  0  0  0  0
  125.2660  131.1900   59.5120 C   0  0  0  0  0  0  0  0  0  0  0  0
  126.7200  131.2130   59.6960 C   0  0  0  0  0  0  0  0  0  0  0  0
  127.3440  132.2690   60.4040 C   0  0  0  0  0  0  0  0  0  0  0  0
  126.5490  133.4170   61.0550 C   0  0  0  0  0  0  0  0  0  0  0  0
  125.6500  133.9580   60.2290 F   0  0  0  0  0  0  0  0  0  0  0  0
  125.8920  132.9660   62.1250 F   0  0  0  0  0  0  0  0  0  0  0  0
  127.3770  134.3910   61.4340 F   0  0  0  0  0  0  0  0  0  0  0  0
  128.7430  132.2690   60.5110 C   0  0  0  0  0  0  0  0  0  0  0  0
  129.4980  131.2480   59.9270 C   0  0  0  0  0  0  0  0  0  0  0  0
  130.9950  131.2040   60.0010 C   0  0  0  0  0  0  0  0  0  0  0  0
  131.6590  131.4300   61.2170 C   0  0  0  0  0  0  0  0  0  0  0  0
  133.0480  131.3860   61.2940 C   0  0  0  0  0  0  0  0  0  0  0  0
  133.7940  131.1140   60.1520 C   0  0  0  0  0  0  0  0  0  0  0  0
  133.1610  130.8850   58.9360 C   0  0  0  0  0  0  0  0  0  0  0  0
  131.7720  130.9290   58.8620 C   0  0  0  0  0  0  0  0  0  0  0  0
  128.8970  130.2420   59.2410 N   0  0  0  0  0  0  0  0  0  0  0  0
  127.5460  130.2060   59.1450 C   0  0  0  0  0  0  0  0  0  0  0  0
  126.9370  128.8040   58.2310 S   0  0  0  0  0  0  0  0  0  0  0  0
  126.4660  129.3830   56.5650 C   0  0  0  0  0  0  0  0  0  0  0  0
  127.4590  130.3550   55.9120 C   0  0  0  0  0  0  0  0  0  0  0  0
  127.1700  130.9440   54.8670 O   0  0  0  0  0  0  0  0  0  0  0  0
  128.6320  130.4910   56.5700 N   0  0  0  0  0  0  0  0  0  0  0  0
  129.7060  131.2990   56.2190 C   0  0  0  0  0  0  0  0  0  0  0  0
  130.8200  130.8270   55.5260 C   0  0  0  0  0  0  0  0  0  0  0  0
  131.6410  131.9210   55.3790 C   0  0  0  0  0  0  0  0  0  0  0  0
  131.0520  132.9970   55.9540 O   0  0  0  0  0  0  0  0  0  0  0  0
  129.8260  132.5900   56.4820 N   0  0  0  0  0  0  0  0  0  0  0  0
  1  2  3  0
  2  3  1  0
  3  4  2  0
  4  5  1  0
  5  6  1  0
  5  7  1  0
  5  8  1  0
  4  9  1  0
  9 10  2  0
 10 11  1  0
 11 12  2  0
 12 13  1  0
 13 14  2  0
 14 15  1  0
 15 16  2  0
 10 17  1  0
 17 18  2  0
 18 19  1  0
 19 20  1  0
 20 21  1  0
 21 22  2  0
 21 23  1  0
 23 24  1  0
 24 25  1  0
 25 26  2  0
 26 27  1  0
 27 28  1  0
 18  3  1  0
 28 24  2  0
 16 11  1  0
M  END
>  <Binding energies>  (29) 
[-8.27]

>  <Ligand effiencies>  (29) 
[-0.28517241379310343]

>  <Interactions>  (29) 
["V-A:ASP:366:CG:3212, V-A:TYR:539:CD1:4873, H-A:TYR:539:OH:4878, V-A:PRO:540:CB:4885, V-A:ILE:538:CB:4862, V-A:ILE:538:CG2:4863, V-A:LEU:363:CD1:3188, V-A:TYR:531:CE2:4793, V-A:TYR:539:CE1:4875, V-A:PRO:540:CA:4883, H-B:LYS:534:NZ:9795, V-B:ILE:369:CG2:8208, V-B:LEU:475:CD1:9229, V-A:ALA:541:CB:4892, H-B:TYR:531:OH:9767, V-A:TYR:531:CZ:4794, V-A:TYR:539:CZ:4877, V-B:TYR:531:CZ:9766, V-B:TYR:531:CE1:9764, V-A:PRO:540:C:4881, V-A:LEU:363:CA:3184, V-A:ASN:362:CB:3175, V-A:ASN:362:C:3171, H-A:TYR:539:N:4870"]

$$$$
3aj_Grossjean_2025
     RDKit          3D

 28 30  0  0  0  0  0  0  0  0999 V2000
  123.7030  131.2120   60.1290 N   0  0  0  0  0  0  0  0  0  0  0  0
  124.8600  131.1950   60.1300 C   0  0  0  0  0  0  0  0  0  0  0  0
  126.3260  131.1760   60.1340 C   0  0  0  0  0  0  0  0  0  0  0  0
  127.0590  132.0850   60.9350 C   0  0  0  0  0  0  0  0  0  0  0  0
  126.3810  133.1040   61.8710 C   0  0  0  0  0  0  0  0  0  0  0  0
  127.2360  134.0070   62.3590 F   0  0  0  0  0  0  0  0  0  0  0  0
  125.4300  133.7660   61.2110 F   0  0  0  0  0  0  0  0  0  0  0  0
  125.8300  132.4750   62.9090 F   0  0  0  0  0  0  0  0  0  0  0  0
  128.4610  132.0580   60.8670 C   0  0  0  0  0  0  0  0  0  0  0  0
  129.1110  131.1530   60.0200 C   0  0  0  0  0  0  0  0  0  0  0  0
  130.6030  131.0890   59.9020 C   0  0  0  0  0  0  0  0  0  0  0  0
  131.4190  131.2780   61.0270 C   0  0  0  0  0  0  0  0  0  0  0  0
  132.8070  131.2150   60.9250 C   0  0  0  0  0  0  0  0  0  0  0  0
  133.3980  130.9640   59.6910 C   0  0  0  0  0  0  0  0  0  0  0  0
  132.6100  130.7720   58.5600 C   0  0  0  0  0  0  0  0  0  0  0  0
  131.2240  130.8340   58.6680 C   0  0  0  0  0  0  0  0  0  0  0  0
  128.4030  130.2890   59.2490 N   0  0  0  0  0  0  0  0  0  0  0  0
  127.0500  130.2800   59.3150 C   0  0  0  0  0  0  0  0  0  0  0  0
  126.2960  129.0670   58.2530 S   0  0  0  0  0  0  0  0  0  0  0  0
  125.9500  129.8670   56.6490 C   0  0  0  0  0  0  0  0  0  0  0  0
  127.1930  130.2600   55.8370 C   0  0  0  0  0  0  0  0  0  0  0  0
  127.2830  129.9720   54.6410 O   0  0  0  0  0  0  0  0  0  0  0  0
  128.1370  130.9260   56.5380 N   0  0  0  0  0  0  0  0  0  0  0  0
  129.3480  131.4020   56.0530 C   0  0  0  0  0  0  0  0  0  0  0  0
  129.9990  132.4830   56.4260 N   0  0  0  0  0  0  0  0  0  0  0  0
  131.1240  132.6290   55.7540 C   0  0  0  0  0  0  0  0  0  0  0  0
  131.4060  131.6470   54.8070 C   0  0  0  0  0  0  0  0  0  0  0  0
  130.1210  130.4780   54.8050 S   0  0  0  0  0  0  0  0  0  0  0  0
  1  2  3  0
  2  3  1  0
  3  4  2  0
  4  5  1  0
  5  6  1  0
  5  7  1  0
  5  8  1  0
  4  9  1  0
  9 10  2  0
 10 11  1  0
 11 12  2  0
 12 13  1  0
 13 14  2  0
 14 15  1  0
 15 16  2  0
 10 17  1  0
 17 18  2  0
 18 19  1  0
 19 20  1  0
 20 21  1  0
 21 22  2  0
 21 23  1  0
 23 24  1  0
 24 25  2  0
 25 26  1  0
 26 27  2  0
 27 28  1  0
 18  3  1  0
 28 24  1  0
 16 11  1  0
M  END
>  <Binding energies>  (30) 
[-7.33]

>  <Ligand effiencies>  (30) 
[-0.25275862068965516]

>  <Interactions>  (30) 
["V-A:ASP:366:CG:3212, V-A:TYR:539:CD1:4873, H-A:TYR:539:OH:4878, V-A:PRO:540:CB:4885, V-A:ILE:538:CB:4862, V-A:ILE:538:CG2:4863, V-A:PRO:540:N:4884, V-A:TYR:531:CE2:4793, V-A:TYR:539:CE1:4875, V-A:PRO:540:CA:4883, H-B:LYS:534:NZ:9795, V-B:ILE:369:CG2:8208, V-B:LEU:475:CD1:9229, V-A:ALA:541:CB:4892, H-B:TYR:531:OH:9767, V-A:TYR:531:CZ:4794, V-A:ILE:538:CA:4860, V-A:PRO:540:CD:4887, V-A:ALA:541:CA:4890, V-A:TYR:539:CZ:4877, V-A:ILE:538:C:4858, V-B:TYR:531:CZ:9766, V-B:TYR:531:CE1:9764, V-A:PRO:540:C:4881, V-A:LEU:363:CA:3184, V-A:ASN:362:CB:3175, V-A:ASN:362:C:3171, H-A:TYR:539:N:4870"]

$$$$
3ak_Grossjean_2025
     RDKit          3D

 33 34  0  0  0  0  0  0  0  0999 V2000
  133.2120  118.9240   60.0510 C   0  0  0  0  0  0  0  0  0  0  0  0
  132.4360  118.0030   60.8020 O   0  0  0  0  0  0  0  0  0  0  0  0
  131.0560  118.0220   60.4660 C   0  0  0  0  0  0  0  0  0  0  0  0
  130.3310  119.0090   61.3890 C   0  0  0  0  0  0  0  0  0  0  0  0
  130.6910  120.3370   61.0220 O   0  0  0  0  0  0  0  0  0  0  0  0
  129.8170  121.3620   61.4870 C   0  0  0  0  0  0  0  0  0  0  0  0
  128.8750  121.9140   60.4020 C   0  0  0  0  0  0  0  0  0  0  0  0
  127.7430  122.5070   61.0240 O   0  0  0  0  0  0  0  0  0  0  0  0
  128.0690  123.4210   62.0620 C   0  0  0  0  0  0  0  0  0  0  0  0
  127.0710  124.5940   62.0690 C   0  0  0  0  0  0  0  0  0  0  0  0
  125.9180  124.3870   61.1910 N   0  0  0  0  0  0  0  0  0  0  0  0
  125.0690  123.3420   61.2340 C   0  0  0  0  0  0  0  0  0  0  0  0
  125.1720  122.4320   62.0570 O   0  0  0  0  0  0  0  0  0  0  0  0
  123.9210  123.2780   60.2130 C   0  0  0  0  0  0  0  0  0  0  0  0
  124.3910  123.3750   58.4460 S   0  0  0  0  0  0  0  0  0  0  0  0
  125.6730  124.6050   58.2600 C   0  0  0  0  0  0  0  0  0  0  0  0
  125.3040  125.8820   58.5300 N   0  0  0  0  0  0  0  0  0  0  0  0
  126.2060  126.8880   58.4120 C   0  0  0  0  0  0  0  0  0  0  0  0
  125.7130  128.2680   58.7300 C   0  0  0  0  0  0  0  0  0  0  0  0
  125.9580  128.8460   59.9850 C   0  0  0  0  0  0  0  0  0  0  0  0
  125.5060  130.1280   60.2860 C   0  0  0  0  0  0  0  0  0  0  0  0
  124.8010  130.8520   59.3300 C   0  0  0  0  0  0  0  0  0  0  0  0
  124.5460  130.3050   58.0780 C   0  0  0  0  0  0  0  0  0  0  0  0
  125.0010  129.0230   57.7810 C   0  0  0  0  0  0  0  0  0  0  0  0
  127.5260  126.6270   58.0280 C   0  0  0  0  0  0  0  0  0  0  0  0
  127.9350  125.3150   57.7450 C   0  0  0  0  0  0  0  0  0  0  0  0
  129.3960  125.0670   57.3240 C   0  0  0  0  0  0  0  0  0  0  0  0
  129.9150  124.0700   58.0410 F   0  0  0  0  0  0  0  0  0  0  0  0
  129.4510  124.7430   56.0310 F   0  0  0  0  0  0  0  0  0  0  0  0
  130.1760  126.1360   57.5010 F   0  0  0  0  0  0  0  0  0  0  0  0
  126.9860  124.2710   57.8610 C   0  0  0  0  0  0  0  0  0  0  0  0
  127.3560  122.8810   57.5770 C   0  0  0  0  0  0  0  0  0  0  0  0
  127.6480  121.7830   57.3520 N   0  0  0  0  0  0  0  0  0  0  0  0
  1  2  1  0
  2  3  1  0
  3  4  1  0
  4  5  1  0
  5  6  1  0
  6  7  1  0
  7  8  1  0
  8  9  1  0
  9 10  1  0
 10 11  1  0
 11 12  1  0
 12 13  2  0
 12 14  1  0
 14 15  1  0
 15 16  1  0
 16 17  2  0
 17 18  1  0
 18 19  1  0
 19 20  2  0
 20 21  1  0
 21 22  2  0
 22 23  1  0
 23 24  2  0
 18 25  2  0
 25 26  1  0
 26 27  1  0
 27 28  1  0
 27 29  1  0
 27 30  1  0
 26 31  2  0
 31 32  1  0
 32 33  3  0
 31 16  1  0
 24 19  1  0
M  END
>  <Binding energies>  (31) 
[-6.7]

>  <Ligand effiencies>  (31) 
[-0.19705882352941176]

>  <Interactions>  (31) 
["H-B:ALA:541:N:9863, V-B:GLU:543:CD:9880, V-B:ALA:541:CB:9864, V-A:TYR:539:CE1:4875, V-B:ILE:369:CG2:8208, V-B:ASP:366:CG:8184, V-B:ASP:366:CA:8181, H-B:TYR:531:OH:9767, V-B:ASP:366:CB:8183, V-A:TYR:539:CZ:4877, V-B:ASP:366:C:8179, V-A:PRO:482:CG:4326, V-B:PRO:540:CB:9857, V-B:TYR:539:CE2:9848, V-B:PRO:540:N:9856, V-B:PRO:540:CA:9855, V-B:MET:535:CE:9807, H-B:ASP:366:OD1:8185, V-B:TYR:539:CD2:9846, V-A:PRO:482:CB:4325, V-B:TYR:539:C:9839, V-B:TYR:531:CZ:9766, V-A:ILE:369:CG2:3236, V-A:LEU:475:CD1:4257, V-B:PRO:540:C:9853, V-B:TYR:539:CZ:9849, V-B:LEU:363:CA:8156, V-B:LEU:363:CB:8158, H-B:TYR:539:N:9842, V-A:HIS:383:CD2:3391, H-A:SER:385:OG:3409, H-A:HIS:383:NE2:3393, V-B:ASN:362:C:8143, V-B:ASN:362:CB:8147"]

$$$$
3bk_Grossjean_2025
     RDKit          3D

 30 31  0  0  0  0  0  0  0  0999 V2000
  132.3560  129.3860   57.6010 C   0  0  0  0  0  0  0  0  0  0  0  0
  132.7910  130.5330   56.8860 O   0  0  0  0  0  0  0  0  0  0  0  0
  131.9970  131.6860   57.1300 C   0  0  0  0  0  0  0  0  0  0  0  0
  131.4990  132.2600   55.7970 C   0  0  0  0  0  0  0  0  0  0  0  0
  130.0810  132.3390   55.8190 O   0  0  0  0  0  0  0  0  0  0  0  0
  129.4670  131.4140   56.7070 C   0  0  0  0  0  0  0  0  0  0  0  0
  128.8420  130.2720   55.8960 C   0  0  0  0  0  0  0  0  0  0  0  0
  129.4560  129.0430   56.2610 O   0  0  0  0  0  0  0  0  0  0  0  0
  129.2780  128.0050   55.3060 C   0  0  0  0  0  0  0  0  0  0  0  0
  129.0390  126.6750   56.0370 C   0  0  0  0  0  0  0  0  0  0  0  0
  130.2750  126.1050   56.5750 N   0  0  0  0  0  0  0  0  0  0  0  0
  131.3980  125.8730   55.8740 C   0  0  0  0  0  0  0  0  0  0  0  0
  131.5230  126.1360   54.6770 O   0  0  0  0  0  0  0  0  0  0  0  0
  132.5730  125.2710   56.6480 C   0  0  0  0  0  0  0  0  0  0  0  0
  132.3250  125.3690   58.4490 S   0  0  0  0  0  0  0  0  0  0  0  0
  131.3090  123.9970   58.9710 C   0  0  0  0  0  0  0  0  0  0  0  0
  130.0490  123.9680   58.4700 N   0  0  0  0  0  0  0  0  0  0  0  0
  129.2030  122.9610   58.8160 C   0  0  0  0  0  0  0  0  0  0  0  0
  127.8360  122.9930   58.2010 C   0  0  0  0  0  0  0  0  0  0  0  0
  126.8770  123.9240   58.6300 C   0  0  0  0  0  0  0  0  0  0  0  0
  125.6040  123.9540   58.0660 C   0  0  0  0  0  0  0  0  0  0  0  0
  125.2720  123.0520   57.0620 C   0  0  0  0  0  0  0  0  0  0  0  0
  126.2050  122.1210   56.6150 C   0  0  0  0  0  0  0  0  0  0  0  0
  127.4770  122.0950   57.1810 C   0  0  0  0  0  0  0  0  0  0  0  0
  129.6160  121.9430   59.6820 C   0  0  0  0  0  0  0  0  0  0  0  0
  130.9120  121.9580   60.2100 C   0  0  0  0  0  0  0  0  0  0  0  0
  131.3220  120.8280   61.1520 C   0  0  0  0  0  0  0  0  0  0  0  0
  131.7890  123.0050   59.8530 C   0  0  0  0  0  0  0  0  0  0  0  0
  133.1530  123.0460   60.3880 C   0  0  0  0  0  0  0  0  0  0  0  0
  134.2300  123.0780   60.8110 N   0  0  0  0  0  0  0  0  0  0  0  0
  1  2  1  0
  2  3  1  0
  3  4  1  0
  4  5  1  0
  5  6  1  0
  6  7  1  0
  7  8  1  0
  8  9  1  0
  9 10  1  0
 10 11  1  0
 11 12  1  0
 12 13  2  0
 12 14  1  0
 14 15  1  0
 15 16  1  0
 16 17  2  0
 17 18  1  0
 18 19  1  0
 19 20  2  0
 20 21  1  0
 21 22  2  0
 22 23  1  0
 23 24  2  0
 18 25  2  0
 25 26  1  0
 26 27  1  0
 26 28  2  0
 28 29  1  0
 29 30  3  0
 28 16  1  0
 24 19  1  0
M  END
>  <Binding energies>  (32) 
[-7.03]

>  <Ligand effiencies>  (32) 
[-0.2267741935483871]

>  <Interactions>  (32) 
["V-A:ASP:366:CG:3212, V-A:PRO:540:CB:4885, V-A:ILE:538:CB:4862, V-A:ILE:538:CG2:4863, V-A:LEU:363:CD1:3188, V-A:PRO:540:N:4884, V-A:PRO:540:CA:4883, V-A:ILE:538:CA:4860, V-A:PRO:540:CD:4887, V-B:PRO:540:CB:9857, V-B:TYR:539:CE2:9848, V-B:PRO:540:CD:9859, V-B:PRO:540:N:9856, V-B:PRO:540:CA:9855, V-B:MET:535:CE:9807, V-B:TYR:539:CA:9841, V-B:TYR:539:CD2:9846, V-B:TYR:531:CE2:9765, V-B:TYR:539:C:9839, V-B:LEU:363:CD1:8160, V-A:ILE:369:CG2:3236, V-A:ASP:366:CB:3211, V-A:LEU:475:CD1:4257, V-B:TYR:539:CG:9844, V-B:TYR:539:CZ:9849, H-B:TYR:539:OH:9850, H-A:TYR:531:OH:4795, H-A:TYR:539:N:4870, V-A:ASP:366:CA:3209, V-A:ASP:366:C:3207"]

$$$$
3cb_Grossjean_2025
     RDKit          3D

 30 32  0  0  0  0  0  0  0  0999 V2000
  125.2450  121.7110   55.2030 C   0  0  0  0  0  0  0  0  0  0  0  0
  126.1370  121.8050   56.3040 O   0  0  0  0  0  0  0  0  0  0  0  0
  126.4050  123.0010   56.8880 C   0  0  0  0  0  0  0  0  0  0  0  0
  125.6430  123.9710   56.8330 O   0  0  0  0  0  0  0  0  0  0  0  0
  127.7240  123.0290   57.6060 C   0  0  0  0  0  0  0  0  0  0  0  0
  128.7430  123.9270   57.2550 C   0  0  0  0  0  0  0  0  0  0  0  0
  129.9530  123.9290   57.9430 C   0  0  0  0  0  0  0  0  0  0  0  0
  130.1740  123.0330   58.9890 C   0  0  0  0  0  0  0  0  0  0  0  0
  131.4330  123.1240   59.6180 N   0  0  0  0  0  0  0  0  0  0  0  0
  132.2430  124.1910   59.7880 C   0  0  0  0  0  0  0  0  0  0  0  0
  131.9880  125.3370   59.4120 O   0  0  0  0  0  0  0  0  0  0  0  0
  133.5540  123.8840   60.5270 C   0  0  0  0  0  0  0  0  0  0  0  0
  133.3720  122.8420   62.0160 S   0  0  0  0  0  0  0  0  0  0  0  0
  131.9150  123.3840   62.8850 C   0  0  0  0  0  0  0  0  0  0  0  0
  130.7600  122.9590   62.3180 N   0  0  0  0  0  0  0  0  0  0  0  0
  129.5880  123.3090   62.8930 C   0  0  0  0  0  0  0  0  0  0  0  0
  128.3370  122.7880   62.2130 C   0  0  0  0  0  0  0  0  0  0  0  0
  129.5220  124.0950   64.0410 C   0  0  0  0  0  0  0  0  0  0  0  0
  130.7030  124.5590   64.6340 C   0  0  0  0  0  0  0  0  0  0  0  0
  130.5780  125.4040   65.8610 C   0  0  0  0  0  0  0  0  0  0  0  0
  131.6240  126.2560   66.2390 C   0  0  0  0  0  0  0  0  0  0  0  0
  131.5130  127.0550   67.3740 C   0  0  0  0  0  0  0  0  0  0  0  0
  130.3500  127.0080   68.1370 C   0  0  0  0  0  0  0  0  0  0  0  0
  129.2980  126.1740   67.7730 C   0  0  0  0  0  0  0  0  0  0  0  0
  129.4110  125.3770   66.6360 C   0  0  0  0  0  0  0  0  0  0  0  0
  131.9410  124.2110   64.0350 C   0  0  0  0  0  0  0  0  0  0  0  0
  133.2020  124.7450   64.5580 C   0  0  0  0  0  0  0  0  0  0  0  0
  134.1970  125.1670   64.9710 N   0  0  0  0  0  0  0  0  0  0  0  0
  129.1590  122.1340   59.3490 C   0  0  0  0  0  0  0  0  0  0  0  0
  127.9480  122.1340   58.6610 C   0  0  0  0  0  0  0  0  0  0  0  0
  1  2  1  0
  2  3  1  0
  3  4  2  0
  3  5  1  0
  5  6  2  0
  6  7  1  0
  7  8  2  0
  8  9  1  0
  9 10  1  0
 10 11  2  0
 10 12  1  0
 12 13  1  0
 13 14  1  0
 14 15  2  0
 15 16  1  0
 16 17  1  0
 16 18  2  0
 18 19  1  0
 19 20  1  0
 20 21  2  0
 21 22  1  0
 22 23  2  0
 23 24  1  0
 24 25  2  0
 19 26  2  0
 26 27  1  0
 27 28  3  0
  8 29  1  0
 29 30  2  0
 30  5  1  0
 26 14  1  0
 25 20  1  0
M  END
>  <Binding energies>  (33) 
[-8.55]

>  <Ligand effiencies>  (33) 
[-0.27580645161290324]

>  <Interactions>  (33) 
["V-A:HIS:456:CE1:4069, H-A:GLY:454:N:4049, H-A:ARG:545:NH2:4928, V-B:GLU:543:CG:9879, V-A:ARG:545:CZ:4926, V-A:ASP:366:CG:3212, H-A:TYR:484:OH:4347, V-B:GLU:543:CD:9880, H-A:ARG:545:NE:4924, V-B:ALA:541:CB:9864, V-A:ARG:545:CG:4922, H-B:TYR:531:OH:9767, V-A:GLU:543:CD:4908, V-B:PRO:540:CB:9857, V-B:TYR:539:CE2:9848, V-B:PRO:540:CD:9859, V-B:PRO:540:N:9856, V-B:PRO:540:CA:9855, V-B:MET:535:CE:9807, V-B:TYR:539:CD2:9846, V-B:TYR:539:C:9839, V-B:LEU:363:CD1:8160, V-A:GLY:454:CA:4048, V-B:GLU:543:CB:9878, V-A:TYR:484:CE2:4345, V-A:GLU:543:CB:4906, V-B:TYR:539:CZ:9849, V-B:ILE:538:CG2:9835, H-A:ARG:545:NH1:4927, H-B:TYR:539:N:9842, V-B:ILE:538:CA:9832, V-B:MET:535:CG:9805, V-B:ILE:538:CB:9834, V-B:ILE:538:CG1:9836, V-B:ILE:538:C:9830"]

$$$$
3ch_Grossjean_2025
     RDKit          3D

 32 34  0  0  0  0  0  0  0  0999 V2000
  129.2550  131.8820   55.3300 C   0  0  0  0  0  0  0  0  0  0  0  0
  130.1390  132.3680   56.3340 O   0  0  0  0  0  0  0  0  0  0  0  0
  129.9760  131.9570   57.6440 C   0  0  0  0  0  0  0  0  0  0  0  0
  128.7410  131.9310   58.3120 C   0  0  0  0  0  0  0  0  0  0  0  0
  128.6510  131.4910   59.6410 C   0  0  0  0  0  0  0  0  0  0  0  0
  127.4600  131.4260   60.3890 N   0  0  0  0  0  0  0  0  0  0  0  0
  127.1810  131.9280   61.6110 C   0  0  0  0  0  0  0  0  0  0  0  0
  127.9580  132.5760   62.3120 O   0  0  0  0  0  0  0  0  0  0  0  0
  125.7570  131.6870   62.1140 C   0  0  0  0  0  0  0  0  0  0  0  0
  125.3590  129.9170   62.2240 S   0  0  0  0  0  0  0  0  0  0  0  0
  125.5030  129.4850   63.9440 C   0  0  0  0  0  0  0  0  0  0  0  0
  124.3530  129.6350   64.6470 N   0  0  0  0  0  0  0  0  0  0  0  0
  124.3580  129.3390   65.9660 C   0  0  0  0  0  0  0  0  0  0  0  0
  123.0410  129.5350   66.6920 C   0  0  0  0  0  0  0  0  0  0  0  0
  125.4970  128.8890   66.6300 C   0  0  0  0  0  0  0  0  0  0  0  0
  126.6940  128.7200   65.9190 C   0  0  0  0  0  0  0  0  0  0  0  0
  127.8930  128.2450   66.6740 C   0  0  0  0  0  0  0  0  0  0  0  0
  128.3820  128.9870   67.7550 C   0  0  0  0  0  0  0  0  0  0  0  0
  129.5040  128.5550   68.4590 C   0  0  0  0  0  0  0  0  0  0  0  0
  130.1430  127.3770   68.0800 C   0  0  0  0  0  0  0  0  0  0  0  0
  129.6730  126.6310   67.0030 C   0  0  0  0  0  0  0  0  0  0  0  0
  128.5520  127.0670   66.3010 C   0  0  0  0  0  0  0  0  0  0  0  0
  126.6980  129.0080   64.5300 C   0  0  0  0  0  0  0  0  0  0  0  0
  127.8940  128.7590   63.7190 C   0  0  0  0  0  0  0  0  0  0  0  0
  128.8380  128.5650   63.0780 N   0  0  0  0  0  0  0  0  0  0  0  0
  129.8120  131.0950   60.3060 C   0  0  0  0  0  0  0  0  0  0  0  0
  131.0590  131.1130   59.6610 C   0  0  0  0  0  0  0  0  0  0  0  0
  132.2450  130.7260   60.2600 O   0  0  0  0  0  0  0  0  0  0  0  0
  132.7440  131.4670   61.3690 C   0  0  0  0  0  0  0  0  0  0  0  0
  131.1270  131.5490   58.3310 C   0  0  0  0  0  0  0  0  0  0  0  0
  132.3390  131.5550   57.6820 O   0  0  0  0  0  0  0  0  0  0  0  0
  132.7780  130.2700   57.2620 C   0  0  0  0  0  0  0  0  0  0  0  0
  1  2  1  0
  2  3  1  0
  3  4  2  0
  4  5  1  0
  5  6  1  0
  6  7  1  0
  7  8  2  0
  7  9  1  0
  9 10  1  0
 10 11  1  0
 11 12  2  0
 12 13  1  0
 13 14  1  0
 13 15  2  0
 15 16  1  0
 16 17  1  0
 17 18  2  0
 18 19  1  0
 19 20  2  0
 20 21  1  0
 21 22  2  0
 16 23  2  0
 23 24  1  0
 24 25  3  0
  5 26  2  0
 26 27  1  0
 27 28  1  0
 28 29  1  0
 27 30  2  0
 30 31  1  0
 31 32  1  0
 30  3  1  0
 23 11  1  0
 22 17  1  0
M  END
>  <Binding energies>  (34) 
[-7.57]

>  <Ligand effiencies>  (34) 
[-0.2293939393939394]

>  <Interactions>  (34) 
["V-A:GLU:543:C:4902, V-A:HIS:456:CE1:4069, V-B:GLU:543:CD:9880, V-A:TYR:539:CD1:4873, V-A:PRO:540:CB:4885, V-A:LEU:363:CD1:3188, V-A:PRO:540:N:4884, V-A:TYR:539:CE1:4875, V-A:PRO:540:CA:4883, V-A:ILE:538:CA:4860, V-A:TYR:539:C:4867, V-A:GLU:543:CD:4908, V-A:GLU:543:CG:4907, H-B:ARG:545:NH2:9900, V-A:GLU:543:CA:4904, V-A:ASP:366:CB:3211, V-A:GLU:543:CB:4906, V-B:HIS:456:CE1:9041, V-A:PRO:540:C:4881, V-A:ASN:362:CB:3175, V-B:GLY:454:CA:9020, V-B:TYR:484:CE2:9317, V-B:ARG:545:CZ:9898, V-B:ARG:545:CG:9894, V-B:ARG:545:CD:9895, H-A:TYR:539:N:4870, H-B:GLY:454:N:9021, H-B:ARG:545:NE:9896, V-B:GLY:453:CA:9015, V-B:GLY:453:C:9013, H-B:ARG:545:NH1:9899, V-B:ILE:455:C:9023, V-B:GLY:454:C:9018"]

$$$$
3ci_Grossjean_2025
     RDKit          3D

 25 27  0  0  0  0  0  0  0  0999 V2000
  131.9790  125.7760   56.4480 C   0  0  0  0  0  0  0  0  0  0  0  0
  131.1910  124.9190   57.4210 C   0  0  0  0  0  0  0  0  0  0  0  0
  129.8890  124.5120   57.1470 C   0  0  0  0  0  0  0  0  0  0  0  0
  129.2070  123.7070   58.0700 C   0  0  0  0  0  0  0  0  0  0  0  0
  127.8170  123.2810   57.7270 C   0  0  0  0  0  0  0  0  0  0  0  0
  127.5890  122.1440   56.9410 C   0  0  0  0  0  0  0  0  0  0  0  0
  126.2910  121.7560   56.6170 C   0  0  0  0  0  0  0  0  0  0  0  0
  125.2140  122.5090   57.0740 C   0  0  0  0  0  0  0  0  0  0  0  0
  125.4230  123.6470   57.8480 C   0  0  0  0  0  0  0  0  0  0  0  0
  126.7220  124.0320   58.1710 C   0  0  0  0  0  0  0  0  0  0  0  0
  129.8730  123.3430   59.2680 C   0  0  0  0  0  0  0  0  0  0  0  0
  129.1950  122.5380   60.2900 C   0  0  0  0  0  0  0  0  0  0  0  0
  128.6580  121.9020   61.0950 N   0  0  0  0  0  0  0  0  0  0  0  0
  131.2000  123.7960   59.4640 C   0  0  0  0  0  0  0  0  0  0  0  0
  132.1410  123.3790   60.9270 S   0  0  0  0  0  0  0  0  0  0  0  0
  132.2300  124.8300   62.0270 C   0  0  0  0  0  0  0  0  0  0  0  0
  132.9160  124.5360   63.3660 C   0  0  0  0  0  0  0  0  0  0  0  0
  133.4790  123.4520   63.5290 O   0  0  0  0  0  0  0  0  0  0  0  0
  132.8320  125.5140   64.2950 N   0  0  0  0  0  0  0  0  0  0  0  0
  133.3860  125.5150   65.5680 C   0  0  0  0  0  0  0  0  0  0  0  0
  132.6650  125.8600   66.7100 C   0  0  0  0  0  0  0  0  0  0  0  0
  133.5600  125.7380   67.7490 C   0  0  0  0  0  0  0  0  0  0  0  0
  134.7570  125.3380   67.2560 O   0  0  0  0  0  0  0  0  0  0  0  0
  134.6340  125.2010   65.8730 N   0  0  0  0  0  0  0  0  0  0  0  0
  131.8390  124.5760   58.5560 N   0  0  0  0  0  0  0  0  0  0  0  0
  1  2  1  0
  2  3  2  0
  3  4  1  0
  4  5  1  0
  5  6  2  0
  6  7  1  0
  7  8  2  0
  8  9  1  0
  9 10  2  0
  4 11  2  0
 11 12  1  0
 12 13  3  0
 11 14  1  0
 14 15  1  0
 15 16  1  0
 16 17  1  0
 17 18  2  0
 17 19  1  0
 19 20  1  0
 20 21  1  0
 21 22  2  0
 22 23  1  0
 23 24  1  0
 14 25  2  0
 25  2  1  0
 10  5  1  0
 24 20  2  0
M  END
>  <Binding energies>  (35) 
[-8.18]

>  <Ligand effiencies>  (35) 
[-0.31461538461538463]

>  <Interactions>  (35) 
["V-A:HIS:456:CE1:4069, H-A:GLY:454:N:4049, V-A:TYR:484:CZ:4346, H-B:ALA:541:N:9863, V-A:ARG:545:CZ:4926, V-A:ASP:366:CG:3212, H-A:TYR:484:OH:4347, H-A:ARG:545:NE:4924, H-A:ILE:455:N:4054, V-A:ARG:545:CD:4923, V-A:ARG:545:CG:4922, H-A:GLU:543:OE2:4910, H-A:GLU:543:OE1:4909, V-B:PRO:540:CB:9857, V-B:TYR:539:CE2:9848, V-B:PRO:540:CD:9859, V-B:PRO:540:N:9856, V-B:PRO:540:CA:9855, V-B:MET:535:CE:9807, V-B:TYR:539:CA:9841, V-B:TYR:531:CE2:9765, V-B:TYR:539:C:9839, V-B:LEU:363:CD1:8160, V-A:ASP:366:CB:3211, V-B:TYR:539:CG:9844, V-B:TYR:539:CZ:9849, H-B:TYR:539:OH:9850, V-B:TYR:539:CE1:9847, V-B:TYR:539:CD1:9845, V-B:PRO:540:CG:9858"]

$$$$
3ck_Grossjean_2025
     RDKit          3D

 30 31  0  0  0  0  0  0  0  0999 V2000
  125.2980  121.7890   55.8890 C   0  0  0  0  0  0  0  0  0  0  0  0
  126.6140  121.7310   56.4180 O   0  0  0  0  0  0  0  0  0  0  0  0
  126.9230  122.8130   57.2850 C   0  0  0  0  0  0  0  0  0  0  0  0
  125.6660  123.6620   57.5170 C   0  0  0  0  0  0  0  0  0  0  0  0
  126.0400  125.0260   57.6600 O   0  0  0  0  0  0  0  0  0  0  0  0
  127.4180  125.2200   57.9500 C   0  0  0  0  0  0  0  0  0  0  0  0
  127.5500  126.2090   59.1140 C   0  0  0  0  0  0  0  0  0  0  0  0
  127.3360  127.5210   58.6130 O   0  0  0  0  0  0  0  0  0  0  0  0
  127.8880  128.5590   59.4080 C   0  0  0  0  0  0  0  0  0  0  0  0
  127.2140  129.8970   59.0500 C   0  0  0  0  0  0  0  0  0  0  0  0
  127.1210  130.1430   57.6070 N   0  0  0  0  0  0  0  0  0  0  0  0
  126.2720  129.5330   56.7610 C   0  0  0  0  0  0  0  0  0  0  0  0
  125.4410  128.6980   57.1220 O   0  0  0  0  0  0  0  0  0  0  0  0
  126.3950  129.9490   55.2860 C   0  0  0  0  0  0  0  0  0  0  0  0
  128.0990  130.2130   54.6870 S   0  0  0  0  0  0  0  0  0  0  0  0
  129.2410  129.3860   55.7840 C   0  0  0  0  0  0  0  0  0  0  0  0
  129.3070  128.0370   55.6520 N   0  0  0  0  0  0  0  0  0  0  0  0
  130.1470  127.3450   56.4540 C   0  0  0  0  0  0  0  0  0  0  0  0
  130.1650  125.8430   56.2500 C   0  0  0  0  0  0  0  0  0  0  0  0
  130.9470  127.9620   57.4120 C   0  0  0  0  0  0  0  0  0  0  0  0
  130.8910  129.3530   57.5710 C   0  0  0  0  0  0  0  0  0  0  0  0
  131.7490  129.9680   58.6270 C   0  0  0  0  0  0  0  0  0  0  0  0
  131.2250  130.2230   59.9000 C   0  0  0  0  0  0  0  0  0  0  0  0
  132.0170  130.8060   60.8860 C   0  0  0  0  0  0  0  0  0  0  0  0
  133.3370  131.1420   60.6010 C   0  0  0  0  0  0  0  0  0  0  0  0
  133.8710  130.9040   59.3360 C   0  0  0  0  0  0  0  0  0  0  0  0
  133.0770  130.3210   58.3530 C   0  0  0  0  0  0  0  0  0  0  0  0
  130.0220  130.0930   56.7270 C   0  0  0  0  0  0  0  0  0  0  0  0
  129.9530  131.5550   56.8200 C   0  0  0  0  0  0  0  0  0  0  0  0
  129.8980  132.7090   56.8930 N   0  0  0  0  0  0  0  0  0  0  0  0
  1  2  1  0
  2  3  1  0
  3  4  1  0
  4  5  1  0
  5  6  1  0
  6  7  1  0
  7  8  1  0
  8  9  1  0
  9 10  1  0
 10 11  1  0
 11 12  1  0
 12 13  2  0
 12 14  1  0
 14 15  1  0
 15 16  1  0
 16 17  2  0
 17 18  1  0
 18 19  1  0
 18 20  2  0
 20 21  1  0
 21 22  1  0
 22 23  2  0
 23 24  1  0
 24 25  2  0
 25 26  1  0
 26 27  2  0
 21 28  2  0
 28 29  1  0
 29 30  3  0
 28 16  1  0
 27 22  1  0
M  END
>  <Binding energies>  (36) 
[-6.42]

>  <Ligand effiencies>  (36) 
[-0.20709677419354838]

>  <Interactions>  (36) 
["V-A:ASP:366:CG:3212, V-A:PRO:540:CB:4885, V-A:LEU:363:CD1:3188, V-A:TYR:539:CE1:4875, V-A:PRO:540:CA:4883, H-B:LYS:534:NZ:9795, H-B:TYR:531:OH:9767, V-A:TYR:539:CZ:4877, V-B:PRO:540:CD:9859, V-B:PRO:540:N:9856, V-B:PRO:540:CA:9855, V-B:MET:535:CE:9807, V-B:TYR:531:CE2:9765, V-B:TYR:531:CZ:9766, V-B:LEU:363:CD1:8160, V-A:ASP:366:CB:3211, V-B:TYR:531:CE1:9764, H-A:TYR:531:OH:4795, V-A:LEU:363:CA:3184, V-A:ASN:362:CB:3175, V-A:ASN:362:C:3171, V-A:LEU:363:CB:3186, H-A:TYR:539:N:4870, V-B:ILE:538:CG2:9835, H-B:TYR:539:N:9842, V-B:ILE:538:CA:9832"]

$$$$
4aa_Grossjean_2025
     RDKit          3D

 26 28  0  0  0  0  0  0  0  0999 V2000
  125.3660  121.9480   55.5130 C   0  0  0  0  0  0  0  0  0  0  0  0
  125.7740  122.6540   56.8100 C   0  0  0  0  0  0  0  0  0  0  0  0
  125.3310  124.0050   56.7720 O   0  0  0  0  0  0  0  0  0  0  0  0
  124.8300  124.6100   57.8800 C   0  0  0  0  0  0  0  0  0  0  0  0
  123.6900  125.0810   57.9420 O   0  0  0  0  0  0  0  0  0  0  0  0
  125.8030  124.6520   59.0230 C   0  0  0  0  0  0  0  0  0  0  0  0
  127.0210  125.3250   58.8600 C   0  0  0  0  0  0  0  0  0  0  0  0
  127.9460  125.3790   59.9000 C   0  0  0  0  0  0  0  0  0  0  0  0
  127.6690  124.7690   61.1240 C   0  0  0  0  0  0  0  0  0  0  0  0
  128.6770  124.8770   62.1020 N   0  0  0  0  0  0  0  0  0  0  0  0
  129.0790  123.9890   63.0430 C   0  0  0  0  0  0  0  0  0  0  0  0
  128.5570  122.8890   63.2250 O   0  0  0  0  0  0  0  0  0  0  0  0
  130.1940  124.4310   63.8830 C   0  0  0  0  0  0  0  0  0  0  0  0
  131.8460  123.9380   63.5010 S   0  0  0  0  0  0  0  0  0  0  0  0
  132.4710  124.7840   64.8980 C   0  0  0  0  0  0  0  0  0  0  0  0
  133.7720  124.7960   65.1930 N   0  0  0  0  0  0  0  0  0  0  0  0
  134.1240  125.4850   66.3060 C   0  0  0  0  0  0  0  0  0  0  0  0
  135.6080  125.4820   66.6260 C   0  0  0  0  0  0  0  0  0  0  0  0
  133.2160  126.1590   67.1200 C   0  0  0  0  0  0  0  0  0  0  0  0
  131.8520  126.1460   66.8070 C   0  0  0  0  0  0  0  0  0  0  0  0
  130.8990  126.8970   67.7250 C   0  0  0  0  0  0  0  0  0  0  0  0
  131.4440  125.4300   65.6500 C   0  0  0  0  0  0  0  0  0  0  0  0
  130.1540  125.2090   65.0500 C   0  0  0  0  0  0  0  0  0  0  0  0
  129.0010  125.7240   65.5870 N   0  0  0  0  0  0  0  0  0  0  0  0
  126.4550  124.0890   61.2960 C   0  0  0  0  0  0  0  0  0  0  0  0
  125.5320  124.0340   60.2530 C   0  0  0  0  0  0  0  0  0  0  0  0
  1  2  1  0
  2  3  1  0
  3  4  1  0
  4  5  2  0
  4  6  1  0
  6  7  2  0
  7  8  1  0
  8  9  2  0
  9 10  1  0
 10 11  1  0
 11 12  2  0
 11 13  1  0
 13 14  1  0
 14 15  1  0
 15 16  2  0
 16 17  1  0
 17 18  1  0
 17 19  2  0
 19 20  1  0
 20 21  1  0
 20 22  2  0
 22 23  1  0
 23 24  1  0
  9 25  1  0
 25 26  2  0
 26  6  1  0
 23 13  2  0
 22 15  1  0
M  END
>  <Binding energies>  (37) 
[-7.31]

>  <Ligand effiencies>  (37) 
[-0.25206896551724134]

>  <Interactions>  (37) 
["V-A:HIS:456:CE1:4069, H-A:GLY:454:N:4049, V-A:TYR:484:CZ:4346, V-B:GLU:543:CG:9879, V-A:ILE:455:C:4051, V-A:ARG:545:CZ:4926, H-A:TYR:484:OH:4347, V-B:GLU:543:CD:9880, H-B:GLU:543:OE2:9882, V-A:GLY:453:C:4041, V-A:ARG:545:CD:4923, V-A:ARG:545:CG:4922, V-A:GLY:453:CA:4043, H-B:TYR:531:OH:9767, V-B:ASP:366:CB:8183, H-A:GLU:543:OE1:4909, V-B:PRO:540:CB:9857, V-B:PRO:540:CD:9859, V-B:PRO:540:N:9856, V-B:MET:535:CE:9807, V-B:TYR:531:CE2:9765, V-B:TYR:531:CZ:9766, V-B:LEU:363:CD1:8160, V-A:GLY:454:CA:4048, V-B:GLU:543:CB:9878, V-A:GLU:543:CB:4906, V-B:ILE:538:CG2:9835, V-A:ARG:545:CB:4921, V-B:ILE:538:CA:9832, V-B:MET:535:CG:9805, V-B:ILE:538:CB:9834, V-B:ILE:538:CG1:9836, V-A:VAL:452:CG2:4039"]

$$$$
4ab_Grossjean_2025
     RDKit          3D

 25 27  0  0  0  0  0  0  0  0999 V2000
  125.2270  121.3860   55.3560 C   0  0  0  0  0  0  0  0  0  0  0  0
  126.1650  121.8770   56.3030 O   0  0  0  0  0  0  0  0  0  0  0  0
  126.0390  123.1210   56.8320 C   0  0  0  0  0  0  0  0  0  0  0  0
  125.2230  123.9540   56.4240 O   0  0  0  0  0  0  0  0  0  0  0  0
  126.9970  123.3870   57.9570 C   0  0  0  0  0  0  0  0  0  0  0  0
  126.4910  123.6580   59.2350 C   0  0  0  0  0  0  0  0  0  0  0  0
  127.3530  123.9110   60.2990 C   0  0  0  0  0  0  0  0  0  0  0  0
  128.7350  123.8890   60.1100 C   0  0  0  0  0  0  0  0  0  0  0  0
  129.5110  124.1650   61.2520 N   0  0  0  0  0  0  0  0  0  0  0  0
  129.4290  123.6610   62.5070 C   0  0  0  0  0  0  0  0  0  0  0  0
  128.5740  122.8540   62.8750 O   0  0  0  0  0  0  0  0  0  0  0  0
  130.4330  124.1610   63.4480 C   0  0  0  0  0  0  0  0  0  0  0  0
  132.1390  123.7640   63.2240 S   0  0  0  0  0  0  0  0  0  0  0  0
  132.5820  124.6390   64.6720 C   0  0  0  0  0  0  0  0  0  0  0  0
  133.8460  124.7210   65.0890 N   0  0  0  0  0  0  0  0  0  0  0  0
  134.0530  125.4260   66.2270 C   0  0  0  0  0  0  0  0  0  0  0  0
  135.4970  125.5030   66.6860 C   0  0  0  0  0  0  0  0  0  0  0  0
  133.0370  126.0480   66.9500 C   0  0  0  0  0  0  0  0  0  0  0  0
  131.7110  125.9590   66.5100 C   0  0  0  0  0  0  0  0  0  0  0  0
  130.6370  126.6520   67.3340 C   0  0  0  0  0  0  0  0  0  0  0  0
  131.4530  125.2240   65.3210 C   0  0  0  0  0  0  0  0  0  0  0  0
  130.2410  124.9300   64.6060 C   0  0  0  0  0  0  0  0  0  0  0  0
  129.0140  125.3760   65.0310 N   0  0  0  0  0  0  0  0  0  0  0  0
  129.2510  123.6230   58.8330 C   0  0  0  0  0  0  0  0  0  0  0  0
  128.3880  123.3740   57.7700 C   0  0  0  0  0  0  0  0  0  0  0  0
  1  2  1  0
  2  3  1  0
  3  4  2  0
  3  5  1  0
  5  6  2  0
  6  7  1  0
  7  8  2  0
  8  9  1  0
  9 10  1  0
 10 11  2  0
 10 12  1  0
 12 13  1  0
 13 14  1  0
 14 15  2  0
 15 16  1  0
 16 17  1  0
 16 18  2  0
 18 19  1  0
 19 20  1  0
 19 21  2  0
 21 22  1  0
 22 23  1  0
  8 24  1  0
 24 25  2  0
 25  5  1  0
 22 12  2  0
 21 14  1  0
M  END
>  <Binding energies>  (38) 
[-7.33]

>  <Ligand effiencies>  (38) 
[-0.2617857142857143]

>  <Interactions>  (38) 
["V-A:HIS:456:CE1:4069, H-A:GLY:454:N:4049, V-B:GLU:543:CG:9879, H-B:ALA:541:N:9863, V-A:ILE:455:C:4051, V-A:ARG:545:CZ:4926, H-A:TYR:484:OH:4347, V-B:GLU:543:CD:9880, H-B:GLU:543:OE2:9882, V-A:GLY:453:C:4041, V-A:ARG:545:CD:4923, V-A:ARG:545:CG:4922, V-A:GLY:453:CA:4043, H-B:TYR:531:OH:9767, H-A:GLU:543:OE1:4909, V-B:PRO:540:CB:9857, V-B:TYR:539:CE2:9848, V-B:PRO:540:CD:9859, V-B:PRO:540:CA:9855, V-B:MET:535:CE:9807, V-B:TYR:531:CE2:9765, V-B:LEU:363:CD1:8160, V-A:GLY:454:CA:4048, V-B:GLU:543:CB:9878, V-B:ILE:538:CG2:9835, V-A:ARG:545:CB:4921, H-B:TYR:539:N:9842, V-B:ILE:538:CA:9832, V-B:ILE:538:CB:9834, V-B:ILE:538:CG1:9836, V-B:ILE:538:C:9830"]

$$$$
4ac_Grossjean_2025
     RDKit          3D

 23 25  0  0  0  0  0  0  0  0999 V2000
  133.7940  125.4730   66.6310 C   0  0  0  0  0  0  0  0  0  0  0  0
  134.0750  125.1670   65.2690 O   0  0  0  0  0  0  0  0  0  0  0  0
  133.0260  124.9590   64.3940 C   0  0  0  0  0  0  0  0  0  0  0  0
  133.1210  123.8420   63.5640 C   0  0  0  0  0  0  0  0  0  0  0  0
  132.1110  123.5510   62.6500 C   0  0  0  0  0  0  0  0  0  0  0  0
  130.9860  124.3710   62.5620 C   0  0  0  0  0  0  0  0  0  0  0  0
  130.0250  124.0060   61.6010 N   0  0  0  0  0  0  0  0  0  0  0  0
  128.9550  123.1850   61.7280 C   0  0  0  0  0  0  0  0  0  0  0  0
  128.6730  122.5760   62.7610 O   0  0  0  0  0  0  0  0  0  0  0  0
  128.1250  123.0460   60.5290 C   0  0  0  0  0  0  0  0  0  0  0  0
  128.7080  122.1260   59.1410 S   0  0  0  0  0  0  0  0  0  0  0  0
  127.2380  122.4470   58.2490 C   0  0  0  0  0  0  0  0  0  0  0  0
  127.0450  121.9800   57.0150 N   0  0  0  0  0  0  0  0  0  0  0  0
  125.8630  122.3020   56.4360 C   0  0  0  0  0  0  0  0  0  0  0  0
  125.6620  121.7610   55.0320 C   0  0  0  0  0  0  0  0  0  0  0  0
  124.8810  123.0730   57.0540 C   0  0  0  0  0  0  0  0  0  0  0  0
  125.0870  123.5620   58.3500 C   0  0  0  0  0  0  0  0  0  0  0  0
  123.9860  124.3980   58.9820 C   0  0  0  0  0  0  0  0  0  0  0  0
  126.3150  123.2430   58.9900 C   0  0  0  0  0  0  0  0  0  0  0  0
  126.8440  123.5680   60.2870 C   0  0  0  0  0  0  0  0  0  0  0  0
  126.1450  124.3260   61.1940 N   0  0  0  0  0  0  0  0  0  0  0  0
  130.8890  125.5030   63.3830 C   0  0  0  0  0  0  0  0  0  0  0  0
  131.9010  125.7920   64.2960 C   0  0  0  0  0  0  0  0  0  0  0  0
  1  2  1  0
  2  3  1  0
  3  4  2  0
  4  5  1  0
  5  6  2  0
  6  7  1  0
  7  8  1  0
  8  9  2  0
  8 10  1  0
 10 11  1  0
 11 12  1  0
 12 13  2  0
 13 14  1  0
 14 15  1  0
 14 16  2  0
 16 17  1  0
 17 18  1  0
 17 19  2  0
 19 20  1  0
 20 21  1  0
  6 22  1  0
 22 23  2  0
 23  3  1  0
 20 10  2  0
 19 12  1  0
M  END
>  <Binding energies>  (39) 
[-7.24]

>  <Ligand effiencies>  (39) 
[-0.2784615384615385]

>  <Interactions>  (39) 
["H-A:GLY:454:N:4049, H-A:ARG:545:NH2:4928, V-A:TYR:484:CZ:4346, H-B:ALA:541:N:9863, V-A:ARG:545:CZ:4926, H-A:TYR:484:OH:4347, V-B:GLU:543:CD:9880, H-B:GLU:543:OE1:9881, H-B:GLU:543:OE2:9882, H-A:ARG:545:NE:4924, V-A:ARG:545:CD:4923, V-A:ARG:545:CG:4922, V-B:ASP:366:CG:8184, V-B:ASP:366:CB:8183, V-B:PRO:540:CB:9857, V-B:TYR:539:CE2:9848, V-B:PRO:540:CD:9859, V-B:PRO:540:N:9856, V-B:PRO:540:CA:9855, V-B:MET:535:CE:9807, H-B:ASP:366:OD1:8185, V-B:TYR:539:CD2:9846, V-B:TYR:531:CE2:9765, V-B:TYR:539:C:9839, V-B:LEU:363:CD1:8160, V-A:GLY:454:CA:4048, V-B:LEU:363:CA:8156, V-B:LEU:363:CB:8158, V-B:ILE:538:CG2:9835, H-A:ARG:545:NH1:4927, H-B:TYR:539:N:9842, V-B:ILE:538:CA:9832, V-B:MET:535:CG:9805, V-B:ILE:538:CB:9834, V-B:ILE:538:CG1:9836, V-B:ILE:538:C:9830"]

$$$$
4ad_Grossjean_2025
     RDKit          3D

 21 23  0  0  0  0  0  0  0  0999 V2000
  130.2430  132.2440   55.0000 C   0  0  0  0  0  0  0  0  0  0  0  0
  130.4650  131.8590   56.4510 C   0  0  0  0  0  0  0  0  0  0  0  0
  131.7000  131.3840   56.8870 C   0  0  0  0  0  0  0  0  0  0  0  0
  131.8810  131.0320   58.2300 C   0  0  0  0  0  0  0  0  0  0  0  0
  133.2470  130.5160   58.6580 C   0  0  0  0  0  0  0  0  0  0  0  0
  130.7740  131.1780   59.1080 C   0  0  0  0  0  0  0  0  0  0  0  0
  130.6090  130.9190   60.5130 C   0  0  0  0  0  0  0  0  0  0  0  0
  131.6320  130.4410   61.2930 N   0  0  0  0  0  0  0  0  0  0  0  0
  129.3230  131.2010   60.9990 C   0  0  0  0  0  0  0  0  0  0  0  0
  128.8070  131.0410   62.3600 C   0  0  0  0  0  0  0  0  0  0  0  0
  129.4000  131.5380   63.3190 O   0  0  0  0  0  0  0  0  0  0  0  0
  127.6560  130.3320   62.4660 N   0  0  0  0  0  0  0  0  0  0  0  0
  126.9320  129.9660   63.6170 C   0  0  0  0  0  0  0  0  0  0  0  0
  125.5390  130.0130   63.5030 C   0  0  0  0  0  0  0  0  0  0  0  0
  124.7350  129.6590   64.5830 C   0  0  0  0  0  0  0  0  0  0  0  0
  125.3230  129.2500   65.7770 C   0  0  0  0  0  0  0  0  0  0  0  0
  126.7090  129.1870   65.8980 C   0  0  0  0  0  0  0  0  0  0  0  0
  127.5160  129.5400   64.8200 C   0  0  0  0  0  0  0  0  0  0  0  0
  128.2750  131.8040   59.7140 S   0  0  0  0  0  0  0  0  0  0  0  0
  129.5620  131.6740   58.5380 C   0  0  0  0  0  0  0  0  0  0  0  0
  129.3880  132.0100   57.2590 N   0  0  0  0  0  0  0  0  0  0  0  0
  1  2  1  0
  2  3  2  0
  3  4  1  0
  4  5  1  0
  4  6  2  0
  6  7  1  0
  7  8  1  0
  7  9  2  0
  9 10  1  0
 10 11  2  0
 10 12  1  0
 12 13  1  0
 13 14  2  0
 14 15  1  0
 15 16  2  0
 16 17  1  0
 17 18  2  0
  9 19  1  0
 19 20  1  0
 20 21  2  0
 21  2  1  0
 20  6  1  0
 18 13  1  0
M  END
>  <Binding energies>  (40) 
[-6.81]

>  <Ligand effiencies>  (40) 
[-0.28375]

>  <Interactions>  (40) 
["V-A:ASP:366:CG:3212, V-A:TYR:539:CD1:4873, H-A:GLU:543:OE2:4910, V-A:PRO:540:CB:4885, V-A:ILE:538:CB:4862, V-A:ILE:538:CG2:4863, V-A:LEU:363:CD1:3188, H-A:ASP:366:OD2:3214, V-A:PRO:540:N:4884, V-A:TYR:539:CE1:4875, V-A:PRO:540:CA:4883, V-A:ALA:541:CB:4892, V-A:ILE:538:CA:4860, V-A:TYR:539:C:4867, V-A:GLU:543:CD:4908, V-A:GLU:543:CG:4907, H-A:ALA:541:O:4889, V-A:ILE:538:C:4858, V-A:ASP:366:CB:3211, V-A:LEU:363:CA:3184, V-B:ARG:545:CZ:9898"]

$$$$
4ae_Grossjean_2025
     RDKit          3D

 22 24  0  0  0  0  0  0  0  0999 V2000
  127.8550  129.4980   67.2140 C   0  0  0  0  0  0  0  0  0  0  0  0
  127.0720  129.6610   65.9260 C   0  0  0  0  0  0  0  0  0  0  0  0
  125.6880  129.4760   65.8830 C   0  0  0  0  0  0  0  0  0  0  0  0
  125.0350  129.6360   64.6610 C   0  0  0  0  0  0  0  0  0  0  0  0
  125.7730  129.9720   63.5230 C   0  0  0  0  0  0  0  0  0  0  0  0
  127.1550  130.1500   63.6380 C   0  0  0  0  0  0  0  0  0  0  0  0
  127.8460  130.4670   62.4550 N   0  0  0  0  0  0  0  0  0  0  0  0
  129.0080  131.1510   62.3090 C   0  0  0  0  0  0  0  0  0  0  0  0
  129.6510  131.6210   63.2490 O   0  0  0  0  0  0  0  0  0  0  0  0
  129.4720  131.3110   60.9290 C   0  0  0  0  0  0  0  0  0  0  0  0
  128.3620  131.8640   59.6740 S   0  0  0  0  0  0  0  0  0  0  0  0
  129.6050  131.7410   58.4520 C   0  0  0  0  0  0  0  0  0  0  0  0
  129.3720  132.0440   57.1750 N   0  0  0  0  0  0  0  0  0  0  0  0
  130.4190  131.9010   56.3280 C   0  0  0  0  0  0  0  0  0  0  0  0
  130.1290  132.2440   54.8780 C   0  0  0  0  0  0  0  0  0  0  0  0
  131.6840  131.4680   56.7240 C   0  0  0  0  0  0  0  0  0  0  0  0
  131.9250  131.1510   58.0660 C   0  0  0  0  0  0  0  0  0  0  0  0
  133.3200  130.6790   58.4490 C   0  0  0  0  0  0  0  0  0  0  0  0
  130.8490  131.2880   58.9840 C   0  0  0  0  0  0  0  0  0  0  0  0
  130.7470  131.0510   60.4000 C   0  0  0  0  0  0  0  0  0  0  0  0
  131.8090  130.6110   61.1490 N   0  0  0  0  0  0  0  0  0  0  0  0
  127.8020  129.9890   64.8300 N   0  0  0  0  0  0  0  0  0  0  0  0
  1  2  1  0
  2  3  2  0
  3  4  1  0
  4  5  2  0
  5  6  1  0
  6  7  1  0
  7  8  1  0
  8  9  2  0
  8 10  1  0
 10 11  1  0
 11 12  1  0
 12 13  2  0
 13 14  1  0
 14 15  1  0
 14 16  2  0
 16 17  1  0
 17 18  1  0
 17 19  2  0
 19 20  1  0
 20 21  1  0
  6 22  2  0
 22  2  1  0
 20 10  2  0
 19 12  1  0
M  END
>  <Binding energies>  (41) 
[-6.86]

>  <Ligand effiencies>  (41) 
[-0.27440000000000003]

>  <Interactions>  (41) 
["V-A:ASP:366:CG:3212, V-A:TYR:539:CD1:4873, H-A:GLU:543:OE2:4910, V-A:PRO:540:CB:4885, V-A:ILE:538:CB:4862, V-A:ILE:538:CG2:4863, V-A:LEU:363:CD1:3188, H-A:ASP:366:OD2:3214, V-A:PRO:540:N:4884, V-A:TYR:539:CE1:4875, V-A:PRO:540:CA:4883, V-A:ALA:541:CB:4892, V-A:ILE:538:CA:4860, H-A:ALA:541:N:4891, V-A:TYR:539:C:4867, V-A:GLU:543:CD:4908, V-A:GLU:543:CG:4907, H-A:ALA:541:O:4889, V-A:ILE:538:C:4858, V-A:ASP:366:CB:3211, V-A:GLU:543:CB:4906, V-B:HIS:456:CE1:9041, V-A:LEU:363:CA:3184, V-A:LEU:363:CB:3186, V-B:TYR:484:CZ:9318, V-B:TYR:484:CE2:9317, V-B:ARG:545:CZ:9898, H-A:TYR:539:N:4870"]

$$$$
4af_Grossjean_2025
     RDKit          3D

 21 23  0  0  0  0  0  0  0  0999 V2000
  130.3470  132.2360   54.9930 C   0  0  0  0  0  0  0  0  0  0  0  0
  130.5230  131.8600   56.4530 C   0  0  0  0  0  0  0  0  0  0  0  0
  131.7390  131.3710   56.9260 C   0  0  0  0  0  0  0  0  0  0  0  0
  131.8780  131.0280   58.2770 C   0  0  0  0  0  0  0  0  0  0  0  0
  133.2230  130.4980   58.7450 C   0  0  0  0  0  0  0  0  0  0  0  0
  130.7490  131.1960   59.1230 C   0  0  0  0  0  0  0  0  0  0  0  0
  130.5420  130.9480   60.5250 C   0  0  0  0  0  0  0  0  0  0  0  0
  131.5350  130.4560   61.3350 N   0  0  0  0  0  0  0  0  0  0  0  0
  129.2490  131.2560   60.9740 C   0  0  0  0  0  0  0  0  0  0  0  0
  128.6900  131.0990   62.3190 C   0  0  0  0  0  0  0  0  0  0  0  0
  129.3140  131.4870   63.3070 O   0  0  0  0  0  0  0  0  0  0  0  0
  127.4630  130.5260   62.3730 N   0  0  0  0  0  0  0  0  0  0  0  0
  126.6790  130.1930   63.4940 C   0  0  0  0  0  0  0  0  0  0  0  0
  127.1680  129.6720   64.7060 C   0  0  0  0  0  0  0  0  0  0  0  0
  126.2770  129.3670   65.7360 C   0  0  0  0  0  0  0  0  0  0  0  0
  124.9140  129.5860   65.5290 C   0  0  0  0  0  0  0  0  0  0  0  0
  124.4170  130.0800   64.3670 N   0  0  0  0  0  0  0  0  0  0  0  0
  125.2950  130.3710   63.3750 C   0  0  0  0  0  0  0  0  0  0  0  0
  128.2440  131.8630   59.6560 S   0  0  0  0  0  0  0  0  0  0  0  0
  129.5620  131.7060   58.5160 C   0  0  0  0  0  0  0  0  0  0  0  0
  129.4260  132.0340   57.2310 N   0  0  0  0  0  0  0  0  0  0  0  0
  1  2  1  0
  2  3  2  0
  3  4  1  0
  4  5  1  0
  4  6  2  0
  6  7  1  0
  7  8  1  0
  7  9  2  0
  9 10  1  0
 10 11  2  0
 10 12  1  0
 12 13  1  0
 13 14  2  0
 14 15  1  0
 15 16  2  0
 16 17  1  0
 17 18  2  0
  9 19  1  0
 19 20  1  0
 20 21  2  0
 21  2  1  0
 20  6  1  0
 18 13  1  0
M  END
>  <Binding energies>  (42) 
[-6.95]

>  <Ligand effiencies>  (42) 
[-0.28958333333333336]

>  <Interactions>  (42) 
["V-A:ASP:366:CG:3212, V-A:TYR:539:CD1:4873, H-A:GLU:543:OE2:4910, V-A:PRO:540:CB:4885, V-A:ILE:538:CB:4862, V-A:ILE:538:CG2:4863, V-A:LEU:363:CD1:3188, H-A:ASP:366:OD2:3214, V-A:PRO:540:N:4884, V-A:TYR:539:CE1:4875, V-A:PRO:540:CA:4883, V-A:ALA:541:CB:4892, V-A:ILE:538:CA:4860, V-A:TYR:539:C:4867, V-A:GLU:543:CD:4908, H-A:ALA:541:O:4889, V-A:ILE:538:C:4858, V-A:ASP:366:CB:3211, V-A:LEU:363:CA:3184, V-B:ARG:545:CZ:9898, H-A:TYR:539:N:4870, H-B:GLY:454:N:9021"]

$$$$
4ag_Grossjean_2025
     RDKit          3D

 22 24  0  0  0  0  0  0  0  0999 V2000
  133.4930  123.6490   57.7080 C   0  0  0  0  0  0  0  0  0  0  0  0
  132.9710  124.2390   59.0040 C   0  0  0  0  0  0  0  0  0  0  0  0
  131.7740  124.9520   59.0360 C   0  0  0  0  0  0  0  0  0  0  0  0
  131.3100  125.4880   60.2430 C   0  0  0  0  0  0  0  0  0  0  0  0
  129.9980  126.2580   60.2270 C   0  0  0  0  0  0  0  0  0  0  0  0
  132.0950  125.2770   61.4070 C   0  0  0  0  0  0  0  0  0  0  0  0
  131.9230  125.6750   62.7780 C   0  0  0  0  0  0  0  0  0  0  0  0
  130.8390  126.4040   63.1990 N   0  0  0  0  0  0  0  0  0  0  0  0
  132.9560  125.2550   63.6270 C   0  0  0  0  0  0  0  0  0  0  0  0
  133.0950  125.4730   65.0670 C   0  0  0  0  0  0  0  0  0  0  0  0
  133.8820  124.8090   65.7450 O   0  0  0  0  0  0  0  0  0  0  0  0
  132.3030  126.4260   65.6030 N   0  0  0  0  0  0  0  0  0  0  0  0
  132.2930  126.8280   67.0080 C   0  0  0  0  0  0  0  0  0  0  0  0
  130.9170  126.7630   67.6610 C   0  0  0  0  0  0  0  0  0  0  0  0
  130.2070  125.5590   67.6690 C   0  0  0  0  0  0  0  0  0  0  0  0
  128.9610  125.4900   68.2870 C   0  0  0  0  0  0  0  0  0  0  0  0
  128.4330  126.6220   68.9040 C   0  0  0  0  0  0  0  0  0  0  0  0
  129.1420  127.8210   68.9130 C   0  0  0  0  0  0  0  0  0  0  0  0
  130.3890  127.8900   68.2970 C   0  0  0  0  0  0  0  0  0  0  0  0
  134.1760  124.3360   62.7450 S   0  0  0  0  0  0  0  0  0  0  0  0
  133.3000  124.5290   61.2430 C   0  0  0  0  0  0  0  0  0  0  0  0
  133.7440  124.0170   60.0940 N   0  0  0  0  0  0  0  0  0  0  0  0
  1  2  1  0
  2  3  2  0
  3  4  1  0
  4  5  1  0
  4  6  2  0
  6  7  1  0
  7  8  1  0
  7  9  2  0
  9 10  1  0
 10 11  2  0
 10 12  1  0
 12 13  1  0
 13 14  1  0
 14 15  2  0
 15 16  1  0
 16 17  2  0
 17 18  1  0
 18 19  2  0
  9 20  1  0
 20 21  1  0
 21 22  2  0
 22  2  1  0
 21  6  1  0
 19 14  1  0
M  END
>  <Binding energies>  (43) 
[-7.02]

>  <Ligand effiencies>  (43) 
[-0.2808]

>  <Interactions>  (43) 
["V-A:HIS:456:CE1:4069, H-A:GLY:454:N:4049, V-A:TYR:484:CZ:4346, V-B:GLU:543:CG:9879, V-A:ARG:545:CZ:4926, V-A:ASP:366:CG:3212, H-A:TYR:484:OH:4347, V-A:GLY:453:C:4041, V-A:ARG:545:CD:4923, V-A:ARG:545:CG:4922, V-A:GLY:453:CA:4043, H-A:GLU:543:OE2:4910, V-A:GLU:543:CD:4908, H-A:GLU:543:OE1:4909, V-B:TYR:539:CE2:9848, V-A:ILE:369:CG2:3236, V-A:ASP:366:CB:3211, V-A:ILE:369:CB:3235, V-B:GLU:543:CB:9878, V-B:GLU:543:C:9874, V-A:TYR:484:CE2:4345, V-A:GLU:543:CB:4906, V-B:HIS:456:CE1:9041, V-B:TYR:539:CZ:9849, V-A:ASP:366:CA:3209, V-A:ASP:366:C:3207, V-B:GLU:543:CA:9876"]

$$$$
4ah_Grossjean_2025
     RDKit          3D

 28 30  0  0  0  0  0  0  0  0999 V2000
  122.8090  129.2740   67.0150 C   0  0  0  0  0  0  0  0  0  0  0  0
  123.4440  129.2290   65.7430 O   0  0  0  0  0  0  0  0  0  0  0  0
  124.8250  129.2780   65.6710 C   0  0  0  0  0  0  0  0  0  0  0  0
  125.6790  128.4760   66.4430 C   0  0  0  0  0  0  0  0  0  0  0  0
  127.0650  128.5810   66.3180 C   0  0  0  0  0  0  0  0  0  0  0  0
  127.9760  127.6680   67.1310 C   0  0  0  0  0  0  0  0  0  0  0  0
  128.9930  126.9900   66.3270 N   0  0  0  0  0  0  0  0  0  0  0  0
  129.6320  125.8530   66.6730 C   0  0  0  0  0  0  0  0  0  0  0  0
  129.4400  125.2830   67.7480 O   0  0  0  0  0  0  0  0  0  0  0  0
  130.6100  125.3490   65.7080 C   0  0  0  0  0  0  0  0  0  0  0  0
  132.1640  126.1610   65.5150 S   0  0  0  0  0  0  0  0  0  0  0  0
  132.6420  125.0430   64.2570 C   0  0  0  0  0  0  0  0  0  0  0  0
  133.8250  125.1280   63.6490 N   0  0  0  0  0  0  0  0  0  0  0  0
  134.0720  124.2000   62.6940 C   0  0  0  0  0  0  0  0  0  0  0  0
  135.4240  124.3170   62.0130 C   0  0  0  0  0  0  0  0  0  0  0  0
  133.1730  123.1990   62.3360 C   0  0  0  0  0  0  0  0  0  0  0  0
  131.9300  123.1130   62.9730 C   0  0  0  0  0  0  0  0  0  0  0  0
  130.9810  122.0020   62.5470 C   0  0  0  0  0  0  0  0  0  0  0  0
  131.6340  124.0710   63.9800 C   0  0  0  0  0  0  0  0  0  0  0  0
  130.4800  124.2760   64.8140 C   0  0  0  0  0  0  0  0  0  0  0  0
  129.3660  123.4790   64.7360 N   0  0  0  0  0  0  0  0  0  0  0  0
  127.6070  129.4760   65.3950 C   0  0  0  0  0  0  0  0  0  0  0  0
  126.7770  130.2950   64.6130 C   0  0  0  0  0  0  0  0  0  0  0  0
  127.2460  131.2130   63.6910 O   0  0  0  0  0  0  0  0  0  0  0  0
  128.4280  130.9200   62.9540 C   0  0  0  0  0  0  0  0  0  0  0  0
  125.3870  130.1910   64.7660 C   0  0  0  0  0  0  0  0  0  0  0  0
  124.5620  130.9740   63.9940 O   0  0  0  0  0  0  0  0  0  0  0  0
  124.1540  130.3610   62.7790 C   0  0  0  0  0  0  0  0  0  0  0  0
  1  2  1  0
  2  3  1  0
  3  4  2  0
  4  5  1  0
  5  6  1  0
  6  7  1  0
  7  8  1  0
  8  9  2  0
  8 10  1  0
 10 11  1  0
 11 12  1  0
 12 13  2  0
 13 14  1  0
 14 15  1  0
 14 16  2  0
 16 17  1  0
 17 18  1  0
 17 19  2  0
 19 20  1  0
 20 21  1  0
  5 22  2  0
 22 23  1  0
 23 24  1  0
 24 25  1  0
 23 26  2  0
 26 27  1  0
 27 28  1  0
 26  3  1  0
 20 10  2  0
 19 12  1  0
M  END
>  <Binding energies>  (44) 
[-6.91]

>  <Ligand effiencies>  (44) 
[-0.2229032258064516]

>  <Interactions>  (44) 
["H-A:GLY:454:N:4049, H-A:ARG:545:NH2:4928, V-B:GLU:543:CG:9879, V-A:ARG:545:CZ:4926, V-A:ASP:366:CG:3212, H-A:TYR:484:OH:4347, V-B:GLU:543:CD:9880, H-B:GLU:543:OE1:9881, H-B:GLU:543:OE2:9882, V-B:ALA:541:CB:9864, V-A:GLY:453:C:4041, V-A:GLY:453:CA:4043, V-B:ASP:366:CG:8184, V-A:ALA:541:CB:4892, V-B:ILE:369:CD1:8210, V-A:GLU:543:CD:4908, H-A:GLU:543:OE1:4909, V-A:GLU:543:CG:4907, H-B:ARG:545:NH2:9900, V-A:LEU:475:CD1:4257, V-A:ILE:369:CD1:3238, V-B:GLU:543:CB:9878, V-B:HIS:456:CE1:9041, V-B:GLY:454:CA:9020, V-B:ARG:545:CZ:9898, V-B:ARG:545:CG:9894, V-B:ARG:545:CD:9895, H-A:ARG:545:NH1:4927, H-B:GLY:454:N:9021, H-B:TYR:484:OH:9319, H-B:ARG:545:NE:9896, V-B:GLY:453:CA:9015, V-B:GLY:453:C:9013, H-B:ARG:545:NH1:9899, V-B:ILE:455:C:9023, V-B:GLY:454:C:9018"]

$$$$
4ai_Grossjean_2025
     RDKit          3D

 20 22  0  0  0  0  0  0  0  0999 V2000
  124.5230  129.6220   65.3560 C   0  0  0  0  0  0  0  0  0  0  0  0
  125.1510  130.4120   64.2220 C   0  0  0  0  0  0  0  0  0  0  0  0
  124.4990  131.5120   63.6680 C   0  0  0  0  0  0  0  0  0  0  0  0
  125.0990  132.2310   62.6270 C   0  0  0  0  0  0  0  0  0  0  0  0
  124.3490  133.4250   62.0570 C   0  0  0  0  0  0  0  0  0  0  0  0
  126.3740  131.7980   62.1720 C   0  0  0  0  0  0  0  0  0  0  0  0
  127.2550  132.2900   61.1480 C   0  0  0  0  0  0  0  0  0  0  0  0
  126.9410  133.3770   60.3720 N   0  0  0  0  0  0  0  0  0  0  0  0
  128.4510  131.5650   61.0270 C   0  0  0  0  0  0  0  0  0  0  0  0
  129.5570  131.7800   60.0930 C   0  0  0  0  0  0  0  0  0  0  0  0
  130.7160  131.8750   60.5010 O   0  0  0  0  0  0  0  0  0  0  0  0
  129.2070  131.8470   58.7830 N   0  0  0  0  0  0  0  0  0  0  0  0
  130.0470  132.0330   57.6930 C   0  0  0  0  0  0  0  0  0  0  0  0
  131.3740  131.6010   57.6710 C   0  0  0  0  0  0  0  0  0  0  0  0
  131.8510  131.9740   56.4360 C   0  0  0  0  0  0  0  0  0  0  0  0
  130.8640  132.5960   55.7490 O   0  0  0  0  0  0  0  0  0  0  0  0
  129.7250  132.6260   56.5550 N   0  0  0  0  0  0  0  0  0  0  0  0
  128.5010  130.2250   62.1750 S   0  0  0  0  0  0  0  0  0  0  0  0
  126.9340  130.6570   62.8220 C   0  0  0  0  0  0  0  0  0  0  0  0
  126.3650  129.9700   63.8130 N   0  0  0  0  0  0  0  0  0  0  0  0
  1  2  1  0
  2  3  2  0
  3  4  1  0
  4  5  1  0
  4  6  2  0
  6  7  1  0
  7  8  1  0
  7  9  2  0
  9 10  1  0
 10 11  2  0
 10 12  1  0
 12 13  1  0
 13 14  1  0
 14 15  2  0
 15 16  1  0
 16 17  1  0
  9 18  1  0
 18 19  1  0
 19 20  2  0
 20  2  1  0
 19  6  1  0
 17 13  2  0
M  END
>  <Binding energies>  (45) 
[-6.83]

>  <Ligand effiencies>  (45) 
[-0.29695652173913045]

>  <Interactions>  (45) 
["V-A:TYR:539:CD1:4873, V-A:PRO:540:CB:4885, V-A:LEU:363:CD1:3188, V-A:PRO:540:N:4884, V-A:TYR:539:CE1:4875, V-A:PRO:540:CA:4883, V-B:ILE:369:CG2:8208, V-B:LEU:475:CD1:9229, V-B:ILE:369:CD1:8210, H-A:ALA:541:N:4891, V-A:TYR:539:C:4867, V-A:PRO:540:CD:4887, V-A:GLU:543:CD:4908, V-B:GLY:454:CA:9020, V-B:ARG:545:CZ:9898, H-A:TYR:539:N:4870, H-A:TYR:539:O:4868"]

$$$$
4aj_Grossjean_2025
     RDKit          3D

 20 22  0  0  0  0  0  0  0  0999 V2000
  125.1380  129.3550   65.5740 C   0  0  0  0  0  0  0  0  0  0  0  0
  125.6670  130.3250   64.5330 C   0  0  0  0  0  0  0  0  0  0  0  0
  126.9910  130.2640   64.1020 C   0  0  0  0  0  0  0  0  0  0  0  0
  127.4590  131.1710   63.1450 C   0  0  0  0  0  0  0  0  0  0  0  0
  128.9120  131.0630   62.7080 C   0  0  0  0  0  0  0  0  0  0  0  0
  126.5440  132.1350   62.6420 C   0  0  0  0  0  0  0  0  0  0  0  0
  126.6840  133.1920   61.6760 C   0  0  0  0  0  0  0  0  0  0  0  0
  127.8680  133.4450   61.0330 N   0  0  0  0  0  0  0  0  0  0  0  0
  125.5050  133.9230   61.4580 C   0  0  0  0  0  0  0  0  0  0  0  0
  125.2920  135.0610   60.5610 C   0  0  0  0  0  0  0  0  0  0  0  0
  124.4950  134.9830   59.6240 O   0  0  0  0  0  0  0  0  0  0  0  0
  126.0130  136.1720   60.8500 N   0  0  0  0  0  0  0  0  0  0  0  0
  125.9880  137.3820   60.1700 C   0  0  0  0  0  0  0  0  0  0  0  0
  127.0120  138.1240   59.8040 N   0  0  0  0  0  0  0  0  0  0  0  0
  126.6200  139.2110   59.1690 C   0  0  0  0  0  0  0  0  0  0  0  0
  125.2460  139.3690   59.0080 C   0  0  0  0  0  0  0  0  0  0  0  0
  124.4340  138.0120   59.7320 S   0  0  0  0  0  0  0  0  0  0  0  0
  124.1870  133.3220   62.4660 S   0  0  0  0  0  0  0  0  0  0  0  0
  125.2150  132.0910   63.1620 C   0  0  0  0  0  0  0  0  0  0  0  0
  124.7660  131.2280   64.0740 N   0  0  0  0  0  0  0  0  0  0  0  0
  1  2  1  0
  2  3  2  0
  3  4  1  0
  4  5  1  0
  4  6  2  0
  6  7  1  0
  7  8  1  0
  7  9  2  0
  9 10  1  0
 10 11  2  0
 10 12  1  0
 12 13  1  0
 13 14  2  0
 14 15  1  0
 15 16  2  0
 16 17  1  0
  9 18  1  0
 18 19  1  0
 19 20  2  0
 20  2  1  0
 19  6  1  0
 17 13  1  0
M  END
>  <Binding energies>  (46) 
[-6.54]

>  <Ligand effiencies>  (46) 
[-0.2843478260869565]

>  <Interactions>  (46) 
["V-A:TYR:539:CD1:4873, V-B:ILE:369:CG2:8208, V-B:LEU:475:CD1:9229, V-A:ALA:541:CB:4892, V-B:ILE:369:CD1:8210, V-A:TYR:539:C:4867, V-A:GLU:543:CD:4908, V-A:GLU:543:CG:4907, V-B:GLY:454:CA:9020, V-B:ARG:545:CZ:9898, H-A:TYR:539:O:4868, V-A:TYR:539:CB:4871, V-B:PRO:482:CG:9298, V-B:LEU:373:CD1:8251, H-B:SER:385:OG:8381, V-B:SER:385:CB:8380, V-A:ILE:343:CG2:2991, V-B:HIS:383:CD2:8363, V-B:HIS:383:CE1:8365, V-A:VAL:344:CG1:3000, V-B:SER:385:CA:8378, V-B:LEU:373:CD2:8252, H-B:GLY:454:N:9021, H-B:TYR:484:OH:9319, V-A:ILE:343:CB:2990"]

$$$$
4ak_Grossjean_2025
     RDKit          3D

 25 26  0  0  0  0  0  0  0  0999 V2000
  128.8930  122.8920   63.5460 C   0  0  0  0  0  0  0  0  0  0  0  0
  128.1190  122.5320   62.4120 O   0  0  0  0  0  0  0  0  0  0  0  0
  127.2870  123.5830   61.9370 C   0  0  0  0  0  0  0  0  0  0  0  0
  125.9850  122.9930   61.3810 C   0  0  0  0  0  0  0  0  0  0  0  0
  125.9930  123.0860   59.9630 O   0  0  0  0  0  0  0  0  0  0  0  0
  124.8110  123.6560   59.4190 C   0  0  0  0  0  0  0  0  0  0  0  0
  125.1900  124.8030   58.4730 C   0  0  0  0  0  0  0  0  0  0  0  0
  125.6410  124.2640   57.2380 O   0  0  0  0  0  0  0  0  0  0  0  0
  125.2840  122.9020   57.0410 C   0  0  0  0  0  0  0  0  0  0  0  0
  126.5090  122.1250   56.5230 C   0  0  0  0  0  0  0  0  0  0  0  0
  127.7030  122.2950   57.3510 N   0  0  0  0  0  0  0  0  0  0  0  0
  128.4230  123.4300   57.4580 C   0  0  0  0  0  0  0  0  0  0  0  0
  128.1170  124.4650   56.8640 O   0  0  0  0  0  0  0  0  0  0  0  0
  129.5940  123.3690   58.3310 C   0  0  0  0  0  0  0  0  0  0  0  0
  131.0040  124.3750   58.0010 S   0  0  0  0  0  0  0  0  0  0  0  0
  131.8400  123.7430   59.4010 C   0  0  0  0  0  0  0  0  0  0  0  0
  133.0710  124.1410   59.7270 N   0  0  0  0  0  0  0  0  0  0  0  0
  133.6060  123.5710   60.8350 C   0  0  0  0  0  0  0  0  0  0  0  0
  135.0060  124.0370   61.1900 C   0  0  0  0  0  0  0  0  0  0  0  0
  132.9460  122.6240   61.6150 C   0  0  0  0  0  0  0  0  0  0  0  0
  131.6550  122.2090   61.2700 C   0  0  0  0  0  0  0  0  0  0  0  0
  130.9770  121.1700   62.1510 C   0  0  0  0  0  0  0  0  0  0  0  0
  131.0610  122.7840   60.1150 C   0  0  0  0  0  0  0  0  0  0  0  0
  129.7820  122.5930   59.4860 C   0  0  0  0  0  0  0  0  0  0  0  0
  128.8420  121.7250   59.9820 N   0  0  0  0  0  0  0  0  0  0  0  0
  1  2  1  0
  2  3  1  0
  3  4  1  0
  4  5  1  0
  5  6  1  0
  6  7  1  0
  7  8  1  0
  8  9  1  0
  9 10  1  0
 10 11  1  0
 11 12  1  0
 12 13  2  0
 12 14  1  0
 14 15  1  0
 15 16  1  0
 16 17  2  0
 17 18  1  0
 18 19  1  0
 18 20  2  0
 20 21  1  0
 21 22  1  0
 21 23  2  0
 23 24  1  0
 24 25  1  0
 24 14  2  0
 23 16  1  0
M  END
>  <Binding energies>  (47) 
[-5.7]

>  <Ligand effiencies>  (47) 
[-0.20357142857142857]

>  <Interactions>  (47) 
["V-B:GLU:543:CG:9879, H-B:ALA:541:N:9863, V-A:ASP:366:CG:3212, V-B:GLU:543:CD:9880, V-B:ALA:541:CB:9864, V-B:ASP:366:CG:8184, H-B:TYR:531:OH:9767, V-B:ASP:366:CB:8183, V-B:PRO:540:CB:9857, V-B:TYR:539:CE2:9848, V-B:PRO:540:CD:9859, V-B:PRO:540:N:9856, V-B:PRO:540:CA:9855, V-B:MET:535:CE:9807, V-B:TYR:539:CD2:9846, V-B:TYR:531:CE2:9765, V-B:TYR:539:C:9839, V-B:LEU:363:CD1:8160, V-A:LEU:475:CD1:4257, V-B:PRO:540:C:9853, V-A:ILE:369:CD1:3238, V-B:TYR:539:CZ:9849, V-B:LEU:363:CA:8156, V-A:ASP:366:CA:3209, H-B:TYR:539:O:9840"]

$$$$
4al_Grossjean_2025
     RDKit          3D

 16 17  0  0  0  0  0  0  0  0999 V2000
  131.2530  117.4210   60.9980 C   0  0  0  0  0  0  0  0  0  0  0  0
  132.0090  118.0360   59.9650 O   0  0  0  0  0  0  0  0  0  0  0  0
  133.1300  118.7460   60.2500 C   0  0  0  0  0  0  0  0  0  0  0  0
  134.2670  118.4050   59.9160 O   0  0  0  0  0  0  0  0  0  0  0  0
  132.8500  119.9840   61.0090 C   0  0  0  0  0  0  0  0  0  0  0  0
  134.1460  120.7850   61.9010 S   0  0  0  0  0  0  0  0  0  0  0  0
  133.0540  122.0350   62.4490 C   0  0  0  0  0  0  0  0  0  0  0  0
  133.4620  123.0340   63.2330 N   0  0  0  0  0  0  0  0  0  0  0  0
  132.5150  123.9380   63.5860 C   0  0  0  0  0  0  0  0  0  0  0  0
  133.0000  125.0660   64.4790 C   0  0  0  0  0  0  0  0  0  0  0  0
  131.1850  123.8680   63.1780 C   0  0  0  0  0  0  0  0  0  0  0  0
  130.7600  122.8190   62.3550 C   0  0  0  0  0  0  0  0  0  0  0  0
  129.2990  122.7840   61.9350 C   0  0  0  0  0  0  0  0  0  0  0  0
  131.7250  121.8520   61.9640 C   0  0  0  0  0  0  0  0  0  0  0  0
  131.6390  120.6740   61.1460 C   0  0  0  0  0  0  0  0  0  0  0  0
  130.4700  120.2680   60.5550 N   0  0  0  0  0  0  0  0  0  0  0  0
  1  2  1  0
  2  3  1  0
  3  4  2  0
  3  5  1  0
  5  6  1  0
  6  7  1  0
  7  8  2  0
  8  9  1  0
  9 10  1  0
  9 11  2  0
 11 12  1  0
 12 13  1  0
 12 14  2  0
 14 15  1  0
 15 16  1  0
 15  5  2  0
 14  7  1  0
M  END
>  <Binding energies>  (48) 
[-5.16]

>  <Ligand effiencies>  (48) 
[-0.2866666666666667]

>  <Interactions>  (48) 
["H-A:GLY:454:N:4049, V-A:ARG:545:CZ:4926, V-B:ALA:541:CB:9864, V-A:PRO:482:CG:4326, V-B:TYR:539:CE2:9848, V-B:TYR:539:CD2:9846, V-A:PRO:482:CB:4325, V-B:TYR:539:C:9839, V-A:GLY:454:CA:4048, V-A:ILE:369:CG2:3236, V-A:LEU:475:CD1:4257, V-A:SER:385:C:3404, V-A:ILE:369:CD1:3238, H-B:TYR:539:O:9840, V-A:HIS:383:CD2:3391, H-A:SER:385:OG:3409, H-A:HIS:383:NE2:3393, V-A:HIS:383:CE1:3392"]

$$$$
4bc_Grossjean_2025
     RDKit          3D

 26 28  0  0  0  0  0  0  0  0999 V2000
  125.3020  122.1140   56.1360 C   0  0  0  0  0  0  0  0  0  0  0  0
  126.6290  121.7210   56.4700 O   0  0  0  0  0  0  0  0  0  0  0  0
  127.2250  122.2520   57.5970 C   0  0  0  0  0  0  0  0  0  0  0  0
  128.6120  122.1350   57.6820 C   0  0  0  0  0  0  0  0  0  0  0  0
  129.3010  122.6410   58.7810 C   0  0  0  0  0  0  0  0  0  0  0  0
  128.6080  123.2800   59.8110 C   0  0  0  0  0  0  0  0  0  0  0  0
  129.3860  123.7450   60.8880 N   0  0  0  0  0  0  0  0  0  0  0  0
  129.5680  125.0130   61.3290 C   0  0  0  0  0  0  0  0  0  0  0  0
  129.0720  126.0050   60.7940 O   0  0  0  0  0  0  0  0  0  0  0  0
  130.4200  125.1510   62.5140 C   0  0  0  0  0  0  0  0  0  0  0  0
  132.1490  124.8260   62.4060 S   0  0  0  0  0  0  0  0  0  0  0  0
  132.3700  125.1930   64.1000 C   0  0  0  0  0  0  0  0  0  0  0  0
  133.5710  125.1250   64.6750 N   0  0  0  0  0  0  0  0  0  0  0  0
  133.6170  125.4290   65.9920 C   0  0  0  0  0  0  0  0  0  0  0  0
  134.9940  125.3510   66.6260 C   0  0  0  0  0  0  0  0  0  0  0  0
  132.5020  125.7960   66.7420 C   0  0  0  0  0  0  0  0  0  0  0  0
  131.2350  125.8690   66.1420 C   0  0  0  0  0  0  0  0  0  0  0  0
  130.0370  126.2740   67.0090 C   0  0  0  0  0  0  0  0  0  0  0  0
  129.1550  127.0330   66.3560 F   0  0  0  0  0  0  0  0  0  0  0  0
  129.3950  125.1840   67.4270 F   0  0  0  0  0  0  0  0  0  0  0  0
  130.4590  126.9700   68.0650 F   0  0  0  0  0  0  0  0  0  0  0  0
  131.1520  125.5550   64.7530 C   0  0  0  0  0  0  0  0  0  0  0  0
  130.0540  125.5240   63.8170 C   0  0  0  0  0  0  0  0  0  0  0  0
  128.7670  125.8350   64.1760 N   0  0  0  0  0  0  0  0  0  0  0  0
  127.2110  123.3900   59.7400 C   0  0  0  0  0  0  0  0  0  0  0  0
  126.5260  122.8830   58.6400 C   0  0  0  0  0  0  0  0  0  0  0  0
  1  2  1  0
  2  3  1  0
  3  4  2  0
  4  5  1  0
  5  6  2  0
  6  7  1  0
  7  8  1  0
  8  9  2  0
  8 10  1  0
 10 11  1  0
 11 12  1  0
 12 13  2  0
 13 14  1  0
 14 15  1  0
 14 16  2  0
 16 17  1  0
 17 18  1  0
 18 19  1  0
 18 20  1  0
 18 21  1  0
 17 22  2  0
 22 23  1  0
 23 24  1  0
  6 25  1  0
 25 26  2  0
 26  3  1  0
 23 10  2  0
 22 12  1  0
M  END
>  <Binding energies>  (49) 
[-6.5]

>  <Ligand effiencies>  (49) 
[-0.22413793103448276]

>  <Interactions>  (49) 
["V-A:HIS:456:CE1:4069, H-A:GLY:454:N:4049, H-A:ARG:545:NH2:4928, V-A:TYR:484:CZ:4346, V-B:GLU:543:CG:9879, V-A:ILE:455:C:4051, V-A:ARG:545:CZ:4926, H-A:TYR:484:OH:4347, V-B:GLU:543:CD:9880, H-B:GLU:543:OE1:9881, H-B:GLU:543:OE2:9882, H-A:ARG:545:NE:4924, V-A:GLY:453:C:4041, V-A:ARG:545:CD:4923, V-A:ARG:545:CG:4922, V-A:GLY:453:CA:4043, V-A:GLU:543:CD:4908, V-B:PRO:540:CB:9857, V-B:TYR:539:CE2:9848, V-B:PRO:540:CD:9859, V-B:PRO:540:N:9856, V-B:PRO:540:CA:9855, V-B:MET:535:CE:9807, V-B:TYR:539:CD2:9846, V-B:TYR:539:C:9839, V-B:LEU:363:CD1:8160, V-A:GLY:454:CA:4048, V-B:GLU:543:CB:9878, V-A:TYR:484:CE2:4345, V-A:GLU:543:CB:4906, V-B:TYR:539:CG:9844, V-B:TYR:539:CZ:9849, V-B:TYR:539:CE1:9847, V-B:TYR:539:CD1:9845, V-B:ILE:538:CG2:9835, H-B:TYR:539:N:9842, V-B:GLU:543:CA:9876"]

$$$$
4bf_Grossjean_2025
     RDKit          3D

 24 26  0  0  0  0  0  0  0  0999 V2000
  124.5260  129.6070   65.6070 C   0  0  0  0  0  0  0  0  0  0  0  0
  125.1920  130.3890   64.4880 C   0  0  0  0  0  0  0  0  0  0  0  0
  124.5520  131.4690   63.8890 C   0  0  0  0  0  0  0  0  0  0  0  0
  125.1770  132.1810   62.8530 C   0  0  0  0  0  0  0  0  0  0  0  0
  124.4320  133.3620   62.2220 C   0  0  0  0  0  0  0  0  0  0  0  0
  125.1820  134.4630   62.1300 F   0  0  0  0  0  0  0  0  0  0  0  0
  124.0410  133.0420   60.9880 F   0  0  0  0  0  0  0  0  0  0  0  0
  123.3640  133.6680   62.9580 F   0  0  0  0  0  0  0  0  0  0  0  0
  126.4770  131.7470   62.4550 C   0  0  0  0  0  0  0  0  0  0  0  0
  127.4050  132.2160   61.4560 C   0  0  0  0  0  0  0  0  0  0  0  0
  127.1360  133.2870   60.6420 N   0  0  0  0  0  0  0  0  0  0  0  0
  128.6020  131.4830   61.3940 C   0  0  0  0  0  0  0  0  0  0  0  0
  129.7370  131.6630   60.4840 C   0  0  0  0  0  0  0  0  0  0  0  0
  130.8690  131.8650   60.9260 O   0  0  0  0  0  0  0  0  0  0  0  0
  129.4430  131.5750   59.1640 N   0  0  0  0  0  0  0  0  0  0  0  0
  130.2810  131.7460   58.0460 C   0  0  0  0  0  0  0  0  0  0  0  0
  131.6490  131.4260   57.9960 C   0  0  0  0  0  0  0  0  0  0  0  0
  132.3720  131.6600   56.8240 C   0  0  0  0  0  0  0  0  0  0  0  0
  131.7080  132.2140   55.7300 C   0  0  0  0  0  0  0  0  0  0  0  0
  130.3910  132.5380   55.7540 N   0  0  0  0  0  0  0  0  0  0  0  0
  129.7020  132.3050   56.9000 C   0  0  0  0  0  0  0  0  0  0  0  0
  128.6120  130.1790   62.5790 S   0  0  0  0  0  0  0  0  0  0  0  0
  127.0220  130.6240   63.1520 C   0  0  0  0  0  0  0  0  0  0  0  0
  126.4240  129.9530   64.1350 N   0  0  0  0  0  0  0  0  0  0  0  0
  1  2  1  0
  2  3  2  0
  3  4  1  0
  4  5  1  0
  5  6  1  0
  5  7  1  0
  5  8  1  0
  4  9  2  0
  9 10  1  0
 10 11  1  0
 10 12  2  0
 12 13  1  0
 13 14  2  0
 13 15  1  0
 15 16  1  0
 16 17  2  0
 17 18  1  0
 18 19  2  0
 19 20  1  0
 20 21  2  0
 12 22  1  0
 22 23  1  0
 23 24  2  0
 24  2  1  0
 23  9  1  0
 21 16  1  0
M  END
>  <Binding energies>  (50) 
[-6.56]

>  <Ligand effiencies>  (50) 
[-0.24296296296296294]

>  <Interactions>  (50) 
["V-A:TYR:539:CD1:4873, V-A:PRO:540:CB:4885, V-A:ILE:538:CB:4862, V-A:ILE:538:CG2:4863, V-A:LEU:363:CD1:3188, V-A:PRO:540:N:4884, V-A:TYR:539:CE1:4875, V-A:PRO:540:CA:4883, V-B:ILE:369:CG2:8208, V-B:LEU:475:CD1:9229, V-A:ALA:541:CB:4892, V-B:ILE:369:CD1:8210, V-B:ILE:369:CB:8207, H-A:ALA:541:N:4891, V-B:ILE:369:CG1:8209, V-A:TYR:539:C:4867, V-A:PRO:540:CD:4887, V-A:GLU:543:CD:4908, V-B:GLY:454:CA:9020, V-B:ARG:545:CZ:9898, H-A:TYR:539:N:4870, H-A:TYR:539:O:4868, V-A:TYR:539:CA:4869, V-B:SER:385:C:8376"]

$$$$
4bh_Grossjean_2025
     RDKit          3D

 31 33  0  0  0  0  0  0  0  0999 V2000
  125.6090  121.8450   55.7290 C   0  0  0  0  0  0  0  0  0  0  0  0
  126.4100  121.6650   56.8910 O   0  0  0  0  0  0  0  0  0  0  0  0
  127.1720  122.7190   57.3610 C   0  0  0  0  0  0  0  0  0  0  0  0
  128.5480  122.6350   57.6260 C   0  0  0  0  0  0  0  0  0  0  0  0
  129.2550  123.7400   58.1020 C   0  0  0  0  0  0  0  0  0  0  0  0
  130.7570  123.6420   58.3400 C   0  0  0  0  0  0  0  0  0  0  0  0
  131.1520  123.9620   59.7120 N   0  0  0  0  0  0  0  0  0  0  0  0
  131.0920  125.1850   60.2790 C   0  0  0  0  0  0  0  0  0  0  0  0
  130.7220  126.1840   59.6590 O   0  0  0  0  0  0  0  0  0  0  0  0
  131.5350  125.2720   61.6700 C   0  0  0  0  0  0  0  0  0  0  0  0
  133.2290  125.0080   62.0730 S   0  0  0  0  0  0  0  0  0  0  0  0
  132.9020  125.2260   63.7770 C   0  0  0  0  0  0  0  0  0  0  0  0
  133.8720  125.1440   64.6870 N   0  0  0  0  0  0  0  0  0  0  0  0
  133.4970  125.3340   65.9730 C   0  0  0  0  0  0  0  0  0  0  0  0
  134.6160  125.2340   66.9940 C   0  0  0  0  0  0  0  0  0  0  0  0
  132.1890  125.6030   66.3670 C   0  0  0  0  0  0  0  0  0  0  0  0
  131.1620  125.6890   65.4130 C   0  0  0  0  0  0  0  0  0  0  0  0
  129.7390  125.9900   65.8940 C   0  0  0  0  0  0  0  0  0  0  0  0
  129.0390  126.7260   65.0280 F   0  0  0  0  0  0  0  0  0  0  0  0
  129.0740  124.8500   66.0760 F   0  0  0  0  0  0  0  0  0  0  0  0
  129.7850  126.6620   67.0450 F   0  0  0  0  0  0  0  0  0  0  0  0
  131.5230  125.4910   64.0480 C   0  0  0  0  0  0  0  0  0  0  0  0
  130.7640  125.4970   62.8210 C   0  0  0  0  0  0  0  0  0  0  0  0
  129.4110  125.7130   62.7860 N   0  0  0  0  0  0  0  0  0  0  0  0
  128.5890  124.9530   58.2890 C   0  0  0  0  0  0  0  0  0  0  0  0
  127.2130  125.0650   58.0400 C   0  0  0  0  0  0  0  0  0  0  0  0
  126.4880  126.2290   58.2180 O   0  0  0  0  0  0  0  0  0  0  0  0
  126.5040  126.8740   59.4870 C   0  0  0  0  0  0  0  0  0  0  0  0
  126.5140  123.9380   57.5820 C   0  0  0  0  0  0  0  0  0  0  0  0
  125.1690  124.0380   57.3160 O   0  0  0  0  0  0  0  0  0  0  0  0
  124.3590  124.1670   58.4770 C   0  0  0  0  0  0  0  0  0  0  0  0
  1  2  1  0
  2  3  1  0
  3  4  2  0
  4  5  1  0
  5  6  1  0
  6  7  1  0
  7  8  1  0
  8  9  2  0
  8 10  1  0
 10 11  1  0
 11 12  1  0
 12 13  2  0
 13 14  1  0
 14 15  1  0
 14 16  2  0
 16 17  1  0
 17 18  1  0
 18 19  1  0
 18 20  1  0
 18 21  1  0
 17 22  2  0
 22 23  1  0
 23 24  1  0
  5 25  2  0
 25 26  1  0
 26 27  1  0
 27 28  1  0
 26 29  2  0
 29 30  1  0
 30 31  1  0
 29  3  1  0
 23 10  2  0
 22 12  1  0
M  END
>  <Binding energies>  (51) 
[-5.91]

>  <Ligand effiencies>  (51) 
[-0.1738235294117647]

>  <Interactions>  (51) 
["H-A:GLY:454:N:4049, H-A:ARG:545:NH2:4928, V-A:TYR:484:CZ:4346, V-B:GLU:543:CG:9879, V-A:ILE:455:C:4051, V-A:ARG:545:CZ:4926, V-A:ASP:366:CG:3212, H-A:TYR:484:OH:4347, V-B:GLU:543:CD:9880, H-B:GLU:543:OE2:9882, H-A:ARG:545:NE:4924, V-A:GLY:453:C:4041, V-A:ARG:545:CD:4923, V-A:ARG:545:CG:4922, V-B:ASP:366:CG:8184, H-B:TYR:531:OH:9767, V-B:ASP:366:CB:8183, V-A:GLU:543:CD:4908, V-B:PRO:540:CB:9857, V-B:TYR:539:CE2:9848, V-B:PRO:540:CD:9859, V-B:PRO:540:N:9856, V-B:PRO:540:CA:9855, V-B:MET:535:CE:9807, V-B:TYR:539:CD2:9846, V-B:TYR:531:CE2:9765, V-B:TYR:539:C:9839, V-B:LEU:363:CD1:8160, V-A:GLY:454:CA:4048, V-B:GLU:543:CB:9878, V-A:TYR:484:CE2:4345, V-B:TYR:539:CG:9844, V-B:TYR:539:CZ:9849, V-B:LEU:363:CA:8156, V-B:LEU:363:CB:8158, V-B:ILE:538:CG2:9835, H-A:ARG:545:NH1:4927, H-B:TYR:539:N:9842, V-B:ILE:538:CA:9832"]

$$$$
4bi_Grossjean_2025
     RDKit          3D

 23 25  0  0  0  0  0  0  0  0999 V2000
  124.8600  129.6440   65.5160 C   0  0  0  0  0  0  0  0  0  0  0  0
  125.4460  130.4330   64.3590 C   0  0  0  0  0  0  0  0  0  0  0  0
  124.7580  131.5090   63.8030 C   0  0  0  0  0  0  0  0  0  0  0  0
  125.3140  132.2330   62.7360 C   0  0  0  0  0  0  0  0  0  0  0  0
  124.5240  133.4140   62.1630 C   0  0  0  0  0  0  0  0  0  0  0  0
  125.2300  134.5470   62.1270 F   0  0  0  0  0  0  0  0  0  0  0  0
  124.1450  133.1420   60.9150 F   0  0  0  0  0  0  0  0  0  0  0  0
  123.4440  133.6410   62.9120 F   0  0  0  0  0  0  0  0  0  0  0  0
  126.5920  131.8140   62.2590 C   0  0  0  0  0  0  0  0  0  0  0  0
  127.4520  132.2960   61.2060 C   0  0  0  0  0  0  0  0  0  0  0  0
  127.1210  133.3590   60.4060 N   0  0  0  0  0  0  0  0  0  0  0  0
  128.6580  131.5860   61.0800 C   0  0  0  0  0  0  0  0  0  0  0  0
  129.7450  131.7950   60.1200 C   0  0  0  0  0  0  0  0  0  0  0  0
  130.9150  131.8740   60.5000 O   0  0  0  0  0  0  0  0  0  0  0  0
  129.3670  131.8720   58.8200 N   0  0  0  0  0  0  0  0  0  0  0  0
  130.1830  132.0530   57.7100 C   0  0  0  0  0  0  0  0  0  0  0  0
  131.4890  131.5720   57.6400 C   0  0  0  0  0  0  0  0  0  0  0  0
  131.9450  131.9540   56.3990 C   0  0  0  0  0  0  0  0  0  0  0  0
  130.9630  132.6300   55.7550 O   0  0  0  0  0  0  0  0  0  0  0  0
  129.8510  132.6860   56.5980 N   0  0  0  0  0  0  0  0  0  0  0  0
  128.7520  130.2750   62.2540 S   0  0  0  0  0  0  0  0  0  0  0  0
  127.1900  130.6950   62.9160 C   0  0  0  0  0  0  0  0  0  0  0  0
  126.6580  130.0130   63.9300 N   0  0  0  0  0  0  0  0  0  0  0  0
  1  2  1  0
  2  3  2  0
  3  4  1  0
  4  5  1  0
  5  6  1  0
  5  7  1  0
  5  8  1  0
  4  9  2  0
  9 10  1  0
 10 11  1  0
 10 12  2  0
 12 13  1  0
 13 14  2  0
 13 15  1  0
 15 16  1  0
 16 17  1  0
 17 18  2  0
 18 19  1  0
 19 20  1  0
 12 21  1  0
 21 22  1  0
 22 23  2  0
 23  2  1  0
 22  9  1  0
 20 16  2  0
M  END
>  <Binding energies>  (52) 
[-6.52]

>  <Ligand effiencies>  (52) 
[-0.25076923076923074]

>  <Interactions>  (52) 
["V-A:TYR:539:CD1:4873, V-A:PRO:540:CB:4885, V-A:LEU:363:CD1:3188, V-A:PRO:540:N:4884, V-A:TYR:539:CE1:4875, V-A:PRO:540:CA:4883, V-B:ILE:369:CG2:8208, V-B:LEU:475:CD1:9229, V-B:ILE:369:CD1:8210, V-B:ILE:369:CB:8207, H-A:ALA:541:N:4891, V-B:ILE:369:CG1:8209, V-A:TYR:539:C:4867, V-A:PRO:540:CD:4887, V-A:GLU:543:CD:4908, V-B:GLY:454:CA:9020, V-B:ARG:545:CZ:9898, H-A:TYR:539:N:4870, H-A:TYR:539:O:4868, V-B:SER:385:C:8376"]

$$$$
4bj_Grossjean_2025
     RDKit          3D

 23 25  0  0  0  0  0  0  0  0999 V2000
  124.5160  129.6300   65.3920 C   0  0  0  0  0  0  0  0  0  0  0  0
  125.1920  130.4300   64.2930 C   0  0  0  0  0  0  0  0  0  0  0  0
  124.5740  131.5460   63.7340 C   0  0  0  0  0  0  0  0  0  0  0  0
  125.2080  132.2730   62.7140 C   0  0  0  0  0  0  0  0  0  0  0  0
  124.4870  133.4920   62.1280 C   0  0  0  0  0  0  0  0  0  0  0  0
  125.2440  134.5910   62.1180 F   0  0  0  0  0  0  0  0  0  0  0  0
  124.1280  133.2420   60.8690 F   0  0  0  0  0  0  0  0  0  0  0  0
  123.3990  133.7620   62.8510 F   0  0  0  0  0  0  0  0  0  0  0  0
  126.4920  131.8190   62.2910 C   0  0  0  0  0  0  0  0  0  0  0  0
  127.4220  132.2930   61.2940 C   0  0  0  0  0  0  0  0  0  0  0  0
  127.1690  133.3870   60.5060 N   0  0  0  0  0  0  0  0  0  0  0  0
  128.6050  131.5420   61.2100 C   0  0  0  0  0  0  0  0  0  0  0  0
  129.7460  131.7340   60.3120 C   0  0  0  0  0  0  0  0  0  0  0  0
  130.8870  131.8650   60.7610 O   0  0  0  0  0  0  0  0  0  0  0  0
  129.4520  131.7410   58.9890 N   0  0  0  0  0  0  0  0  0  0  0  0
  130.3440  131.8920   57.9370 C   0  0  0  0  0  0  0  0  0  0  0  0
  130.2000  132.6250   56.8540 N   0  0  0  0  0  0  0  0  0  0  0  0
  131.2520  132.5380   56.0650 C   0  0  0  0  0  0  0  0  0  0  0  0
  132.2850  131.7170   56.5060 C   0  0  0  0  0  0  0  0  0  0  0  0
  131.8420  131.0230   58.0380 S   0  0  0  0  0  0  0  0  0  0  0  0
  128.5940  130.2030   62.3550 S   0  0  0  0  0  0  0  0  0  0  0  0
  127.0160  130.6640   62.9490 C   0  0  0  0  0  0  0  0  0  0  0  0
  126.4100  129.9760   63.9160 N   0  0  0  0  0  0  0  0  0  0  0  0
  1  2  1  0
  2  3  2  0
  3  4  1  0
  4  5  1  0
  5  6  1  0
  5  7  1  0
  5  8  1  0
  4  9  2  0
  9 10  1  0
 10 11  1  0
 10 12  2  0
 12 13  1  0
 13 14  2  0
 13 15  1  0
 15 16  1  0
 16 17  2  0
 17 18  1  0
 18 19  2  0
 19 20  1  0
 12 21  1  0
 21 22  1  0
 22 23  2  0
 23  2  1  0
 22  9  1  0
 20 16  1  0
M  END
>  <Binding energies>  (53) 
[-6.12]

>  <Ligand effiencies>  (53) 
[-0.2353846153846154]

>  <Interactions>  (53) 
["V-A:TYR:539:CD1:4873, V-A:PRO:540:CB:4885, V-A:ILE:538:CB:4862, V-A:ILE:538:CG2:4863, V-A:LEU:363:CD1:3188, V-A:PRO:540:N:4884, V-A:TYR:539:CE1:4875, V-A:PRO:540:CA:4883, V-B:ILE:369:CG2:8208, V-B:LEU:475:CD1:9229, V-B:ILE:369:CD1:8210, V-B:ILE:369:CB:8207, V-A:ILE:538:CA:4860, H-A:ALA:541:N:4891, V-B:ILE:369:CG1:8209, V-A:TYR:539:C:4867, V-A:PRO:540:CD:4887, V-A:GLU:543:CD:4908, V-B:GLY:454:CA:9020, V-B:ARG:545:CZ:9898, H-A:TYR:539:N:4870, H-A:TYR:539:O:4868, V-B:SER:385:C:8376"]

$$$$
4bk_Grossjean_2025
     RDKit          3D

 28 29  0  0  0  0  0  0  0  0999 V2000
  130.6280  124.3300   58.0370 C   0  0  0  0  0  0  0  0  0  0  0  0
  129.4530  123.6020   58.3610 O   0  0  0  0  0  0  0  0  0  0  0  0
  128.6830  123.2360   57.2230 C   0  0  0  0  0  0  0  0  0  0  0  0
  127.7000  122.1240   57.6070 C   0  0  0  0  0  0  0  0  0  0  0  0
  127.0010  121.6900   56.4480 O   0  0  0  0  0  0  0  0  0  0  0  0
  125.7440  122.3270   56.2640 C   0  0  0  0  0  0  0  0  0  0  0  0
  125.2920  122.9560   57.5880 C   0  0  0  0  0  0  0  0  0  0  0  0
  125.4030  124.3700   57.4980 O   0  0  0  0  0  0  0  0  0  0  0  0
  125.5090  125.0200   58.7590 C   0  0  0  0  0  0  0  0  0  0  0  0
  125.7870  123.9720   59.8510 C   0  0  0  0  0  0  0  0  0  0  0  0
  127.2110  123.7690   60.1220 N   0  0  0  0  0  0  0  0  0  0  0  0
  127.7140  123.0710   61.1610 C   0  0  0  0  0  0  0  0  0  0  0  0
  126.9960  122.5080   61.9890 O   0  0  0  0  0  0  0  0  0  0  0  0
  129.1740  123.0090   61.2480 C   0  0  0  0  0  0  0  0  0  0  0  0
  130.0970  124.4520   61.6610 S   0  0  0  0  0  0  0  0  0  0  0  0
  131.6010  123.5660   61.5820 C   0  0  0  0  0  0  0  0  0  0  0  0
  132.7710  124.1590   61.8170 N   0  0  0  0  0  0  0  0  0  0  0  0
  133.8660  123.3700   61.7280 C   0  0  0  0  0  0  0  0  0  0  0  0
  135.1870  124.0660   62.0010 C   0  0  0  0  0  0  0  0  0  0  0  0
  133.8200  122.0140   61.4120 C   0  0  0  0  0  0  0  0  0  0  0  0
  132.5910  121.3830   61.1630 C   0  0  0  0  0  0  0  0  0  0  0  0
  132.5910  119.8910   60.8160 C   0  0  0  0  0  0  0  0  0  0  0  0
  133.7830  119.3150   60.9880 F   0  0  0  0  0  0  0  0  0  0  0  0
  131.7200  119.2470   61.5930 F   0  0  0  0  0  0  0  0  0  0  0  0
  132.2490  119.7240   59.5390 F   0  0  0  0  0  0  0  0  0  0  0  0
  131.4160  122.1870   61.2500 C   0  0  0  0  0  0  0  0  0  0  0  0
  130.0140  121.9000   61.0690 C   0  0  0  0  0  0  0  0  0  0  0  0
  129.5490  120.6510   60.7480 N   0  0  0  0  0  0  0  0  0  0  0  0
  1  2  1  0
  2  3  1  0
  3  4  1  0
  4  5  1  0
  5  6  1  0
  6  7  1  0
  7  8  1  0
  8  9  1  0
  9 10  1  0
 10 11  1  0
 11 12  1  0
 12 13  2  0
 12 14  1  0
 14 15  1  0
 15 16  1  0
 16 17  2  0
 17 18  1  0
 18 19  1  0
 18 20  2  0
 20 21  1  0
 21 22  1  0
 22 23  1  0
 22 24  1  0
 22 25  1  0
 21 26  2  0
 26 27  1  0
 27 28  1  0
 27 14  2  0
 26 16  1  0
M  END
>  <Binding energies>  (54) 
[-5.73]

>  <Ligand effiencies>  (54) 
[-0.18483870967741936]

>  <Interactions>  (54) 
["H-B:ALA:541:N:9863, V-A:ASP:366:CG:3212, V-B:ALA:541:CB:9864, V-A:GLY:453:C:4041, V-A:GLY:453:CA:4043, V-B:ASP:366:CG:8184, H-B:TYR:531:OH:9767, V-B:ASP:366:CB:8183, V-B:PRO:540:CB:9857, V-B:TYR:539:CE2:9848, V-B:PRO:540:CD:9859, V-B:PRO:540:N:9856, V-B:PRO:540:CA:9855, V-B:MET:535:CE:9807, V-B:TYR:539:CA:9841, V-B:TYR:539:CD2:9846, V-B:TYR:539:C:9839, V-B:LEU:363:CD1:8160, V-A:ILE:369:CG2:3236, V-A:LEU:475:CD1:4257, V-B:PRO:540:C:9853, V-A:SER:385:C:3404, V-A:ILE:369:CD1:3238, V-A:SER:385:CA:3406, V-B:TYR:539:CG:9844, V-B:TYR:539:CZ:9849, V-B:TYR:539:CE1:9847, H-B:TYR:539:O:9840, H-B:TYR:539:N:9842"]

$$$$
4cd_Grossjean_2025
     RDKit          3D

 29 32  0  0  0  0  0  0  0  0999 V2000
  128.8050  129.1320   63.2210 N   0  0  0  0  0  0  0  0  0  0  0  0
  127.8750  130.0940   63.5230 C   0  0  0  0  0  0  0  0  0  0  0  0
  127.0740  130.0540   64.6760 C   0  0  0  0  0  0  0  0  0  0  0  0
  127.0410  129.0370   65.7310 C   0  0  0  0  0  0  0  0  0  0  0  0
  126.0460  128.3300   65.8900 O   0  0  0  0  0  0  0  0  0  0  0  0
  128.1650  128.9420   66.4820 N   0  0  0  0  0  0  0  0  0  0  0  0
  128.4370  128.1180   67.5900 C   0  0  0  0  0  0  0  0  0  0  0  0
  128.9870  128.7540   68.7060 C   0  0  0  0  0  0  0  0  0  0  0  0
  129.2780  128.0260   69.8560 C   0  0  0  0  0  0  0  0  0  0  0  0
  129.0130  126.6600   69.8940 C   0  0  0  0  0  0  0  0  0  0  0  0
  128.4530  126.0160   68.7940 C   0  0  0  0  0  0  0  0  0  0  0  0
  128.1600  126.7410   67.6410 C   0  0  0  0  0  0  0  0  0  0  0  0
  126.0010  131.4510   64.7530 S   0  0  0  0  0  0  0  0  0  0  0  0
  126.6240  132.0690   63.2420 C   0  0  0  0  0  0  0  0  0  0  0  0
  126.1680  133.2030   62.7140 N   0  0  0  0  0  0  0  0  0  0  0  0
  126.7040  133.5960   61.5290 C   0  0  0  0  0  0  0  0  0  0  0  0
  126.1670  134.8760   60.9580 C   0  0  0  0  0  0  0  0  0  0  0  0
  124.8600  134.9430   60.4490 C   0  0  0  0  0  0  0  0  0  0  0  0
  124.3550  136.1270   59.9170 C   0  0  0  0  0  0  0  0  0  0  0  0
  125.1540  137.2650   59.8880 C   0  0  0  0  0  0  0  0  0  0  0  0
  126.4500  137.2270   60.3880 C   0  0  0  0  0  0  0  0  0  0  0  0
  126.9500  136.0430   60.9200 C   0  0  0  0  0  0  0  0  0  0  0  0
  127.7080  132.8620   60.8920 C   0  0  0  0  0  0  0  0  0  0  0  0
  128.2000  131.6670   61.4430 C   0  0  0  0  0  0  0  0  0  0  0  0
  129.2990  130.9100   60.6880 C   0  0  0  0  0  0  0  0  0  0  0  0
  128.9540  129.6580   60.3770 F   0  0  0  0  0  0  0  0  0  0  0  0
  129.5820  131.5410   59.5490 F   0  0  0  0  0  0  0  0  0  0  0  0
  130.3980  130.8440   61.4400 F   0  0  0  0  0  0  0  0  0  0  0  0
  127.6360  131.2380   62.6780 C   0  0  0  0  0  0  0  0  0  0  0  0
  1  2  1  0
  2  3  2  0
  3  4  1  0
  4  5  2  0
  4  6  1  0
  6  7  1  0
  7  8  2  0
  8  9  1  0
  9 10  2  0
 10 11  1  0
 11 12  2  0
  3 13  1  0
 13 14  1  0
 14 15  2  0
 15 16  1  0
 16 17  1  0
 17 18  2  0
 18 19  1  0
 19 20  2  0
 20 21  1  0
 21 22  2  0
 16 23  2  0
 23 24  1  0
 24 25  1  0
 25 26  1  0
 25 27  1  0
 25 28  1  0
 24 29  2  0
 29  2  1  0
 12  7  1  0
 29 14  1  0
 22 17  1  0
M  END
>  <Binding energies>  (55) 
[-7.7]

>  <Ligand effiencies>  (55) 
[-0.240625]

>  <Interactions>  (55) 
["V-A:GLU:543:C:4902, V-A:HIS:456:CE1:4069, V-B:GLU:543:CD:9880, V-A:TYR:539:CD1:4873, H-A:GLU:543:OE2:4910, V-A:PRO:540:CA:4883, V-B:ILE:369:CG2:8208, V-B:LEU:475:CD1:9229, V-A:ALA:541:CB:4892, V-A:TYR:539:C:4867, V-A:GLU:543:CD:4908, H-A:GLU:543:OE1:4909, V-A:GLU:543:CG:4907, H-B:ARG:545:NH2:9900, V-B:GLU:543:CB:9878, V-B:GLU:543:C:9874, V-A:GLU:543:CB:4906, V-B:HIS:456:CE1:9041, V-B:TYR:484:CZ:9318, V-B:PRO:482:CB:9297, V-A:TYR:539:CB:4871, V-B:PRO:482:CG:9298, V-B:LEU:373:CD1:8251, V-B:SER:385:CB:8380, V-B:SER:385:CA:8378, H-B:ARG:545:NE:9896, V-B:GLU:543:CA:9876"]

$$$$
4cg_Grossjean_2025
     RDKit          3D

 30 33  0  0  0  0  0  0  0  0999 V2000
  128.0140  127.8830   64.3310 N   0  0  0  0  0  0  0  0  0  0  0  0
  128.3450  128.7140   63.2920 C   0  0  0  0  0  0  0  0  0  0  0  0
  129.3650  128.4270   62.3740 C   0  0  0  0  0  0  0  0  0  0  0  0
  130.2110  127.2360   62.2930 C   0  0  0  0  0  0  0  0  0  0  0  0
  130.4460  126.6870   61.2150 O   0  0  0  0  0  0  0  0  0  0  0  0
  130.6770  126.7610   63.4670 N   0  0  0  0  0  0  0  0  0  0  0  0
  131.5540  125.6020   63.6240 C   0  0  0  0  0  0  0  0  0  0  0  0
  132.2600  125.5540   64.9740 C   0  0  0  0  0  0  0  0  0  0  0  0
  133.5960  125.1470   65.0450 C   0  0  0  0  0  0  0  0  0  0  0  0
  134.2540  125.1320   66.2720 C   0  0  0  0  0  0  0  0  0  0  0  0
  133.5780  125.5330   67.4220 C   0  0  0  0  0  0  0  0  0  0  0  0
  132.2520  125.9550   67.3550 C   0  0  0  0  0  0  0  0  0  0  0  0
  131.5940  125.9720   66.1290 C   0  0  0  0  0  0  0  0  0  0  0  0
  129.5110  129.6930   61.1580 S   0  0  0  0  0  0  0  0  0  0  0  0
  128.2210  130.6110   61.9010 C   0  0  0  0  0  0  0  0  0  0  0  0
  127.8250  131.7780   61.4030 N   0  0  0  0  0  0  0  0  0  0  0  0
  126.8120  132.4180   62.0440 C   0  0  0  0  0  0  0  0  0  0  0  0
  126.3890  133.7350   61.4580 C   0  0  0  0  0  0  0  0  0  0  0  0
  125.1630  133.8630   60.7840 C   0  0  0  0  0  0  0  0  0  0  0  0
  124.7670  135.0800   60.2380 C   0  0  0  0  0  0  0  0  0  0  0  0
  125.5950  136.1930   60.3570 C   0  0  0  0  0  0  0  0  0  0  0  0
  126.8150  136.0930   61.0170 C   0  0  0  0  0  0  0  0  0  0  0  0
  127.2070  134.8740   61.5610 C   0  0  0  0  0  0  0  0  0  0  0  0
  126.2160  131.8880   63.1950 C   0  0  0  0  0  0  0  0  0  0  0  0
  126.6270  130.6570   63.7290 C   0  0  0  0  0  0  0  0  0  0  0  0
  125.9320  130.1360   64.9920 C   0  0  0  0  0  0  0  0  0  0  0  0
  125.5880  128.8490   64.9070 F   0  0  0  0  0  0  0  0  0  0  0  0
  126.7460  130.2630   66.0400 F   0  0  0  0  0  0  0  0  0  0  0  0
  124.8180  130.8320   65.2140 F   0  0  0  0  0  0  0  0  0  0  0  0
  127.6790  129.9720   63.0550 C   0  0  0  0  0  0  0  0  0  0  0  0
  1  2  1  0
  2  3  2  0
  3  4  1  0
  4  5  2  0
  4  6  1  0
  6  7  1  0
  7  8  1  0
  8  9  2  0
  9 10  1  0
 10 11  2  0
 11 12  1  0
 12 13  2  0
  3 14  1  0
 14 15  1  0
 15 16  2  0
 16 17  1  0
 17 18  1  0
 18 19  2  0
 19 20  1  0
 20 21  2  0
 21 22  1  0
 22 23  2  0
 17 24  2  0
 24 25  1  0
 25 26  1  0
 26 27  1  0
 26 28  1  0
 26 29  1  0
 25 30  2  0
 30  2  1  0
 13  8  1  0
 30 15  1  0
 23 18  1  0
M  END
>  <Binding energies>  (56) 
[-7.94]

>  <Ligand effiencies>  (56) 
[-0.24060606060606063]

>  <Interactions>  (56) 
["V-A:HIS:456:CE1:4069, V-A:TYR:484:CZ:4346, V-A:ARG:545:CZ:4926, H-B:GLU:543:OE2:9882, V-A:GLY:453:C:4041, V-A:ARG:545:CD:4923, V-A:ARG:545:CG:4922, V-A:GLY:453:CA:4043, V-A:TYR:539:CD1:4873, H-A:GLU:543:OE2:4910, V-A:TYR:539:CE1:4875, V-B:ILE:369:CG2:8208, V-B:LEU:475:CD1:9229, V-A:ALA:541:CB:4892, V-A:GLU:543:CD:4908, H-A:GLU:543:OE1:4909, V-A:GLY:454:CA:4048, V-B:TYR:484:CZ:9318, V-B:GLY:454:CA:9020, V-B:TYR:484:CE2:9317, V-B:ARG:545:CZ:9898, V-B:PRO:482:CB:9297, V-A:TYR:539:CB:4871, V-B:PRO:482:CG:9298, V-B:LEU:373:CD1:8251, V-B:SER:385:CB:8380"]

$$$$
4ch_Grossjean_2025
     RDKit          3D

 36 39  0  0  0  0  0  0  0  0999 V2000
  133.8170  120.9990   61.5670 C   0  0  0  0  0  0  0  0  0  0  0  0
  132.5350  121.2490   61.0000 O   0  0  0  0  0  0  0  0  0  0  0  0
  131.6900  122.1590   61.6080 C   0  0  0  0  0  0  0  0  0  0  0  0
  132.1280  123.3330   62.2420 C   0  0  0  0  0  0  0  0  0  0  0  0
  131.2170  124.2090   62.8350 C   0  0  0  0  0  0  0  0  0  0  0  0
  131.7130  125.4650   63.5430 C   0  0  0  0  0  0  0  0  0  0  0  0
  130.8350  126.6250   63.3930 N   0  0  0  0  0  0  0  0  0  0  0  0
  130.4640  127.1830   62.2210 C   0  0  0  0  0  0  0  0  0  0  0  0
  130.8230  126.7340   61.1310 O   0  0  0  0  0  0  0  0  0  0  0  0
  129.5750  128.3410   62.3150 C   0  0  0  0  0  0  0  0  0  0  0  0
  129.6860  129.6370   61.1290 S   0  0  0  0  0  0  0  0  0  0  0  0
  128.3780  130.5070   61.8930 C   0  0  0  0  0  0  0  0  0  0  0  0
  127.9550  131.6790   61.4240 N   0  0  0  0  0  0  0  0  0  0  0  0
  126.9280  132.2790   62.0810 C   0  0  0  0  0  0  0  0  0  0  0  0
  126.4800  133.6020   61.5310 C   0  0  0  0  0  0  0  0  0  0  0  0
  125.2870  133.7090   60.7980 C   0  0  0  0  0  0  0  0  0  0  0  0
  124.8650  134.9330   60.2840 C   0  0  0  0  0  0  0  0  0  0  0  0
  125.6350  136.0710   60.4960 C   0  0  0  0  0  0  0  0  0  0  0  0
  126.8230  135.9930   61.2150 C   0  0  0  0  0  0  0  0  0  0  0  0
  127.2410  134.7670   61.7250 C   0  0  0  0  0  0  0  0  0  0  0  0
  126.3430  131.7070   63.2160 C   0  0  0  0  0  0  0  0  0  0  0  0
  126.7820  130.4720   63.7200 C   0  0  0  0  0  0  0  0  0  0  0  0
  126.0960  129.9020   64.9670 C   0  0  0  0  0  0  0  0  0  0  0  0
  125.7180  128.6300   64.8220 F   0  0  0  0  0  0  0  0  0  0  0  0
  126.9300  129.9550   66.0040 F   0  0  0  0  0  0  0  0  0  0  0  0
  125.0030  130.6130   65.2450 F   0  0  0  0  0  0  0  0  0  0  0  0
  127.8490  129.8280   63.0310 C   0  0  0  0  0  0  0  0  0  0  0  0
  128.5480  128.5840   63.2410 C   0  0  0  0  0  0  0  0  0  0  0  0
  128.2400  127.7210   64.2620 N   0  0  0  0  0  0  0  0  0  0  0  0
  129.8550  123.9050   62.8120 C   0  0  0  0  0  0  0  0  0  0  0  0
  129.3900  122.7370   62.1870 C   0  0  0  0  0  0  0  0  0  0  0  0
  128.0560  122.3740   62.1250 O   0  0  0  0  0  0  0  0  0  0  0  0
  127.0850  123.3440   61.7450 C   0  0  0  0  0  0  0  0  0  0  0  0
  130.3170  121.8760   61.5830 C   0  0  0  0  0  0  0  0  0  0  0  0
  129.8770  120.7230   60.9800 O   0  0  0  0  0  0  0  0  0  0  0  0
  130.2180  119.5350   61.6830 C   0  0  0  0  0  0  0  0  0  0  0  0
  1  2  1  0
  2  3  1  0
  3  4  2  0
  4  5  1  0
  5  6  1  0
  6  7  1  0
  7  8  1  0
  8  9  2  0
  8 10  1  0
 10 11  1  0
 11 12  1  0
 12 13  2  0
 13 14  1  0
 14 15  1  0
 15 16  2  0
 16 17  1  0
 17 18  2  0
 18 19  1  0
 19 20  2  0
 14 21  2  0
 21 22  1  0
 22 23  1  0
 23 24  1  0
 23 25  1  0
 23 26  1  0
 22 27  2  0
 27 28  1  0
 28 29  1  0
  5 30  2  0
 30 31  1  0
 31 32  1  0
 32 33  1  0
 31 34  2  0
 34 35  1  0
 35 36  1  0
 34  3  1  0
 28 10  2  0
 27 12  1  0
 20 15  1  0
M  END
>  <Binding energies>  (57) 
[-7.25]

>  <Ligand effiencies>  (57) 
[-0.1858974358974359]

>  <Interactions>  (57) 
["H-B:ALA:541:N:9863, V-B:GLU:543:CD:9880, H-B:GLU:543:OE2:9882, V-B:ALA:541:CB:9864, V-A:TYR:539:CD1:4873, H-A:GLU:543:OE2:4910, V-A:TYR:539:CE1:4875, V-B:ILE:369:CG2:8208, V-B:LEU:475:CD1:9229, V-A:ALA:541:CB:4892, V-A:GLU:543:CD:4908, H-A:GLU:543:OE1:4909, V-A:ILE:369:CG2:3236, V-A:LEU:475:CD1:4257, V-B:ALA:541:CA:9862, V-A:ILE:369:CD1:3238, V-B:TYR:484:CZ:9318, V-B:GLY:454:CA:9020, V-B:TYR:484:CE2:9317, V-B:ARG:545:CZ:9898, V-B:PRO:482:CB:9297, V-B:PRO:482:CG:9298, V-B:SER:385:CB:8380"]

$$$$
4cj_Grossjean_2025
     RDKit          3D

 28 31  0  0  0  0  0  0  0  0999 V2000
  128.8110  128.9690   63.2220 N   0  0  0  0  0  0  0  0  0  0  0  0
  127.8400  129.8980   63.4970 C   0  0  0  0  0  0  0  0  0  0  0  0
  126.9910  129.8150   64.6120 C   0  0  0  0  0  0  0  0  0  0  0  0
  126.9590  128.7940   65.6630 C   0  0  0  0  0  0  0  0  0  0  0  0
  125.8860  128.3910   66.1190 O   0  0  0  0  0  0  0  0  0  0  0  0
  128.1710  128.3540   66.0830 N   0  0  0  0  0  0  0  0  0  0  0  0
  128.4170  127.3980   67.0600 C   0  0  0  0  0  0  0  0  0  0  0  0
  127.8540  127.2900   68.2440 N   0  0  0  0  0  0  0  0  0  0  0  0
  128.3270  126.2570   68.9130 C   0  0  0  0  0  0  0  0  0  0  0  0
  129.3000  125.4990   68.2680 C   0  0  0  0  0  0  0  0  0  0  0  0
  129.6020  126.1830   66.6990 S   0  0  0  0  0  0  0  0  0  0  0  0
  125.8740  131.1770   64.6650 S   0  0  0  0  0  0  0  0  0  0  0  0
  126.5490  131.8430   63.1970 C   0  0  0  0  0  0  0  0  0  0  0  0
  126.0900  132.9780   62.6750 N   0  0  0  0  0  0  0  0  0  0  0  0
  126.6810  133.4230   61.5360 C   0  0  0  0  0  0  0  0  0  0  0  0
  126.1480  134.7130   60.9810 C   0  0  0  0  0  0  0  0  0  0  0  0
  124.8720  134.7710   60.3980 C   0  0  0  0  0  0  0  0  0  0  0  0
  124.3740  135.9620   59.8760 C   0  0  0  0  0  0  0  0  0  0  0  0
  125.1500  137.1160   59.9270 C   0  0  0  0  0  0  0  0  0  0  0  0
  126.4180  137.0850   60.4960 C   0  0  0  0  0  0  0  0  0  0  0  0
  126.9110  135.8920   61.0180 C   0  0  0  0  0  0  0  0  0  0  0  0
  127.7140  132.7140   60.9150 C   0  0  0  0  0  0  0  0  0  0  0  0
  128.2050  131.5150   61.4550 C   0  0  0  0  0  0  0  0  0  0  0  0
  129.3410  130.7900   60.7250 C   0  0  0  0  0  0  0  0  0  0  0  0
  129.0370  129.5320   60.3990 F   0  0  0  0  0  0  0  0  0  0  0  0
  129.6330  131.4350   59.5960 F   0  0  0  0  0  0  0  0  0  0  0  0
  130.4240  130.7500   61.5010 F   0  0  0  0  0  0  0  0  0  0  0  0
  127.6050  131.0490   62.6600 C   0  0  0  0  0  0  0  0  0  0  0  0
  1  2  1  0
  2  3  2  0
  3  4  1  0
  4  5  2  0
  4  6  1  0
  6  7  1  0
  7  8  2  0
  8  9  1  0
  9 10  2  0
 10 11  1  0
  3 12  1  0
 12 13  1  0
 13 14  2  0
 14 15  1  0
 15 16  1  0
 16 17  2  0
 17 18  1  0
 18 19  2  0
 19 20  1  0
 20 21  2  0
 15 22  2  0
 22 23  1  0
 23 24  1  0
 24 25  1  0
 24 26  1  0
 24 27  1  0
 23 28  2  0
 28  2  1  0
 11  7  1  0
 28 13  1  0
 21 16  1  0
M  END
>  <Binding energies>  (58) 
[-7.17]

>  <Ligand effiencies>  (58) 
[-0.23129032258064516]

>  <Interactions>  (58) 
["V-A:HIS:456:CE1:4069, V-A:TYR:539:CD1:4873, H-A:GLU:543:OE2:4910, V-A:TYR:539:CE1:4875, V-A:PRO:540:CA:4883, V-B:ILE:369:CG2:8208, V-B:LEU:475:CD1:9229, V-A:ALA:541:CB:4892, V-A:GLU:543:CD:4908, H-A:GLU:543:OE1:4909, V-A:GLU:543:CG:4907, H-B:ARG:545:NH2:9900, V-B:GLU:543:CB:9878, V-B:GLU:543:C:9874, V-A:TYR:484:CE2:4345, V-B:HIS:456:CE1:9041, V-B:PRO:482:CB:9297, V-A:TYR:539:CB:4871, V-B:PRO:482:CG:9298, V-B:LEU:373:CD1:8251, V-B:SER:385:CB:8380, H-B:ARG:545:NE:9896"]

$$$$
4ck_Grossjean_2025
     RDKit          3D

 33 35  0  0  0  0  0  0  0  0999 V2000
  124.5270  123.8940   58.4780 C   0  0  0  0  0  0  0  0  0  0  0  0
  125.5250  124.4420   57.6300 O   0  0  0  0  0  0  0  0  0  0  0  0
  125.7990  123.6400   56.4900 C   0  0  0  0  0  0  0  0  0  0  0  0
  125.7680  122.1620   56.8980 C   0  0  0  0  0  0  0  0  0  0  0  0
  127.0850  121.6330   56.8310 O   0  0  0  0  0  0  0  0  0  0  0  0
  128.0810  122.5320   57.3010 C   0  0  0  0  0  0  0  0  0  0  0  0
  128.3440  122.2580   58.7870 C   0  0  0  0  0  0  0  0  0  0  0  0
  127.3780  122.9590   59.5590 O   0  0  0  0  0  0  0  0  0  0  0  0
  127.2980  122.5250   60.9110 C   0  0  0  0  0  0  0  0  0  0  0  0
  126.1220  123.2260   61.6090 C   0  0  0  0  0  0  0  0  0  0  0  0
  126.0700  124.6540   61.2970 N   0  0  0  0  0  0  0  0  0  0  0  0
  127.0040  125.5700   61.6280 C   0  0  0  0  0  0  0  0  0  0  0  0
  128.0420  125.2770   62.2230 O   0  0  0  0  0  0  0  0  0  0  0  0
  126.7180  126.9480   61.2280 C   0  0  0  0  0  0  0  0  0  0  0  0
  127.0940  128.2810   62.3160 S   0  0  0  0  0  0  0  0  0  0  0  0
  126.5470  129.4530   61.1400 C   0  0  0  0  0  0  0  0  0  0  0  0
  126.5820  130.7590   61.3920 N   0  0  0  0  0  0  0  0  0  0  0  0
  126.1340  131.5930   60.4170 C   0  0  0  0  0  0  0  0  0  0  0  0
  126.2040  133.0610   60.7260 C   0  0  0  0  0  0  0  0  0  0  0  0
  127.3070  133.6010   61.4060 C   0  0  0  0  0  0  0  0  0  0  0  0
  127.3760  134.9620   61.6980 C   0  0  0  0  0  0  0  0  0  0  0  0
  126.3400  135.8040   61.3100 C   0  0  0  0  0  0  0  0  0  0  0  0
  125.2370  135.2960   60.6310 C   0  0  0  0  0  0  0  0  0  0  0  0
  125.1730  133.9350   60.3400 C   0  0  0  0  0  0  0  0  0  0  0  0
  125.6630  131.1120   59.1920 C   0  0  0  0  0  0  0  0  0  0  0  0
  125.6210  129.7360   58.9160 C   0  0  0  0  0  0  0  0  0  0  0  0
  125.0880  129.2770   57.5530 C   0  0  0  0  0  0  0  0  0  0  0  0
  124.5130  128.0740   57.5940 F   0  0  0  0  0  0  0  0  0  0  0  0
  124.1760  130.1410   57.1110 F   0  0  0  0  0  0  0  0  0  0  0  0
  126.0920  129.2100   56.6770 F   0  0  0  0  0  0  0  0  0  0  0  0
  126.0860  128.8520   59.9320 C   0  0  0  0  0  0  0  0  0  0  0  0
  126.2030  127.4160   60.0090 C   0  0  0  0  0  0  0  0  0  0  0  0
  125.8380  126.5840   58.9810 N   0  0  0  0  0  0  0  0  0  0  0  0
  1  2  1  0
  2  3  1  0
  3  4  1  0
  4  5  1  0
  5  6  1  0
  6  7  1  0
  7  8  1  0
  8  9  1  0
  9 10  1  0
 10 11  1  0
 11 12  1  0
 12 13  2  0
 12 14  1  0
 14 15  1  0
 15 16  1  0
 16 17  2  0
 17 18  1  0
 18 19  1  0
 19 20  2  0
 20 21  1  0
 21 22  2  0
 22 23  1  0
 23 24  2  0
 18 25  2  0
 25 26  1  0
 26 27  1  0
 27 28  1  0
 27 29  1  0
 27 30  1  0
 26 31  2  0
 31 32  1  0
 32 33  1  0
 32 14  2  0
 31 16  1  0
 24 19  1  0
M  END
>  <Binding energies>  (59) 
[-6.46]

>  <Ligand effiencies>  (59) 
[-0.17944444444444443]

>  <Interactions>  (59) 
["V-B:GLU:543:CD:9880, H-B:GLU:543:OE1:9881, V-A:TYR:539:CD1:4873, V-A:TYR:539:CE1:4875, V-B:ILE:369:CG2:8208, V-B:ASP:366:CG:8184, V-B:ASP:366:CA:8181, V-B:LEU:475:CD1:9229, V-A:ALA:541:CB:4892, H-B:TYR:531:OH:9767, V-B:ASP:366:CB:8183, V-A:ALA:541:CA:4890, V-A:TYR:539:CZ:4877, V-B:ASP:366:C:8179, V-B:PRO:540:CB:9857, V-B:TYR:539:CE2:9848, V-B:PRO:540:CD:9859, V-B:PRO:540:N:9856, V-B:PRO:540:CA:9855, V-B:MET:535:CE:9807, H-B:ASP:366:OD1:8185, V-B:TYR:539:CD2:9846, V-B:TYR:531:CE2:9765, V-B:TYR:539:C:9839, V-B:TYR:531:CZ:9766, V-B:LEU:363:CD1:8160, V-B:PRO:540:C:9853, V-B:TYR:531:CE1:9764, V-B:TYR:539:CZ:9849, V-B:LEU:363:CA:8156, V-B:LEU:363:CB:8158, H-B:TYR:539:N:9842, V-B:PRO:482:CB:9297, V-B:PRO:482:CG:9298, V-B:PRO:540:CG:9858"]

$$$$
4dd_Grossjean_2025
     RDKit          3D

 26 29  0  0  0  0  0  0  0  0999 V2000
  129.1270  130.6830   60.7270 C   0  0  0  0  0  0  0  0  0  0  0  0
  128.0930  131.5030   61.4830 C   0  0  0  0  0  0  0  0  0  0  0  0
  127.6460  132.6970   60.9050 C   0  0  0  0  0  0  0  0  0  0  0  0
  126.6950  133.4970   61.5510 C   0  0  0  0  0  0  0  0  0  0  0  0
  126.2010  134.7830   60.9570 C   0  0  0  0  0  0  0  0  0  0  0  0
  124.9040  134.8820   60.4300 C   0  0  0  0  0  0  0  0  0  0  0  0
  124.4390  136.0740   59.8810 C   0  0  0  0  0  0  0  0  0  0  0  0
  125.2690  137.1890   59.8490 C   0  0  0  0  0  0  0  0  0  0  0  0
  126.5580  137.1210   60.3660 C   0  0  0  0  0  0  0  0  0  0  0  0
  127.0190  135.9270   60.9170 C   0  0  0  0  0  0  0  0  0  0  0  0
  126.1760  133.1600   62.7630 N   0  0  0  0  0  0  0  0  0  0  0  0
  126.5960  132.0210   63.3110 C   0  0  0  0  0  0  0  0  0  0  0  0
  125.9990  131.4580   64.8560 S   0  0  0  0  0  0  0  0  0  0  0  0
  127.0120  130.0150   64.7760 C   0  0  0  0  0  0  0  0  0  0  0  0
  126.9750  129.0230   65.8520 C   0  0  0  0  0  0  0  0  0  0  0  0
  125.9510  128.3740   66.0720 O   0  0  0  0  0  0  0  0  0  0  0  0
  128.1270  128.8810   66.5520 N   0  0  0  0  0  0  0  0  0  0  0  0
  128.4060  128.0670   67.6640 C   0  0  0  0  0  0  0  0  0  0  0  0
  129.0000  128.7060   68.7560 C   0  0  0  0  0  0  0  0  0  0  0  0
  129.3030  127.9890   69.9100 C   0  0  0  0  0  0  0  0  0  0  0  0
  129.0030  126.6310   69.9770 C   0  0  0  0  0  0  0  0  0  0  0  0
  128.3990  125.9840   68.9020 C   0  0  0  0  0  0  0  0  0  0  0  0
  128.0960  126.6990   67.7460 C   0  0  0  0  0  0  0  0  0  0  0  0
  127.7730  129.9980   63.5970 C   0  0  0  0  0  0  0  0  0  0  0  0
  128.6540  128.9960   63.2720 N   0  0  0  0  0  0  0  0  0  0  0  0
  127.5510  131.1330   62.7410 C   0  0  0  0  0  0  0  0  0  0  0  0
  1  2  1  0
  2  3  2  0
  3  4  1  0
  4  5  1  0
  5  6  2  0
  6  7  1  0
  7  8  2  0
  8  9  1  0
  9 10  2  0
  4 11  2  0
 11 12  1  0
 12 13  1  0
 13 14  1  0
 14 15  1  0
 15 16  2  0
 15 17  1  0
 17 18  1  0
 18 19  2  0
 19 20  1  0
 20 21  2  0
 21 22  1  0
 22 23  2  0
 14 24  2  0
 24 25  1  0
 24 26  1  0
 26  2  1  0
 10  5  1  0
 26 12  2  0
 23 18  1  0
M  END
>  <Binding energies>  (60) 
[-8.07]

>  <Ligand effiencies>  (60) 
[-0.27827586206896554]

>  <Interactions>  (60) 
["V-A:GLU:543:C:4902, V-A:HIS:456:CE1:4069, V-B:GLU:543:CD:9880, V-A:TYR:539:CD1:4873, H-A:GLU:543:OE2:4910, V-A:TYR:539:CE1:4875, V-B:ILE:369:CG2:8208, V-B:LEU:475:CD1:9229, V-A:ALA:541:CB:4892, V-A:TYR:539:C:4867, V-A:GLU:543:CD:4908, H-A:GLU:543:OE1:4909, V-A:GLU:543:CG:4907, H-B:ARG:545:NH2:9900, V-B:GLU:543:CB:9878, V-B:GLU:543:C:9874, V-A:GLU:543:CB:4906, V-B:HIS:456:CE1:9041, V-B:TYR:484:CZ:9318, V-B:GLY:454:CA:9020, V-B:PRO:482:CB:9297, V-A:TYR:539:CB:4871, V-B:PRO:482:CG:9298, V-B:LEU:373:CD1:8251, V-B:SER:385:CB:8380, H-B:ARG:545:NE:9896, V-B:GLU:543:CA:9876"]

$$$$
4dg_Grossjean_2025
     RDKit          3D

 27 30  0  0  0  0  0  0  0  0999 V2000
  123.4390  129.9830   63.2090 C   0  0  0  0  0  0  0  0  0  0  0  0
  124.6070  130.9530   63.2960 C   0  0  0  0  0  0  0  0  0  0  0  0
  124.5920  132.0810   62.4660 C   0  0  0  0  0  0  0  0  0  0  0  0
  125.6370  133.0120   62.4990 C   0  0  0  0  0  0  0  0  0  0  0  0
  125.6480  134.2320   61.6210 C   0  0  0  0  0  0  0  0  0  0  0  0
  124.5580  134.5290   60.7860 C   0  0  0  0  0  0  0  0  0  0  0  0
  124.5650  135.6570   59.9680 C   0  0  0  0  0  0  0  0  0  0  0  0
  125.6650  136.5070   59.9740 C   0  0  0  0  0  0  0  0  0  0  0  0
  126.7600  136.2350   60.7890 C   0  0  0  0  0  0  0  0  0  0  0  0
  126.7490  135.1070   61.6040 C   0  0  0  0  0  0  0  0  0  0  0  0
  126.6950  132.8740   63.3430 N   0  0  0  0  0  0  0  0  0  0  0  0
  126.7120  131.8010   64.1320 C   0  0  0  0  0  0  0  0  0  0  0  0
  128.0150  131.5000   65.2580 S   0  0  0  0  0  0  0  0  0  0  0  0
  127.2500  130.0110   65.8130 C   0  0  0  0  0  0  0  0  0  0  0  0
  127.9080  129.1770   66.8160 C   0  0  0  0  0  0  0  0  0  0  0  0
  128.3900  129.6640   67.8410 O   0  0  0  0  0  0  0  0  0  0  0  0
  127.9850  127.8600   66.5300 N   0  0  0  0  0  0  0  0  0  0  0  0
  128.5770  126.8390   67.3930 C   0  0  0  0  0  0  0  0  0  0  0  0
  130.0140  126.4900   67.0210 C   0  0  0  0  0  0  0  0  0  0  0  0
  130.2670  125.6980   65.8970 C   0  0  0  0  0  0  0  0  0  0  0  0
  131.5780  125.4040   65.5360 C   0  0  0  0  0  0  0  0  0  0  0  0
  132.6330  125.9110   66.2930 C   0  0  0  0  0  0  0  0  0  0  0  0
  132.3880  126.7140   67.4040 C   0  0  0  0  0  0  0  0  0  0  0  0
  131.0760  127.0100   67.7650 C   0  0  0  0  0  0  0  0  0  0  0  0
  126.0480  129.7710   65.1300 C   0  0  0  0  0  0  0  0  0  0  0  0
  125.2500  128.6770   65.3510 N   0  0  0  0  0  0  0  0  0  0  0  0
  125.7110  130.7890   64.1710 C   0  0  0  0  0  0  0  0  0  0  0  0
  1  2  1  0
  2  3  2  0
  3  4  1  0
  4  5  1  0
  5  6  2  0
  6  7  1  0
  7  8  2  0
  8  9  1  0
  9 10  2  0
  4 11  2  0
 11 12  1  0
 12 13  1  0
 13 14  1  0
 14 15  1  0
 15 16  2  0
 15 17  1  0
 17 18  1  0
 18 19  1  0
 19 20  2  0
 20 21  1  0
 21 22  2  0
 22 23  1  0
 23 24  2  0
 14 25  2  0
 25 26  1  0
 25 27  1  0
 27  2  1  0
 10  5  1  0
 27 12  2  0
 24 19  1  0
M  END
>  <Binding energies>  (61) 
[-8.43]

>  <Ligand effiencies>  (61) 
[-0.28099999999999997]

>  <Interactions>  (61) 
["V-A:HIS:456:CE1:4069, V-A:ARG:545:CZ:4926, H-B:GLU:543:OE2:9882, V-A:ARG:545:CD:4923, V-A:ARG:545:CG:4922, V-A:TYR:539:CD1:4873, V-B:ILE:369:CG2:8208, V-B:ASP:366:CG:8184, V-B:LEU:475:CD1:9229, V-A:ALA:541:CB:4892, V-B:ILE:369:CD1:8210, V-A:GLU:543:CD:4908, H-A:GLU:543:OE1:4909, V-A:GLU:543:CG:4907, V-A:TYR:539:CG:4872, V-B:GLU:543:CB:9878, V-A:GLU:543:CB:4906, V-B:HIS:456:CE1:9041, V-B:GLY:454:CA:9020, V-B:TYR:484:CE2:9317, V-B:ARG:545:CZ:9898, V-B:ARG:545:CD:9895, V-B:PRO:482:CB:9297, V-A:TYR:539:CB:4871, V-B:PRO:482:CG:9298, V-B:LEU:373:CD1:8251, V-B:SER:385:CB:8380, H-B:TYR:484:OH:9319, V-B:GLY:453:CA:9015, V-B:GLY:453:C:9013"]

$$$$
4dj_Grossjean_2025
     RDKit          3D

 25 28  0  0  0  0  0  0  0  0999 V2000
  125.2520  129.2470   61.5480 C   0  0  0  0  0  0  0  0  0  0  0  0
  125.7900  130.5150   62.1930 C   0  0  0  0  0  0  0  0  0  0  0  0
  125.6330  131.7230   61.5030 C   0  0  0  0  0  0  0  0  0  0  0  0
  126.1070  132.9260   62.0410 C   0  0  0  0  0  0  0  0  0  0  0  0
  125.9490  134.2380   61.3270 C   0  0  0  0  0  0  0  0  0  0  0  0
  124.7850  134.5230   60.5950 C   0  0  0  0  0  0  0  0  0  0  0  0
  124.6310  135.7370   59.9300 C   0  0  0  0  0  0  0  0  0  0  0  0
  125.6460  136.6860   59.9850 C   0  0  0  0  0  0  0  0  0  0  0  0
  126.8110  136.4290   60.6990 C   0  0  0  0  0  0  0  0  0  0  0  0
  126.9600  135.2150   61.3630 C   0  0  0  0  0  0  0  0  0  0  0  0
  126.7210  132.9770   63.2550 N   0  0  0  0  0  0  0  0  0  0  0  0
  126.8720  131.8280   63.9120 C   0  0  0  0  0  0  0  0  0  0  0  0
  127.6500  131.7480   65.4770 S   0  0  0  0  0  0  0  0  0  0  0  0
  127.4120  130.0010   65.5590 C   0  0  0  0  0  0  0  0  0  0  0  0
  127.8870  129.2440   66.7170 C   0  0  0  0  0  0  0  0  0  0  0  0
  128.2130  129.8210   67.7580 O   0  0  0  0  0  0  0  0  0  0  0  0
  127.9460  127.8990   66.5510 N   0  0  0  0  0  0  0  0  0  0  0  0
  128.3600  126.9600   67.4850 C   0  0  0  0  0  0  0  0  0  0  0  0
  128.0730  126.9160   68.7690 N   0  0  0  0  0  0  0  0  0  0  0  0
  128.6390  125.8800   69.3560 C   0  0  0  0  0  0  0  0  0  0  0  0
  129.4060  125.0520   68.5410 C   0  0  0  0  0  0  0  0  0  0  0  0
  129.3780  125.6750   66.9190 S   0  0  0  0  0  0  0  0  0  0  0  0
  126.7600  129.5260   64.4110 C   0  0  0  0  0  0  0  0  0  0  0  0
  126.4480  128.2060   64.2020 N   0  0  0  0  0  0  0  0  0  0  0  0
  126.4380  130.5510   63.4550 C   0  0  0  0  0  0  0  0  0  0  0  0
  1  2  1  0
  2  3  2  0
  3  4  1  0
  4  5  1  0
  5  6  2  0
  6  7  1  0
  7  8  2  0
  8  9  1  0
  9 10  2  0
  4 11  2  0
 11 12  1  0
 12 13  1  0
 13 14  1  0
 14 15  1  0
 15 16  2  0
 15 17  1  0
 17 18  1  0
 18 19  2  0
 19 20  1  0
 20 21  2  0
 21 22  1  0
 14 23  2  0
 23 24  1  0
 23 25  1  0
 25  2  1  0
 10  5  1  0
 25 12  2  0
 22 18  1  0
M  END
>  <Binding energies>  (62) 
[-7.83]

>  <Ligand effiencies>  (62) 
[-0.27964285714285714]

>  <Interactions>  (62) 
["V-A:HIS:456:CE1:4069, V-A:TYR:484:CZ:4346, V-B:GLU:543:CG:9879, V-B:GLU:543:CD:9880, H-B:GLU:543:OE2:9882, V-A:TYR:539:CD1:4873, V-B:ILE:369:CG2:8208, V-B:ASP:366:CG:8184, V-B:LEU:475:CD1:9229, V-A:ALA:541:CB:4892, V-B:ASP:366:CB:8183, V-A:GLU:543:CD:4908, H-A:GLU:543:OE1:4909, V-A:GLU:543:CG:4907, V-A:TYR:539:CG:4872, V-B:GLU:543:CB:9878, V-B:GLU:543:C:9874, V-A:TYR:484:CE2:4345, V-A:GLU:543:CB:4906, V-B:HIS:456:CE1:9041, V-B:TYR:484:CZ:9318, V-B:TYR:484:CE2:9317, V-B:ARG:545:CZ:9898, V-B:PRO:482:CB:9297, V-A:TYR:539:CB:4871, V-B:PRO:482:CG:9298, V-B:LEU:373:CD1:8251, V-B:SER:385:CB:8380, H-B:TYR:484:OH:9319, V-B:GLU:543:CA:9876, V-A:TYR:484:CD2:4343"]

$$$$
4ea_Grossjean_2025
     RDKit          3D

 31 34  0  0  0  0  0  0  0  0999 V2000
  124.1560  123.9720   58.6430 C   0  0  0  0  0  0  0  0  0  0  0  0
  125.1420  124.4860   57.5900 C   0  0  0  0  0  0  0  0  0  0  0  0
  125.4290  123.4470   56.6650 O   0  0  0  0  0  0  0  0  0  0  0  0
  126.4670  122.5940   56.8660 C   0  0  0  0  0  0  0  0  0  0  0  0
  126.6520  121.5780   56.1890 O   0  0  0  0  0  0  0  0  0  0  0  0
  127.3650  123.0090   57.9950 C   0  0  0  0  0  0  0  0  0  0  0  0
  126.9210  122.8520   59.3140 C   0  0  0  0  0  0  0  0  0  0  0  0
  127.7300  123.2270   60.3830 C   0  0  0  0  0  0  0  0  0  0  0  0
  128.9970  123.7660   60.1570 C   0  0  0  0  0  0  0  0  0  0  0  0
  129.7260  124.1090   61.3120 N   0  0  0  0  0  0  0  0  0  0  0  0
  129.2960  124.4840   62.5420 C   0  0  0  0  0  0  0  0  0  0  0  0
  128.1120  124.5910   62.8610 O   0  0  0  0  0  0  0  0  0  0  0  0
  130.3560  124.7690   63.5140 C   0  0  0  0  0  0  0  0  0  0  0  0
  132.0430  124.4270   63.1210 S   0  0  0  0  0  0  0  0  0  0  0  0
  132.5750  125.0090   64.6810 C   0  0  0  0  0  0  0  0  0  0  0  0
  133.8630  125.0140   65.0300 N   0  0  0  0  0  0  0  0  0  0  0  0
  134.1430  125.4910   66.2680 C   0  0  0  0  0  0  0  0  0  0  0  0
  135.6130  125.4870   66.6440 C   0  0  0  0  0  0  0  0  0  0  0  0
  133.1760  125.9580   67.1550 C   0  0  0  0  0  0  0  0  0  0  0  0
  131.8270  125.9510   66.7860 C   0  0  0  0  0  0  0  0  0  0  0  0
  130.8120  126.4500   67.7400 C   0  0  0  0  0  0  0  0  0  0  0  0
  130.8560  127.7760   68.1830 C   0  0  0  0  0  0  0  0  0  0  0  0
  129.8990  128.2470   69.0790 C   0  0  0  0  0  0  0  0  0  0  0  0
  128.9000  127.3900   69.5340 C   0  0  0  0  0  0  0  0  0  0  0  0
  128.8500  126.0670   69.1030 C   0  0  0  0  0  0  0  0  0  0  0  0
  129.8070  125.5970   68.2080 C   0  0  0  0  0  0  0  0  0  0  0  0
  131.4910  125.4580   65.4940 C   0  0  0  0  0  0  0  0  0  0  0  0
  130.2360  125.3100   64.8040 C   0  0  0  0  0  0  0  0  0  0  0  0
  129.0420  125.6700   65.3720 N   0  0  0  0  0  0  0  0  0  0  0  0
  129.4500  123.9270   58.8380 C   0  0  0  0  0  0  0  0  0  0  0  0
  128.6400  123.5510   57.7710 C   0  0  0  0  0  0  0  0  0  0  0  0
  1  2  1  0
  2  3  1  0
  3  4  1  0
  4  5  2  0
  4  6  1  0
  6  7  2  0
  7  8  1  0
  8  9  2  0
  9 10  1  0
 10 11  1  0
 11 12  2  0
 11 13  1  0
 13 14  1  0
 14 15  1  0
 15 16  2  0
 16 17  1  0
 17 18  1  0
 17 19  2  0
 19 20  1  0
 20 21  1  0
 21 22  2  0
 22 23  1  0
 23 24  2  0
 24 25  1  0
 25 26  2  0
 20 27  2  0
 27 28  1  0
 28 29  1  0
  9 30  1  0
 30 31  2  0
 31  6  1  0
 28 13  2  0
 27 15  1  0
 26 21  1  0
M  END
>  <Binding energies>  (63) 
[-9.0]

>  <Ligand effiencies>  (63) 
[-0.2647058823529412]

>  <Interactions>  (63) 
["V-A:GLU:543:C:4902, V-A:HIS:456:CE1:4069, H-A:GLY:454:N:4049, H-A:ARG:545:NH2:4928, V-A:TYR:484:CZ:4346, V-B:GLU:543:CG:9879, V-A:ILE:455:C:4051, V-A:ARG:545:CZ:4926, H-A:TYR:484:OH:4347, V-B:GLU:543:CD:9880, H-B:GLU:543:OE2:9882, H-A:ARG:545:NE:4924, V-A:GLY:453:C:4041, V-A:ARG:545:CD:4923, V-A:ARG:545:CG:4922, V-A:GLY:453:CA:4043, H-B:TYR:531:OH:9767, V-B:ASP:366:CB:8183, V-A:GLU:543:CD:4908, H-A:GLU:543:OE1:4909, V-B:PRO:540:CB:9857, V-B:TYR:539:CE2:9848, V-B:PRO:540:N:9856, V-B:PRO:540:CA:9855, V-B:MET:535:CE:9807, V-B:TYR:531:CE2:9765, V-B:TYR:531:CZ:9766, V-B:LEU:363:CD1:8160, V-A:GLY:454:CA:4048, V-B:GLU:543:CB:9878, V-B:GLU:543:C:9874, V-A:TYR:484:CE2:4345, V-A:GLU:543:CB:4906, V-B:HIS:456:CE1:9041, V-B:TYR:539:CZ:9849, V-B:LEU:363:CA:8156, V-B:LEU:363:CB:8158, V-A:ARG:545:CB:4921, H-B:TYR:539:N:9842, V-A:VAL:452:CG2:4039"]

$$$$
4eb_Grossjean_2025
     RDKit          3D

 30 33  0  0  0  0  0  0  0  0999 V2000
  124.7030  124.3880   57.5860 C   0  0  0  0  0  0  0  0  0  0  0  0
  125.4210  123.7490   56.5400 O   0  0  0  0  0  0  0  0  0  0  0  0
  126.3400  122.7850   56.8110 C   0  0  0  0  0  0  0  0  0  0  0  0
  126.4150  121.7230   56.1870 O   0  0  0  0  0  0  0  0  0  0  0  0
  127.2550  123.1410   57.9480 C   0  0  0  0  0  0  0  0  0  0  0  0
  126.8400  122.8930   59.2630 C   0  0  0  0  0  0  0  0  0  0  0  0
  127.6650  123.2110   60.3370 C   0  0  0  0  0  0  0  0  0  0  0  0
  128.9190  123.7830   60.1210 C   0  0  0  0  0  0  0  0  0  0  0  0
  129.6670  124.0630   61.2820 N   0  0  0  0  0  0  0  0  0  0  0  0
  129.3380  123.9320   62.5910 C   0  0  0  0  0  0  0  0  0  0  0  0
  128.2520  123.5160   62.9950 O   0  0  0  0  0  0  0  0  0  0  0  0
  130.3830  124.3260   63.5400 C   0  0  0  0  0  0  0  0  0  0  0  0
  132.0810  124.0030   63.1820 S   0  0  0  0  0  0  0  0  0  0  0  0
  132.5860  124.7260   64.6920 C   0  0  0  0  0  0  0  0  0  0  0  0
  133.8710  124.7980   65.0440 N   0  0  0  0  0  0  0  0  0  0  0  0
  134.1300  125.3810   66.2390 C   0  0  0  0  0  0  0  0  0  0  0  0
  135.5980  125.4520   66.6200 C   0  0  0  0  0  0  0  0  0  0  0  0
  133.1450  125.8900   67.0830 C   0  0  0  0  0  0  0  0  0  0  0  0
  131.7980  125.8130   66.7090 C   0  0  0  0  0  0  0  0  0  0  0  0
  130.7620  126.3580   67.6170 C   0  0  0  0  0  0  0  0  0  0  0  0
  130.7990  127.7030   67.9960 C   0  0  0  0  0  0  0  0  0  0  0  0
  129.8240  128.2180   68.8480 C   0  0  0  0  0  0  0  0  0  0  0  0
  128.8140  127.3840   69.3230 C   0  0  0  0  0  0  0  0  0  0  0  0
  128.7710  126.0410   68.9520 C   0  0  0  0  0  0  0  0  0  0  0  0
  129.7460  125.5290   68.1010 C   0  0  0  0  0  0  0  0  0  0  0  0
  131.4850  125.2070   65.4620 C   0  0  0  0  0  0  0  0  0  0  0  0
  130.2400  124.9660   64.7810 C   0  0  0  0  0  0  0  0  0  0  0  0
  129.0310  125.3360   65.3130 N   0  0  0  0  0  0  0  0  0  0  0  0
  129.3440  124.0350   58.8080 C   0  0  0  0  0  0  0  0  0  0  0  0
  128.5170  123.7160   57.7340 C   0  0  0  0  0  0  0  0  0  0  0  0
  1  2  1  0
  2  3  1  0
  3  4  2  0
  3  5  1  0
  5  6  2  0
  6  7  1  0
  7  8  2  0
  8  9  1  0
  9 10  1  0
 10 11  2  0
 10 12  1  0
 12 13  1  0
 13 14  1  0
 14 15  2  0
 15 16  1  0
 16 17  1  0
 16 18  2  0
 18 19  1  0
 19 20  1  0
 20 21  2  0
 21 22  1  0
 22 23  2  0
 23 24  1  0
 24 25  2  0
 19 26  2  0
 26 27  1  0
 27 28  1  0
  8 29  1  0
 29 30  2  0
 30  5  1  0
 27 12  2  0
 26 14  1  0
 25 20  1  0
M  END
>  <Binding energies>  (64) 
[-8.89]

>  <Ligand effiencies>  (64) 
[-0.2693939393939394]

>  <Interactions>  (64) 
["V-A:GLU:543:C:4902, V-A:HIS:456:CE1:4069, H-A:GLY:454:N:4049, V-A:TYR:484:CZ:4346, V-B:GLU:543:CG:9879, V-A:ILE:455:C:4051, V-A:ARG:545:CZ:4926, H-A:TYR:484:OH:4347, V-B:GLU:543:CD:9880, H-B:GLU:543:OE2:9882, V-A:GLY:453:C:4041, V-A:ARG:545:CD:4923, V-A:ARG:545:CG:4922, V-A:GLY:453:CA:4043, H-B:TYR:531:OH:9767, V-A:GLU:543:CD:4908, H-A:GLU:543:OE1:4909, V-A:GLU:543:CG:4907, V-B:PRO:540:CB:9857, V-B:PRO:540:N:9856, V-B:PRO:540:CA:9855, V-B:MET:535:CE:9807, V-B:TYR:531:CE2:9765, V-B:TYR:531:CZ:9766, V-B:LEU:363:CD1:8160, V-A:GLY:454:CA:4048, V-B:GLU:543:CB:9878, V-B:GLU:543:C:9874, V-A:TYR:484:CE2:4345, V-A:GLU:543:CB:4906, V-B:HIS:456:CE1:9041, V-A:ARG:545:CB:4921, H-B:TYR:539:N:9842"]

$$$$
8b_Ghoteimi_2023
     RDKit          3D

 34 38  0  0  0  0  0  0  0  0999 V2000
  124.8730  138.9590   59.5590 C   0  0  0  0  0  0  0  0  0  0  0  0
  125.6150  138.3020   60.5810 O   0  0  0  0  0  0  0  0  0  0  0  0
  125.6500  136.9210   60.6060 C   0  0  0  0  0  0  0  0  0  0  0  0
  126.6850  136.3370   61.3330 C   0  0  0  0  0  0  0  0  0  0  0  0
  126.8000  134.9530   61.4130 C   0  0  0  0  0  0  0  0  0  0  0  0
  125.8810  134.1140   60.7660 C   0  0  0  0  0  0  0  0  0  0  0  0
  126.0010  132.6250   60.8470 C   0  0  0  0  0  0  0  0  0  0  0  0
  125.9510  131.9480   62.0700 C   0  0  0  0  0  0  0  0  0  0  0  0
  126.0660  130.5550   62.1190 C   0  0  0  0  0  0  0  0  0  0  0  0
  126.0180  129.8690   63.4310 C   0  0  0  0  0  0  0  0  0  0  0  0
  127.1400  129.1900   63.9100 C   0  0  0  0  0  0  0  0  0  0  0  0
  127.0970  128.5540   65.1470 C   0  0  0  0  0  0  0  0  0  0  0  0
  125.9360  128.5850   65.9210 C   0  0  0  0  0  0  0  0  0  0  0  0
  125.9850  127.9280   67.1360 O   0  0  0  0  0  0  0  0  0  0  0  0
  127.2080  127.3280   67.5510 C   0  0  0  0  0  0  0  0  0  0  0  0
  124.8080  129.2650   65.4350 C   0  0  0  0  0  0  0  0  0  0  0  0
  124.8530  129.9010   64.1980 C   0  0  0  0  0  0  0  0  0  0  0  0
  126.2250  129.8540   60.8930 C   0  0  0  0  0  0  0  0  0  0  0  0
  126.3640  128.4560   60.5790 C   0  0  0  0  0  0  0  0  0  0  0  0
  126.3590  127.4830   61.5460 N   0  0  0  0  0  0  0  0  0  0  0  0
  126.4990  128.1920   59.2070 C   0  0  0  0  0  0  0  0  0  0  0  0
  126.6540  126.8990   58.5390 C   0  0  0  0  0  0  0  0  0  0  0  0
  127.6980  126.6190   57.9440 O   0  0  0  0  0  0  0  0  0  0  0  0
  125.5860  126.0660   58.6270 N   0  0  0  0  0  0  0  0  0  0  0  0
  125.4630  124.7900   58.0960 C   0  0  0  0  0  0  0  0  0  0  0  0
  124.7560  123.7670   58.7270 C   0  0  0  0  0  0  0  0  0  0  0  0
  124.8770  122.6800   57.8910 C   0  0  0  0  0  0  0  0  0  0  0  0
  125.6150  123.0300   56.8120 O   0  0  0  0  0  0  0  0  0  0  0  0
  125.9800  124.3710   56.9510 N   0  0  0  0  0  0  0  0  0  0  0  0
  126.4560  129.6830   58.2650 S   0  0  0  0  0  0  0  0  0  0  0  0
  126.2570  130.6470   59.7100 C   0  0  0  0  0  0  0  0  0  0  0  0
  126.1510  131.9740   59.6630 N   0  0  0  0  0  0  0  0  0  0  0  0
  124.8410  134.7080   60.0380 C   0  0  0  0  0  0  0  0  0  0  0  0
  124.7240  136.0930   59.9550 C   0  0  0  0  0  0  0  0  0  0  0  0
  1  2  1  0
  2  3  1  0
  3  4  2  0
  4  5  1  0
  5  6  2  0
  6  7  1  0
  7  8  2  0
  8  9  1  0
  9 10  1  0
 10 11  2  0
 11 12  1  0
 12 13  2  0
 13 14  1  0
 14 15  1  0
 13 16  1  0
 16 17  2  0
  9 18  2  0
 18 19  1  0
 19 20  1  0
 19 21  2  0
 21 22  1  0
 22 23  2  0
 22 24  1  0
 24 25  1  0
 25 26  1  0
 26 27  2  0
 27 28  1  0
 28 29  1  0
 21 30  1  0
 30 31  1  0
 31 32  2  0
  6 33  1  0
 33 34  2  0
 34  3  1  0
 32  7  1  0
 17 10  1  0
 31 18  1  0
 29 25  2  0
M  END
>  <Binding energies>  (65) 
[-8.38]

>  <Ligand effiencies>  (65) 
[-0.2264864864864865]

>  <Interactions>  (65) 
["V-B:GLU:543:CD:9880, H-B:GLU:543:OE2:9882, V-A:TYR:539:CD1:4873, V-A:TYR:539:CE1:4875, V-B:ILE:369:CG2:8208, V-B:ASP:366:CG:8184, V-B:LEU:475:CD1:9229, V-A:ALA:541:CB:4892, H-B:TYR:531:OH:9767, V-B:ASP:366:CB:8183, V-B:PRO:540:CB:9857, V-B:PRO:540:CD:9859, V-B:PRO:540:N:9856, V-B:PRO:540:CA:9855, H-B:ASP:366:OD1:8185, V-B:TYR:531:CE2:9765, V-B:TYR:531:CZ:9766, V-B:LEU:363:CD1:8160, V-B:GLU:543:CB:9878, V-B:HIS:456:CE1:9041, V-B:LEU:363:CA:8156, V-B:ARG:545:CZ:9898, H-B:ASP:366:OD2:8186, V-B:PRO:482:CB:9297, V-B:PRO:482:CG:9298, V-B:LEU:373:CD1:8251, H-B:SER:385:OG:8381, V-B:SER:385:CB:8380, V-B:LEU:373:CD2:8252, H-B:ARG:545:NE:9896, V-B:PRO:540:CG:9858"]

$$$$
9d_Ghoteimi_2023
     RDKit          3D

 38 43  0  0  0  0  0  0  0  0999 V2000
  124.4060  129.6600   65.4660 C   0  0  0  0  0  0  0  0  0  0  0  0
  124.9820  130.7520   64.7640 O   0  0  0  0  0  0  0  0  0  0  0  0
  126.3310  130.8930   64.6830 C   0  0  0  0  0  0  0  0  0  0  0  0
  126.9020  131.9740   64.5120 O   0  0  0  0  0  0  0  0  0  0  0  0
  127.0540  129.6100   64.8170 C   0  0  0  0  0  0  0  0  0  0  0  0
  127.3520  128.6170   63.3910 S   0  0  0  0  0  0  0  0  0  0  0  0
  128.2000  127.4260   64.3490 C   0  0  0  0  0  0  0  0  0  0  0  0
  128.7470  126.3450   63.7940 N   0  0  0  0  0  0  0  0  0  0  0  0
  129.4010  125.4890   64.6230 C   0  0  0  0  0  0  0  0  0  0  0  0
  130.0280  124.2970   63.9740 C   0  0  0  0  0  0  0  0  0  0  0  0
  129.2560  123.4140   63.2120 C   0  0  0  0  0  0  0  0  0  0  0  0
  129.8300  122.3000   62.6070 C   0  0  0  0  0  0  0  0  0  0  0  0
  131.2030  122.0350   62.7300 C   0  0  0  0  0  0  0  0  0  0  0  0
  131.7920  120.9100   62.1420 N   0  0  0  0  0  0  0  0  0  0  0  0
  130.9700  119.8220   61.5740 C   0  0  0  0  0  0  0  0  0  0  0  0
  131.7600  118.5270   61.2890 C   0  0  0  0  0  0  0  0  0  0  0  0
  132.8730  118.8100   60.4590 O   0  0  0  0  0  0  0  0  0  0  0  0
  133.7600  119.7290   61.0750 C   0  0  0  0  0  0  0  0  0  0  0  0
  133.0340  121.0620   61.3550 C   0  0  0  0  0  0  0  0  0  0  0  0
  131.9700  122.9150   63.5080 C   0  0  0  0  0  0  0  0  0  0  0  0
  131.3950  124.0270   64.1160 C   0  0  0  0  0  0  0  0  0  0  0  0
  129.4750  125.6980   66.0020 C   0  0  0  0  0  0  0  0  0  0  0  0
  128.8860  126.8210   66.5920 C   0  0  0  0  0  0  0  0  0  0  0  0
  128.9710  126.9810   68.0680 C   0  0  0  0  0  0  0  0  0  0  0  0
  128.2910  126.1080   68.9200 C   0  0  0  0  0  0  0  0  0  0  0  0
  128.3890  126.2500   70.3020 C   0  0  0  0  0  0  0  0  0  0  0  0
  129.1840  127.2600   70.8680 C   0  0  0  0  0  0  0  0  0  0  0  0
  129.2920  127.4290   72.2500 N   0  0  0  0  0  0  0  0  0  0  0  0
  129.0040  128.7530   72.8350 C   0  0  0  0  0  0  0  0  0  0  0  0
  128.7780  128.7070   74.3620 C   0  0  0  0  0  0  0  0  0  0  0  0
  129.8920  128.1020   75.0010 O   0  0  0  0  0  0  0  0  0  0  0  0
  130.0990  126.7720   74.5460 C   0  0  0  0  0  0  0  0  0  0  0  0
  130.3620  126.7720   73.0250 C   0  0  0  0  0  0  0  0  0  0  0  0
  129.8620  128.1310   70.0020 C   0  0  0  0  0  0  0  0  0  0  0  0
  129.7620  127.9900   68.6210 C   0  0  0  0  0  0  0  0  0  0  0  0
  128.2330  127.7530   65.7370 C   0  0  0  0  0  0  0  0  0  0  0  0
  127.5860  129.0170   65.9700 C   0  0  0  0  0  0  0  0  0  0  0  0
  127.5160  129.6010   67.2080 N   0  0  0  0  0  0  0  0  0  0  0  0
  1  2  1  0
  2  3  1  0
  3  4  2  0
  3  5  1  0
  5  6  1  0
  6  7  1  0
  7  8  2  0
  8  9  1  0
  9 10  1  0
 10 11  2  0
 11 12  1  0
 12 13  2  0
 13 14  1  0
 14 15  1  0
 15 16  1  0
 16 17  1  0
 17 18  1  0
 18 19  1  0
 13 20  1  0
 20 21  2  0
  9 22  2  0
 22 23  1  0
 23 24  1  0
 24 25  2  0
 25 26  1  0
 26 27  2  0
 27 28  1  0
 28 29  1  0
 29 30  1  0
 30 31  1  0
 31 32  1  0
 32 33  1  0
 27 34  1  0
 34 35  2  0
 23 36  2  0
 36 37  1  0
 37 38  1  0
 37  5  2  0
 36  7  1  0
 21 10  1  0
 35 24  1  0
 19 14  1  0
 33 28  1  0
M  END
>  <Binding energies>  (66) 
[-8.13]

>  <Ligand effiencies>  (66) 
[-0.20325000000000001]

>  <Interactions>  (66) 
["H-A:LYS:547:NZ:4951, V-B:HIS:456:CD2:9039, V-A:GLU:543:C:4902, V-A:HIS:456:CD2:4067, V-A:HIS:456:CE1:4069, V-A:HIS:456:CG:4065, V-B:GLU:543:CG:9879, V-B:GLU:543:CD:9880, V-B:ALA:541:CB:9864, V-A:GLU:543:CD:4908, H-A:GLU:543:OE1:4909, V-A:GLU:543:CG:4907, V-A:PRO:482:CG:4326, V-A:ILE:369:CG2:3236, V-A:LEU:475:CD1:4257, V-A:SER:385:C:3404, V-A:SER:385:CA:3406, V-B:GLU:543:CB:9878, V-B:GLU:543:C:9874, V-A:GLU:543:CB:4906, V-B:HIS:456:CE1:9041, V-B:TYR:484:CZ:9318, V-B:GLY:454:CA:9020, V-B:TYR:484:CE2:9317, V-B:ARG:545:CZ:9898, H-A:SER:385:OG:3409, H-A:HIS:383:NE2:3393, H-B:GLY:454:N:9021, H-B:TYR:484:OH:9319, H-A:GLU:543:O:4903"]

$$$$
RR10_Rahimova_2017
     RDKit          3D

 34 38  0  0  0  0  0  0  0  0999 V2000
  132.8410  125.3380   62.9240 C   0  0  0  0  0  0  0  0  0  0  0  0
  132.2090  124.9860   64.2810 C   0  0  1  0  0  0  0  0  0  0  0  0
  132.3820  126.1270   65.3110 C   0  0  0  0  0  0  0  0  0  0  0  0
  131.7710  125.7380   66.6760 C   0  0  0  0  0  0  0  0  0  0  0  0
  130.2670  125.3790   66.5630 C   0  0  1  0  0  0  0  0  0  0  0  0
  129.4710  126.5690   66.2320 N   0  0  0  0  0  0  0  0  0  0  0  0
  128.3530  126.9620   66.8690 C   0  0  0  0  0  0  0  0  0  0  0  0
  127.8830  126.3560   67.8360 O   0  0  0  0  0  0  0  0  0  0  0  0
  127.6500  128.2230   66.3250 C   0  0  1  0  0  0  0  0  0  0  0  0
  128.2150  129.4770   67.0430 C   0  0  0  0  0  0  0  0  0  0  0  0
  127.5800  130.7510   66.4360 C   0  0  0  0  0  0  0  0  0  0  0  0
  127.7060  130.7980   64.8950 C   0  0  0  0  0  0  0  0  0  0  0  0
  127.2030  129.5360   64.2880 N   0  0  0  0  0  0  0  0  0  0  0  0
  127.0200  129.5920   62.5270 S   0  0  0  0  0  0  0  0  0  0  0  0
  126.1090  128.5120   62.1280 O   0  0  0  0  0  0  0  0  0  0  0  0
  128.3610  129.6830   61.9360 O   0  0  0  0  0  0  0  0  0  0  0  0
  126.1670  131.1340   62.1960 C   0  0  0  0  0  0  0  0  0  0  0  0
  124.8310  131.2750   62.5870 C   0  0  0  0  0  0  0  0  0  0  0  0
  124.1090  132.4490   62.3560 C   0  0  0  0  0  0  0  0  0  0  0  0
  124.7910  133.4850   61.7130 C   0  0  0  0  0  0  0  0  0  0  0  0
  124.4410  134.7530   61.3150 N   0  0  0  0  0  0  0  0  0  0  0  0
  125.5420  135.3300   60.7170 C   0  0  0  0  0  0  0  0  0  0  0  0
  125.5440  136.7180   60.1430 C   0  0  0  0  0  0  0  0  0  0  0  0
  126.7540  137.3750   59.8780 C   0  0  0  0  0  0  0  0  0  0  0  0
  126.7570  138.6600   59.3420 C   0  0  0  0  0  0  0  0  0  0  0  0
  125.5500  139.2970   59.0700 C   0  0  0  0  0  0  0  0  0  0  0  0
  124.3400  138.6590   59.3280 C   0  0  0  0  0  0  0  0  0  0  0  0
  124.3370  137.3730   59.8630 C   0  0  0  0  0  0  0  0  0  0  0  0
  126.5790  134.5220   60.7090 N   0  0  0  0  0  0  0  0  0  0  0  0
  126.1450  133.3720   61.3150 C   0  0  0  0  0  0  0  0  0  0  0  0
  126.8450  132.1820   61.5630 C   0  0  0  0  0  0  0  0  0  0  0  0
  127.8870  128.3210   64.7980 C   0  0  0  0  0  0  0  0  0  0  0  0
  130.1070  124.2460   65.5140 C   0  0  0  0  0  0  0  0  0  0  0  0
  130.7090  124.6340   64.1450 C   0  0  0  0  0  0  0  0  0  0  0  0
  2  1  1  6
  2  3  1  0
  3  4  1  0
  4  5  1  0
  5  6  1  6
  6  7  1  0
  7  8  2  0
  9  7  1  1
  9 10  1  0
 10 11  1  0
 11 12  1  0
 12 13  1  0
 13 14  1  0
 14 15  2  0
 14 16  2  0
 14 17  1  0
 17 18  2  0
 18 19  1  0
 19 20  2  0
 20 21  1  0
 21 22  1  0
 22 23  1  0
 23 24  2  0
 24 25  1  0
 25 26  2  0
 26 27  1  0
 27 28  2  0
 22 29  2  0
 29 30  1  0
 30 31  2  0
 13 32  1  0
  5 33  1  0
 33 34  1  0
 34  2  1  0
 32  9  1  0
 31 17  1  0
 30 20  1  0
 28 23  1  0
M  END
>  <Binding energies>  (67) 
[-10.31]

>  <Ligand effiencies>  (67) 
[-0.2863888888888889]

>  <Interactions>  (67) 
["V-A:HIS:456:CE1:4069, V-A:TYR:484:CZ:4346, V-B:GLU:543:CG:9879, V-A:ARG:545:CZ:4926, V-A:ASP:366:CG:3212, V-B:GLU:543:CD:9880, H-B:GLU:543:OE2:9882, V-A:TYR:539:CD1:4873, V-B:ILE:369:CG2:8208, V-B:LEU:475:CD1:9229, V-B:ILE:369:CD1:8210, V-A:GLU:543:CD:4908, H-A:GLU:543:OE1:4909, V-A:GLU:543:CG:4907, V-A:TYR:539:CG:4872, H-B:ARG:545:NH2:9900, V-B:GLU:543:CB:9878, V-A:TYR:484:CE2:4345, V-A:GLU:543:CB:4906, V-B:HIS:456:CE1:9041, V-B:TYR:484:CZ:9318, V-B:GLY:454:CA:9020, V-B:TYR:484:CE2:9317, V-A:TYR:539:CB:4871, V-B:PRO:482:CG:9298, V-B:LEU:373:CD1:8251, H-B:SER:385:OG:8381, V-B:SER:385:CB:8380, V-A:ILE:343:CG2:2991, V-B:LEU:373:CG:8250, V-B:HIS:383:CE1:8365, V-A:VAL:344:CG1:3000, V-B:SER:385:CA:8378, V-B:LEU:373:CD2:8252, H-B:SER:385:O:8377"]

$$$$
RR12_Rahimova_2017
     RDKit          3D

 26 28  0  0  0  0  0  0  0  0999 V2000
  132.5500  119.4970   60.8190 C   0  0  0  0  0  0  0  0  0  0  0  0
  131.0950  119.9730   60.7070 C   0  0  0  0  0  0  0  0  0  0  0  0
  130.9860  121.4360   60.2410 C   0  0  0  0  0  0  0  0  0  0  0  0
  129.6610  121.9770   60.5370 N   0  0  0  0  0  0  0  0  0  0  0  0
  129.1470  122.3170   61.7790 C   0  0  0  0  0  0  0  0  0  0  0  0
  129.8970  122.1300   63.0860 C   0  0  0  0  0  0  0  0  0  0  0  0
  129.7920  123.3620   64.0040 C   0  0  0  0  0  0  0  0  0  0  0  0
  131.1690  123.9370   64.3890 C   0  0  0  0  0  0  0  0  0  0  0  0
  132.1470  123.9050   63.3020 N   0  0  0  0  0  0  0  0  0  0  0  0
  133.4070  124.3690   63.3840 C   0  0  0  0  0  0  0  0  0  0  0  0
  133.8740  124.8820   64.4040 O   0  0  0  0  0  0  0  0  0  0  0  0
  134.2540  124.2180   62.1140 C   0  0  0  0  0  0  0  0  0  0  0  0
  133.5830  123.3560   61.1940 O   0  0  0  0  0  0  0  0  0  0  0  0
  133.0940  123.8780   60.0110 C   0  0  0  0  0  0  0  0  0  0  0  0
  131.9140  124.6200   60.1010 C   0  0  0  0  0  0  0  0  0  0  0  0
  131.3470  125.1880   58.9640 C   0  0  0  0  0  0  0  0  0  0  0  0
  131.9620  125.0140   57.7280 C   0  0  0  0  0  0  0  0  0  0  0  0
  133.1370  124.2750   57.6180 C   0  0  0  0  0  0  0  0  0  0  0  0
  133.7040  123.7060   58.7570 C   0  0  0  0  0  0  0  0  0  0  0  0
  127.9330  122.8050   61.7220 N   0  0  0  0  0  0  0  0  0  0  0  0
  127.6220  122.8200   60.3910 C   0  0  0  0  0  0  0  0  0  0  0  0
  126.4450  123.2570   59.7640 C   0  0  0  0  0  0  0  0  0  0  0  0
  126.3720  123.1750   58.3730 C   0  0  0  0  0  0  0  0  0  0  0  0
  127.4350  122.6740   57.6200 C   0  0  0  0  0  0  0  0  0  0  0  0
  128.6170  122.2290   58.2140 C   0  0  0  0  0  0  0  0  0  0  0  0
  128.6900  122.3110   59.6110 C   0  0  0  0  0  0  0  0  0  0  0  0
  1  2  1  0
  2  3  1  0
  3  4  1  0
  4  5  1  0
  5  6  1  0
  6  7  1  0
  7  8  1  0
  8  9  1  0
  9 10  1  0
 10 11  2  0
 10 12  1  0
 12 13  1  0
 13 14  1  0
 14 15  2  0
 15 16  1  0
 16 17  2  0
 17 18  1  0
 18 19  2  0
  5 20  2  0
 20 21  1  0
 21 22  2  0
 22 23  1  0
 23 24  2  0
 24 25  1  0
 25 26  2  0
 26  4  1  0
 19 14  1  0
 26 21  1  0
M  END
>  <Binding energies>  (68) 
[-6.49]

>  <Ligand effiencies>  (68) 
[-0.24037037037037037]

>  <Interactions>  (68) 
["H-A:GLY:454:N:4049, H-A:ARG:545:NH2:4928, V-B:GLU:543:CG:9879, H-B:ALA:541:N:9863, V-A:ASP:366:CG:3212, H-A:TYR:484:OH:4347, V-B:GLU:543:CD:9880, V-B:ALA:541:CB:9864, V-A:GLY:453:C:4041, V-A:GLY:453:CA:4043, V-B:PRO:540:CB:9857, V-B:TYR:539:CE2:9848, V-B:PRO:540:N:9856, V-B:PRO:540:CA:9855, V-B:MET:535:CE:9807, V-B:TYR:539:CD2:9846, V-B:TYR:539:C:9839, V-A:ILE:369:CG2:3236, V-A:ASP:366:CB:3211, V-A:ILE:369:CB:3235, V-A:LEU:475:CD1:4257, V-A:ILE:369:CD1:3238, V-B:TYR:539:CG:9844, V-B:TYR:539:CZ:9849, V-A:ASP:366:CA:3209, V-A:ASP:366:C:3207, H-A:ARG:545:NH1:4927"]

$$$$
RR13_Rahimova_2017
     RDKit          3D

 48 54  0  0  0  0  0  0  0  0999 V2000
  132.2880  131.5130   57.2230 Cl  0  0  0  0  0  0  0  0  0  0  0  0
  130.7070  131.2940   56.5530 C   0  0  0  0  0  0  0  0  0  0  0  0
  130.3830  132.0160   55.4020 C   0  0  0  0  0  0  0  0  0  0  0  0
  129.1200  131.9000   54.8270 C   0  0  0  0  0  0  0  0  0  0  0  0
  128.1700  131.0610   55.4030 C   0  0  0  0  0  0  0  0  0  0  0  0
  128.4850  130.3380   56.5510 C   0  0  0  0  0  0  0  0  0  0  0  0
  129.7570  130.4320   57.1390 C   0  0  0  0  0  0  0  0  0  0  0  0
  130.0740  129.6390   58.4260 C   0  0  1  0  0  0  0  0  0  0  0  0
  130.2140  130.5790   59.6330 C   0  0  0  0  0  0  0  0  0  0  0  0
  131.2570  130.6870   60.4270 N   0  0  0  0  0  0  0  0  0  0  0  0
  130.9110  131.6380   61.3830 N   0  0  0  0  0  0  0  0  0  0  0  0
  129.6260  132.0900   61.1580 N   0  0  0  0  0  0  0  0  0  0  0  0
  129.2080  131.4040   60.0890 N   0  0  0  0  0  0  0  0  0  0  0  0
  127.8850  131.6470   59.5270 C   0  0  0  0  0  0  0  0  0  0  0  0
  126.8680  131.9150   60.6520 C   0  0  0  0  0  0  0  0  0  0  0  0
  126.5320  133.3930   60.7830 C   0  0  0  0  0  0  0  0  0  0  0  0
  125.3110  133.8760   60.3030 C   0  0  0  0  0  0  0  0  0  0  0  0
  125.0080  135.2300   60.4160 C   0  0  0  0  0  0  0  0  0  0  0  0
  125.9250  136.0960   61.0090 C   0  0  0  0  0  0  0  0  0  0  0  0
  127.1430  135.6200   61.4880 C   0  0  0  0  0  0  0  0  0  0  0  0
  127.4480  134.2660   61.3750 C   0  0  0  0  0  0  0  0  0  0  0  0
  129.1270  128.5280   58.6830 N   0  0  0  0  0  0  0  0  0  0  0  0
  129.1790  128.1210   60.0990 C   0  0  0  0  0  0  0  0  0  0  0  0
  128.1010  127.0550   60.4050 C   0  0  0  0  0  0  0  0  0  0  0  0
  128.3210  125.8460   59.5920 N   0  0  0  0  0  0  0  0  0  0  0  0
  127.3590  124.7660   59.9120 C   0  0  1  0  0  0  0  0  0  0  0  0
  126.9540  123.8630   58.7260 C   0  0  0  0  0  0  0  0  0  0  0  0
  125.6630  124.0300   58.2050 C   0  0  0  0  0  0  0  0  0  0  0  0
  125.2180  123.2710   57.1240 C   0  0  0  0  0  0  0  0  0  0  0  0
  126.0600  122.3230   56.5490 C   0  0  0  0  0  0  0  0  0  0  0  0
  127.3390  122.1300   57.0610 C   0  0  0  0  0  0  0  0  0  0  0  0
  127.7940  122.8830   58.1460 C   0  0  0  0  0  0  0  0  0  0  0  0
  129.3750  122.5200   58.7540 Cl  0  0  0  0  0  0  0  0  0  0  0  0
  127.7910  123.9080   61.1020 C   0  0  0  0  0  0  0  0  0  0  0  0
  127.0900  122.9330   61.6330 N   0  0  0  0  0  0  0  0  0  0  0  0
  127.8670  122.4240   62.6690 N   0  0  0  0  0  0  0  0  0  0  0  0
  129.0640  123.1060   62.7420 N   0  0  0  0  0  0  0  0  0  0  0  0
  129.0040  124.0030   61.7510 N   0  0  0  0  0  0  0  0  0  0  0  0
  130.1100  124.9310   61.5380 C   0  0  0  0  0  0  0  0  0  0  0  0
  131.4300  124.1600   61.3550 C   0  0  0  0  0  0  0  0  0  0  0  0
  132.0010  124.3230   59.9550 C   0  0  0  0  0  0  0  0  0  0  0  0
  131.5000  125.3160   59.1090 C   0  0  0  0  0  0  0  0  0  0  0  0
  132.0280  125.4700   57.8290 C   0  0  0  0  0  0  0  0  0  0  0  0
  133.0530  124.6290   57.4000 C   0  0  0  0  0  0  0  0  0  0  0  0
  133.5560  123.6370   58.2400 C   0  0  0  0  0  0  0  0  0  0  0  0
  133.0300  123.4830   59.5190 C   0  0  0  0  0  0  0  0  0  0  0  0
  128.2620  126.2570   58.1780 C   0  0  0  0  0  0  0  0  0  0  0  0
  129.3490  127.3150   57.8770 C   0  0  0  0  0  0  0  0  0  0  0  0
  1  2  1  0
  2  3  2  0
  3  4  1  0
  4  5  2  0
  5  6  1  0
  6  7  2  0
  7  8  1  0
  8  9  1  0
  9 10  2  0
 10 11  1  0
 11 12  2  0
 12 13  1  0
 13 14  1  0
 14 15  1  0
 15 16  1  0
 16 17  2  0
 17 18  1  0
 18 19  2  0
 19 20  1  0
 20 21  2  0
  8 22  1  1
 22 23  1  0
 23 24  1  0
 24 25  1  0
 26 25  1  6
 26 27  1  0
 27 28  2  0
 28 29  1  0
 29 30  2  0
 30 31  1  0
 31 32  2  0
 32 33  1  0
 26 34  1  0
 34 35  2  0
 35 36  1  0
 36 37  2  0
 37 38  1  0
 38 39  1  0
 39 40  1  0
 40 41  1  0
 41 42  2  0
 42 43  1  0
 43 44  2  0
 44 45  1  0
 45 46  2  0
 25 47  1  0
 47 48  1  0
  7  2  1  0
 13  9  1  0
 21 16  1  0
 48 22  1  0
 32 27  1  0
 38 34  1  0
 46 41  1  0
M  END
>  <Binding energies>  (69) 
[-13.69]

>  <Ligand effiencies>  (69) 
[-0.28520833333333334]

>  <Interactions>  (69) 
["H-B:ALA:541:N:9863, V-A:ASP:366:CG:3212, V-A:TYR:539:CD1:4873, V-A:PRO:540:CB:4885, V-A:ILE:538:CB:4862, V-A:ILE:538:CG2:4863, V-A:LEU:363:CD1:3188, V-A:PRO:540:N:4884, V-A:TYR:539:CE1:4875, V-A:PRO:540:CA:4883, V-B:ILE:369:CG2:8208, V-B:LEU:475:CD1:9229, V-A:ALA:541:CB:4892, V-A:ILE:538:CA:4860, H-A:ALA:541:N:4891, V-A:TYR:539:CZ:4877, V-B:PRO:540:CB:9857, V-B:TYR:539:CE2:9848, V-B:PRO:540:CD:9859, V-B:PRO:540:N:9856, V-B:PRO:540:CA:9855, V-B:MET:535:CE:9807, V-B:TYR:539:CA:9841, V-B:TYR:539:CD2:9846, V-B:TYR:531:CE2:9765, V-B:TYR:539:C:9839, V-B:LEU:363:CD1:8160, V-A:ILE:369:CG2:3236, V-A:ASP:366:CB:3211, V-A:ILE:369:CB:3235, V-B:TYR:539:CZ:9849, V-A:ASP:366:CA:3209, V-A:ASP:366:C:3207, V-B:PRO:482:CB:9297, V-B:PRO:482:CG:9298, V-B:SER:385:CB:8380"]

$$$$
RR14_Rahimova_2017
     RDKit          3D

 39 43  0  0  0  0  0  0  0  0999 V2000
  131.2040  118.0030   60.2610 C   0  0  0  0  0  0  0  0  0  0  0  0
  132.5860  118.3390   60.3170 O   0  0  0  0  0  0  0  0  0  0  0  0
  132.9520  119.6310   60.6440 C   0  0  0  0  0  0  0  0  0  0  0  0
  132.3470  120.6530   59.9120 C   0  0  0  0  0  0  0  0  0  0  0  0
  132.6710  121.9840   60.1530 C   0  0  0  0  0  0  0  0  0  0  0  0
  133.6140  122.3070   61.1320 C   0  0  0  0  0  0  0  0  0  0  0  0
  134.0200  123.7590   61.3550 C   0  0  0  0  0  0  0  0  0  0  0  0
  133.8780  124.1930   62.7440 N   0  0  0  0  0  0  0  0  0  0  0  0
  134.7040  125.1140   63.2520 N   0  0  0  0  0  0  0  0  0  0  0  0
  134.3070  125.2550   64.5680 N   0  0  0  0  0  0  0  0  0  0  0  0
  133.2410  124.4030   64.8390 N   0  0  0  0  0  0  0  0  0  0  0  0
  133.0030  123.7630   63.7180 C   0  0  0  0  0  0  0  0  0  0  0  0
  131.9330  122.6970   63.5270 C   0  0  0  0  0  0  0  0  0  0  0  0
  130.6900  123.2430   62.9570 N   0  0  0  0  0  0  0  0  0  0  0  0
  130.8670  124.6180   62.4720 C   0  0  0  0  0  0  0  0  0  0  0  0
  130.3630  125.6880   63.4650 C   0  0  0  0  0  0  0  0  0  0  0  0
  129.4960  125.1150   64.6050 C   0  0  0  0  0  0  0  0  0  0  0  0
  130.0590  125.3540   65.9380 N   0  0  0  0  0  0  0  0  0  0  0  0
  129.0280  125.8790   66.8420 C   0  0  0  0  0  0  0  0  0  0  0  0
  129.6010  126.1890   68.2410 C   0  0  0  0  0  0  0  0  0  0  0  0
  130.7170  127.0660   68.1290 O   0  0  0  0  0  0  0  0  0  0  0  0
  131.7640  126.5070   67.3450 C   0  0  0  0  0  0  0  0  0  0  0  0
  131.2570  126.2070   65.9180 C   0  0  0  0  0  0  0  0  0  0  0  0
  130.2050  122.3740   61.8750 C   0  0  0  0  0  0  0  0  0  0  0  0
  128.7920  122.6550   61.3710 C   0  0  0  0  0  0  0  0  0  0  0  0
  128.5560  122.9190   60.0620 C   0  0  0  0  0  0  0  0  0  0  0  0
  127.2040  123.2330   59.5550 C   0  0  0  0  0  0  0  0  0  0  0  0
  126.9200  123.4910   58.2040 C   0  0  0  0  0  0  0  0  0  0  0  0
  128.0100  123.4640   57.1400 C   0  0  0  0  0  0  0  0  0  0  0  0
  125.6050  123.7770   57.8280 C   0  0  0  0  0  0  0  0  0  0  0  0
  124.5840  123.8070   58.7760 C   0  0  0  0  0  0  0  0  0  0  0  0
  124.8560  123.5490   60.1230 C   0  0  0  0  0  0  0  0  0  0  0  0
  123.7180  123.5870   61.1350 C   0  0  0  0  0  0  0  0  0  0  0  0
  126.1730  123.2610   60.5120 C   0  0  0  0  0  0  0  0  0  0  0  0
  126.4960  122.9980   61.8600 N   0  0  0  0  0  0  0  0  0  0  0  0
  127.7190  122.7050   62.3690 C   0  0  0  0  0  0  0  0  0  0  0  0
  127.8610  122.5110   63.5760 O   0  0  0  0  0  0  0  0  0  0  0  0
  134.2030  121.2930   61.8910 C   0  0  0  0  0  0  0  0  0  0  0  0
  133.8780  119.9620   61.6470 C   0  0  0  0  0  0  0  0  0  0  0  0
  1  2  1  0
  2  3  1  0
  3  4  2  0
  4  5  1  0
  5  6  2  0
  6  7  1  0
  7  8  1  0
  8  9  1  0
  9 10  2  0
 10 11  1  0
 11 12  2  0
 12 13  1  0
 13 14  1  0
 14 15  1  0
 15 16  1  0
 16 17  1  0
 17 18  1  0
 18 19  1  0
 19 20  1  0
 20 21  1  0
 21 22  1  0
 22 23  1  0
 14 24  1  0
 24 25  1  0
 25 26  2  0
 26 27  1  0
 27 28  2  0
 28 29  1  0
 28 30  1  0
 30 31  2  0
 31 32  1  0
 32 33  1  0
 32 34  2  0
 34 35  1  0
 35 36  1  0
 36 37  2  0
  6 38  1  0
 38 39  2  0
 39  3  1  0
 12  8  1  0
 23 18  1  0
 36 25  1  0
 34 27  1  0
M  END
>  <Binding energies>  (70) 
[-10.6]

>  <Ligand effiencies>  (70) 
[-0.265]

>  <Interactions>  (70) 
["V-A:HIS:456:CE1:4069, H-A:GLY:454:N:4049, H-A:ARG:545:NH2:4928, V-B:GLU:543:CG:9879, H-B:ALA:541:N:9863, V-A:ASP:366:CG:3212, H-A:TYR:484:OH:4347, V-B:GLU:543:CD:9880, H-B:ALA:541:O:9861, H-B:GLU:543:OE1:9881, H-A:ARG:545:NE:4924, V-B:ALA:541:CB:9864, V-A:GLY:453:C:4041, V-A:ARG:545:CG:4922, V-A:GLY:453:CA:4043, V-B:ASP:366:CG:8184, V-A:GLU:543:CD:4908, V-A:PRO:482:CG:4326, V-B:PRO:540:CB:9857, V-B:TYR:539:CE2:9848, V-B:PRO:540:CA:9855, V-B:MET:535:CE:9807, V-B:TYR:539:CD2:9846, V-B:TYR:531:CE2:9765, V-B:LEU:363:CD1:8160, V-A:GLY:454:CA:4048, V-A:ILE:369:CG2:3236, V-A:LEU:475:CD1:4257, V-B:ALA:541:CA:9862, V-B:PRO:540:C:9853, V-A:SER:385:C:3404, V-A:ILE:369:CD1:3238, V-A:SER:385:CA:3406, V-B:GLU:543:CB:9878, V-B:LEU:363:CA:8156, H-A:ARG:545:NH1:4927, H-A:SER:385:OG:3409, H-A:HIS:383:NE2:3393, V-B:ASN:362:C:8143, V-B:ASN:362:CA:8145, V-B:ASN:362:CB:8147"]

$$$$
RR15_Rahimova_2017
     RDKit          3D

 45 49  0  0  0  0  0  0  0  0999 V2000
  133.7390  120.0970   61.1670 C   0  0  0  0  0  0  0  0  0  0  0  0
  133.2570  121.3860   61.5300 O   0  0  0  0  0  0  0  0  0  0  0  0
  132.9020  122.2860   60.5400 C   0  0  0  0  0  0  0  0  0  0  0  0
  133.8030  123.1850   59.9480 C   0  0  0  0  0  0  0  0  0  0  0  0
  133.3800  124.0670   58.9560 C   0  0  0  0  0  0  0  0  0  0  0  0
  132.0490  124.0780   58.5290 C   0  0  0  0  0  0  0  0  0  0  0  0
  131.5910  125.0350   57.4630 C   0  0  0  0  0  0  0  0  0  0  0  0
  132.3270  125.3390   56.4030 N   0  0  0  0  0  0  0  0  0  0  0  0
  131.5850  126.2420   55.6690 N   0  0  0  0  0  0  0  0  0  0  0  0
  130.4500  126.3510   56.3600 N   0  0  0  0  0  0  0  0  0  0  0  0
  129.4290  127.3410   56.0210 C   0  0  0  0  0  0  0  0  0  0  0  0
  128.9680  128.2290   57.2040 C   0  0  0  0  0  0  0  0  0  0  0  0
  129.8130  128.9210   57.7760 O   0  0  0  0  0  0  0  0  0  0  0  0
  127.6470  128.2510   57.5610 N   0  0  0  0  0  0  0  0  0  0  0  0
  127.1460  127.4530   58.6970 C   0  0  0  0  0  0  0  0  0  0  0  0
  125.8740  126.6420   58.3700 C   0  0  0  0  0  0  0  0  0  0  0  0
  125.9110  125.1640   58.8240 C   0  0  0  0  0  0  0  0  0  0  0  0
  126.3490  124.2360   57.7770 N   0  0  0  0  0  0  0  0  0  0  0  0
  127.4320  123.3370   58.2030 C   0  0  0  0  0  0  0  0  0  0  0  0
  127.7960  122.3260   57.0950 C   0  0  0  0  0  0  0  0  0  0  0  0
  126.6360  121.6120   56.6810 O   0  0  0  0  0  0  0  0  0  0  0  0
  125.6240  122.4730   56.1700 C   0  0  0  0  0  0  0  0  0  0  0  0
  125.1980  123.4870   57.2540 C   0  0  0  0  0  0  0  0  0  0  0  0
  126.6540  129.2050   56.9790 C   0  0  2  0  0  0  0  0  0  0  0  0
  127.1570  129.9490   55.7030 C   0  0  0  0  0  0  0  0  0  0  0  0
  126.4940  129.9530   54.6660 O   0  0  0  0  0  0  0  0  0  0  0  0
  128.3240  130.6050   55.8350 N   0  0  0  0  0  0  0  0  0  0  0  0
  128.9370  131.4500   54.8160 C   0  0  0  0  0  0  0  0  0  0  0  0
  130.1720  132.1830   55.3710 C   0  0  2  0  0  0  0  0  0  0  0  0
  131.5060  131.4310   55.2260 C   0  0  0  0  0  0  0  0  0  0  0  0
  131.7640  130.8500   56.5950 C   0  0  0  0  0  0  0  0  0  0  0  0
  131.1620  131.9180   57.4920 C   0  0  0  0  0  0  0  0  0  0  0  0
  129.9770  132.2770   56.7890 O   0  0  0  0  0  0  0  0  0  0  0  0
  126.0100  130.0460   58.0750 C   0  0  0  0  0  0  0  0  0  0  0  0
  124.6150  130.0290   58.1870 C   0  0  0  0  0  0  0  0  0  0  0  0
  123.9730  130.7790   59.1680 C   0  0  0  0  0  0  0  0  0  0  0  0
  124.7240  131.5520   60.0490 C   0  0  0  0  0  0  0  0  0  0  0  0
  124.1010  132.2790   61.0030 F   0  0  0  0  0  0  0  0  0  0  0  0
  126.1130  131.5800   59.9540 C   0  0  0  0  0  0  0  0  0  0  0  0
  126.7540  130.8310   58.9720 C   0  0  0  0  0  0  0  0  0  0  0  0
  130.4240  125.6520   57.5010 N   0  0  0  0  0  0  0  0  0  0  0  0
  131.1520  123.1780   59.1200 C   0  0  0  0  0  0  0  0  0  0  0  0
  131.5640  122.2800   60.1190 C   0  0  0  0  0  0  0  0  0  0  0  0
  130.7180  121.3710   60.7300 O   0  0  0  0  0  0  0  0  0  0  0  0
  129.3980  121.7670   61.0850 C   0  0  0  0  0  0  0  0  0  0  0  0
  1  2  1  0
  2  3  1  0
  3  4  2  0
  4  5  1  0
  5  6  2  0
  6  7  1  0
  7  8  1  0
  8  9  2  0
  9 10  1  0
 10 11  1  0
 11 12  1  0
 12 13  2  0
 12 14  1  0
 14 15  1  0
 15 16  1  0
 16 17  1  0
 17 18  1  0
 18 19  1  0
 19 20  1  0
 20 21  1  0
 21 22  1  0
 22 23  1  0
 24 14  1  1
 24 25  1  0
 25 26  2  0
 25 27  1  0
 27 28  1  0
 29 28  1  6
 29 30  1  0
 30 31  1  0
 31 32  1  0
 32 33  1  0
 24 34  1  0
 34 35  2  0
 35 36  1  0
 36 37  2  0
 37 38  1  0
 37 39  1  0
 39 40  2  0
 10 41  1  0
  6 42  1  0
 42 43  2  0
 43 44  1  0
 44 45  1  0
 43  3  1  0
 41  7  2  0
 23 18  1  0
 33 29  1  0
 40 34  1  0
M  END
>  <Binding energies>  (71) 
[-10.47]

>  <Ligand effiencies>  (71) 
[-0.22760869565217393]

>  <Interactions>  (71) 
["V-A:ASP:366:CG:3212, V-B:ALA:541:CB:9864, V-A:TYR:539:CD1:4873, H-A:TYR:539:OH:4878, V-A:PRO:540:CB:4885, V-A:ILE:538:CB:4862, V-A:ILE:538:CG2:4863, V-A:LEU:363:CD1:3188, V-A:PRO:540:N:4884, V-A:TYR:531:CE2:4793, V-A:TYR:539:CE1:4875, V-A:PRO:540:CA:4883, H-B:LYS:534:NZ:9795, V-B:ILE:369:CG2:8208, V-B:ASP:366:CG:8184, V-B:ASP:366:CA:8181, V-B:ILE:369:CD1:8210, H-B:TYR:531:OH:9767, V-B:ILE:369:CB:8207, V-A:TYR:531:CZ:4794, V-A:ILE:538:CA:4860, V-B:ASP:366:CB:8183, V-B:ILE:369:CG1:8209, V-A:TYR:539:C:4867, V-A:PRO:540:CD:4887, V-A:TYR:539:CZ:4877, V-A:ILE:538:C:4858, V-B:ASP:366:C:8179, V-B:TYR:539:CE2:9848, V-B:PRO:540:N:9856, V-B:MET:535:CE:9807, V-B:TYR:539:CD2:9846, V-B:TYR:531:CE2:9765, V-B:TYR:539:C:9839, V-B:TYR:531:CZ:9766, V-B:LEU:363:CD1:8160, V-A:ILE:369:CG2:3236, V-A:ASP:366:CB:3211, V-A:ILE:369:CB:3235, V-A:LEU:475:CD1:4257, V-A:SER:385:C:3404, V-A:ILE:369:CD1:3238, V-B:TYR:531:CE1:9764, V-B:TYR:539:CG:9844, V-B:TYR:539:CZ:9849, H-B:TYR:539:OH:9850, H-A:TYR:531:OH:4795, H-A:TYR:539:N:4870, V-A:ASP:366:CA:3209, V-B:TYR:539:CE1:9847, V-B:TYR:539:CD1:9845, H-B:TYR:539:N:9842"]

$$$$
RR17_Rahimova_2017
     RDKit          3D

 38 41  0  0  0  0  0  0  0  0999 V2000
  125.2930  122.3490   56.1870 C   0  0  0  0  0  0  0  0  0  0  0  0
  126.3120  123.2660   56.8700 C   0  0  0  0  0  0  0  0  0  0  0  0
  125.6200  124.3700   57.4460 O   0  0  0  0  0  0  0  0  0  0  0  0
  126.1190  124.9600   58.5930 C   0  0  0  0  0  0  0  0  0  0  0  0
  125.9090  124.2730   59.7870 C   0  0  0  0  0  0  0  0  0  0  0  0
  126.3740  124.7890   60.9930 C   0  0  0  0  0  0  0  0  0  0  0  0
  127.0610  126.0110   61.0280 C   0  0  0  0  0  0  0  0  0  0  0  0
  127.5520  126.5420   62.3440 C   0  0  0  0  0  0  0  0  0  0  0  0
  128.0890  125.8200   63.1900 O   0  0  0  0  0  0  0  0  0  0  0  0
  127.3430  128.0490   62.6140 C   0  0  0  0  0  0  0  0  0  0  0  0
  126.3960  128.3490   64.1490 S   0  0  0  0  0  0  0  0  0  0  0  0
  125.2750  129.5960   63.5770 C   0  0  0  0  0  0  0  0  0  0  0  0
  123.9920  129.6460   63.8460 N   0  0  0  0  0  0  0  0  0  0  0  0
  123.4700  130.7720   63.2220 N   0  0  0  0  0  0  0  0  0  0  0  0
  124.4600  131.3640   62.6030 C   0  0  0  0  0  0  0  0  0  0  0  0
  124.3310  132.6490   61.7990 C   0  0  0  0  0  0  0  0  0  0  0  0
  125.4540  133.5670   61.9700 N   0  0  0  0  0  0  0  0  0  0  0  0
  125.5770  134.7880   61.2810 C   0  0  0  0  0  0  0  0  0  0  0  0
  124.4610  135.2460   60.5830 C   0  0  0  0  0  0  0  0  0  0  0  0
  124.5160  136.4430   59.8750 C   0  0  0  0  0  0  0  0  0  0  0  0
  125.6910  137.2000   59.8620 C   0  0  0  0  0  0  0  0  0  0  0  0
  125.7370  138.5100   59.0750 C   0  0  0  0  0  0  0  0  0  0  0  0
  124.6000  139.2020   59.1790 F   0  0  0  0  0  0  0  0  0  0  0  0
  126.7310  139.2820   59.5140 F   0  0  0  0  0  0  0  0  0  0  0  0
  125.9440  138.2380   57.7860 F   0  0  0  0  0  0  0  0  0  0  0  0
  126.8090  136.7460   60.5680 C   0  0  0  0  0  0  0  0  0  0  0  0
  126.7530  135.5500   61.2760 C   0  0  0  0  0  0  0  0  0  0  0  0
  125.6350  130.6620   62.7770 N   0  0  0  0  0  0  0  0  0  0  0  0
  126.9080  130.9790   62.2800 C   0  0  0  0  0  0  0  0  0  0  0  0
  127.9640  131.1740   63.1710 C   0  0  0  0  0  0  0  0  0  0  0  0
  129.2260  131.4920   62.6780 C   0  0  0  0  0  0  0  0  0  0  0  0
  129.4360  131.6170   61.2950 C   0  0  0  0  0  0  0  0  0  0  0  0
  130.6520  131.9290   60.7170 O   0  0  0  0  0  0  0  0  0  0  0  0
  131.7830  131.1100   60.9950 C   0  0  0  0  0  0  0  0  0  0  0  0
  128.3660  131.4200   60.4190 C   0  0  0  0  0  0  0  0  0  0  0  0
  127.1010  131.1010   60.9050 C   0  0  0  0  0  0  0  0  0  0  0  0
  127.2720  126.7010   59.8260 C   0  0  0  0  0  0  0  0  0  0  0  0
  126.8070  126.1820   58.6200 C   0  0  0  0  0  0  0  0  0  0  0  0
  1  2  1  0
  2  3  1  0
  3  4  1  0
  4  5  2  0
  5  6  1  0
  6  7  2  0
  7  8  1  0
  8  9  2  0
  8 10  1  0
 10 11  1  0
 11 12  1  0
 12 13  2  0
 13 14  1  0
 14 15  2  0
 15 16  1  0
 16 17  1  0
 17 18  1  0
 18 19  2  0
 19 20  1  0
 20 21  2  0
 21 22  1  0
 22 23  1  0
 22 24  1  0
 22 25  1  0
 21 26  1  0
 26 27  2  0
 15 28  1  0
 28 29  1  0
 29 30  2  0
 30 31  1  0
 31 32  2  0
 32 33  1  0
 33 34  1  0
 32 35  1  0
 35 36  2  0
  7 37  1  0
 37 38  2  0
 38  4  1  0
 28 12  1  0
 36 29  1  0
 27 18  1  0
M  END
>  <Binding energies>  (72) 
[-8.59]

>  <Ligand effiencies>  (72) 
[-0.22025641025641024]

>  <Interactions>  (72) 
["V-B:GLU:543:CD:9880, V-A:TYR:539:CD1:4873, V-A:PRO:540:CB:4885, V-A:PRO:540:CA:4883, V-B:ILE:369:CG2:8208, V-B:LEU:475:CD1:9229, V-A:ALA:541:CB:4892, V-B:ILE:369:CD1:8210, H-B:TYR:531:OH:9767, H-A:ALA:541:N:4891, V-A:GLU:543:CD:4908, V-A:TYR:539:CD2:4874, V-A:ALA:541:CA:4890, V-A:GLU:543:CG:4907, V-A:TYR:539:CG:4872, V-B:PRO:540:CD:9859, V-B:MET:535:CE:9807, V-B:TYR:531:CE2:9765, H-B:ARG:545:NH2:9900, V-B:LEU:363:CD1:8160, V-B:ARG:545:CZ:9898, V-B:PRO:482:CB:9297, V-A:TYR:539:CB:4871, V-B:PRO:482:CG:9298, V-B:LEU:373:CD1:8251, V-B:SER:385:CB:8380, V-A:ILE:343:CG2:2991, V-B:HIS:383:CD2:8363, V-B:LEU:373:CG:8250, V-A:VAL:344:CG1:3000, V-B:LEU:373:CD2:8252, H-B:GLY:454:N:9021, H-B:ARG:545:NH1:9899, V-A:ILE:343:CB:2990, V-A:ILE:343:CG1:2992"]

$$$$
RR19_Rahimova_2017
     RDKit          3D

 46 51  0  0  0  0  0  0  0  0999 V2000
  133.0950  123.6370   59.9450 O   0  0  0  0  0  0  0  0  0  0  0  0
  132.8080  124.4090   60.8650 C   0  0  0  0  0  0  0  0  0  0  0  0
  131.9670  125.4710   60.7800 N   0  0  0  0  0  0  0  0  0  0  0  0
  131.0650  125.8770   59.8270 C   0  0  0  0  0  0  0  0  0  0  0  0
  130.5560  124.9610   58.4980 S   0  0  0  0  0  0  0  0  0  0  0  0
  130.6450  127.1480   60.1330 N   0  0  0  0  0  0  0  0  0  0  0  0
  129.6780  127.9500   59.6210 C   0  0  0  0  0  0  0  0  0  0  0  0
  128.7950  127.6170   58.8270 O   0  0  0  0  0  0  0  0  0  0  0  0
  129.7610  129.4210   60.1030 C   0  0  2  0  0  0  0  0  0  0  0  0
  131.1720  130.0670   59.9870 C   0  0  0  0  0  0  0  0  0  0  0  0
  131.4840  130.7060   58.6430 C   0  0  0  0  0  0  0  0  0  0  0  0
  132.5330  130.2180   57.8350 C   0  0  0  0  0  0  0  0  0  0  0  0
  132.7520  130.7620   56.5770 C   0  0  0  0  0  0  0  0  0  0  0  0
  131.9300  131.7760   56.0990 C   0  0  0  0  0  0  0  0  0  0  0  0
  130.8750  132.2460   56.8710 C   0  0  0  0  0  0  0  0  0  0  0  0
  130.6370  131.7130   58.1310 C   0  0  0  0  0  0  0  0  0  0  0  0
  129.2010  129.5730   61.4730 N   0  0  0  0  0  0  0  0  0  0  0  0
  129.0620  130.8000   62.0500 C   0  0  0  0  0  0  0  0  0  0  0  0
  129.3830  131.8900   61.5730 O   0  0  0  0  0  0  0  0  0  0  0  0
  128.4380  130.5490   63.3730 C   0  0  0  0  0  0  0  0  0  0  0  0
  128.0700  131.4270   64.3920 C   0  0  0  0  0  0  0  0  0  0  0  0
  127.4830  130.9020   65.5490 C   0  0  0  0  0  0  0  0  0  0  0  0
  127.2730  129.5220   65.6710 C   0  0  0  0  0  0  0  0  0  0  0  0
  127.6480  128.6580   64.6360 C   0  0  0  0  0  0  0  0  0  0  0  0
  128.2330  129.2010   63.4910 C   0  0  0  0  0  0  0  0  0  0  0  0
  128.7190  128.5540   62.2470 C   0  0  0  0  0  0  0  0  0  0  0  0
  128.6850  127.3540   61.9710 O   0  0  0  0  0  0  0  0  0  0  0  0
  133.4470  124.2050   62.2640 C   0  0  2  0  0  0  0  0  0  0  0  0
  133.9700  122.7610   62.5130 C   0  0  0  0  0  0  0  0  0  0  0  0
  133.0240  121.6720   62.0410 C   0  0  0  0  0  0  0  0  0  0  0  0
  131.6660  121.6990   62.4250 C   0  0  0  0  0  0  0  0  0  0  0  0
  130.7800  120.7610   61.9100 C   0  0  0  0  0  0  0  0  0  0  0  0
  131.2180  119.8120   60.9960 C   0  0  0  0  0  0  0  0  0  0  0  0
  132.5430  119.7980   60.5780 C   0  0  0  0  0  0  0  0  0  0  0  0
  133.4450  120.7260   61.0820 C   0  0  0  0  0  0  0  0  0  0  0  0
  132.5810  124.6730   63.3830 N   0  0  0  0  0  0  0  0  0  0  0  0
  133.1080  125.1240   64.5560 C   0  0  0  0  0  0  0  0  0  0  0  0
  134.2990  125.1950   64.8620 O   0  0  0  0  0  0  0  0  0  0  0  0
  131.9410  125.5140   65.3870 C   0  0  0  0  0  0  0  0  0  0  0  0
  131.8720  126.0340   66.6800 C   0  0  0  0  0  0  0  0  0  0  0  0
  130.6130  126.3160   67.2220 C   0  0  0  0  0  0  0  0  0  0  0  0
  129.4530  126.0800   66.4740 C   0  0  0  0  0  0  0  0  0  0  0  0
  129.5430  125.5600   65.1780 C   0  0  0  0  0  0  0  0  0  0  0  0
  130.8080  125.2830   64.6560 C   0  0  0  0  0  0  0  0  0  0  0  0
  131.2180  124.7400   63.3380 C   0  0  0  0  0  0  0  0  0  0  0  0
  130.4840  124.4190   62.4030 O   0  0  0  0  0  0  0  0  0  0  0  0
  1  2  2  0
  2  3  1  0
  3  4  1  0
  4  5  2  0
  4  6  1  0
  6  7  1  0
  7  8  2  0
  7  9  1  0
  9 10  1  1
 10 11  1  0
 11 12  2  0
 12 13  1  0
 13 14  2  0
 14 15  1  0
 15 16  2  0
  9 17  1  0
 17 18  1  0
 18 19  2  0
 18 20  1  0
 20 21  2  0
 21 22  1  0
 22 23  2  0
 23 24  1  0
 24 25  2  0
 25 26  1  0
 26 27  2  0
  2 28  1  0
 28 29  1  1
 29 30  1  0
 30 31  2  0
 31 32  1  0
 32 33  2  0
 33 34  1  0
 34 35  2  0
 28 36  1  0
 36 37  1  0
 37 38  2  0
 37 39  1  0
 39 40  2  0
 40 41  1  0
 41 42  2  0
 42 43  1  0
 43 44  2  0
 44 45  1  0
 45 46  2  0
 16 11  1  0
 26 17  1  0
 35 30  1  0
 45 36  1  0
 25 20  1  0
 44 39  1  0
M  END
>  <Binding energies>  (73) 
[-11.63]

>  <Ligand effiencies>  (73) 
[-0.24229166666666668]

>  <Interactions>  (73) 
["V-A:HIS:456:CE1:4069, H-A:GLY:454:N:4049, H-A:ARG:545:NH2:4928, V-B:GLU:543:CG:9879, V-A:ARG:545:CZ:4926, V-A:ASP:366:CG:3212, H-A:TYR:484:OH:4347, V-B:GLU:543:CD:9880, H-A:ARG:545:NE:4924, V-B:ALA:541:CB:9864, V-A:GLY:453:C:4041, V-A:PRO:540:CB:4885, V-A:ILE:538:CB:4862, V-A:LEU:363:CD1:3188, H-A:ASP:366:OD2:3214, V-A:PRO:540:N:4884, V-A:TYR:531:CE2:4793, V-A:PRO:540:CA:4883, V-A:ALA:541:CB:4892, V-A:TYR:531:CZ:4794, H-A:ALA:541:N:4891, V-A:TYR:539:C:4867, V-A:PRO:540:CD:4887, V-A:GLU:543:CD:4908, V-A:GLU:543:CG:4907, V-B:TYR:539:CD2:9846, V-A:GLY:454:CA:4048, V-A:ILE:369:CG2:3236, V-A:ASP:366:CB:3211, V-A:LEU:475:CD1:4257, V-A:ILE:369:CD1:3238, V-B:GLU:543:CB:9878, V-B:TYR:484:CZ:9318, V-B:TYR:484:CE2:9317, H-A:ASP:366:OD1:3213, H-A:ARG:545:NH1:4927"]

$$$$
RR1_Rahimova_2017
     RDKit          3D

 41 44  0  0  0  0  0  0  0  0999 V2000
  125.0010  122.0150   54.9750 C   0  0  0  0  0  0  0  0  0  0  0  0
  126.0930  121.5370   55.7520 O   0  0  0  0  0  0  0  0  0  0  0  0
  126.4240  122.1890   56.9230 C   0  0  0  0  0  0  0  0  0  0  0  0
  125.5120  122.9030   57.7170 C   0  0  0  0  0  0  0  0  0  0  0  0
  125.9400  123.5370   58.8800 C   0  0  0  0  0  0  0  0  0  0  0  0
  127.2770  123.4650   59.2730 C   0  0  0  0  0  0  0  0  0  0  0  0
  127.6210  124.1770   60.4380 N   0  0  0  0  0  0  0  0  0  0  0  0
  127.7530  123.7300   61.7050 C   0  0  0  0  0  0  0  0  0  0  0  0
  127.5140  122.5790   62.0720 O   0  0  0  0  0  0  0  0  0  0  0  0
  128.2330  124.7890   62.7100 C   0  0  0  0  0  0  0  0  0  0  0  0
  129.9290  125.4140   62.4390 S   0  0  0  0  0  0  0  0  0  0  0  0
  130.5250  124.0760   61.4610 C   0  0  0  0  0  0  0  0  0  0  0  0
  130.5260  122.8250   61.8470 N   0  0  0  0  0  0  0  0  0  0  0  0
  131.0410  122.1730   60.8100 C   0  0  0  0  0  0  0  0  0  0  0  0
  131.2200  120.6810   60.8070 C   0  0  0  0  0  0  0  0  0  0  0  0
  130.2450  119.8230   61.3400 C   0  0  0  0  0  0  0  0  0  0  0  0
  130.4400  118.4410   61.3260 C   0  0  0  0  0  0  0  0  0  0  0  0
  131.6180  117.9420   60.7720 C   0  0  0  0  0  0  0  0  0  0  0  0
  132.5810  118.7420   60.2480 N   0  0  0  0  0  0  0  0  0  0  0  0
  132.3720  120.0830   60.2710 C   0  0  0  0  0  0  0  0  0  0  0  0
  131.3810  122.9250   59.7800 N   0  0  0  0  0  0  0  0  0  0  0  0
  131.0510  124.1510   60.1970 N   0  0  0  0  0  0  0  0  0  0  0  0
  131.2460  125.3100   59.3260 C   0  0  0  0  0  0  0  0  0  0  0  0
  130.1790  126.4110   59.4590 C   0  0  0  0  0  0  0  0  0  0  0  0
  128.9760  126.1380   59.3850 O   0  0  0  0  0  0  0  0  0  0  0  0
  130.6640  127.6520   59.6540 N   0  0  0  0  0  0  0  0  0  0  0  0
  129.7630  128.6710   59.9300 N   0  0  0  0  0  0  0  0  0  0  0  0
  130.2190  129.7520   60.5980 C   0  0  0  0  0  0  0  0  0  0  0  0
  131.4060  129.9380   60.8870 O   0  0  0  0  0  0  0  0  0  0  0  0
  129.1730  130.7840   60.9680 C   0  0  0  0  0  0  0  0  0  0  0  0
  128.7700  131.7390   60.0290 C   0  0  0  0  0  0  0  0  0  0  0  0
  127.8200  132.7020   60.3510 C   0  0  0  0  0  0  0  0  0  0  0  0
  127.2460  132.7440   61.6320 C   0  0  0  0  0  0  0  0  0  0  0  0
  126.3070  133.6830   62.0210 O   0  0  0  0  0  0  0  0  0  0  0  0
  126.3000  134.9650   61.4030 C   0  0  0  0  0  0  0  0  0  0  0  0
  127.6410  131.8010   62.5900 C   0  0  0  0  0  0  0  0  0  0  0  0
  127.0610  131.8980   63.8440 O   0  0  0  0  0  0  0  0  0  0  0  0
  127.8140  131.5420   64.9970 C   0  0  0  0  0  0  0  0  0  0  0  0
  128.5980  130.8280   62.2490 C   0  0  0  0  0  0  0  0  0  0  0  0
  128.1920  122.7520   58.4820 C   0  0  0  0  0  0  0  0  0  0  0  0
  127.7600  122.1190   57.3210 C   0  0  0  0  0  0  0  0  0  0  0  0
  1  2  1  0
  2  3  1  0
  3  4  2  0
  4  5  1  0
  5  6  2  0
  6  7  1  0
  7  8  1  0
  8  9  2  0
  8 10  1  0
 10 11  1  0
 11 12  1  0
 12 13  2  0
 13 14  1  0
 14 15  1  0
 15 16  2  0
 16 17  1  0
 17 18  2  0
 18 19  1  0
 19 20  2  0
 14 21  2  0
 21 22  1  0
 22 23  1  0
 23 24  1  0
 24 25  2  0
 24 26  1  0
 26 27  1  0
 27 28  1  0
 28 29  2  0
 28 30  1  0
 30 31  2  0
 31 32  1  0
 32 33  2  0
 33 34  1  0
 34 35  1  0
 33 36  1  0
 36 37  1  0
 37 38  1  0
 36 39  2  0
  6 40  1  0
 40 41  2  0
 41  3  1  0
 22 12  1  0
 39 30  1  0
 20 15  1  0
M  END
>  <Binding energies>  (74) 
[-8.54]

>  <Ligand effiencies>  (74) 
[-0.19409090909090906]

>  <Interactions>  (74) 
["V-B:GLU:543:CG:9879, H-B:ALA:541:N:9863, V-A:ASP:366:CG:3212, V-B:GLU:543:CD:9880, V-B:ALA:541:CB:9864, V-A:TYR:539:CD1:4873, H-A:ASP:366:OD2:3214, V-A:TYR:539:CE1:4875, V-B:LEU:475:CD1:9229, V-A:ALA:541:CB:4892, V-A:GLU:543:CD:4908, V-A:GLU:543:CG:4907, V-A:PRO:482:CG:4326, V-B:PRO:540:CB:9857, V-B:TYR:539:CE2:9848, V-B:PRO:540:CD:9859, V-B:PRO:540:N:9856, V-B:PRO:540:CA:9855, V-B:MET:535:CE:9807, V-B:TYR:539:CA:9841, V-B:TYR:539:CD2:9846, V-A:PRO:482:CB:4325, V-B:TYR:539:C:9839, V-B:LEU:363:CD1:8160, V-A:ILE:369:CG2:3236, V-B:TYR:539:CG:9844, V-B:TYR:484:CE2:9317, V-B:ILE:538:CG2:9835, H-B:TYR:539:N:9842, V-B:ILE:538:CA:9832, H-A:SER:385:OG:3409, H-A:HIS:383:NE2:3393, V-B:MET:535:CG:9805, V-B:ILE:538:CB:9834, V-B:ILE:538:CG1:9836"]

$$$$
RR22_Rahimova_2017
     RDKit          3D

 31 36  0  0  0  0  0  0  0  0999 V2000
  123.7180  129.6660   55.7400 O   0  0  0  0  0  0  0  0  0  0  0  0
  124.6250  129.6700   56.5690 C   0  0  0  0  0  0  0  0  0  0  0  0
  124.5230  129.4660   57.9340 N   0  0  0  0  0  0  0  0  0  0  0  0
  125.6940  129.4420   58.7570 C   0  0  1  0  0  0  0  0  0  0  0  0
  125.4650  130.4330   59.7630 O   0  0  0  0  0  0  0  0  0  0  0  0
  125.4610  130.0320   61.0990 C   0  0  0  0  0  0  0  0  0  0  0  0
  124.8820  130.9130   62.0120 C   0  0  0  0  0  0  0  0  0  0  0  0
  124.8770  130.6000   63.3710 C   0  0  0  0  0  0  0  0  0  0  0  0
  125.4570  129.4110   63.8160 C   0  0  0  0  0  0  0  0  0  0  0  0
  126.0370  128.5290   62.9030 C   0  0  0  0  0  0  0  0  0  0  0  0
  126.0280  128.8190   61.5350 C   0  0  0  0  0  0  0  0  0  0  0  0
  126.6660  127.9520   60.4720 C   0  0  1  0  0  0  0  0  0  0  0  0
  126.7420  126.4440   60.5890 C   0  0  0  0  0  0  0  0  0  0  0  0
  126.7020  126.0640   59.1060 C   0  0  0  0  0  0  0  0  0  0  0  0
  127.1310  124.7410   58.6090 C   0  0  0  0  0  0  0  0  0  0  0  0
  126.2370  123.9190   57.9070 C   0  0  0  0  0  0  0  0  0  0  0  0
  126.6480  122.6730   57.4400 C   0  0  0  0  0  0  0  0  0  0  0  0
  127.9510  122.2430   57.6700 C   0  0  0  0  0  0  0  0  0  0  0  0
  128.8510  123.0480   58.3640 C   0  0  0  0  0  0  0  0  0  0  0  0
  128.4430  124.2940   58.8310 C   0  0  0  0  0  0  0  0  0  0  0  0
  126.2340  127.0210   58.3970 N   0  0  0  0  0  0  0  0  0  0  0  0
  125.9100  128.0790   59.2630 N   0  0  0  0  0  0  0  0  0  0  0  0
  126.8430  129.9410   57.8930 C   0  0  0  0  0  0  0  0  0  0  0  0
  128.0170  130.3750   58.4070 C   0  0  0  0  0  0  0  0  0  0  0  0
  129.2110  130.8620   57.6900 C   0  0  0  0  0  0  0  0  0  0  0  0
  130.4860  130.3000   57.8510 C   0  0  0  0  0  0  0  0  0  0  0  0
  131.5700  130.8140   57.1390 C   0  0  0  0  0  0  0  0  0  0  0  0
  131.3510  131.8910   56.2800 C   0  0  0  0  0  0  0  0  0  0  0  0
  130.1320  132.4610   56.1100 N   0  0  0  0  0  0  0  0  0  0  0  0
  129.0890  131.9460   56.8110 C   0  0  0  0  0  0  0  0  0  0  0  0
  126.3790  129.9580   56.1850 S   0  0  0  0  0  0  0  0  0  0  0  0
  1  2  2  0
  2  3  1  0
  4  3  1  6
  4  5  1  0
  5  6  1  0
  6  7  2  0
  7  8  1  0
  8  9  2  0
  9 10  1  0
 10 11  2  0
 11 12  1  0
 12 13  1  1
 13 14  1  0
 14 15  1  0
 15 16  2  0
 16 17  1  0
 17 18  2  0
 18 19  1  0
 19 20  2  0
 14 21  2  0
 21 22  1  0
  4 23  1  0
 23 24  2  0
 24 25  1  0
 25 26  2  0
 26 27  1  0
 27 28  2  0
 28 29  1  0
 29 30  2  0
 23 31  1  0
 31  2  1  0
 22  4  1  0
 30 25  1  0
 11  6  1  0
 22 12  1  0
 20 15  1  0
M  END
>  <Binding energies>  (75) 
[-9.19]

>  <Ligand effiencies>  (75) 
[-0.2871875]

>  <Interactions>  (75) 
["V-A:TYR:539:CD1:4873, H-A:TYR:539:OH:4878, V-A:ILE:538:CB:4862, V-A:PRO:540:N:4884, V-A:TYR:539:CE1:4875, V-B:ASP:366:CG:8184, V-B:ASP:366:CA:8181, H-B:TYR:531:OH:9767, V-B:ASP:366:CB:8183, V-A:TYR:539:C:4867, V-A:PRO:540:CD:4887, V-A:TYR:539:CZ:4877, V-A:TYR:539:CG:4872, V-B:ASP:366:C:8179, V-B:PRO:540:CB:9857, V-B:TYR:539:CE2:9848, V-B:PRO:540:N:9856, V-B:PRO:540:CA:9855, V-B:MET:535:CE:9807, V-B:TYR:539:CD2:9846, V-B:TYR:539:C:9839, V-B:TYR:531:CZ:9766, V-B:TYR:531:CE1:9764, V-B:TYR:539:CG:9844, V-B:ARG:545:CZ:9898, H-A:TYR:539:N:4870, H-B:ASP:366:O:8180, H-B:ASP:366:OD2:8186, V-B:TYR:531:CD1:9762"]

$$$$
RR24_Rahimova_2017
     RDKit          3D

 43 49  0  0  0  0  0  0  0  0999 V2000
  128.9510  132.4830   55.0430 C   0  0  0  0  0  0  0  0  0  0  0  0
  129.7300  131.1730   55.2280 C   0  0  2  0  0  0  0  0  0  0  0  0
  128.8500  129.9030   55.0330 C   0  0  0  0  0  0  0  0  0  0  0  0
  127.6300  129.9150   55.2210 O   0  0  0  0  0  0  0  0  0  0  0  0
  129.5840  128.8110   54.6670 O   0  0  0  0  0  0  0  0  0  0  0  0
  129.5640  127.6840   55.4570 C   0  0  0  0  0  0  0  0  0  0  0  0
  130.0800  126.4870   54.9550 C   0  0  0  0  0  0  0  0  0  0  0  0
  130.0740  125.3430   55.7480 C   0  0  0  0  0  0  0  0  0  0  0  0
  129.5610  125.3920   57.0480 C   0  0  0  0  0  0  0  0  0  0  0  0
  129.5390  124.1240   57.9090 C   0  0  1  0  0  0  0  0  0  0  0  0
  130.7780  124.0310   58.8320 C   0  0  0  0  0  0  0  0  0  0  0  0
  130.6850  123.8040   60.1550 C   0  0  0  0  0  0  0  0  0  0  0  0
  129.4770  123.6390   60.7860 N   0  0  0  0  0  0  0  0  0  0  0  0
  128.2920  123.7000   60.0900 C   0  0  0  0  0  0  0  0  0  0  0  0
  127.1900  123.5080   60.8590 N   0  0  0  0  0  0  0  0  0  0  0  0
  125.9270  123.6110   60.3600 C   0  0  0  0  0  0  0  0  0  0  0  0
  124.9810  123.7450   61.1380 O   0  0  0  0  0  0  0  0  0  0  0  0
  125.8730  123.7190   58.9790 N   0  0  0  0  0  0  0  0  0  0  0  0
  124.5230  123.7420   58.3780 C   0  0  0  0  0  0  0  0  0  0  0  0
  126.9270  123.9200   58.1050 C   0  0  0  0  0  0  0  0  0  0  0  0
  126.7990  124.0600   56.8850 O   0  0  0  0  0  0  0  0  0  0  0  0
  128.2430  123.9300   58.7520 C   0  0  0  0  0  0  0  0  0  0  0  0
  132.0020  123.7680   60.7670 C   0  0  0  0  0  0  0  0  0  0  0  0
  132.4360  123.5740   62.0790 C   0  0  0  0  0  0  0  0  0  0  0  0
  133.8060  123.5960   62.3540 C   0  0  0  0  0  0  0  0  0  0  0  0
  134.7280  123.8080   61.3240 C   0  0  0  0  0  0  0  0  0  0  0  0
  134.2870  124.0010   60.0120 C   0  0  0  0  0  0  0  0  0  0  0  0
  132.9170  123.9800   59.7440 C   0  0  0  0  0  0  0  0  0  0  0  0
  132.1860  124.1500   58.4700 C   0  0  0  0  0  0  0  0  0  0  0  0
  132.6180  124.3490   57.3360 O   0  0  0  0  0  0  0  0  0  0  0  0
  129.0620  126.5970   57.5540 C   0  0  0  0  0  0  0  0  0  0  0  0
  129.0690  127.7410   56.7620 C   0  0  0  0  0  0  0  0  0  0  0  0
  130.4860  131.1480   56.5150 N   0  0  0  0  0  0  0  0  0  0  0  0
  131.8490  131.1520   56.5410 C   0  0  0  0  0  0  0  0  0  0  0  0
  132.6150  131.1670   55.5760 O   0  0  0  0  0  0  0  0  0  0  0  0
  132.2160  131.1340   57.9780 C   0  0  0  0  0  0  0  0  0  0  0  0
  133.4650  131.1280   58.6020 C   0  0  0  0  0  0  0  0  0  0  0  0
  133.5140  131.1130   60.0010 C   0  0  0  0  0  0  0  0  0  0  0  0
  132.3300  131.1070   60.7490 C   0  0  0  0  0  0  0  0  0  0  0  0
  131.0880  131.1140   60.1050 C   0  0  0  0  0  0  0  0  0  0  0  0
  131.0600  131.1270   58.7100 C   0  0  0  0  0  0  0  0  0  0  0  0
  129.9200  131.1410   57.7600 C   0  0  0  0  0  0  0  0  0  0  0  0
  128.7190  131.1480   58.0360 O   0  0  0  0  0  0  0  0  0  0  0  0
  2  1  1  1
  2  3  1  0
  3  4  2  0
  3  5  1  0
  5  6  1  0
  6  7  2  0
  7  8  1  0
  8  9  2  0
 10  9  1  1
 10 11  1  0
 11 12  2  0
 12 13  1  0
 13 14  1  0
 14 15  1  0
 15 16  1  0
 16 17  2  0
 16 18  1  0
 18 19  1  0
 18 20  1  0
 20 21  2  0
 20 22  1  0
 12 23  1  0
 23 24  2  0
 24 25  1  0
 25 26  2  0
 26 27  1  0
 27 28  2  0
 28 29  1  0
 29 30  2  0
  9 31  1  0
 31 32  2  0
  2 33  1  0
 33 34  1  0
 34 35  2  0
 34 36  1  0
 36 37  2  0
 37 38  1  0
 38 39  2  0
 39 40  1  0
 40 41  2  0
 41 42  1  0
 42 43  2  0
 32  6  1  0
 42 33  1  0
 22 10  1  0
 28 23  1  0
 41 36  1  0
 29 11  1  0
 22 14  2  0
M  END
>  <Binding energies>  (76) 
[-11.13]

>  <Ligand effiencies>  (76) 
[-0.24733333333333335]

>  <Interactions>  (76) 
["V-A:ASP:366:CG:3212, H-B:GLU:543:OE1:9881, V-A:TYR:539:CD1:4873, H-A:TYR:539:OH:4878, V-A:PRO:540:CB:4885, V-A:ILE:538:CB:4862, V-A:ILE:538:CG2:4863, V-A:LEU:363:CD1:3188, V-A:TYR:539:CE1:4875, V-A:PRO:540:CA:4883, H-B:TYR:531:OH:9767, V-A:ILE:538:CA:4860, V-A:TYR:539:CD2:4874, V-A:TYR:539:CE2:4876, V-A:TYR:539:CZ:4877, V-A:ILE:538:C:4858, V-A:TYR:539:CG:4872, V-B:PRO:540:CB:9857, V-B:TYR:539:CE2:9848, V-B:PRO:540:CA:9855, V-B:MET:535:CE:9807, V-B:LEU:363:CD1:8160, V-A:ILE:369:CG2:3236, V-A:ASP:366:CB:3211, V-A:ILE:369:CB:3235, V-A:ILE:369:CD1:3238, V-B:TYR:539:CZ:9849, H-B:TYR:539:OH:9850, H-A:TYR:531:OH:4795, V-A:LEU:363:CA:3184, V-A:ASN:362:CB:3175, V-A:ASN:362:C:3171, V-B:LEU:363:CA:8156, V-A:LEU:363:CB:3186, V-A:ASP:366:CA:3209, V-B:LEU:363:CB:8158"]

$$$$
RR25_Rahimova_2017
     RDKit          3D

 39 44  0  0  0  0  0  0  0  0999 V2000
  126.5020  131.9040   65.2920 O   0  0  0  0  0  0  0  0  0  0  0  0
  126.6620  130.7650   65.7320 C   0  0  0  0  0  0  0  0  0  0  0  0
  127.8570  130.5200   66.3620 O   0  0  0  0  0  0  0  0  0  0  0  0
  128.0570  129.3730   67.1090 C   0  0  0  0  0  0  0  0  0  0  0  0
  129.0110  129.4440   68.1230 C   0  0  0  0  0  0  0  0  0  0  0  0
  129.2690  128.3230   68.9100 C   0  0  0  0  0  0  0  0  0  0  0  0
  128.5830  127.1190   68.6920 C   0  0  0  0  0  0  0  0  0  0  0  0
  128.8550  125.9290   69.5370 N   0  0  0  0  0  0  0  0  0  0  0  0
  129.2060  124.8870   68.9890 O   0  0  0  0  0  0  0  0  0  0  0  0
  128.7180  126.0280   70.7520 O   0  0  0  0  0  0  0  0  0  0  0  0
  127.6350  127.0650   67.6580 C   0  0  0  0  0  0  0  0  0  0  0  0
  127.3700  128.1770   66.8550 C   0  0  0  0  0  0  0  0  0  0  0  0
  126.3480  128.1730   65.7320 C   0  0  0  0  0  0  0  0  0  0  0  0
  125.6700  129.5690   65.6360 C   0  0  2  0  0  0  0  0  0  0  0  0
  124.6860  129.6320   64.4320 C   0  0  0  0  0  0  0  0  0  0  0  0
  123.4840  129.6210   64.7130 O   0  0  0  0  0  0  0  0  0  0  0  0
  125.1180  129.8180   63.1480 N   0  0  0  0  0  0  0  0  0  0  0  0
  126.5030  129.5310   62.7200 C   0  0  0  0  0  0  0  0  0  0  0  0
  126.9340  130.5840   61.6770 C   0  0  0  0  0  0  0  0  0  0  0  0
  125.9930  130.6430   60.5550 N   0  0  0  0  0  0  0  0  0  0  0  0
  126.4700  131.5470   59.5000 C   0  0  0  0  0  0  0  0  0  0  0  0
  127.6050  132.4900   59.9810 C   0  0  0  0  0  0  0  0  0  0  0  0
  128.9990  132.0240   59.7220 N   0  0  0  0  0  0  0  0  0  0  0  0
  129.3020  131.7820   58.3990 C   0  0  0  0  0  0  0  0  0  0  0  0
  128.4800  131.9010   57.4830 O   0  0  0  0  0  0  0  0  0  0  0  0
  130.7400  131.3740   58.1460 C   0  0  0  0  0  0  0  0  0  0  0  0
  131.1650  131.1280   56.8330 C   0  0  0  0  0  0  0  0  0  0  0  0
  132.4810  130.7580   56.5630 C   0  0  0  0  0  0  0  0  0  0  0  0
  133.4130  130.6260   57.5910 C   0  0  0  0  0  0  0  0  0  0  0  0
  133.0300  130.8640   58.9330 C   0  0  0  0  0  0  0  0  0  0  0  0
  133.9250  130.7490   60.0230 C   0  0  0  0  0  0  0  0  0  0  0  0
  133.4830  131.0010   61.3210 C   0  0  0  0  0  0  0  0  0  0  0  0
  132.1610  131.3660   61.5680 C   0  0  0  0  0  0  0  0  0  0  0  0
  131.2400  131.4920   60.5200 C   0  0  0  0  0  0  0  0  0  0  0  0
  131.6830  131.2390   59.1970 C   0  0  0  0  0  0  0  0  0  0  0  0
  129.8130  131.9010   60.8290 C   0  0  0  0  0  0  0  0  0  0  0  0
  129.4280  132.1180   61.9830 O   0  0  0  0  0  0  0  0  0  0  0  0
  124.6670  131.0290   61.0390 C   0  0  0  0  0  0  0  0  0  0  0  0
  124.1180  130.0170   62.0730 C   0  0  0  0  0  0  0  0  0  0  0  0
  1  2  2  0
  2  3  1  0
  3  4  1  0
  4  5  2  0
  5  6  1  0
  6  7  2  0
  7  8  1  0
  8  9  2  0
  8 10  1  0
  7 11  1  0
 11 12  2  0
 12 13  1  0
 13 14  1  0
 14 15  1  6
 15 16  2  0
 15 17  1  0
 17 18  1  0
 18 19  1  0
 19 20  1  0
 20 21  1  0
 21 22  1  0
 22 23  1  0
 23 24  1  0
 24 25  2  0
 24 26  1  0
 26 27  2  0
 27 28  1  0
 28 29  2  0
 29 30  1  0
 30 31  2  0
 31 32  1  0
 32 33  2  0
 33 34  1  0
 34 35  2  0
 34 36  1  0
 36 37  2  0
 20 38  1  0
 38 39  1  0
 14  2  1  0
 39 17  1  0
 12  4  1  0
 36 23  1  0
 35 26  1  0
 35 30  1  0
M  CHG  2   8   1  10  -1
M  END
>  <Binding energies>  (77) 
[-10.85]

>  <Ligand effiencies>  (77) 
[-0.2782051282051282]

>  <Interactions>  (77) 
["V-A:GLU:543:C:4902, V-A:HIS:456:CE1:4069, V-A:ASP:366:CG:3212, V-B:GLU:543:CD:9880, V-A:TYR:539:CD1:4873, V-A:PRO:540:CB:4885, V-A:LEU:363:CD1:3188, V-A:PRO:540:N:4884, V-A:TYR:531:CE2:4793, V-A:TYR:539:CE1:4875, V-A:PRO:540:CA:4883, V-B:ASP:366:CG:8184, V-A:ALA:541:CB:4892, V-A:TYR:531:CZ:4794, H-A:ALA:541:N:4891, V-A:TYR:539:C:4867, V-A:GLU:543:CD:4908, V-A:GLU:543:CG:4907, H-B:ARG:545:NH2:9900, V-A:GLU:543:CA:4904, V-A:ASP:366:CB:3211, V-B:GLU:543:CB:9878, V-B:GLU:543:C:9874, V-A:GLU:543:CB:4906, V-B:HIS:456:CE1:9041, V-A:PRO:540:C:4881, V-A:LEU:363:CA:3184, V-A:ASN:362:CB:3175, V-A:ASN:362:C:3171, V-A:LEU:363:CB:3186, V-B:TYR:484:CZ:9318, V-B:TYR:484:CE2:9317, V-B:ARG:545:CZ:9898, H-B:GLY:454:N:9021, H-B:TYR:484:OH:9319, H-B:ARG:545:NE:9896, H-B:ARG:545:NH1:9899"]

$$$$
RR27_Rahimova_2017
     RDKit          3D

 39 44  0  0  0  0  0  0  0  0999 V2000
  130.5540  122.0140   59.1830 O   0  0  0  0  0  0  0  0  0  0  0  0
  129.5870  122.6080   59.6690 C   0  0  0  0  0  0  0  0  0  0  0  0
  128.9110  123.7300   58.8270 C   0  0  0  0  0  0  0  0  0  0  0  0
  127.6260  123.2620   58.1170 C   0  0  0  0  0  0  0  0  0  0  0  0
  127.6140  122.1450   57.2670 C   0  0  0  0  0  0  0  0  0  0  0  0
  126.4350  121.7480   56.6440 C   0  0  0  0  0  0  0  0  0  0  0  0
  125.2630  122.4650   56.8660 C   0  0  0  0  0  0  0  0  0  0  0  0
  125.2590  123.5760   57.7040 C   0  0  0  0  0  0  0  0  0  0  0  0
  126.4390  123.9730   58.3270 C   0  0  0  0  0  0  0  0  0  0  0  0
  129.9250  124.4550   57.9220 C   0  0  0  0  0  0  0  0  0  0  0  0
  131.2440  124.6890   58.3320 C   0  0  0  0  0  0  0  0  0  0  0  0
  132.1320  125.3580   57.4930 C   0  0  0  0  0  0  0  0  0  0  0  0
  131.7020  125.8000   56.2450 C   0  0  0  0  0  0  0  0  0  0  0  0
  130.3910  125.5850   55.8290 C   0  0  0  0  0  0  0  0  0  0  0  0
  129.5050  124.9170   56.6680 C   0  0  0  0  0  0  0  0  0  0  0  0
  129.0160  122.2080   60.8400 N   0  0  0  0  0  0  0  0  0  0  0  0
  128.0400  123.0170   61.5860 C   0  0  0  0  0  0  0  0  0  0  0  0
  128.8490  123.9470   62.5170 C   0  0  0  0  0  0  0  0  0  0  0  0
  129.8350  123.1650   63.4420 C   0  0  0  0  0  0  0  0  0  0  0  0
  130.7460  124.0520   64.3110 C   0  0  0  0  0  0  0  0  0  0  0  0
  132.0500  124.1500   63.9200 N   0  0  0  0  0  0  0  0  0  0  0  0
  132.8920  124.9440   64.6390 C   0  0  0  0  0  0  0  0  0  0  0  0
  134.2170  125.1260   64.3430 O   0  0  0  0  0  0  0  0  0  0  0  0
  132.3820  125.6300   65.7580 C   0  0  0  0  0  0  0  0  0  0  0  0
  132.9310  126.4850   66.6680 N   0  0  0  0  0  0  0  0  0  0  0  0
  131.9330  126.8370   67.5570 N   0  0  0  0  0  0  0  0  0  0  0  0
  130.7900  126.2160   67.1950 N   0  0  0  0  0  0  0  0  0  0  0  0
  129.5710  126.3910   67.9810 C   0  0  0  0  0  0  0  0  0  0  0  0
  128.8000  127.6600   67.6420 C   0  0  0  0  0  0  0  0  0  0  0  0
  129.0280  128.8360   68.3630 C   0  0  0  0  0  0  0  0  0  0  0  0
  128.3300  130.0020   68.0440 C   0  0  0  0  0  0  0  0  0  0  0  0
  127.4040  129.9980   67.0010 C   0  0  0  0  0  0  0  0  0  0  0  0
  127.1790  128.8300   66.2710 C   0  0  0  0  0  0  0  0  0  0  0  0
  126.0530  128.8300   64.9620 Cl  0  0  0  0  0  0  0  0  0  0  0  0
  127.8710  127.6630   66.5940 C   0  0  0  0  0  0  0  0  0  0  0  0
  131.0190  125.4400   66.0710 C   0  0  0  0  0  0  0  0  0  0  0  0
  130.1740  124.6620   65.3890 N   0  0  0  0  0  0  0  0  0  0  0  0
  130.6100  122.0590   62.6630 C   0  0  0  0  0  0  0  0  0  0  0  0
  129.7070  121.2400   61.7070 C   0  0  0  0  0  0  0  0  0  0  0  0
  1  2  2  0
  2  3  1  0
  3  4  1  0
  4  5  2  0
  5  6  1  0
  6  7  2  0
  7  8  1  0
  8  9  2  0
  3 10  1  0
 10 11  2  0
 11 12  1  0
 12 13  2  0
 13 14  1  0
 14 15  2  0
  2 16  1  0
 16 17  1  0
 17 18  1  0
 18 19  1  0
 19 20  1  0
 20 21  2  0
 21 22  1  0
 22 23  1  0
 22 24  2  0
 24 25  1  0
 25 26  2  0
 26 27  1  0
 27 28  1  0
 28 29  1  0
 29 30  2  0
 30 31  1  0
 31 32  2  0
 32 33  1  0
 33 34  1  0
 33 35  2  0
 27 36  1  0
 36 37  2  0
 19 38  1  0
 38 39  1  0
  9  4  1  0
 15 10  1  0
 39 16  1  0
 37 20  1  0
 36 24  1  0
 35 29  1  0
M  END
>  <Binding energies>  (78) 
[-10.85]

>  <Ligand effiencies>  (78) 
[-0.27125]

>  <Interactions>  (78) 
["V-A:GLU:543:C:4902, V-A:HIS:456:CE1:4069, H-A:GLY:454:N:4049, H-A:ARG:545:NH2:4928, V-A:TYR:484:CZ:4346, V-A:ARG:545:CZ:4926, V-A:ASP:366:CG:3212, H-A:TYR:484:OH:4347, V-B:GLU:543:CD:9880, H-A:ARG:545:NE:4924, V-B:ALA:541:CB:9864, V-A:GLU:543:CG:4907, V-B:PRO:540:CB:9857, V-B:TYR:539:CE2:9848, V-B:PRO:540:CD:9859, V-B:PRO:540:N:9856, V-B:PRO:540:CA:9855, V-B:MET:535:CE:9807, V-B:TYR:539:CA:9841, V-B:TYR:539:CD2:9846, V-B:TYR:531:CE2:9765, V-B:TYR:539:C:9839, V-B:LEU:363:CD1:8160, V-B:TYR:484:CD2:9315, V-A:GLU:543:CA:4904, V-A:ASP:366:CB:3211, V-A:LEU:475:CD1:4257, V-B:ALA:541:CA:9862, V-A:GLU:543:CB:4906, V-B:HIS:456:CE1:9041, V-B:TYR:539:CG:9844, V-B:TYR:539:CZ:9849, V-B:TYR:484:CZ:9318, V-B:TYR:484:CE2:9317, V-B:ARG:545:CZ:9898, H-A:ARG:545:NH1:4927"]

$$$$
RR28_Rahimova_2017
     RDKit          3D

 46 49  0  0  0  0  0  0  0  0999 V2000
  125.7040  131.7910   64.5370 C   0  0  0  0  0  0  0  0  0  0  0  0
  125.2070  132.1820   63.1500 C   0  0  0  0  0  0  0  0  0  0  0  0
  124.0090  132.3970   62.9720 O   0  0  0  0  0  0  0  0  0  0  0  0
  126.1420  132.2660   62.1820 N   0  0  0  0  0  0  0  0  0  0  0  0
  125.9540  132.6120   60.7550 C   0  0  0  0  0  0  0  0  0  0  0  0
  125.8730  134.1610   60.6360 C   0  0  0  0  0  0  0  0  0  0  0  0
  126.8270  134.9520   61.2950 C   0  0  0  0  0  0  0  0  0  0  0  0
  126.7830  136.3410   61.2150 C   0  0  0  0  0  0  0  0  0  0  0  0
  125.7830  136.9710   60.4740 C   0  0  0  0  0  0  0  0  0  0  0  0
  125.7480  138.4970   60.4010 C   0  0  0  0  0  0  0  0  0  0  0  0
  126.7030  138.9890   59.6080 F   0  0  0  0  0  0  0  0  0  0  0  0
  124.5700  138.9120   59.9320 F   0  0  0  0  0  0  0  0  0  0  0  0
  125.9230  138.9990   61.6240 F   0  0  0  0  0  0  0  0  0  0  0  0
  124.8260  136.1950   59.8140 C   0  0  0  0  0  0  0  0  0  0  0  0
  124.8710  134.8060   59.8960 C   0  0  0  0  0  0  0  0  0  0  0  0
  124.7020  131.8670   60.1680 C   0  0  0  0  0  0  0  0  0  0  0  0
  124.8720  130.3280   60.1180 C   0  0  0  0  0  0  0  0  0  0  0  0
  126.0580  130.0660   59.2860 N   0  0  0  0  0  0  0  0  0  0  0  0
  125.9230  129.8280   57.9530 C   0  0  0  0  0  0  0  0  0  0  0  0
  124.8210  129.6540   57.4270 O   0  0  0  0  0  0  0  0  0  0  0  0
  127.1960  129.6050   57.1000 C   0  0  0  0  0  0  0  0  0  0  0  0
  128.3970  128.9460   57.8330 C   0  0  0  0  0  0  0  0  0  0  0  0
  129.0780  127.7880   57.0670 C   0  0  0  0  0  0  0  0  0  0  0  0
  129.1880  127.8910   55.8420 O   0  0  0  0  0  0  0  0  0  0  0  0
  129.6550  126.7660   57.7600 N   0  0  0  0  0  0  0  0  0  0  0  0
  129.2980  126.4260   59.1430 C   0  0  0  0  0  0  0  0  0  0  0  0
  128.0690  125.4930   59.0640 C   0  0  0  0  0  0  0  0  0  0  0  0
  128.2810  124.2010   58.2010 C   0  0  0  0  0  0  0  0  0  0  0  0
  126.9630  123.6150   57.8740 N   0  0  0  0  0  0  0  0  0  0  0  0
  126.7030  122.4900   57.1790 C   0  0  0  0  0  0  0  0  0  0  0  0
  125.2310  122.1430   56.9820 C   0  0  0  0  0  0  0  0  0  0  0  0
  127.5700  121.7540   56.7080 O   0  0  0  0  0  0  0  0  0  0  0  0
  129.0490  123.1670   59.0870 C   0  0  0  0  0  0  0  0  0  0  0  0
  128.4010  122.3070   59.9900 C   0  0  0  0  0  0  0  0  0  0  0  0
  129.1230  121.4000   60.7600 C   0  0  0  0  0  0  0  0  0  0  0  0
  130.5130  121.3290   60.6490 C   0  0  0  0  0  0  0  0  0  0  0  0
  131.3200  120.3360   61.4850 C   0  0  0  0  0  0  0  0  0  0  0  0
  132.1910  120.9770   62.2670 F   0  0  0  0  0  0  0  0  0  0  0  0
  130.4870  119.6380   62.2570 F   0  0  0  0  0  0  0  0  0  0  0  0
  132.0040  119.4780   60.7250 F   0  0  0  0  0  0  0  0  0  0  0  0
  131.1730  122.1820   59.7630 C   0  0  0  0  0  0  0  0  0  0  0  0
  130.4480  123.0880   58.9950 C   0  0  0  0  0  0  0  0  0  0  0  0
  129.0560  124.5850   56.8820 C   0  0  0  0  0  0  0  0  0  0  0  0
  130.2100  125.6110   57.0430 C   0  0  0  0  0  0  0  0  0  0  0  0
  127.3080  130.5630   59.8800 C   0  0  0  0  0  0  0  0  0  0  0  0
  127.1960  132.1080   59.9480 C   0  0  0  0  0  0  0  0  0  0  0  0
  1  2  1  0
  2  3  2  0
  2  4  1  0
  4  5  1  0
  5  6  1  0
  6  7  2  0
  7  8  1  0
  8  9  2  0
  9 10  1  0
 10 11  1  0
 10 12  1  0
 10 13  1  0
  9 14  1  0
 14 15  2  0
  5 16  1  0
 16 17  1  0
 17 18  1  0
 18 19  1  0
 19 20  2  0
 19 21  1  0
 21 22  1  0
 22 23  1  0
 23 24  2  0
 23 25  1  0
 25 26  1  0
 26 27  1  0
 27 28  1  0
 28 29  1  0
 29 30  1  0
 30 31  1  0
 30 32  2  0
 28 33  1  0
 33 34  2  0
 34 35  1  0
 35 36  2  0
 36 37  1  0
 37 38  1  0
 37 39  1  0
 37 40  1  0
 36 41  1  0
 41 42  2  0
 28 43  1  0
 43 44  1  0
 18 45  1  0
 45 46  1  0
 46  5  1  0
 15  6  1  0
 44 25  1  0
 42 33  1  0
M  END
>  <Binding energies>  (79) 
[-9.56]

>  <Ligand effiencies>  (79) 
[-0.1991666666666667]

>  <Interactions>  (79) 
["V-B:ALA:541:CB:9864, V-A:TYR:539:CD1:4873, H-A:TYR:539:OH:4878, V-A:TYR:539:CE1:4875, V-B:ILE:369:CG2:8208, V-B:ASP:366:CG:8184, V-B:LEU:475:CD1:9229, V-A:ALA:541:CB:4892, H-B:TYR:531:OH:9767, V-B:ASP:366:CB:8183, V-A:TYR:539:CG:4872, V-B:PRO:540:CB:9857, V-B:TYR:539:CE2:9848, V-B:PRO:540:CD:9859, V-B:PRO:540:N:9856, V-B:PRO:540:CA:9855, V-B:MET:535:CE:9807, V-B:TYR:539:CD2:9846, V-A:PRO:482:CB:4325, V-B:TYR:539:C:9839, V-B:LEU:363:CD1:8160, V-A:LEU:475:CD1:4257, V-B:ALA:541:CA:9862, V-B:PRO:540:C:9853, V-B:TYR:539:CZ:9849, H-A:TYR:531:OH:4795, V-B:GLY:454:CA:9020, H-B:TYR:539:N:9842, V-B:PRO:482:CB:9297, V-A:TYR:539:CB:4871, V-B:PRO:482:CG:9298, V-B:LEU:373:CD1:8251, V-B:SER:385:CB:8380, V-A:ILE:343:CG2:2991, V-B:HIS:383:CD2:8363, V-A:VAL:344:CG1:3000, H-B:GLY:454:N:9021, V-B:PRO:540:CG:9858"]

$$$$
RR29_Rahimova_2017
     RDKit          3D

 18 19  0  0  0  0  0  0  0  0999 V2000
  126.3990  126.5290   59.5780 C   0  0  0  0  0  0  0  0  0  0  0  0
  126.7340  126.3160   61.0470 C   0  0  0  0  0  0  0  0  0  0  0  0
  126.5360  124.8540   61.5050 C   0  0  0  0  0  0  0  0  0  0  0  0
  127.7160  123.9570   61.0760 C   0  0  0  0  0  0  0  0  0  0  0  0
  127.4830  123.3040   59.7220 C   0  0  0  0  0  0  0  0  0  0  0  0
  128.5670  122.7570   59.0080 C   0  0  0  0  0  0  0  0  0  0  0  0
  128.3740  122.1500   57.7590 C   0  0  0  0  0  0  0  0  0  0  0  0
  127.0810  122.1210   57.2520 C   0  0  0  0  0  0  0  0  0  0  0  0
  126.0250  122.6530   57.9380 C   0  0  0  0  0  0  0  0  0  0  0  0
  126.1850  123.2510   59.1830 C   0  0  0  0  0  0  0  0  0  0  0  0
  124.8830  122.4560   57.2280 O   0  0  0  0  0  0  0  0  0  0  0  0
  125.2930  121.9740   55.9760 C   0  0  0  0  0  0  0  0  0  0  0  0
  126.6320  121.5740   56.0910 O   0  0  0  0  0  0  0  0  0  0  0  0
  127.1220  127.3210   61.7400 N   0  0  0  0  0  0  0  0  0  0  0  0
  127.3430  127.1490   63.0890 N   0  0  0  0  0  0  0  0  0  0  0  0
  128.5550  127.2090   63.6660 C   0  0  0  0  0  0  0  0  0  0  0  0
  129.6940  127.4590   63.0200 N   0  0  0  0  0  0  0  0  0  0  0  0
  128.6260  127.0060   64.9730 N   0  0  0  0  0  0  0  0  0  0  0  0
  1  2  1  0
  2  3  1  0
  3  4  1  0
  4  5  1  0
  5  6  2  0
  6  7  1  0
  7  8  2  0
  8  9  1  0
  9 10  2  0
  9 11  1  0
 11 12  1  0
 12 13  1  0
  2 14  2  0
 14 15  1  0
 15 16  1  0
 16 17  1  0
 16 18  2  0
 10  5  1  0
 13  8  1  0
M  CHG  1  18   1
M  END
>  <Binding energies>  (80) 
[-7.67]

>  <Ligand effiencies>  (80) 
[-0.3334782608695652]

>  <Interactions>  (80) 
["V-B:GLU:543:CD:9880, H-B:GLU:543:OE1:9881, H-B:GLU:543:OE2:9882, H-A:GLU:543:OE2:4910, V-B:ASP:366:CG:8184, V-A:GLU:543:CD:4908, H-A:GLU:543:OE1:4909, V-B:PRO:540:CB:9857, V-B:TYR:539:CE2:9848, V-B:PRO:540:CD:9859, V-B:PRO:540:N:9856, V-B:PRO:540:CA:9855, V-B:MET:535:CE:9807, V-B:TYR:539:CD2:9846, V-B:TYR:539:C:9839, V-B:LEU:363:CD1:8160, V-B:TYR:539:CG:9844, V-B:TYR:539:CZ:9849, V-B:ILE:538:CG2:9835, H-B:TYR:539:N:9842"]

$$$$
RR30_Rahimova_2017
     RDKit          3D

 18 19  0  0  0  0  0  0  0  0999 V2000
  126.3700  138.3850   59.6370 C   0  0  0  0  0  0  0  0  0  0  0  0
  125.4050  137.2340   59.9550 C   0  0  0  0  0  0  0  0  0  0  0  0
  126.1210  136.0250   60.5160 C   0  0  0  0  0  0  0  0  0  0  0  0
  127.2110  135.9930   61.2420 N   0  0  0  0  0  0  0  0  0  0  0  0
  127.4630  134.6460   61.4930 N   0  0  0  0  0  0  0  0  0  0  0  0
  126.5110  133.9810   60.8900 C   0  0  0  0  0  0  0  0  0  0  0  0
  126.2770  132.2330   60.8530 S   0  0  0  0  0  0  0  0  0  0  0  0
  127.9310  131.6850   61.3830 C   0  0  0  0  0  0  0  0  0  0  0  0
  128.9940  131.9330   60.3090 C   0  0  0  0  0  0  0  0  0  0  0  0
  130.1340  132.2520   60.6520 O   0  0  0  0  0  0  0  0  0  0  0  0
  128.5790  131.8120   59.0280 N   0  0  0  0  0  0  0  0  0  0  0  0
  129.3530  131.9900   57.8910 C   0  0  0  0  0  0  0  0  0  0  0  0
  129.0410  132.6300   56.7860 N   0  0  0  0  0  0  0  0  0  0  0  0
  130.0690  132.6030   55.8520 N   0  0  0  0  0  0  0  0  0  0  0  0
  131.1300  131.9490   56.2650 C   0  0  0  0  0  0  0  0  0  0  0  0
  132.3760  131.7790   55.4260 C   0  0  0  0  0  0  0  0  0  0  0  0
  130.9470  131.3030   57.8720 S   0  0  0  0  0  0  0  0  0  0  0  0
  125.6240  134.7890   60.2550 O   0  0  0  0  0  0  0  0  0  0  0  0
  1  2  1  0
  2  3  1  0
  3  4  2  0
  4  5  1  0
  5  6  2  0
  6  7  1  0
  7  8  1  0
  8  9  1  0
  9 10  2  0
  9 11  1  0
 11 12  1  0
 12 13  2  0
 13 14  1  0
 14 15  2  0
 15 16  1  0
 15 17  1  0
  6 18  1  0
 18  3  1  0
 17 12  1  0
M  END
>  <Binding energies>  (81) 
[-6.92]

>  <Ligand effiencies>  (81) 
[-0.3642105263157895]

>  <Interactions>  (81) 
["V-A:TYR:539:CD1:4873, V-A:PRO:540:CB:4885, V-A:ILE:538:CB:4862, V-A:ILE:538:CG2:4863, V-A:LEU:363:CD1:3188, V-A:PRO:540:N:4884, V-A:TYR:531:CE2:4793, V-A:TYR:539:CE1:4875, V-A:PRO:540:CA:4883, V-A:TYR:531:CZ:4794, H-A:ALA:541:N:4891, V-A:TYR:539:C:4867, V-A:PRO:540:CD:4887, H-A:TYR:539:N:4870, V-A:TYR:539:CB:4871, V-B:PRO:482:CG:9298, V-B:LEU:373:CD1:8251, V-B:SER:385:CB:8380, V-A:VAL:344:CG1:3000"]

$$$$
RR31_Rahimova_2017
     RDKit          3D

 18 19  0  0  0  0  0  0  0  0999 V2000
  124.7710  135.4250   60.2330 C   0  0  0  0  0  0  0  0  0  0  0  0
  125.0340  134.3260   61.2540 C   0  0  0  0  0  0  0  0  0  0  0  0
  123.9780  133.5120   61.6650 C   0  0  0  0  0  0  0  0  0  0  0  0
  124.1860  132.4960   62.5950 C   0  0  0  0  0  0  0  0  0  0  0  0
  125.4590  132.2580   63.1370 C   0  0  0  0  0  0  0  0  0  0  0  0
  125.6820  131.2500   64.0780 N   0  0  0  0  0  0  0  0  0  0  0  0
  124.8320  130.0460   64.1500 C   0  0  0  0  0  0  0  0  0  0  0  0
  124.9600  129.2620   65.4780 C   0  0  0  0  0  0  0  0  0  0  0  0
  126.3540  128.8940   65.7370 N   0  0  0  0  0  0  0  0  0  0  0  0
  126.5020  128.1190   66.9720 C   0  0  0  0  0  0  0  0  0  0  0  0
  127.8880  128.2880   67.6270 C   0  0  0  0  0  0  0  0  0  0  0  0
  128.8940  127.2300   67.1440 C   0  0  0  0  0  0  0  0  0  0  0  0
  128.6420  126.9040   65.6680 N   0  0  0  0  0  0  0  0  0  0  0  0
  127.1220  130.1350   65.8390 C   0  0  0  0  0  0  0  0  0  0  0  0
  127.0560  130.9310   64.5160 C   0  0  0  0  0  0  0  0  0  0  0  0
  126.5100  133.0890   62.7220 C   0  0  0  0  0  0  0  0  0  0  0  0
  126.3140  134.1140   61.7890 C   0  0  0  0  0  0  0  0  0  0  0  0
  127.4970  134.9850   61.3820 C   0  0  0  0  0  0  0  0  0  0  0  0
  1  2  1  0
  2  3  2  0
  3  4  1  0
  4  5  2  0
  5  6  1  0
  6  7  1  0
  7  8  1  0
  8  9  1  0
  9 10  1  0
 10 11  1  0
 11 12  1  0
 12 13  1  0
  9 14  1  0
 14 15  1  0
  5 16  1  0
 16 17  2  0
 17 18  1  0
 17  2  1  0
 15  6  1  0
M  CHG  1  13   1
M  END
>  <Binding energies>  (82) 
[-7.05]

>  <Ligand effiencies>  (82) 
[-0.3357142857142857]

>  <Interactions>  (82) 
["V-B:GLU:543:CD:9880, H-B:GLU:543:OE2:9882, V-A:TYR:539:CD1:4873, V-B:ILE:369:CG2:8208, V-B:LEU:475:CD1:9229, V-A:ALA:541:CB:4892, V-B:ILE:369:CD1:8210, V-B:ILE:369:CG1:8209, V-A:TYR:539:C:4867, V-A:GLU:543:CD:4908, V-A:ALA:541:CA:4890, H-A:GLU:543:OE1:4909, V-A:GLU:543:CG:4907, V-B:HIS:456:CE1:9041, V-B:TYR:484:CZ:9318, V-B:GLY:454:CA:9020, V-B:TYR:484:CE2:9317, V-B:ARG:545:CZ:9898, V-B:PRO:482:CB:9297, V-B:PRO:482:CG:9298, V-B:LEU:373:CD1:8251, V-B:SER:385:CB:8380, H-B:TYR:484:OH:9319"]

$$$$
RR32_Rahimova_2017
     RDKit          3D

 18 20  0  0  0  0  0  0  0  0999 V2000
  130.2680  131.4120   56.7110 C   0  0  0  0  0  0  0  0  0  0  0  0
  130.2080  131.5590   58.2280 C   0  0  0  0  0  0  0  0  0  0  0  0
  128.9940  131.9310   58.8070 C   0  0  0  0  0  0  0  0  0  0  0  0
  128.9010  132.0710   60.1890 C   0  0  0  0  0  0  0  0  0  0  0  0
  127.6960  132.4400   60.7600 N   0  0  0  0  0  0  0  0  0  0  0  0
  127.4920  133.8720   61.0410 C   0  0  0  0  0  0  0  0  0  0  0  0
  126.1980  134.1600   61.8400 C   0  0  0  0  0  0  0  0  0  0  0  0
  125.0330  133.6560   61.1140 N   0  0  0  0  0  0  0  0  0  0  0  0
  123.8110  133.9560   61.8520 C   0  0  0  0  0  0  0  0  0  0  0  0
  125.1890  132.2120   60.9560 C   0  0  0  0  0  0  0  0  0  0  0  0
  126.4690  131.8940   60.1480 C   0  0  0  0  0  0  0  0  0  0  0  0
  129.9560  131.8620   61.0190 N   0  0  0  0  0  0  0  0  0  0  0  0
  131.1540  131.5010   60.4830 C   0  0  0  0  0  0  0  0  0  0  0  0
  132.2370  131.2920   61.3720 C   0  0  0  0  0  0  0  0  0  0  0  0
  133.4840  130.9230   60.8810 C   0  0  0  0  0  0  0  0  0  0  0  0
  133.6820  130.7530   59.5160 C   0  0  0  0  0  0  0  0  0  0  0  0
  132.6390  130.9500   58.6160 C   0  0  0  0  0  0  0  0  0  0  0  0
  131.3440  131.3310   59.0730 C   0  0  0  0  0  0  0  0  0  0  0  0
  1  2  1  0
  2  3  2  0
  3  4  1  0
  4  5  1  0
  5  6  1  0
  6  7  1  0
  7  8  1  0
  8  9  1  0
  8 10  1  0
 10 11  1  0
  4 12  2  0
 12 13  1  0
 13 14  2  0
 14 15  1  0
 15 16  2  0
 16 17  1  0
 17 18  2  0
 18  2  1  0
 11  5  1  0
 18 13  1  0
M  END
>  <Binding energies>  (83) 
[-6.66]

>  <Ligand effiencies>  (83) 
[-0.37]

>  <Interactions>  (83) 
["V-A:ASP:366:CG:3212, V-A:TYR:539:CD1:4873, V-A:PRO:540:CB:4885, V-A:PRO:540:N:4884, V-A:TYR:539:CE1:4875, V-A:PRO:540:CA:4883, V-B:ILE:369:CG2:8208, V-B:LEU:475:CD1:9229, V-A:ALA:541:CB:4892, V-B:ILE:369:CD1:8210, H-A:ALA:541:N:4891, V-B:ILE:369:CG1:8209, V-A:TYR:539:C:4867, V-A:GLU:543:CD:4908, V-A:ASP:366:CB:3211, V-A:PRO:540:C:4881, V-A:LEU:363:CA:3184, V-A:ASN:362:CB:3175, V-A:ASN:362:C:3171, V-A:LEU:363:CB:3186"]

$$$$
RR5_Rahimova_2017
     RDKit          3D

 45 50  0  0  0  0  0  0  0  0999 V2000
  129.6130  124.1610   60.1570 O   0  0  0  0  0  0  0  0  0  0  0  0
  129.0740  125.2090   60.5100 C   0  0  0  0  0  0  0  0  0  0  0  0
  129.1090  125.6220   61.9940 C   0  0  0  0  0  0  0  0  0  0  0  0
  130.0500  126.8430   62.2950 C   0  0  2  0  0  0  0  0  0  0  0  0
  130.1310  127.8480   61.2160 N   0  0  0  0  0  0  0  0  0  0  0  0
  129.0340  128.6200   60.8570 C   0  0  0  0  0  0  0  0  0  0  0  0
  127.9210  128.6090   61.3880 O   0  0  0  0  0  0  0  0  0  0  0  0
  129.3800  129.3860   59.8080 O   0  0  0  0  0  0  0  0  0  0  0  0
  128.8060  130.6740   59.6060 C   0  0  0  0  0  0  0  0  0  0  0  0
  129.8720  131.6800   59.1190 C   0  0  0  0  0  0  0  0  0  0  0  0
  131.2700  131.3790   59.6270 C   0  0  0  0  0  0  0  0  0  0  0  0
  131.7350  131.2680   60.9410 C   0  0  0  0  0  0  0  0  0  0  0  0
  133.0740  130.9580   61.1810 C   0  0  0  0  0  0  0  0  0  0  0  0
  133.9510  130.7620   60.1130 C   0  0  0  0  0  0  0  0  0  0  0  0
  133.4900  130.8750   58.8000 C   0  0  0  0  0  0  0  0  0  0  0  0
  132.1500  131.1850   58.5620 C   0  0  0  0  0  0  0  0  0  0  0  0
  131.4080  131.3720   57.3050 C   0  0  0  0  0  0  0  0  0  0  0  0
  131.8230  131.3020   55.9730 C   0  0  0  0  0  0  0  0  0  0  0  0
  130.9060  131.5480   54.9510 C   0  0  0  0  0  0  0  0  0  0  0  0
  129.5790  131.8590   55.2590 C   0  0  0  0  0  0  0  0  0  0  0  0
  129.1680  131.9230   56.5900 C   0  0  0  0  0  0  0  0  0  0  0  0
  130.0820  131.6750   57.6170 C   0  0  0  0  0  0  0  0  0  0  0  0
  131.4740  126.3620   62.6670 C   0  0  0  0  0  0  0  0  0  0  0  0
  132.2660  125.8750   61.8850 O   0  0  0  0  0  0  0  0  0  0  0  0
  131.7030  126.5860   63.9940 O   0  0  0  0  0  0  0  0  0  0  0  0
  128.4590  126.0780   59.6780 N   0  0  0  0  0  0  0  0  0  0  0  0
  128.2000  126.0850   58.2070 C   0  0  0  0  0  0  0  0  0  0  0  0
  127.3640  127.3970   58.0280 C   0  0  0  0  0  0  0  0  0  0  0  0
  126.2330  127.6590   58.8190 C   0  0  0  0  0  0  0  0  0  0  0  0
  125.4980  128.8290   58.6520 C   0  0  0  0  0  0  0  0  0  0  0  0
  125.8750  129.7530   57.6830 C   0  0  0  0  0  0  0  0  0  0  0  0
  126.9900  129.5200   56.8870 C   0  0  0  0  0  0  0  0  0  0  0  0
  127.7310  128.3550   57.0620 C   0  0  0  0  0  0  0  0  0  0  0  0
  129.5900  126.1540   57.4890 C   0  0  0  0  0  0  0  0  0  0  0  0
  129.7370  125.8250   56.1320 C   0  0  0  0  0  0  0  0  0  0  0  0
  130.9860  125.8750   55.5190 C   0  0  0  0  0  0  0  0  0  0  0  0
  132.1050  126.2520   56.2550 C   0  0  0  0  0  0  0  0  0  0  0  0
  131.9840  126.5870   57.5990 C   0  0  0  0  0  0  0  0  0  0  0  0
  130.7330  126.5450   58.2080 C   0  0  0  0  0  0  0  0  0  0  0  0
  127.3730  124.7900   57.9050 C   0  0  0  0  0  0  0  0  0  0  0  0
  125.9700  124.7870   58.0070 C   0  0  0  0  0  0  0  0  0  0  0  0
  125.2300  123.6370   57.7470 C   0  0  0  0  0  0  0  0  0  0  0  0
  125.8810  122.4670   57.3740 C   0  0  0  0  0  0  0  0  0  0  0  0
  127.2660  122.4420   57.2510 C   0  0  0  0  0  0  0  0  0  0  0  0
  128.0020  123.5950   57.5120 C   0  0  0  0  0  0  0  0  0  0  0  0
  1  2  2  0
  2  3  1  0
  4  3  1  6
  4  5  1  0
  5  6  1  0
  6  7  2  0
  6  8  1  0
  8  9  1  0
  9 10  1  0
 10 11  1  0
 11 12  2  0
 12 13  1  0
 13 14  2  0
 14 15  1  0
 15 16  2  0
 16 17  1  0
 17 18  2  0
 18 19  1  0
 19 20  2  0
 20 21  1  0
 21 22  2  0
  4 23  1  0
 23 24  2  0
 23 25  1  0
  2 26  1  0
 26 27  1  0
 27 28  1  0
 28 29  2  0
 29 30  1  0
 30 31  2  0
 31 32  1  0
 32 33  2  0
 27 34  1  0
 34 35  2  0
 35 36  1  0
 36 37  2  0
 37 38  1  0
 38 39  2  0
 27 40  1  0
 40 41  2  0
 41 42  1  0
 42 43  2  0
 43 44  1  0
 44 45  2  0
 22 10  1  0
 33 28  1  0
 39 34  1  0
 45 40  1  0
 16 11  1  0
 22 17  1  0
M  END
>  <Binding energies>  (84) 
[-10.27]

>  <Ligand effiencies>  (84) 
[-0.21395833333333333]

>  <Interactions>  (84) 
["H-A:ARG:545:NH2:4928, V-A:ASP:366:CG:3212, V-A:TYR:539:CD1:4873, H-A:GLU:543:OE2:4910, V-A:PRO:540:CB:4885, V-A:ILE:538:CB:4862, V-A:ILE:538:CG2:4863, V-A:LEU:363:CD1:3188, H-A:ASP:366:OD2:3214, V-A:PRO:540:N:4884, V-A:TYR:531:CE2:4793, V-A:TYR:539:CE1:4875, V-A:PRO:540:CA:4883, V-B:ASP:366:CG:8184, V-A:TYR:531:CZ:4794, V-A:ILE:538:CA:4860, V-B:ASP:366:CB:8183, V-A:TYR:539:C:4867, H-A:GLU:543:OE1:4909, V-A:TYR:539:CG:4872, V-B:PRO:540:CB:9857, V-B:PRO:540:CD:9859, V-B:PRO:540:N:9856, V-B:PRO:540:CA:9855, V-B:MET:535:CE:9807, V-B:TYR:531:CE2:9765, V-B:TYR:539:C:9839, V-B:TYR:531:CZ:9766, V-B:LEU:363:CD1:8160, V-A:ASP:366:CB:3211, V-A:PRO:540:C:4881, V-A:LEU:363:CA:3184, V-A:ASN:362:CB:3175, V-A:ASN:362:C:3171, V-A:LEU:363:CB:3186, V-A:TYR:531:CE1:4792"]

$$$$
