1a_Ghoteimi_2023
     RDKit          3D

 67 70  0  0  0  0  0  0  0  0999 V2000
  129.9780  118.3440   61.1000 C   0  0  0  0  0  0  0  0  0  0  0  0
  131.1050  117.7850   60.2260 C   0  0  0  0  0  0  0  0  0  0  0  0
  132.3590  118.0740   60.8310 O   0  0  0  0  0  0  0  0  0  0  0  0
  133.0860  119.1580   60.4550 C   0  0  0  0  0  0  0  0  0  0  0  0
  133.8740  119.1520   59.5050 O   0  0  0  0  0  0  0  0  0  0  0  0
  132.8310  120.3670   61.3080 C   0  0  0  0  0  0  0  0  0  0  0  0
  133.8350  120.9390   62.1040 C   0  0  0  0  0  0  0  0  0  0  0  0
  133.5680  122.0580   62.8870 C   0  0  0  0  0  0  0  0  0  0  0  0
  132.2880  122.6320   62.8850 C   0  0  0  0  0  0  0  0  0  0  0  0
  131.9070  123.7580   63.6390 N   0  0  0  0  0  0  0  0  0  0  0  0
  132.5580  124.9240   63.8420 C   0  0  0  0  0  0  0  0  0  0  0  0
  133.6500  125.2270   63.3630 O   0  0  0  0  0  0  0  0  0  0  0  0
  131.8400  125.9290   64.7420 C   0  0  0  0  0  0  0  0  0  0  0  0
  131.0910  125.1220   66.1880 S   0  0  0  0  0  0  0  0  0  0  0  0
  129.8690  126.2550   66.8100 C   0  0  0  0  0  0  0  0  0  0  0  0
  129.8640  126.3700   68.1590 N   0  0  0  0  0  0  0  0  0  0  0  0
  128.9800  127.2090   68.7610 C   0  0  0  0  0  0  0  0  0  0  0  0
  129.0500  127.2980   70.2580 C   0  0  0  0  0  0  0  0  0  0  0  0
  128.7500  126.1920   71.0700 C   0  0  0  0  0  0  0  0  0  0  0  0
  128.8170  126.2770   72.4570 C   0  0  0  0  0  0  0  0  0  0  0  0
  129.1830  127.4680   73.0780 C   0  0  0  0  0  0  0  0  0  0  0  0
  129.2260  127.4610   74.4590 O   0  0  0  0  0  0  0  0  0  0  0  0
  128.0060  127.3930   75.1900 C   0  0  0  0  0  0  0  0  0  0  0  0
  129.4820  128.5830   72.2820 C   0  0  0  0  0  0  0  0  0  0  0  0
  129.4140  128.4950   70.8950 C   0  0  0  0  0  0  0  0  0  0  0  0
  128.0720  127.9550   67.9980 C   0  0  0  0  0  0  0  0  0  0  0  0
  128.0420  127.8330   66.6030 C   0  0  0  0  0  0  0  0  0  0  0  0
  127.0260  128.6350   65.8570 C   0  0  0  0  0  0  0  0  0  0  0  0
  125.6740  128.5890   66.2130 C   0  0  0  0  0  0  0  0  0  0  0  0
  124.7350  129.3510   65.5220 C   0  0  0  0  0  0  0  0  0  0  0  0
  125.1280  130.1770   64.4700 C   0  0  0  0  0  0  0  0  0  0  0  0
  124.1290  130.8950   63.8440 O   0  0  0  0  0  0  0  0  0  0  0  0
  124.3450  131.3800   62.5240 C   0  0  0  0  0  0  0  0  0  0  0  0
  126.4850  130.2310   64.1150 C   0  0  0  0  0  0  0  0  0  0  0  0
  127.4220  129.4680   64.8060 C   0  0  0  0  0  0  0  0  0  0  0  0
  128.9690  126.9610   65.9830 C   0  0  0  0  0  0  0  0  0  0  0  0
  128.9960  126.8030   64.5250 C   0  0  0  0  0  0  0  0  0  0  0  0
  129.0170  126.6790   63.3740 N   0  0  0  0  0  0  0  0  0  0  0  0
  131.2860  122.0630   62.0970 C   0  0  0  0  0  0  0  0  0  0  0  0
  131.5540  120.9430   61.3140 C   0  0  0  0  0  0  0  0  0  0  0  0
  130.2383  118.2149   62.1609 H   0  0  0  0  0  0  0  0  0  0  0  0
  129.8423  119.4139   60.8833 H   0  0  0  0  0  0  0  0  0  0  0  0
  129.0441  117.8047   60.8833 H   0  0  0  0  0  0  0  0  0  0  0  0
  130.9873  116.6958   60.1275 H   0  0  0  0  0  0  0  0  0  0  0  0
  131.0620  118.2489   59.2295 H   0  0  0  0  0  0  0  0  0  0  0  0
  134.8430  120.4986   62.1091 H   0  0  0  0  0  0  0  0  0  0  0  0
  134.3633  122.4939   63.5096 H   0  0  0  0  0  0  0  0  0  0  0  0
  130.9930  123.6800   64.0610 H   0  0  0  0  0  0  0  0  0  0  0  0
  132.5660  126.6791   65.0887 H   0  0  0  0  0  0  0  0  0  0  0  0
  131.0358  126.3993   64.1572 H   0  0  0  0  0  0  0  0  0  0  0  0
  128.4567  125.2413   70.6008 H   0  0  0  0  0  0  0  0  0  0  0  0
  128.5785  125.3946   73.0689 H   0  0  0  0  0  0  0  0  0  0  0  0
  128.2234  127.4051   76.2682 H   0  0  0  0  0  0  0  0  0  0  0  0
  127.3760  128.2574   74.9333 H   0  0  0  0  0  0  0  0  0  0  0  0
  127.4760  126.4639   74.9333 H   0  0  0  0  0  0  0  0  0  0  0  0
  129.7718  129.5321   72.7565 H   0  0  0  0  0  0  0  0  0  0  0  0
  129.6499  129.3801   70.2860 H   0  0  0  0  0  0  0  0  0  0  0  0
  127.3758  128.6433   68.4995 H   0  0  0  0  0  0  0  0  0  0  0  0
  125.3500  127.9463   67.0448 H   0  0  0  0  0  0  0  0  0  0  0  0
  123.6742  129.3006   65.8088 H   0  0  0  0  0  0  0  0  0  0  0  0
  124.7921  132.3839   62.5708 H   0  0  0  0  0  0  0  0  0  0  0  0
  125.0254  130.7001   61.9903 H   0  0  0  0  0  0  0  0  0  0  0  0
  123.3845  131.4309   61.9903 H   0  0  0  0  0  0  0  0  0  0  0  0
  126.8093  130.8789   63.2873 H   0  0  0  0  0  0  0  0  0  0  0  0
  128.4836  129.5208   64.5227 H   0  0  0  0  0  0  0  0  0  0  0  0
  130.2776  122.5024   62.0945 H   0  0  0  0  0  0  0  0  0  0  0  0
  130.7562  120.5069   60.6949 H   0  0  0  0  0  0  0  0  0  0  0  0
  1  2  1  0
  2  3  1  0
  3  4  1  0
  4  5  2  0
  4  6  1  0
  6  7  2  0
  7  8  1  0
  8  9  2  0
  9 10  1  0
 10 11  1  0
 11 12  2  0
 11 13  1  0
 13 14  1  0
 14 15  1  0
 15 16  2  0
 16 17  1  0
 17 18  1  0
 18 19  2  0
 19 20  1  0
 20 21  2  0
 21 22  1  0
 22 23  1  0
 21 24  1  0
 24 25  2  0
 17 26  2  0
 26 27  1  0
 27 28  1  0
 28 29  2  0
 29 30  1  0
 30 31  2  0
 31 32  1  0
 32 33  1  0
 31 34  1  0
 34 35  2  0
 27 36  2  0
 36 37  1  0
 37 38  3  0
  9 39  1  0
 39 40  2  0
 40  6  1  0
 36 15  1  0
 25 18  1  0
 35 28  1  0
  1 41  1  0
  1 42  1  0
  1 43  1  0
  2 44  1  0
  2 45  1  0
  7 46  1  0
  8 47  1  0
 10 48  1  0
 13 49  1  0
 13 50  1  0
 19 51  1  0
 20 52  1  0
 23 53  1  0
 23 54  1  0
 23 55  1  0
 24 56  1  0
 25 57  1  0
 26 58  1  0
 29 59  1  0
 30 60  1  0
 33 61  1  0
 33 62  1  0
 33 63  1  0
 34 64  1  0
 35 65  1  0
 39 66  1  0
 40 67  1  0
M  END
>  <Binding energies>  (1) 
[-8.57]

>  <Ligand effiencies>  (1) 
[-0.20902439024390246]

>  <Interactions>  (1) 
["H-A:LYS:547:NZ:4951, V-B:HIS:456:CD2:9039, V-A:GLU:543:C:4902, V-A:HIS:456:CE1:4069, H-A:GLY:454:N:4049, H-A:ARG:545:NH2:4928, V-A:ARG:545:CZ:4926, H-A:TYR:484:OH:4347, V-B:GLU:543:CD:9880, V-B:ALA:541:CB:9864, V-B:ILE:369:CD1:8210, V-A:GLU:543:CD:4908, V-A:PRO:482:CG:4326, V-B:TYR:539:CD2:9846, V-A:PRO:482:CB:4325, V-B:TYR:539:C:9839, V-A:GLY:454:CA:4048, V-A:ILE:369:CG2:3236, V-A:LEU:475:CD1:4257, V-B:PRO:540:C:9853, V-B:HIS:456:CE1:9041, V-B:ARG:545:CZ:9898, V-B:ARG:545:CD:9895, H-A:ARG:545:NH1:4927, H-A:SER:385:OG:3409, H-A:HIS:383:NE2:3393, V-A:HIS:383:CE1:3392, H-B:GLY:454:N:9021"]

$$$$
1a_Grossjean_2025
     RDKit          3D

 45 46  0  0  0  0  0  0  0  0999 V2000
  124.5600  123.6210   58.7880 C   0  0  0  0  0  0  0  0  0  0  0  0
  125.4840  124.5990   58.0570 C   0  0  0  0  0  0  0  0  0  0  0  0
  125.9790  123.9870   56.8720 O   0  0  0  0  0  0  0  0  0  0  0  0
  126.7480  122.8680   56.9300 C   0  0  0  0  0  0  0  0  0  0  0  0
  126.3970  121.7780   56.4680 O   0  0  0  0  0  0  0  0  0  0  0  0
  128.0600  123.0850   57.6270 C   0  0  0  0  0  0  0  0  0  0  0  0
  128.4950  122.1470   58.5730 C   0  0  0  0  0  0  0  0  0  0  0  0
  129.7040  122.3220   59.2390 C   0  0  0  0  0  0  0  0  0  0  0  0
  130.5030  123.4360   58.9760 C   0  0  0  0  0  0  0  0  0  0  0  0
  131.7030  123.5130   59.7090 N   0  0  0  0  0  0  0  0  0  0  0  0
  132.9830  123.4170   59.2910 C   0  0  0  0  0  0  0  0  0  0  0  0
  133.3440  123.2360   58.1280 O   0  0  0  0  0  0  0  0  0  0  0  0
  134.0430  123.5490   60.3870 C   0  0  0  0  0  0  0  0  0  0  0  0
  134.2680  122.0000   61.3120 S   0  0  0  0  0  0  0  0  0  0  0  0
  132.6750  121.2190   61.4440 C   0  0  0  0  0  0  0  0  0  0  0  0
  131.7270  122.0020   62.0170 N   0  0  0  0  0  0  0  0  0  0  0  0
  130.4780  121.5040   62.1710 C   0  0  0  0  0  0  0  0  0  0  0  0
  129.4750  122.4320   62.8320 C   0  0  0  0  0  0  0  0  0  0  0  0
  130.1220  120.2230   61.7550 C   0  0  0  0  0  0  0  0  0  0  0  0
  131.0870  119.4150   61.1430 C   0  0  0  0  0  0  0  0  0  0  0  0
  130.6700  118.0200   60.6810 C   0  0  0  0  0  0  0  0  0  0  0  0
  132.3980  119.9160   60.9690 C   0  0  0  0  0  0  0  0  0  0  0  0
  133.4110  119.1060   60.2870 C   0  0  0  0  0  0  0  0  0  0  0  0
  134.2100  118.4650   59.7480 N   0  0  0  0  0  0  0  0  0  0  0  0
  130.0790  124.3760   58.0240 C   0  0  0  0  0  0  0  0  0  0  0  0
  128.8690  124.2000   57.3590 C   0  0  0  0  0  0  0  0  0  0  0  0
  124.6788  123.7467   59.8743 H   0  0  0  0  0  0  0  0  0  0  0  0
  123.5159  123.8237   58.5074 H   0  0  0  0  0  0  0  0  0  0  0  0
  124.8216  122.5901   58.5074 H   0  0  0  0  0  0  0  0  0  0  0  0
  124.9221  125.5072   57.7936 H   0  0  0  0  0  0  0  0  0  0  0  0
  126.3267  124.8665   58.7114 H   0  0  0  0  0  0  0  0  0  0  0  0
  127.8752  121.2647   58.7909 H   0  0  0  0  0  0  0  0  0  0  0  0
  130.0327  121.5769   59.9784 H   0  0  0  0  0  0  0  0  0  0  0  0
  131.5710  123.6980   60.6920 H   0  0  0  0  0  0  0  0  0  0  0  0
  135.0006  123.8269   59.9225 H   0  0  0  0  0  0  0  0  0  0  0  0
  133.7039  124.3197   61.0948 H   0  0  0  0  0  0  0  0  0  0  0  0
  129.5642  122.3495   63.9253 H   0  0  0  0  0  0  0  0  0  0  0  0
  129.6769  123.4688   62.5249 H   0  0  0  0  0  0  0  0  0  0  0  0
  128.4570  122.1503   62.5249 H   0  0  0  0  0  0  0  0  0  0  0  0
  129.0974  119.8520   61.9054 H   0  0  0  0  0  0  0  0  0  0  0  0
  130.4801  117.3846   61.5586 H   0  0  0  0  0  0  0  0  0  0  0  0
  129.7543  118.0926   60.0758 H   0  0  0  0  0  0  0  0  0  0  0  0
  131.4753  117.5782   60.0758 H   0  0  0  0  0  0  0  0  0  0  0  0
  130.7042  125.2536   57.8029 H   0  0  0  0  0  0  0  0  0  0  0  0
  128.5434  124.9426   56.6156 H   0  0  0  0  0  0  0  0  0  0  0  0
  1  2  1  0
  2  3  1  0
  3  4  1  0
  4  5  2  0
  4  6  1  0
  6  7  2  0
  7  8  1  0
  8  9  2  0
  9 10  1  0
 10 11  1  0
 11 12  2  0
 11 13  1  0
 13 14  1  0
 14 15  1  0
 15 16  2  0
 16 17  1  0
 17 18  1  0
 17 19  2  0
 19 20  1  0
 20 21  1  0
 20 22  2  0
 22 23  1  0
 23 24  3  0
  9 25  1  0
 25 26  2  0
 26  6  1  0
 22 15  1  0
  1 27  1  0
  1 28  1  0
  1 29  1  0
  2 30  1  0
  2 31  1  0
  7 32  1  0
  8 33  1  0
 10 34  1  0
 13 35  1  0
 13 36  1  0
 18 37  1  0
 18 38  1  0
 18 39  1  0
 19 40  1  0
 21 41  1  0
 21 42  1  0
 21 43  1  0
 25 44  1  0
 26 45  1  0
M  END
>  <Binding energies>  (1) 
[-8.2]

>  <Ligand effiencies>  (1) 
[-0.3037037037037037]

>  <Interactions>  (1) 
["V-A:ASP:366:CG:3212, V-B:ALA:541:CB:9864, H-B:TYR:531:OH:9767, V-A:PRO:482:CG:4326, V-B:PRO:540:CB:9857, V-B:TYR:539:CE2:9848, V-B:PRO:540:N:9856, V-B:PRO:540:CA:9855, V-B:MET:535:CE:9807, V-B:TYR:539:CD2:9846, V-B:TYR:531:CE2:9765, V-B:TYR:539:C:9839, V-B:TYR:531:CZ:9766, V-B:LEU:363:CD1:8160, V-A:ILE:369:CG2:3236, V-A:ILE:369:CB:3235, V-A:LEU:475:CD1:4257, V-B:ALA:541:CA:9862, V-A:ILE:369:CD1:3238, V-A:SER:385:CA:3406, V-B:TYR:539:CZ:9849, H-B:TYR:539:OH:9850, V-B:LEU:363:CA:8156, V-A:ASP:366:CA:3209, V-B:LEU:363:CB:8158, H-B:TYR:539:N:9842, H-A:SER:385:OG:3409, H-A:HIS:383:NE2:3393"]

$$$$
1aa_Ghoteimi_2023
     RDKit          3D

 67 70  0  0  0  0  0  0  0  0999 V2000
  130.7250  117.5740   60.1670 C   0  0  0  0  0  0  0  0  0  0  0  0
  131.6400  117.7430   61.3830 C   0  0  0  0  0  0  0  0  0  0  0  0
  132.8530  118.3660   60.9800 O   0  0  0  0  0  0  0  0  0  0  0  0
  132.8580  119.6240   60.4700 C   0  0  0  0  0  0  0  0  0  0  0  0
  133.1110  119.8790   59.2880 O   0  0  0  0  0  0  0  0  0  0  0  0
  132.5260  120.6790   61.4860 C   0  0  0  0  0  0  0  0  0  0  0  0
  131.2010  120.9720   61.8450 C   0  0  0  0  0  0  0  0  0  0  0  0
  130.9230  121.9560   62.7920 C   0  0  0  0  0  0  0  0  0  0  0  0
  131.9700  122.6630   63.4000 C   0  0  0  0  0  0  0  0  0  0  0  0
  131.8100  123.6750   64.3650 N   0  0  0  0  0  0  0  0  0  0  0  0
  132.6140  124.7150   64.6860 C   0  0  0  0  0  0  0  0  0  0  0  0
  133.6890  124.9670   64.1430 O   0  0  0  0  0  0  0  0  0  0  0  0
  132.1410  125.6490   65.8120 C   0  0  0  0  0  0  0  0  0  0  0  0
  130.9630  125.1240   66.4380 O   0  0  0  0  0  0  0  0  0  0  0  0
  130.0390  125.9780   67.0230 C   0  0  0  0  0  0  0  0  0  0  0  0
  130.0890  126.1480   68.3730 N   0  0  0  0  0  0  0  0  0  0  0  0
  129.1920  126.9650   68.9850 C   0  0  0  0  0  0  0  0  0  0  0  0
  129.3150  127.1000   70.4750 C   0  0  0  0  0  0  0  0  0  0  0  0
  128.6840  126.1910   71.3370 C   0  0  0  0  0  0  0  0  0  0  0  0
  128.7950  126.3150   72.7200 C   0  0  0  0  0  0  0  0  0  0  0  0
  129.5400  127.3490   73.2820 C   0  0  0  0  0  0  0  0  0  0  0  0
  129.5930  127.3940   74.6620 O   0  0  0  0  0  0  0  0  0  0  0  0
  130.3990  126.4480   75.3570 C   0  0  0  0  0  0  0  0  0  0  0  0
  130.1810  128.2620   72.4340 C   0  0  0  0  0  0  0  0  0  0  0  0
  130.0690  128.1350   71.0530 C   0  0  0  0  0  0  0  0  0  0  0  0
  128.2270  127.6510   68.2380 C   0  0  0  0  0  0  0  0  0  0  0  0
  128.1610  127.5030   66.8460 C   0  0  0  0  0  0  0  0  0  0  0  0
  127.1160  128.2700   66.1050 C   0  0  0  0  0  0  0  0  0  0  0  0
  125.8130  128.3490   66.6080 C   0  0  0  0  0  0  0  0  0  0  0  0
  124.8360  129.0700   65.9280 C   0  0  0  0  0  0  0  0  0  0  0  0
  125.1400  129.7320   64.7390 C   0  0  0  0  0  0  0  0  0  0  0  0
  124.1070  130.4220   64.1340 O   0  0  0  0  0  0  0  0  0  0  0  0
  124.1680  130.6790   62.7360 C   0  0  0  0  0  0  0  0  0  0  0  0
  126.4470  129.6620   64.2360 C   0  0  0  0  0  0  0  0  0  0  0  0
  127.4240  128.9400   64.9160 C   0  0  0  0  0  0  0  0  0  0  0  0
  129.0880  126.6340   66.2240 C   0  0  0  0  0  0  0  0  0  0  0  0
  129.0680  126.3820   64.7820 C   0  0  0  0  0  0  0  0  0  0  0  0
  129.0540  126.1820   63.6420 N   0  0  0  0  0  0  0  0  0  0  0  0
  133.2880  122.3750   63.0430 C   0  0  0  0  0  0  0  0  0  0  0  0
  133.5650  121.3930   62.0970 C   0  0  0  0  0  0  0  0  0  0  0  0
  129.6960  117.3839   60.5060 H   0  0  0  0  0  0  0  0  0  0  0  0
  130.7477  118.4915   59.5607 H   0  0  0  0  0  0  0  0  0  0  0  0
  131.0740  116.7251   59.5607 H   0  0  0  0  0  0  0  0  0  0  0  0
  131.1383  118.3694   62.1353 H   0  0  0  0  0  0  0  0  0  0  0  0
  131.8607  116.7562   61.8160 H   0  0  0  0  0  0  0  0  0  0  0  0
  130.3742  120.4197   61.3744 H   0  0  0  0  0  0  0  0  0  0  0  0
  129.8803  122.1783   63.0629 H   0  0  0  0  0  0  0  0  0  0  0  0
  130.9520  123.6060   64.8940 H   0  0  0  0  0  0  0  0  0  0  0  0
  132.9389  125.7432   66.5634 H   0  0  0  0  0  0  0  0  0  0  0  0
  131.9067  126.6341   65.3823 H   0  0  0  0  0  0  0  0  0  0  0  0
  128.0916  125.3664   70.9138 H   0  0  0  0  0  0  0  0  0  0  0  0
  128.2896  125.5895   73.3744 H   0  0  0  0  0  0  0  0  0  0  0  0
  130.2783  126.5897   76.4411 H   0  0  0  0  0  0  0  0  0  0  0  0
  130.0870  125.4293   75.0834 H   0  0  0  0  0  0  0  0  0  0  0  0
  131.4543  126.5942   75.0834 H   0  0  0  0  0  0  0  0  0  0  0  0
  130.7753  129.0827   72.8620 H   0  0  0  0  0  0  0  0  0  0  0  0
  130.5805  128.8587   70.4014 H   0  0  0  0  0  0  0  0  0  0  0  0
  127.5129  128.3133   68.7492 H   0  0  0  0  0  0  0  0  0  0  0  0
  125.5588  127.8374   67.5480 H   0  0  0  0  0  0  0  0  0  0  0  0
  123.8141  129.1181   66.3324 H   0  0  0  0  0  0  0  0  0  0  0  0
  124.4191  131.7367   62.5683 H   0  0  0  0  0  0  0  0  0  0  0  0
  124.9399  130.0421   62.2794 H   0  0  0  0  0  0  0  0  0  0  0  0
  123.1922  130.4569   62.2794 H   0  0  0  0  0  0  0  0  0  0  0  0
  126.7016  130.1800   63.2996 H   0  0  0  0  0  0  0  0  0  0  0  0
  128.4473  128.8959   64.5149 H   0  0  0  0  0  0  0  0  0  0  0  0
  134.1142  122.9286   63.5131 H   0  0  0  0  0  0  0  0  0  0  0  0
  134.6088  121.1754   61.8265 H   0  0  0  0  0  0  0  0  0  0  0  0
  1  2  1  0
  2  3  1  0
  3  4  1  0
  4  5  2  0
  4  6  1  0
  6  7  2  0
  7  8  1  0
  8  9  2  0
  9 10  1  0
 10 11  1  0
 11 12  2  0
 11 13  1  0
 13 14  1  0
 14 15  1  0
 15 16  2  0
 16 17  1  0
 17 18  1  0
 18 19  2  0
 19 20  1  0
 20 21  2  0
 21 22  1  0
 22 23  1  0
 21 24  1  0
 24 25  2  0
 17 26  2  0
 26 27  1  0
 27 28  1  0
 28 29  2  0
 29 30  1  0
 30 31  2  0
 31 32  1  0
 32 33  1  0
 31 34  1  0
 34 35  2  0
 27 36  2  0
 36 37  1  0
 37 38  3  0
  9 39  1  0
 39 40  2  0
 40  6  1  0
 36 15  1  0
 25 18  1  0
 35 28  1  0
  1 41  1  0
  1 42  1  0
  1 43  1  0
  2 44  1  0
  2 45  1  0
  7 46  1  0
  8 47  1  0
 10 48  1  0
 13 49  1  0
 13 50  1  0
 19 51  1  0
 20 52  1  0
 23 53  1  0
 23 54  1  0
 23 55  1  0
 24 56  1  0
 25 57  1  0
 26 58  1  0
 29 59  1  0
 30 60  1  0
 33 61  1  0
 33 62  1  0
 33 63  1  0
 34 64  1  0
 35 65  1  0
 39 66  1  0
 40 67  1  0
M  END
>  <Binding energies>  (1) 
[-9.37]

>  <Ligand effiencies>  (1) 
[-0.22853658536585364]

>  <Interactions>  (1) 
["H-A:LYS:547:NZ:4951, V-B:HIS:456:CD2:9039, V-A:GLU:543:C:4902, V-A:HIS:456:CE1:4069, H-A:GLY:454:N:4049, H-A:ARG:545:NH2:4928, V-A:TYR:484:CZ:4346, H-A:TYR:484:OH:4347, V-B:GLU:543:CD:9880, V-B:ALA:541:CB:9864, V-B:ILE:369:CD1:8210, V-A:GLU:543:CD:4908, V-A:PRO:482:CG:4326, V-B:TYR:539:CD2:9846, V-A:PRO:482:CB:4325, V-B:TYR:539:C:9839, V-A:GLY:454:CA:4048, V-A:ILE:369:CG2:3236, V-A:LEU:475:CD1:4257, V-B:HIS:456:CE1:9041, V-B:ARG:545:CZ:9898, V-B:ARG:545:CG:9894, V-B:ARG:545:CD:9895, V-B:TYR:539:CB:9843, H-A:ARG:545:NH1:4927, H-A:SER:385:OG:3409, H-A:HIS:383:NE2:3393, V-A:HIS:383:CE1:3392, H-B:GLY:454:N:9021"]

$$$$
1b_Ghoteimi_2023
     RDKit          3D

 54 57  0  0  0  0  0  0  0  0999 V2000
  133.9380  125.4980   66.5930 C   0  0  0  0  0  0  0  0  0  0  0  0
  133.8660  124.8770   65.3140 O   0  0  0  0  0  0  0  0  0  0  0  0
  132.8050  125.1740   64.4810 C   0  0  0  0  0  0  0  0  0  0  0  0
  133.0480  125.1000   63.1100 C   0  0  0  0  0  0  0  0  0  0  0  0
  132.0390  125.3830   62.1940 C   0  0  0  0  0  0  0  0  0  0  0  0
  130.7530  125.7450   62.6210 C   0  0  0  0  0  0  0  0  0  0  0  0
  129.6670  126.0520   61.6290 C   0  0  0  0  0  0  0  0  0  0  0  0
  129.1760  125.1070   60.7210 C   0  0  0  0  0  0  0  0  0  0  0  0
  128.1590  125.4430   59.8190 C   0  0  0  0  0  0  0  0  0  0  0  0
  127.6880  124.3860   58.8750 C   0  0  0  0  0  0  0  0  0  0  0  0
  126.3220  124.1310   58.7250 C   0  0  0  0  0  0  0  0  0  0  0  0
  125.8780  123.1410   57.8530 C   0  0  0  0  0  0  0  0  0  0  0  0
  126.7900  122.3840   57.1180 C   0  0  0  0  0  0  0  0  0  0  0  0
  126.2590  121.4230   56.2780 O   0  0  0  0  0  0  0  0  0  0  0  0
  125.2200  121.7880   55.3760 C   0  0  0  0  0  0  0  0  0  0  0  0
  128.1630  122.6300   57.2710 C   0  0  0  0  0  0  0  0  0  0  0  0
  128.6030  123.6210   58.1440 C   0  0  0  0  0  0  0  0  0  0  0  0
  127.6310  126.7580   59.8560 C   0  0  0  0  0  0  0  0  0  0  0  0
  126.5020  127.1310   58.9990 C   0  0  0  0  0  0  0  0  0  0  0  0
  125.6100  127.4240   58.3220 N   0  0  0  0  0  0  0  0  0  0  0  0
  128.1860  127.6680   60.7830 C   0  0  0  0  0  0  0  0  0  0  0  0
  127.6550  129.3590   60.9640 S   0  0  0  0  0  0  0  0  0  0  0  0
  129.1120  130.3600   61.4140 C   0  0  0  0  0  0  0  0  0  0  0  0
  129.5840  131.3430   60.3330 C   0  0  0  0  0  0  0  0  0  0  0  0
  129.7490  132.5360   60.5950 O   0  0  0  0  0  0  0  0  0  0  0  0
  129.7870  130.7880   59.1170 N   0  0  0  0  0  0  0  0  0  0  0  0
  130.2130  131.4300   57.9600 C   0  0  0  0  0  0  0  0  0  0  0  0
  131.5240  131.3600   57.4890 C   0  0  0  0  0  0  0  0  0  0  0  0
  131.5320  132.1180   56.3400 C   0  0  0  0  0  0  0  0  0  0  0  0
  130.2900  132.6160   56.1290 O   0  0  0  0  0  0  0  0  0  0  0  0
  129.4630  132.1720   57.1620 N   0  0  0  0  0  0  0  0  0  0  0  0
  129.1600  127.3120   61.6540 N   0  0  0  0  0  0  0  0  0  0  0  0
  130.5200  125.8180   64.0040 C   0  0  0  0  0  0  0  0  0  0  0  0
  131.5260  125.5380   64.9230 C   0  0  0  0  0  0  0  0  0  0  0  0
  133.8492  124.7324   67.3778 H   0  0  0  0  0  0  0  0  0  0  0  0
  134.9024  126.0173   66.6947 H   0  0  0  0  0  0  0  0  0  0  0  0
  133.1180  126.2242   66.6947 H   0  0  0  0  0  0  0  0  0  0  0  0
  134.0472  124.8151   62.7487 H   0  0  0  0  0  0  0  0  0  0  0  0
  132.2538  125.3217   61.1169 H   0  0  0  0  0  0  0  0  0  0  0  0
  129.5935  124.0893   60.7158 H   0  0  0  0  0  0  0  0  0  0  0  0
  125.5914  124.7178   59.3011 H   0  0  0  0  0  0  0  0  0  0  0  0
  124.7996  122.9543   57.7428 H   0  0  0  0  0  0  0  0  0  0  0  0
  124.3324  122.0998   55.9460 H   0  0  0  0  0  0  0  0  0  0  0  0
  125.5601  122.6205   54.7425 H   0  0  0  0  0  0  0  0  0  0  0  0
  124.9647  120.9257   54.7425 H   0  0  0  0  0  0  0  0  0  0  0  0
  128.8934  122.0383   56.6997 H   0  0  0  0  0  0  0  0  0  0  0  0
  129.6814  123.8044   58.2602 H   0  0  0  0  0  0  0  0  0  0  0  0
  128.8630  130.9385   62.3158 H   0  0  0  0  0  0  0  0  0  0  0  0
  129.9381  129.6494   61.5646 H   0  0  0  0  0  0  0  0  0  0  0  0
  129.6280  129.7950   59.0290 H   0  0  0  0  0  0  0  0  0  0  0  0
  132.3684  130.8168   57.9383 H   0  0  0  0  0  0  0  0  0  0  0  0
  132.4069  132.2916   55.6962 H   0  0  0  0  0  0  0  0  0  0  0  0
  129.5217  126.1024   64.3679 H   0  0  0  0  0  0  0  0  0  0  0  0
  131.3167  125.6026   66.0010 H   0  0  0  0  0  0  0  0  0  0  0  0
  1  2  1  0
  2  3  1  0
  3  4  2  0
  4  5  1  0
  5  6  2  0
  6  7  1  0
  7  8  2  0
  8  9  1  0
  9 10  1  0
 10 11  2  0
 11 12  1  0
 12 13  2  0
 13 14  1  0
 14 15  1  0
 13 16  1  0
 16 17  2  0
  9 18  2  0
 18 19  1  0
 19 20  3  0
 18 21  1  0
 21 22  1  0
 22 23  1  0
 23 24  1  0
 24 25  2  0
 24 26  1  0
 26 27  1  0
 27 28  1  0
 28 29  2  0
 29 30  1  0
 30 31  1  0
 21 32  2  0
  6 33  1  0
 33 34  2  0
 34  3  1  0
 32  7  1  0
 17 10  1  0
 31 27  2  0
  1 35  1  0
  1 36  1  0
  1 37  1  0
  4 38  1  0
  5 39  1  0
  8 40  1  0
 11 41  1  0
 12 42  1  0
 15 43  1  0
 15 44  1  0
 15 45  1  0
 16 46  1  0
 17 47  1  0
 23 48  1  0
 23 49  1  0
 26 50  1  0
 28 51  1  0
 29 52  1  0
 33 53  1  0
 34 54  1  0
M  END
>  <Binding energies>  (1) 
[-9.38]

>  <Ligand effiencies>  (1) 
[-0.268]

>  <Interactions>  (1) 
["H-A:GLY:454:N:4049, V-A:ARG:545:CZ:4926, V-A:ASP:366:CG:3212, H-A:TYR:484:OH:4347, H-A:ARG:545:NE:4924, V-A:ARG:545:CD:4923, V-A:ARG:545:CG:4922, V-A:PRO:540:CB:4885, V-A:ILE:538:CB:4862, V-A:LEU:363:CD1:3188, V-A:PRO:540:N:4884, V-A:PRO:540:CA:4883, V-B:ASP:366:CG:8184, H-B:TYR:531:OH:9767, H-A:ALA:541:N:4891, V-A:PRO:540:CD:4887, V-B:PRO:540:CB:9857, V-B:TYR:539:CE2:9848, V-B:PRO:540:CD:9859, V-B:PRO:540:N:9856, V-B:PRO:540:CA:9855, V-B:MET:535:CE:9807, V-B:TYR:539:CD2:9846, V-B:TYR:539:C:9839, V-B:LEU:363:CD1:8160, V-B:TYR:539:CZ:9849, H-A:TYR:539:N:4870, V-B:TYR:539:CE1:9847, V-B:ILE:538:CG2:9835, H-B:TYR:539:N:9842, V-B:ILE:538:CA:9832, V-B:MET:535:CG:9805, V-B:ILE:538:CB:9834, V-B:ILE:538:CG1:9836"]

$$$$
1b_Grossjean_2025
     RDKit          3D

 42 43  0  0  0  0  0  0  0  0999 V2000
  125.1810  124.3010   58.0070 C   0  0  0  0  0  0  0  0  0  0  0  0
  125.9770  123.9370   56.8880 O   0  0  0  0  0  0  0  0  0  0  0  0
  126.7300  122.8070   56.9050 C   0  0  0  0  0  0  0  0  0  0  0  0
  126.3830  121.7500   56.3680 O   0  0  0  0  0  0  0  0  0  0  0  0
  128.0320  122.9710   57.6360 C   0  0  0  0  0  0  0  0  0  0  0  0
  128.3930  122.1380   58.7050 C   0  0  0  0  0  0  0  0  0  0  0  0
  129.6070  122.3180   59.3620 C   0  0  0  0  0  0  0  0  0  0  0  0
  130.4830  123.3290   58.9670 C   0  0  0  0  0  0  0  0  0  0  0  0
  131.6800  123.4190   59.7030 N   0  0  0  0  0  0  0  0  0  0  0  0
  132.9640  123.3740   59.2860 C   0  0  0  0  0  0  0  0  0  0  0  0
  133.3330  123.2440   58.1190 O   0  0  0  0  0  0  0  0  0  0  0  0
  134.0160  123.5100   60.3880 C   0  0  0  0  0  0  0  0  0  0  0  0
  134.2460  121.9610   61.3120 S   0  0  0  0  0  0  0  0  0  0  0  0
  132.6550  121.1730   61.4310 C   0  0  0  0  0  0  0  0  0  0  0  0
  131.7180  121.9250   62.0600 N   0  0  0  0  0  0  0  0  0  0  0  0
  130.4700  121.4220   62.2050 C   0  0  0  0  0  0  0  0  0  0  0  0
  129.4710  122.3250   62.9040 C   0  0  0  0  0  0  0  0  0  0  0  0
  130.1110  120.1570   61.7430 C   0  0  0  0  0  0  0  0  0  0  0  0
  131.0760  119.3650   61.1130 C   0  0  0  0  0  0  0  0  0  0  0  0
  130.6640  117.9760   60.6300 C   0  0  0  0  0  0  0  0  0  0  0  0
  132.3860  119.8700   60.9510 C   0  0  0  0  0  0  0  0  0  0  0  0
  133.4250  119.0410   60.3330 C   0  0  0  0  0  0  0  0  0  0  0  0
  134.2420  118.3840   59.8450 N   0  0  0  0  0  0  0  0  0  0  0  0
  130.1290  124.1660   57.8980 C   0  0  0  0  0  0  0  0  0  0  0  0
  128.9160  123.9850   57.2420 C   0  0  0  0  0  0  0  0  0  0  0  0
  125.7184  124.0552   58.9348 H   0  0  0  0  0  0  0  0  0  0  0  0
  124.9776  125.3816   57.9763 H   0  0  0  0  0  0  0  0  0  0  0  0
  124.2306  123.7480   57.9763 H   0  0  0  0  0  0  0  0  0  0  0  0
  127.7118  121.3365   59.0267 H   0  0  0  0  0  0  0  0  0  0  0  0
  129.8776  121.6578   60.1992 H   0  0  0  0  0  0  0  0  0  0  0  0
  131.5420  123.5210   60.6980 H   0  0  0  0  0  0  0  0  0  0  0  0
  134.9745  123.7949   59.9296 H   0  0  0  0  0  0  0  0  0  0  0  0
  133.6672  124.2768   61.0953 H   0  0  0  0  0  0  0  0  0  0  0  0
  129.5840  122.2228   63.9934 H   0  0  0  0  0  0  0  0  0  0  0  0
  129.6546  123.3697   62.6127 H   0  0  0  0  0  0  0  0  0  0  0  0
  128.4501  122.0371   62.6127 H   0  0  0  0  0  0  0  0  0  0  0  0
  129.0832  119.7869   61.8721 H   0  0  0  0  0  0  0  0  0  0  0  0
  130.4718  117.3281   61.4979 H   0  0  0  0  0  0  0  0  0  0  0  0
  129.7507  118.0551   60.0221 H   0  0  0  0  0  0  0  0  0  0  0  0
  131.4728  117.5443   60.0221 H   0  0  0  0  0  0  0  0  0  0  0  0
  130.8120  124.9668   57.5782 H   0  0  0  0  0  0  0  0  0  0  0  0
  128.6472  124.6453   56.4042 H   0  0  0  0  0  0  0  0  0  0  0  0
  1  2  1  0
  2  3  1  0
  3  4  2  0
  3  5  1  0
  5  6  2  0
  6  7  1  0
  7  8  2  0
  8  9  1  0
  9 10  1  0
 10 11  2  0
 10 12  1  0
 12 13  1  0
 13 14  1  0
 14 15  2  0
 15 16  1  0
 16 17  1  0
 16 18  2  0
 18 19  1  0
 19 20  1  0
 19 21  2  0
 21 22  1  0
 22 23  3  0
  8 24  1  0
 24 25  2  0
 25  5  1  0
 21 14  1  0
  1 26  1  0
  1 27  1  0
  1 28  1  0
  6 29  1  0
  7 30  1  0
  9 31  1  0
 12 32  1  0
 12 33  1  0
 17 34  1  0
 17 35  1  0
 17 36  1  0
 18 37  1  0
 20 38  1  0
 20 39  1  0
 20 40  1  0
 24 41  1  0
 25 42  1  0
M  END
>  <Binding energies>  (1) 
[-8.02]

>  <Ligand effiencies>  (1) 
[-0.30846153846153845]

>  <Interactions>  (1) 
["V-A:ASP:366:CG:3212, V-B:ALA:541:CB:9864, H-B:TYR:531:OH:9767, V-A:PRO:482:CG:4326, V-B:TYR:539:CE2:9848, V-B:PRO:540:N:9856, V-B:PRO:540:CA:9855, V-B:MET:535:CE:9807, V-B:TYR:539:CD2:9846, V-B:TYR:531:CE2:9765, V-B:TYR:539:C:9839, V-B:LEU:363:CD1:8160, V-A:ILE:369:CG2:3236, V-A:ILE:369:CB:3235, V-A:LEU:475:CD1:4257, V-B:ALA:541:CA:9862, V-A:ILE:369:CD1:3238, V-A:SER:385:CA:3406, V-B:TYR:539:CZ:9849, H-B:TYR:539:OH:9850, V-A:ASP:366:CA:3209, H-B:TYR:539:N:9842, H-A:SER:385:OG:3409, H-A:HIS:383:NE2:3393"]

$$$$
1c_Ghoteimi_2023
     RDKit          3D

 54 57  0  0  0  0  0  0  0  0999 V2000
  127.8480  133.4930   61.3660 C   0  0  0  0  0  0  0  0  0  0  0  0
  129.0360  132.7780   61.0440 O   0  0  0  0  0  0  0  0  0  0  0  0
  129.0470  131.4010   61.1590 C   0  0  0  0  0  0  0  0  0  0  0  0
  127.8130  130.7590   61.1020 C   0  0  0  0  0  0  0  0  0  0  0  0
  127.7300  129.3730   61.2130 C   0  0  0  0  0  0  0  0  0  0  0  0
  128.8800  128.5880   61.3850 C   0  0  0  0  0  0  0  0  0  0  0  0
  128.7950  127.0940   61.5100 C   0  0  0  0  0  0  0  0  0  0  0  0
  128.3610  126.2720   60.4650 C   0  0  0  0  0  0  0  0  0  0  0  0
  128.3240  124.8810   60.6190 C   0  0  0  0  0  0  0  0  0  0  0  0
  127.9160  124.0610   59.4410 C   0  0  0  0  0  0  0  0  0  0  0  0
  126.5980  124.0900   58.9760 C   0  0  0  0  0  0  0  0  0  0  0  0
  126.2140  123.3090   57.8910 C   0  0  0  0  0  0  0  0  0  0  0  0
  127.1370  122.4800   57.2530 C   0  0  0  0  0  0  0  0  0  0  0  0
  126.6670  121.7400   56.1840 O   0  0  0  0  0  0  0  0  0  0  0  0
  125.2760  121.7670   55.8790 C   0  0  0  0  0  0  0  0  0  0  0  0
  128.4590  122.4430   57.7210 C   0  0  0  0  0  0  0  0  0  0  0  0
  128.8410  123.2260   58.8070 C   0  0  0  0  0  0  0  0  0  0  0  0
  128.7060  124.3310   61.8660 C   0  0  0  0  0  0  0  0  0  0  0  0
  128.6570  122.8840   62.1020 C   0  0  0  0  0  0  0  0  0  0  0  0
  128.6180  121.7430   62.2870 N   0  0  0  0  0  0  0  0  0  0  0  0
  129.1490  125.2160   62.8700 C   0  0  0  0  0  0  0  0  0  0  0  0
  129.8170  124.6550   64.4210 S   0  0  0  0  0  0  0  0  0  0  0  0
  131.3960  125.5470   64.5990 C   0  0  0  0  0  0  0  0  0  0  0  0
  132.4350  125.0960   63.5670 C   0  0  0  0  0  0  0  0  0  0  0  0
  133.5180  124.6520   63.9490 O   0  0  0  0  0  0  0  0  0  0  0  0
  132.0430  125.1870   62.2770 N   0  0  0  0  0  0  0  0  0  0  0  0
  132.7220  124.7080   61.1690 C   0  0  0  0  0  0  0  0  0  0  0  0
  133.9270  124.1800   61.1260 N   0  0  0  0  0  0  0  0  0  0  0  0
  134.2420  123.7940   59.9050 C   0  0  0  0  0  0  0  0  0  0  0  0
  133.2770  124.0050   58.9250 C   0  0  0  0  0  0  0  0  0  0  0  0
  131.8860  124.7540   59.6500 S   0  0  0  0  0  0  0  0  0  0  0  0
  129.1990  126.5580   62.6920 N   0  0  0  0  0  0  0  0  0  0  0  0
  130.1180  129.2450   61.4350 C   0  0  0  0  0  0  0  0  0  0  0  0
  130.2060  130.6300   61.3260 C   0  0  0  0  0  0  0  0  0  0  0  0
  127.7430  133.5562   62.4592 H   0  0  0  0  0  0  0  0  0  0  0  0
  127.9046  134.5072   60.9438 H   0  0  0  0  0  0  0  0  0  0  0  0
  126.9783  132.9681   60.9438 H   0  0  0  0  0  0  0  0  0  0  0  0
  126.8958  131.3513   60.9682 H   0  0  0  0  0  0  0  0  0  0  0  0
  126.7452  128.8852   61.1649 H   0  0  0  0  0  0  0  0  0  0  0  0
  128.0456  126.7230   59.5126 H   0  0  0  0  0  0  0  0  0  0  0  0
  125.8585  124.7357   59.4722 H   0  0  0  0  0  0  0  0  0  0  0  0
  125.1744  123.3453   57.5332 H   0  0  0  0  0  0  0  0  0  0  0  0
  124.6959  121.7783   56.8135 H   0  0  0  0  0  0  0  0  0  0  0  0
  125.0464  122.6698   55.2940 H   0  0  0  0  0  0  0  0  0  0  0  0
  125.0115  120.8738   55.2940 H   0  0  0  0  0  0  0  0  0  0  0  0
  129.1967  121.7928   57.2280 H   0  0  0  0  0  0  0  0  0  0  0  0
  129.8790  123.1874   59.1692 H   0  0  0  0  0  0  0  0  0  0  0  0
  131.2114  126.6235   64.4687 H   0  0  0  0  0  0  0  0  0  0  0  0
  131.7967  125.3279   65.5997 H   0  0  0  0  0  0  0  0  0  0  0  0
  131.1300  125.5770   62.0970 H   0  0  0  0  0  0  0  0  0  0  0  0
  135.2129  123.3313   59.6743 H   0  0  0  0  0  0  0  0  0  0  0  0
  133.3781  123.7403   57.8621 H   0  0  0  0  0  0  0  0  0  0  0  0
  131.0372  128.6545   61.5628 H   0  0  0  0  0  0  0  0  0  0  0  0
  131.1890  131.1216   61.3711 H   0  0  0  0  0  0  0  0  0  0  0  0
  1  2  1  0
  2  3  1  0
  3  4  2  0
  4  5  1  0
  5  6  2  0
  6  7  1  0
  7  8  2  0
  8  9  1  0
  9 10  1  0
 10 11  2  0
 11 12  1  0
 12 13  2  0
 13 14  1  0
 14 15  1  0
 13 16  1  0
 16 17  2  0
  9 18  2  0
 18 19  1  0
 19 20  3  0
 18 21  1  0
 21 22  1  0
 22 23  1  0
 23 24  1  0
 24 25  2  0
 24 26  1  0
 26 27  1  0
 27 28  2  0
 28 29  1  0
 29 30  2  0
 30 31  1  0
 21 32  2  0
  6 33  1  0
 33 34  2  0
 34  3  1  0
 32  7  1  0
 17 10  1  0
 31 27  1  0
  1 35  1  0
  1 36  1  0
  1 37  1  0
  4 38  1  0
  5 39  1  0
  8 40  1  0
 11 41  1  0
 12 42  1  0
 15 43  1  0
 15 44  1  0
 15 45  1  0
 16 46  1  0
 17 47  1  0
 23 48  1  0
 23 49  1  0
 26 50  1  0
 29 51  1  0
 30 52  1  0
 33 53  1  0
 34 54  1  0
M  END
>  <Binding energies>  (1) 
[-7.97]

>  <Ligand effiencies>  (1) 
[-0.2277142857142857]

>  <Interactions>  (1) 
["H-A:GLY:454:N:4049, H-A:ARG:545:NH2:4928, H-B:ALA:541:N:9863, V-A:ARG:545:CZ:4926, V-A:ASP:366:CG:3212, H-A:TYR:484:OH:4347, V-B:GLU:543:CD:9880, V-B:ALA:541:CB:9864, V-A:ALA:541:CB:4892, H-A:ALA:541:N:4891, V-A:GLU:543:CD:4908, V-A:ALA:541:CA:4890, V-B:PRO:540:CB:9857, V-B:TYR:539:CE2:9848, V-B:PRO:540:CD:9859, V-B:PRO:540:N:9856, V-B:PRO:540:CA:9855, V-B:MET:535:CE:9807, V-B:TYR:539:CD2:9846, V-B:TYR:539:C:9839, V-B:LEU:363:CD1:8160, V-A:ILE:369:CG2:3236, V-A:ASP:366:CB:3211, V-A:ILE:369:CB:3235, V-A:ILE:369:CD1:3238, V-B:TYR:539:CG:9844, V-B:TYR:539:CZ:9849, V-A:ASP:366:CA:3209, V-B:ILE:538:CG2:9835, H-B:TYR:539:N:9842, V-B:ILE:538:CA:9832"]

$$$$
1c_Grossjean_2025
     RDKit          3D

 40 41  0  0  0  0  0  0  0  0999 V2000
  125.1950  122.1210   55.1240 C   0  0  0  0  0  0  0  0  0  0  0  0
  126.3500  121.5980   55.7710 O   0  0  0  0  0  0  0  0  0  0  0  0
  126.7730  122.1650   56.9580 C   0  0  0  0  0  0  0  0  0  0  0  0
  128.1340  122.0650   57.2460 C   0  0  0  0  0  0  0  0  0  0  0  0
  128.6560  122.6060   58.4170 C   0  0  0  0  0  0  0  0  0  0  0  0
  127.8110  123.2690   59.3200 C   0  0  0  0  0  0  0  0  0  0  0  0
  128.2300  123.8420   60.5360 N   0  0  0  0  0  0  0  0  0  0  0  0
  128.2370  123.3110   61.7770 C   0  0  0  0  0  0  0  0  0  0  0  0
  127.8760  122.1710   62.0680 O   0  0  0  0  0  0  0  0  0  0  0  0
  128.7520  124.2350   62.8830 C   0  0  0  0  0  0  0  0  0  0  0  0
  129.8700  123.3690   64.0240 S   0  0  0  0  0  0  0  0  0  0  0  0
  130.9860  122.3650   63.0650 C   0  0  0  0  0  0  0  0  0  0  0  0
  130.3970  121.2670   62.5260 N   0  0  0  0  0  0  0  0  0  0  0  0
  131.1480  120.4280   61.7760 C   0  0  0  0  0  0  0  0  0  0  0  0
  130.4180  119.2280   61.1990 C   0  0  0  0  0  0  0  0  0  0  0  0
  132.5040  120.6390   61.5410 C   0  0  0  0  0  0  0  0  0  0  0  0
  133.1270  121.7530   62.1110 C   0  0  0  0  0  0  0  0  0  0  0  0
  134.6190  121.9540   61.8540 C   0  0  0  0  0  0  0  0  0  0  0  0
  132.3630  122.6440   62.9010 C   0  0  0  0  0  0  0  0  0  0  0  0
  133.0100  123.7870   63.5510 C   0  0  0  0  0  0  0  0  0  0  0  0
  133.5210  124.6890   64.0630 N   0  0  0  0  0  0  0  0  0  0  0  0
  126.4460  123.3610   59.0410 C   0  0  0  0  0  0  0  0  0  0  0  0
  125.9280  122.8180   57.8690 C   0  0  0  0  0  0  0  0  0  0  0  0
  124.4681  122.4502   55.8811 H   0  0  0  0  0  0  0  0  0  0  0  0
  125.4827  122.9767   54.4955 H   0  0  0  0  0  0  0  0  0  0  0  0
  124.7417  121.3403   54.4955 H   0  0  0  0  0  0  0  0  0  0  0  0
  128.8028  121.5523   56.5390 H   0  0  0  0  0  0  0  0  0  0  0  0
  129.7303  122.5140   58.6346 H   0  0  0  0  0  0  0  0  0  0  0  0
  128.6240  124.7670   60.4450 H   0  0  0  0  0  0  0  0  0  0  0  0
  129.2943  125.0736   62.4219 H   0  0  0  0  0  0  0  0  0  0  0  0
  127.8859  124.5918   63.4597 H   0  0  0  0  0  0  0  0  0  0  0  0
  130.0369  118.6016   62.0190 H   0  0  0  0  0  0  0  0  0  0  0  0
  129.5768  119.5734   60.5800 H   0  0  0  0  0  0  0  0  0  0  0  0
  131.1115  118.6398   60.5800 H   0  0  0  0  0  0  0  0  0  0  0  0
  133.0771  119.9388   60.9155 H   0  0  0  0  0  0  0  0  0  0  0  0
  135.1502  122.0256   62.8146 H   0  0  0  0  0  0  0  0  0  0  0  0
  135.0106  121.1005   61.2811 H   0  0  0  0  0  0  0  0  0  0  0  0
  134.7708  122.8807   61.2811 H   0  0  0  0  0  0  0  0  0  0  0  0
  125.7757  123.8659   59.7522 H   0  0  0  0  0  0  0  0  0  0  0  0
  124.8521  122.9009   57.6557 H   0  0  0  0  0  0  0  0  0  0  0  0
  1  2  1  0
  2  3  1  0
  3  4  2  0
  4  5  1  0
  5  6  2  0
  6  7  1  0
  7  8  1  0
  8  9  2  0
  8 10  1  0
 10 11  1  0
 11 12  1  0
 12 13  2  0
 13 14  1  0
 14 15  1  0
 14 16  2  0
 16 17  1  0
 17 18  1  0
 17 19  2  0
 19 20  1  0
 20 21  3  0
  6 22  1  0
 22 23  2  0
 23  3  1  0
 19 12  1  0
  1 24  1  0
  1 25  1  0
  1 26  1  0
  4 27  1  0
  5 28  1  0
  7 29  1  0
 10 30  1  0
 10 31  1  0
 15 32  1  0
 15 33  1  0
 15 34  1  0
 16 35  1  0
 18 36  1  0
 18 37  1  0
 18 38  1  0
 22 39  1  0
 23 40  1  0
M  END
>  <Binding energies>  (1) 
[-7.9]

>  <Ligand effiencies>  (1) 
[-0.32916666666666666]

>  <Interactions>  (1) 
["H-A:GLY:454:N:4049, H-A:ARG:545:NH2:4928, V-B:GLU:543:CG:9879, H-B:ALA:541:N:9863, H-A:TYR:484:OH:4347, V-B:GLU:543:CD:9880, V-B:ALA:541:CB:9864, V-A:PRO:482:CG:4326, V-B:PRO:540:CB:9857, V-B:TYR:539:CE2:9848, V-B:PRO:540:CD:9859, V-B:PRO:540:N:9856, V-B:PRO:540:CA:9855, V-B:MET:535:CE:9807, V-B:TYR:539:CA:9841, V-B:TYR:539:CD2:9846, V-B:TYR:531:CE2:9765, V-B:TYR:539:C:9839, V-B:LEU:363:CD1:8160, V-A:GLY:454:CA:4048, V-A:ILE:369:CG2:3236, V-A:LEU:475:CD1:4257, V-A:ILE:369:CD1:3238, V-B:TYR:539:CG:9844, V-B:TYR:539:CZ:9849, V-B:TYR:539:CE1:9847, V-B:TYR:539:CD1:9845, V-B:ILE:538:CG2:9835, H-B:TYR:539:N:9842, V-B:ILE:538:CA:9832, V-B:MET:535:CG:9805, V-B:ILE:538:CB:9834, V-B:ILE:538:CG1:9836"]

$$$$
1d_Ghoteimi_2023
     RDKit          3D

 50 52  0  0  0  0  0  0  0  0999 V2000
  126.1950  128.4170   66.6050 C   0  0  0  0  0  0  0  0  0  0  0  0
  124.9090  129.0000   66.4680 O   0  0  0  0  0  0  0  0  0  0  0  0
  124.5720  129.6610   65.3410 C   0  0  0  0  0  0  0  0  0  0  0  0
  123.4810  129.6220   64.7710 O   0  0  0  0  0  0  0  0  0  0  0  0
  125.7230  130.5040   64.7980 C   0  0  0  0  0  0  0  0  0  0  0  0
  126.2210  129.7880   63.2030 S   0  0  0  0  0  0  0  0  0  0  0  0
  126.8620  131.1200   62.2110 C   0  0  0  0  0  0  0  0  0  0  0  0
  128.1030  130.8870   61.7220 N   0  0  0  0  0  0  0  0  0  0  0  0
  128.7140  131.8220   60.9520 C   0  0  0  0  0  0  0  0  0  0  0  0
  130.0860  131.4840   60.4450 C   0  0  0  0  0  0  0  0  0  0  0  0
  130.3150  131.2120   59.0870 C   0  0  0  0  0  0  0  0  0  0  0  0
  131.5860  130.8930   58.6200 C   0  0  0  0  0  0  0  0  0  0  0  0
  132.6680  130.8320   59.4950 C   0  0  0  0  0  0  0  0  0  0  0  0
  133.8920  130.5030   58.9440 O   0  0  0  0  0  0  0  0  0  0  0  0
  133.9390  129.9810   57.6200 C   0  0  0  0  0  0  0  0  0  0  0  0
  132.4560  131.0990   60.8540 C   0  0  0  0  0  0  0  0  0  0  0  0
  131.1830  131.4200   61.3170 C   0  0  0  0  0  0  0  0  0  0  0  0
  128.0690  133.0270   60.6470 C   0  0  0  0  0  0  0  0  0  0  0  0
  126.7920  133.3000   61.1520 C   0  0  0  0  0  0  0  0  0  0  0  0
  126.1640  134.6090   60.7930 C   0  0  0  0  0  0  0  0  0  0  0  0
  126.8540  135.8040   61.0150 C   0  0  0  0  0  0  0  0  0  0  0  0
  126.2760  137.0270   60.6820 C   0  0  0  0  0  0  0  0  0  0  0  0
  125.0020  137.0780   60.1190 C   0  0  0  0  0  0  0  0  0  0  0  0
  124.5050  138.3340   59.8280 O   0  0  0  0  0  0  0  0  0  0  0  0
  125.3850  139.3290   59.3160 C   0  0  0  0  0  0  0  0  0  0  0  0
  124.3100  135.8800   59.8830 C   0  0  0  0  0  0  0  0  0  0  0  0
  124.8910  134.6590   60.2150 C   0  0  0  0  0  0  0  0  0  0  0  0
  126.1710  132.3300   61.9770 C   0  0  0  0  0  0  0  0  0  0  0  0
  124.8810  132.6060   62.6160 C   0  0  0  0  0  0  0  0  0  0  0  0
  123.8630  132.8260   63.1200 N   0  0  0  0  0  0  0  0  0  0  0  0
  126.4362  128.3077   67.6727 H   0  0  0  0  0  0  0  0  0  0  0  0
  126.2022  127.4276   66.1243 H   0  0  0  0  0  0  0  0  0  0  0  0
  126.9438  129.0636   66.1243 H   0  0  0  0  0  0  0  0  0  0  0  0
  125.3926  131.5435   64.6560 H   0  0  0  0  0  0  0  0  0  0  0  0
  126.5679  130.5051   65.5024 H   0  0  0  0  0  0  0  0  0  0  0  0
  129.4740  131.2518   58.3791 H   0  0  0  0  0  0  0  0  0  0  0  0
  131.7379  130.6871   57.5502 H   0  0  0  0  0  0  0  0  0  0  0  0
  134.0376  128.8862   57.6608 H   0  0  0  0  0  0  0  0  0  0  0  0
  133.0133  130.2462   57.0882 H   0  0  0  0  0  0  0  0  0  0  0  0
  134.8024  130.4073   57.0882 H   0  0  0  0  0  0  0  0  0  0  0  0
  133.2996  131.0548   61.5585 H   0  0  0  0  0  0  0  0  0  0  0  0
  131.0345  131.6274   62.3870 H   0  0  0  0  0  0  0  0  0  0  0  0
  128.5703  133.7660   60.0047 H   0  0  0  0  0  0  0  0  0  0  0  0
  127.8614  135.7786   61.4561 H   0  0  0  0  0  0  0  0  0  0  0  0
  126.8295  137.9599   60.8648 H   0  0  0  0  0  0  0  0  0  0  0  0
  125.8588  139.8647   60.1518 H   0  0  0  0  0  0  0  0  0  0  0  0
  126.1609  138.8506   58.7003 H   0  0  0  0  0  0  0  0  0  0  0  0
  124.8153  140.0406   58.7003 H   0  0  0  0  0  0  0  0  0  0  0  0
  123.3059  135.9058   59.4345 H   0  0  0  0  0  0  0  0  0  0  0  0
  124.3438  133.7247   60.0209 H   0  0  0  0  0  0  0  0  0  0  0  0
  1  2  1  0
  2  3  1  0
  3  4  2  0
  3  5  1  0
  5  6  1  0
  6  7  1  0
  7  8  2  0
  8  9  1  0
  9 10  1  0
 10 11  2  0
 11 12  1  0
 12 13  2  0
 13 14  1  0
 14 15  1  0
 13 16  1  0
 16 17  2  0
  9 18  2  0
 18 19  1  0
 19 20  1  0
 20 21  2  0
 21 22  1  0
 22 23  2  0
 23 24  1  0
 24 25  1  0
 23 26  1  0
 26 27  2  0
 19 28  2  0
 28 29  1  0
 29 30  3  0
 28  7  1  0
 17 10  1  0
 27 20  1  0
  1 31  1  0
  1 32  1  0
  1 33  1  0
  5 34  1  0
  5 35  1  0
 11 36  1  0
 12 37  1  0
 15 38  1  0
 15 39  1  0
 15 40  1  0
 16 41  1  0
 17 42  1  0
 18 43  1  0
 21 44  1  0
 22 45  1  0
 25 46  1  0
 25 47  1  0
 25 48  1  0
 26 49  1  0
 27 50  1  0
M  END
>  <Binding energies>  (1) 
[-7.96]

>  <Ligand effiencies>  (1) 
[-0.2653333333333333]

>  <Interactions>  (1) 
["V-A:ASP:366:CG:3212, V-A:TYR:539:CD1:4873, V-A:PRO:540:CB:4885, V-A:LEU:363:CD1:3188, V-A:TYR:539:CE1:4875, V-A:PRO:540:CA:4883, V-B:ILE:369:CG2:8208, V-B:LEU:475:CD1:9229, V-A:ALA:541:CB:4892, V-A:TYR:539:C:4867, V-A:GLU:543:CD:4908, H-B:ARG:545:NH2:9900, V-A:ASP:366:CB:3211, V-B:HIS:456:CE1:9041, V-A:PRO:540:C:4881, V-A:LEU:363:CA:3184, V-A:LEU:363:CB:3186, V-B:GLY:454:CA:9020, V-B:ARG:545:CZ:9898, V-B:PRO:482:CB:9297, V-A:TYR:539:CB:4871, V-B:PRO:482:CG:9298, V-B:LEU:373:CD1:8251, H-B:SER:385:OG:8381, V-B:SER:385:CB:8380, V-A:ILE:343:CG2:2991, V-B:HIS:383:CD2:8363, V-B:HIS:383:CE1:8365, H-B:GLY:454:N:9021, H-B:TYR:484:OH:9319, H-B:ARG:545:NE:9896, H-B:ARG:545:NH1:9899, H-A:LEU:363:N:3185"]

$$$$
1d_Grossjean_2025
     RDKit          3D

 36 37  0  0  0  0  0  0  0  0999 V2000
  132.6620  130.7490   61.3120 C   0  0  0  0  0  0  0  0  0  0  0  0
  131.8770  131.1300   60.0730 C   0  0  0  0  0  0  0  0  0  0  0  0
  132.4630  131.1320   58.8090 C   0  0  0  0  0  0  0  0  0  0  0  0
  131.6870  131.4830   57.6990 C   0  0  0  0  0  0  0  0  0  0  0  0
  132.3470  131.4620   56.3220 C   0  0  0  0  0  0  0  0  0  0  0  0
  130.3310  131.8360   57.8880 C   0  0  0  0  0  0  0  0  0  0  0  0
  129.4870  132.1610   56.7360 C   0  0  0  0  0  0  0  0  0  0  0  0
  128.8220  132.4170   55.8240 N   0  0  0  0  0  0  0  0  0  0  0  0
  129.8260  131.8310   59.2100 C   0  0  0  0  0  0  0  0  0  0  0  0
  128.1480  132.2480   59.6300 S   0  0  0  0  0  0  0  0  0  0  0  0
  128.1630  132.9220   61.3190 C   0  0  0  0  0  0  0  0  0  0  0  0
  127.1600  134.0640   61.4920 C   0  0  0  0  0  0  0  0  0  0  0  0
  126.6510  134.2540   62.5970 O   0  0  0  0  0  0  0  0  0  0  0  0
  126.9310  134.8050   60.3870 N   0  0  0  0  0  0  0  0  0  0  0  0
  126.0690  135.9010   60.1980 C   0  0  0  0  0  0  0  0  0  0  0  0
  126.6870  137.1530   60.1220 C   0  0  0  0  0  0  0  0  0  0  0  0
  125.9260  138.3020   59.9310 C   0  0  0  0  0  0  0  0  0  0  0  0
  124.5420  138.2010   59.8080 C   0  0  0  0  0  0  0  0  0  0  0  0
  123.9140  136.9600   59.8740 C   0  0  0  0  0  0  0  0  0  0  0  0
  124.6730  135.8080   60.0660 C   0  0  0  0  0  0  0  0  0  0  0  0
  130.5820  131.4680   60.2770 N   0  0  0  0  0  0  0  0  0  0  0  0
  132.0891  131.0271   62.2089 H   0  0  0  0  0  0  0  0  0  0  0  0
  132.8412  129.6637   61.3132 H   0  0  0  0  0  0  0  0  0  0  0  0
  133.6255  131.2797   61.3132 H   0  0  0  0  0  0  0  0  0  0  0  0
  133.5219  130.8612   58.6854 H   0  0  0  0  0  0  0  0  0  0  0  0
  133.4401  131.4272   56.4398 H   0  0  0  0  0  0  0  0  0  0  0  0
  132.0096  130.5741   55.7672 H   0  0  0  0  0  0  0  0  0  0  0  0
  132.0667  132.3695   55.7672 H   0  0  0  0  0  0  0  0  0  0  0  0
  127.9090  132.1170   62.0243 H   0  0  0  0  0  0  0  0  0  0  0  0
  129.1688  133.3220   61.5151 H   0  0  0  0  0  0  0  0  0  0  0  0
  127.4640  134.5550   59.5660 H   0  0  0  0  0  0  0  0  0  0  0  0
  127.7805  137.2299   60.2137 H   0  0  0  0  0  0  0  0  0  0  0  0
  126.4150  139.2859   59.8773 H   0  0  0  0  0  0  0  0  0  0  0  0
  123.9402  139.1094   59.6575 H   0  0  0  0  0  0  0  0  0  0  0  0
  122.8208  136.8895   59.7747 H   0  0  0  0  0  0  0  0  0  0  0  0
  124.1799  134.8259   60.1143 H   0  0  0  0  0  0  0  0  0  0  0  0
  1  2  1  0
  2  3  2  0
  3  4  1  0
  4  5  1  0
  4  6  2  0
  6  7  1  0
  7  8  3  0
  6  9  1  0
  9 10  1  0
 10 11  1  0
 11 12  1  0
 12 13  2  0
 12 14  1  0
 14 15  1  0
 15 16  2  0
 16 17  1  0
 17 18  2  0
 18 19  1  0
 19 20  2  0
  9 21  2  0
 21  2  1  0
 20 15  1  0
  1 22  1  0
  1 23  1  0
  1 24  1  0
  3 25  1  0
  5 26  1  0
  5 27  1  0
  5 28  1  0
 11 29  1  0
 11 30  1  0
 14 31  1  0
 16 32  1  0
 17 33  1  0
 18 34  1  0
 19 35  1  0
 20 36  1  0
M  END
>  <Binding energies>  (1) 
[-7.88]

>  <Ligand effiencies>  (1) 
[-0.35818181818181816]

>  <Interactions>  (1) 
["V-A:ASP:366:CG:3212, V-A:TYR:539:CD1:4873, V-A:PRO:540:CB:4885, V-A:LEU:363:CD1:3188, V-A:PRO:540:N:4884, V-A:TYR:539:CE1:4875, V-A:PRO:540:CA:4883, V-B:ILE:369:CG2:8208, V-A:ALA:541:CB:4892, H-A:ALA:541:N:4891, V-A:TYR:539:C:4867, V-A:TYR:539:CG:4872, V-A:ASN:362:CB:3175, H-A:TYR:539:N:4870, H-A:TYR:539:O:4868, V-B:PRO:482:CB:9297, V-A:TYR:539:CB:4871, V-B:PRO:482:CG:9298, V-B:LEU:373:CD1:8251, V-B:SER:385:CB:8380, V-B:SER:385:CA:8378"]

$$$$
1e_Grossjean_2025
     RDKit          3D

 38 39  0  0  0  0  0  0  0  0999 V2000
  131.6470  131.1620   56.9950 C   0  0  0  0  0  0  0  0  0  0  0  0
  132.1290  131.0980   58.4320 C   0  0  0  0  0  0  0  0  0  0  0  0
  133.4900  131.1200   58.7480 C   0  0  0  0  0  0  0  0  0  0  0  0
  133.8590  131.0550   60.0920 C   0  0  0  0  0  0  0  0  0  0  0  0
  132.8720  130.9690   61.0760 C   0  0  0  0  0  0  0  0  0  0  0  0
  131.5260  130.9560   60.6900 C   0  0  0  0  0  0  0  0  0  0  0  0
  130.5780  130.8560   61.7250 N   0  0  0  0  0  0  0  0  0  0  0  0
  129.4540  131.5820   61.9070 C   0  0  0  0  0  0  0  0  0  0  0  0
  129.0720  132.4910   61.1690 O   0  0  0  0  0  0  0  0  0  0  0  0
  128.6340  131.2360   63.1520 C   0  0  0  0  0  0  0  0  0  0  0  0
  127.6700  129.7100   62.9310 S   0  0  0  0  0  0  0  0  0  0  0  0
  126.9690  129.2450   64.5010 C   0  0  0  0  0  0  0  0  0  0  0  0
  127.8430  128.5930   65.3100 N   0  0  0  0  0  0  0  0  0  0  0  0
  127.4230  128.1870   66.5310 C   0  0  0  0  0  0  0  0  0  0  0  0
  128.4560  127.4720   67.3810 C   0  0  0  0  0  0  0  0  0  0  0  0
  126.1250  128.4000   66.9890 C   0  0  0  0  0  0  0  0  0  0  0  0
  125.2090  129.0490   66.1550 C   0  0  0  0  0  0  0  0  0  0  0  0
  123.7860  129.2540   66.6730 C   0  0  0  0  0  0  0  0  0  0  0  0
  125.6240  129.4790   64.8740 C   0  0  0  0  0  0  0  0  0  0  0  0
  124.6610  130.1080   63.9660 C   0  0  0  0  0  0  0  0  0  0  0  0
  123.8990  130.6040   63.2500 N   0  0  0  0  0  0  0  0  0  0  0  0
  131.1580  131.0150   59.3760 N   0  0  0  0  0  0  0  0  0  0  0  0
  130.5567  131.3068   56.9801 H   0  0  0  0  0  0  0  0  0  0  0  0
  132.1356  132.0031   56.4815 H   0  0  0  0  0  0  0  0  0  0  0  0
  131.8992  130.2225   56.4815 H   0  0  0  0  0  0  0  0  0  0  0  0
  134.2514  131.1869   57.9569 H   0  0  0  0  0  0  0  0  0  0  0  0
  134.9219  131.0714   60.3750 H   0  0  0  0  0  0  0  0  0  0  0  0
  133.1479  130.9123   62.1393 H   0  0  0  0  0  0  0  0  0  0  0  0
  130.8080  130.1860   62.4440 H   0  0  0  0  0  0  0  0  0  0  0  0
  129.3188  131.1033   64.0026 H   0  0  0  0  0  0  0  0  0  0  0  0
  127.9284  132.0601   63.3337 H   0  0  0  0  0  0  0  0  0  0  0  0
  128.2278  127.6299   68.4454 H   0  0  0  0  0  0  0  0  0  0  0  0
  128.4335  126.3953   67.1570 H   0  0  0  0  0  0  0  0  0  0  0  0
  129.4558  127.8723   67.1570 H   0  0  0  0  0  0  0  0  0  0  0  0
  125.8248  128.0627   67.9920 H   0  0  0  0  0  0  0  0  0  0  0  0
  123.7925  129.2531   67.7730 H   0  0  0  0  0  0  0  0  0  0  0  0
  123.3987  130.2172   66.3094 H   0  0  0  0  0  0  0  0  0  0  0  0
  123.1425  128.4393   66.3094 H   0  0  0  0  0  0  0  0  0  0  0  0
  1  2  1  0
  2  3  2  0
  3  4  1  0
  4  5  2  0
  5  6  1  0
  6  7  1  0
  7  8  1  0
  8  9  2  0
  8 10  1  0
 10 11  1  0
 11 12  1  0
 12 13  2  0
 13 14  1  0
 14 15  1  0
 14 16  2  0
 16 17  1  0
 17 18  1  0
 17 19  2  0
 19 20  1  0
 20 21  3  0
  6 22  2  0
 22  2  1  0
 19 12  1  0
  1 23  1  0
  1 24  1  0
  1 25  1  0
  3 26  1  0
  4 27  1  0
  5 28  1  0
  7 29  1  0
 10 30  1  0
 10 31  1  0
 15 32  1  0
 15 33  1  0
 15 34  1  0
 16 35  1  0
 18 36  1  0
 18 37  1  0
 18 38  1  0
M  END
>  <Binding energies>  (1) 
[-7.41]

>  <Ligand effiencies>  (1) 
[-0.32217391304347825]

>  <Interactions>  (1) 
["V-A:ASP:366:CG:3212, H-A:GLU:543:OE2:4910, V-A:PRO:540:CB:4885, V-A:LEU:363:CD1:3188, V-A:PRO:540:CA:4883, V-A:ALA:541:CB:4892, H-A:ALA:541:N:4891, V-A:GLU:543:CD:4908, H-A:GLU:543:OE1:4909, V-A:GLU:543:CG:4907, V-B:HIS:456:CE1:9041, V-A:LEU:363:CA:3184, V-A:ASN:362:CB:3175, V-A:ASN:362:C:3171, V-A:LEU:363:CB:3186, V-B:ARG:545:CZ:9898, V-B:ARG:545:CG:9894, V-B:ARG:545:CD:9895, H-B:GLY:454:N:9021"]

$$$$
1f_Grossjean_2025
     RDKit          3D

 35 36  0  0  0  0  0  0  0  0999 V2000
  130.5230  118.4050   60.7000 C   0  0  0  0  0  0  0  0  0  0  0  0
  131.2280  119.6180   61.2770 C   0  0  0  0  0  0  0  0  0  0  0  0
  132.6120  119.7590   61.2070 C   0  0  0  0  0  0  0  0  0  0  0  0
  133.2080  120.8940   61.7680 C   0  0  0  0  0  0  0  0  0  0  0  0
  134.7280  121.0170   61.6950 C   0  0  0  0  0  0  0  0  0  0  0  0
  132.3920  121.8720   62.3820 C   0  0  0  0  0  0  0  0  0  0  0  0
  133.0030  123.0390   63.0240 C   0  0  0  0  0  0  0  0  0  0  0  0
  133.4860  123.9600   63.5300 N   0  0  0  0  0  0  0  0  0  0  0  0
  130.9930  121.6600   62.3820 C   0  0  0  0  0  0  0  0  0  0  0  0
  129.8110  122.7780   63.1070 S   0  0  0  0  0  0  0  0  0  0  0  0
  129.1390  123.8430   61.7850 C   0  0  0  0  0  0  0  0  0  0  0  0
  128.0420  123.1940   60.9280 C   0  0  0  0  0  0  0  0  0  0  0  0
  127.1840  122.4790   61.4470 O   0  0  0  0  0  0  0  0  0  0  0  0
  128.1330  123.4580   59.6070 N   0  0  0  0  0  0  0  0  0  0  0  0
  127.3040  123.0390   58.5480 C   0  0  0  0  0  0  0  0  0  0  0  0
  125.9550  123.4000   58.3720 C   0  0  0  0  0  0  0  0  0  0  0  0
  125.2480  122.9130   57.2680 C   0  0  0  0  0  0  0  0  0  0  0  0
  125.9100  122.0800   56.3650 C   0  0  0  0  0  0  0  0  0  0  0  0
  127.2100  121.7230   56.5090 N   0  0  0  0  0  0  0  0  0  0  0  0
  127.8830  122.2030   57.5870 C   0  0  0  0  0  0  0  0  0  0  0  0
  130.4280  120.5440   61.8570 N   0  0  0  0  0  0  0  0  0  0  0  0
  130.1544  117.7708   61.5197 H   0  0  0  0  0  0  0  0  0  0  0  0
  129.6752  118.7336   60.0810 H   0  0  0  0  0  0  0  0  0  0  0  0
  131.2282  117.8310   60.0810 H   0  0  0  0  0  0  0  0  0  0  0  0
  133.2274  118.9895   60.7179 H   0  0  0  0  0  0  0  0  0  0  0  0
  135.1425  121.0505   62.7134 H   0  0  0  0  0  0  0  0  0  0  0  0
  135.1408  120.1493   61.1595 H   0  0  0  0  0  0  0  0  0  0  0  0
  134.9959  121.9398   61.1595 H   0  0  0  0  0  0  0  0  0  0  0  0
  128.7182  124.7450   62.2534 H   0  0  0  0  0  0  0  0  0  0  0  0
  129.9766  124.0567   61.1047 H   0  0  0  0  0  0  0  0  0  0  0  0
  128.9160  124.0270   59.3200 H   0  0  0  0  0  0  0  0  0  0  0  0
  125.4598  124.0612   59.0984 H   0  0  0  0  0  0  0  0  0  0  0  0
  124.1922  123.1809   57.1146 H   0  0  0  0  0  0  0  0  0  0  0  0
  125.3524  121.6961   55.4980 H   0  0  0  0  0  0  0  0  0  0  0  0
  128.9386  121.9195   57.7109 H   0  0  0  0  0  0  0  0  0  0  0  0
  1  2  1  0
  2  3  2  0
  3  4  1  0
  4  5  1  0
  4  6  2  0
  6  7  1  0
  7  8  3  0
  6  9  1  0
  9 10  1  0
 10 11  1  0
 11 12  1  0
 12 13  2  0
 12 14  1  0
 14 15  1  0
 15 16  2  0
 16 17  1  0
 17 18  2  0
 18 19  1  0
 19 20  2  0
  9 21  2  0
 21  2  1  0
 20 15  1  0
  1 22  1  0
  1 23  1  0
  1 24  1  0
  3 25  1  0
  5 26  1  0
  5 27  1  0
  5 28  1  0
 11 29  1  0
 11 30  1  0
 14 31  1  0
 16 32  1  0
 17 33  1  0
 18 34  1  0
 20 35  1  0
M  END
>  <Binding energies>  (1) 
[-7.36]

>  <Ligand effiencies>  (1) 
[-0.33454545454545453]

>  <Interactions>  (1) 
["H-A:GLY:454:N:4049, H-B:ALA:541:N:9863, H-A:TYR:484:OH:4347, V-B:ALA:541:CB:9864, V-A:PRO:482:CG:4326, V-B:PRO:540:CB:9857, V-B:TYR:539:CE2:9848, V-B:PRO:540:CD:9859, V-B:PRO:540:N:9856, V-B:PRO:540:CA:9855, V-B:MET:535:CE:9807, V-B:TYR:539:CD2:9846, V-B:TYR:539:C:9839, V-B:LEU:363:CD1:8160, V-A:GLY:454:CA:4048, V-A:ILE:369:CG2:3236, V-A:LEU:475:CD1:4257, V-A:SER:385:C:3404, V-A:ILE:369:CD1:3238, V-B:TYR:539:CG:9844, H-B:TYR:539:N:9842"]

$$$$
1g_Grossjean_2025
     RDKit          3D

 39 40  0  0  0  0  0  0  0  0999 V2000
  127.9830  132.4280   59.6010 C   0  0  0  0  0  0  0  0  0  0  0  0
  129.3470  131.8760   59.2300 C   0  0  0  0  0  0  0  0  0  0  0  0
  130.3000  131.5720   60.2010 C   0  0  0  0  0  0  0  0  0  0  0  0
  131.5460  131.0810   59.7980 C   0  0  0  0  0  0  0  0  0  0  0  0
  132.5800  130.7700   60.8790 C   0  0  0  0  0  0  0  0  0  0  0  0
  131.8050  130.8960   58.4220 C   0  0  0  0  0  0  0  0  0  0  0  0
  133.1210  130.4330   57.9740 C   0  0  0  0  0  0  0  0  0  0  0  0
  134.1620  130.0680   57.6230 N   0  0  0  0  0  0  0  0  0  0  0  0
  130.7700  131.2070   57.5080 C   0  0  0  0  0  0  0  0  0  0  0  0
  130.9220  131.0260   55.7450 S   0  0  0  0  0  0  0  0  0  0  0  0
  129.3830  131.6500   55.0040 C   0  0  0  0  0  0  0  0  0  0  0  0
  128.1910  130.7440   55.3110 C   0  0  0  0  0  0  0  0  0  0  0  0
  127.1620  130.8280   54.6380 O   0  0  0  0  0  0  0  0  0  0  0  0
  128.3420  129.8870   56.3360 N   0  0  0  0  0  0  0  0  0  0  0  0
  127.3570  128.8940   56.7650 C   0  0  0  0  0  0  0  0  0  0  0  0
  126.3050  129.4300   57.7310 C   0  0  0  0  0  0  0  0  0  0  0  0
  126.5300  129.3720   59.1100 C   0  0  0  0  0  0  0  0  0  0  0  0
  125.5700  129.8620   59.9920 C   0  0  0  0  0  0  0  0  0  0  0  0
  124.3910  130.4130   59.4920 C   0  0  0  0  0  0  0  0  0  0  0  0
  124.1640  130.4780   58.1200 C   0  0  0  0  0  0  0  0  0  0  0  0
  125.1220  129.9870   57.2370 C   0  0  0  0  0  0  0  0  0  0  0  0
  129.5720  131.7050   57.9060 N   0  0  0  0  0  0  0  0  0  0  0  0
  127.8885  132.4663   60.6963 H   0  0  0  0  0  0  0  0  0  0  0  0
  127.8728  133.4415   59.1878 H   0  0  0  0  0  0  0  0  0  0  0  0
  127.1990  131.7764   59.1878 H   0  0  0  0  0  0  0  0  0  0  0  0
  130.0753  131.7161   61.2681 H   0  0  0  0  0  0  0  0  0  0  0  0
  132.1255  130.9067   61.8713 H   0  0  0  0  0  0  0  0  0  0  0  0
  132.9208  129.7296   60.7720 H   0  0  0  0  0  0  0  0  0  0  0  0
  133.4382  131.4498   60.7720 H   0  0  0  0  0  0  0  0  0  0  0  0
  129.1781  132.6541   55.4037 H   0  0  0  0  0  0  0  0  0  0  0  0
  129.5177  131.6760   53.9126 H   0  0  0  0  0  0  0  0  0  0  0  0
  129.2280  129.8710   56.8220 H   0  0  0  0  0  0  0  0  0  0  0  0
  126.8415  128.5118   55.8716 H   0  0  0  0  0  0  0  0  0  0  0  0
  127.9119  128.1129   57.3053 H   0  0  0  0  0  0  0  0  0  0  0  0
  127.4643  128.9398   59.4977 H   0  0  0  0  0  0  0  0  0  0  0  0
  125.7411  129.8145   61.0776 H   0  0  0  0  0  0  0  0  0  0  0  0
  123.6327  130.8002   60.1884 H   0  0  0  0  0  0  0  0  0  0  0  0
  123.2312  130.9157   57.7350 H   0  0  0  0  0  0  0  0  0  0  0  0
  124.9481  130.0374   56.1520 H   0  0  0  0  0  0  0  0  0  0  0  0
  1  2  1  0
  2  3  2  0
  3  4  1  0
  4  5  1  0
  4  6  2  0
  6  7  1  0
  7  8  3  0
  6  9  1  0
  9 10  1  0
 10 11  1  0
 11 12  1  0
 12 13  2  0
 12 14  1  0
 14 15  1  0
 15 16  1  0
 16 17  2  0
 17 18  1  0
 18 19  2  0
 19 20  1  0
 20 21  2  0
  9 22  2  0
 22  2  1  0
 21 16  1  0
  1 23  1  0
  1 24  1  0
  1 25  1  0
  3 26  1  0
  5 27  1  0
  5 28  1  0
  5 29  1  0
 11 30  1  0
 11 31  1  0
 14 32  1  0
 15 33  1  0
 15 34  1  0
 17 35  1  0
 18 36  1  0
 19 37  1  0
 20 38  1  0
 21 39  1  0
M  END
>  <Binding energies>  (1) 
[-6.73]

>  <Ligand effiencies>  (1) 
[-0.29260869565217396]

>  <Interactions>  (1) 
["V-A:ASP:366:CG:3212, V-A:TYR:539:CD1:4873, H-A:TYR:539:OH:4878, V-A:PRO:540:CB:4885, V-A:ILE:538:CB:4862, V-A:ILE:538:CG2:4863, V-A:LEU:363:CD1:3188, V-A:PRO:540:N:4884, V-A:TYR:539:CE1:4875, V-A:PRO:540:CA:4883, H-B:LYS:534:NZ:9795, V-B:ILE:369:CG2:8208, V-B:ASP:366:CG:8184, V-B:ASP:366:CA:8181, V-A:ILE:538:CA:4860, V-B:ASP:366:CB:8183, V-A:TYR:539:C:4867, V-A:TYR:539:CZ:4877, V-B:ASP:366:C:8179, V-B:TYR:531:CZ:9766, V-A:ASP:366:CB:3211, V-B:TYR:531:CE1:9764, H-A:TYR:531:OH:4795, V-A:PRO:540:C:4881, V-A:LEU:363:CA:3184"]

$$$$
1h_Grossjean_2025
     RDKit          3D

 51 52  0  0  0  0  0  0  0  0999 V2000
  127.2910  125.6130   61.4110 C   0  0  0  0  0  0  0  0  0  0  0  0
  126.6390  125.0340   60.2870 O   0  0  0  0  0  0  0  0  0  0  0  0
  127.3990  124.5460   59.2390 C   0  0  0  0  0  0  0  0  0  0  0  0
  128.6250  125.0990   58.8360 C   0  0  0  0  0  0  0  0  0  0  0  0
  129.3320  124.5620   57.7590 C   0  0  0  0  0  0  0  0  0  0  0  0
  130.6730  125.1590   57.3450 C   0  0  0  0  0  0  0  0  0  0  0  0
  131.8260  124.3280   57.6910 N   0  0  0  0  0  0  0  0  0  0  0  0
  132.3380  124.1840   58.9260 C   0  0  0  0  0  0  0  0  0  0  0  0
  131.8690  124.7250   59.9270 O   0  0  0  0  0  0  0  0  0  0  0  0
  133.5760  123.2950   59.0520 C   0  0  0  0  0  0  0  0  0  0  0  0
  133.6770  122.4950   60.6820 S   0  0  0  0  0  0  0  0  0  0  0  0
  132.1700  121.5730   60.9400 C   0  0  0  0  0  0  0  0  0  0  0  0
  131.0740  122.3110   61.2560 N   0  0  0  0  0  0  0  0  0  0  0  0
  129.8970  121.6760   61.4610 C   0  0  0  0  0  0  0  0  0  0  0  0
  128.7180  122.5670   61.8060 C   0  0  0  0  0  0  0  0  0  0  0  0
  129.7610  120.2930   61.3630 C   0  0  0  0  0  0  0  0  0  0  0  0
  130.8830  119.5210   61.0410 C   0  0  0  0  0  0  0  0  0  0  0  0
  130.7120  118.0070   60.9370 C   0  0  0  0  0  0  0  0  0  0  0  0
  132.1220  120.1650   60.8220 C   0  0  0  0  0  0  0  0  0  0  0  0
  133.3150  119.3820   60.4850 C   0  0  0  0  0  0  0  0  0  0  0  0
  134.2560  118.7630   60.2190 N   0  0  0  0  0  0  0  0  0  0  0  0
  128.8320  123.4380   57.0990 C   0  0  0  0  0  0  0  0  0  0  0  0
  127.6120  122.8610   57.4850 C   0  0  0  0  0  0  0  0  0  0  0  0
  127.0570  121.7500   56.8760 O   0  0  0  0  0  0  0  0  0  0  0  0
  125.8400  121.8850   56.1510 C   0  0  0  0  0  0  0  0  0  0  0  0
  126.9000  123.4310   58.5500 C   0  0  0  0  0  0  0  0  0  0  0  0
  125.7080  122.8720   58.9430 O   0  0  0  0  0  0  0  0  0  0  0  0
  124.5830  123.7210   58.7590 C   0  0  0  0  0  0  0  0  0  0  0  0
  126.8463  125.2181   62.3364 H   0  0  0  0  0  0  0  0  0  0  0  0
  128.3618  125.3627   61.3829 H   0  0  0  0  0  0  0  0  0  0  0  0
  127.1690  126.7059   61.3829 H   0  0  0  0  0  0  0  0  0  0  0  0
  129.0334  125.9662   59.3757 H   0  0  0  0  0  0  0  0  0  0  0  0
  130.6655  125.3035   56.2546 H   0  0  0  0  0  0  0  0  0  0  0  0
  130.7847  126.1041   57.8966 H   0  0  0  0  0  0  0  0  0  0  0  0
  132.2820  123.8580   56.9220 H   0  0  0  0  0  0  0  0  0  0  0  0
  133.5345  122.5163   58.2762 H   0  0  0  0  0  0  0  0  0  0  0  0
  134.4650  123.9312   58.9300 H   0  0  0  0  0  0  0  0  0  0  0  0
  128.6212  122.6401   62.8993 H   0  0  0  0  0  0  0  0  0  0  0  0
  128.8806  123.5699   61.3844 H   0  0  0  0  0  0  0  0  0  0  0  0
  127.7976  122.1368   61.3844 H   0  0  0  0  0  0  0  0  0  0  0  0
  128.7857  119.8147   61.5362 H   0  0  0  0  0  0  0  0  0  0  0  0
  130.6630  117.5733   61.9467 H   0  0  0  0  0  0  0  0  0  0  0  0
  129.7824  117.7794   60.3947 H   0  0  0  0  0  0  0  0  0  0  0  0
  131.5674  117.5778   60.3947 H   0  0  0  0  0  0  0  0  0  0  0  0
  129.4011  122.9991   56.2662 H   0  0  0  0  0  0  0  0  0  0  0  0
  125.0013  121.9780   56.8566 H   0  0  0  0  0  0  0  0  0  0  0  0
  125.8880  122.7833   55.5180 H   0  0  0  0  0  0  0  0  0  0  0  0
  125.6900  120.9980   55.5180 H   0  0  0  0  0  0  0  0  0  0  0  0
  124.1856  124.0209   59.7399 H   0  0  0  0  0  0  0  0  0  0  0  0
  124.8874  124.6165   58.1974 H   0  0  0  0  0  0  0  0  0  0  0  0
  123.8053  123.1827   58.1974 H   0  0  0  0  0  0  0  0  0  0  0  0
  1  2  1  0
  2  3  1  0
  3  4  2  0
  4  5  1  0
  5  6  1  0
  6  7  1  0
  7  8  1  0
  8  9  2  0
  8 10  1  0
 10 11  1  0
 11 12  1  0
 12 13  2  0
 13 14  1  0
 14 15  1  0
 14 16  2  0
 16 17  1  0
 17 18  1  0
 17 19  2  0
 19 20  1  0
 20 21  3  0
  5 22  2  0
 22 23  1  0
 23 24  1  0
 24 25  1  0
 23 26  2  0
 26 27  1  0
 27 28  1  0
 26  3  1  0
 19 12  1  0
  1 29  1  0
  1 30  1  0
  1 31  1  0
  4 32  1  0
  6 33  1  0
  6 34  1  0
  7 35  1  0
 10 36  1  0
 10 37  1  0
 15 38  1  0
 15 39  1  0
 15 40  1  0
 16 41  1  0
 18 42  1  0
 18 43  1  0
 18 44  1  0
 22 45  1  0
 25 46  1  0
 25 47  1  0
 25 48  1  0
 28 49  1  0
 28 50  1  0
 28 51  1  0
M  END
>  <Binding energies>  (1) 
[-6.49]

>  <Ligand effiencies>  (1) 
[-0.22379310344827588]

>  <Interactions>  (1) 
["V-A:ASP:366:CG:3212, V-B:ALA:541:CB:9864, V-A:PRO:482:CG:4326, V-B:PRO:540:CB:9857, V-B:TYR:539:CE2:9848, V-B:PRO:540:CD:9859, V-B:PRO:540:N:9856, V-B:PRO:540:CA:9855, V-B:MET:535:CE:9807, V-B:TYR:539:CD2:9846, V-A:PRO:482:CB:4325, V-B:TYR:539:C:9839, V-B:LEU:363:CD1:8160, V-A:ILE:369:CG2:3236, V-A:ASP:366:CB:3211, V-A:ILE:369:CB:3235, V-A:LEU:475:CD1:4257, V-B:ALA:541:CA:9862, V-B:PRO:540:C:9853, V-B:TYR:539:CZ:9849, H-B:TYR:539:OH:9850, V-B:LEU:363:CA:8156, V-A:ASP:366:CA:3209, V-B:LEU:363:CB:8158, V-B:TYR:539:CE1:9847, V-B:ILE:538:CG2:9835, H-B:TYR:539:N:9842, H-A:SER:385:OG:3409, H-A:HIS:383:NE2:3393"]

$$$$
1i_Grossjean_2025
     RDKit          3D

 32 33  0  0  0  0  0  0  0  0999 V2000
  132.4440  130.7610   61.3670 C   0  0  0  0  0  0  0  0  0  0  0  0
  131.7150  131.1570   60.0970 C   0  0  0  0  0  0  0  0  0  0  0  0
  132.3590  131.1750   58.8620 C   0  0  0  0  0  0  0  0  0  0  0  0
  131.6330  131.5390   57.7220 C   0  0  0  0  0  0  0  0  0  0  0  0
  132.3570  131.5350   56.3770 C   0  0  0  0  0  0  0  0  0  0  0  0
  130.2680  131.8850   57.8530 C   0  0  0  0  0  0  0  0  0  0  0  0
  129.4770  132.2200   56.6660 C   0  0  0  0  0  0  0  0  0  0  0  0
  128.8540  132.4830   55.7270 N   0  0  0  0  0  0  0  0  0  0  0  0
  129.7040  131.8620   59.1500 C   0  0  0  0  0  0  0  0  0  0  0  0
  128.0060  132.2670   59.4970 S   0  0  0  0  0  0  0  0  0  0  0  0
  127.9380  132.9590   61.1770 C   0  0  0  0  0  0  0  0  0  0  0  0
  126.8580  134.0350   61.3130 C   0  0  0  0  0  0  0  0  0  0  0  0
  126.1430  134.0480   62.3160 O   0  0  0  0  0  0  0  0  0  0  0  0
  126.7780  134.9130   60.2890 N   0  0  0  0  0  0  0  0  0  0  0  0
  125.8930  135.9730   60.1590 C   0  0  0  0  0  0  0  0  0  0  0  0
  126.2820  137.3070   60.2730 C   0  0  0  0  0  0  0  0  0  0  0  0
  125.1290  138.0330   60.0820 C   0  0  0  0  0  0  0  0  0  0  0  0
  124.0990  137.1810   59.8660 O   0  0  0  0  0  0  0  0  0  0  0  0
  124.5950  135.8780   59.9190 N   0  0  0  0  0  0  0  0  0  0  0  0
  130.4110  131.4880   60.2460 N   0  0  0  0  0  0  0  0  0  0  0  0
  131.8572  131.0797   62.2411 H   0  0  0  0  0  0  0  0  0  0  0  0
  132.5730  129.6688   61.3904 H   0  0  0  0  0  0  0  0  0  0  0  0
  133.4304  131.2473   61.3904 H   0  0  0  0  0  0  0  0  0  0  0  0
  133.4230  130.9070   58.7837 H   0  0  0  0  0  0  0  0  0  0  0  0
  133.4440  131.5290   56.5457 H   0  0  0  0  0  0  0  0  0  0  0  0
  132.0692  130.6384   55.8084 H   0  0  0  0  0  0  0  0  0  0  0  0
  132.0792  132.4347   55.8084 H   0  0  0  0  0  0  0  0  0  0  0  0
  127.7211  132.1470   61.8866 H   0  0  0  0  0  0  0  0  0  0  0  0
  128.9106  133.4263   61.3906 H   0  0  0  0  0  0  0  0  0  0  0  0
  127.4060  134.7740   59.5100 H   0  0  0  0  0  0  0  0  0  0  0  0
  127.2918  137.6949   60.4724 H   0  0  0  0  0  0  0  0  0  0  0  0
  125.0556  139.1304   60.1016 H   0  0  0  0  0  0  0  0  0  0  0  0
  1  2  1  0
  2  3  2  0
  3  4  1  0
  4  5  1  0
  4  6  2  0
  6  7  1  0
  7  8  3  0
  6  9  1  0
  9 10  1  0
 10 11  1  0
 11 12  1  0
 12 13  2  0
 12 14  1  0
 14 15  1  0
 15 16  1  0
 16 17  2  0
 17 18  1  0
 18 19  1  0
  9 20  2  0
 20  2  1  0
 19 15  2  0
  1 21  1  0
  1 22  1  0
  1 23  1  0
  3 24  1  0
  5 25  1  0
  5 26  1  0
  5 27  1  0
 11 28  1  0
 11 29  1  0
 14 30  1  0
 16 31  1  0
 17 32  1  0
M  END
>  <Binding energies>  (1) 
[-7.13]

>  <Ligand effiencies>  (1) 
[-0.3395238095238095]

>  <Interactions>  (1) 
["V-A:TYR:539:CD1:4873, V-A:PRO:540:CB:4885, V-A:LEU:363:CD1:3188, V-A:PRO:540:N:4884, V-A:TYR:539:CE1:4875, V-A:PRO:540:CA:4883, V-A:ALA:541:CB:4892, H-A:ALA:541:N:4891, V-A:TYR:539:C:4867, V-A:GLU:543:CD:4908, V-A:TYR:539:CG:4872, H-A:TYR:539:N:4870, H-A:TYR:539:O:4868, V-B:PRO:482:CB:9297, V-A:TYR:539:CB:4871, V-B:PRO:482:CG:9298, V-B:LEU:373:CD1:8251, H-B:SER:385:OG:8381, V-B:SER:385:CB:8380, V-A:TYR:539:CA:4869"]

$$$$
1j_Grossjean_2025
     RDKit          3D

 32 33  0  0  0  0  0  0  0  0999 V2000
  126.0750  119.6270   76.8480 C   0  0  0  0  0  0  0  0  0  0  0  0
  124.7920  119.5530   76.0420 C   0  0  0  0  0  0  0  0  0  0  0  0
  123.5810  119.1960   76.6310 C   0  0  0  0  0  0  0  0  0  0  0  0
  122.4270  119.1580   75.8410 C   0  0  0  0  0  0  0  0  0  0  0  0
  121.1070  118.7810   76.5130 C   0  0  0  0  0  0  0  0  0  0  0  0
  122.5190  119.4750   74.4670 C   0  0  0  0  0  0  0  0  0  0  0  0
  121.3150  119.4930   73.6330 C   0  0  0  0  0  0  0  0  0  0  0  0
  120.3610  119.5070   72.9780 N   0  0  0  0  0  0  0  0  0  0  0  0
  123.7950  119.8010   73.9490 C   0  0  0  0  0  0  0  0  0  0  0  0
  124.0950  120.2220   72.2460 S   0  0  0  0  0  0  0  0  0  0  0  0
  125.4420  119.1620   71.6440 C   0  0  0  0  0  0  0  0  0  0  0  0
  126.8060  119.8460   71.7570 C   0  0  0  0  0  0  0  0  0  0  0  0
  127.5280  119.9240   70.7630 O   0  0  0  0  0  0  0  0  0  0  0  0
  127.1150  120.3280   72.9810 N   0  0  0  0  0  0  0  0  0  0  0  0
  128.2860  120.9800   73.3420 C   0  0  0  0  0  0  0  0  0  0  0  0
  128.7230  122.1470   72.9210 N   0  0  0  0  0  0  0  0  0  0  0  0
  129.8770  122.4610   73.4760 C   0  0  0  0  0  0  0  0  0  0  0  0
  130.4000  121.5360   74.3740 C   0  0  0  0  0  0  0  0  0  0  0  0
  129.3130  120.1840   74.4910 S   0  0  0  0  0  0  0  0  0  0  0  0
  124.9040  119.8560   74.7280 N   0  0  0  0  0  0  0  0  0  0  0  0
  125.8350  119.6132   77.9214 H   0  0  0  0  0  0  0  0  0  0  0  0
  126.7119  118.7641   76.6035 H   0  0  0  0  0  0  0  0  0  0  0  0
  126.6085  120.5574   76.6035 H   0  0  0  0  0  0  0  0  0  0  0  0
  123.5329  118.9476   77.7015 H   0  0  0  0  0  0  0  0  0  0  0  0
  121.2288  118.8158   77.6057 H   0  0  0  0  0  0  0  0  0  0  0  0
  120.3245  119.4916   76.2085 H   0  0  0  0  0  0  0  0  0  0  0  0
  120.8178  117.7643   76.2085 H   0  0  0  0  0  0  0  0  0  0  0  0
  125.4585  118.2370   72.2390 H   0  0  0  0  0  0  0  0  0  0  0  0
  125.2565  118.9490   70.5809 H   0  0  0  0  0  0  0  0  0  0  0  0
  126.4490  120.1800   73.7240 H   0  0  0  0  0  0  0  0  0  0  0  0
  130.3971  123.4016   73.2421 H   0  0  0  0  0  0  0  0  0  0  0  0
  131.3481  121.6427   74.9215 H   0  0  0  0  0  0  0  0  0  0  0  0
  1  2  1  0
  2  3  2  0
  3  4  1  0
  4  5  1  0
  4  6  2  0
  6  7  1  0
  7  8  3  0
  6  9  1  0
  9 10  1  0
 10 11  1  0
 11 12  1  0
 12 13  2  0
 12 14  1  0
 14 15  1  0
 15 16  2  0
 16 17  1  0
 17 18  2  0
 18 19  1  0
  9 20  2  0
 20  2  1  0
 19 15  1  0
  1 21  1  0
  1 22  1  0
  1 23  1  0
  3 24  1  0
  5 25  1  0
  5 26  1  0
  5 27  1  0
 11 28  1  0
 11 29  1  0
 14 30  1  0
 17 31  1  0
 18 32  1  0
M  END
>  <Binding energies>  (1) 
[-6.35]

>  <Ligand effiencies>  (1) 
[-0.30238095238095236]

>  <Interactions>  (1) 
["V-B:LYS:547:CG:9920, V-B:LYS:547:CE:9922, V-A:HIS:456:CD2:4067, V-B:GLY:544:CA:9886, V-B:LYS:547:CD:9921, V-A:ASP:473:CG:4239, V-B:GLU:543:C:9874, H-B:LYS:547:NZ:9923, V-B:ILE:546:C:9906, V-B:VAL:542:CG1:9871, V-A:TYR:484:CG:4341, V-A:TYR:484:CB:4340, V-A:TYR:484:C:4336, H-B:GLY:544:N:9887, H-B:GLU:357:N:8104, V-B:PHE:548:CE2:9937, V-B:PHE:548:CD2:9935, H-A:TYR:484:N:4339, H-A:SER:483:OG:4333, H-B:GLU:543:N:9877"]

$$$$
1k_Grossjean_2025
     RDKit          3D

 50 50  0  0  0  0  0  0  0  0999 V2000
  125.2520  121.7630   55.5720 C   0  0  0  0  0  0  0  0  0  0  0  0
  126.5260  121.5730   56.1660 O   0  0  0  0  0  0  0  0  0  0  0  0
  126.6630  122.2120   57.4280 C   0  0  0  0  0  0  0  0  0  0  0  0
  125.5110  123.2060   57.6270 C   0  0  0  0  0  0  0  0  0  0  0  0
  125.9590  124.5190   57.3130 O   0  0  0  0  0  0  0  0  0  0  0  0
  126.9660  125.0040   58.1910 C   0  0  0  0  0  0  0  0  0  0  0  0
  126.4470  126.2480   58.9230 C   0  0  0  0  0  0  0  0  0  0  0  0
  126.3510  127.3320   58.0060 O   0  0  0  0  0  0  0  0  0  0  0  0
  126.4410  128.6100   58.6210 C   0  0  0  0  0  0  0  0  0  0  0  0
  126.1730  129.7070   57.5740 C   0  0  0  0  0  0  0  0  0  0  0  0
  127.3840  130.2610   56.9680 N   0  0  0  0  0  0  0  0  0  0  0  0
  128.1550  129.6320   56.0630 C   0  0  0  0  0  0  0  0  0  0  0  0
  127.9090  128.5020   55.6390 O   0  0  0  0  0  0  0  0  0  0  0  0
  129.3860  130.4170   55.5830 C   0  0  0  0  0  0  0  0  0  0  0  0
  129.6340  132.0520   56.3580 S   0  0  0  0  0  0  0  0  0  0  0  0
  129.7620  131.8480   58.1290 C   0  0  0  0  0  0  0  0  0  0  0  0
  128.6620  132.1950   58.8470 N   0  0  0  0  0  0  0  0  0  0  0  0
  128.6950  132.0740   60.1940 C   0  0  0  0  0  0  0  0  0  0  0  0
  127.4320  132.4890   60.9240 C   0  0  0  0  0  0  0  0  0  0  0  0
  129.8120  131.5990   60.8790 C   0  0  0  0  0  0  0  0  0  0  0  0
  130.9480  131.2320   60.1510 C   0  0  0  0  0  0  0  0  0  0  0  0
  132.1610  130.7150   60.9200 C   0  0  0  0  0  0  0  0  0  0  0  0
  130.9360  131.3540   58.7440 C   0  0  0  0  0  0  0  0  0  0  0  0
  132.1140  130.9800   57.9560 C   0  0  0  0  0  0  0  0  0  0  0  0
  133.0450  130.6850   57.3350 N   0  0  0  0  0  0  0  0  0  0  0  0
  124.4931  121.8762   56.3602 H   0  0  0  0  0  0  0  0  0  0  0  0
  125.2699  122.6684   54.9476 H   0  0  0  0  0  0  0  0  0  0  0  0
  125.0050  120.8918   54.9476 H   0  0  0  0  0  0  0  0  0  0  0  0
  126.6366  121.4558   58.2264 H   0  0  0  0  0  0  0  0  0  0  0  0
  127.6216  122.7504   57.4637 H   0  0  0  0  0  0  0  0  0  0  0  0
  124.6749  122.9357   56.9653 H   0  0  0  0  0  0  0  0  0  0  0  0
  125.1750  123.1735   58.6739 H   0  0  0  0  0  0  0  0  0  0  0  0
  127.2192  124.2250   58.9252 H   0  0  0  0  0  0  0  0  0  0  0  0
  127.8637  125.2660   57.6118 H   0  0  0  0  0  0  0  0  0  0  0  0
  125.4540  126.0368   59.3464 H   0  0  0  0  0  0  0  0  0  0  0  0
  127.1420  126.5134   59.7333 H   0  0  0  0  0  0  0  0  0  0  0  0
  125.6950  128.6822   59.4261 H   0  0  0  0  0  0  0  0  0  0  0  0
  127.4492  128.7435   59.0402 H   0  0  0  0  0  0  0  0  0  0  0  0
  125.5517  129.2774   56.7744 H   0  0  0  0  0  0  0  0  0  0  0  0
  125.6742  130.5340   58.1006 H   0  0  0  0  0  0  0  0  0  0  0  0
  127.6510  131.1860   57.2700 H   0  0  0  0  0  0  0  0  0  0  0  0
  130.2776  129.8066   55.7890 H   0  0  0  0  0  0  0  0  0  0  0  0
  129.2178  130.6142   54.5140 H   0  0  0  0  0  0  0  0  0  0  0  0
  127.6009  132.4335   62.0095 H   0  0  0  0  0  0  0  0  0  0  0  0
  127.1699  133.5205   60.6460 H   0  0  0  0  0  0  0  0  0  0  0  0
  126.6092  131.8140   60.6460 H   0  0  0  0  0  0  0  0  0  0  0  0
  129.8001  131.5141   61.9757 H   0  0  0  0  0  0  0  0  0  0  0  0
  131.9717  130.7957   62.0006 H   0  0  0  0  0  0  0  0  0  0  0  0
  132.3405  129.6622   60.6568 H   0  0  0  0  0  0  0  0  0  0  0  0
  133.0448  131.3146   60.6568 H   0  0  0  0  0  0  0  0  0  0  0  0
  1  2  1  0
  2  3  1  0
  3  4  1  0
  4  5  1  0
  5  6  1  0
  6  7  1  0
  7  8  1  0
  8  9  1  0
  9 10  1  0
 10 11  1  0
 11 12  1  0
 12 13  2  0
 12 14  1  0
 14 15  1  0
 15 16  1  0
 16 17  2  0
 17 18  1  0
 18 19  1  0
 18 20  2  0
 20 21  1  0
 21 22  1  0
 21 23  2  0
 23 24  1  0
 24 25  3  0
 23 16  1  0
  1 26  1  0
  1 27  1  0
  1 28  1  0
  3 29  1  0
  3 30  1  0
  4 31  1  0
  4 32  1  0
  6 33  1  0
  6 34  1  0
  7 35  1  0
  7 36  1  0
  9 37  1  0
  9 38  1  0
 10 39  1  0
 10 40  1  0
 11 41  1  0
 14 42  1  0
 14 43  1  0
 19 44  1  0
 19 45  1  0
 19 46  1  0
 20 47  1  0
 22 48  1  0
 22 49  1  0
 22 50  1  0
M  END
>  <Binding energies>  (1) 
[-5.85]

>  <Ligand effiencies>  (1) 
[-0.22499999999999998]

>  <Interactions>  (1) 
["V-A:TYR:539:CD1:4873, V-A:PRO:540:CB:4885, V-A:PRO:540:N:4884, V-A:TYR:539:CE1:4875, V-A:PRO:540:CA:4883, H-B:TYR:531:OH:9767, V-A:TYR:539:C:4867, V-A:TYR:539:CZ:4877, V-B:PRO:540:CB:9857, V-B:PRO:540:CD:9859, V-B:PRO:540:N:9856, V-B:PRO:540:CA:9855, V-B:MET:535:CE:9807, V-B:TYR:539:C:9839, V-B:LEU:363:CD1:8160, H-A:TYR:531:OH:4795, H-A:TYR:539:N:4870, V-B:ILE:538:CG2:9835, H-B:TYR:539:N:9842, V-B:ILE:538:CA:9832, V-B:ILE:538:CB:9834, V-B:ILE:538:CG1:9836"]

$$$$
1l_Grossjean_2025
     RDKit          3D

 30 30  0  0  0  0  0  0  0  0999 V2000
  132.4060  132.7340   55.7880 C   0  0  0  0  0  0  0  0  0  0  0  0
  131.0450  132.4840   55.4690 O   0  0  0  0  0  0  0  0  0  0  0  0
  130.3980  131.9100   56.5620 N   0  0  0  0  0  0  0  0  0  0  0  0
  129.0520  131.9110   56.6000 C   0  0  0  0  0  0  0  0  0  0  0  0
  128.3410  132.1820   55.6280 O   0  0  0  0  0  0  0  0  0  0  0  0
  128.4370  131.5300   57.9540 C   0  0  0  0  0  0  0  0  0  0  0  0
  129.1520  130.0440   58.7350 S   0  0  0  0  0  0  0  0  0  0  0  0
  130.8990  130.3250   58.9690 C   0  0  0  0  0  0  0  0  0  0  0  0
  131.7040  129.9130   57.9550 N   0  0  0  0  0  0  0  0  0  0  0  0
  133.0410  130.0940   58.0670 C   0  0  0  0  0  0  0  0  0  0  0  0
  133.8720  129.6090   56.8950 C   0  0  0  0  0  0  0  0  0  0  0  0
  133.6270  130.6890   59.1820 C   0  0  0  0  0  0  0  0  0  0  0  0
  132.8090  131.1180   60.2320 C   0  0  0  0  0  0  0  0  0  0  0  0
  133.4740  131.7690   61.4440 C   0  0  0  0  0  0  0  0  0  0  0  0
  131.4120  130.9380   60.1360 C   0  0  0  0  0  0  0  0  0  0  0  0
  130.5300  131.3780   61.2220 C   0  0  0  0  0  0  0  0  0  0  0  0
  129.8360  131.7260   62.0790 N   0  0  0  0  0  0  0  0  0  0  0  0
  132.5283  132.7565   56.8810 H   0  0  0  0  0  0  0  0  0  0  0  0
  133.0343  131.9362   55.3651 H   0  0  0  0  0  0  0  0  0  0  0  0
  132.7097  133.7030   55.3651 H   0  0  0  0  0  0  0  0  0  0  0  0
  130.9830  131.8940   57.3860 H   0  0  0  0  0  0  0  0  0  0  0  0
  128.5752  132.3771   58.6420 H   0  0  0  0  0  0  0  0  0  0  0  0
  127.3806  131.2954   57.7567 H   0  0  0  0  0  0  0  0  0  0  0  0
  134.7652  129.0877   57.2697 H   0  0  0  0  0  0  0  0  0  0  0  0
  133.2741  128.9180   56.2826 H   0  0  0  0  0  0  0  0  0  0  0  0
  134.1795  130.4694   56.2826 H   0  0  0  0  0  0  0  0  0  0  0  0
  134.7179  130.8196   59.2358 H   0  0  0  0  0  0  0  0  0  0  0  0
  133.0458  131.3498   62.3664 H   0  0  0  0  0  0  0  0  0  0  0  0
  134.5558  131.5711   61.4190 H   0  0  0  0  0  0  0  0  0  0  0  0
  133.2992  132.8547   61.4190 H   0  0  0  0  0  0  0  0  0  0  0  0
  1  2  1  0
  2  3  1  0
  3  4  1  0
  4  5  2  0
  4  6  1  0
  6  7  1  0
  7  8  1  0
  8  9  2  0
  9 10  1  0
 10 11  1  0
 10 12  2  0
 12 13  1  0
 13 14  1  0
 13 15  2  0
 15 16  1  0
 16 17  3  0
 15  8  1  0
  1 18  1  0
  1 19  1  0
  1 20  1  0
  3 21  1  0
  6 22  1  0
  6 23  1  0
 11 24  1  0
 11 25  1  0
 11 26  1  0
 12 27  1  0
 14 28  1  0
 14 29  1  0
 14 30  1  0
M  END
>  <Binding energies>  (1) 
[-5.54]

>  <Ligand effiencies>  (1) 
[-0.30777777777777776]

>  <Interactions>  (1) 
["V-A:ASP:366:CG:3212, V-A:TYR:539:CD1:4873, H-A:TYR:539:OH:4878, V-A:PRO:540:CB:4885, V-A:ILE:538:CB:4862, V-A:ILE:538:CG2:4863, V-A:LEU:363:CD1:3188, V-A:PRO:540:N:4884, V-A:TYR:531:CE2:4793, V-A:TYR:539:CE1:4875, V-A:PRO:540:CA:4883, V-A:TYR:531:CZ:4794, H-A:ALA:541:N:4891, V-A:TYR:539:C:4867, V-A:PRO:540:CD:4887, V-A:TYR:539:CZ:4877, V-A:TYR:539:CG:4872, V-A:ASP:366:CB:3211, V-A:PRO:540:C:4881, V-A:LEU:363:CA:3184, V-A:ASN:362:CB:3175, V-A:ASN:362:C:3171, V-A:LEU:363:CB:3186, H-A:TYR:539:N:4870, V-A:PRO:540:CG:4886, V-A:ILE:538:CD1:4865"]

$$$$
1m_Grossjean_2025
     RDKit          3D

 35 35  0  0  0  0  0  0  0  0999 V2000
  129.0260  122.2110   59.8430 C   0  0  0  0  0  0  0  0  0  0  0  0
  128.6860  123.4130   60.5190 O   0  0  0  0  0  0  0  0  0  0  0  0
  128.0630  123.3740   61.7150 C   0  0  0  0  0  0  0  0  0  0  0  0
  128.1960  122.4890   62.5650 O   0  0  0  0  0  0  0  0  0  0  0  0
  127.1460  124.5990   61.9150 C   0  0  0  0  0  0  0  0  0  0  0  0
  125.8900  124.5010   61.1560 N   0  0  0  0  0  0  0  0  0  0  0  0
  125.0650  123.4360   61.1380 C   0  0  0  0  0  0  0  0  0  0  0  0
  125.2940  122.3980   61.7610 O   0  0  0  0  0  0  0  0  0  0  0  0
  123.8060  123.5910   60.2740 C   0  0  0  0  0  0  0  0  0  0  0  0
  124.1240  123.7260   58.4810 S   0  0  0  0  0  0  0  0  0  0  0  0
  125.7050  124.5130   58.2600 C   0  0  0  0  0  0  0  0  0  0  0  0
  125.7460  125.7890   58.7230 N   0  0  0  0  0  0  0  0  0  0  0  0
  126.9020  126.4840   58.6140 C   0  0  0  0  0  0  0  0  0  0  0  0
  126.8770  127.8950   59.1700 C   0  0  0  0  0  0  0  0  0  0  0  0
  128.0500  125.9490   58.0340 C   0  0  0  0  0  0  0  0  0  0  0  0
  128.0120  124.6440   57.5300 C   0  0  0  0  0  0  0  0  0  0  0  0
  129.2780  124.0840   56.8850 C   0  0  0  0  0  0  0  0  0  0  0  0
  126.8150  123.8980   57.6320 C   0  0  0  0  0  0  0  0  0  0  0  0
  126.7390  122.5490   57.0670 C   0  0  0  0  0  0  0  0  0  0  0  0
  126.6790  121.4830   56.6210 N   0  0  0  0  0  0  0  0  0  0  0  0
  129.2481  121.4257   60.5806 H   0  0  0  0  0  0  0  0  0  0  0  0
  128.1824  121.8937   59.2124 H   0  0  0  0  0  0  0  0  0  0  0  0
  129.9108  122.3826   59.2124 H   0  0  0  0  0  0  0  0  0  0  0  0
  126.9044  124.6862   62.9846 H   0  0  0  0  0  0  0  0  0  0  0  0
  127.6880  125.4821   61.5457 H   0  0  0  0  0  0  0  0  0  0  0  0
  125.6460  125.3050   60.5970 H   0  0  0  0  0  0  0  0  0  0  0  0
  123.1640  122.7139   60.4432 H   0  0  0  0  0  0  0  0  0  0  0  0
  123.3345  124.5371   60.5783 H   0  0  0  0  0  0  0  0  0  0  0  0
  126.8777  127.8560   60.2693 H   0  0  0  0  0  0  0  0  0  0  0  0
  127.7656  128.4421   58.8220 H   0  0  0  0  0  0  0  0  0  0  0  0
  125.9696  128.4102   58.8220 H   0  0  0  0  0  0  0  0  0  0  0  0
  128.9733  126.5438   57.9730 H   0  0  0  0  0  0  0  0  0  0  0  0
  129.9825  123.7724   57.6702 H   0  0  0  0  0  0  0  0  0  0  0  0
  129.0183  123.2168   56.2601 H   0  0  0  0  0  0  0  0  0  0  0  0
  129.7450  124.8595   56.2601 H   0  0  0  0  0  0  0  0  0  0  0  0
  1  2  1  0
  2  3  1  0
  3  4  2  0
  3  5  1  0
  5  6  1  0
  6  7  1  0
  7  8  2  0
  7  9  1  0
  9 10  1  0
 10 11  1  0
 11 12  2  0
 12 13  1  0
 13 14  1  0
 13 15  2  0
 15 16  1  0
 16 17  1  0
 16 18  2  0
 18 19  1  0
 19 20  3  0
 18 11  1  0
  1 21  1  0
  1 22  1  0
  1 23  1  0
  5 24  1  0
  5 25  1  0
  6 26  1  0
  9 27  1  0
  9 28  1  0
 14 29  1  0
 14 30  1  0
 14 31  1  0
 15 32  1  0
 17 33  1  0
 17 34  1  0
 17 35  1  0
M  END
>  <Binding energies>  (1) 
[-5.44]

>  <Ligand effiencies>  (1) 
[-0.2590476190476191]

>  <Interactions>  (1) 
["H-B:ALA:541:N:9863, V-B:GLU:543:CD:9880, V-B:ASP:366:CG:8184, H-B:TYR:531:OH:9767, V-B:PRO:540:CB:9857, V-B:TYR:539:CE2:9848, V-B:PRO:540:N:9856, V-B:PRO:540:CA:9855, V-B:MET:535:CE:9807, H-B:ASP:366:OD1:8185, V-B:TYR:539:C:9839, V-B:TYR:539:CZ:9849, V-B:LEU:363:CA:8156, V-B:LEU:363:CB:8158, H-B:TYR:539:N:9842, V-B:ASN:362:C:8143, V-B:ASN:362:CB:8147"]

$$$$
1n_Grossjean_2025
     RDKit          3D

 48 49  0  0  0  0  0  0  0  0999 V2000
  124.4890  123.7600   58.8450 C   0  0  0  0  0  0  0  0  0  0  0  0
  125.5700  124.6100   58.1710 C   0  0  0  0  0  0  0  0  0  0  0  0
  125.9950  123.9710   56.9730 O   0  0  0  0  0  0  0  0  0  0  0  0
  126.8370  122.9060   57.0070 C   0  0  0  0  0  0  0  0  0  0  0  0
  126.5440  121.7930   56.5610 O   0  0  0  0  0  0  0  0  0  0  0  0
  128.1670  123.2220   57.6290 C   0  0  0  0  0  0  0  0  0  0  0  0
  128.6750  122.4850   58.7100 C   0  0  0  0  0  0  0  0  0  0  0  0
  129.9100  122.8050   59.2660 C   0  0  0  0  0  0  0  0  0  0  0  0
  130.6580  123.8700   58.7620 C   0  0  0  0  0  0  0  0  0  0  0  0
  131.8890  124.1100   59.4020 N   0  0  0  0  0  0  0  0  0  0  0  0
  133.1260  123.6680   59.0880 C   0  0  0  0  0  0  0  0  0  0  0  0
  133.4040  122.9460   58.1310 O   0  0  0  0  0  0  0  0  0  0  0  0
  134.2520  124.1290   60.0230 C   0  0  0  0  0  0  0  0  0  0  0  0
  134.0470  123.6790   61.4860 C   0  0  0  0  0  0  0  0  0  0  0  0
  134.2060  121.8880   61.7530 S   0  0  0  0  0  0  0  0  0  0  0  0
  132.5710  121.1860   61.6930 C   0  0  0  0  0  0  0  0  0  0  0  0
  131.6200  121.9780   62.2500 N   0  0  0  0  0  0  0  0  0  0  0  0
  130.3350  121.5520   62.2460 C   0  0  0  0  0  0  0  0  0  0  0  0
  129.3260  122.4930   62.8750 C   0  0  0  0  0  0  0  0  0  0  0  0
  129.9490  120.3300   61.6990 C   0  0  0  0  0  0  0  0  0  0  0  0
  130.9250  119.4970   61.1400 C   0  0  0  0  0  0  0  0  0  0  0  0
  130.4810  118.1570   60.5590 C   0  0  0  0  0  0  0  0  0  0  0  0
  132.2750  119.9190   61.1380 C   0  0  0  0  0  0  0  0  0  0  0  0
  133.3190  119.0420   60.6060 C   0  0  0  0  0  0  0  0  0  0  0  0
  134.1430  118.3460   60.1860 N   0  0  0  0  0  0  0  0  0  0  0  0
  130.1620  124.6050   57.6750 C   0  0  0  0  0  0  0  0  0  0  0  0
  128.9280  124.2810   57.1180 C   0  0  0  0  0  0  0  0  0  0  0  0
  124.5890  123.8386   59.9376 H   0  0  0  0  0  0  0  0  0  0  0  0
  123.4956  124.1214   58.5407 H   0  0  0  0  0  0  0  0  0  0  0  0
  124.6059  122.7094   58.5407 H   0  0  0  0  0  0  0  0  0  0  0  0
  125.1605  125.6026   57.9321 H   0  0  0  0  0  0  0  0  0  0  0  0
  126.4269  124.7219   58.8516 H   0  0  0  0  0  0  0  0  0  0  0  0
  128.0922  121.6476   59.1211 H   0  0  0  0  0  0  0  0  0  0  0  0
  130.2993  122.2145   60.1085 H   0  0  0  0  0  0  0  0  0  0  0  0
  131.8290  124.7380   60.1900 H   0  0  0  0  0  0  0  0  0  0  0  0
  135.2025  123.7122   59.6584 H   0  0  0  0  0  0  0  0  0  0  0  0
  134.2548  125.2290   60.0155 H   0  0  0  0  0  0  0  0  0  0  0  0
  134.7968  124.1873   62.1101 H   0  0  0  0  0  0  0  0  0  0  0  0
  133.0135  123.9446   61.7531 H   0  0  0  0  0  0  0  0  0  0  0  0
  129.3966  122.4271   63.9708 H   0  0  0  0  0  0  0  0  0  0  0  0
  129.5373  123.5241   62.5553 H   0  0  0  0  0  0  0  0  0  0  0  0
  128.3121  122.2104   62.5553 H   0  0  0  0  0  0  0  0  0  0  0  0
  128.8923  120.0243   61.7064 H   0  0  0  0  0  0  0  0  0  0  0  0
  130.2502  117.4605   61.3785 H   0  0  0  0  0  0  0  0  0  0  0  0
  129.5839  118.3050   59.9399 H   0  0  0  0  0  0  0  0  0  0  0  0
  131.2890  117.7400   59.9399 H   0  0  0  0  0  0  0  0  0  0  0  0
  130.7490  125.4386   57.2621 H   0  0  0  0  0  0  0  0  0  0  0  0
  128.5461  124.8635   56.2666 H   0  0  0  0  0  0  0  0  0  0  0  0
  1  2  1  0
  2  3  1  0
  3  4  1  0
  4  5  2  0
  4  6  1  0
  6  7  2  0
  7  8  1  0
  8  9  2  0
  9 10  1  0
 10 11  1  0
 11 12  2  0
 11 13  1  0
 13 14  1  0
 14 15  1  0
 15 16  1  0
 16 17  2  0
 17 18  1  0
 18 19  1  0
 18 20  2  0
 20 21  1  0
 21 22  1  0
 21 23  2  0
 23 24  1  0
 24 25  3  0
  9 26  1  0
 26 27  2  0
 27  6  1  0
 23 16  1  0
  1 28  1  0
  1 29  1  0
  1 30  1  0
  2 31  1  0
  2 32  1  0
  7 33  1  0
  8 34  1  0
 10 35  1  0
 13 36  1  0
 13 37  1  0
 14 38  1  0
 14 39  1  0
 19 40  1  0
 19 41  1  0
 19 42  1  0
 20 43  1  0
 22 44  1  0
 22 45  1  0
 22 46  1  0
 26 47  1  0
 27 48  1  0
M  END
>  <Binding energies>  (1) 
[-8.33]

>  <Ligand effiencies>  (1) 
[-0.2975]

>  <Interactions>  (1) 
["V-A:ASP:366:CG:3212, V-B:ALA:541:CB:9864, H-A:ASP:366:OD2:3214, H-B:TYR:531:OH:9767, V-A:PRO:482:CG:4326, V-B:PRO:540:CB:9857, V-B:TYR:539:CE2:9848, V-B:PRO:540:CA:9855, V-B:MET:535:CE:9807, V-B:TYR:539:CD2:9846, V-B:TYR:531:CE2:9765, V-B:TYR:539:C:9839, V-B:LEU:363:CD1:8160, V-A:ILE:369:CG2:3236, V-A:ASP:366:CB:3211, V-A:ILE:369:CB:3235, V-A:LEU:475:CD1:4257, V-B:ALA:541:CA:9862, V-B:PRO:540:C:9853, V-A:ILE:369:CD1:3238, V-A:SER:385:CA:3406, V-B:TYR:539:CZ:9849, H-B:TYR:539:OH:9850, V-B:LEU:363:CA:8156, V-A:ASP:366:CA:3209, V-B:LEU:363:CB:8158, H-B:TYR:539:N:9842, H-A:SER:385:OG:3409, H-A:HIS:383:NE2:3393"]

$$$$
1o_Grossjean_2025
     RDKit          3D

 45 46  0  0  0  0  0  0  0  0999 V2000
  125.0960  124.2720   58.0610 C   0  0  0  0  0  0  0  0  0  0  0  0
  125.9710  123.9680   56.9830 O   0  0  0  0  0  0  0  0  0  0  0  0
  126.7170  122.8340   56.9850 C   0  0  0  0  0  0  0  0  0  0  0  0
  126.3210  121.7590   56.5230 O   0  0  0  0  0  0  0  0  0  0  0  0
  128.0730  123.0160   57.6040 C   0  0  0  0  0  0  0  0  0  0  0  0
  128.5650  122.1410   58.5830 C   0  0  0  0  0  0  0  0  0  0  0  0
  129.8290  122.3370   59.1350 C   0  0  0  0  0  0  0  0  0  0  0  0
  130.6220  123.4090   58.7260 C   0  0  0  0  0  0  0  0  0  0  0  0
  131.8850  123.5080   59.3420 N   0  0  0  0  0  0  0  0  0  0  0  0
  133.0170  124.1010   58.9050 C   0  0  0  0  0  0  0  0  0  0  0  0
  133.1290  124.7290   57.8520 O   0  0  0  0  0  0  0  0  0  0  0  0
  134.2290  123.9830   59.8410 C   0  0  0  0  0  0  0  0  0  0  0  0
  133.8440  123.6830   61.3030 C   0  0  0  0  0  0  0  0  0  0  0  0
  134.0140  121.9330   61.7660 S   0  0  0  0  0  0  0  0  0  0  0  0
  132.4260  121.1460   61.5900 C   0  0  0  0  0  0  0  0  0  0  0  0
  131.3980  121.8900   62.0710 N   0  0  0  0  0  0  0  0  0  0  0  0
  130.1400  121.3970   61.9830 C   0  0  0  0  0  0  0  0  0  0  0  0
  129.0420  122.2910   62.5290 C   0  0  0  0  0  0  0  0  0  0  0  0
  129.8590  120.1500   61.4300 C   0  0  0  0  0  0  0  0  0  0  0  0
  130.9130  119.3640   60.9540 C   0  0  0  0  0  0  0  0  0  0  0  0
  130.5800  117.9940   60.3650 C   0  0  0  0  0  0  0  0  0  0  0  0
  132.2360  119.8560   61.0380 C   0  0  0  0  0  0  0  0  0  0  0  0
  133.3580  119.0220   60.6000 C   0  0  0  0  0  0  0  0  0  0  0  0
  134.2430  118.3630   60.2520 N   0  0  0  0  0  0  0  0  0  0  0  0
  130.1380  124.2850   57.7420 C   0  0  0  0  0  0  0  0  0  0  0  0
  128.8750  124.0880   57.1910 C   0  0  0  0  0  0  0  0  0  0  0  0
  125.6133  124.0923   59.0150 H   0  0  0  0  0  0  0  0  0  0  0  0
  124.7935  125.3279   58.0012 H   0  0  0  0  0  0  0  0  0  0  0  0
  124.2040  123.6311   58.0012 H   0  0  0  0  0  0  0  0  0  0  0  0
  127.9485  121.2937   58.9176 H   0  0  0  0  0  0  0  0  0  0  0  0
  130.2046  121.6408   59.8994 H   0  0  0  0  0  0  0  0  0  0  0  0
  131.9300  123.0870   60.2580 H   0  0  0  0  0  0  0  0  0  0  0  0
  134.8740  123.1701   59.4761 H   0  0  0  0  0  0  0  0  0  0  0  0
  134.7427  124.9556   59.8326 H   0  0  0  0  0  0  0  0  0  0  0  0
  134.4924  124.2799   61.9613 H   0  0  0  0  0  0  0  0  0  0  0  0
  132.7800  123.9399   61.4119 H   0  0  0  0  0  0  0  0  0  0  0  0
  129.0661  122.2714   63.6286 H   0  0  0  0  0  0  0  0  0  0  0  0
  129.1991  123.3213   62.1771 H   0  0  0  0  0  0  0  0  0  0  0  0
  128.0649  121.9283   62.1771 H   0  0  0  0  0  0  0  0  0  0  0  0
  128.8220  119.7883   61.3685 H   0  0  0  0  0  0  0  0  0  0  0  0
  130.4057  117.2768   61.1806 H   0  0  0  0  0  0  0  0  0  0  0  0
  129.6746  118.0716   59.7452 H   0  0  0  0  0  0  0  0  0  0  0  0
  131.4200  117.6473   59.7452 H   0  0  0  0  0  0  0  0  0  0  0  0
  130.7580  125.1290   57.4055 H   0  0  0  0  0  0  0  0  0  0  0  0
  128.5025  124.7816   56.4228 H   0  0  0  0  0  0  0  0  0  0  0  0
  1  2  1  0
  2  3  1  0
  3  4  2  0
  3  5  1  0
  5  6  2  0
  6  7  1  0
  7  8  2  0
  8  9  1  0
  9 10  1  0
 10 11  2  0
 10 12  1  0
 12 13  1  0
 13 14  1  0
 14 15  1  0
 15 16  2  0
 16 17  1  0
 17 18  1  0
 17 19  2  0
 19 20  1  0
 20 21  1  0
 20 22  2  0
 22 23  1  0
 23 24  3  0
  8 25  1  0
 25 26  2  0
 26  5  1  0
 22 15  1  0
  1 27  1  0
  1 28  1  0
  1 29  1  0
  6 30  1  0
  7 31  1  0
  9 32  1  0
 12 33  1  0
 12 34  1  0
 13 35  1  0
 13 36  1  0
 18 37  1  0
 18 38  1  0
 18 39  1  0
 19 40  1  0
 21 41  1  0
 21 42  1  0
 21 43  1  0
 25 44  1  0
 26 45  1  0
M  END
>  <Binding energies>  (1) 
[-8.05]

>  <Ligand effiencies>  (1) 
[-0.29814814814814816]

>  <Interactions>  (1) 
["V-A:ASP:366:CG:3212, V-B:ALA:541:CB:9864, H-B:TYR:531:OH:9767, V-A:PRO:482:CG:4326, V-B:TYR:539:CE2:9848, V-B:PRO:540:N:9856, V-B:PRO:540:CA:9855, V-B:MET:535:CE:9807, V-B:TYR:539:CD2:9846, V-B:TYR:531:CE2:9765, V-B:TYR:539:C:9839, V-B:LEU:363:CD1:8160, V-A:ILE:369:CG2:3236, V-A:ASP:366:CB:3211, V-A:ILE:369:CB:3235, V-A:LEU:475:CD1:4257, V-B:ALA:541:CA:9862, V-B:PRO:540:C:9853, V-A:ILE:369:CD1:3238, V-A:SER:385:CA:3406, V-B:TYR:539:CZ:9849, H-B:TYR:539:OH:9850, V-A:ASP:366:CA:3209, V-B:TYR:539:CB:9843, H-B:TYR:539:N:9842, H-A:SER:385:OG:3409, H-A:HIS:383:NE2:3393"]

$$$$
1p_Grossjean_2025
     RDKit          3D

 35 36  0  0  0  0  0  0  0  0999 V2000
  134.3010  123.2000   62.1700 C   0  0  0  0  0  0  0  0  0  0  0  0
  133.5630  121.9440   61.7480 C   0  0  0  0  0  0  0  0  0  0  0  0
  134.2340  120.8580   61.1880 C   0  0  0  0  0  0  0  0  0  0  0  0
  133.5010  119.7300   60.8050 C   0  0  0  0  0  0  0  0  0  0  0  0
  134.2550  118.5580   60.1800 C   0  0  0  0  0  0  0  0  0  0  0  0
  132.1010  119.7160   61.0020 C   0  0  0  0  0  0  0  0  0  0  0  0
  131.3060  118.5670   60.5660 C   0  0  0  0  0  0  0  0  0  0  0  0
  130.6770  117.6580   60.2200 N   0  0  0  0  0  0  0  0  0  0  0  0
  131.5070  120.8530   61.5990 C   0  0  0  0  0  0  0  0  0  0  0  0
  129.7650  120.9960   61.9270 S   0  0  0  0  0  0  0  0  0  0  0  0
  129.1590  122.4040   60.9520 C   0  0  0  0  0  0  0  0  0  0  0  0
  129.9920  122.6880   59.6880 C   0  0  0  0  0  0  0  0  0  0  0  0
  129.1420  122.8660   58.4200 C   0  0  0  0  0  0  0  0  0  0  0  0
  129.5210  123.6390   57.5380 O   0  0  0  0  0  0  0  0  0  0  0  0
  128.0130  122.1240   58.3650 N   0  0  0  0  0  0  0  0  0  0  0  0
  127.0760  122.0950   57.3400 C   0  0  0  0  0  0  0  0  0  0  0  0
  125.8990  122.8430   57.3630 C   0  0  0  0  0  0  0  0  0  0  0  0
  125.2580  122.5380   56.1840 C   0  0  0  0  0  0  0  0  0  0  0  0
  126.0080  121.6510   55.4890 O   0  0  0  0  0  0  0  0  0  0  0  0
  127.1580  121.3770   56.2320 N   0  0  0  0  0  0  0  0  0  0  0  0
  132.2240  121.9510   61.9480 N   0  0  0  0  0  0  0  0  0  0  0  0
  134.3332  123.2549   63.2682 H   0  0  0  0  0  0  0  0  0  0  0  0
  135.3269  123.1730   61.7740 H   0  0  0  0  0  0  0  0  0  0  0  0
  133.7781  124.0830   61.7740 H   0  0  0  0  0  0  0  0  0  0  0  0
  135.3248  120.8877   61.0492 H   0  0  0  0  0  0  0  0  0  0  0  0
  134.6656  117.9197   60.9762 H   0  0  0  0  0  0  0  0  0  0  0  0
  133.5659  117.9692   59.5568 H   0  0  0  0  0  0  0  0  0  0  0  0
  135.0765  118.9410   59.5568 H   0  0  0  0  0  0  0  0  0  0  0  0
  128.1237  122.1938   60.6453 H   0  0  0  0  0  0  0  0  0  0  0  0
  129.2350  123.2946   61.5931 H   0  0  0  0  0  0  0  0  0  0  0  0
  130.5699  123.6095   59.8518 H   0  0  0  0  0  0  0  0  0  0  0  0
  130.6385  121.8133   59.5236 H   0  0  0  0  0  0  0  0  0  0  0  0
  127.8130  121.5270   59.1540 H   0  0  0  0  0  0  0  0  0  0  0  0
  125.5571  123.5283   58.1526 H   0  0  0  0  0  0  0  0  0  0  0  0
  124.2910  122.9492   55.8585 H   0  0  0  0  0  0  0  0  0  0  0  0
  1  2  1  0
  2  3  2  0
  3  4  1  0
  4  5  1  0
  4  6  2  0
  6  7  1  0
  7  8  3  0
  6  9  1  0
  9 10  1  0
 10 11  1  0
 11 12  1  0
 12 13  1  0
 13 14  2  0
 13 15  1  0
 15 16  1  0
 16 17  1  0
 17 18  2  0
 18 19  1  0
 19 20  1  0
  9 21  2  0
 21  2  1  0
 20 16  2  0
  1 22  1  0
  1 23  1  0
  1 24  1  0
  3 25  1  0
  5 26  1  0
  5 27  1  0
  5 28  1  0
 11 29  1  0
 11 30  1  0
 12 31  1  0
 12 32  1  0
 15 33  1  0
 17 34  1  0
 18 35  1  0
M  END
>  <Binding energies>  (1) 
[-7.47]

>  <Ligand effiencies>  (1) 
[-0.33954545454545454]

>  <Interactions>  (1) 
["H-B:ALA:541:N:9863, V-A:GLY:453:C:4041, V-B:PRO:540:CB:9857, V-B:TYR:539:CE2:9848, V-B:PRO:540:CD:9859, V-B:PRO:540:N:9856, V-B:PRO:540:CA:9855, V-B:MET:535:CE:9807, V-B:TYR:539:CA:9841, V-B:TYR:539:CD2:9846, V-B:TYR:531:CE2:9765, V-B:TYR:539:C:9839, V-B:LEU:363:CD1:8160, V-A:GLY:454:CA:4048, V-A:ILE:369:CG2:3236, V-A:LEU:475:CD1:4257, V-A:SER:385:C:3404, V-A:ILE:369:CD1:3238, V-A:SER:385:CA:3406, V-A:SER:385:CB:3408, V-B:TYR:539:CZ:9849, H-B:TYR:539:OH:9850, H-B:TYR:539:O:9840, H-B:TYR:539:N:9842, V-A:HIS:383:CD2:3391, H-A:HIS:383:NE2:3393"]

$$$$
1q_Grossjean_2025
     RDKit          3D

 38 38  0  0  0  0  0  0  0  0999 V2000
  125.1790  124.2900   57.9920 C   0  0  0  0  0  0  0  0  0  0  0  0
  126.3310  123.9390   57.2380 O   0  0  0  0  0  0  0  0  0  0  0  0
  126.8030  122.6680   57.2540 C   0  0  0  0  0  0  0  0  0  0  0  0
  126.4170  121.7510   56.5270 O   0  0  0  0  0  0  0  0  0  0  0  0
  127.8920  122.4160   58.3180 C   0  0  0  0  0  0  0  0  0  0  0  0
  127.9230  123.4490   59.3640 N   0  0  0  0  0  0  0  0  0  0  0  0
  127.7620  123.2400   60.6850 C   0  0  0  0  0  0  0  0  0  0  0  0
  127.5670  122.1250   61.1720 O   0  0  0  0  0  0  0  0  0  0  0  0
  127.8510  124.4860   61.5780 C   0  0  0  0  0  0  0  0  0  0  0  0
  128.6800  124.2860   62.8630 C   0  0  0  0  0  0  0  0  0  0  0  0
  130.1520  125.3480   62.9500 S   0  0  0  0  0  0  0  0  0  0  0  0
  130.5070  125.6870   64.6630 C   0  0  0  0  0  0  0  0  0  0  0  0
  129.4040  126.0030   65.3890 N   0  0  0  0  0  0  0  0  0  0  0  0
  129.5480  126.2830   66.7050 C   0  0  0  0  0  0  0  0  0  0  0  0
  128.2740  126.6440   67.4460 C   0  0  0  0  0  0  0  0  0  0  0  0
  130.7820  126.2500   67.3500 C   0  0  0  0  0  0  0  0  0  0  0  0
  131.9210  125.9000   66.6190 C   0  0  0  0  0  0  0  0  0  0  0  0
  133.2610  125.8530   67.3530 C   0  0  0  0  0  0  0  0  0  0  0  0
  131.7960  125.6010   65.2430 C   0  0  0  0  0  0  0  0  0  0  0  0
  132.9690  125.1780   64.4750 C   0  0  0  0  0  0  0  0  0  0  0  0
  133.8980  124.8440   63.8710 N   0  0  0  0  0  0  0  0  0  0  0  0
  125.4082  124.2202   59.0656 H   0  0  0  0  0  0  0  0  0  0  0  0
  124.8803  125.3199   57.7471 H   0  0  0  0  0  0  0  0  0  0  0  0
  124.3567  123.6016   57.7471 H   0  0  0  0  0  0  0  0  0  0  0  0
  127.6999  121.4423   58.7924 H   0  0  0  0  0  0  0  0  0  0  0  0
  128.8648  122.4379   57.8049 H   0  0  0  0  0  0  0  0  0  0  0  0
  128.0540  124.3980   59.0440 H   0  0  0  0  0  0  0  0  0  0  0  0
  128.3107  125.2968   60.9938 H   0  0  0  0  0  0  0  0  0  0  0  0
  126.8246  124.7193   61.8976 H   0  0  0  0  0  0  0  0  0  0  0  0
  128.0389  124.5082   63.7288 H   0  0  0  0  0  0  0  0  0  0  0  0
  129.0329  123.2441   62.8610 H   0  0  0  0  0  0  0  0  0  0  0  0
  128.4534  126.5932   68.5301 H   0  0  0  0  0  0  0  0  0  0  0  0
  127.9674  127.6644   67.1725 H   0  0  0  0  0  0  0  0  0  0  0  0
  127.4777  125.9361   67.1725 H   0  0  0  0  0  0  0  0  0  0  0  0
  130.8592  126.4958   68.4194 H   0  0  0  0  0  0  0  0  0  0  0  0
  133.0847  125.8592   68.4388 H   0  0  0  0  0  0  0  0  0  0  0  0
  133.7998  124.9354   67.0742 H   0  0  0  0  0  0  0  0  0  0  0  0
  133.8628  126.7306   67.0742 H   0  0  0  0  0  0  0  0  0  0  0  0
  1  2  1  0
  2  3  1  0
  3  4  2  0
  3  5  1  0
  5  6  1  0
  6  7  1  0
  7  8  2  0
  7  9  1  0
  9 10  1  0
 10 11  1  0
 11 12  1  0
 12 13  2  0
 13 14  1  0
 14 15  1  0
 14 16  2  0
 16 17  1  0
 17 18  1  0
 17 19  2  0
 19 20  1  0
 20 21  3  0
 19 12  1  0
  1 22  1  0
  1 23  1  0
  1 24  1  0
  5 25  1  0
  5 26  1  0
  6 27  1  0
  9 28  1  0
  9 29  1  0
 10 30  1  0
 10 31  1  0
 15 32  1  0
 15 33  1  0
 15 34  1  0
 16 35  1  0
 18 36  1  0
 18 37  1  0
 18 38  1  0
M  END
>  <Binding energies>  (1) 
[-6.62]

>  <Ligand effiencies>  (1) 
[-0.3009090909090909]

>  <Interactions>  (1) 
["V-A:HIS:456:CE1:4069, H-A:GLY:454:N:4049, H-A:ARG:545:NH2:4928, V-A:TYR:484:CZ:4346, V-B:GLU:543:CG:9879, H-B:ALA:541:N:9863, V-A:ARG:545:CZ:4926, V-B:GLU:543:CD:9880, V-A:ARG:545:CD:4923, V-A:ARG:545:CG:4922, H-B:TYR:531:OH:9767, V-B:PRO:540:N:9856, V-B:PRO:540:CA:9855, V-B:MET:535:CE:9807, V-B:TYR:531:CE2:9765, V-B:TYR:539:C:9839, V-B:LEU:363:CD1:8160, V-B:GLU:543:CB:9878, H-A:ARG:545:NH1:4927, H-B:TYR:539:N:9842"]

$$$$
2a_Ghoteimi_2023
     RDKit          3D

 85 90  0  0  0  0  0  0  0  0999 V2000
  125.2760  139.0480   59.0750 C   0  0  0  0  0  0  0  0  0  0  0  0
  125.8400  138.2220   60.2350 C   0  0  0  0  0  0  0  0  0  0  0  0
  125.8000  136.8420   59.8950 O   0  0  0  0  0  0  0  0  0  0  0  0
  124.7020  136.0870   60.1570 C   0  0  0  0  0  0  0  0  0  0  0  0
  123.5520  136.4390   59.8780 O   0  0  0  0  0  0  0  0  0  0  0  0
  125.0280  134.7750   60.8120 C   0  0  0  0  0  0  0  0  0  0  0  0
  126.2820  134.1630   60.6670 C   0  0  0  0  0  0  0  0  0  0  0  0
  126.5510  132.9480   61.2890 C   0  0  0  0  0  0  0  0  0  0  0  0
  125.5790  132.3210   62.0700 C   0  0  0  0  0  0  0  0  0  0  0  0
  125.9580  131.0940   62.6490 N   0  0  0  0  0  0  0  0  0  0  0  0
  125.2570  130.2620   63.4500 C   0  0  0  0  0  0  0  0  0  0  0  0
  124.1190  130.4750   63.8710 O   0  0  0  0  0  0  0  0  0  0  0  0
  125.9980  128.9870   63.8730 C   0  0  0  0  0  0  0  0  0  0  0  0
  127.6620  128.8090   63.1540 S   0  0  0  0  0  0  0  0  0  0  0  0
  128.4030  127.4280   63.9950 C   0  0  0  0  0  0  0  0  0  0  0  0
  128.4830  127.5840   65.3370 N   0  0  0  0  0  0  0  0  0  0  0  0
  129.0380  126.6010   66.0900 C   0  0  0  0  0  0  0  0  0  0  0  0
  129.1020  126.8460   67.5640 C   0  0  0  0  0  0  0  0  0  0  0  0
  128.9170  125.8040   68.4810 C   0  0  0  0  0  0  0  0  0  0  0  0
  128.9650  126.0400   69.8520 C   0  0  0  0  0  0  0  0  0  0  0  0
  129.2090  127.3250   70.3580 C   0  0  0  0  0  0  0  0  0  0  0  0
  129.2260  127.5520   71.7380 N   0  0  0  0  0  0  0  0  0  0  0  0
  129.3710  128.9130   72.2930 C   0  0  0  0  0  0  0  0  0  0  0  0
  129.0080  129.0180   73.7890 C   0  0  0  0  0  0  0  0  0  0  0  0
  129.7630  128.0800   74.5400 O   0  0  0  0  0  0  0  0  0  0  0  0
  129.4980  126.7510   74.1230 C   0  0  0  0  0  0  0  0  0  0  0  0
  129.8750  126.5750   72.6370 C   0  0  0  0  0  0  0  0  0  0  0  0
  129.3820  128.3680   69.4340 C   0  0  0  0  0  0  0  0  0  0  0  0
  129.3360  128.1310   68.0640 C   0  0  0  0  0  0  0  0  0  0  0  0
  129.5160  125.4260   65.5060 C   0  0  0  0  0  0  0  0  0  0  0  0
  129.4430  125.2420   64.1180 C   0  0  0  0  0  0  0  0  0  0  0  0
  129.9790  123.9640   63.5590 C   0  0  0  0  0  0  0  0  0  0  0  0
  131.3110  123.6040   63.7780 C   0  0  0  0  0  0  0  0  0  0  0  0
  131.8240  122.4260   63.2450 C   0  0  0  0  0  0  0  0  0  0  0  0
  131.0200  121.5690   62.4780 C   0  0  0  0  0  0  0  0  0  0  0  0
  131.5210  120.3910   61.9180 N   0  0  0  0  0  0  0  0  0  0  0  0
  132.7970  120.4280   61.1760 C   0  0  0  0  0  0  0  0  0  0  0  0
  133.4170  119.0310   60.9590 C   0  0  0  0  0  0  0  0  0  0  0  0
  132.4830  118.1790   60.3140 O   0  0  0  0  0  0  0  0  0  0  0  0
  131.3010  118.0190   61.0820 C   0  0  0  0  0  0  0  0  0  0  0  0
  130.6270  119.3890   61.3060 C   0  0  0  0  0  0  0  0  0  0  0  0
  129.6880  121.9440   62.2530 C   0  0  0  0  0  0  0  0  0  0  0  0
  129.1740  123.1230   62.7840 C   0  0  0  0  0  0  0  0  0  0  0  0
  128.8650  126.2690   63.3330 C   0  0  0  0  0  0  0  0  0  0  0  0
  128.7100  126.1110   61.8840 C   0  0  0  0  0  0  0  0  0  0  0  0
  128.5900  125.9850   60.7390 N   0  0  0  0  0  0  0  0  0  0  0  0
  124.3200  132.9220   62.2130 C   0  0  0  0  0  0  0  0  0  0  0  0
  124.0520  134.1390   61.5920 C   0  0  0  0  0  0  0  0  0  0  0  0
  124.6981  139.8944   59.4745 H   0  0  0  0  0  0  0  0  0  0  0  0
  126.1042  139.4279   58.4587 H   0  0  0  0  0  0  0  0  0  0  0  0
  124.6207  138.4150   58.4587 H   0  0  0  0  0  0  0  0  0  0  0  0
  126.8804  138.5225   60.4278 H   0  0  0  0  0  0  0  0  0  0  0  0
  125.2360  138.3958   61.1377 H   0  0  0  0  0  0  0  0  0  0  0  0
  127.0585  134.6475   60.0568 H   0  0  0  0  0  0  0  0  0  0  0  0
  127.5376  132.4778   61.1643 H   0  0  0  0  0  0  0  0  0  0  0  0
  126.9070  130.8190   62.4450 H   0  0  0  0  0  0  0  0  0  0  0  0
  126.0957  128.9935   64.9686 H   0  0  0  0  0  0  0  0  0  0  0  0
  125.4031  128.1402   63.5001 H   0  0  0  0  0  0  0  0  0  0  0  0
  128.7311  124.7843   68.1126 H   0  0  0  0  0  0  0  0  0  0  0  0
  128.8089  125.2045   70.5503 H   0  0  0  0  0  0  0  0  0  0  0  0
  130.4170  129.2292   72.1670 H   0  0  0  0  0  0  0  0  0  0  0  0
  128.6672  129.5582   71.7467 H   0  0  0  0  0  0  0  0  0  0  0  0
  129.2301  130.0341   74.1470 H   0  0  0  0  0  0  0  0  0  0  0  0
  127.9368  128.8028   73.9160 H   0  0  0  0  0  0  0  0  0  0  0  0
  130.0903  126.0535   74.7335 H   0  0  0  0  0  0  0  0  0  0  0  0
  128.4255  126.5418   74.2490 H   0  0  0  0  0  0  0  0  0  0  0  0
  130.9652  126.6853   72.5402 H   0  0  0  0  0  0  0  0  0  0  0  0
  129.5246  125.5776   72.3332 H   0  0  0  0  0  0  0  0  0  0  0  0
  129.5570  129.3905   69.7999 H   0  0  0  0  0  0  0  0  0  0  0  0
  129.4858  128.9662   67.3640 H   0  0  0  0  0  0  0  0  0  0  0  0
  129.9527  124.6396   66.1392 H   0  0  0  0  0  0  0  0  0  0  0  0
  131.9605  124.2585   64.3778 H   0  0  0  0  0  0  0  0  0  0  0  0
  132.8762  122.1622   63.4276 H   0  0  0  0  0  0  0  0  0  0  0  0
  132.6160  120.8864   60.1926 H   0  0  0  0  0  0  0  0  0  0  0  0
  133.5086  121.0104   61.7797 H   0  0  0  0  0  0  0  0  0  0  0  0
  134.3166  119.1252   60.3330 H   0  0  0  0  0  0  0  0  0  0  0  0
  133.6844  118.5997   61.9349 H   0  0  0  0  0  0  0  0  0  0  0  0
  130.6064  117.3545   60.5472 H   0  0  0  0  0  0  0  0  0  0  0  0
  131.5607  117.5809   62.0570 H   0  0  0  0  0  0  0  0  0  0  0  0
  130.2874  119.7734   60.3329 H   0  0  0  0  0  0  0  0  0  0  0  0
  129.7929  119.2292   62.0051 H   0  0  0  0  0  0  0  0  0  0  0  0
  129.0385  121.2955   61.6467 H   0  0  0  0  0  0  0  0  0  0  0  0
  128.1257  123.3959   62.5926 H   0  0  0  0  0  0  0  0  0  0  0  0
  123.5427  132.4310   62.8169 H   0  0  0  0  0  0  0  0  0  0  0  0
  123.0639  134.6065   61.7147 H   0  0  0  0  0  0  0  0  0  0  0  0
  1  2  1  0
  2  3  1  0
  3  4  1  0
  4  5  2  0
  4  6  1  0
  6  7  2  0
  7  8  1  0
  8  9  2  0
  9 10  1  0
 10 11  1  0
 11 12  2  0
 11 13  1  0
 13 14  1  0
 14 15  1  0
 15 16  2  0
 16 17  1  0
 17 18  1  0
 18 19  2  0
 19 20  1  0
 20 21  2  0
 21 22  1  0
 22 23  1  0
 23 24  1  0
 24 25  1  0
 25 26  1  0
 26 27  1  0
 21 28  1  0
 28 29  2  0
 17 30  2  0
 30 31  1  0
 31 32  1  0
 32 33  2  0
 33 34  1  0
 34 35  2  0
 35 36  1  0
 36 37  1  0
 37 38  1  0
 38 39  1  0
 39 40  1  0
 40 41  1  0
 35 42  1  0
 42 43  2  0
 31 44  2  0
 44 45  1  0
 45 46  3  0
  9 47  1  0
 47 48  2  0
 48  6  1  0
 44 15  1  0
 29 18  1  0
 43 32  1  0
 27 22  1  0
 41 36  1  0
  1 49  1  0
  1 50  1  0
  1 51  1  0
  2 52  1  0
  2 53  1  0
  7 54  1  0
  8 55  1  0
 10 56  1  0
 13 57  1  0
 13 58  1  0
 19 59  1  0
 20 60  1  0
 23 61  1  0
 23 62  1  0
 24 63  1  0
 24 64  1  0
 26 65  1  0
 26 66  1  0
 27 67  1  0
 27 68  1  0
 28 69  1  0
 29 70  1  0
 30 71  1  0
 33 72  1  0
 34 73  1  0
 37 74  1  0
 37 75  1  0
 38 76  1  0
 38 77  1  0
 40 78  1  0
 40 79  1  0
 41 80  1  0
 41 81  1  0
 42 82  1  0
 43 83  1  0
 47 84  1  0
 48 85  1  0
M  END
>  <Binding energies>  (1) 
[-10.96]

>  <Ligand effiencies>  (1) 
[-0.22367346938775512]

>  <Interactions>  (1) 
["H-A:LYS:547:NZ:4951, V-B:HIS:456:CD2:9039, V-A:GLU:543:C:4902, V-A:HIS:456:CD2:4067, V-A:HIS:456:CE1:4069, V-B:GLU:543:CG:9879, V-B:GLU:543:CD:9880, V-B:ALA:541:CB:9864, V-A:TYR:539:CD1:4873, V-A:TYR:539:CE1:4875, V-B:ILE:369:CG2:8208, V-B:LEU:475:CD1:9229, V-B:ILE:369:CD1:8210, V-A:GLU:543:CD:4908, V-A:PRO:482:CG:4326, V-A:PRO:482:CB:4325, V-A:ILE:369:CG2:3236, V-A:LEU:475:CD1:4257, V-A:SER:385:C:3404, V-A:SER:385:CA:3406, V-A:SER:385:CB:3408, V-B:GLU:543:CB:9878, V-B:GLU:543:C:9874, V-A:GLU:543:CB:4906, V-B:HIS:456:CE1:9041, V-B:ARG:545:CZ:9898, V-B:PRO:482:CG:9298, V-B:LEU:373:CD1:8251, H-B:SER:385:OG:8381, V-B:SER:385:CB:8380, V-A:ILE:343:CG2:2991, V-B:LEU:373:CD2:8252, H-A:SER:385:OG:3409, H-A:HIS:383:NE2:3393, H-B:GLY:454:N:9021"]

$$$$
2a_Grossjean_2025
     RDKit          3D

 45 46  0  0  0  0  0  0  0  0999 V2000
  124.4900  123.6380   58.7460 C   0  0  0  0  0  0  0  0  0  0  0  0
  125.5140  124.5650   58.0850 C   0  0  0  0  0  0  0  0  0  0  0  0
  125.9900  123.9620   56.8880 O   0  0  0  0  0  0  0  0  0  0  0  0
  126.7300  122.8230   56.9240 C   0  0  0  0  0  0  0  0  0  0  0  0
  126.3600  121.7550   56.4270 O   0  0  0  0  0  0  0  0  0  0  0  0
  128.0540  123.0000   57.6110 C   0  0  0  0  0  0  0  0  0  0  0  0
  128.4890  122.1270   58.6190 C   0  0  0  0  0  0  0  0  0  0  0  0
  129.7210  122.3200   59.2360 C   0  0  0  0  0  0  0  0  0  0  0  0
  130.5390  123.3880   58.8670 C   0  0  0  0  0  0  0  0  0  0  0  0
  131.7550  123.4940   59.5680 N   0  0  0  0  0  0  0  0  0  0  0  0
  133.0260  123.4230   59.1160 C   0  0  0  0  0  0  0  0  0  0  0  0
  133.3590  123.2160   57.9490 O   0  0  0  0  0  0  0  0  0  0  0  0
  134.1150  123.6180   60.1760 C   0  0  0  0  0  0  0  0  0  0  0  0
  134.2220  122.2380   61.3640 S   0  0  0  0  0  0  0  0  0  0  0  0
  132.6270  121.4390   61.5060 C   0  0  0  0  0  0  0  0  0  0  0  0
  131.6460  122.1800   62.0820 N   0  0  0  0  0  0  0  0  0  0  0  0
  130.4190  121.6350   62.2330 C   0  0  0  0  0  0  0  0  0  0  0  0
  129.3840  122.5150   62.9090 C   0  0  0  0  0  0  0  0  0  0  0  0
  130.1140  120.3430   61.8140 C   0  0  0  0  0  0  0  0  0  0  0  0
  131.1100  119.5620   61.2070 C   0  0  0  0  0  0  0  0  0  0  0  0
  130.7560  118.1350   60.7480 C   0  0  0  0  0  0  0  0  0  0  0  0
  131.0510  117.9830   59.4570 F   0  0  0  0  0  0  0  0  0  0  0  0
  131.4470  117.2430   61.4590 F   0  0  0  0  0  0  0  0  0  0  0  0
  129.4600  117.8510   60.9000 F   0  0  0  0  0  0  0  0  0  0  0  0
  132.4030  120.1200   61.0460 C   0  0  0  0  0  0  0  0  0  0  0  0
  133.4820  119.3470   60.4220 C   0  0  0  0  0  0  0  0  0  0  0  0
  134.3330  118.7370   59.9300 N   0  0  0  0  0  0  0  0  0  0  0  0
  130.1150  124.2600   57.8550 C   0  0  0  0  0  0  0  0  0  0  0  0
  128.8840  124.0640   57.2350 C   0  0  0  0  0  0  0  0  0  0  0  0
  124.5767  123.7165   59.8398 H   0  0  0  0  0  0  0  0  0  0  0  0
  123.4761  123.9316   58.4365 H   0  0  0  0  0  0  0  0  0  0  0  0
  124.6816  122.6000   58.4365 H   0  0  0  0  0  0  0  0  0  0  0  0
  125.0384  125.5280   57.8474 H   0  0  0  0  0  0  0  0  0  0  0  0
  126.3559  124.7340   58.7725 H   0  0  0  0  0  0  0  0  0  0  0  0
  127.8516  121.2839   58.9238 H   0  0  0  0  0  0  0  0  0  0  0  0
  130.0527  121.6247   60.0212 H   0  0  0  0  0  0  0  0  0  0  0  0
  131.6470  123.6980   60.5490 H   0  0  0  0  0  0  0  0  0  0  0  0
  135.0848  123.7156   59.6662 H   0  0  0  0  0  0  0  0  0  0  0  0
  133.8544  124.5206   60.7482 H   0  0  0  0  0  0  0  0  0  0  0  0
  129.4859  122.4284   64.0008 H   0  0  0  0  0  0  0  0  0  0  0  0
  129.5397  123.5615   62.6081 H   0  0  0  0  0  0  0  0  0  0  0  0
  128.3761  122.1930   62.6081 H   0  0  0  0  0  0  0  0  0  0  0  0
  129.1015  119.9377   61.9573 H   0  0  0  0  0  0  0  0  0  0  0  0
  130.7558  125.1005   57.5502 H   0  0  0  0  0  0  0  0  0  0  0  0
  128.5594  124.7525   56.4408 H   0  0  0  0  0  0  0  0  0  0  0  0
  1  2  1  0
  2  3  1  0
  3  4  1  0
  4  5  2  0
  4  6  1  0
  6  7  2  0
  7  8  1  0
  8  9  2  0
  9 10  1  0
 10 11  1  0
 11 12  2  0
 11 13  1  0
 13 14  1  0
 14 15  1  0
 15 16  2  0
 16 17  1  0
 17 18  1  0
 17 19  2  0
 19 20  1  0
 20 21  1  0
 21 22  1  0
 21 23  1  0
 21 24  1  0
 20 25  2  0
 25 26  1  0
 26 27  3  0
  9 28  1  0
 28 29  2  0
 29  6  1  0
 25 15  1  0
  1 30  1  0
  1 31  1  0
  1 32  1  0
  2 33  1  0
  2 34  1  0
  7 35  1  0
  8 36  1  0
 10 37  1  0
 13 38  1  0
 13 39  1  0
 18 40  1  0
 18 41  1  0
 18 42  1  0
 19 43  1  0
 28 44  1  0
 29 45  1  0
M  END
>  <Binding energies>  (1) 
[-7.99]

>  <Ligand effiencies>  (1) 
[-0.26633333333333337]

>  <Interactions>  (1) 
["V-A:ASP:366:CG:3212, V-B:ALA:541:CB:9864, H-B:TYR:531:OH:9767, V-A:PRO:482:CG:4326, V-B:PRO:540:CB:9857, V-B:TYR:539:CE2:9848, V-B:PRO:540:N:9856, V-B:PRO:540:CA:9855, V-B:MET:535:CE:9807, V-B:TYR:539:CD2:9846, V-B:TYR:531:CE2:9765, V-A:PRO:482:CB:4325, V-B:TYR:539:C:9839, V-B:LEU:363:CD1:8160, V-A:ILE:369:CG2:3236, V-A:ILE:369:CB:3235, V-A:LEU:475:CD1:4257, V-B:ALA:541:CA:9862, V-B:PRO:540:C:9853, V-A:ILE:369:CD1:3238, V-A:SER:385:CA:3406, V-B:TYR:539:CG:9844, V-B:TYR:539:CZ:9849, H-B:TYR:539:OH:9850, V-B:LEU:363:CA:8156, V-A:ASP:366:CA:3209, V-B:LEU:363:CB:8158, V-B:TYR:539:CB:9843, H-B:TYR:539:N:9842, H-A:SER:385:OG:3409, H-A:HIS:383:NE2:3393, V-A:HIS:383:CE1:3392, V-A:PRO:482:CD:4327"]

$$$$
2aa_Ghoteimi_2023
     RDKit          3D

 85 90  0  0  0  0  0  0  0  0999 V2000
  125.9860  138.1570   59.2990 C   0  0  0  0  0  0  0  0  0  0  0  0
  125.9900  137.6140   60.7320 C   0  0  0  0  0  0  0  0  0  0  0  0
  126.3070  136.2280   60.7090 O   0  0  0  0  0  0  0  0  0  0  0  0
  125.3400  135.2890   60.5350 C   0  0  0  0  0  0  0  0  0  0  0  0
  124.4220  135.4020   59.7160 O   0  0  0  0  0  0  0  0  0  0  0  0
  125.5080  134.0930   61.4280 C   0  0  0  0  0  0  0  0  0  0  0  0
  126.7690  133.6790   61.8830 C   0  0  0  0  0  0  0  0  0  0  0  0
  126.8910  132.5690   62.7120 C   0  0  0  0  0  0  0  0  0  0  0  0
  125.7610  131.8460   63.0980 C   0  0  0  0  0  0  0  0  0  0  0  0
  126.0000  130.7430   63.9410 N   0  0  0  0  0  0  0  0  0  0  0  0
  125.1240  129.9070   64.5400 C   0  0  0  0  0  0  0  0  0  0  0  0
  123.8990  129.9580   64.4180 O   0  0  0  0  0  0  0  0  0  0  0  0
  125.7720  128.8190   65.4070 C   0  0  0  0  0  0  0  0  0  0  0  0
  127.1960  128.9560   65.3670 O   0  0  0  0  0  0  0  0  0  0  0  0
  128.0070  127.9690   65.9120 C   0  0  0  0  0  0  0  0  0  0  0  0
  128.1690  127.9490   67.2650 N   0  0  0  0  0  0  0  0  0  0  0  0
  128.9510  126.9960   67.8310 C   0  0  0  0  0  0  0  0  0  0  0  0
  129.0870  127.0400   69.3200 C   0  0  0  0  0  0  0  0  0  0  0  0
  128.6780  125.9580   70.1060 C   0  0  0  0  0  0  0  0  0  0  0  0
  128.8080  125.9900   71.4920 C   0  0  0  0  0  0  0  0  0  0  0  0
  129.3660  127.1020   72.1430 C   0  0  0  0  0  0  0  0  0  0  0  0
  129.4920  127.1560   73.5360 N   0  0  0  0  0  0  0  0  0  0  0  0
  130.7840  126.8910   74.2030 C   0  0  0  0  0  0  0  0  0  0  0  0
  130.6610  126.6450   75.7210 C   0  0  0  0  0  0  0  0  0  0  0  0
  129.9860  127.7290   76.3370 O   0  0  0  0  0  0  0  0  0  0  0  0
  128.6750  127.8870   75.8160 C   0  0  0  0  0  0  0  0  0  0  0  0
  128.7380  128.1710   74.3000 C   0  0  0  0  0  0  0  0  0  0  0  0
  129.7540  128.1920   71.3520 C   0  0  0  0  0  0  0  0  0  0  0  0
  129.6210  128.1600   69.9670 C   0  0  0  0  0  0  0  0  0  0  0  0
  129.6080  126.0420   67.0480 C   0  0  0  0  0  0  0  0  0  0  0  0
  129.4670  126.0470   65.6550 C   0  0  0  0  0  0  0  0  0  0  0  0
  130.2140  125.0180   64.8690 C   0  0  0  0  0  0  0  0  0  0  0  0
  129.7090  123.7220   64.7440 C   0  0  0  0  0  0  0  0  0  0  0  0
  130.4090  122.7530   64.0300 C   0  0  0  0  0  0  0  0  0  0  0  0
  131.6440  123.0490   63.4330 C   0  0  0  0  0  0  0  0  0  0  0  0
  132.3630  122.0940   62.7100 N   0  0  0  0  0  0  0  0  0  0  0  0
  133.7820  122.3010   62.3620 C   0  0  0  0  0  0  0  0  0  0  0  0
  134.4920  121.0150   61.8870 C   0  0  0  0  0  0  0  0  0  0  0  0
  133.7830  120.4430   60.7980 O   0  0  0  0  0  0  0  0  0  0  0  0
  132.4540  120.1030   61.1620 C   0  0  0  0  0  0  0  0  0  0  0  0
  131.6900  121.3640   61.6160 C   0  0  0  0  0  0  0  0  0  0  0  0
  132.1400  124.3550   63.5580 C   0  0  0  0  0  0  0  0  0  0  0  0
  131.4400  125.3230   64.2710 C   0  0  0  0  0  0  0  0  0  0  0  0
  128.6320  127.0290   65.0730 C   0  0  0  0  0  0  0  0  0  0  0  0
  128.3860  127.0800   63.6300 C   0  0  0  0  0  0  0  0  0  0  0  0
  128.1920  127.1190   62.4900 N   0  0  0  0  0  0  0  0  0  0  0  0
  124.4970  132.2570   62.6530 C   0  0  0  0  0  0  0  0  0  0  0  0
  124.3760  133.3710   61.8260 C   0  0  0  0  0  0  0  0  0  0  0  0
  125.9779  139.2567   59.3236 H   0  0  0  0  0  0  0  0  0  0  0  0
  126.8867  137.8087   58.7724 H   0  0  0  0  0  0  0  0  0  0  0  0
  125.0905  137.7954   58.7724 H   0  0  0  0  0  0  0  0  0  0  0  0
  126.7420  138.1530   61.3270 H   0  0  0  0  0  0  0  0  0  0  0  0
  124.9969  137.7572   61.1829 H   0  0  0  0  0  0  0  0  0  0  0  0
  127.6680  134.2366   61.5817 H   0  0  0  0  0  0  0  0  0  0  0  0
  127.8851  132.2586   63.0661 H   0  0  0  0  0  0  0  0  0  0  0  0
  126.9780  130.5340   64.0790 H   0  0  0  0  0  0  0  0  0  0  0  0
  125.4235  128.9228   66.4452 H   0  0  0  0  0  0  0  0  0  0  0  0
  125.4900  127.8286   65.0204 H   0  0  0  0  0  0  0  0  0  0  0  0
  128.2474  125.0688   69.6223 H   0  0  0  0  0  0  0  0  0  0  0  0
  128.4678  125.1296   72.0870 H   0  0  0  0  0  0  0  0  0  0  0  0
  131.2359  126.0000   73.7426 H   0  0  0  0  0  0  0  0  0  0  0  0
  131.4027  127.7912   74.0730 H   0  0  0  0  0  0  0  0  0  0  0  0
  130.0949  125.7179   75.8947 H   0  0  0  0  0  0  0  0  0  0  0  0
  131.6682  126.5552   76.1540 H   0  0  0  0  0  0  0  0  0  0  0  0
  128.1007  126.9651   75.9900 H   0  0  0  0  0  0  0  0  0  0  0  0
  128.1861  128.7331   76.3211 H   0  0  0  0  0  0  0  0  0  0  0  0
  127.7099  128.2059   73.9103 H   0  0  0  0  0  0  0  0  0  0  0  0
  129.2676  129.1268   74.1740 H   0  0  0  0  0  0  0  0  0  0  0  0
  130.1709  129.0884   71.8343 H   0  0  0  0  0  0  0  0  0  0  0  0
  129.9405  129.0282   69.3719 H   0  0  0  0  0  0  0  0  0  0  0  0
  130.2404  125.2819   67.5300 H   0  0  0  0  0  0  0  0  0  0  0  0
  128.7486  123.4641   65.2143 H   0  0  0  0  0  0  0  0  0  0  0  0
  129.9881  121.7414   63.9325 H   0  0  0  0  0  0  0  0  0  0  0  0
  133.8378  123.0478   61.5562 H   0  0  0  0  0  0  0  0  0  0  0  0
  134.2945  122.6355   63.2760 H   0  0  0  0  0  0  0  0  0  0  0  0
  135.5152  121.2609   61.5666 H   0  0  0  0  0  0  0  0  0  0  0  0
  134.5241  120.2929   62.7162 H   0  0  0  0  0  0  0  0  0  0  0  0
  131.9416  119.6593   60.2956 H   0  0  0  0  0  0  0  0  0  0  0  0
  132.4812  119.3804   61.9909 H   0  0  0  0  0  0  0  0  0  0  0  0
  131.5904  122.0407   60.7545 H   0  0  0  0  0  0  0  0  0  0  0  0
  130.7134  121.0326   61.9986 H   0  0  0  0  0  0  0  0  0  0  0  0
  133.0976  124.6180   63.0848 H   0  0  0  0  0  0  0  0  0  0  0  0
  131.8550  126.3374   64.3650 H   0  0  0  0  0  0  0  0  0  0  0  0
  123.5993  131.6989   62.9574 H   0  0  0  0  0  0  0  0  0  0  0  0
  123.3803  133.6872   61.4816 H   0  0  0  0  0  0  0  0  0  0  0  0
  1  2  1  0
  2  3  1  0
  3  4  1  0
  4  5  2  0
  4  6  1  0
  6  7  2  0
  7  8  1  0
  8  9  2  0
  9 10  1  0
 10 11  1  0
 11 12  2  0
 11 13  1  0
 13 14  1  0
 14 15  1  0
 15 16  2  0
 16 17  1  0
 17 18  1  0
 18 19  2  0
 19 20  1  0
 20 21  2  0
 21 22  1  0
 22 23  1  0
 23 24  1  0
 24 25  1  0
 25 26  1  0
 26 27  1  0
 21 28  1  0
 28 29  2  0
 17 30  2  0
 30 31  1  0
 31 32  1  0
 32 33  2  0
 33 34  1  0
 34 35  2  0
 35 36  1  0
 36 37  1  0
 37 38  1  0
 38 39  1  0
 39 40  1  0
 40 41  1  0
 35 42  1  0
 42 43  2  0
 31 44  2  0
 44 45  1  0
 45 46  3  0
  9 47  1  0
 47 48  2  0
 48  6  1  0
 44 15  1  0
 29 18  1  0
 43 32  1  0
 27 22  1  0
 41 36  1  0
  1 49  1  0
  1 50  1  0
  1 51  1  0
  2 52  1  0
  2 53  1  0
  7 54  1  0
  8 55  1  0
 10 56  1  0
 13 57  1  0
 13 58  1  0
 19 59  1  0
 20 60  1  0
 23 61  1  0
 23 62  1  0
 24 63  1  0
 24 64  1  0
 26 65  1  0
 26 66  1  0
 27 67  1  0
 27 68  1  0
 28 69  1  0
 29 70  1  0
 30 71  1  0
 33 72  1  0
 34 73  1  0
 37 74  1  0
 37 75  1  0
 38 76  1  0
 38 77  1  0
 40 78  1  0
 40 79  1  0
 41 80  1  0
 41 81  1  0
 42 82  1  0
 43 83  1  0
 47 84  1  0
 48 85  1  0
M  END
>  <Binding energies>  (1) 
[-10.33]

>  <Ligand effiencies>  (1) 
[-0.21081632653061225]

>  <Interactions>  (1) 
["H-A:LYS:547:NZ:4951, V-B:HIS:456:CD2:9039, V-A:GLU:543:C:4902, V-A:HIS:456:CE1:4069, V-B:GLU:543:CG:9879, V-B:GLU:543:CD:9880, V-B:ALA:541:CB:9864, V-A:TYR:539:CD1:4873, V-B:ILE:369:CG2:8208, V-B:LEU:475:CD1:9229, V-A:ALA:541:CB:4892, V-B:ILE:369:CD1:8210, V-A:GLU:543:CD:4908, H-B:ARG:545:NH2:9900, V-A:GLY:454:CA:4048, V-A:ILE:369:CG2:3236, V-A:LEU:475:CD1:4257, V-A:SER:385:C:3404, V-A:ILE:369:CD1:3238, V-B:GLU:543:CB:9878, V-B:GLU:543:C:9874, V-B:HIS:456:CE1:9041, V-B:GLY:454:CA:9020, V-B:ARG:545:CZ:9898, V-B:PRO:482:CB:9297, V-A:TYR:539:CB:4871, V-B:PRO:482:CG:9298, V-B:LEU:373:CD1:8251, H-B:SER:385:OG:8381, V-B:SER:385:CB:8380, H-B:GLY:454:N:9021, H-B:ARG:545:NH1:9899"]

$$$$
2b_Ghoteimi_2023
     RDKit          3D

 72 77  0  0  0  0  0  0  0  0999 V2000
  127.7550  131.9630   65.6530 N   0  0  0  0  0  0  0  0  0  0  0  0
  127.6610  131.0650   64.9300 C   0  0  0  0  0  0  0  0  0  0  0  0
  127.5410  129.9230   64.0180 C   0  0  0  0  0  0  0  0  0  0  0  0
  127.7640  128.6030   64.4840 C   0  0  0  0  0  0  0  0  0  0  0  0
  128.1240  128.2710   65.8950 C   0  0  0  0  0  0  0  0  0  0  0  0
  128.6490  127.0160   66.2100 C   0  0  0  0  0  0  0  0  0  0  0  0
  128.9870  126.7000   67.5230 C   0  0  0  0  0  0  0  0  0  0  0  0
  128.7910  127.6260   68.5600 C   0  0  0  0  0  0  0  0  0  0  0  0
  129.1330  127.3370   69.8820 N   0  0  0  0  0  0  0  0  0  0  0  0
  129.3800  128.4500   70.8210 C   0  0  0  0  0  0  0  0  0  0  0  0
  130.1060  128.0130   72.1110 C   0  0  0  0  0  0  0  0  0  0  0  0
  129.3910  126.9620   72.7420 O   0  0  0  0  0  0  0  0  0  0  0  0
  129.2730  125.8270   71.8980 C   0  0  0  0  0  0  0  0  0  0  0  0
  128.5170  126.2080   70.6080 C   0  0  0  0  0  0  0  0  0  0  0  0
  128.2600  128.8810   68.2340 C   0  0  0  0  0  0  0  0  0  0  0  0
  127.9270  129.1990   66.9210 C   0  0  0  0  0  0  0  0  0  0  0  0
  127.6330  127.5450   63.5770 C   0  0  0  0  0  0  0  0  0  0  0  0
  127.2600  127.7900   62.2530 C   0  0  0  0  0  0  0  0  0  0  0  0
  127.0780  126.6920   61.2530 C   0  0  0  0  0  0  0  0  0  0  0  0
  126.8700  126.9860   59.9010 C   0  0  0  0  0  0  0  0  0  0  0  0
  126.7160  125.9690   58.9620 C   0  0  0  0  0  0  0  0  0  0  0  0
  126.7510  124.6190   59.3420 C   0  0  0  0  0  0  0  0  0  0  0  0
  126.6270  123.5860   58.4060 N   0  0  0  0  0  0  0  0  0  0  0  0
  125.3810  123.4450   57.6250 C   0  0  0  0  0  0  0  0  0  0  0  0
  125.2340  122.0700   56.9390 C   0  0  0  0  0  0  0  0  0  0  0  0
  126.3720  121.8040   56.1340 O   0  0  0  0  0  0  0  0  0  0  0  0
  127.5600  121.7740   56.9080 C   0  0  0  0  0  0  0  0  0  0  0  0
  127.7770  123.1390   57.5960 C   0  0  0  0  0  0  0  0  0  0  0  0
  126.9660  124.3290   60.6970 C   0  0  0  0  0  0  0  0  0  0  0  0
  127.1230  125.3460   61.6350 C   0  0  0  0  0  0  0  0  0  0  0  0
  127.0460  129.0540   61.8080 N   0  0  0  0  0  0  0  0  0  0  0  0
  127.1990  130.0970   62.6580 C   0  0  0  0  0  0  0  0  0  0  0  0
  126.8840  131.6800   61.9080 S   0  0  0  0  0  0  0  0  0  0  0  0
  127.0310  131.4720   60.1070 C   0  0  0  0  0  0  0  0  0  0  0  0
  128.4200  131.8570   59.5960 C   0  0  0  0  0  0  0  0  0  0  0  0
  129.2520  132.3060   60.3860 O   0  0  0  0  0  0  0  0  0  0  0  0
  128.6250  131.6710   58.2730 N   0  0  0  0  0  0  0  0  0  0  0  0
  129.7860  131.9250   57.5570 C   0  0  0  0  0  0  0  0  0  0  0  0
  131.0370  131.4470   57.9430 C   0  0  0  0  0  0  0  0  0  0  0  0
  131.9080  131.9100   56.9850 C   0  0  0  0  0  0  0  0  0  0  0  0
  131.2180  132.6300   56.0700 O   0  0  0  0  0  0  0  0  0  0  0  0
  129.8720  132.6320   56.4420 N   0  0  0  0  0  0  0  0  0  0  0  0
  128.7967  126.2710   65.4142 H   0  0  0  0  0  0  0  0  0  0  0  0
  129.4132  125.7119   67.7510 H   0  0  0  0  0  0  0  0  0  0  0  0
  129.9971  129.2052   70.3122 H   0  0  0  0  0  0  0  0  0  0  0  0
  128.3987  128.8476   71.1191 H   0  0  0  0  0  0  0  0  0  0  0  0
  131.1180  127.6638   71.8582 H   0  0  0  0  0  0  0  0  0  0  0  0
  130.1660  128.8701   72.7978 H   0  0  0  0  0  0  0  0  0  0  0  0
  130.2768  125.4602   71.6376 H   0  0  0  0  0  0  0  0  0  0  0  0
  128.7147  125.0398   72.4258 H   0  0  0  0  0  0  0  0  0  0  0  0
  128.4994  125.3326   69.9421 H   0  0  0  0  0  0  0  0  0  0  0  0
  127.5058  126.5238   70.9041 H   0  0  0  0  0  0  0  0  0  0  0  0
  128.1040  129.6261   69.0281 H   0  0  0  0  0  0  0  0  0  0  0  0
  127.5056  130.1882   66.6889 H   0  0  0  0  0  0  0  0  0  0  0  0
  127.8250  126.5139   63.9087 H   0  0  0  0  0  0  0  0  0  0  0  0
  126.8275  128.0357   59.5749 H   0  0  0  0  0  0  0  0  0  0  0  0
  126.5643  126.2288   57.9039 H   0  0  0  0  0  0  0  0  0  0  0  0
  124.5272  123.5882   58.3036 H   0  0  0  0  0  0  0  0  0  0  0  0
  125.4129  124.2017   56.8273 H   0  0  0  0  0  0  0  0  0  0  0  0
  125.1405  121.2881   57.7070 H   0  0  0  0  0  0  0  0  0  0  0  0
  124.3364  122.0783   56.3031 H   0  0  0  0  0  0  0  0  0  0  0  0
  127.4758  120.9893   57.6742 H   0  0  0  0  0  0  0  0  0  0  0  0
  128.4149  121.5620   56.2490 H   0  0  0  0  0  0  0  0  0  0  0  0
  128.6551  123.0604   58.2538 H   0  0  0  0  0  0  0  0  0  0  0  0
  127.9153  123.8826   56.7973 H   0  0  0  0  0  0  0  0  0  0  0  0
  127.0114  123.2799   61.0246 H   0  0  0  0  0  0  0  0  0  0  0  0
  127.2848  125.0879   62.6920 H   0  0  0  0  0  0  0  0  0  0  0  0
  126.8394  130.4186   59.8546 H   0  0  0  0  0  0  0  0  0  0  0  0
  126.2970  132.1366   59.6278 H   0  0  0  0  0  0  0  0  0  0  0  0
  127.8630  131.2810   57.7380 H   0  0  0  0  0  0  0  0  0  0  0  0
  131.2759  130.8324   58.8234 H   0  0  0  0  0  0  0  0  0  0  0  0
  132.9921  131.7248   56.9654 H   0  0  0  0  0  0  0  0  0  0  0  0
  1  2  3  0
  2  3  1  0
  3  4  2  0
  4  5  1  0
  5  6  2  0
  6  7  1  0
  7  8  2  0
  8  9  1  0
  9 10  1  0
 10 11  1  0
 11 12  1  0
 12 13  1  0
 13 14  1  0
  8 15  1  0
 15 16  2  0
  4 17  1  0
 17 18  2  0
 18 19  1  0
 19 20  2  0
 20 21  1  0
 21 22  2  0
 22 23  1  0
 23 24  1  0
 24 25  1  0
 25 26  1  0
 26 27  1  0
 27 28  1  0
 22 29  1  0
 29 30  2  0
 18 31  1  0
 31 32  2  0
 32 33  1  0
 33 34  1  0
 34 35  1  0
 35 36  2  0
 35 37  1  0
 37 38  1  0
 38 39  1  0
 39 40  2  0
 40 41  1  0
 41 42  1  0
 32  3  1  0
 42 38  2  0
 16  5  1  0
 30 19  1  0
 14  9  1  0
 28 23  1  0
  6 43  1  0
  7 44  1  0
 10 45  1  0
 10 46  1  0
 11 47  1  0
 11 48  1  0
 13 49  1  0
 13 50  1  0
 14 51  1  0
 14 52  1  0
 15 53  1  0
 16 54  1  0
 17 55  1  0
 20 56  1  0
 21 57  1  0
 24 58  1  0
 24 59  1  0
 25 60  1  0
 25 61  1  0
 27 62  1  0
 27 63  1  0
 28 64  1  0
 28 65  1  0
 29 66  1  0
 30 67  1  0
 34 68  1  0
 34 69  1  0
 37 70  1  0
 39 71  1  0
 40 72  1  0
M  END
>  <Binding energies>  (1) 
[-10.76]

>  <Ligand effiencies>  (1) 
[-0.2502325581395349]

>  <Interactions>  (1) 
["V-B:HIS:456:CD2:9039, V-A:GLU:543:C:4902, V-A:HIS:456:CD2:4067, V-A:HIS:456:CE1:4069, V-B:GLU:543:CD:9880, V-A:TYR:539:CD1:4873, V-A:PRO:540:CB:4885, V-A:LEU:363:CD1:3188, V-A:PRO:540:N:4884, V-A:TYR:539:CE1:4875, V-A:PRO:540:CA:4883, H-A:ALA:541:N:4891, V-A:TYR:539:C:4867, V-A:PRO:540:CD:4887, V-A:GLU:543:CD:4908, V-A:GLU:543:CG:4907, V-B:PRO:540:CB:9857, V-B:PRO:540:CD:9859, V-B:PRO:540:N:9856, V-B:PRO:540:CA:9855, V-B:MET:535:CE:9807, V-B:TYR:539:CA:9841, V-B:TYR:539:CD2:9846, V-B:TYR:531:CE2:9765, V-B:TYR:539:C:9839, V-B:LEU:363:CD1:8160, V-B:GLU:543:CB:9878, V-B:GLU:543:C:9874, V-A:GLU:543:CB:4906, V-B:HIS:456:CE1:9041, V-B:TYR:539:CG:9844, V-B:TYR:484:CE2:9317, H-A:TYR:539:N:4870, V-B:TYR:539:CE1:9847, V-B:TYR:539:CD1:9845, H-B:TYR:539:N:9842, H-B:TYR:484:OH:9319, V-B:PRO:540:CG:9858"]

$$$$
2b_Grossjean_2025
     RDKit          3D

 42 43  0  0  0  0  0  0  0  0999 V2000
  125.1890  124.3260   58.0090 C   0  0  0  0  0  0  0  0  0  0  0  0
  125.9980  123.9620   56.8990 O   0  0  0  0  0  0  0  0  0  0  0  0
  126.7520  122.8340   56.9230 C   0  0  0  0  0  0  0  0  0  0  0  0
  126.3890  121.7620   56.4260 O   0  0  0  0  0  0  0  0  0  0  0  0
  128.0710  123.0170   57.6160 C   0  0  0  0  0  0  0  0  0  0  0  0
  128.5070  122.1440   58.6240 C   0  0  0  0  0  0  0  0  0  0  0  0
  129.7350  122.3430   59.2480 C   0  0  0  0  0  0  0  0  0  0  0  0
  130.5540  123.4100   58.8760 C   0  0  0  0  0  0  0  0  0  0  0  0
  131.7710  123.5210   59.5760 N   0  0  0  0  0  0  0  0  0  0  0  0
  133.0380  123.4180   59.1220 C   0  0  0  0  0  0  0  0  0  0  0  0
  133.3610  123.1690   57.9600 O   0  0  0  0  0  0  0  0  0  0  0  0
  134.1280  123.6160   60.1800 C   0  0  0  0  0  0  0  0  0  0  0  0
  134.2410  122.2310   61.3610 S   0  0  0  0  0  0  0  0  0  0  0  0
  132.6530  121.4230   61.5080 C   0  0  0  0  0  0  0  0  0  0  0  0
  131.6720  122.1540   62.0940 N   0  0  0  0  0  0  0  0  0  0  0  0
  130.4460  121.6040   62.2420 C   0  0  0  0  0  0  0  0  0  0  0  0
  129.4090  122.4810   62.9180 C   0  0  0  0  0  0  0  0  0  0  0  0
  130.1440  120.3160   61.8100 C   0  0  0  0  0  0  0  0  0  0  0  0
  131.1410  119.5440   61.1940 C   0  0  0  0  0  0  0  0  0  0  0  0
  130.7890  118.1220   60.7170 C   0  0  0  0  0  0  0  0  0  0  0  0
  131.0840  117.9890   59.4230 F   0  0  0  0  0  0  0  0  0  0  0  0
  131.4830  117.2200   61.4130 F   0  0  0  0  0  0  0  0  0  0  0  0
  129.4950  117.8320   60.8660 F   0  0  0  0  0  0  0  0  0  0  0  0
  132.4340  120.1070   61.0380 C   0  0  0  0  0  0  0  0  0  0  0  0
  133.5150  119.3430   60.4080 C   0  0  0  0  0  0  0  0  0  0  0  0
  134.3680  118.7400   59.9100 N   0  0  0  0  0  0  0  0  0  0  0  0
  130.1220  124.2910   57.8750 C   0  0  0  0  0  0  0  0  0  0  0  0
  128.8930  124.0920   57.2520 C   0  0  0  0  0  0  0  0  0  0  0  0
  125.7191  124.0875   58.9429 H   0  0  0  0  0  0  0  0  0  0  0  0
  124.9794  125.4052   57.9717 H   0  0  0  0  0  0  0  0  0  0  0  0
  124.2423  123.7671   57.9717 H   0  0  0  0  0  0  0  0  0  0  0  0
  127.8736  121.2960   58.9234 H   0  0  0  0  0  0  0  0  0  0  0  0
  130.0625  121.6540   60.0405 H   0  0  0  0  0  0  0  0  0  0  0  0
  131.6650  123.6510   60.5710 H   0  0  0  0  0  0  0  0  0  0  0  0
  135.0966  123.7200   59.6691 H   0  0  0  0  0  0  0  0  0  0  0  0
  133.8662  124.5163   60.7553 H   0  0  0  0  0  0  0  0  0  0  0  0
  129.5112  122.3945   64.0098 H   0  0  0  0  0  0  0  0  0  0  0  0
  129.5619  123.5280   62.6172 H   0  0  0  0  0  0  0  0  0  0  0  0
  128.4020  122.1564   62.6172 H   0  0  0  0  0  0  0  0  0  0  0  0
  129.1327  119.9066   61.9502 H   0  0  0  0  0  0  0  0  0  0  0  0
  130.7552  125.1411   57.5812 H   0  0  0  0  0  0  0  0  0  0  0  0
  128.5634  124.7864   56.4651 H   0  0  0  0  0  0  0  0  0  0  0  0
  1  2  1  0
  2  3  1  0
  3  4  2  0
  3  5  1  0
  5  6  2  0
  6  7  1  0
  7  8  2  0
  8  9  1  0
  9 10  1  0
 10 11  2  0
 10 12  1  0
 12 13  1  0
 13 14  1  0
 14 15  2  0
 15 16  1  0
 16 17  1  0
 16 18  2  0
 18 19  1  0
 19 20  1  0
 20 21  1  0
 20 22  1  0
 20 23  1  0
 19 24  2  0
 24 25  1  0
 25 26  3  0
  8 27  1  0
 27 28  2  0
 28  5  1  0
 24 14  1  0
  1 29  1  0
  1 30  1  0
  1 31  1  0
  6 32  1  0
  7 33  1  0
  9 34  1  0
 12 35  1  0
 12 36  1  0
 17 37  1  0
 17 38  1  0
 17 39  1  0
 18 40  1  0
 27 41  1  0
 28 42  1  0
M  END
>  <Binding energies>  (1) 
[-7.7]

>  <Ligand effiencies>  (1) 
[-0.2655172413793104]

>  <Interactions>  (1) 
["V-A:ASP:366:CG:3212, V-B:ALA:541:CB:9864, H-B:TYR:531:OH:9767, V-A:PRO:482:CG:4326, V-B:TYR:539:CE2:9848, V-B:PRO:540:N:9856, V-B:PRO:540:CA:9855, V-B:MET:535:CE:9807, V-B:TYR:539:CD2:9846, V-B:TYR:531:CE2:9765, V-A:PRO:482:CB:4325, V-B:TYR:539:C:9839, V-B:LEU:363:CD1:8160, V-A:ILE:369:CG2:3236, V-A:ILE:369:CB:3235, V-A:LEU:475:CD1:4257, V-B:ALA:541:CA:9862, V-B:PRO:540:C:9853, V-A:ILE:369:CD1:3238, V-A:SER:385:CA:3406, V-B:TYR:539:CG:9844, V-B:TYR:539:CZ:9849, H-B:TYR:539:OH:9850, V-A:ASP:366:CA:3209, V-B:TYR:539:CB:9843, H-B:TYR:539:N:9842, H-A:SER:385:OG:3409, H-A:HIS:383:NE2:3393, V-A:HIS:383:CE1:3392, V-A:PRO:482:CD:4327"]

$$$$
2c_Ghoteimi_2023
     RDKit          3D

 72 77  0  0  0  0  0  0  0  0999 V2000
  125.7680  130.2540   60.1030 N   0  0  0  0  0  0  0  0  0  0  0  0
  126.1320  129.9130   61.1470 C   0  0  0  0  0  0  0  0  0  0  0  0
  126.5960  129.4760   62.4670 C   0  0  0  0  0  0  0  0  0  0  0  0
  127.0070  128.1370   62.6810 C   0  0  0  0  0  0  0  0  0  0  0  0
  127.0020  127.0860   61.6190 C   0  0  0  0  0  0  0  0  0  0  0  0
  126.4270  125.8380   61.8690 C   0  0  0  0  0  0  0  0  0  0  0  0
  126.4140  124.8550   60.8830 C   0  0  0  0  0  0  0  0  0  0  0  0
  126.9890  125.0870   59.6240 C   0  0  0  0  0  0  0  0  0  0  0  0
  126.9690  124.1220   58.6140 N   0  0  0  0  0  0  0  0  0  0  0  0
  127.9660  123.0340   58.6350 C   0  0  0  0  0  0  0  0  0  0  0  0
  128.0810  122.2860   57.2890 C   0  0  0  0  0  0  0  0  0  0  0  0
  126.8070  121.7990   56.8940 O   0  0  0  0  0  0  0  0  0  0  0  0
  125.8700  122.8520   56.7300 C   0  0  0  0  0  0  0  0  0  0  0  0
  125.6980  123.6150   58.0600 C   0  0  0  0  0  0  0  0  0  0  0  0
  127.5660  126.3420   59.3840 C   0  0  0  0  0  0  0  0  0  0  0  0
  127.5770  127.3250   60.3690 C   0  0  0  0  0  0  0  0  0  0  0  0
  127.4450  127.7700   63.9590 C   0  0  0  0  0  0  0  0  0  0  0  0
  127.4980  128.7150   64.9890 C   0  0  0  0  0  0  0  0  0  0  0  0
  127.9740  128.3770   66.3650 C   0  0  0  0  0  0  0  0  0  0  0  0
  128.1840  129.3820   67.3150 C   0  0  0  0  0  0  0  0  0  0  0  0
  128.6220  129.0740   68.6010 C   0  0  0  0  0  0  0  0  0  0  0  0
  128.8790  127.7470   68.9800 C   0  0  0  0  0  0  0  0  0  0  0  0
  129.2950  127.4170   70.2750 N   0  0  0  0  0  0  0  0  0  0  0  0
  129.7220  128.4840   71.2040 C   0  0  0  0  0  0  0  0  0  0  0  0
  130.5050  127.9620   72.4270 C   0  0  0  0  0  0  0  0  0  0  0  0
  129.7440  126.9770   73.1060 O   0  0  0  0  0  0  0  0  0  0  0  0
  129.4640  125.8670   72.2680 C   0  0  0  0  0  0  0  0  0  0  0  0
  128.6540  126.3250   71.0360 C   0  0  0  0  0  0  0  0  0  0  0  0
  128.6550  126.7420   68.0290 C   0  0  0  0  0  0  0  0  0  0  0  0
  128.2150  127.0510   66.7440 C   0  0  0  0  0  0  0  0  0  0  0  0
  127.1070  129.9980   64.7810 N   0  0  0  0  0  0  0  0  0  0  0  0
  126.6490  130.3690   63.5610 C   0  0  0  0  0  0  0  0  0  0  0  0
  126.1690  132.0800   63.4720 S   0  0  0  0  0  0  0  0  0  0  0  0
  126.7440  132.7240   61.8720 C   0  0  0  0  0  0  0  0  0  0  0  0
  126.0200  134.0130   61.4790 C   0  0  0  0  0  0  0  0  0  0  0  0
  124.8410  134.1670   61.8040 O   0  0  0  0  0  0  0  0  0  0  0  0
  126.7550  134.9050   60.7800 N   0  0  0  0  0  0  0  0  0  0  0  0
  126.3380  136.1470   60.3240 C   0  0  0  0  0  0  0  0  0  0  0  0
  127.0610  137.2350   60.1710 N   0  0  0  0  0  0  0  0  0  0  0  0
  126.3380  138.2360   59.7090 C   0  0  0  0  0  0  0  0  0  0  0  0
  124.9930  137.9670   59.4760 C   0  0  0  0  0  0  0  0  0  0  0  0
  124.6670  136.3100   59.8890 S   0  0  0  0  0  0  0  0  0  0  0  0
  125.9808  125.6300   62.8527 H   0  0  0  0  0  0  0  0  0  0  0  0
  125.9461  123.8821   61.0940 H   0  0  0  0  0  0  0  0  0  0  0  0
  128.9480  123.4648   58.8802 H   0  0  0  0  0  0  0  0  0  0  0  0
  127.6351  122.3028   59.3872 H   0  0  0  0  0  0  0  0  0  0  0  0
  128.4619  122.9749   56.5207 H   0  0  0  0  0  0  0  0  0  0  0  0
  128.7719  121.4379   57.4049 H   0  0  0  0  0  0  0  0  0  0  0  0
  126.2321  123.5450   55.9563 H   0  0  0  0  0  0  0  0  0  0  0  0
  124.9005  122.4297   56.4272 H   0  0  0  0  0  0  0  0  0  0  0  0
  125.0274  124.4697   57.8874 H   0  0  0  0  0  0  0  0  0  0  0  0
  125.2859  122.9040   58.7912 H   0  0  0  0  0  0  0  0  0  0  0  0
  128.0166  126.5527   58.4029 H   0  0  0  0  0  0  0  0  0  0  0  0
  128.0430  128.2995   60.1610 H   0  0  0  0  0  0  0  0  0  0  0  0
  127.7496  126.7313   64.1546 H   0  0  0  0  0  0  0  0  0  0  0  0
  128.0004  130.4318   67.0424 H   0  0  0  0  0  0  0  0  0  0  0  0
  128.7688  129.8835   69.3311 H   0  0  0  0  0  0  0  0  0  0  0  0
  130.3647  129.1872   70.6540 H   0  0  0  0  0  0  0  0  0  0  0  0
  128.8086  128.9631   71.5864 H   0  0  0  0  0  0  0  0  0  0  0  0
  131.4546  127.5205   72.0902 H   0  0  0  0  0  0  0  0  0  0  0  0
  130.7049  128.7993   73.1119 H   0  0  0  0  0  0  0  0  0  0  0  0
  130.4097  125.4150   71.9344 H   0  0  0  0  0  0  0  0  0  0  0  0
  128.8755  125.1286   72.8323 H   0  0  0  0  0  0  0  0  0  0  0  0
  128.5259  125.4630   70.3648 H   0  0  0  0  0  0  0  0  0  0  0  0
  127.6948  126.7136   71.4088 H   0  0  0  0  0  0  0  0  0  0  0  0
  128.8297  125.6909   68.3022 H   0  0  0  0  0  0  0  0  0  0  0  0
  128.0546  126.2416   66.0166 H   0  0  0  0  0  0  0  0  0  0  0  0
  127.8227  132.9288   61.9387 H   0  0  0  0  0  0  0  0  0  0  0  0
  126.5294  131.9663   61.1040 H   0  0  0  0  0  0  0  0  0  0  0  0
  127.7160  134.6660   60.5840 H   0  0  0  0  0  0  0  0  0  0  0  0
  126.7736  139.2279   59.5185 H   0  0  0  0  0  0  0  0  0  0  0  0
  124.2549  138.6867   59.0923 H   0  0  0  0  0  0  0  0  0  0  0  0
  1  2  3  0
  2  3  1  0
  3  4  2  0
  4  5  1  0
  5  6  2  0
  6  7  1  0
  7  8  2  0
  8  9  1  0
  9 10  1  0
 10 11  1  0
 11 12  1  0
 12 13  1  0
 13 14  1  0
  8 15  1  0
 15 16  2  0
  4 17  1  0
 17 18  2  0
 18 19  1  0
 19 20  2  0
 20 21  1  0
 21 22  2  0
 22 23  1  0
 23 24  1  0
 24 25  1  0
 25 26  1  0
 26 27  1  0
 27 28  1  0
 22 29  1  0
 29 30  2  0
 18 31  1  0
 31 32  2  0
 32 33  1  0
 33 34  1  0
 34 35  1  0
 35 36  2  0
 35 37  1  0
 37 38  1  0
 38 39  2  0
 39 40  1  0
 40 41  2  0
 41 42  1  0
 32  3  1  0
 42 38  1  0
 16  5  1  0
 30 19  1  0
 14  9  1  0
 28 23  1  0
  6 43  1  0
  7 44  1  0
 10 45  1  0
 10 46  1  0
 11 47  1  0
 11 48  1  0
 13 49  1  0
 13 50  1  0
 14 51  1  0
 14 52  1  0
 15 53  1  0
 16 54  1  0
 17 55  1  0
 20 56  1  0
 21 57  1  0
 24 58  1  0
 24 59  1  0
 25 60  1  0
 25 61  1  0
 27 62  1  0
 27 63  1  0
 28 64  1  0
 28 65  1  0
 29 66  1  0
 30 67  1  0
 34 68  1  0
 34 69  1  0
 37 70  1  0
 40 71  1  0
 41 72  1  0
M  END
>  <Binding energies>  (1) 
[-10.37]

>  <Ligand effiencies>  (1) 
[-0.2411627906976744]

>  <Interactions>  (1) 
["V-B:HIS:456:CD2:9039, V-A:GLU:543:C:4902, V-A:HIS:456:CD2:4067, V-A:HIS:456:CE1:4069, V-B:GLU:543:CD:9880, V-A:TYR:539:CD1:4873, V-B:ILE:369:CG2:8208, V-B:ASP:366:CG:8184, V-B:LEU:475:CD1:9229, V-A:ALA:541:CB:4892, V-A:GLU:543:CD:4908, V-A:GLU:543:CG:4907, V-A:TYR:539:CG:4872, V-B:PRO:540:CB:9857, V-B:TYR:539:CE2:9848, V-B:PRO:540:N:9856, V-B:PRO:540:CA:9855, V-B:MET:535:CE:9807, V-B:TYR:539:CD2:9846, V-B:TYR:539:C:9839, V-B:LEU:363:CD1:8160, V-B:GLU:543:CB:9878, V-A:GLU:543:CB:4906, V-B:HIS:456:CE1:9041, V-B:TYR:539:CG:9844, V-B:TYR:539:CZ:9849, V-B:TYR:484:CE2:9317, V-B:TYR:539:CE1:9847, V-B:TYR:539:CD1:9845, H-B:TYR:539:N:9842, H-A:TYR:539:O:4868, V-A:TYR:539:CB:4871, V-B:PRO:482:CG:9298, V-B:LEU:373:CD1:8251, H-B:SER:385:OG:8381, V-B:SER:385:CB:8380, V-A:VAL:344:CG1:3000"]

$$$$
2c_Grossjean_2025
     RDKit          3D

 40 41  0  0  0  0  0  0  0  0999 V2000
  125.0570  121.7620   55.4370 C   0  0  0  0  0  0  0  0  0  0  0  0
  126.4090  121.5560   55.8310 O   0  0  0  0  0  0  0  0  0  0  0  0
  126.8540  122.0990   57.0200 C   0  0  0  0  0  0  0  0  0  0  0  0
  128.2180  121.9820   57.2860 C   0  0  0  0  0  0  0  0  0  0  0  0
  128.7610  122.4970   58.4610 C   0  0  0  0  0  0  0  0  0  0  0  0
  127.9300  123.1320   59.3950 C   0  0  0  0  0  0  0  0  0  0  0  0
  128.3890  123.6990   60.5990 N   0  0  0  0  0  0  0  0  0  0  0  0
  128.0650  123.3620   61.8660 C   0  0  0  0  0  0  0  0  0  0  0  0
  127.2390  122.5010   62.1730 O   0  0  0  0  0  0  0  0  0  0  0  0
  128.7850  124.1730   62.9540 C   0  0  0  0  0  0  0  0  0  0  0  0
  129.9130  123.2180   64.0280 S   0  0  0  0  0  0  0  0  0  0  0  0
  130.8480  122.0640   63.0320 C   0  0  0  0  0  0  0  0  0  0  0  0
  130.1570  120.9880   62.5740 N   0  0  0  0  0  0  0  0  0  0  0  0
  130.8020  120.0700   61.8220 C   0  0  0  0  0  0  0  0  0  0  0  0
  129.9670  118.8900   61.3640 C   0  0  0  0  0  0  0  0  0  0  0  0
  132.1500  120.1850   61.4870 C   0  0  0  0  0  0  0  0  0  0  0  0
  132.8810  121.2910   61.9420 C   0  0  0  0  0  0  0  0  0  0  0  0
  134.3700  121.4060   61.5620 C   0  0  0  0  0  0  0  0  0  0  0  0
  135.0980  121.6810   62.6450 F   0  0  0  0  0  0  0  0  0  0  0  0
  134.7970  120.2590   61.0330 F   0  0  0  0  0  0  0  0  0  0  0  0
  134.6010  122.3710   60.6680 F   0  0  0  0  0  0  0  0  0  0  0  0
  132.2180  122.2610   62.7370 C   0  0  0  0  0  0  0  0  0  0  0  0
  132.9340  123.4370   63.2420 C   0  0  0  0  0  0  0  0  0  0  0  0
  133.4990  124.3660   63.6400 N   0  0  0  0  0  0  0  0  0  0  0  0
  126.5670  123.2670   59.1270 C   0  0  0  0  0  0  0  0  0  0  0  0
  126.0290  122.7510   57.9510 C   0  0  0  0  0  0  0  0  0  0  0  0
  124.4249  121.8583   56.3321 H   0  0  0  0  0  0  0  0  0  0  0  0
  124.9859  122.6813   54.8372 H   0  0  0  0  0  0  0  0  0  0  0  0
  124.7153  120.9056   54.8372 H   0  0  0  0  0  0  0  0  0  0  0  0
  128.8724  121.4774   56.5599 H   0  0  0  0  0  0  0  0  0  0  0  0
  129.8398  122.4057   58.6557 H   0  0  0  0  0  0  0  0  0  0  0  0
  128.9910  124.5010   60.4850 H   0  0  0  0  0  0  0  0  0  0  0  0
  129.3735  124.9587   62.4577 H   0  0  0  0  0  0  0  0  0  0  0  0
  127.9954  124.5614   63.6141 H   0  0  0  0  0  0  0  0  0  0  0  0
  129.5842  118.3490   62.2419 H   0  0  0  0  0  0  0  0  0  0  0  0
  129.1224  119.2513   60.7589 H   0  0  0  0  0  0  0  0  0  0  0  0
  130.5887  118.2137   60.7589 H   0  0  0  0  0  0  0  0  0  0  0  0
  132.6361  119.4143   60.8707 H   0  0  0  0  0  0  0  0  0  0  0  0
  125.9153  123.7830   59.8475 H   0  0  0  0  0  0  0  0  0  0  0  0
  124.9525  122.8545   57.7501 H   0  0  0  0  0  0  0  0  0  0  0  0
  1  2  1  0
  2  3  1  0
  3  4  2  0
  4  5  1  0
  5  6  2  0
  6  7  1  0
  7  8  1  0
  8  9  2  0
  8 10  1  0
 10 11  1  0
 11 12  1  0
 12 13  2  0
 13 14  1  0
 14 15  1  0
 14 16  2  0
 16 17  1  0
 17 18  1  0
 18 19  1  0
 18 20  1  0
 18 21  1  0
 17 22  2  0
 22 23  1  0
 23 24  3  0
  6 25  1  0
 25 26  2  0
 26  3  1  0
 22 12  1  0
  1 27  1  0
  1 28  1  0
  1 29  1  0
  4 30  1  0
  5 31  1  0
  7 32  1  0
 10 33  1  0
 10 34  1  0
 15 35  1  0
 15 36  1  0
 15 37  1  0
 16 38  1  0
 25 39  1  0
 26 40  1  0
M  END
>  <Binding energies>  (1) 
[-7.3]

>  <Ligand effiencies>  (1) 
[-0.27037037037037037]

>  <Interactions>  (1) 
["H-A:GLY:454:N:4049, V-B:GLU:543:CG:9879, H-B:ALA:541:N:9863, V-B:GLU:543:CD:9880, V-B:ALA:541:CB:9864, V-A:GLY:453:C:4041, V-A:PRO:482:CG:4326, V-B:PRO:540:CB:9857, V-B:TYR:539:CE2:9848, V-B:PRO:540:CD:9859, V-B:PRO:540:N:9856, V-B:PRO:540:CA:9855, V-B:MET:535:CE:9807, V-B:TYR:539:CA:9841, V-B:TYR:539:CD2:9846, V-A:PRO:482:CB:4325, V-B:TYR:539:C:9839, V-B:LEU:363:CD1:8160, V-A:GLY:454:CA:4048, V-A:ILE:369:CG1:3237, V-A:ILE:369:CG2:3236, V-A:ILE:369:CB:3235, V-A:LEU:475:CD1:4257, V-B:ALA:541:CA:9862, V-B:PRO:540:C:9853, V-A:SER:385:C:3404, V-A:ILE:369:CD1:3238, V-A:SER:385:CA:3406, V-B:TYR:539:CG:9844, V-B:TYR:539:CZ:9849, V-B:TYR:539:CE1:9847, V-B:TYR:539:CD1:9845, V-B:ILE:538:CG2:9835, H-B:TYR:539:N:9842, V-B:ILE:538:CA:9832, V-B:ILE:538:CB:9834, V-B:ILE:538:CG1:9836"]

$$$$
2d_Ghoteimi_2023
     RDKit          3D

 68 72  0  0  0  0  0  0  0  0999 V2000
  128.3770  126.7860   68.4200 C   0  0  0  0  0  0  0  0  0  0  0  0
  129.0770  127.8650   67.8200 O   0  0  0  0  0  0  0  0  0  0  0  0
  128.6260  129.1300   67.9470 C   0  0  0  0  0  0  0  0  0  0  0  0
  128.5890  129.7760   68.9980 O   0  0  0  0  0  0  0  0  0  0  0  0
  128.1580  129.6930   66.5960 C   0  0  0  0  0  0  0  0  0  0  0  0
  127.1450  128.4750   65.6880 S   0  0  0  0  0  0  0  0  0  0  0  0
  126.8700  129.0930   64.0400 C   0  0  0  0  0  0  0  0  0  0  0  0
  126.8270  128.1150   63.1030 N   0  0  0  0  0  0  0  0  0  0  0  0
  126.6310  128.4420   61.8000 C   0  0  0  0  0  0  0  0  0  0  0  0
  126.6130  127.3130   60.8220 C   0  0  0  0  0  0  0  0  0  0  0  0
  126.9290  126.0120   61.2300 C   0  0  0  0  0  0  0  0  0  0  0  0
  126.9150  124.9550   60.3230 C   0  0  0  0  0  0  0  0  0  0  0  0
  126.5730  125.1590   58.9780 C   0  0  0  0  0  0  0  0  0  0  0  0
  126.5720  124.1110   58.0500 N   0  0  0  0  0  0  0  0  0  0  0  0
  127.4730  122.9510   58.1950 C   0  0  0  0  0  0  0  0  0  0  0  0
  127.5990  122.1020   56.9130 C   0  0  0  0  0  0  0  0  0  0  0  0
  126.3120  121.6910   56.4760 O   0  0  0  0  0  0  0  0  0  0  0  0
  125.4830  122.8030   56.1810 C   0  0  0  0  0  0  0  0  0  0  0  0
  125.2990  123.6770   57.4400 C   0  0  0  0  0  0  0  0  0  0  0  0
  126.2710  126.4660   58.5710 C   0  0  0  0  0  0  0  0  0  0  0  0
  126.2870  127.5230   59.4760 C   0  0  0  0  0  0  0  0  0  0  0  0
  126.4670  129.7740   61.4090 C   0  0  0  0  0  0  0  0  0  0  0  0
  126.4730  130.8000   62.3610 C   0  0  0  0  0  0  0  0  0  0  0  0
  126.2640  132.1960   61.8730 C   0  0  0  0  0  0  0  0  0  0  0  0
  124.9810  132.6430   61.5520 C   0  0  0  0  0  0  0  0  0  0  0  0
  124.7730  133.9450   61.1080 C   0  0  0  0  0  0  0  0  0  0  0  0
  125.8470  134.8400   60.9700 C   0  0  0  0  0  0  0  0  0  0  0  0
  125.6610  136.1560   60.5390 N   0  0  0  0  0  0  0  0  0  0  0  0
  124.4140  136.5770   59.8700 C   0  0  0  0  0  0  0  0  0  0  0  0
  124.2430  138.1090   59.7950 C   0  0  0  0  0  0  0  0  0  0  0  0
  125.3760  138.6940   59.1710 O   0  0  0  0  0  0  0  0  0  0  0  0
  126.5700  138.4180   59.8870 C   0  0  0  0  0  0  0  0  0  0  0  0
  126.8010  136.8930   59.9610 C   0  0  0  0  0  0  0  0  0  0  0  0
  127.1290  134.3880   61.3120 C   0  0  0  0  0  0  0  0  0  0  0  0
  127.3360  133.0860   61.7570 C   0  0  0  0  0  0  0  0  0  0  0  0
  126.6750  130.4570   63.7220 C   0  0  0  0  0  0  0  0  0  0  0  0
  126.6710  131.4930   64.7580 C   0  0  0  0  0  0  0  0  0  0  0  0
  126.6670  132.3150   65.5740 N   0  0  0  0  0  0  0  0  0  0  0  0
  128.4348  126.8751   69.5149 H   0  0  0  0  0  0  0  0  0  0  0  0
  127.3234  126.8121   68.1051 H   0  0  0  0  0  0  0  0  0  0  0  0
  128.8303  125.8345   68.1051 H   0  0  0  0  0  0  0  0  0  0  0  0
  127.5581  130.5979   66.7729 H   0  0  0  0  0  0  0  0  0  0  0  0
  129.0457  129.9282   65.9904 H   0  0  0  0  0  0  0  0  0  0  0  0
  127.1919  125.8217   62.2810 H   0  0  0  0  0  0  0  0  0  0  0  0
  127.1765  123.9435   60.6672 H   0  0  0  0  0  0  0  0  0  0  0  0
  128.4730  123.3194   58.4676 H   0  0  0  0  0  0  0  0  0  0  0  0
  127.0403  122.3017   58.9703 H   0  0  0  0  0  0  0  0  0  0  0  0
  128.0776  122.7013   56.1244 H   0  0  0  0  0  0  0  0  0  0  0  0
  128.2096  121.2124   57.1268 H   0  0  0  0  0  0  0  0  0  0  0  0
  125.9494  123.4037   55.3862 H   0  0  0  0  0  0  0  0  0  0  0  0
  124.4994  122.4402   55.8480 H   0  0  0  0  0  0  0  0  0  0  0  0
  124.7242  124.5723   57.1608 H   0  0  0  0  0  0  0  0  0  0  0  0
  124.7771  123.0607   58.1869 H   0  0  0  0  0  0  0  0  0  0  0  0
  126.0170  126.6594   57.5183 H   0  0  0  0  0  0  0  0  0  0  0  0
  126.0402  128.5374   59.1296 H   0  0  0  0  0  0  0  0  0  0  0  0
  126.3322  130.0177   60.3448 H   0  0  0  0  0  0  0  0  0  0  0  0
  124.1256  131.9586   61.6512 H   0  0  0  0  0  0  0  0  0  0  0  0
  123.7540  134.2781   60.8617 H   0  0  0  0  0  0  0  0  0  0  0  0
  124.4160  136.1763   58.8456 H   0  0  0  0  0  0  0  0  0  0  0  0
  123.5778  136.1869   60.4688 H   0  0  0  0  0  0  0  0  0  0  0  0
  123.3419  138.3468   59.2106 H   0  0  0  0  0  0  0  0  0  0  0  0
  124.1438  138.5116   60.8139 H   0  0  0  0  0  0  0  0  0  0  0  0
  127.4202  138.8907   59.3735 H   0  0  0  0  0  0  0  0  0  0  0  0
  126.4802  138.8195   60.9072 H   0  0  0  0  0  0  0  0  0  0  0  0
  126.9790  136.5173   58.9426 H   0  0  0  0  0  0  0  0  0  0  0  0
  127.6645  136.7266   60.6219 H   0  0  0  0  0  0  0  0  0  0  0  0
  127.9851  135.0735   61.2272 H   0  0  0  0  0  0  0  0  0  0  0  0
  128.3513  132.7542   62.0197 H   0  0  0  0  0  0  0  0  0  0  0  0
  1  2  1  0
  2  3  1  0
  3  4  2  0
  3  5  1  0
  5  6  1  0
  6  7  1  0
  7  8  2  0
  8  9  1  0
  9 10  1  0
 10 11  2  0
 11 12  1  0
 12 13  2  0
 13 14  1  0
 14 15  1  0
 15 16  1  0
 16 17  1  0
 17 18  1  0
 18 19  1  0
 13 20  1  0
 20 21  2  0
  9 22  2  0
 22 23  1  0
 23 24  1  0
 24 25  2  0
 25 26  1  0
 26 27  2  0
 27 28  1  0
 28 29  1  0
 29 30  1  0
 30 31  1  0
 31 32  1  0
 32 33  1  0
 27 34  1  0
 34 35  2  0
 23 36  2  0
 36 37  1  0
 37 38  3  0
 36  7  1  0
 21 10  1  0
 35 24  1  0
 19 14  1  0
 33 28  1  0
  1 39  1  0
  1 40  1  0
  1 41  1  0
  5 42  1  0
  5 43  1  0
 11 44  1  0
 12 45  1  0
 15 46  1  0
 15 47  1  0
 16 48  1  0
 16 49  1  0
 18 50  1  0
 18 51  1  0
 19 52  1  0
 19 53  1  0
 20 54  1  0
 21 55  1  0
 22 56  1  0
 25 57  1  0
 26 58  1  0
 29 59  1  0
 29 60  1  0
 30 61  1  0
 30 62  1  0
 32 63  1  0
 32 64  1  0
 33 65  1  0
 33 66  1  0
 34 67  1  0
 35 68  1  0
M  END
>  <Binding energies>  (1) 
[-9.35]

>  <Ligand effiencies>  (1) 
[-0.24605263157894736]

>  <Interactions>  (1) 
["V-A:TYR:539:CD1:4873, V-B:ILE:369:CG2:8208, V-B:ASP:366:CG:8184, V-B:LEU:475:CD1:9229, V-A:ALA:541:CB:4892, V-B:ASP:366:CB:8183, V-A:TYR:539:C:4867, V-A:GLU:543:CD:4908, V-A:GLU:543:CG:4907, V-A:TYR:539:CG:4872, V-B:PRO:540:N:9856, V-B:PRO:540:CA:9855, V-B:MET:535:CE:9807, V-B:TYR:539:CA:9841, V-B:TYR:531:CE2:9765, V-B:TYR:539:C:9839, H-B:ARG:545:NH2:9900, V-B:LEU:363:CD1:8160, V-A:GLU:543:CA:4904, V-B:GLU:543:CB:9878, V-A:GLU:543:CB:4906, V-B:HIS:456:CE1:9041, V-B:TYR:539:CG:9844, V-B:TYR:484:CE2:9317, V-B:TYR:539:CE1:9847, V-B:TYR:539:CD1:9845, H-B:TYR:539:N:9842, V-A:TYR:539:CB:4871, V-B:PRO:482:CG:9298, V-B:LEU:373:CD1:8251, V-B:SER:385:CB:8380, V-B:VAL:384:C:8368, V-A:VAL:344:CG1:3000, V-B:SER:385:CA:8378, V-B:LEU:373:CD2:8252, H-B:TYR:484:OH:9319, V-A:TYR:539:CA:4869"]

$$$$
2d_Grossjean_2025
     RDKit          3D

 36 37  0  0  0  0  0  0  0  0999 V2000
  129.3450  122.3790   62.6270 C   0  0  0  0  0  0  0  0  0  0  0  0
  130.3870  121.4370   62.0530 C   0  0  0  0  0  0  0  0  0  0  0  0
  130.0370  120.1910   61.5360 C   0  0  0  0  0  0  0  0  0  0  0  0
  131.0360  119.3580   61.0120 C   0  0  0  0  0  0  0  0  0  0  0  0
  130.6300  117.9870   60.4360 C   0  0  0  0  0  0  0  0  0  0  0  0
  129.3270  117.7800   60.6270 F   0  0  0  0  0  0  0  0  0  0  0  0
  130.8850  117.9480   59.1270 F   0  0  0  0  0  0  0  0  0  0  0  0
  131.2850  116.9730   61.0030 F   0  0  0  0  0  0  0  0  0  0  0  0
  132.3790  119.8130   61.0330 C   0  0  0  0  0  0  0  0  0  0  0  0
  133.4530  119.0000   60.4550 C   0  0  0  0  0  0  0  0  0  0  0  0
  134.3000  118.3580   59.9980 N   0  0  0  0  0  0  0  0  0  0  0  0
  132.6430  121.0820   61.6000 C   0  0  0  0  0  0  0  0  0  0  0  0
  134.2720  121.7930   61.7360 S   0  0  0  0  0  0  0  0  0  0  0  0
  134.1600  123.5820   61.4050 C   0  0  0  0  0  0  0  0  0  0  0  0
  134.0480  124.4220   62.6810 C   0  0  0  0  0  0  0  0  0  0  0  0
  134.9960  125.1340   63.0140 O   0  0  0  0  0  0  0  0  0  0  0  0
  132.8970  124.2830   63.3720 N   0  0  0  0  0  0  0  0  0  0  0  0
  132.4950  124.9130   64.5650 C   0  0  0  0  0  0  0  0  0  0  0  0
  133.5140  125.2180   65.4700 C   0  0  0  0  0  0  0  0  0  0  0  0
  133.2150  125.8360   66.6810 C   0  0  0  0  0  0  0  0  0  0  0  0
  131.8920  126.1420   66.9910 C   0  0  0  0  0  0  0  0  0  0  0  0
  130.8660  125.8310   66.1030 C   0  0  0  0  0  0  0  0  0  0  0  0
  131.1620  125.2140   64.8910 C   0  0  0  0  0  0  0  0  0  0  0  0
  131.6630  121.8840   62.0830 N   0  0  0  0  0  0  0  0  0  0  0  0
  129.3842  122.3435   63.7257 H   0  0  0  0  0  0  0  0  0  0  0  0
  129.5500  123.4044   62.2857 H   0  0  0  0  0  0  0  0  0  0  0  0
  128.3454  122.0719   62.2857 H   0  0  0  0  0  0  0  0  0  0  0  0
  128.9867  119.8640   61.5389 H   0  0  0  0  0  0  0  0  0  0  0  0
  135.0619  123.8942   60.8581 H   0  0  0  0  0  0  0  0  0  0  0  0
  133.2446  123.7510   60.8190 H   0  0  0  0  0  0  0  0  0  0  0  0
  132.2460  123.5930   63.0240 H   0  0  0  0  0  0  0  0  0  0  0  0
  134.5570  124.9689   65.2249 H   0  0  0  0  0  0  0  0  0  0  0  0
  134.0197  126.0815   67.3897 H   0  0  0  0  0  0  0  0  0  0  0  0
  131.6558  126.6339   67.9461 H   0  0  0  0  0  0  0  0  0  0  0  0
  129.8237  126.0723   66.3586 H   0  0  0  0  0  0  0  0  0  0  0  0
  130.3532  124.9623   64.1892 H   0  0  0  0  0  0  0  0  0  0  0  0
  1  2  1  0
  2  3  2  0
  3  4  1  0
  4  5  1  0
  5  6  1  0
  5  7  1  0
  5  8  1  0
  4  9  2  0
  9 10  1  0
 10 11  3  0
  9 12  1  0
 12 13  1  0
 13 14  1  0
 14 15  1  0
 15 16  2  0
 15 17  1  0
 17 18  1  0
 18 19  2  0
 19 20  1  0
 20 21  2  0
 21 22  1  0
 22 23  2  0
 12 24  2  0
 24  2  1  0
 23 18  1  0
  1 25  1  0
  1 26  1  0
  1 27  1  0
  3 28  1  0
 14 29  1  0
 14 30  1  0
 17 31  1  0
 19 32  1  0
 20 33  1  0
 21 34  1  0
 22 35  1  0
 23 36  1  0
M  END
>  <Binding energies>  (1) 
[-6.68]

>  <Ligand effiencies>  (1) 
[-0.2672]

>  <Interactions>  (1) 
["V-A:HIS:456:CE1:4069, H-A:GLY:454:N:4049, H-A:ARG:545:NH2:4928, V-A:ARG:545:CZ:4926, V-B:ALA:541:CB:9864, V-A:GLY:453:C:4041, V-A:ARG:545:CD:4923, V-A:ARG:545:CG:4922, V-A:GLY:453:CA:4043, V-A:PRO:482:CG:4326, V-B:TYR:539:CE2:9848, V-B:PRO:540:N:9856, V-B:TYR:539:CA:9841, V-B:TYR:539:CD2:9846, V-A:PRO:482:CB:4325, V-B:TYR:539:C:9839, V-A:ILE:369:CG2:3236, V-A:LEU:475:CD1:4257, V-B:ALA:541:CA:9862, V-B:PRO:540:C:9853, V-A:ILE:369:CD1:3238, V-A:SER:385:CA:3406, V-B:TYR:539:CG:9844, V-B:TYR:539:CB:9843, H-A:ARG:545:NH1:4927, H-A:SER:385:OG:3409, H-A:HIS:383:NE2:3393, V-A:HIS:383:CE1:3392, V-A:PRO:482:CD:4327"]

$$$$
2e_Grossjean_2025
     RDKit          3D

 38 39  0  0  0  0  0  0  0  0999 V2000
  134.2400  125.5910   67.7500 C   0  0  0  0  0  0  0  0  0  0  0  0
  133.1520  125.4890   66.6980 C   0  0  0  0  0  0  0  0  0  0  0  0
  131.8810  126.0320   66.9040 C   0  0  0  0  0  0  0  0  0  0  0  0
  130.9340  125.9100   65.8870 C   0  0  0  0  0  0  0  0  0  0  0  0
  131.2750  125.2560   64.7000 C   0  0  0  0  0  0  0  0  0  0  0  0
  132.5640  124.7270   64.5630 C   0  0  0  0  0  0  0  0  0  0  0  0
  132.8670  124.1180   63.3330 N   0  0  0  0  0  0  0  0  0  0  0  0
  133.9720  124.2810   62.5720 C   0  0  0  0  0  0  0  0  0  0  0  0
  134.9520  124.9590   62.8860 O   0  0  0  0  0  0  0  0  0  0  0  0
  133.9480  123.5900   61.2050 C   0  0  0  0  0  0  0  0  0  0  0  0
  134.2600  121.8000   61.3380 S   0  0  0  0  0  0  0  0  0  0  0  0
  132.6570  121.0320   61.2750 C   0  0  0  0  0  0  0  0  0  0  0  0
  131.6500  121.7810   61.7900 N   0  0  0  0  0  0  0  0  0  0  0  0
  130.4050  121.2540   61.8230 C   0  0  0  0  0  0  0  0  0  0  0  0
  129.3280  122.1440   62.4110 C   0  0  0  0  0  0  0  0  0  0  0  0
  130.1170  119.9730   61.3540 C   0  0  0  0  0  0  0  0  0  0  0  0
  131.1490  119.1830   60.8260 C   0  0  0  0  0  0  0  0  0  0  0  0
  130.8190  117.7620   60.3320 C   0  0  0  0  0  0  0  0  0  0  0  0
  131.2200  117.6120   59.0690 F   0  0  0  0  0  0  0  0  0  0  0  0
  131.4390  116.8590   61.0930 F   0  0  0  0  0  0  0  0  0  0  0  0
  129.5120  117.4930   60.3730 F   0  0  0  0  0  0  0  0  0  0  0  0
  132.4580  119.7220   60.7800 C   0  0  0  0  0  0  0  0  0  0  0  0
  133.5850  118.9360   60.2680 C   0  0  0  0  0  0  0  0  0  0  0  0
  134.4740  118.3140   59.8640 N   0  0  0  0  0  0  0  0  0  0  0  0
  133.4980  124.8490   65.5510 N   0  0  0  0  0  0  0  0  0  0  0  0
  133.7869  125.5485   68.7514 H   0  0  0  0  0  0  0  0  0  0  0  0
  134.9449  124.7550   67.6307 H   0  0  0  0  0  0  0  0  0  0  0  0
  134.7772  126.5434   67.6307 H   0  0  0  0  0  0  0  0  0  0  0  0
  131.6331  126.5435   67.8458 H   0  0  0  0  0  0  0  0  0  0  0  0
  129.9244  126.3263   66.0187 H   0  0  0  0  0  0  0  0  0  0  0  0
  130.5419  125.1583   63.8858 H   0  0  0  0  0  0  0  0  0  0  0  0
  132.1830  123.4500   63.0090 H   0  0  0  0  0  0  0  0  0  0  0  0
  132.9603  123.7450   60.7463 H   0  0  0  0  0  0  0  0  0  0  0  0
  134.7468  124.0288   60.5890 H   0  0  0  0  0  0  0  0  0  0  0  0
  129.3776  122.1030   63.5091 H   0  0  0  0  0  0  0  0  0  0  0  0
  129.4846  123.1798   62.0753 H   0  0  0  0  0  0  0  0  0  0  0  0
  128.3403  121.7951   62.0753 H   0  0  0  0  0  0  0  0  0  0  0  0
  129.0887  119.5849   61.3977 H   0  0  0  0  0  0  0  0  0  0  0  0
  1  2  1  0
  2  3  2  0
  3  4  1  0
  4  5  2  0
  5  6  1  0
  6  7  1  0
  7  8  1  0
  8  9  2  0
  8 10  1  0
 10 11  1  0
 11 12  1  0
 12 13  2  0
 13 14  1  0
 14 15  1  0
 14 16  2  0
 16 17  1  0
 17 18  1  0
 18 19  1  0
 18 20  1  0
 18 21  1  0
 17 22  2  0
 22 23  1  0
 23 24  3  0
  6 25  2  0
 25  2  1  0
 22 12  1  0
  1 26  1  0
  1 27  1  0
  1 28  1  0
  3 29  1  0
  4 30  1  0
  5 31  1  0
  7 32  1  0
 10 33  1  0
 10 34  1  0
 15 35  1  0
 15 36  1  0
 15 37  1  0
 16 38  1  0
M  END
>  <Binding energies>  (1) 
[-6.98]

>  <Ligand effiencies>  (1) 
[-0.2684615384615385]

>  <Interactions>  (1) 
["V-A:HIS:456:CE1:4069, H-A:GLY:454:N:4049, H-A:ARG:545:NH2:4928, V-A:TYR:484:CZ:4346, V-A:ILE:455:C:4051, H-A:TYR:484:OH:4347, V-B:ALA:541:CB:9864, V-A:GLY:453:C:4041, V-A:ARG:545:CD:4923, V-A:ARG:545:CG:4922, V-A:GLY:453:CA:4043, V-A:PRO:482:CG:4326, V-B:TYR:539:CA:9841, V-B:TYR:539:CD2:9846, V-A:PRO:482:CB:4325, V-B:TYR:539:C:9839, V-A:ILE:369:CG2:3236, V-A:LEU:475:CD1:4257, V-B:PRO:540:C:9853, V-A:ILE:369:CD1:3238, V-A:SER:385:CA:3406, V-B:TYR:539:CG:9844, V-B:TYR:539:CB:9843, V-A:ARG:545:CB:4921, H-A:ARG:545:NH1:4927, V-A:HIS:383:CD2:3391, H-A:SER:385:OG:3409, H-A:HIS:383:NE2:3393, V-A:HIS:383:CE1:3392, V-B:VAL:344:CG1:7972, V-A:PRO:482:CD:4327"]

$$$$
2f_Grossjean_2025
     RDKit          3D

 35 36  0  0  0  0  0  0  0  0999 V2000
  129.1130  122.4860   62.3880 C   0  0  0  0  0  0  0  0  0  0  0  0
  130.1920  121.5510   61.8760 C   0  0  0  0  0  0  0  0  0  0  0  0
  129.8960  120.2610   61.4430 C   0  0  0  0  0  0  0  0  0  0  0  0
  130.9310  119.4310   60.9860 C   0  0  0  0  0  0  0  0  0  0  0  0
  130.5840  118.0030   60.5230 C   0  0  0  0  0  0  0  0  0  0  0  0
  130.8880  117.8530   59.2320 F   0  0  0  0  0  0  0  0  0  0  0  0
  131.2750  117.1140   61.2360 F   0  0  0  0  0  0  0  0  0  0  0  0
  129.2890  117.7140   60.6640 F   0  0  0  0  0  0  0  0  0  0  0  0
  132.2540  119.9420   60.9730 C   0  0  0  0  0  0  0  0  0  0  0  0
  133.3760  119.0960   60.5580 C   0  0  0  0  0  0  0  0  0  0  0  0
  134.2620  118.4280   60.2300 N   0  0  0  0  0  0  0  0  0  0  0  0
  132.4570  121.2740   61.4070 C   0  0  0  0  0  0  0  0  0  0  0  0
  134.0450  122.0810   61.4470 S   0  0  0  0  0  0  0  0  0  0  0  0
  133.7650  123.8840   61.4240 C   0  0  0  0  0  0  0  0  0  0  0  0
  133.6510  124.5420   62.8070 C   0  0  0  0  0  0  0  0  0  0  0  0
  134.6330  125.0600   63.3400 O   0  0  0  0  0  0  0  0  0  0  0  0
  132.4190  124.4780   63.3570 N   0  0  0  0  0  0  0  0  0  0  0  0
  131.9630  124.9800   64.5910 C   0  0  0  0  0  0  0  0  0  0  0  0
  132.7260  125.7440   65.4940 C   0  0  0  0  0  0  0  0  0  0  0  0
  132.1480  126.1850   66.6860 C   0  0  0  0  0  0  0  0  0  0  0  0
  130.8170  125.8560   66.9440 C   0  0  0  0  0  0  0  0  0  0  0  0
  130.0580  125.1280   66.0870 N   0  0  0  0  0  0  0  0  0  0  0  0
  130.6340  124.7070   64.9320 C   0  0  0  0  0  0  0  0  0  0  0  0
  131.4480  122.0530   61.8660 N   0  0  0  0  0  0  0  0  0  0  0  0
  129.1167  122.4828   63.4880 H   0  0  0  0  0  0  0  0  0  0  0  0
  129.3081  123.5054   62.0237 H   0  0  0  0  0  0  0  0  0  0  0  0
  128.1317  122.1479   62.0237 H   0  0  0  0  0  0  0  0  0  0  0  0
  128.8587  119.8954   61.4591 H   0  0  0  0  0  0  0  0  0  0  0  0
  134.6056  124.3529   60.8915 H   0  0  0  0  0  0  0  0  0  0  0  0
  132.7942  124.0375   60.9301 H   0  0  0  0  0  0  0  0  0  0  0  0
  131.7210  123.9700   62.8320 H   0  0  0  0  0  0  0  0  0  0  0  0
  133.7721  125.9923   65.2618 H   0  0  0  0  0  0  0  0  0  0  0  0
  132.7296  126.7791   67.4063 H   0  0  0  0  0  0  0  0  0  0  0  0
  130.3628  126.2023   67.8841 H   0  0  0  0  0  0  0  0  0  0  0  0
  130.0245  124.1212   64.2282 H   0  0  0  0  0  0  0  0  0  0  0  0
  1  2  1  0
  2  3  2  0
  3  4  1  0
  4  5  1  0
  5  6  1  0
  5  7  1  0
  5  8  1  0
  4  9  2  0
  9 10  1  0
 10 11  3  0
  9 12  1  0
 12 13  1  0
 13 14  1  0
 14 15  1  0
 15 16  2  0
 15 17  1  0
 17 18  1  0
 18 19  2  0
 19 20  1  0
 20 21  2  0
 21 22  1  0
 22 23  2  0
 12 24  2  0
 24  2  1  0
 23 18  1  0
  1 25  1  0
  1 26  1  0
  1 27  1  0
  3 28  1  0
 14 29  1  0
 14 30  1  0
 17 31  1  0
 19 32  1  0
 20 33  1  0
 21 34  1  0
 23 35  1  0
M  END
>  <Binding energies>  (1) 
[-6.35]

>  <Ligand effiencies>  (1) 
[-0.254]

>  <Interactions>  (1) 
["V-A:HIS:456:CE1:4069, H-A:GLY:454:N:4049, H-A:ARG:545:NH2:4928, V-A:TYR:484:CZ:4346, V-A:ARG:545:CZ:4926, V-A:ASP:366:CG:3212, H-A:TYR:484:OH:4347, V-B:ALA:541:CB:9864, V-A:ARG:545:CG:4922, V-A:PRO:482:CG:4326, V-B:PRO:540:N:9856, V-B:TYR:539:CA:9841, V-B:TYR:539:CD2:9846, V-A:PRO:482:CB:4325, V-B:TYR:539:C:9839, V-A:ILE:369:CG2:3236, V-A:LEU:475:CD1:4257, V-B:ALA:541:CA:9862, V-B:PRO:540:C:9853, V-A:SER:385:CA:3406, V-B:TYR:539:CG:9844, V-B:TYR:539:CB:9843, H-A:ARG:545:NH1:4927, H-A:SER:385:OG:3409, H-A:HIS:383:NE2:3393, V-A:HIS:383:CE1:3392, V-A:PRO:482:CD:4327"]

$$$$
2g_Grossjean_2025
     RDKit          3D

 39 40  0  0  0  0  0  0  0  0999 V2000
  125.7880  129.6270   58.2010 C   0  0  0  0  0  0  0  0  0  0  0  0
  126.9140  128.8240   57.5790 C   0  0  0  0  0  0  0  0  0  0  0  0
  127.2040  127.5280   57.9990 C   0  0  0  0  0  0  0  0  0  0  0  0
  128.2610  126.8280   57.3970 C   0  0  0  0  0  0  0  0  0  0  0  0
  128.5730  125.3990   57.8820 C   0  0  0  0  0  0  0  0  0  0  0  0
  127.7700  125.0680   58.8940 F   0  0  0  0  0  0  0  0  0  0  0  0
  128.3890  124.5330   56.8840 F   0  0  0  0  0  0  0  0  0  0  0  0
  129.8300  125.2610   58.3080 F   0  0  0  0  0  0  0  0  0  0  0  0
  128.9980  127.4670   56.3670 C   0  0  0  0  0  0  0  0  0  0  0  0
  130.1470  126.8020   55.7450 C   0  0  0  0  0  0  0  0  0  0  0  0
  131.0540  126.2770   55.2550 N   0  0  0  0  0  0  0  0  0  0  0  0
  128.6120  128.7740   55.9850 C   0  0  0  0  0  0  0  0  0  0  0  0
  129.4100  129.7090   54.6970 S   0  0  0  0  0  0  0  0  0  0  0  0
  129.1220  131.4780   55.0460 C   0  0  0  0  0  0  0  0  0  0  0  0
  129.7060  131.9730   56.3760 C   0  0  0  0  0  0  0  0  0  0  0  0
  130.4950  132.9180   56.4190 O   0  0  0  0  0  0  0  0  0  0  0  0
  129.3000  131.3030   57.4700 N   0  0  0  0  0  0  0  0  0  0  0  0
  129.7100  131.5930   58.8450 C   0  0  0  0  0  0  0  0  0  0  0  0
  131.1690  131.2700   59.1480 C   0  0  0  0  0  0  0  0  0  0  0  0
  132.0420  130.9530   58.1030 C   0  0  0  0  0  0  0  0  0  0  0  0
  133.3840  130.6940   58.3730 C   0  0  0  0  0  0  0  0  0  0  0  0
  133.8500  130.7640   59.6830 C   0  0  0  0  0  0  0  0  0  0  0  0
  132.9870  131.0920   60.7270 C   0  0  0  0  0  0  0  0  0  0  0  0
  131.6460  131.3510   60.4590 C   0  0  0  0  0  0  0  0  0  0  0  0
  127.6020  129.4440   56.5940 N   0  0  0  0  0  0  0  0  0  0  0  0
  125.8621  129.5742   59.2972 H   0  0  0  0  0  0  0  0  0  0  0  0
  125.8641  130.6759   57.8785 H   0  0  0  0  0  0  0  0  0  0  0  0
  124.8211  129.2134   57.8785 H   0  0  0  0  0  0  0  0  0  0  0  0
  126.6096  127.0571   58.7958 H   0  0  0  0  0  0  0  0  0  0  0  0
  129.5743  132.0655   54.2335 H   0  0  0  0  0  0  0  0  0  0  0  0
  128.0320  131.6067   55.1185 H   0  0  0  0  0  0  0  0  0  0  0  0
  128.6310  130.5550   57.3550 H   0  0  0  0  0  0  0  0  0  0  0  0
  129.5484  132.6646   59.0336 H   0  0  0  0  0  0  0  0  0  0  0  0
  129.1033  130.9470   59.4966 H   0  0  0  0  0  0  0  0  0  0  0  0
  131.6697  130.9081   57.0689 H   0  0  0  0  0  0  0  0  0  0  0  0
  134.0723  130.4354   57.5548 H   0  0  0  0  0  0  0  0  0  0  0  0
  134.9094  130.5585   59.8961 H   0  0  0  0  0  0  0  0  0  0  0  0
  133.3642  131.1460   61.7589 H   0  0  0  0  0  0  0  0  0  0  0  0
  130.9625  131.6191   61.2781 H   0  0  0  0  0  0  0  0  0  0  0  0
  1  2  1  0
  2  3  2  0
  3  4  1  0
  4  5  1  0
  5  6  1  0
  5  7  1  0
  5  8  1  0
  4  9  2  0
  9 10  1  0
 10 11  3  0
  9 12  1  0
 12 13  1  0
 13 14  1  0
 14 15  1  0
 15 16  2  0
 15 17  1  0
 17 18  1  0
 18 19  1  0
 19 20  2  0
 20 21  1  0
 21 22  2  0
 22 23  1  0
 23 24  2  0
 12 25  2  0
 25  2  1  0
 24 19  1  0
  1 26  1  0
  1 27  1  0
  1 28  1  0
  3 29  1  0
 14 30  1  0
 14 31  1  0
 17 32  1  0
 18 33  1  0
 18 34  1  0
 20 35  1  0
 21 36  1  0
 22 37  1  0
 23 38  1  0
 24 39  1  0
M  END
>  <Binding energies>  (1) 
[-6.48]

>  <Ligand effiencies>  (1) 
[-0.24923076923076926]

>  <Interactions>  (1) 
["V-A:ASP:366:CG:3212, V-A:TYR:539:CD1:4873, V-A:PRO:540:CB:4885, V-A:LEU:363:CD1:3188, V-A:PRO:540:N:4884, V-A:TYR:539:CE1:4875, V-A:PRO:540:CA:4883, H-B:TYR:531:OH:9767, V-A:TYR:539:C:4867, V-B:MET:535:CE:9807, V-A:ASP:366:CB:3211, H-B:TYR:539:OH:9850, H-A:TYR:531:OH:4795, V-A:PRO:540:C:4881, V-A:LEU:363:CA:3184, V-A:ASN:362:CB:3175, V-A:ASN:362:C:3171, V-A:LEU:363:CB:3186, H-A:TYR:539:N:4870"]

$$$$
2h_Grossjean_2025
     RDKit          3D

 51 52  0  0  0  0  0  0  0  0999 V2000
  125.2460  121.7430   55.4840 C   0  0  0  0  0  0  0  0  0  0  0  0
  125.8960  121.6050   56.7430 O   0  0  0  0  0  0  0  0  0  0  0  0
  126.9010  122.4900   57.0890 C   0  0  0  0  0  0  0  0  0  0  0  0
  128.2490  122.1270   57.2360 C   0  0  0  0  0  0  0  0  0  0  0  0
  129.2080  123.0770   57.5790 C   0  0  0  0  0  0  0  0  0  0  0  0
  128.8440  124.4090   57.7820 C   0  0  0  0  0  0  0  0  0  0  0  0
  129.9160  125.4370   58.1370 C   0  0  0  0  0  0  0  0  0  0  0  0
  129.6360  126.7790   57.6250 N   0  0  0  0  0  0  0  0  0  0  0  0
  130.1040  127.2750   56.4660 C   0  0  0  0  0  0  0  0  0  0  0  0
  130.8980  126.6680   55.7440 O   0  0  0  0  0  0  0  0  0  0  0  0
  129.5790  128.6640   56.0790 C   0  0  0  0  0  0  0  0  0  0  0  0
  129.8370  129.9630   57.3340 S   0  0  0  0  0  0  0  0  0  0  0  0
  128.2610  130.2480   58.1100 C   0  0  0  0  0  0  0  0  0  0  0  0
  127.2170  129.6980   57.4430 N   0  0  0  0  0  0  0  0  0  0  0  0
  125.9700  129.8700   57.9360 C   0  0  0  0  0  0  0  0  0  0  0  0
  124.8510  129.2330   57.1350 C   0  0  0  0  0  0  0  0  0  0  0  0
  125.7150  130.5850   59.1040 C   0  0  0  0  0  0  0  0  0  0  0  0
  126.7850  131.1450   59.8190 C   0  0  0  0  0  0  0  0  0  0  0  0
  126.4840  131.9250   61.1140 C   0  0  0  0  0  0  0  0  0  0  0  0
  127.0120  131.2900   62.1600 F   0  0  0  0  0  0  0  0  0  0  0  0
  126.9860  133.1620   61.1000 F   0  0  0  0  0  0  0  0  0  0  0  0
  125.1660  132.0290   61.2900 F   0  0  0  0  0  0  0  0  0  0  0  0
  128.1000  130.9670   59.3190 C   0  0  0  0  0  0  0  0  0  0  0  0
  129.2560  131.4810   60.0590 C   0  0  0  0  0  0  0  0  0  0  0  0
  130.1670  131.8840   60.6460 N   0  0  0  0  0  0  0  0  0  0  0  0
  127.4970  124.7830   57.6620 C   0  0  0  0  0  0  0  0  0  0  0  0
  127.1300  126.0920   57.8630 O   0  0  0  0  0  0  0  0  0  0  0  0
  126.7380  126.3930   59.1970 C   0  0  0  0  0  0  0  0  0  0  0  0
  126.5340  123.8260   57.2970 C   0  0  0  0  0  0  0  0  0  0  0  0
  125.2170  124.1920   57.1600 O   0  0  0  0  0  0  0  0  0  0  0  0
  124.4720  124.1470   58.3690 C   0  0  0  0  0  0  0  0  0  0  0  0
  124.1814  121.9690   55.6438 H   0  0  0  0  0  0  0  0  0  0  0  0
  125.7137  122.5619   54.9177 H   0  0  0  0  0  0  0  0  0  0  0  0
  125.3406  120.8047   54.9177 H   0  0  0  0  0  0  0  0  0  0  0  0
  128.5511  121.0811   57.0786 H   0  0  0  0  0  0  0  0  0  0  0  0
  130.2599  122.7753   57.6907 H   0  0  0  0  0  0  0  0  0  0  0  0
  129.9946  125.4927   59.2328 H   0  0  0  0  0  0  0  0  0  0  0  0
  130.8517  125.1017   57.6659 H   0  0  0  0  0  0  0  0  0  0  0  0
  128.9630  127.3230   58.1460 H   0  0  0  0  0  0  0  0  0  0  0  0
  130.0882  128.9761   55.1552 H   0  0  0  0  0  0  0  0  0  0  0  0
  128.4900  128.5599   55.9637 H   0  0  0  0  0  0  0  0  0  0  0  0
  124.1044  128.8080   57.8219 H   0  0  0  0  0  0  0  0  0  0  0  0
  124.3741  129.9950   56.5010 H   0  0  0  0  0  0  0  0  0  0  0  0
  125.2628  128.4339   56.5010 H   0  0  0  0  0  0  0  0  0  0  0  0
  124.6828  130.7097   59.4632 H   0  0  0  0  0  0  0  0  0  0  0  0
  127.4083  125.8783   59.9011 H   0  0  0  0  0  0  0  0  0  0  0  0
  126.7983  127.4791   59.3607 H   0  0  0  0  0  0  0  0  0  0  0  0
  125.7043  126.0544   59.3607 H   0  0  0  0  0  0  0  0  0  0  0  0
  125.1606  124.1886   59.2258 H   0  0  0  0  0  0  0  0  0  0  0  0
  123.7852  125.0053   58.4086 H   0  0  0  0  0  0  0  0  0  0  0  0
  123.8935  123.2123   58.4086 H   0  0  0  0  0  0  0  0  0  0  0  0
  1  2  1  0
  2  3  1  0
  3  4  2  0
  4  5  1  0
  5  6  2  0
  6  7  1  0
  7  8  1  0
  8  9  1  0
  9 10  2  0
  9 11  1  0
 11 12  1  0
 12 13  1  0
 13 14  2  0
 14 15  1  0
 15 16  1  0
 15 17  2  0
 17 18  1  0
 18 19  1  0
 19 20  1  0
 19 21  1  0
 19 22  1  0
 18 23  2  0
 23 24  1  0
 24 25  3  0
  6 26  1  0
 26 27  1  0
 27 28  1  0
 26 29  2  0
 29 30  1  0
 30 31  1  0
 29  3  1  0
 23 13  1  0
  1 32  1  0
  1 33  1  0
  1 34  1  0
  4 35  1  0
  5 36  1  0
  7 37  1  0
  7 38  1  0
  8 39  1  0
 11 40  1  0
 11 41  1  0
 16 42  1  0
 16 43  1  0
 16 44  1  0
 17 45  1  0
 28 46  1  0
 28 47  1  0
 28 48  1  0
 31 49  1  0
 31 50  1  0
 31 51  1  0
M  END
>  <Binding energies>  (1) 
[-6.09]

>  <Ligand effiencies>  (1) 
[-0.1903125]

>  <Interactions>  (1) 
["V-A:TYR:539:CD1:4873, V-A:TYR:539:CE1:4875, V-A:PRO:540:CA:4883, H-B:TYR:531:OH:9767, V-B:ASP:366:CB:8183, H-A:ALA:541:N:4891, V-B:ASP:366:C:8179, V-B:PRO:540:CB:9857, V-B:TYR:539:CE2:9848, V-B:PRO:540:CD:9859, V-B:PRO:540:N:9856, V-B:PRO:540:CA:9855, V-B:MET:535:CE:9807, V-B:TYR:539:CA:9841, V-B:TYR:539:CD2:9846, V-B:TYR:531:CE2:9765, V-B:TYR:539:C:9839, V-B:TYR:531:CZ:9766, V-B:LEU:363:CD1:8160, V-B:TYR:531:CE1:9764, V-B:TYR:539:CG:9844, V-B:TYR:539:CZ:9849, H-A:TYR:531:OH:4795, V-B:LEU:363:CA:8156, V-B:TYR:539:CE1:9847, V-B:TYR:539:CD1:9845, V-B:ILE:538:CG2:9835, H-B:TYR:539:N:9842, V-B:ILE:538:CA:9832, V-B:ILE:538:CB:9834, V-B:ILE:538:CG1:9836"]

$$$$
2i_Grossjean_2025
     RDKit          3D

 32 33  0  0  0  0  0  0  0  0999 V2000
  130.2900  131.4880   60.5910 C   0  0  0  0  0  0  0  0  0  0  0  0
  128.8080  131.3970   60.2760 C   0  0  0  0  0  0  0  0  0  0  0  0
  127.8900  132.2890   60.8240 C   0  0  0  0  0  0  0  0  0  0  0  0
  126.5310  132.1650   60.5000 C   0  0  0  0  0  0  0  0  0  0  0  0
  125.5280  133.1600   61.1150 C   0  0  0  0  0  0  0  0  0  0  0  0
  124.5380  132.4970   61.7150 F   0  0  0  0  0  0  0  0  0  0  0  0
  126.1410  133.9300   62.0150 F   0  0  0  0  0  0  0  0  0  0  0  0
  124.9770  133.9670   60.2060 F   0  0  0  0  0  0  0  0  0  0  0  0
  126.1370  131.1260   59.6180 C   0  0  0  0  0  0  0  0  0  0  0  0
  124.7290  130.9520   59.2450 C   0  0  0  0  0  0  0  0  0  0  0  0
  123.6190  130.8130   58.9500 N   0  0  0  0  0  0  0  0  0  0  0  0
  127.1350  130.2640   59.1100 C   0  0  0  0  0  0  0  0  0  0  0  0
  126.7570  128.9180   58.0000 S   0  0  0  0  0  0  0  0  0  0  0  0
  126.3590  129.6230   56.3720 C   0  0  0  0  0  0  0  0  0  0  0  0
  127.5140  130.4460   55.7980 C   0  0  0  0  0  0  0  0  0  0  0  0
  127.4180  130.8990   54.6560 O   0  0  0  0  0  0  0  0  0  0  0  0
  128.5890  130.5900   56.6030 N   0  0  0  0  0  0  0  0  0  0  0  0
  129.7580  131.2710   56.3060 C   0  0  0  0  0  0  0  0  0  0  0  0
  131.0850  130.8160   56.2740 C   0  0  0  0  0  0  0  0  0  0  0  0
  131.8240  131.9200   55.9160 C   0  0  0  0  0  0  0  0  0  0  0  0
  130.9910  132.9730   55.7370 O   0  0  0  0  0  0  0  0  0  0  0  0
  129.6850  132.5440   55.9820 N   0  0  0  0  0  0  0  0  0  0  0  0
  128.4460  130.4030   59.4350 N   0  0  0  0  0  0  0  0  0  0  0  0
  130.4332  131.4968   61.6816 H   0  0  0  0  0  0  0  0  0  0  0  0
  130.8105  130.6201   60.1598 H   0  0  0  0  0  0  0  0  0  0  0  0
  130.7004  132.4130   60.1598 H   0  0  0  0  0  0  0  0  0  0  0  0
  128.2276  133.0840   61.5051 H   0  0  0  0  0  0  0  0  0  0  0  0
  126.1303  128.8016   55.6771 H   0  0  0  0  0  0  0  0  0  0  0  0
  125.4969  130.2946   56.4976 H   0  0  0  0  0  0  0  0  0  0  0  0
  128.5650  130.1360   57.5040 H   0  0  0  0  0  0  0  0  0  0  0  0
  131.4529  129.8016   56.4877 H   0  0  0  0  0  0  0  0  0  0  0  0
  132.9170  131.9437   55.7945 H   0  0  0  0  0  0  0  0  0  0  0  0
  1  2  1  0
  2  3  2  0
  3  4  1  0
  4  5  1  0
  5  6  1  0
  5  7  1  0
  5  8  1  0
  4  9  2  0
  9 10  1  0
 10 11  3  0
  9 12  1  0
 12 13  1  0
 13 14  1  0
 14 15  1  0
 15 16  2  0
 15 17  1  0
 17 18  1  0
 18 19  1  0
 19 20  2  0
 20 21  1  0
 21 22  1  0
 12 23  2  0
 23  2  1  0
 22 18  2  0
  1 24  1  0
  1 25  1  0
  1 26  1  0
  3 27  1  0
 14 28  1  0
 14 29  1  0
 17 30  1  0
 19 31  1  0
 20 32  1  0
M  END
>  <Binding energies>  (1) 
[-6.4]

>  <Ligand effiencies>  (1) 
[-0.26666666666666666]

>  <Interactions>  (1) 
["V-A:TYR:539:CD1:4873, H-A:TYR:539:OH:4878, V-A:ILE:538:CB:4862, V-A:ILE:538:CG2:4863, V-A:LEU:363:CD1:3188, V-A:TYR:539:CE1:4875, V-A:PRO:540:CA:4883, H-B:LYS:534:NZ:9795, V-B:ILE:369:CG2:8208, V-B:LEU:475:CD1:9229, V-B:ILE:369:CD1:8210, H-B:TYR:531:OH:9767, V-A:TYR:539:CZ:4877, V-B:TYR:531:CZ:9766, V-B:TYR:531:CE1:9764, V-A:PRO:540:C:4881, H-A:TYR:539:N:4870"]

$$$$
2j_Grossjean_2025
     RDKit          3D

 32 33  0  0  0  0  0  0  0  0999 V2000
  129.3690  122.4720   62.5430 C   0  0  0  0  0  0  0  0  0  0  0  0
  130.4000  121.5220   61.9630 C   0  0  0  0  0  0  0  0  0  0  0  0
  130.0590  120.2350   61.5560 C   0  0  0  0  0  0  0  0  0  0  0  0
  131.0480  119.3950   61.0230 C   0  0  0  0  0  0  0  0  0  0  0  0
  130.6530  117.9740   60.5770 C   0  0  0  0  0  0  0  0  0  0  0  0
  130.9370  117.8070   59.2850 F   0  0  0  0  0  0  0  0  0  0  0  0
  131.3250  117.0680   61.2890 F   0  0  0  0  0  0  0  0  0  0  0  0
  129.3510  117.7260   60.7370 F   0  0  0  0  0  0  0  0  0  0  0  0
  132.3720  119.8900   60.9190 C   0  0  0  0  0  0  0  0  0  0  0  0
  133.4460  119.0550   60.3710 C   0  0  0  0  0  0  0  0  0  0  0  0
  134.2930  118.3960   59.9360 N   0  0  0  0  0  0  0  0  0  0  0  0
  132.6300  121.2100   61.3580 C   0  0  0  0  0  0  0  0  0  0  0  0
  134.2590  121.9390   61.2720 S   0  0  0  0  0  0  0  0  0  0  0  0
  134.0750  123.7520   61.1720 C   0  0  0  0  0  0  0  0  0  0  0  0
  134.1770  124.4860   62.5170 C   0  0  0  0  0  0  0  0  0  0  0  0
  135.1900  125.1260   62.8090 O   0  0  0  0  0  0  0  0  0  0  0  0
  133.0960  124.3550   63.3180 N   0  0  0  0  0  0  0  0  0  0  0  0
  132.9250  124.9130   64.5780 C   0  0  0  0  0  0  0  0  0  0  0  0
  133.8420  125.1280   65.4960 N   0  0  0  0  0  0  0  0  0  0  0  0
  133.3250  125.6770   66.5790 C   0  0  0  0  0  0  0  0  0  0  0  0
  131.9550  125.9180   66.5520 C   0  0  0  0  0  0  0  0  0  0  0  0
  131.3190  125.3940   65.0210 S   0  0  0  0  0  0  0  0  0  0  0  0
  131.6580  122.0090   61.8690 N   0  0  0  0  0  0  0  0  0  0  0  0
  129.4114  122.4329   63.6415 H   0  0  0  0  0  0  0  0  0  0  0  0
  129.5827  123.4964   62.2040 H   0  0  0  0  0  0  0  0  0  0  0  0
  128.3654  122.1754   62.2040 H   0  0  0  0  0  0  0  0  0  0  0  0
  129.0224  119.8797   61.6516 H   0  0  0  0  0  0  0  0  0  0  0  0
  134.8634  124.1398   60.5102 H   0  0  0  0  0  0  0  0  0  0  0  0
  133.0591  123.9392   60.7939 H   0  0  0  0  0  0  0  0  0  0  0  0
  132.3280  123.7960   62.9770 H   0  0  0  0  0  0  0  0  0  0  0  0
  133.9423  125.9298   67.4536 H   0  0  0  0  0  0  0  0  0  0  0  0
  131.3690  126.3673   67.3673 H   0  0  0  0  0  0  0  0  0  0  0  0
  1  2  1  0
  2  3  2  0
  3  4  1  0
  4  5  1  0
  5  6  1  0
  5  7  1  0
  5  8  1  0
  4  9  2  0
  9 10  1  0
 10 11  3  0
  9 12  1  0
 12 13  1  0
 13 14  1  0
 14 15  1  0
 15 16  2  0
 15 17  1  0
 17 18  1  0
 18 19  2  0
 19 20  1  0
 20 21  2  0
 21 22  1  0
 12 23  2  0
 23  2  1  0
 22 18  1  0
  1 24  1  0
  1 25  1  0
  1 26  1  0
  3 27  1  0
 14 28  1  0
 14 29  1  0
 17 30  1  0
 20 31  1  0
 21 32  1  0
M  END
>  <Binding energies>  (1) 
[-6.37]

>  <Ligand effiencies>  (1) 
[-0.2654166666666667]

>  <Interactions>  (1) 
["V-A:HIS:456:CE1:4069, H-A:GLY:454:N:4049, H-A:ARG:545:NH2:4928, V-A:TYR:484:CZ:4346, V-A:ARG:545:CZ:4926, V-A:ASP:366:CG:3212, H-A:TYR:484:OH:4347, H-A:ARG:545:NE:4924, V-B:ALA:541:CB:9864, V-A:GLY:453:C:4041, V-A:ARG:545:CD:4923, V-A:ARG:545:CG:4922, V-A:GLY:453:CA:4043, V-A:PRO:482:CG:4326, V-B:PRO:540:N:9856, V-B:TYR:539:CA:9841, V-B:TYR:539:CD2:9846, V-A:PRO:482:CB:4325, V-B:TYR:539:C:9839, V-A:ILE:369:CG2:3236, V-A:LEU:475:CD1:4257, V-B:ALA:541:CA:9862, V-B:PRO:540:C:9853, V-A:ILE:369:CD1:3238, V-A:SER:385:CA:3406, V-B:TYR:539:CG:9844, V-B:TYR:539:CB:9843, H-A:ARG:545:NH1:4927, H-A:SER:385:OG:3409, H-A:HIS:383:NE2:3393, V-A:HIS:383:CE1:3392, V-A:PRO:482:CD:4327"]

$$$$
2k_Grossjean_2025
     RDKit          3D

 50 50  0  0  0  0  0  0  0  0999 V2000
  125.1530  125.2150   58.4030 C   0  0  0  0  0  0  0  0  0  0  0  0
  125.3400  124.3970   57.2590 O   0  0  0  0  0  0  0  0  0  0  0  0
  125.2290  123.0060   57.5330 C   0  0  0  0  0  0  0  0  0  0  0  0
  125.7110  122.1990   56.3210 C   0  0  0  0  0  0  0  0  0  0  0  0
  127.0400  121.7580   56.5570 O   0  0  0  0  0  0  0  0  0  0  0  0
  127.6830  122.4010   57.6510 C   0  0  0  0  0  0  0  0  0  0  0  0
  128.2030  123.7640   57.1750 C   0  0  0  0  0  0  0  0  0  0  0  0
  128.7280  124.4470   58.3020 O   0  0  0  0  0  0  0  0  0  0  0  0
  129.6890  123.7220   59.0550 C   0  0  0  0  0  0  0  0  0  0  0  0
  131.0930  124.0270   58.4990 C   0  0  0  0  0  0  0  0  0  0  0  0
  132.1430  123.9370   59.5170 N   0  0  0  0  0  0  0  0  0  0  0  0
  133.4510  123.7240   59.2760 C   0  0  0  0  0  0  0  0  0  0  0  0
  133.9210  123.6090   58.1430 O   0  0  0  0  0  0  0  0  0  0  0  0
  134.3470  123.6090   60.5180 C   0  0  0  0  0  0  0  0  0  0  0  0
  133.4700  123.2880   62.0880 S   0  0  0  0  0  0  0  0  0  0  0  0
  132.0880  122.1960   61.7840 C   0  0  0  0  0  0  0  0  0  0  0  0
  130.8570  122.7440   61.9500 N   0  0  0  0  0  0  0  0  0  0  0  0
  129.7660  121.9750   61.7420 C   0  0  0  0  0  0  0  0  0  0  0  0
  128.4290  122.6560   61.9590 C   0  0  0  0  0  0  0  0  0  0  0  0
  129.8500  120.6410   61.3500 C   0  0  0  0  0  0  0  0  0  0  0  0
  131.1120  120.0560   61.1640 C   0  0  0  0  0  0  0  0  0  0  0  0
  131.1880  118.5810   60.7260 C   0  0  0  0  0  0  0  0  0  0  0  0
  131.8780  117.8230   61.5800 F   0  0  0  0  0  0  0  0  0  0  0  0
  129.9600  118.0670   60.6370 F   0  0  0  0  0  0  0  0  0  0  0  0
  131.7830  118.4880   59.5360 F   0  0  0  0  0  0  0  0  0  0  0  0
  132.2660  120.8500   61.3880 C   0  0  0  0  0  0  0  0  0  0  0  0
  133.6100  120.2890   61.2120 C   0  0  0  0  0  0  0  0  0  0  0  0
  134.6700  119.8460   61.0730 N   0  0  0  0  0  0  0  0  0  0  0  0
  125.2910  124.6112   59.3120 H   0  0  0  0  0  0  0  0  0  0  0  0
  125.8870  126.0342   58.3920 H   0  0  0  0  0  0  0  0  0  0  0  0
  124.1359  125.6339   58.3920 H   0  0  0  0  0  0  0  0  0  0  0  0
  125.8468  122.7555   58.4080 H   0  0  0  0  0  0  0  0  0  0  0  0
  124.1773  122.7588   57.7397 H   0  0  0  0  0  0  0  0  0  0  0  0
  125.0547  121.3288   56.1729 H   0  0  0  0  0  0  0  0  0  0  0  0
  125.6836  122.8298   55.4203 H   0  0  0  0  0  0  0  0  0  0  0  0
  126.9650  122.5436   58.4721 H   0  0  0  0  0  0  0  0  0  0  0  0
  128.5182  121.7839   58.0139 H   0  0  0  0  0  0  0  0  0  0  0  0
  128.9930  123.6210   56.4230 H   0  0  0  0  0  0  0  0  0  0  0  0
  127.3896  124.3466   56.7180 H   0  0  0  0  0  0  0  0  0  0  0  0
  129.6361  124.0257   60.1109 H   0  0  0  0  0  0  0  0  0  0  0  0
  129.4848  122.6437   58.9798 H   0  0  0  0  0  0  0  0  0  0  0  0
  131.3175  123.3063   57.6989 H   0  0  0  0  0  0  0  0  0  0  0  0
  131.0824  125.0623   58.1274 H   0  0  0  0  0  0  0  0  0  0  0  0
  131.8430  124.0360   60.4750 H   0  0  0  0  0  0  0  0  0  0  0  0
  135.0558  122.7847   60.3503 H   0  0  0  0  0  0  0  0  0  0  0  0
  134.8306  124.5900   60.6354 H   0  0  0  0  0  0  0  0  0  0  0  0
  128.2379  122.7533   63.0379 H   0  0  0  0  0  0  0  0  0  0  0  0
  128.4471  123.6547   61.4983 H   0  0  0  0  0  0  0  0  0  0  0  0
  127.6319  122.0541   61.4983 H   0  0  0  0  0  0  0  0  0  0  0  0
  128.9356  120.0515   61.1877 H   0  0  0  0  0  0  0  0  0  0  0  0
  1  2  1  0
  2  3  1  0
  3  4  1  0
  4  5  1  0
  5  6  1  0
  6  7  1  0
  7  8  1  0
  8  9  1  0
  9 10  1  0
 10 11  1  0
 11 12  1  0
 12 13  2  0
 12 14  1  0
 14 15  1  0
 15 16  1  0
 16 17  2  0
 17 18  1  0
 18 19  1  0
 18 20  2  0
 20 21  1  0
 21 22  1  0
 22 23  1  0
 22 24  1  0
 22 25  1  0
 21 26  2  0
 26 27  1  0
 27 28  3  0
 26 16  1  0
  1 29  1  0
  1 30  1  0
  1 31  1  0
  3 32  1  0
  3 33  1  0
  4 34  1  0
  4 35  1  0
  6 36  1  0
  6 37  1  0
  7 38  1  0
  7 39  1  0
  9 40  1  0
  9 41  1  0
 10 42  1  0
 10 43  1  0
 11 44  1  0
 14 45  1  0
 14 46  1  0
 19 47  1  0
 19 48  1  0
 19 49  1  0
 20 50  1  0
M  END
>  <Binding energies>  (1) 
[-5.55]

>  <Ligand effiencies>  (1) 
[-0.19137931034482758]

>  <Interactions>  (1) 
["V-A:ASP:366:CG:3212, V-B:ALA:541:CB:9864, V-B:ASP:366:CG:8184, H-B:TYR:531:OH:9767, V-B:ASP:366:CB:8183, V-A:PRO:482:CG:4326, V-B:PRO:540:CB:9857, V-B:TYR:539:CE2:9848, V-B:PRO:540:CD:9859, V-B:PRO:540:N:9856, V-B:PRO:540:CA:9855, V-B:MET:535:CE:9807, V-B:TYR:539:CD2:9846, V-B:TYR:531:CE2:9765, V-A:PRO:482:CB:4325, V-B:TYR:539:C:9839, V-B:TYR:531:CZ:9766, V-B:LEU:363:CD1:8160, V-A:ILE:369:CG2:3236, V-A:ASP:366:CB:3211, V-A:ILE:369:CB:3235, V-A:LEU:475:CD1:4257, V-B:PRO:540:C:9853, V-A:ILE:369:CD1:3238, V-B:TYR:539:CG:9844, V-B:TYR:539:CZ:9849, H-B:TYR:539:OH:9850, V-A:ASP:366:CA:3209, V-B:TYR:539:CB:9843, H-B:TYR:539:N:9842"]

$$$$
3aa_Grossjean_2025
     RDKit          3D

 52 54  0  0  0  0  0  0  0  0999 V2000
  130.4840  117.2630   60.1090 C   0  0  0  0  0  0  0  0  0  0  0  0
  131.6100  117.6370   61.0770 C   0  0  0  0  0  0  0  0  0  0  0  0
  132.7090  118.1650   60.3440 O   0  0  0  0  0  0  0  0  0  0  0  0
  133.3420  119.2950   60.7510 C   0  0  0  0  0  0  0  0  0  0  0  0
  134.5700  119.3950   60.8350 O   0  0  0  0  0  0  0  0  0  0  0  0
  132.3990  120.4090   61.1070 C   0  0  0  0  0  0  0  0  0  0  0  0
  131.1350  120.5310   60.5120 C   0  0  0  0  0  0  0  0  0  0  0  0
  130.2830  121.5730   60.8680 C   0  0  0  0  0  0  0  0  0  0  0  0
  130.6720  122.5080   61.8280 C   0  0  0  0  0  0  0  0  0  0  0  0
  129.7350  123.5200   62.1180 N   0  0  0  0  0  0  0  0  0  0  0  0
  128.3850  123.4850   62.0610 C   0  0  0  0  0  0  0  0  0  0  0  0
  127.7100  122.5180   61.7060 O   0  0  0  0  0  0  0  0  0  0  0  0
  127.6750  124.7760   62.4680 C   0  0  0  0  0  0  0  0  0  0  0  0
  126.6650  125.4470   61.1130 S   0  0  0  0  0  0  0  0  0  0  0  0
  127.1800  124.6230   59.6220 C   0  0  0  0  0  0  0  0  0  0  0  0
  128.4980  124.7700   59.3480 N   0  0  0  0  0  0  0  0  0  0  0  0
  129.0220  124.1930   58.2360 C   0  0  0  0  0  0  0  0  0  0  0  0
  130.4910  124.3890   58.0090 C   0  0  0  0  0  0  0  0  0  0  0  0
  131.4330  123.6550   58.7480 C   0  0  0  0  0  0  0  0  0  0  0  0
  132.7990  123.8310   58.5420 C   0  0  0  0  0  0  0  0  0  0  0  0
  133.2410  124.7460   57.5930 C   0  0  0  0  0  0  0  0  0  0  0  0
  132.3280  125.4840   56.8460 C   0  0  0  0  0  0  0  0  0  0  0  0
  130.9630  125.3040   57.0520 C   0  0  0  0  0  0  0  0  0  0  0  0
  128.2210  123.4390   57.3720 C   0  0  0  0  0  0  0  0  0  0  0  0
  126.8500  123.2870   57.6270 C   0  0  0  0  0  0  0  0  0  0  0  0
  125.9990  122.4590   56.6450 C   0  0  0  0  0  0  0  0  0  0  0  0
  125.0210  121.7820   57.2510 F   0  0  0  0  0  0  0  0  0  0  0  0
  125.4290  123.2580   55.7430 F   0  0  0  0  0  0  0  0  0  0  0  0
  126.7690  121.5730   56.0130 F   0  0  0  0  0  0  0  0  0  0  0  0
  126.3040  123.9050   58.7780 C   0  0  0  0  0  0  0  0  0  0  0  0
  124.8680  123.8290   59.0630 C   0  0  0  0  0  0  0  0  0  0  0  0
  123.7340  123.7690   59.2880 N   0  0  0  0  0  0  0  0  0  0  0  0
  131.9410  122.4000   62.4180 C   0  0  0  0  0  0  0  0  0  0  0  0
  132.7910  121.3590   62.0590 C   0  0  0  0  0  0  0  0  0  0  0  0
  129.5922  116.9668   60.6808 H   0  0  0  0  0  0  0  0  0  0  0  0
  130.2424  118.1291   59.4754 H   0  0  0  0  0  0  0  0  0  0  0  0
  130.8086  116.4244   59.4754 H   0  0  0  0  0  0  0  0  0  0  0  0
  131.2462  118.3933   61.7881 H   0  0  0  0  0  0  0  0  0  0  0  0
  131.9328  116.7413   61.6279 H   0  0  0  0  0  0  0  0  0  0  0  0
  130.8140  119.7974   59.7578 H   0  0  0  0  0  0  0  0  0  0  0  0
  129.2965  121.6598   60.3892 H   0  0  0  0  0  0  0  0  0  0  0  0
  130.1470  124.4100   62.3580 H   0  0  0  0  0  0  0  0  0  0  0  0
  127.0227  124.5675   63.3288 H   0  0  0  0  0  0  0  0  0  0  0  0
  128.4418  125.5217   62.7246 H   0  0  0  0  0  0  0  0  0  0  0  0
  131.0870  122.9308   59.5002 H   0  0  0  0  0  0  0  0  0  0  0  0
  133.5254  123.2485   59.1277 H   0  0  0  0  0  0  0  0  0  0  0  0
  134.3199  124.8875   57.4316 H   0  0  0  0  0  0  0  0  0  0  0  0
  132.6831  126.2063   56.0962 H   0  0  0  0  0  0  0  0  0  0  0  0
  130.2436  125.8861   56.4574 H   0  0  0  0  0  0  0  0  0  0  0  0
  128.6688  122.9625   56.4875 H   0  0  0  0  0  0  0  0  0  0  0  0
  132.2639  123.1397   63.1654 H   0  0  0  0  0  0  0  0  0  0  0  0
  133.7828  121.2808   62.5283 H   0  0  0  0  0  0  0  0  0  0  0  0
  1  2  1  0
  2  3  1  0
  3  4  1  0
  4  5  2  0
  4  6  1  0
  6  7  2  0
  7  8  1  0
  8  9  2  0
  9 10  1  0
 10 11  1  0
 11 12  2  0
 11 13  1  0
 13 14  1  0
 14 15  1  0
 15 16  2  0
 16 17  1  0
 17 18  1  0
 18 19  2  0
 19 20  1  0
 20 21  2  0
 21 22  1  0
 22 23  2  0
 17 24  2  0
 24 25  1  0
 25 26  1  0
 26 27  1  0
 26 28  1  0
 26 29  1  0
 25 30  2  0
 30 31  1  0
 31 32  3  0
  9 33  1  0
 33 34  2  0
 34  6  1  0
 30 15  1  0
 23 18  1  0
  1 35  1  0
  1 36  1  0
  1 37  1  0
  2 38  1  0
  2 39  1  0
  7 40  1  0
  8 41  1  0
 10 42  1  0
 13 43  1  0
 13 44  1  0
 19 45  1  0
 20 46  1  0
 21 47  1  0
 22 48  1  0
 23 49  1  0
 24 50  1  0
 33 51  1  0
 34 52  1  0
M  END
>  <Binding energies>  (1) 
[-8.2]

>  <Ligand effiencies>  (1) 
[-0.23428571428571426]

>  <Interactions>  (1) 
["V-B:GLU:543:CG:9879, H-B:ALA:541:N:9863, V-A:ASP:366:CG:3212, V-B:GLU:543:CD:9880, V-A:PRO:482:CG:4326, V-B:PRO:540:CB:9857, V-B:TYR:539:CE2:9848, V-B:PRO:540:CD:9859, V-B:PRO:540:N:9856, V-B:PRO:540:CA:9855, V-B:MET:535:CE:9807, V-B:TYR:539:CA:9841, V-B:TYR:539:CD2:9846, V-B:TYR:531:CE2:9765, V-A:PRO:482:CB:4325, V-B:TYR:539:C:9839, V-B:TYR:531:CZ:9766, V-B:LEU:363:CD1:8160, V-A:ILE:369:CG2:3236, V-A:ASP:366:CB:3211, V-A:LEU:475:CD1:4257, V-A:SER:385:CA:3406, V-B:TYR:539:CZ:9849, V-A:ASP:366:CA:3209, V-A:ASP:366:C:3207, V-B:TYR:539:CB:9843, V-B:TYR:539:CD1:9845, V-B:ILE:538:CA:9832, H-A:SER:385:OG:3409, H-A:HIS:383:NE2:3393, H-B:LEU:363:N:8157, V-A:HIS:383:CE1:3392, V-B:MET:535:CG:9805, V-B:ILE:538:C:9830, V-B:PRO:540:CG:9858"]

$$$$
3ab_Grossjean_2025
     RDKit          3D

 49 51  0  0  0  0  0  0  0  0999 V2000
  130.3380  116.8490   59.7880 C   0  0  0  0  0  0  0  0  0  0  0  0
  131.4260  117.6700   59.3860 O   0  0  0  0  0  0  0  0  0  0  0  0
  132.1290  118.3920   60.2960 C   0  0  0  0  0  0  0  0  0  0  0  0
  133.1920  118.0090   60.7930 O   0  0  0  0  0  0  0  0  0  0  0  0
  131.4870  119.7070   60.6350 C   0  0  0  0  0  0  0  0  0  0  0  0
  132.0300  120.9300   60.2120 C   0  0  0  0  0  0  0  0  0  0  0  0
  131.4130  122.1330   60.5400 C   0  0  0  0  0  0  0  0  0  0  0  0
  130.2350  122.1340   61.3040 C   0  0  0  0  0  0  0  0  0  0  0  0
  129.5250  123.2880   61.6880 N   0  0  0  0  0  0  0  0  0  0  0  0
  128.2390  123.4250   62.0740 C   0  0  0  0  0  0  0  0  0  0  0  0
  127.4130  122.5150   62.1470 O   0  0  0  0  0  0  0  0  0  0  0  0
  127.8120  124.8490   62.4380 C   0  0  0  0  0  0  0  0  0  0  0  0
  126.7620  125.5980   61.1570 S   0  0  0  0  0  0  0  0  0  0  0  0
  127.1210  124.7710   59.6210 C   0  0  0  0  0  0  0  0  0  0  0  0
  128.3600  125.0360   59.1410 N   0  0  0  0  0  0  0  0  0  0  0  0
  128.7690  124.4660   57.9780 C   0  0  0  0  0  0  0  0  0  0  0  0
  130.1550  124.8080   57.5160 C   0  0  0  0  0  0  0  0  0  0  0  0
  130.3590  125.5440   56.3380 C   0  0  0  0  0  0  0  0  0  0  0  0
  131.6430  125.8650   55.9050 C   0  0  0  0  0  0  0  0  0  0  0  0
  132.7450  125.4500   56.6470 C   0  0  0  0  0  0  0  0  0  0  0  0
  132.5710  124.7160   57.8150 C   0  0  0  0  0  0  0  0  0  0  0  0
  131.2860  124.3980   58.2440 C   0  0  0  0  0  0  0  0  0  0  0  0
  127.9180  123.6240   57.2540 C   0  0  0  0  0  0  0  0  0  0  0  0
  126.6240  123.3500   57.7210 C   0  0  0  0  0  0  0  0  0  0  0  0
  125.7170  122.4210   56.8920 C   0  0  0  0  0  0  0  0  0  0  0  0
  124.6830  121.9490   57.5920 F   0  0  0  0  0  0  0  0  0  0  0  0
  125.2210  123.0790   55.8430 F   0  0  0  0  0  0  0  0  0  0  0  0
  126.4170  121.3740   56.4530 F   0  0  0  0  0  0  0  0  0  0  0  0
  126.2030  123.9450   58.9370 C   0  0  0  0  0  0  0  0  0  0  0  0
  124.8420  123.7380   59.4400 C   0  0  0  0  0  0  0  0  0  0  0  0
  123.7670  123.5720   59.8340 N   0  0  0  0  0  0  0  0  0  0  0  0
  129.6890  120.9200   61.7210 C   0  0  0  0  0  0  0  0  0  0  0  0
  130.3090  119.7180   61.3920 C   0  0  0  0  0  0  0  0  0  0  0  0
  130.2915  116.8139   60.8865 H   0  0  0  0  0  0  0  0  0  0  0  0
  129.3992  117.2657   59.3944 H   0  0  0  0  0  0  0  0  0  0  0  0
  130.4812  115.8319   59.3944 H   0  0  0  0  0  0  0  0  0  0  0  0
  132.9536  120.9375   59.6146 H   0  0  0  0  0  0  0  0  0  0  0  0
  131.8485  123.0843   60.2005 H   0  0  0  0  0  0  0  0  0  0  0  0
  130.0640  124.1400   61.6290 H   0  0  0  0  0  0  0  0  0  0  0  0
  127.2511  124.8201   63.3838 H   0  0  0  0  0  0  0  0  0  0  0  0
  128.7210  125.4614   62.5309 H   0  0  0  0  0  0  0  0  0  0  0  0
  129.4908  125.8723   55.7477 H   0  0  0  0  0  0  0  0  0  0  0  0
  131.7857  126.4440   54.9806 H   0  0  0  0  0  0  0  0  0  0  0  0
  133.7599  125.7043   56.3073 H   0  0  0  0  0  0  0  0  0  0  0  0
  133.4449  124.3883   58.3971 H   0  0  0  0  0  0  0  0  0  0  0  0
  131.1528  123.8162   59.1680 H   0  0  0  0  0  0  0  0  0  0  0  0
  128.2659  123.1740   56.3125 H   0  0  0  0  0  0  0  0  0  0  0  0
  128.7624  120.9125   62.3137 H   0  0  0  0  0  0  0  0  0  0  0  0
  129.8695  118.7679   61.7298 H   0  0  0  0  0  0  0  0  0  0  0  0
  1  2  1  0
  2  3  1  0
  3  4  2  0
  3  5  1  0
  5  6  2  0
  6  7  1  0
  7  8  2  0
  8  9  1  0
  9 10  1  0
 10 11  2  0
 10 12  1  0
 12 13  1  0
 13 14  1  0
 14 15  2  0
 15 16  1  0
 16 17  1  0
 17 18  2  0
 18 19  1  0
 19 20  2  0
 20 21  1  0
 21 22  2  0
 16 23  2  0
 23 24  1  0
 24 25  1  0
 25 26  1  0
 25 27  1  0
 25 28  1  0
 24 29  2  0
 29 30  1  0
 30 31  3  0
  8 32  1  0
 32 33  2  0
 33  5  1  0
 29 14  1  0
 22 17  1  0
  1 34  1  0
  1 35  1  0
  1 36  1  0
  6 37  1  0
  7 38  1  0
  9 39  1  0
 12 40  1  0
 12 41  1  0
 18 42  1  0
 19 43  1  0
 20 44  1  0
 21 45  1  0
 22 46  1  0
 23 47  1  0
 32 48  1  0
 33 49  1  0
M  END
>  <Binding energies>  (1) 
[-8.51]

>  <Ligand effiencies>  (1) 
[-0.25029411764705883]

>  <Interactions>  (1) 
["H-B:ALA:541:N:9863, V-A:ASP:366:CG:3212, V-B:GLU:543:CD:9880, V-B:ALA:541:CB:9864, V-A:PRO:482:CG:4326, V-B:PRO:540:CB:9857, V-B:TYR:539:CE2:9848, V-B:PRO:540:CD:9859, V-B:PRO:540:N:9856, V-B:PRO:540:CA:9855, V-B:MET:535:CE:9807, V-B:TYR:539:CA:9841, V-B:TYR:539:CD2:9846, V-B:TYR:531:CE2:9765, V-B:TYR:539:C:9839, V-B:TYR:531:CZ:9766, V-B:LEU:363:CD1:8160, V-A:ASP:366:CB:3211, V-A:LEU:475:CD1:4257, V-B:ALA:541:CA:9862, V-B:PRO:540:C:9853, V-B:TYR:539:CZ:9849, V-A:ASP:366:CA:3209, V-A:ASP:366:C:3207, V-B:LEU:363:CB:8158, V-B:TYR:539:CB:9843, V-B:ILE:538:CA:9832, H-A:SER:385:OG:3409, H-A:HIS:383:NE2:3393, H-B:LEU:363:N:8157, V-A:HIS:383:CE1:3392, V-B:VAL:344:CG1:7972, V-A:TYR:531:CE1:4792, V-B:MET:535:CG:9805, V-B:ILE:538:C:9830, V-B:PRO:540:CG:9858, V-B:LEU:363:CG:8159"]

$$$$
3ac_Grossjean_2025
     RDKit          3D

 47 49  0  0  0  0  0  0  0  0999 V2000
  128.7700  132.3290   55.0260 C   0  0  0  0  0  0  0  0  0  0  0  0
  129.7040  132.3500   56.1010 O   0  0  0  0  0  0  0  0  0  0  0  0
  130.3360  131.1770   56.4690 C   0  0  0  0  0  0  0  0  0  0  0  0
  129.6070  130.0000   56.3050 C   0  0  0  0  0  0  0  0  0  0  0  0
  130.1620  128.7700   56.6450 C   0  0  0  0  0  0  0  0  0  0  0  0
  131.4560  128.7010   57.1650 C   0  0  0  0  0  0  0  0  0  0  0  0
  131.9390  127.4120   57.4590 N   0  0  0  0  0  0  0  0  0  0  0  0
  131.9610  126.3120   56.6760 C   0  0  0  0  0  0  0  0  0  0  0  0
  131.5830  126.2650   55.5050 O   0  0  0  0  0  0  0  0  0  0  0  0
  132.5110  125.0460   57.3340 C   0  0  0  0  0  0  0  0  0  0  0  0
  132.2410  125.0320   59.1330 S   0  0  0  0  0  0  0  0  0  0  0  0
  131.1280  123.6990   59.5340 C   0  0  0  0  0  0  0  0  0  0  0  0
  129.9320  123.7950   58.9050 N   0  0  0  0  0  0  0  0  0  0  0  0
  128.9820  122.8460   59.1080 C   0  0  0  0  0  0  0  0  0  0  0  0
  127.6840  123.0310   58.3800 C   0  0  0  0  0  0  0  0  0  0  0  0
  127.3200  122.1710   57.3300 C   0  0  0  0  0  0  0  0  0  0  0  0
  126.1140  122.3340   56.6550 C   0  0  0  0  0  0  0  0  0  0  0  0
  125.2530  123.3640   57.0190 C   0  0  0  0  0  0  0  0  0  0  0  0
  125.5900  124.2330   58.0510 C   0  0  0  0  0  0  0  0  0  0  0  0
  126.7980  124.0660   58.7240 C   0  0  0  0  0  0  0  0  0  0  0  0
  129.2140  121.7740   59.9750 C   0  0  0  0  0  0  0  0  0  0  0  0
  130.4360  121.6630   60.6560 C   0  0  0  0  0  0  0  0  0  0  0  0
  130.6480  120.4680   61.6060 C   0  0  0  0  0  0  0  0  0  0  0  0
  130.7410  120.8350   62.8860 F   0  0  0  0  0  0  0  0  0  0  0  0
  129.6260  119.6150   61.5110 F   0  0  0  0  0  0  0  0  0  0  0  0
  131.7740  119.8290   61.2860 F   0  0  0  0  0  0  0  0  0  0  0  0
  131.4220  122.6580   60.4450 C   0  0  0  0  0  0  0  0  0  0  0  0
  132.6810  122.6270   61.1920 C   0  0  0  0  0  0  0  0  0  0  0  0
  133.6770  122.6010   61.7820 N   0  0  0  0  0  0  0  0  0  0  0  0
  132.1990  129.8810   57.3260 C   0  0  0  0  0  0  0  0  0  0  0  0
  131.6400  131.1100   56.9840 C   0  0  0  0  0  0  0  0  0  0  0  0
  127.7470  132.3060   55.4295 H   0  0  0  0  0  0  0  0  0  0  0  0
  128.9006  133.2303   54.4091 H   0  0  0  0  0  0  0  0  0  0  0  0
  128.9410  131.4345   54.4091 H   0  0  0  0  0  0  0  0  0  0  0  0
  128.5839  130.0440   55.9032 H   0  0  0  0  0  0  0  0  0  0  0  0
  129.5788  127.8481   56.5035 H   0  0  0  0  0  0  0  0  0  0  0  0
  132.3690  127.3250   58.3680 H   0  0  0  0  0  0  0  0  0  0  0  0
  132.0092  124.1716   56.8939 H   0  0  0  0  0  0  0  0  0  0  0  0
  133.5961  125.0175   57.1557 H   0  0  0  0  0  0  0  0  0  0  0  0
  127.9988  121.3564   57.0371 H   0  0  0  0  0  0  0  0  0  0  0  0
  125.8427  121.6509   55.8367 H   0  0  0  0  0  0  0  0  0  0  0  0
  124.2989  123.4920   56.4868 H   0  0  0  0  0  0  0  0  0  0  0  0
  124.9068  125.0473   58.3341 H   0  0  0  0  0  0  0  0  0  0  0  0
  127.0629  124.7561   59.5386 H   0  0  0  0  0  0  0  0  0  0  0  0
  128.4339  121.0129   60.1242 H   0  0  0  0  0  0  0  0  0  0  0  0
  133.2239  129.8350   57.7227 H   0  0  0  0  0  0  0  0  0  0  0  0
  132.2234  132.0328   57.1182 H   0  0  0  0  0  0  0  0  0  0  0  0
  1  2  1  0
  2  3  1  0
  3  4  2  0
  4  5  1  0
  5  6  2  0
  6  7  1  0
  7  8  1  0
  8  9  2  0
  8 10  1  0
 10 11  1  0
 11 12  1  0
 12 13  2  0
 13 14  1  0
 14 15  1  0
 15 16  2  0
 16 17  1  0
 17 18  2  0
 18 19  1  0
 19 20  2  0
 14 21  2  0
 21 22  1  0
 22 23  1  0
 23 24  1  0
 23 25  1  0
 23 26  1  0
 22 27  2  0
 27 28  1  0
 28 29  3  0
  6 30  1  0
 30 31  2  0
 31  3  1  0
 27 12  1  0
 20 15  1  0
  1 32  1  0
  1 33  1  0
  1 34  1  0
  4 35  1  0
  5 36  1  0
  7 37  1  0
 10 38  1  0
 10 39  1  0
 16 40  1  0
 17 41  1  0
 18 42  1  0
 19 43  1  0
 20 44  1  0
 21 45  1  0
 30 46  1  0
 31 47  1  0
M  END
>  <Binding energies>  (1) 
[-8.5]

>  <Ligand effiencies>  (1) 
[-0.265625]

>  <Interactions>  (1) 
["V-A:ASP:366:CG:3212, V-B:ALA:541:CB:9864, V-A:TYR:539:CD1:4873, V-A:ILE:538:CB:4862, H-A:ASP:366:OD2:3214, V-A:TYR:539:CE1:4875, V-A:ILE:538:CA:4860, V-A:TYR:539:CD2:4874, V-A:TYR:539:CE2:4876, V-A:TYR:539:CZ:4877, V-A:ILE:538:C:4858, V-A:TYR:539:CG:4872, V-B:PRO:540:CB:9857, V-B:TYR:539:CE2:9848, V-B:PRO:540:CD:9859, V-B:PRO:540:N:9856, V-B:PRO:540:CA:9855, V-B:MET:535:CE:9807, V-B:TYR:539:CD2:9846, V-B:TYR:531:CE2:9765, V-B:TYR:539:C:9839, V-B:LEU:363:CD1:8160, V-A:ASP:366:CB:3211, V-A:LEU:475:CD1:4257, V-B:ALA:541:CA:9862, V-B:PRO:540:C:9853, V-B:TYR:539:CZ:9849, H-B:TYR:539:OH:9850, H-A:TYR:531:OH:4795, H-A:TYR:539:N:4870, V-A:ASP:366:CA:3209, V-A:ASP:366:C:3207"]

$$$$
3ad_Grossjean_2025
     RDKit          3D

 43 45  0  0  0  0  0  0  0  0999 V2000
  130.8910  126.2540   54.6290 N   0  0  0  0  0  0  0  0  0  0  0  0
  130.1100  126.7630   55.3140 C   0  0  0  0  0  0  0  0  0  0  0  0
  129.1190  127.4050   56.1850 C   0  0  0  0  0  0  0  0  0  0  0  0
  128.4920  126.6790   57.2260 C   0  0  0  0  0  0  0  0  0  0  0  0
  128.8330  125.2100   57.5390 C   0  0  0  0  0  0  0  0  0  0  0  0
  128.2210  124.7580   58.6360 F   0  0  0  0  0  0  0  0  0  0  0  0
  128.4620  124.4310   56.5220 F   0  0  0  0  0  0  0  0  0  0  0  0
  130.1460  125.0750   57.7310 F   0  0  0  0  0  0  0  0  0  0  0  0
  127.5170  127.3270   58.0000 C   0  0  0  0  0  0  0  0  0  0  0  0
  127.1760  128.6580   57.7400 C   0  0  0  0  0  0  0  0  0  0  0  0
  126.1310  129.3930   58.5270 C   0  0  0  0  0  0  0  0  0  0  0  0
  126.1850  129.4320   59.9290 C   0  0  0  0  0  0  0  0  0  0  0  0
  125.2190  130.1130   60.6650 C   0  0  0  0  0  0  0  0  0  0  0  0
  124.1820  130.7670   60.0050 C   0  0  0  0  0  0  0  0  0  0  0  0
  124.1090  130.7460   58.6170 C   0  0  0  0  0  0  0  0  0  0  0  0
  125.0770  130.0640   57.8840 C   0  0  0  0  0  0  0  0  0  0  0  0
  127.7760  129.3470   56.7370 N   0  0  0  0  0  0  0  0  0  0  0  0
  128.7340  128.7500   55.9890 C   0  0  0  0  0  0  0  0  0  0  0  0
  129.4180  129.8050   54.7310 S   0  0  0  0  0  0  0  0  0  0  0  0
  129.2680  131.5180   55.3220 C   0  0  0  0  0  0  0  0  0  0  0  0
  130.3400  131.8680   56.3570 C   0  0  0  0  0  0  0  0  0  0  0  0
  131.0670  132.8420   56.1600 O   0  0  0  0  0  0  0  0  0  0  0  0
  130.3970  131.0510   57.4310 N   0  0  0  0  0  0  0  0  0  0  0  0
  131.2430  131.0980   58.5540 C   0  0  0  0  0  0  0  0  0  0  0  0
  132.5990  130.8680   58.3020 C   0  0  0  0  0  0  0  0  0  0  0  0
  133.5210  130.8870   59.3440 C   0  0  0  0  0  0  0  0  0  0  0  0
  133.0880  131.1340   60.6440 C   0  0  0  0  0  0  0  0  0  0  0  0
  131.7410  131.3580   60.9110 C   0  0  0  0  0  0  0  0  0  0  0  0
  130.8140  131.3390   59.8710 C   0  0  0  0  0  0  0  0  0  0  0  0
  127.0179  126.7844   58.8164 H   0  0  0  0  0  0  0  0  0  0  0  0
  127.0028  128.9168   60.4542 H   0  0  0  0  0  0  0  0  0  0  0  0
  125.2748  130.1343   61.7634 H   0  0  0  0  0  0  0  0  0  0  0  0
  123.4164  131.3032   60.5850 H   0  0  0  0  0  0  0  0  0  0  0  0
  123.2895  131.2662   58.0995 H   0  0  0  0  0  0  0  0  0  0  0  0
  125.0156  130.0504   56.7858 H   0  0  0  0  0  0  0  0  0  0  0  0
  129.3682  132.1989   54.4639 H   0  0  0  0  0  0  0  0  0  0  0  0
  128.2851  131.6242   55.8044 H   0  0  0  0  0  0  0  0  0  0  0  0
  129.7680  130.2620   57.4220 H   0  0  0  0  0  0  0  0  0  0  0  0
  132.9387  130.6710   57.2745 H   0  0  0  0  0  0  0  0  0  0  0  0
  134.5872  130.7077   59.1415 H   0  0  0  0  0  0  0  0  0  0  0  0
  133.8173  131.1522   61.4673 H   0  0  0  0  0  0  0  0  0  0  0  0
  131.4084  131.5498   61.9418 H   0  0  0  0  0  0  0  0  0  0  0  0
  129.7480  131.5123   60.0801 H   0  0  0  0  0  0  0  0  0  0  0  0
  1  2  3  0
  2  3  1  0
  3  4  2  0
  4  5  1  0
  5  6  1  0
  5  7  1  0
  5  8  1  0
  4  9  1  0
  9 10  2  0
 10 11  1  0
 11 12  2  0
 12 13  1  0
 13 14  2  0
 14 15  1  0
 15 16  2  0
 10 17  1  0
 17 18  2  0
 18 19  1  0
 19 20  1  0
 20 21  1  0
 21 22  2  0
 21 23  1  0
 23 24  1  0
 24 25  2  0
 25 26  1  0
 26 27  2  0
 27 28  1  0
 28 29  2  0
 18  3  1  0
 29 24  1  0
 16 11  1  0
  9 30  1  0
 12 31  1  0
 13 32  1  0
 14 33  1  0
 15 34  1  0
 16 35  1  0
 20 36  1  0
 20 37  1  0
 23 38  1  0
 25 39  1  0
 26 40  1  0
 27 41  1  0
 28 42  1  0
 29 43  1  0
M  END
>  <Binding energies>  (1) 
[-7.76]

>  <Ligand effiencies>  (1) 
[-0.25866666666666666]

>  <Interactions>  (1) 
["V-A:ASP:366:CG:3212, V-A:PRO:540:CB:4885, V-A:LEU:363:CD1:3188, V-A:TYR:539:CE1:4875, V-A:PRO:540:CA:4883, V-B:ILE:369:CG2:8208, V-B:ASP:366:CG:8184, V-B:ASP:366:CA:8181, V-B:ILE:369:CD1:8210, H-B:TYR:531:OH:9767, V-B:ILE:369:CB:8207, V-B:ASP:366:CB:8183, V-A:TYR:539:CZ:4877, V-B:ASP:366:C:8179, V-B:MET:535:CE:9807, V-A:ASP:366:CB:3211, H-B:TYR:539:OH:9850, H-A:TYR:531:OH:4795, V-A:PRO:540:C:4881, V-A:LEU:363:CA:3184, V-A:ASN:362:CB:3175, V-A:ASN:362:C:3171, V-A:LEU:363:CB:3186, H-A:TYR:539:N:4870"]

$$$$
3af_Grossjean_2025
     RDKit          3D

 42 44  0  0  0  0  0  0  0  0999 V2000
  123.9060  131.1230   59.2990 N   0  0  0  0  0  0  0  0  0  0  0  0
  125.0510  131.1390   59.4730 C   0  0  0  0  0  0  0  0  0  0  0  0
  126.4990  131.1600   59.6940 C   0  0  0  0  0  0  0  0  0  0  0  0
  127.0980  132.1910   60.4570 C   0  0  0  0  0  0  0  0  0  0  0  0
  126.2800  133.3090   61.1330 C   0  0  0  0  0  0  0  0  0  0  0  0
  125.5270  133.9950   60.2700 F   0  0  0  0  0  0  0  0  0  0  0  0
  125.4650  132.7860   62.0500 F   0  0  0  0  0  0  0  0  0  0  0  0
  127.0970  134.1800   61.7260 F   0  0  0  0  0  0  0  0  0  0  0  0
  128.4950  132.1990   60.5960 C   0  0  0  0  0  0  0  0  0  0  0  0
  129.2700  131.2060   59.9880 C   0  0  0  0  0  0  0  0  0  0  0  0
  130.7660  131.1770   60.0880 C   0  0  0  0  0  0  0  0  0  0  0  0
  131.4120  131.4950   61.2940 C   0  0  0  0  0  0  0  0  0  0  0  0
  132.8000  131.4670   61.3930 C   0  0  0  0  0  0  0  0  0  0  0  0
  133.5640  131.1190   60.2850 C   0  0  0  0  0  0  0  0  0  0  0  0
  132.9500  130.7960   59.0790 C   0  0  0  0  0  0  0  0  0  0  0  0
  131.5610  130.8240   58.9840 C   0  0  0  0  0  0  0  0  0  0  0  0
  128.6920  130.2210   59.2550 N   0  0  0  0  0  0  0  0  0  0  0  0
  127.3440  130.1800   59.1260 C   0  0  0  0  0  0  0  0  0  0  0  0
  126.7710  128.8090   58.1420 S   0  0  0  0  0  0  0  0  0  0  0  0
  126.1510  129.4690   56.5650 C   0  0  0  0  0  0  0  0  0  0  0  0
  127.2170  130.2800   55.8300 C   0  0  0  0  0  0  0  0  0  0  0  0
  126.9620  130.7310   54.7130 O   0  0  0  0  0  0  0  0  0  0  0  0
  128.3860  130.4310   56.4890 N   0  0  0  0  0  0  0  0  0  0  0  0
  129.5590  131.1050   56.0950 C   0  0  0  0  0  0  0  0  0  0  0  0
  130.4110  130.7240   55.0420 C   0  0  0  0  0  0  0  0  0  0  0  0
  131.5460  131.4870   54.7620 C   0  0  0  0  0  0  0  0  0  0  0  0
  131.8040  132.6150   55.5430 C   0  0  0  0  0  0  0  0  0  0  0  0
  130.9980  133.0030   56.5620 N   0  0  0  0  0  0  0  0  0  0  0  0
  129.8990  132.2510   56.8220 C   0  0  0  0  0  0  0  0  0  0  0  0
  128.9822  132.9896   61.1856 H   0  0  0  0  0  0  0  0  0  0  0  0
  130.8117  131.7704   62.1737 H   0  0  0  0  0  0  0  0  0  0  0  0
  133.2907  131.7193   62.3446 H   0  0  0  0  0  0  0  0  0  0  0  0
  134.6611  131.0989   60.3622 H   0  0  0  0  0  0  0  0  0  0  0  0
  133.5585  130.5200   58.2052 H   0  0  0  0  0  0  0  0  0  0  0  0
  131.0784  130.5658   58.0299 H   0  0  0  0  0  0  0  0  0  0  0  0
  125.8389  128.6297   55.9261 H   0  0  0  0  0  0  0  0  0  0  0  0
  125.3043  130.1364   56.7834 H   0  0  0  0  0  0  0  0  0  0  0  0
  128.4390  130.0080   57.4030 H   0  0  0  0  0  0  0  0  0  0  0  0
  130.1840  129.8299   54.4428 H   0  0  0  0  0  0  0  0  0  0  0  0
  132.2234  131.2051   53.9425 H   0  0  0  0  0  0  0  0  0  0  0  0
  132.6994  133.2146   55.3223 H   0  0  0  0  0  0  0  0  0  0  0  0
  129.2407  132.5585   57.6478 H   0  0  0  0  0  0  0  0  0  0  0  0
  1  2  3  0
  2  3  1  0
  3  4  2  0
  4  5  1  0
  5  6  1  0
  5  7  1  0
  5  8  1  0
  4  9  1  0
  9 10  2  0
 10 11  1  0
 11 12  2  0
 12 13  1  0
 13 14  2  0
 14 15  1  0
 15 16  2  0
 10 17  1  0
 17 18  2  0
 18 19  1  0
 19 20  1  0
 20 21  1  0
 21 22  2  0
 21 23  1  0
 23 24  1  0
 24 25  2  0
 25 26  1  0
 26 27  2  0
 27 28  1  0
 28 29  2  0
 18  3  1  0
 29 24  1  0
 16 11  1  0
  9 30  1  0
 12 31  1  0
 13 32  1  0
 14 33  1  0
 15 34  1  0
 16 35  1  0
 20 36  1  0
 20 37  1  0
 23 38  1  0
 25 39  1  0
 26 40  1  0
 27 41  1  0
 29 42  1  0
M  END
>  <Binding energies>  (1) 
[-7.83]

>  <Ligand effiencies>  (1) 
[-0.261]

>  <Interactions>  (1) 
["V-A:ASP:366:CG:3212, V-A:TYR:539:CD1:4873, H-A:TYR:539:OH:4878, V-A:PRO:540:CB:4885, V-A:ILE:538:CB:4862, V-A:ILE:538:CG2:4863, V-A:LEU:363:CD1:3188, V-A:PRO:540:N:4884, V-A:TYR:531:CE2:4793, V-A:TYR:539:CE1:4875, V-A:PRO:540:CA:4883, H-B:LYS:534:NZ:9795, V-B:ILE:369:CG2:8208, V-B:LEU:475:CD1:9229, V-A:ALA:541:CB:4892, H-B:TYR:531:OH:9767, V-A:TYR:531:CZ:4794, V-A:ILE:538:CA:4860, V-A:TYR:539:C:4867, V-A:PRO:540:CD:4887, V-A:TYR:539:CZ:4877, V-B:TYR:531:CZ:9766, V-B:TYR:531:CE1:9764, V-A:PRO:540:C:4881, V-A:LEU:363:CA:3184, V-A:ASN:362:CB:3175, V-A:ASN:362:C:3171, H-A:TYR:539:N:4870, V-A:TYR:539:CA:4869"]

$$$$
3ag_Grossjean_2025
     RDKit          3D

 46 48  0  0  0  0  0  0  0  0999 V2000
  134.2440  129.9560   57.6550 N   0  0  0  0  0  0  0  0  0  0  0  0
  133.2850  130.3190   58.1910 C   0  0  0  0  0  0  0  0  0  0  0  0
  132.0730  130.7790   58.8740 C   0  0  0  0  0  0  0  0  0  0  0  0
  132.1130  131.1760   60.2330 C   0  0  0  0  0  0  0  0  0  0  0  0
  133.4180  131.2060   61.0520 C   0  0  0  0  0  0  0  0  0  0  0  0
  133.8390  129.9880   61.4000 F   0  0  0  0  0  0  0  0  0  0  0  0
  134.3880  131.7780   60.3390 F   0  0  0  0  0  0  0  0  0  0  0  0
  133.2390  131.9010   62.1760 F   0  0  0  0  0  0  0  0  0  0  0  0
  130.9150  131.5580   60.8570 C   0  0  0  0  0  0  0  0  0  0  0  0
  129.7100  131.5320   60.1470 C   0  0  0  0  0  0  0  0  0  0  0  0
  128.4020  131.9270   60.7640 C   0  0  0  0  0  0  0  0  0  0  0  0
  128.1320  131.6480   62.1130 C   0  0  0  0  0  0  0  0  0  0  0  0
  126.9200  132.0120   62.6920 C   0  0  0  0  0  0  0  0  0  0  0  0
  125.9560  132.6610   61.9260 C   0  0  0  0  0  0  0  0  0  0  0  0
  126.1980  132.9470   60.5860 C   0  0  0  0  0  0  0  0  0  0  0  0
  127.4110  132.5810   60.0110 C   0  0  0  0  0  0  0  0  0  0  0  0
  129.6770  131.1640   58.8410 N   0  0  0  0  0  0  0  0  0  0  0  0
  130.8240  130.8100   58.2130 C   0  0  0  0  0  0  0  0  0  0  0  0
  130.5920  130.3610   56.5070 S   0  0  0  0  0  0  0  0  0  0  0  0
  129.3250  131.4700   55.8230 C   0  0  0  0  0  0  0  0  0  0  0  0
  127.9510  130.8010   55.7470 C   0  0  0  0  0  0  0  0  0  0  0  0
  127.3320  130.7890   54.6820 O   0  0  0  0  0  0  0  0  0  0  0  0
  127.4940  130.2460   56.8830 N   0  0  0  0  0  0  0  0  0  0  0  0
  126.2280  129.5280   57.0270 C   0  0  0  0  0  0  0  0  0  0  0  0
  125.5000  129.8070   58.3370 C   0  0  0  0  0  0  0  0  0  0  0  0
  124.2980  130.5200   58.3240 C   0  0  0  0  0  0  0  0  0  0  0  0
  123.6140  130.7510   59.5150 C   0  0  0  0  0  0  0  0  0  0  0  0
  124.1300  130.2600   60.7130 C   0  0  0  0  0  0  0  0  0  0  0  0
  125.3200  129.5360   60.7310 C   0  0  0  0  0  0  0  0  0  0  0  0
  126.0030  129.3040   59.5400 C   0  0  0  0  0  0  0  0  0  0  0  0
  130.9238  131.8792   61.9090 H   0  0  0  0  0  0  0  0  0  0  0  0
  128.8902  131.1337   62.7218 H   0  0  0  0  0  0  0  0  0  0  0  0
  126.7246  131.7877   63.7510 H   0  0  0  0  0  0  0  0  0  0  0  0
  124.9976  132.9494   62.3825 H   0  0  0  0  0  0  0  0  0  0  0  0
  125.4337  133.4602   59.9839 H   0  0  0  0  0  0  0  0  0  0  0  0
  127.5976  132.8068   58.9507 H   0  0  0  0  0  0  0  0  0  0  0  0
  129.2503  132.3606   56.4642 H   0  0  0  0  0  0  0  0  0  0  0  0
  129.6273  131.7375   54.7997 H   0  0  0  0  0  0  0  0  0  0  0  0
  128.0720  130.2950   57.7090 H   0  0  0  0  0  0  0  0  0  0  0  0
  125.5687  129.8202   56.1964 H   0  0  0  0  0  0  0  0  0  0  0  0
  126.4693  128.4548   57.0204 H   0  0  0  0  0  0  0  0  0  0  0  0
  123.8926  130.8984   57.3740 H   0  0  0  0  0  0  0  0  0  0  0  0
  122.6714  131.3180   59.5102 H   0  0  0  0  0  0  0  0  0  0  0  0
  123.5919  130.4461   61.6542 H   0  0  0  0  0  0  0  0  0  0  0  0
  125.7179  129.1497   61.6810 H   0  0  0  0  0  0  0  0  0  0  0  0
  126.9382  128.7250   59.5460 H   0  0  0  0  0  0  0  0  0  0  0  0
  1  2  3  0
  2  3  1  0
  3  4  2  0
  4  5  1  0
  5  6  1  0
  5  7  1  0
  5  8  1  0
  4  9  1  0
  9 10  2  0
 10 11  1  0
 11 12  2  0
 12 13  1  0
 13 14  2  0
 14 15  1  0
 15 16  2  0
 10 17  1  0
 17 18  2  0
 18 19  1  0
 19 20  1  0
 20 21  1  0
 21 22  2  0
 21 23  1  0
 23 24  1  0
 24 25  1  0
 25 26  2  0
 26 27  1  0
 27 28  2  0
 28 29  1  0
 29 30  2  0
 18  3  1  0
 30 25  1  0
 16 11  1  0
  9 31  1  0
 12 32  1  0
 13 33  1  0
 14 34  1  0
 15 35  1  0
 16 36  1  0
 20 37  1  0
 20 38  1  0
 23 39  1  0
 24 40  1  0
 24 41  1  0
 26 42  1  0
 27 43  1  0
 28 44  1  0
 29 45  1  0
 30 46  1  0
M  END
>  <Binding energies>  (1) 
[-7.38]

>  <Ligand effiencies>  (1) 
[-0.23806451612903226]

>  <Interactions>  (1) 
["V-A:ARG:545:CZ:4926, V-A:ASP:366:CG:3212, V-A:TYR:539:CD1:4873, H-A:TYR:539:OH:4878, V-A:PRO:540:CB:4885, V-A:LEU:363:CD1:3188, V-A:TYR:539:CE1:4875, V-A:PRO:540:CA:4883, H-B:LYS:534:NZ:9795, V-B:ILE:369:CG2:8208, V-B:ASP:366:CG:8184, V-B:ASP:366:CA:8181, V-B:LEU:475:CD1:9229, V-A:ALA:541:CB:4892, V-B:ILE:369:CD1:8210, V-B:ILE:369:CB:8207, V-B:ASP:366:CB:8183, V-A:TYR:539:CZ:4877, V-B:ASP:366:C:8179, V-B:TYR:531:CZ:9766, V-A:ASP:366:CB:3211, V-B:TYR:531:CE1:9764, H-A:TYR:531:OH:4795, V-A:PRO:540:C:4881, V-A:LEU:363:CA:3184, V-A:ASN:362:CB:3175, V-A:ASN:362:C:3171, V-A:LEU:363:CB:3186, V-A:ASN:362:CA:3173, V-A:ALA:541:C:4888, V-A:ASN:362:CG:3176"]

$$$$
3ai_Grossjean_2025
     RDKit          3D

 39 41  0  0  0  0  0  0  0  0999 V2000
  124.1180  131.1730   59.3680 N   0  0  0  0  0  0  0  0  0  0  0  0
  125.2660  131.1900   59.5120 C   0  0  0  0  0  0  0  0  0  0  0  0
  126.7200  131.2130   59.6960 C   0  0  0  0  0  0  0  0  0  0  0  0
  127.3440  132.2690   60.4040 C   0  0  0  0  0  0  0  0  0  0  0  0
  126.5490  133.4170   61.0550 C   0  0  0  0  0  0  0  0  0  0  0  0
  125.6500  133.9580   60.2290 F   0  0  0  0  0  0  0  0  0  0  0  0
  125.8920  132.9660   62.1250 F   0  0  0  0  0  0  0  0  0  0  0  0
  127.3770  134.3910   61.4340 F   0  0  0  0  0  0  0  0  0  0  0  0
  128.7430  132.2690   60.5110 C   0  0  0  0  0  0  0  0  0  0  0  0
  129.4980  131.2480   59.9270 C   0  0  0  0  0  0  0  0  0  0  0  0
  130.9950  131.2040   60.0010 C   0  0  0  0  0  0  0  0  0  0  0  0
  131.6590  131.4300   61.2170 C   0  0  0  0  0  0  0  0  0  0  0  0
  133.0480  131.3860   61.2940 C   0  0  0  0  0  0  0  0  0  0  0  0
  133.7940  131.1140   60.1520 C   0  0  0  0  0  0  0  0  0  0  0  0
  133.1610  130.8850   58.9360 C   0  0  0  0  0  0  0  0  0  0  0  0
  131.7720  130.9290   58.8620 C   0  0  0  0  0  0  0  0  0  0  0  0
  128.8970  130.2420   59.2410 N   0  0  0  0  0  0  0  0  0  0  0  0
  127.5460  130.2060   59.1450 C   0  0  0  0  0  0  0  0  0  0  0  0
  126.9370  128.8040   58.2310 S   0  0  0  0  0  0  0  0  0  0  0  0
  126.4660  129.3830   56.5650 C   0  0  0  0  0  0  0  0  0  0  0  0
  127.4590  130.3550   55.9120 C   0  0  0  0  0  0  0  0  0  0  0  0
  127.1700  130.9440   54.8670 O   0  0  0  0  0  0  0  0  0  0  0  0
  128.6320  130.4910   56.5700 N   0  0  0  0  0  0  0  0  0  0  0  0
  129.7060  131.2990   56.2190 C   0  0  0  0  0  0  0  0  0  0  0  0
  130.8200  130.8270   55.5260 C   0  0  0  0  0  0  0  0  0  0  0  0
  131.6410  131.9210   55.3790 C   0  0  0  0  0  0  0  0  0  0  0  0
  131.0520  132.9970   55.9540 O   0  0  0  0  0  0  0  0  0  0  0  0
  129.8260  132.5900   56.4820 N   0  0  0  0  0  0  0  0  0  0  0  0
  129.2490  133.0780   61.0582 H   0  0  0  0  0  0  0  0  0  0  0  0
  131.0728  131.6451   62.1226 H   0  0  0  0  0  0  0  0  0  0  0  0
  133.5538  131.5656   62.2542 H   0  0  0  0  0  0  0  0  0  0  0  0
  134.8919  131.0799   60.2116 H   0  0  0  0  0  0  0  0  0  0  0  0
  133.7555  130.6699   58.0358 H   0  0  0  0  0  0  0  0  0  0  0  0
  131.2747  130.7459   57.8981 H   0  0  0  0  0  0  0  0  0  0  0  0
  126.3703  128.5029   55.9121 H   0  0  0  0  0  0  0  0  0  0  0  0
  125.5253  129.9399   56.6872 H   0  0  0  0  0  0  0  0  0  0  0  0
  128.7530  129.9530   57.4160 H   0  0  0  0  0  0  0  0  0  0  0  0
  131.0029  129.8013   55.1730 H   0  0  0  0  0  0  0  0  0  0  0  0
  132.6189  131.9219   54.8753 H   0  0  0  0  0  0  0  0  0  0  0  0
  1  2  3  0
  2  3  1  0
  3  4  2  0
  4  5  1  0
  5  6  1  0
  5  7  1  0
  5  8  1  0
  4  9  1  0
  9 10  2  0
 10 11  1  0
 11 12  2  0
 12 13  1  0
 13 14  2  0
 14 15  1  0
 15 16  2  0
 10 17  1  0
 17 18  2  0
 18 19  1  0
 19 20  1  0
 20 21  1  0
 21 22  2  0
 21 23  1  0
 23 24  1  0
 24 25  1  0
 25 26  2  0
 26 27  1  0
 27 28  1  0
 18  3  1  0
 28 24  2  0
 16 11  1  0
  9 29  1  0
 12 30  1  0
 13 31  1  0
 14 32  1  0
 15 33  1  0
 16 34  1  0
 20 35  1  0
 20 36  1  0
 23 37  1  0
 25 38  1  0
 26 39  1  0
M  END
>  <Binding energies>  (1) 
[-8.27]

>  <Ligand effiencies>  (1) 
[-0.28517241379310343]

>  <Interactions>  (1) 
["V-A:ASP:366:CG:3212, V-A:TYR:539:CD1:4873, H-A:TYR:539:OH:4878, V-A:PRO:540:CB:4885, V-A:ILE:538:CB:4862, V-A:ILE:538:CG2:4863, V-A:LEU:363:CD1:3188, V-A:TYR:531:CE2:4793, V-A:TYR:539:CE1:4875, V-A:PRO:540:CA:4883, H-B:LYS:534:NZ:9795, V-B:ILE:369:CG2:8208, V-B:LEU:475:CD1:9229, V-A:ALA:541:CB:4892, H-B:TYR:531:OH:9767, V-A:TYR:531:CZ:4794, V-A:TYR:539:CZ:4877, V-B:TYR:531:CZ:9766, V-B:TYR:531:CE1:9764, V-A:PRO:540:C:4881, V-A:LEU:363:CA:3184, V-A:ASN:362:CB:3175, V-A:ASN:362:C:3171, H-A:TYR:539:N:4870"]

$$$$
3aj_Grossjean_2025
     RDKit          3D

 39 41  0  0  0  0  0  0  0  0999 V2000
  123.7030  131.2120   60.1290 N   0  0  0  0  0  0  0  0  0  0  0  0
  124.8600  131.1950   60.1300 C   0  0  0  0  0  0  0  0  0  0  0  0
  126.3260  131.1760   60.1340 C   0  0  0  0  0  0  0  0  0  0  0  0
  127.0590  132.0850   60.9350 C   0  0  0  0  0  0  0  0  0  0  0  0
  126.3810  133.1040   61.8710 C   0  0  0  0  0  0  0  0  0  0  0  0
  127.2360  134.0070   62.3590 F   0  0  0  0  0  0  0  0  0  0  0  0
  125.4300  133.7660   61.2110 F   0  0  0  0  0  0  0  0  0  0  0  0
  125.8300  132.4750   62.9090 F   0  0  0  0  0  0  0  0  0  0  0  0
  128.4610  132.0580   60.8670 C   0  0  0  0  0  0  0  0  0  0  0  0
  129.1110  131.1530   60.0200 C   0  0  0  0  0  0  0  0  0  0  0  0
  130.6030  131.0890   59.9020 C   0  0  0  0  0  0  0  0  0  0  0  0
  131.4190  131.2780   61.0270 C   0  0  0  0  0  0  0  0  0  0  0  0
  132.8070  131.2150   60.9250 C   0  0  0  0  0  0  0  0  0  0  0  0
  133.3980  130.9640   59.6910 C   0  0  0  0  0  0  0  0  0  0  0  0
  132.6100  130.7720   58.5600 C   0  0  0  0  0  0  0  0  0  0  0  0
  131.2240  130.8340   58.6680 C   0  0  0  0  0  0  0  0  0  0  0  0
  128.4030  130.2890   59.2490 N   0  0  0  0  0  0  0  0  0  0  0  0
  127.0500  130.2800   59.3150 C   0  0  0  0  0  0  0  0  0  0  0  0
  126.2960  129.0670   58.2530 S   0  0  0  0  0  0  0  0  0  0  0  0
  125.9500  129.8670   56.6490 C   0  0  0  0  0  0  0  0  0  0  0  0
  127.1930  130.2600   55.8370 C   0  0  0  0  0  0  0  0  0  0  0  0
  127.2830  129.9720   54.6410 O   0  0  0  0  0  0  0  0  0  0  0  0
  128.1370  130.9260   56.5380 N   0  0  0  0  0  0  0  0  0  0  0  0
  129.3480  131.4020   56.0530 C   0  0  0  0  0  0  0  0  0  0  0  0
  129.9990  132.4830   56.4260 N   0  0  0  0  0  0  0  0  0  0  0  0
  131.1240  132.6290   55.7540 C   0  0  0  0  0  0  0  0  0  0  0  0
  131.4060  131.6470   54.8070 C   0  0  0  0  0  0  0  0  0  0  0  0
  130.1210  130.4780   54.8050 S   0  0  0  0  0  0  0  0  0  0  0  0
  129.0519  132.7520   61.4828 H   0  0  0  0  0  0  0  0  0  0  0  0
  130.9561  131.4790   62.0044 H   0  0  0  0  0  0  0  0  0  0  0  0
  133.4333  131.3632   61.8171 H   0  0  0  0  0  0  0  0  0  0  0  0
  134.4939  130.9170   59.6087 H   0  0  0  0  0  0  0  0  0  0  0  0
  133.0803  130.5723   57.5859 H   0  0  0  0  0  0  0  0  0  0  0  0
  130.6043  130.6808   57.7722 H   0  0  0  0  0  0  0  0  0  0  0  0
  125.3525  129.1705   56.0424 H   0  0  0  0  0  0  0  0  0  0  0  0
  125.4255  130.8057   56.8809 H   0  0  0  0  0  0  0  0  0  0  0  0
  127.9510  131.1100   57.5130 H   0  0  0  0  0  0  0  0  0  0  0  0
  131.8011  133.4776   55.9310 H   0  0  0  0  0  0  0  0  0  0  0  0
  132.2982  131.6167   54.1643 H   0  0  0  0  0  0  0  0  0  0  0  0
  1  2  3  0
  2  3  1  0
  3  4  2  0
  4  5  1  0
  5  6  1  0
  5  7  1  0
  5  8  1  0
  4  9  1  0
  9 10  2  0
 10 11  1  0
 11 12  2  0
 12 13  1  0
 13 14  2  0
 14 15  1  0
 15 16  2  0
 10 17  1  0
 17 18  2  0
 18 19  1  0
 19 20  1  0
 20 21  1  0
 21 22  2  0
 21 23  1  0
 23 24  1  0
 24 25  2  0
 25 26  1  0
 26 27  2  0
 27 28  1  0
 18  3  1  0
 28 24  1  0
 16 11  1  0
  9 29  1  0
 12 30  1  0
 13 31  1  0
 14 32  1  0
 15 33  1  0
 16 34  1  0
 20 35  1  0
 20 36  1  0
 23 37  1  0
 26 38  1  0
 27 39  1  0
M  END
>  <Binding energies>  (1) 
[-7.33]

>  <Ligand effiencies>  (1) 
[-0.25275862068965516]

>  <Interactions>  (1) 
["V-A:ASP:366:CG:3212, V-A:TYR:539:CD1:4873, H-A:TYR:539:OH:4878, V-A:PRO:540:CB:4885, V-A:ILE:538:CB:4862, V-A:ILE:538:CG2:4863, V-A:PRO:540:N:4884, V-A:TYR:531:CE2:4793, V-A:TYR:539:CE1:4875, V-A:PRO:540:CA:4883, H-B:LYS:534:NZ:9795, V-B:ILE:369:CG2:8208, V-B:LEU:475:CD1:9229, V-A:ALA:541:CB:4892, H-B:TYR:531:OH:9767, V-A:TYR:531:CZ:4794, V-A:ILE:538:CA:4860, V-A:PRO:540:CD:4887, V-A:ALA:541:CA:4890, V-A:TYR:539:CZ:4877, V-A:ILE:538:C:4858, V-B:TYR:531:CZ:9766, V-B:TYR:531:CE1:9764, V-A:PRO:540:C:4881, V-A:LEU:363:CA:3184, V-A:ASN:362:CB:3175, V-A:ASN:362:C:3171, H-A:TYR:539:N:4870"]

$$$$
3ak_Grossjean_2025
     RDKit          3D

 57 58  0  0  0  0  0  0  0  0999 V2000
  133.2120  118.9240   60.0510 C   0  0  0  0  0  0  0  0  0  0  0  0
  132.4360  118.0030   60.8020 O   0  0  0  0  0  0  0  0  0  0  0  0
  131.0560  118.0220   60.4660 C   0  0  0  0  0  0  0  0  0  0  0  0
  130.3310  119.0090   61.3890 C   0  0  0  0  0  0  0  0  0  0  0  0
  130.6910  120.3370   61.0220 O   0  0  0  0  0  0  0  0  0  0  0  0
  129.8170  121.3620   61.4870 C   0  0  0  0  0  0  0  0  0  0  0  0
  128.8750  121.9140   60.4020 C   0  0  0  0  0  0  0  0  0  0  0  0
  127.7430  122.5070   61.0240 O   0  0  0  0  0  0  0  0  0  0  0  0
  128.0690  123.4210   62.0620 C   0  0  0  0  0  0  0  0  0  0  0  0
  127.0710  124.5940   62.0690 C   0  0  0  0  0  0  0  0  0  0  0  0
  125.9180  124.3870   61.1910 N   0  0  0  0  0  0  0  0  0  0  0  0
  125.0690  123.3420   61.2340 C   0  0  0  0  0  0  0  0  0  0  0  0
  125.1720  122.4320   62.0570 O   0  0  0  0  0  0  0  0  0  0  0  0
  123.9210  123.2780   60.2130 C   0  0  0  0  0  0  0  0  0  0  0  0
  124.3910  123.3750   58.4460 S   0  0  0  0  0  0  0  0  0  0  0  0
  125.6730  124.6050   58.2600 C   0  0  0  0  0  0  0  0  0  0  0  0
  125.3040  125.8820   58.5300 N   0  0  0  0  0  0  0  0  0  0  0  0
  126.2060  126.8880   58.4120 C   0  0  0  0  0  0  0  0  0  0  0  0
  125.7130  128.2680   58.7300 C   0  0  0  0  0  0  0  0  0  0  0  0
  125.9580  128.8460   59.9850 C   0  0  0  0  0  0  0  0  0  0  0  0
  125.5060  130.1280   60.2860 C   0  0  0  0  0  0  0  0  0  0  0  0
  124.8010  130.8520   59.3300 C   0  0  0  0  0  0  0  0  0  0  0  0
  124.5460  130.3050   58.0780 C   0  0  0  0  0  0  0  0  0  0  0  0
  125.0010  129.0230   57.7810 C   0  0  0  0  0  0  0  0  0  0  0  0
  127.5260  126.6270   58.0280 C   0  0  0  0  0  0  0  0  0  0  0  0
  127.9350  125.3150   57.7450 C   0  0  0  0  0  0  0  0  0  0  0  0
  129.3960  125.0670   57.3240 C   0  0  0  0  0  0  0  0  0  0  0  0
  129.9150  124.0700   58.0410 F   0  0  0  0  0  0  0  0  0  0  0  0
  129.4510  124.7430   56.0310 F   0  0  0  0  0  0  0  0  0  0  0  0
  130.1760  126.1360   57.5010 F   0  0  0  0  0  0  0  0  0  0  0  0
  126.9860  124.2710   57.8610 C   0  0  0  0  0  0  0  0  0  0  0  0
  127.3560  122.8810   57.5770 C   0  0  0  0  0  0  0  0  0  0  0  0
  127.6480  121.7830   57.3520 N   0  0  0  0  0  0  0  0  0  0  0  0
  133.7661  119.5816   60.7370 H   0  0  0  0  0  0  0  0  0  0  0  0
  133.9225  118.3734   59.4170 H   0  0  0  0  0  0  0  0  0  0  0  0
  132.5488  119.5308   59.4170 H   0  0  0  0  0  0  0  0  0  0  0  0
  130.9355  118.3390   59.4196 H   0  0  0  0  0  0  0  0  0  0  0  0
  130.6295  117.0156   60.5897 H   0  0  0  0  0  0  0  0  0  0  0  0
  129.2435  118.8798   61.2857 H   0  0  0  0  0  0  0  0  0  0  0  0
  130.6192  118.8211   62.4338 H   0  0  0  0  0  0  0  0  0  0  0  0
  129.2037  120.9513   62.3026 H   0  0  0  0  0  0  0  0  0  0  0  0
  130.4507  122.1983   61.8171 H   0  0  0  0  0  0  0  0  0  0  0  0
  129.4050  122.6705   59.8046 H   0  0  0  0  0  0  0  0  0  0  0  0
  128.5487  121.0950   59.7441 H   0  0  0  0  0  0  0  0  0  0  0  0
  128.0262  122.9015   63.0306 H   0  0  0  0  0  0  0  0  0  0  0  0
  129.0826  123.8125   61.8910 H   0  0  0  0  0  0  0  0  0  0  0  0
  126.7049  124.7332   63.0969 H   0  0  0  0  0  0  0  0  0  0  0  0
  127.6083  125.4773   61.6934 H   0  0  0  0  0  0  0  0  0  0  0  0
  125.7540  125.1040   60.4980 H   0  0  0  0  0  0  0  0  0  0  0  0
  123.3908  122.3264   60.3658 H   0  0  0  0  0  0  0  0  0  0  0  0
  123.3138  124.1755   60.4019 H   0  0  0  0  0  0  0  0  0  0  0  0
  126.5161  128.2771   60.7432 H   0  0  0  0  0  0  0  0  0  0  0  0
  125.7054  130.5663   61.2750 H   0  0  0  0  0  0  0  0  0  0  0  0
  124.4427  131.8647   59.5666 H   0  0  0  0  0  0  0  0  0  0  0  0
  123.9878  130.8817   57.3258 H   0  0  0  0  0  0  0  0  0  0  0  0
  124.8003  128.5939   56.7882 H   0  0  0  0  0  0  0  0  0  0  0  0
  128.2465  127.4543   57.9476 H   0  0  0  0  0  0  0  0  0  0  0  0
  1  2  1  0
  2  3  1  0
  3  4  1  0
  4  5  1  0
  5  6  1  0
  6  7  1  0
  7  8  1  0
  8  9  1  0
  9 10  1  0
 10 11  1  0
 11 12  1  0
 12 13  2  0
 12 14  1  0
 14 15  1  0
 15 16  1  0
 16 17  2  0
 17 18  1  0
 18 19  1  0
 19 20  2  0
 20 21  1  0
 21 22  2  0
 22 23  1  0
 23 24  2  0
 18 25  2  0
 25 26  1  0
 26 27  1  0
 27 28  1  0
 27 29  1  0
 27 30  1  0
 26 31  2  0
 31 32  1  0
 32 33  3  0
 31 16  1  0
 24 19  1  0
  1 34  1  0
  1 35  1  0
  1 36  1  0
  3 37  1  0
  3 38  1  0
  4 39  1  0
  4 40  1  0
  6 41  1  0
  6 42  1  0
  7 43  1  0
  7 44  1  0
  9 45  1  0
  9 46  1  0
 10 47  1  0
 10 48  1  0
 11 49  1  0
 14 50  1  0
 14 51  1  0
 20 52  1  0
 21 53  1  0
 22 54  1  0
 23 55  1  0
 24 56  1  0
 25 57  1  0
M  END
>  <Binding energies>  (1) 
[-6.7]

>  <Ligand effiencies>  (1) 
[-0.19705882352941176]

>  <Interactions>  (1) 
["H-B:ALA:541:N:9863, V-B:GLU:543:CD:9880, V-B:ALA:541:CB:9864, V-A:TYR:539:CE1:4875, V-B:ILE:369:CG2:8208, V-B:ASP:366:CG:8184, V-B:ASP:366:CA:8181, H-B:TYR:531:OH:9767, V-B:ASP:366:CB:8183, V-A:TYR:539:CZ:4877, V-B:ASP:366:C:8179, V-A:PRO:482:CG:4326, V-B:PRO:540:CB:9857, V-B:TYR:539:CE2:9848, V-B:PRO:540:N:9856, V-B:PRO:540:CA:9855, V-B:MET:535:CE:9807, H-B:ASP:366:OD1:8185, V-B:TYR:539:CD2:9846, V-A:PRO:482:CB:4325, V-B:TYR:539:C:9839, V-B:TYR:531:CZ:9766, V-A:ILE:369:CG2:3236, V-A:LEU:475:CD1:4257, V-B:PRO:540:C:9853, V-B:TYR:539:CZ:9849, V-B:LEU:363:CA:8156, V-B:LEU:363:CB:8158, H-B:TYR:539:N:9842, V-A:HIS:383:CD2:3391, H-A:SER:385:OG:3409, H-A:HIS:383:NE2:3393, V-B:ASN:362:C:8143, V-B:ASN:362:CB:8147"]

$$$$
3bc_Grossjean_2025
     RDKit          3D

 47 49  0  0  0  0  0  0  0  0999 V2000
  129.4460  125.9540   67.7890 C   0  0  0  0  0  0  0  0  0  0  0  0
  130.7960  126.3930   67.6990 O   0  0  0  0  0  0  0  0  0  0  0  0
  131.5540  126.0220   66.6040 C   0  0  0  0  0  0  0  0  0  0  0  0
  130.8580  125.7910   65.4160 C   0  0  0  0  0  0  0  0  0  0  0  0
  131.5350  125.4120   64.2600 C   0  0  0  0  0  0  0  0  0  0  0  0
  132.9220  125.2500   64.2790 C   0  0  0  0  0  0  0  0  0  0  0  0
  133.5190  124.8770   63.0600 N   0  0  0  0  0  0  0  0  0  0  0  0
  133.6130  123.6550   62.4960 C   0  0  0  0  0  0  0  0  0  0  0  0
  133.1300  122.6240   62.9700 O   0  0  0  0  0  0  0  0  0  0  0  0
  134.3530  123.6230   61.1510 C   0  0  0  0  0  0  0  0  0  0  0  0
  133.3260  123.1720   59.7110 S   0  0  0  0  0  0  0  0  0  0  0  0
  132.0310  122.0950   60.2830 C   0  0  0  0  0  0  0  0  0  0  0  0
  130.7860  122.6110   60.1300 N   0  0  0  0  0  0  0  0  0  0  0  0
  129.7030  121.8920   60.5240 C   0  0  0  0  0  0  0  0  0  0  0  0
  128.3640  122.5420   60.3400 C   0  0  0  0  0  0  0  0  0  0  0  0
  127.6110  122.9590   61.4490 C   0  0  0  0  0  0  0  0  0  0  0  0
  126.3670  123.5640   61.2860 C   0  0  0  0  0  0  0  0  0  0  0  0
  125.8570  123.7580   60.0070 C   0  0  0  0  0  0  0  0  0  0  0  0
  126.5810  123.3510   58.8910 C   0  0  0  0  0  0  0  0  0  0  0  0
  127.8240  122.7460   59.0590 C   0  0  0  0  0  0  0  0  0  0  0  0
  129.8500  120.6210   61.0880 C   0  0  0  0  0  0  0  0  0  0  0  0
  131.1260  120.0650   61.2320 C   0  0  0  0  0  0  0  0  0  0  0  0
  131.2390  118.6660   61.8370 C   0  0  0  0  0  0  0  0  0  0  0  0
  132.2540  120.8050   60.8130 C   0  0  0  0  0  0  0  0  0  0  0  0
  133.5940  120.2230   60.9090 C   0  0  0  0  0  0  0  0  0  0  0  0
  134.6530  119.7610   60.9850 N   0  0  0  0  0  0  0  0  0  0  0  0
  133.6300  125.4920   65.4650 C   0  0  0  0  0  0  0  0  0  0  0  0
  132.9490  125.8720   66.6190 C   0  0  0  0  0  0  0  0  0  0  0  0
  129.1604  125.8611   68.8472 H   0  0  0  0  0  0  0  0  0  0  0  0
  128.7891  126.6848   67.2947 H   0  0  0  0  0  0  0  0  0  0  0  0
  129.3445  124.9766   67.2947 H   0  0  0  0  0  0  0  0  0  0  0  0
  129.7646  125.9095   65.3931 H   0  0  0  0  0  0  0  0  0  0  0  0
  130.9756  125.2396   63.3287 H   0  0  0  0  0  0  0  0  0  0  0  0
  133.8730  125.6510   62.5150 H   0  0  0  0  0  0  0  0  0  0  0  0
  134.7732  124.6233   60.9697 H   0  0  0  0  0  0  0  0  0  0  0  0
  135.1163  122.8360   61.2406 H   0  0  0  0  0  0  0  0  0  0  0  0
  128.0097  122.8055   62.4627 H   0  0  0  0  0  0  0  0  0  0  0  0
  125.7904  123.8870   62.1654 H   0  0  0  0  0  0  0  0  0  0  0  0
  124.8750  124.2363   59.8769 H   0  0  0  0  0  0  0  0  0  0  0  0
  126.1737  123.5063   57.8810 H   0  0  0  0  0  0  0  0  0  0  0  0
  128.3923  122.4226   58.1745 H   0  0  0  0  0  0  0  0  0  0  0  0
  128.9639  120.0590   61.4180 H   0  0  0  0  0  0  0  0  0  0  0  0
  131.2331  118.7396   62.9345 H   0  0  0  0  0  0  0  0  0  0  0  0
  130.3874  118.0535   61.5060 H   0  0  0  0  0  0  0  0  0  0  0  0
  132.1779  118.1981   61.5060 H   0  0  0  0  0  0  0  0  0  0  0  0
  134.7243  125.3816   65.4839 H   0  0  0  0  0  0  0  0  0  0  0  0
  133.5084  126.0557   67.5482 H   0  0  0  0  0  0  0  0  0  0  0  0
  1  2  1  0
  2  3  1  0
  3  4  2  0
  4  5  1  0
  5  6  2  0
  6  7  1  0
  7  8  1  0
  8  9  2  0
  8 10  1  0
 10 11  1  0
 11 12  1  0
 12 13  2  0
 13 14  1  0
 14 15  1  0
 15 16  2  0
 16 17  1  0
 17 18  2  0
 18 19  1  0
 19 20  2  0
 14 21  2  0
 21 22  1  0
 22 23  1  0
 22 24  2  0
 24 25  1  0
 25 26  3  0
  6 27  1  0
 27 28  2  0
 28  3  1  0
 24 12  1  0
 20 15  1  0
  1 29  1  0
  1 30  1  0
  1 31  1  0
  4 32  1  0
  5 33  1  0
  7 34  1  0
 10 35  1  0
 10 36  1  0
 16 37  1  0
 17 38  1  0
 18 39  1  0
 19 40  1  0
 20 41  1  0
 21 42  1  0
 23 43  1  0
 23 44  1  0
 23 45  1  0
 27 46  1  0
 28 47  1  0
M  END
>  <Binding energies>  (1) 
[-7.88]

>  <Ligand effiencies>  (1) 
[-0.2717241379310345]

>  <Interactions>  (1) 
["V-A:HIS:456:CE1:4069, H-A:GLY:454:N:4049, V-A:ARG:545:CZ:4926, V-A:ASP:366:CG:3212, V-B:GLU:543:CD:9880, V-B:ALA:541:CB:9864, V-A:ARG:545:CD:4923, V-A:ARG:545:CG:4922, H-A:ASP:366:OD2:3214, V-A:PRO:482:CG:4326, V-B:PRO:540:CB:9857, V-B:TYR:539:CE2:9848, V-B:PRO:540:N:9856, V-B:PRO:540:CA:9855, V-A:PRO:482:CB:4325, V-B:TYR:539:C:9839, V-A:ILE:369:CG2:3236, V-A:LEU:475:CD1:4257, V-B:PRO:540:C:9853, V-A:ILE:369:CD1:3238, V-B:GLU:543:CB:9878, H-A:ASP:366:OD1:3213, H-A:SER:385:OG:3409"]

$$$$
3bd_Grossjean_2025
     RDKit          3D

 43 45  0  0  0  0  0  0  0  0999 V2000
  128.9780  126.7280   58.3810 C   0  0  0  0  0  0  0  0  0  0  0  0
  128.6130  128.1530   57.9690 C   0  0  0  0  0  0  0  0  0  0  0  0
  128.0710  129.0040   58.9400 C   0  0  0  0  0  0  0  0  0  0  0  0
  127.7190  130.3150   58.6020 C   0  0  0  0  0  0  0  0  0  0  0  0
  127.1380  131.2800   59.5930 C   0  0  0  0  0  0  0  0  0  0  0  0
  125.7570  131.3020   59.8470 C   0  0  0  0  0  0  0  0  0  0  0  0
  125.2110  132.1960   60.7650 C   0  0  0  0  0  0  0  0  0  0  0  0
  126.0410  133.0830   61.4430 C   0  0  0  0  0  0  0  0  0  0  0  0
  127.4120  133.0830   61.2070 C   0  0  0  0  0  0  0  0  0  0  0  0
  127.9540  132.1880   60.2890 C   0  0  0  0  0  0  0  0  0  0  0  0
  127.9110  130.7840   57.3410 N   0  0  0  0  0  0  0  0  0  0  0  0
  128.4350  129.9730   56.3870 C   0  0  0  0  0  0  0  0  0  0  0  0
  128.6240  130.7040   54.7690 S   0  0  0  0  0  0  0  0  0  0  0  0
  130.2880  131.4300   54.6710 C   0  0  0  0  0  0  0  0  0  0  0  0
  130.8290  131.8120   56.0490 C   0  0  0  0  0  0  0  0  0  0  0  0
  130.6690  132.9630   56.4560 O   0  0  0  0  0  0  0  0  0  0  0  0
  131.4700  130.8300   56.7190 N   0  0  0  0  0  0  0  0  0  0  0  0
  132.0470  130.8640   58.0030 C   0  0  0  0  0  0  0  0  0  0  0  0
  131.1600  131.0170   59.0720 C   0  0  0  0  0  0  0  0  0  0  0  0
  131.6380  131.0700   60.3780 C   0  0  0  0  0  0  0  0  0  0  0  0
  133.0070  130.9820   60.6160 C   0  0  0  0  0  0  0  0  0  0  0  0
  133.9030  130.8430   59.5580 C   0  0  0  0  0  0  0  0  0  0  0  0
  133.4270  130.7880   58.2510 C   0  0  0  0  0  0  0  0  0  0  0  0
  128.8030  128.6370   56.6570 C   0  0  0  0  0  0  0  0  0  0  0  0
  129.3700  127.7720   55.6190 C   0  0  0  0  0  0  0  0  0  0  0  0
  129.8180  127.0880   54.8000 N   0  0  0  0  0  0  0  0  0  0  0  0
  128.9962  126.6569   59.4786 H   0  0  0  0  0  0  0  0  0  0  0  0
  128.2303  126.0276   57.9806 H   0  0  0  0  0  0  0  0  0  0  0  0
  129.9704  126.4733   57.9806 H   0  0  0  0  0  0  0  0  0  0  0  0
  127.9221  128.6418   59.9679 H   0  0  0  0  0  0  0  0  0  0  0  0
  125.0967  130.6028   59.3130 H   0  0  0  0  0  0  0  0  0  0  0  0
  124.1272  132.2007   60.9532 H   0  0  0  0  0  0  0  0  0  0  0  0
  125.6109  133.7881   62.1696 H   0  0  0  0  0  0  0  0  0  0  0  0
  128.0649  133.7872   61.7435 H   0  0  0  0  0  0  0  0  0  0  0  0
  129.0386  132.1915   60.1054 H   0  0  0  0  0  0  0  0  0  0  0  0
  130.9686  130.6972   54.2130 H   0  0  0  0  0  0  0  0  0  0  0  0
  130.2235  132.3462   54.0657 H   0  0  0  0  0  0  0  0  0  0  0  0
  131.6070  129.9620   56.2210 H   0  0  0  0  0  0  0  0  0  0  0  0
  130.0797  131.0959   58.8804 H   0  0  0  0  0  0  0  0  0  0  0  0
  130.9372  131.1809   61.2186 H   0  0  0  0  0  0  0  0  0  0  0  0
  133.3846  131.0226   61.6484 H   0  0  0  0  0  0  0  0  0  0  0  0
  134.9832  130.7769   59.7549 H   0  0  0  0  0  0  0  0  0  0  0  0
  134.1318  130.6850   57.4127 H   0  0  0  0  0  0  0  0  0  0  0  0
  1  2  1  0
  2  3  2  0
  3  4  1  0
  4  5  1  0
  5  6  2  0
  6  7  1  0
  7  8  2  0
  8  9  1  0
  9 10  2  0
  4 11  2  0
 11 12  1  0
 12 13  1  0
 13 14  1  0
 14 15  1  0
 15 16  2  0
 15 17  1  0
 17 18  1  0
 18 19  2  0
 19 20  1  0
 20 21  2  0
 21 22  1  0
 22 23  2  0
 12 24  2  0
 24 25  1  0
 25 26  3  0
 24  2  1  0
 10  5  1  0
 23 18  1  0
  1 27  1  0
  1 28  1  0
  1 29  1  0
  3 30  1  0
  6 31  1  0
  7 32  1  0
  8 33  1  0
  9 34  1  0
 10 35  1  0
 14 36  1  0
 14 37  1  0
 17 38  1  0
 19 39  1  0
 20 40  1  0
 21 41  1  0
 22 42  1  0
 23 43  1  0
M  END
>  <Binding energies>  (1) 
[-7.79]

>  <Ligand effiencies>  (1) 
[-0.2885185185185185]

>  <Interactions>  (1) 
["V-A:ASP:366:CG:3212, V-A:TYR:539:CD1:4873, V-A:PRO:540:CB:4885, V-A:ILE:538:CB:4862, V-A:ILE:538:CG2:4863, V-A:LEU:363:CD1:3188, V-A:TYR:539:CE1:4875, V-A:PRO:540:CA:4883, H-B:LYS:534:NZ:9795, V-B:ILE:369:CG2:8208, V-A:ALA:541:CB:4892, V-A:ILE:538:CA:4860, V-A:ASP:366:CB:3211, H-A:TYR:531:OH:4795, V-A:LEU:363:CA:3184, V-A:ASN:362:CB:3175, V-A:ASN:362:C:3171, V-A:LEU:363:CB:3186, H-A:TYR:539:N:4870"]

$$$$
3be_Grossjean_2025
     RDKit          3D

 45 47  0  0  0  0  0  0  0  0999 V2000
  134.2590  125.4500   67.3550 C   0  0  0  0  0  0  0  0  0  0  0  0
  133.3500  125.4670   66.1420 C   0  0  0  0  0  0  0  0  0  0  0  0
  132.0200  125.8850   66.2300 C   0  0  0  0  0  0  0  0  0  0  0  0
  131.2410  125.8720   65.0730 C   0  0  0  0  0  0  0  0  0  0  0  0
  131.8040  125.4450   63.8670 C   0  0  0  0  0  0  0  0  0  0  0  0
  133.1440  125.0430   63.8470 C   0  0  0  0  0  0  0  0  0  0  0  0
  133.6490  124.6140   62.6060 N   0  0  0  0  0  0  0  0  0  0  0  0
  133.9380  123.3590   62.1980 C   0  0  0  0  0  0  0  0  0  0  0  0
  133.8010  122.3490   62.8910 O   0  0  0  0  0  0  0  0  0  0  0  0
  134.4680  123.2580   60.7590 C   0  0  0  0  0  0  0  0  0  0  0  0
  133.1900  123.0440   59.4740 S   0  0  0  0  0  0  0  0  0  0  0  0
  131.9080  122.0030   60.1370 C   0  0  0  0  0  0  0  0  0  0  0  0
  130.6680  122.5410   60.0430 N   0  0  0  0  0  0  0  0  0  0  0  0
  129.5920  121.8510   60.5080 C   0  0  0  0  0  0  0  0  0  0  0  0
  128.2580  122.5230   60.3790 C   0  0  0  0  0  0  0  0  0  0  0  0
  127.5350  122.9080   61.5190 C   0  0  0  0  0  0  0  0  0  0  0  0
  126.2950  123.5290   61.4070 C   0  0  0  0  0  0  0  0  0  0  0  0
  125.7580  123.7750   60.1480 C   0  0  0  0  0  0  0  0  0  0  0  0
  126.4510  123.4020   59.0020 C   0  0  0  0  0  0  0  0  0  0  0  0
  127.6910  122.7800   59.1190 C   0  0  0  0  0  0  0  0  0  0  0  0
  129.7480  120.5870   61.0880 C   0  0  0  0  0  0  0  0  0  0  0  0
  131.0180  120.0070   61.1700 C   0  0  0  0  0  0  0  0  0  0  0  0
  131.1360  118.6180   61.7950 C   0  0  0  0  0  0  0  0  0  0  0  0
  132.1340  120.7160   60.6760 C   0  0  0  0  0  0  0  0  0  0  0  0
  133.4650  120.1040   60.7020 C   0  0  0  0  0  0  0  0  0  0  0  0
  134.5150  119.6190   60.7240 N   0  0  0  0  0  0  0  0  0  0  0  0
  133.9100  125.0510   64.9780 N   0  0  0  0  0  0  0  0  0  0  0  0
  133.6491  125.4614   68.2704 H   0  0  0  0  0  0  0  0  0  0  0  0
  134.8769  124.5401   67.3374 H   0  0  0  0  0  0  0  0  0  0  0  0
  134.9105  126.3361   67.3374 H   0  0  0  0  0  0  0  0  0  0  0  0
  131.5968  126.2168   67.1896 H   0  0  0  0  0  0  0  0  0  0  0  0
  130.1903  126.1957   65.1094 H   0  0  0  0  0  0  0  0  0  0  0  0
  131.2020  125.4253   62.9466 H   0  0  0  0  0  0  0  0  0  0  0  0
  133.8410  125.3580   61.9510 H   0  0  0  0  0  0  0  0  0  0  0  0
  135.0242  124.1804   60.5356 H   0  0  0  0  0  0  0  0  0  0  0  0
  135.0897  122.3512   60.7254 H   0  0  0  0  0  0  0  0  0  0  0  0
  127.9556  122.7156   62.5170 H   0  0  0  0  0  0  0  0  0  0  0  0
  125.7416  123.8242   62.3107 H   0  0  0  0  0  0  0  0  0  0  0  0
  124.7787  124.2678   60.0583 H   0  0  0  0  0  0  0  0  0  0  0  0
  126.0219  123.5973   58.0082 H   0  0  0  0  0  0  0  0  0  0  0  0
  128.2360  122.4848   58.2102 H   0  0  0  0  0  0  0  0  0  0  0  0
  128.8717  120.0496   61.4794 H   0  0  0  0  0  0  0  0  0  0  0  0
  131.1284  118.7074   62.8913 H   0  0  0  0  0  0  0  0  0  0  0  0
  130.2874  117.9972   61.4718 H   0  0  0  0  0  0  0  0  0  0  0  0
  132.0772  118.1493   61.4718 H   0  0  0  0  0  0  0  0  0  0  0  0
  1  2  1  0
  2  3  2  0
  3  4  1  0
  4  5  2  0
  5  6  1  0
  6  7  1  0
  7  8  1  0
  8  9  2  0
  8 10  1  0
 10 11  1  0
 11 12  1  0
 12 13  2  0
 13 14  1  0
 14 15  1  0
 15 16  2  0
 16 17  1  0
 17 18  2  0
 18 19  1  0
 19 20  2  0
 14 21  2  0
 21 22  1  0
 22 23  1  0
 22 24  2  0
 24 25  1  0
 25 26  3  0
  6 27  2  0
 27  2  1  0
 24 12  1  0
 20 15  1  0
  1 28  1  0
  1 29  1  0
  1 30  1  0
  3 31  1  0
  4 32  1  0
  5 33  1  0
  7 34  1  0
 10 35  1  0
 10 36  1  0
 16 37  1  0
 17 38  1  0
 18 39  1  0
 19 40  1  0
 20 41  1  0
 21 42  1  0
 23 43  1  0
 23 44  1  0
 23 45  1  0
M  END
>  <Binding energies>  (1) 
[-8.77]

>  <Ligand effiencies>  (1) 
[-0.3132142857142857]

>  <Interactions>  (1) 
["V-A:HIS:456:CE1:4069, H-A:GLY:454:N:4049, H-A:ARG:545:NH2:4928, V-A:TYR:484:CZ:4346, V-A:ILE:455:C:4051, V-A:ARG:545:CZ:4926, V-A:ASP:366:CG:3212, H-A:TYR:484:OH:4347, V-B:GLU:543:CD:9880, H-A:ARG:545:NE:4924, V-B:ALA:541:CB:9864, V-A:ARG:545:CD:4923, V-A:ARG:545:CG:4922, H-A:ASP:366:OD2:3214, V-A:GLU:543:CD:4908, V-A:PRO:482:CG:4326, V-B:PRO:540:CB:9857, V-B:TYR:539:CE2:9848, V-B:PRO:540:N:9856, V-B:PRO:540:CA:9855, V-B:TYR:539:CD2:9846, V-A:PRO:482:CB:4325, V-B:TYR:539:C:9839, V-A:ILE:369:CG1:3237, V-A:ILE:369:CG2:3236, V-A:ILE:369:CB:3235, V-A:LEU:475:CD1:4257, V-B:PRO:540:C:9853, V-A:ILE:369:CD1:3238, H-A:ASP:366:OD1:3213, H-A:ARG:545:NH1:4927, H-A:SER:385:OG:3409"]

$$$$
3bf_Grossjean_2025
     RDKit          3D

 42 44  0  0  0  0  0  0  0  0999 V2000
  129.7500  125.1750   56.0040 C   0  0  0  0  0  0  0  0  0  0  0  0
  129.8070  124.5780   57.4090 C   0  0  0  0  0  0  0  0  0  0  0  0
  131.0330  124.5890   58.0810 C   0  0  0  0  0  0  0  0  0  0  0  0
  131.1260  124.0660   59.3750 C   0  0  0  0  0  0  0  0  0  0  0  0
  132.4040  124.0680   60.1580 C   0  0  0  0  0  0  0  0  0  0  0  0
  133.6440  123.9890   59.5040 C   0  0  0  0  0  0  0  0  0  0  0  0
  134.8360  123.9890   60.2230 C   0  0  0  0  0  0  0  0  0  0  0  0
  134.8030  124.0690   61.6120 C   0  0  0  0  0  0  0  0  0  0  0  0
  133.5880  124.1470   62.2840 C   0  0  0  0  0  0  0  0  0  0  0  0
  132.3980  124.1450   61.5600 C   0  0  0  0  0  0  0  0  0  0  0  0
  130.0350  123.5420   59.9950 N   0  0  0  0  0  0  0  0  0  0  0  0
  128.8440  123.5020   59.3470 C   0  0  0  0  0  0  0  0  0  0  0  0
  127.5330  122.7780   60.3090 S   0  0  0  0  0  0  0  0  0  0  0  0
  128.1400  122.5560   62.0160 C   0  0  0  0  0  0  0  0  0  0  0  0
  129.4700  121.7980   62.1420 C   0  0  0  0  0  0  0  0  0  0  0  0
  130.1720  121.9220   63.1470 O   0  0  0  0  0  0  0  0  0  0  0  0
  129.7610  120.9940   61.0970 N   0  0  0  0  0  0  0  0  0  0  0  0
  130.8920  120.1810   60.8960 C   0  0  0  0  0  0  0  0  0  0  0  0
  132.1340  120.8230   60.8180 C   0  0  0  0  0  0  0  0  0  0  0  0
  133.2950  120.0700   60.6330 C   0  0  0  0  0  0  0  0  0  0  0  0
  133.1820  118.6830   60.5360 C   0  0  0  0  0  0  0  0  0  0  0  0
  131.9940  118.0340   60.6180 N   0  0  0  0  0  0  0  0  0  0  0  0
  130.8720  118.7790   60.7980 C   0  0  0  0  0  0  0  0  0  0  0  0
  128.6740  124.0290   58.0480 C   0  0  0  0  0  0  0  0  0  0  0  0
  127.3690  124.0520   57.3810 C   0  0  0  0  0  0  0  0  0  0  0  0
  126.3390  124.0700   56.8530 N   0  0  0  0  0  0  0  0  0  0  0  0
  129.6457  126.2678   56.0739 H   0  0  0  0  0  0  0  0  0  0  0  0
  130.6757  124.9289   55.4632 H   0  0  0  0  0  0  0  0  0  0  0  0
  128.8876  124.7582   55.4632 H   0  0  0  0  0  0  0  0  0  0  0  0
  131.9244  125.0089   57.5921 H   0  0  0  0  0  0  0  0  0  0  0  0
  133.6740  123.9261   58.4062 H   0  0  0  0  0  0  0  0  0  0  0  0
  135.7994  123.9261   59.6958 H   0  0  0  0  0  0  0  0  0  0  0  0
  135.7439  124.0705   62.1819 H   0  0  0  0  0  0  0  0  0  0  0  0
  133.5668  124.2100   63.3820 H   0  0  0  0  0  0  0  0  0  0  0  0
  131.4387  124.2047   62.0949 H   0  0  0  0  0  0  0  0  0  0  0  0
  128.2722  123.5524   62.4628 H   0  0  0  0  0  0  0  0  0  0  0  0
  127.3873  121.9409   62.5309 H   0  0  0  0  0  0  0  0  0  0  0  0
  129.0590  120.9220   60.3740 H   0  0  0  0  0  0  0  0  0  0  0  0
  132.1948  121.9181   60.9023 H   0  0  0  0  0  0  0  0  0  0  0  0
  134.2776  120.5598   60.5652 H   0  0  0  0  0  0  0  0  0  0  0  0
  134.0963  118.0899   60.3865 H   0  0  0  0  0  0  0  0  0  0  0  0
  129.9041  118.2614   60.8703 H   0  0  0  0  0  0  0  0  0  0  0  0
  1  2  1  0
  2  3  2  0
  3  4  1  0
  4  5  1  0
  5  6  2  0
  6  7  1  0
  7  8  2  0
  8  9  1  0
  9 10  2  0
  4 11  2  0
 11 12  1  0
 12 13  1  0
 13 14  1  0
 14 15  1  0
 15 16  2  0
 15 17  1  0
 17 18  1  0
 18 19  2  0
 19 20  1  0
 20 21  2  0
 21 22  1  0
 22 23  2  0
 12 24  2  0
 24 25  1  0
 25 26  3  0
 24  2  1  0
 10  5  1  0
 23 18  1  0
  1 27  1  0
  1 28  1  0
  1 29  1  0
  3 30  1  0
  6 31  1  0
  7 32  1  0
  8 33  1  0
  9 34  1  0
 10 35  1  0
 14 36  1  0
 14 37  1  0
 17 38  1  0
 19 39  1  0
 20 40  1  0
 21 41  1  0
 23 42  1  0
M  END
>  <Binding energies>  (1) 
[-7.85]

>  <Ligand effiencies>  (1) 
[-0.29074074074074074]

>  <Interactions>  (1) 
["H-B:ALA:541:N:9863, V-A:ASP:366:CG:3212, V-B:ALA:541:CB:9864, V-A:GLY:453:C:4041, V-A:GLY:453:CA:4043, H-B:TYR:531:OH:9767, V-A:PRO:482:CG:4326, V-B:TYR:539:CE2:9848, V-B:PRO:540:CA:9855, V-B:MET:535:CE:9807, V-B:TYR:539:CD2:9846, V-A:ILE:369:CG1:3237, V-A:ILE:369:CG2:3236, V-A:ASP:366:CB:3211, V-A:ILE:369:CB:3235, V-B:ALA:541:CA:9862, V-A:ILE:369:CD1:3238, V-A:SER:385:CA:3406, V-B:TYR:539:CZ:9849, V-A:ASP:366:CA:3209, H-B:TYR:539:O:9840, V-A:HIS:383:CD2:3391, H-A:SER:385:OG:3409, H-A:HIS:383:NE2:3393"]

$$$$
3bg_Grossjean_2025
     RDKit          3D

 46 48  0  0  0  0  0  0  0  0999 V2000
  133.2420  130.7760   61.1860 C   0  0  0  0  0  0  0  0  0  0  0  0
  131.9990  131.0040   60.3290 C   0  0  0  0  0  0  0  0  0  0  0  0
  130.8260  131.4230   60.9640 C   0  0  0  0  0  0  0  0  0  0  0  0
  129.6640  131.6510   60.2140 C   0  0  0  0  0  0  0  0  0  0  0  0
  128.3740  132.1140   60.8320 C   0  0  0  0  0  0  0  0  0  0  0  0
  128.0570  131.8020   62.1650 C   0  0  0  0  0  0  0  0  0  0  0  0
  126.8720  132.2430   62.7460 C   0  0  0  0  0  0  0  0  0  0  0  0
  125.9790  133.0060   62.0010 C   0  0  0  0  0  0  0  0  0  0  0  0
  126.2610  133.3200   60.6770 C   0  0  0  0  0  0  0  0  0  0  0  0
  127.4460  132.8750   60.0990 C   0  0  0  0  0  0  0  0  0  0  0  0
  129.6700  131.4860   58.8640 N   0  0  0  0  0  0  0  0  0  0  0  0
  130.8020  131.0820   58.2310 C   0  0  0  0  0  0  0  0  0  0  0  0
  130.6850  130.9360   56.4550 S   0  0  0  0  0  0  0  0  0  0  0  0
  129.1570  131.7690   55.9130 C   0  0  0  0  0  0  0  0  0  0  0  0
  127.9760  130.7970   55.8310 C   0  0  0  0  0  0  0  0  0  0  0  0
  127.2700  130.7730   54.8220 O   0  0  0  0  0  0  0  0  0  0  0  0
  127.7620  130.0240   56.9090 N   0  0  0  0  0  0  0  0  0  0  0  0
  126.5970  129.1640   57.1200 C   0  0  0  0  0  0  0  0  0  0  0  0
  125.7440  129.6440   58.2890 C   0  0  0  0  0  0  0  0  0  0  0  0
  124.5340  130.3030   58.0490 C   0  0  0  0  0  0  0  0  0  0  0  0
  123.7600  130.7500   59.1150 C   0  0  0  0  0  0  0  0  0  0  0  0
  124.1920  130.5270   60.4220 C   0  0  0  0  0  0  0  0  0  0  0  0
  125.3860  129.8540   60.6700 C   0  0  0  0  0  0  0  0  0  0  0  0
  126.1610  129.4070   59.6010 C   0  0  0  0  0  0  0  0  0  0  0  0
  131.9980  130.8180   58.9300 C   0  0  0  0  0  0  0  0  0  0  0  0
  133.2140  130.3870   58.2360 C   0  0  0  0  0  0  0  0  0  0  0  0
  134.1750  130.0460   57.6890 N   0  0  0  0  0  0  0  0  0  0  0  0
  132.9680  130.8263   62.2501 H   0  0  0  0  0  0  0  0  0  0  0  0
  133.6647  129.7853   60.9626 H   0  0  0  0  0  0  0  0  0  0  0  0
  133.9888  131.5521   60.9626 H   0  0  0  0  0  0  0  0  0  0  0  0
  130.8150  131.5739   62.0535 H   0  0  0  0  0  0  0  0  0  0  0  0
  128.7582  131.1983   62.7598 H   0  0  0  0  0  0  0  0  0  0  0  0
  126.6422  131.9890   63.7913 H   0  0  0  0  0  0  0  0  0  0  0  0
  125.0458  133.3623   62.4617 H   0  0  0  0  0  0  0  0  0  0  0  0
  125.5501  133.9181   60.0880 H   0  0  0  0  0  0  0  0  0  0  0  0
  127.6609  133.1231   59.0491 H   0  0  0  0  0  0  0  0  0  0  0  0
  128.9126  132.5661   56.6305 H   0  0  0  0  0  0  0  0  0  0  0  0
  129.3308  132.1806   54.9078 H   0  0  0  0  0  0  0  0  0  0  0  0
  128.3910  130.1160   57.6940 H   0  0  0  0  0  0  0  0  0  0  0  0
  125.9833  129.1653   56.2071 H   0  0  0  0  0  0  0  0  0  0  0  0
  126.9571  128.1509   57.3524 H   0  0  0  0  0  0  0  0  0  0  0  0
  124.1939  130.4681   57.0160 H   0  0  0  0  0  0  0  0  0  0  0  0
  122.8124  131.2765   58.9280 H   0  0  0  0  0  0  0  0  0  0  0  0
  123.5839  130.8861   61.2654 H   0  0  0  0  0  0  0  0  0  0  0  0
  125.7157  129.6761   61.7042 H   0  0  0  0  0  0  0  0  0  0  0  0
  127.1008  128.8677   59.7906 H   0  0  0  0  0  0  0  0  0  0  0  0
  1  2  1  0
  2  3  2  0
  3  4  1  0
  4  5  1  0
  5  6  2  0
  6  7  1  0
  7  8  2  0
  8  9  1  0
  9 10  2  0
  4 11  2  0
 11 12  1  0
 12 13  1  0
 13 14  1  0
 14 15  1  0
 15 16  2  0
 15 17  1  0
 17 18  1  0
 18 19  1  0
 19 20  2  0
 20 21  1  0
 21 22  2  0
 22 23  1  0
 23 24  2  0
 12 25  2  0
 25 26  1  0
 26 27  3  0
 25  2  1  0
 10  5  1  0
 24 19  1  0
  1 28  1  0
  1 29  1  0
  1 30  1  0
  3 31  1  0
  6 32  1  0
  7 33  1  0
  8 34  1  0
  9 35  1  0
 10 36  1  0
 14 37  1  0
 14 38  1  0
 17 39  1  0
 18 40  1  0
 18 41  1  0
 20 42  1  0
 21 43  1  0
 22 44  1  0
 23 45  1  0
 24 46  1  0
M  END
>  <Binding energies>  (1) 
[-7.96]

>  <Ligand effiencies>  (1) 
[-0.2842857142857143]

>  <Interactions>  (1) 
["V-A:ASP:366:CG:3212, V-A:TYR:539:CD1:4873, H-A:TYR:539:OH:4878, V-A:PRO:540:CB:4885, V-A:LEU:363:CD1:3188, V-A:TYR:539:CE1:4875, V-A:PRO:540:CA:4883, H-B:LYS:534:NZ:9795, V-B:ILE:369:CG2:8208, V-B:ASP:366:CG:8184, V-B:ASP:366:CA:8181, V-B:LEU:475:CD1:9229, V-A:ALA:541:CB:4892, V-B:ILE:369:CD1:8210, V-B:ILE:369:CB:8207, V-B:ASP:366:CB:8183, V-A:TYR:539:C:4867, V-A:TYR:539:CZ:4877, V-B:ASP:366:C:8179, V-B:TYR:531:CZ:9766, V-A:ASP:366:CB:3211, V-B:TYR:531:CE1:9764, H-A:TYR:531:OH:4795, V-A:PRO:540:C:4881, V-A:LEU:363:CA:3184, V-A:ASN:362:CB:3175, V-A:ASN:362:C:3171"]

$$$$
3bk_Grossjean_2025
     RDKit          3D

 57 58  0  0  0  0  0  0  0  0999 V2000
  132.3560  129.3860   57.6010 C   0  0  0  0  0  0  0  0  0  0  0  0
  132.7910  130.5330   56.8860 O   0  0  0  0  0  0  0  0  0  0  0  0
  131.9970  131.6860   57.1300 C   0  0  0  0  0  0  0  0  0  0  0  0
  131.4990  132.2600   55.7970 C   0  0  0  0  0  0  0  0  0  0  0  0
  130.0810  132.3390   55.8190 O   0  0  0  0  0  0  0  0  0  0  0  0
  129.4670  131.4140   56.7070 C   0  0  0  0  0  0  0  0  0  0  0  0
  128.8420  130.2720   55.8960 C   0  0  0  0  0  0  0  0  0  0  0  0
  129.4560  129.0430   56.2610 O   0  0  0  0  0  0  0  0  0  0  0  0
  129.2780  128.0050   55.3060 C   0  0  0  0  0  0  0  0  0  0  0  0
  129.0390  126.6750   56.0370 C   0  0  0  0  0  0  0  0  0  0  0  0
  130.2750  126.1050   56.5750 N   0  0  0  0  0  0  0  0  0  0  0  0
  131.3980  125.8730   55.8740 C   0  0  0  0  0  0  0  0  0  0  0  0
  131.5230  126.1360   54.6770 O   0  0  0  0  0  0  0  0  0  0  0  0
  132.5730  125.2710   56.6480 C   0  0  0  0  0  0  0  0  0  0  0  0
  132.3250  125.3690   58.4490 S   0  0  0  0  0  0  0  0  0  0  0  0
  131.3090  123.9970   58.9710 C   0  0  0  0  0  0  0  0  0  0  0  0
  130.0490  123.9680   58.4700 N   0  0  0  0  0  0  0  0  0  0  0  0
  129.2030  122.9610   58.8160 C   0  0  0  0  0  0  0  0  0  0  0  0
  127.8360  122.9930   58.2010 C   0  0  0  0  0  0  0  0  0  0  0  0
  126.8770  123.9240   58.6300 C   0  0  0  0  0  0  0  0  0  0  0  0
  125.6040  123.9540   58.0660 C   0  0  0  0  0  0  0  0  0  0  0  0
  125.2720  123.0520   57.0620 C   0  0  0  0  0  0  0  0  0  0  0  0
  126.2050  122.1210   56.6150 C   0  0  0  0  0  0  0  0  0  0  0  0
  127.4770  122.0950   57.1810 C   0  0  0  0  0  0  0  0  0  0  0  0
  129.6160  121.9430   59.6820 C   0  0  0  0  0  0  0  0  0  0  0  0
  130.9120  121.9580   60.2100 C   0  0  0  0  0  0  0  0  0  0  0  0
  131.3220  120.8280   61.1520 C   0  0  0  0  0  0  0  0  0  0  0  0
  131.7890  123.0050   59.8530 C   0  0  0  0  0  0  0  0  0  0  0  0
  133.1530  123.0460   60.3880 C   0  0  0  0  0  0  0  0  0  0  0  0
  134.2300  123.0780   60.8110 N   0  0  0  0  0  0  0  0  0  0  0  0
  132.4289  129.5781   58.6816 H   0  0  0  0  0  0  0  0  0  0  0  0
  131.3113  129.1641   57.3376 H   0  0  0  0  0  0  0  0  0  0  0  0
  132.9909  128.5272   57.3376 H   0  0  0  0  0  0  0  0  0  0  0  0
  131.1346  131.4110   57.7551 H   0  0  0  0  0  0  0  0  0  0  0  0
  132.6025  132.4429   57.6501 H   0  0  0  0  0  0  0  0  0  0  0  0
  131.9205  133.2653   55.6497 H   0  0  0  0  0  0  0  0  0  0  0  0
  131.8183  131.6057   54.9724 H   0  0  0  0  0  0  0  0  0  0  0  0
  130.2235  131.0061   57.3936 H   0  0  0  0  0  0  0  0  0  0  0  0
  128.6849  131.9244   57.2882 H   0  0  0  0  0  0  0  0  0  0  0  0
  127.7635  130.2201   56.1061 H   0  0  0  0  0  0  0  0  0  0  0  0
  128.9970  130.4558   54.8226 H   0  0  0  0  0  0  0  0  0  0  0  0
  128.4102  128.2357   54.6706 H   0  0  0  0  0  0  0  0  0  0  0  0
  130.1785  127.9235   54.6796 H   0  0  0  0  0  0  0  0  0  0  0  0
  128.3392  126.8491   56.8677 H   0  0  0  0  0  0  0  0  0  0  0  0
  128.6291  125.9603   55.3082 H   0  0  0  0  0  0  0  0  0  0  0  0
  130.2770  125.9140   57.5670 H   0  0  0  0  0  0  0  0  0  0  0  0
  132.6830  124.2147   56.3616 H   0  0  0  0  0  0  0  0  0  0  0  0
  133.4759  125.8472   56.3975 H   0  0  0  0  0  0  0  0  0  0  0  0
  127.1349  124.6407   59.4236 H   0  0  0  0  0  0  0  0  0  0  0  0
  124.8636  124.6893   58.4140 H   0  0  0  0  0  0  0  0  0  0  0  0
  124.2658  123.0741   56.6180 H   0  0  0  0  0  0  0  0  0  0  0  0
  125.9391  121.4098   55.8191 H   0  0  0  0  0  0  0  0  0  0  0  0
  128.2130  121.3596   56.8240 H   0  0  0  0  0  0  0  0  0  0  0  0
  128.9227  121.1314   59.9478 H   0  0  0  0  0  0  0  0  0  0  0  0
  131.2023  121.1580   62.1945 H   0  0  0  0  0  0  0  0  0  0  0  0
  130.6852  119.9497   60.9700 H   0  0  0  0  0  0  0  0  0  0  0  0
  132.3738  120.5624   60.9700 H   0  0  0  0  0  0  0  0  0  0  0  0
  1  2  1  0
  2  3  1  0
  3  4  1  0
  4  5  1  0
  5  6  1  0
  6  7  1  0
  7  8  1  0
  8  9  1  0
  9 10  1  0
 10 11  1  0
 11 12  1  0
 12 13  2  0
 12 14  1  0
 14 15  1  0
 15 16  1  0
 16 17  2  0
 17 18  1  0
 18 19  1  0
 19 20  2  0
 20 21  1  0
 21 22  2  0
 22 23  1  0
 23 24  2  0
 18 25  2  0
 25 26  1  0
 26 27  1  0
 26 28  2  0
 28 29  1  0
 29 30  3  0
 28 16  1  0
 24 19  1  0
  1 31  1  0
  1 32  1  0
  1 33  1  0
  3 34  1  0
  3 35  1  0
  4 36  1  0
  4 37  1  0
  6 38  1  0
  6 39  1  0
  7 40  1  0
  7 41  1  0
  9 42  1  0
  9 43  1  0
 10 44  1  0
 10 45  1  0
 11 46  1  0
 14 47  1  0
 14 48  1  0
 20 49  1  0
 21 50  1  0
 22 51  1  0
 23 52  1  0
 24 53  1  0
 25 54  1  0
 27 55  1  0
 27 56  1  0
 27 57  1  0
M  END
>  <Binding energies>  (1) 
[-7.03]

>  <Ligand effiencies>  (1) 
[-0.2267741935483871]

>  <Interactions>  (1) 
["V-A:ASP:366:CG:3212, V-A:PRO:540:CB:4885, V-A:ILE:538:CB:4862, V-A:ILE:538:CG2:4863, V-A:LEU:363:CD1:3188, V-A:PRO:540:N:4884, V-A:PRO:540:CA:4883, V-A:ILE:538:CA:4860, V-A:PRO:540:CD:4887, V-B:PRO:540:CB:9857, V-B:TYR:539:CE2:9848, V-B:PRO:540:CD:9859, V-B:PRO:540:N:9856, V-B:PRO:540:CA:9855, V-B:MET:535:CE:9807, V-B:TYR:539:CA:9841, V-B:TYR:539:CD2:9846, V-B:TYR:531:CE2:9765, V-B:TYR:539:C:9839, V-B:LEU:363:CD1:8160, V-A:ILE:369:CG2:3236, V-A:ASP:366:CB:3211, V-A:LEU:475:CD1:4257, V-B:TYR:539:CG:9844, V-B:TYR:539:CZ:9849, H-B:TYR:539:OH:9850, H-A:TYR:531:OH:4795, H-A:TYR:539:N:4870, V-A:ASP:366:CA:3209, V-A:ASP:366:C:3207"]

$$$$
3ca_Grossjean_2025
     RDKit          3D

 52 54  0  0  0  0  0  0  0  0999 V2000
  125.2450  122.1510   55.2290 C   0  0  0  0  0  0  0  0  0  0  0  0
  125.9290  122.6280   56.5140 C   0  0  0  0  0  0  0  0  0  0  0  0
  125.3370  123.8490   56.9390 O   0  0  0  0  0  0  0  0  0  0  0  0
  125.1000  124.0930   58.2530 C   0  0  0  0  0  0  0  0  0  0  0  0
  123.9930  124.4130   58.6970 O   0  0  0  0  0  0  0  0  0  0  0  0
  126.3180  123.9280   59.1170 C   0  0  0  0  0  0  0  0  0  0  0  0
  126.1800  123.3750   60.3960 C   0  0  0  0  0  0  0  0  0  0  0  0
  127.2890  123.2100   61.2200 C   0  0  0  0  0  0  0  0  0  0  0  0
  128.5570  123.6010   60.7860 C   0  0  0  0  0  0  0  0  0  0  0  0
  129.6100  123.3880   61.6970 N   0  0  0  0  0  0  0  0  0  0  0  0
  130.3580  122.2840   61.9060 C   0  0  0  0  0  0  0  0  0  0  0  0
  130.2540  121.2250   61.2890 O   0  0  0  0  0  0  0  0  0  0  0  0
  131.4270  122.4150   62.9970 C   0  0  0  0  0  0  0  0  0  0  0  0
  132.4240  123.9350   62.8460 S   0  0  0  0  0  0  0  0  0  0  0  0
  132.5630  124.7300   64.4410 C   0  0  0  0  0  0  0  0  0  0  0  0
  133.8200  124.8160   64.9470 N   0  0  0  0  0  0  0  0  0  0  0  0
  134.0030  125.4230   66.1400 C   0  0  0  0  0  0  0  0  0  0  0  0
  135.4360  125.4960   66.6280 C   0  0  0  0  0  0  0  0  0  0  0  0
  132.9490  125.9520   66.8810 C   0  0  0  0  0  0  0  0  0  0  0  0
  131.6410  125.8590   66.3900 C   0  0  0  0  0  0  0  0  0  0  0  0
  130.5410  126.4290   67.2250 C   0  0  0  0  0  0  0  0  0  0  0  0
  130.7000  127.6760   67.8420 C   0  0  0  0  0  0  0  0  0  0  0  0
  129.6840  128.2100   68.6300 C   0  0  0  0  0  0  0  0  0  0  0  0
  128.5030  127.4940   68.8100 C   0  0  0  0  0  0  0  0  0  0  0  0
  128.3310  126.2490   68.2100 C   0  0  0  0  0  0  0  0  0  0  0  0
  129.3500  125.7180   67.4220 C   0  0  0  0  0  0  0  0  0  0  0  0
  131.4360  125.2400   65.1300 C   0  0  0  0  0  0  0  0  0  0  0  0
  130.0960  125.1590   64.5410 C   0  0  0  0  0  0  0  0  0  0  0  0
  129.0370  125.0960   64.0760 N   0  0  0  0  0  0  0  0  0  0  0  0
  128.7060  124.1490   59.5030 C   0  0  0  0  0  0  0  0  0  0  0  0
  127.5950  124.3110   58.6800 C   0  0  0  0  0  0  0  0  0  0  0  0
  124.3677  121.5392   55.4860 H   0  0  0  0  0  0  0  0  0  0  0  0
  124.9243  123.0223   54.6391 H   0  0  0  0  0  0  0  0  0  0  0  0
  125.9518  121.5489   54.6391 H   0  0  0  0  0  0  0  0  0  0  0  0
  125.8059  121.8676   57.2993 H   0  0  0  0  0  0  0  0  0  0  0  0
  127.0006  122.7863   56.3228 H   0  0  0  0  0  0  0  0  0  0  0  0
  125.1857  123.0682   60.7526 H   0  0  0  0  0  0  0  0  0  0  0  0
  127.1658  122.7686   62.2200 H   0  0  0  0  0  0  0  0  0  0  0  0
  129.8640  124.2050   62.2330 H   0  0  0  0  0  0  0  0  0  0  0  0
  130.9277  122.4202   63.9771 H   0  0  0  0  0  0  0  0  0  0  0  0
  132.1126  121.5618   62.8875 H   0  0  0  0  0  0  0  0  0  0  0  0
  135.4492  125.4967   67.7279 H   0  0  0  0  0  0  0  0  0  0  0  0
  135.9951  124.6252   66.2551 H   0  0  0  0  0  0  0  0  0  0  0  0
  135.9037  126.4191   66.2551 H   0  0  0  0  0  0  0  0  0  0  0  0
  133.1432  126.4405   67.8473 H   0  0  0  0  0  0  0  0  0  0  0  0
  131.6352  128.2382   67.7029 H   0  0  0  0  0  0  0  0  0  0  0  0
  129.8133  129.1923   69.1079 H   0  0  0  0  0  0  0  0  0  0  0  0
  127.6992  127.9155   69.4314 H   0  0  0  0  0  0  0  0  0  0  0  0
  127.3962  125.6882   68.3573 H   0  0  0  0  0  0  0  0  0  0  0  0
  129.2183  124.7328   66.9508 H   0  0  0  0  0  0  0  0  0  0  0  0
  129.7020  124.4510   59.1470 H   0  0  0  0  0  0  0  0  0  0  0  0
  127.7196  124.7439   57.6765 H   0  0  0  0  0  0  0  0  0  0  0  0
  1  2  1  0
  2  3  1  0
  3  4  1  0
  4  5  2  0
  4  6  1  0
  6  7  2  0
  7  8  1  0
  8  9  2  0
  9 10  1  0
 10 11  1  0
 11 12  2  0
 11 13  1  0
 13 14  1  0
 14 15  1  0
 15 16  2  0
 16 17  1  0
 17 18  1  0
 17 19  2  0
 19 20  1  0
 20 21  1  0
 21 22  2  0
 22 23  1  0
 23 24  2  0
 24 25  1  0
 25 26  2  0
 20 27  2  0
 27 28  1  0
 28 29  3  0
  9 30  1  0
 30 31  2  0
 31  6  1  0
 27 15  1  0
 26 21  1  0
  1 32  1  0
  1 33  1  0
  1 34  1  0
  2 35  1  0
  2 36  1  0
  7 37  1  0
  8 38  1  0
 10 39  1  0
 13 40  1  0
 13 41  1  0
 18 42  1  0
 18 43  1  0
 18 44  1  0
 19 45  1  0
 22 46  1  0
 23 47  1  0
 24 48  1  0
 25 49  1  0
 26 50  1  0
 30 51  1  0
 31 52  1  0
M  END
>  <Binding energies>  (1) 
[-8.41]

>  <Ligand effiencies>  (1) 
[-0.2628125]

>  <Interactions>  (1) 
["V-A:GLU:543:C:4902, V-A:HIS:456:CE1:4069, H-A:GLY:454:N:4049, V-A:TYR:484:CZ:4346, V-B:GLU:543:CG:9879, V-A:ILE:455:C:4051, V-A:ARG:545:CZ:4926, H-A:TYR:484:OH:4347, V-A:GLY:453:C:4041, V-A:ARG:545:CD:4923, V-A:ARG:545:CG:4922, V-A:GLY:453:CA:4043, H-B:TYR:531:OH:9767, V-A:GLU:543:CD:4908, V-A:GLU:543:CG:4907, V-B:PRO:540:CB:9857, V-B:PRO:540:CA:9855, V-B:MET:535:CE:9807, V-B:TYR:531:CE2:9765, V-B:LEU:363:CD1:8160, V-A:GLY:454:CA:4048, V-A:LEU:475:CD1:4257, V-B:GLU:543:CB:9878, V-A:TYR:484:CE2:4345, V-A:GLU:543:CB:4906, V-B:HIS:456:CE1:9041, V-B:ILE:538:CG2:9835, V-A:ARG:545:CB:4921, V-B:ILE:538:CA:9832, V-B:MET:535:CG:9805, V-B:ILE:538:CB:9834, V-B:ILE:538:CG1:9836"]

$$$$
3cb_Grossjean_2025
     RDKit          3D

 49 51  0  0  0  0  0  0  0  0999 V2000
  125.2450  121.7110   55.2030 C   0  0  0  0  0  0  0  0  0  0  0  0
  126.1370  121.8050   56.3040 O   0  0  0  0  0  0  0  0  0  0  0  0
  126.4050  123.0010   56.8880 C   0  0  0  0  0  0  0  0  0  0  0  0
  125.6430  123.9710   56.8330 O   0  0  0  0  0  0  0  0  0  0  0  0
  127.7240  123.0290   57.6060 C   0  0  0  0  0  0  0  0  0  0  0  0
  128.7430  123.9270   57.2550 C   0  0  0  0  0  0  0  0  0  0  0  0
  129.9530  123.9290   57.9430 C   0  0  0  0  0  0  0  0  0  0  0  0
  130.1740  123.0330   58.9890 C   0  0  0  0  0  0  0  0  0  0  0  0
  131.4330  123.1240   59.6180 N   0  0  0  0  0  0  0  0  0  0  0  0
  132.2430  124.1910   59.7880 C   0  0  0  0  0  0  0  0  0  0  0  0
  131.9880  125.3370   59.4120 O   0  0  0  0  0  0  0  0  0  0  0  0
  133.5540  123.8840   60.5270 C   0  0  0  0  0  0  0  0  0  0  0  0
  133.3720  122.8420   62.0160 S   0  0  0  0  0  0  0  0  0  0  0  0
  131.9150  123.3840   62.8850 C   0  0  0  0  0  0  0  0  0  0  0  0
  130.7600  122.9590   62.3180 N   0  0  0  0  0  0  0  0  0  0  0  0
  129.5880  123.3090   62.8930 C   0  0  0  0  0  0  0  0  0  0  0  0
  128.3370  122.7880   62.2130 C   0  0  0  0  0  0  0  0  0  0  0  0
  129.5220  124.0950   64.0410 C   0  0  0  0  0  0  0  0  0  0  0  0
  130.7030  124.5590   64.6340 C   0  0  0  0  0  0  0  0  0  0  0  0
  130.5780  125.4040   65.8610 C   0  0  0  0  0  0  0  0  0  0  0  0
  131.6240  126.2560   66.2390 C   0  0  0  0  0  0  0  0  0  0  0  0
  131.5130  127.0550   67.3740 C   0  0  0  0  0  0  0  0  0  0  0  0
  130.3500  127.0080   68.1370 C   0  0  0  0  0  0  0  0  0  0  0  0
  129.2980  126.1740   67.7730 C   0  0  0  0  0  0  0  0  0  0  0  0
  129.4110  125.3770   66.6360 C   0  0  0  0  0  0  0  0  0  0  0  0
  131.9410  124.2110   64.0350 C   0  0  0  0  0  0  0  0  0  0  0  0
  133.2020  124.7450   64.5580 C   0  0  0  0  0  0  0  0  0  0  0  0
  134.1970  125.1670   64.9710 N   0  0  0  0  0  0  0  0  0  0  0  0
  129.1590  122.1340   59.3490 C   0  0  0  0  0  0  0  0  0  0  0  0
  127.9480  122.1340   58.6610 C   0  0  0  0  0  0  0  0  0  0  0  0
  124.2151  121.6025   55.5738 H   0  0  0  0  0  0  0  0  0  0  0  0
  125.3204  122.6221   54.5912 H   0  0  0  0  0  0  0  0  0  0  0  0
  125.5086  120.8357   54.5912 H   0  0  0  0  0  0  0  0  0  0  0  0
  128.5844  124.6357   56.4289 H   0  0  0  0  0  0  0  0  0  0  0  0
  130.7408  124.6425   57.6597 H   0  0  0  0  0  0  0  0  0  0  0  0
  131.7540  122.2540   60.0200 H   0  0  0  0  0  0  0  0  0  0  0  0
  134.2271  123.3662   59.8279 H   0  0  0  0  0  0  0  0  0  0  0  0
  133.9464  124.8514   60.8737 H   0  0  0  0  0  0  0  0  0  0  0  0
  127.6051  122.4832   62.9755 H   0  0  0  0  0  0  0  0  0  0  0  0
  127.9039  123.5805   61.5851 H   0  0  0  0  0  0  0  0  0  0  0  0
  128.5945  121.9223   61.5851 H   0  0  0  0  0  0  0  0  0  0  0  0
  128.5463  124.3503   64.4801 H   0  0  0  0  0  0  0  0  0  0  0  0
  132.5415  126.2941   65.6335 H   0  0  0  0  0  0  0  0  0  0  0  0
  132.3397  127.7194   67.6658 H   0  0  0  0  0  0  0  0  0  0  0  0
  130.2620  127.6359   69.0359 H   0  0  0  0  0  0  0  0  0  0  0  0
  128.3812  126.1439   68.3800 H   0  0  0  0  0  0  0  0  0  0  0  0
  128.5774  124.7212   66.3443 H   0  0  0  0  0  0  0  0  0  0  0  0
  129.3199  121.4274   60.1766 H   0  0  0  0  0  0  0  0  0  0  0  0
  127.1588  121.4238   58.9488 H   0  0  0  0  0  0  0  0  0  0  0  0
  1  2  1  0
  2  3  1  0
  3  4  2  0
  3  5  1  0
  5  6  2  0
  6  7  1  0
  7  8  2  0
  8  9  1  0
  9 10  1  0
 10 11  2  0
 10 12  1  0
 12 13  1  0
 13 14  1  0
 14 15  2  0
 15 16  1  0
 16 17  1  0
 16 18  2  0
 18 19  1  0
 19 20  1  0
 20 21  2  0
 21 22  1  0
 22 23  2  0
 23 24  1  0
 24 25  2  0
 19 26  2  0
 26 27  1  0
 27 28  3  0
  8 29  1  0
 29 30  2  0
 30  5  1  0
 26 14  1  0
 25 20  1  0
  1 31  1  0
  1 32  1  0
  1 33  1  0
  6 34  1  0
  7 35  1  0
  9 36  1  0
 12 37  1  0
 12 38  1  0
 17 39  1  0
 17 40  1  0
 17 41  1  0
 18 42  1  0
 21 43  1  0
 22 44  1  0
 23 45  1  0
 24 46  1  0
 25 47  1  0
 29 48  1  0
 30 49  1  0
M  END
>  <Binding energies>  (1) 
[-8.55]

>  <Ligand effiencies>  (1) 
[-0.27580645161290324]

>  <Interactions>  (1) 
["V-A:HIS:456:CE1:4069, H-A:GLY:454:N:4049, H-A:ARG:545:NH2:4928, V-B:GLU:543:CG:9879, V-A:ARG:545:CZ:4926, V-A:ASP:366:CG:3212, H-A:TYR:484:OH:4347, V-B:GLU:543:CD:9880, H-A:ARG:545:NE:4924, V-B:ALA:541:CB:9864, V-A:ARG:545:CG:4922, H-B:TYR:531:OH:9767, V-A:GLU:543:CD:4908, V-B:PRO:540:CB:9857, V-B:TYR:539:CE2:9848, V-B:PRO:540:CD:9859, V-B:PRO:540:N:9856, V-B:PRO:540:CA:9855, V-B:MET:535:CE:9807, V-B:TYR:539:CD2:9846, V-B:TYR:539:C:9839, V-B:LEU:363:CD1:8160, V-A:GLY:454:CA:4048, V-B:GLU:543:CB:9878, V-A:TYR:484:CE2:4345, V-A:GLU:543:CB:4906, V-B:TYR:539:CZ:9849, V-B:ILE:538:CG2:9835, H-A:ARG:545:NH1:4927, H-B:TYR:539:N:9842, V-B:ILE:538:CA:9832, V-B:MET:535:CG:9805, V-B:ILE:538:CB:9834, V-B:ILE:538:CG1:9836, V-B:ILE:538:C:9830"]

$$$$
3ce_Grossjean_2025
     RDKit          3D

 45 47  0  0  0  0  0  0  0  0999 V2000
  134.4080  125.4770   66.9700 C   0  0  0  0  0  0  0  0  0  0  0  0
  133.4050  125.4980   65.8320 C   0  0  0  0  0  0  0  0  0  0  0  0
  132.0790  125.8900   66.0340 C   0  0  0  0  0  0  0  0  0  0  0  0
  131.2150  125.8940   64.9390 C   0  0  0  0  0  0  0  0  0  0  0  0
  131.6900  125.5100   63.6830 C   0  0  0  0  0  0  0  0  0  0  0  0
  133.0270  125.1190   63.5530 C   0  0  0  0  0  0  0  0  0  0  0  0
  133.4540  124.7610   62.2630 N   0  0  0  0  0  0  0  0  0  0  0  0
  133.7960  123.5360   61.8050 C   0  0  0  0  0  0  0  0  0  0  0  0
  133.7780  122.5020   62.4740 O   0  0  0  0  0  0  0  0  0  0  0  0
  134.2210  123.4720   60.3380 C   0  0  0  0  0  0  0  0  0  0  0  0
  132.9710  124.1950   59.2360 S   0  0  0  0  0  0  0  0  0  0  0  0
  131.4720  123.2910   59.5460 C   0  0  0  0  0  0  0  0  0  0  0  0
  131.5700  122.3910   60.5560 N   0  0  0  0  0  0  0  0  0  0  0  0
  130.4770  121.6630   60.8820 C   0  0  0  0  0  0  0  0  0  0  0  0
  130.6530  120.6860   62.0280 C   0  0  0  0  0  0  0  0  0  0  0  0
  129.2630  121.7930   60.2130 C   0  0  0  0  0  0  0  0  0  0  0  0
  129.1490  122.6980   59.1500 C   0  0  0  0  0  0  0  0  0  0  0  0
  127.8340  122.7830   58.4470 C   0  0  0  0  0  0  0  0  0  0  0  0
  126.7950  123.5480   58.9900 C   0  0  0  0  0  0  0  0  0  0  0  0
  125.5640  123.6270   58.3430 C   0  0  0  0  0  0  0  0  0  0  0  0
  125.3640  122.9340   57.1520 C   0  0  0  0  0  0  0  0  0  0  0  0
  126.3850  122.1600   56.6050 C   0  0  0  0  0  0  0  0  0  0  0  0
  127.6140  122.0840   57.2530 C   0  0  0  0  0  0  0  0  0  0  0  0
  130.2820  123.4770   58.8030 C   0  0  0  0  0  0  0  0  0  0  0  0
  130.2180  124.4520   57.7100 C   0  0  0  0  0  0  0  0  0  0  0  0
  130.1670  125.2210   56.8470 N   0  0  0  0  0  0  0  0  0  0  0  0
  133.8810  125.1200   64.6180 N   0  0  0  0  0  0  0  0  0  0  0  0
  133.8726  125.4882   67.9309 H   0  0  0  0  0  0  0  0  0  0  0  0
  135.0205  124.5658   66.9021 H   0  0  0  0  0  0  0  0  0  0  0  0
  135.0581  126.3617   66.9021 H   0  0  0  0  0  0  0  0  0  0  0  0
  131.7253  126.1881   67.0320 H   0  0  0  0  0  0  0  0  0  0  0  0
  130.1652  126.1979   65.0640 H   0  0  0  0  0  0  0  0  0  0  0  0
  131.0226  125.5149   62.8086 H   0  0  0  0  0  0  0  0  0  0  0  0
  133.4130  125.5040   61.5800 H   0  0  0  0  0  0  0  0  0  0  0  0
  135.1640  124.0252   60.2169 H   0  0  0  0  0  0  0  0  0  0  0  0
  134.3433  122.4134   60.0653 H   0  0  0  0  0  0  0  0  0  0  0  0
  130.5566  121.2212   62.9842 H   0  0  0  0  0  0  0  0  0  0  0  0
  129.8811  119.9048   61.9656 H   0  0  0  0  0  0  0  0  0  0  0  0
  131.6490  120.2232   61.9656 H   0  0  0  0  0  0  0  0  0  0  0  0
  128.3968  121.1874   60.5180 H   0  0  0  0  0  0  0  0  0  0  0  0
  126.9518  124.0904   59.9340 H   0  0  0  0  0  0  0  0  0  0  0  0
  124.7531  124.2345   58.7713 H   0  0  0  0  0  0  0  0  0  0  0  0
  124.3929  122.9981   56.6394 H   0  0  0  0  0  0  0  0  0  0  0  0
  126.2205  121.6118   55.6657 H   0  0  0  0  0  0  0  0  0  0  0  0
  128.4196  121.4699   56.8242 H   0  0  0  0  0  0  0  0  0  0  0  0
  1  2  1  0
  2  3  2  0
  3  4  1  0
  4  5  2  0
  5  6  1  0
  6  7  1  0
  7  8  1  0
  8  9  2  0
  8 10  1  0
 10 11  1  0
 11 12  1  0
 12 13  2  0
 13 14  1  0
 14 15  1  0
 14 16  2  0
 16 17  1  0
 17 18  1  0
 18 19  2  0
 19 20  1  0
 20 21  2  0
 21 22  1  0
 22 23  2  0
 17 24  2  0
 24 25  1  0
 25 26  3  0
  6 27  2  0
 27  2  1  0
 24 12  1  0
 23 18  1  0
  1 28  1  0
  1 29  1  0
  1 30  1  0
  3 31  1  0
  4 32  1  0
  5 33  1  0
  7 34  1  0
 10 35  1  0
 10 36  1  0
 15 37  1  0
 15 38  1  0
 15 39  1  0
 16 40  1  0
 19 41  1  0
 20 42  1  0
 21 43  1  0
 22 44  1  0
 23 45  1  0
M  END
>  <Binding energies>  (1) 
[-8.84]

>  <Ligand effiencies>  (1) 
[-0.3157142857142857]

>  <Interactions>  (1) 
["H-A:GLY:454:N:4049, H-A:ARG:545:NH2:4928, V-A:ILE:455:C:4051, V-A:ARG:545:CZ:4926, V-A:ASP:366:CG:3212, H-A:TYR:484:OH:4347, H-A:ARG:545:NE:4924, V-B:ALA:541:CB:9864, V-A:ARG:545:CD:4923, V-A:ARG:545:CG:4922, H-A:ASP:366:OD2:3214, V-A:GLU:543:CD:4908, V-B:PRO:540:CB:9857, V-B:TYR:539:CE2:9848, V-B:PRO:540:CD:9859, V-B:PRO:540:N:9856, V-B:PRO:540:CA:9855, V-B:MET:535:CE:9807, V-B:TYR:539:CA:9841, V-B:TYR:539:CD2:9846, V-B:TYR:531:CE2:9765, V-B:TYR:539:C:9839, V-B:LEU:363:CD1:8160, V-A:ILE:369:CG2:3236, V-A:ILE:369:CB:3235, V-A:LEU:475:CD1:4257, V-A:ILE:369:CD1:3238, V-B:TYR:539:CG:9844, V-B:TYR:539:CZ:9849, H-B:TYR:539:OH:9850, V-A:ASP:366:CA:3209, H-A:ASP:366:OD1:3213, H-A:ARG:545:NH1:4927"]

$$$$
3ch_Grossjean_2025
     RDKit          3D

 55 57  0  0  0  0  0  0  0  0999 V2000
  129.2550  131.8820   55.3300 C   0  0  0  0  0  0  0  0  0  0  0  0
  130.1390  132.3680   56.3340 O   0  0  0  0  0  0  0  0  0  0  0  0
  129.9760  131.9570   57.6440 C   0  0  0  0  0  0  0  0  0  0  0  0
  128.7410  131.9310   58.3120 C   0  0  0  0  0  0  0  0  0  0  0  0
  128.6510  131.4910   59.6410 C   0  0  0  0  0  0  0  0  0  0  0  0
  127.4600  131.4260   60.3890 N   0  0  0  0  0  0  0  0  0  0  0  0
  127.1810  131.9280   61.6110 C   0  0  0  0  0  0  0  0  0  0  0  0
  127.9580  132.5760   62.3120 O   0  0  0  0  0  0  0  0  0  0  0  0
  125.7570  131.6870   62.1140 C   0  0  0  0  0  0  0  0  0  0  0  0
  125.3590  129.9170   62.2240 S   0  0  0  0  0  0  0  0  0  0  0  0
  125.5030  129.4850   63.9440 C   0  0  0  0  0  0  0  0  0  0  0  0
  124.3530  129.6350   64.6470 N   0  0  0  0  0  0  0  0  0  0  0  0
  124.3580  129.3390   65.9660 C   0  0  0  0  0  0  0  0  0  0  0  0
  123.0410  129.5350   66.6920 C   0  0  0  0  0  0  0  0  0  0  0  0
  125.4970  128.8890   66.6300 C   0  0  0  0  0  0  0  0  0  0  0  0
  126.6940  128.7200   65.9190 C   0  0  0  0  0  0  0  0  0  0  0  0
  127.8930  128.2450   66.6740 C   0  0  0  0  0  0  0  0  0  0  0  0
  128.3820  128.9870   67.7550 C   0  0  0  0  0  0  0  0  0  0  0  0
  129.5040  128.5550   68.4590 C   0  0  0  0  0  0  0  0  0  0  0  0
  130.1430  127.3770   68.0800 C   0  0  0  0  0  0  0  0  0  0  0  0
  129.6730  126.6310   67.0030 C   0  0  0  0  0  0  0  0  0  0  0  0
  128.5520  127.0670   66.3010 C   0  0  0  0  0  0  0  0  0  0  0  0
  126.6980  129.0080   64.5300 C   0  0  0  0  0  0  0  0  0  0  0  0
  127.8940  128.7590   63.7190 C   0  0  0  0  0  0  0  0  0  0  0  0
  128.8380  128.5650   63.0780 N   0  0  0  0  0  0  0  0  0  0  0  0
  129.8120  131.0950   60.3060 C   0  0  0  0  0  0  0  0  0  0  0  0
  131.0590  131.1130   59.6610 C   0  0  0  0  0  0  0  0  0  0  0  0
  132.2450  130.7260   60.2600 O   0  0  0  0  0  0  0  0  0  0  0  0
  132.7440  131.4670   61.3690 C   0  0  0  0  0  0  0  0  0  0  0  0
  131.1270  131.5490   58.3310 C   0  0  0  0  0  0  0  0  0  0  0  0
  132.3390  131.5550   57.6820 O   0  0  0  0  0  0  0  0  0  0  0  0
  132.7780  130.2700   57.2620 C   0  0  0  0  0  0  0  0  0  0  0  0
  128.3862  131.4043   55.8064 H   0  0  0  0  0  0  0  0  0  0  0  0
  128.9151  132.7201   54.7038 H   0  0  0  0  0  0  0  0  0  0  0  0
  129.7805  131.1460   54.7038 H   0  0  0  0  0  0  0  0  0  0  0  0
  127.8324  132.2599   57.7863 H   0  0  0  0  0  0  0  0  0  0  0  0
  126.6970  130.9660   59.9130 H   0  0  0  0  0  0  0  0  0  0  0  0
  125.6531  132.1363   63.1127 H   0  0  0  0  0  0  0  0  0  0  0  0
  125.0624  132.1456   61.3949 H   0  0  0  0  0  0  0  0  0  0  0  0
  123.2136  129.5093   67.7781 H   0  0  0  0  0  0  0  0  0  0  0  0
  122.6093  130.5073   66.4123 H   0  0  0  0  0  0  0  0  0  0  0  0
  122.3448  128.7306   66.4123 H   0  0  0  0  0  0  0  0  0  0  0  0
  125.4577  128.6673   67.7067 H   0  0  0  0  0  0  0  0  0  0  0  0
  127.8768  129.9182   68.0511 H   0  0  0  0  0  0  0  0  0  0  0  0
  129.8830  129.1410   69.3093 H   0  0  0  0  0  0  0  0  0  0  0  0
  131.0271  127.0330   68.6368 H   0  0  0  0  0  0  0  0  0  0  0  0
  130.1839  125.7026   66.7081 H   0  0  0  0  0  0  0  0  0  0  0  0
  128.1813  126.4814   65.4468 H   0  0  0  0  0  0  0  0  0  0  0  0
  129.7493  130.7632   61.3529 H   0  0  0  0  0  0  0  0  0  0  0  0
  132.4214  130.9879   62.3051 H   0  0  0  0  0  0  0  0  0  0  0  0
  133.8430  131.4911   61.3292 H   0  0  0  0  0  0  0  0  0  0  0  0
  132.3531  132.4944   61.3292 H   0  0  0  0  0  0  0  0  0  0  0  0
  132.9903  129.6485   58.1444 H   0  0  0  0  0  0  0  0  0  0  0  0
  131.9918  129.7931   56.6583 H   0  0  0  0  0  0  0  0  0  0  0  0
  133.6916  130.3739   56.6583 H   0  0  0  0  0  0  0  0  0  0  0  0
  1  2  1  0
  2  3  1  0
  3  4  2  0
  4  5  1  0
  5  6  1  0
  6  7  1  0
  7  8  2  0
  7  9  1  0
  9 10  1  0
 10 11  1  0
 11 12  2  0
 12 13  1  0
 13 14  1  0
 13 15  2  0
 15 16  1  0
 16 17  1  0
 17 18  2  0
 18 19  1  0
 19 20  2  0
 20 21  1  0
 21 22  2  0
 16 23  2  0
 23 24  1  0
 24 25  3  0
  5 26  2  0
 26 27  1  0
 27 28  1  0
 28 29  1  0
 27 30  2  0
 30 31  1  0
 31 32  1  0
 30  3  1  0
 23 11  1  0
 22 17  1  0
  1 33  1  0
  1 34  1  0
  1 35  1  0
  4 36  1  0
  6 37  1  0
  9 38  1  0
  9 39  1  0
 14 40  1  0
 14 41  1  0
 14 42  1  0
 15 43  1  0
 18 44  1  0
 19 45  1  0
 20 46  1  0
 21 47  1  0
 22 48  1  0
 26 49  1  0
 29 50  1  0
 29 51  1  0
 29 52  1  0
 32 53  1  0
 32 54  1  0
 32 55  1  0
M  END
>  <Binding energies>  (1) 
[-7.57]

>  <Ligand effiencies>  (1) 
[-0.2293939393939394]

>  <Interactions>  (1) 
["V-A:GLU:543:C:4902, V-A:HIS:456:CE1:4069, V-B:GLU:543:CD:9880, V-A:TYR:539:CD1:4873, V-A:PRO:540:CB:4885, V-A:LEU:363:CD1:3188, V-A:PRO:540:N:4884, V-A:TYR:539:CE1:4875, V-A:PRO:540:CA:4883, V-A:ILE:538:CA:4860, V-A:TYR:539:C:4867, V-A:GLU:543:CD:4908, V-A:GLU:543:CG:4907, H-B:ARG:545:NH2:9900, V-A:GLU:543:CA:4904, V-A:ASP:366:CB:3211, V-A:GLU:543:CB:4906, V-B:HIS:456:CE1:9041, V-A:PRO:540:C:4881, V-A:ASN:362:CB:3175, V-B:GLY:454:CA:9020, V-B:TYR:484:CE2:9317, V-B:ARG:545:CZ:9898, V-B:ARG:545:CG:9894, V-B:ARG:545:CD:9895, H-A:TYR:539:N:4870, H-B:GLY:454:N:9021, H-B:ARG:545:NE:9896, V-B:GLY:453:CA:9015, V-B:GLY:453:C:9013, H-B:ARG:545:NH1:9899, V-B:ILE:455:C:9023, V-B:GLY:454:C:9018"]

$$$$
3ci_Grossjean_2025
     RDKit          3D

 39 41  0  0  0  0  0  0  0  0999 V2000
  131.9790  125.7760   56.4480 C   0  0  0  0  0  0  0  0  0  0  0  0
  131.1910  124.9190   57.4210 C   0  0  0  0  0  0  0  0  0  0  0  0
  129.8890  124.5120   57.1470 C   0  0  0  0  0  0  0  0  0  0  0  0
  129.2070  123.7070   58.0700 C   0  0  0  0  0  0  0  0  0  0  0  0
  127.8170  123.2810   57.7270 C   0  0  0  0  0  0  0  0  0  0  0  0
  127.5890  122.1440   56.9410 C   0  0  0  0  0  0  0  0  0  0  0  0
  126.2910  121.7560   56.6170 C   0  0  0  0  0  0  0  0  0  0  0  0
  125.2140  122.5090   57.0740 C   0  0  0  0  0  0  0  0  0  0  0  0
  125.4230  123.6470   57.8480 C   0  0  0  0  0  0  0  0  0  0  0  0
  126.7220  124.0320   58.1710 C   0  0  0  0  0  0  0  0  0  0  0  0
  129.8730  123.3430   59.2680 C   0  0  0  0  0  0  0  0  0  0  0  0
  129.1950  122.5380   60.2900 C   0  0  0  0  0  0  0  0  0  0  0  0
  128.6580  121.9020   61.0950 N   0  0  0  0  0  0  0  0  0  0  0  0
  131.2000  123.7960   59.4640 C   0  0  0  0  0  0  0  0  0  0  0  0
  132.1410  123.3790   60.9270 S   0  0  0  0  0  0  0  0  0  0  0  0
  132.2300  124.8300   62.0270 C   0  0  0  0  0  0  0  0  0  0  0  0
  132.9160  124.5360   63.3660 C   0  0  0  0  0  0  0  0  0  0  0  0
  133.4790  123.4520   63.5290 O   0  0  0  0  0  0  0  0  0  0  0  0
  132.8320  125.5140   64.2950 N   0  0  0  0  0  0  0  0  0  0  0  0
  133.3860  125.5150   65.5680 C   0  0  0  0  0  0  0  0  0  0  0  0
  132.6650  125.8600   66.7100 C   0  0  0  0  0  0  0  0  0  0  0  0
  133.5600  125.7380   67.7490 C   0  0  0  0  0  0  0  0  0  0  0  0
  134.7570  125.3380   67.2560 O   0  0  0  0  0  0  0  0  0  0  0  0
  134.6340  125.2010   65.8730 N   0  0  0  0  0  0  0  0  0  0  0  0
  131.8390  124.5760   58.5560 N   0  0  0  0  0  0  0  0  0  0  0  0
  132.6196  126.4727   57.0086 H   0  0  0  0  0  0  0  0  0  0  0  0
  132.6055  125.1304   55.8150 H   0  0  0  0  0  0  0  0  0  0  0  0
  131.2832  126.3462   55.8150 H   0  0  0  0  0  0  0  0  0  0  0  0
  129.3980  124.8199   56.2121 H   0  0  0  0  0  0  0  0  0  0  0  0
  128.4420  121.5527   56.5767 H   0  0  0  0  0  0  0  0  0  0  0  0
  126.1185  120.8595   56.0034 H   0  0  0  0  0  0  0  0  0  0  0  0
  124.1882  122.2024   56.8214 H   0  0  0  0  0  0  0  0  0  0  0  0
  124.5666  124.2392   58.2027 H   0  0  0  0  0  0  0  0  0  0  0  0
  126.8889  124.9330   58.7796 H   0  0  0  0  0  0  0  0  0  0  0  0
  132.7929  125.6233   61.5133 H   0  0  0  0  0  0  0  0  0  0  0  0
  131.1964  125.1326   62.2506 H   0  0  0  0  0  0  0  0  0  0  0  0
  132.3360  126.3540   64.0380 H   0  0  0  0  0  0  0  0  0  0  0  0
  131.6094  126.1639   66.7684 H   0  0  0  0  0  0  0  0  0  0  0  0
  133.3389  125.9337   68.8086 H   0  0  0  0  0  0  0  0  0  0  0  0
  1  2  1  0
  2  3  2  0
  3  4  1  0
  4  5  1  0
  5  6  2  0
  6  7  1  0
  7  8  2  0
  8  9  1  0
  9 10  2  0
  4 11  2  0
 11 12  1  0
 12 13  3  0
 11 14  1  0
 14 15  1  0
 15 16  1  0
 16 17  1  0
 17 18  2  0
 17 19  1  0
 19 20  1  0
 20 21  1  0
 21 22  2  0
 22 23  1  0
 23 24  1  0
 14 25  2  0
 25  2  1  0
 10  5  1  0
 24 20  2  0
  1 26  1  0
  1 27  1  0
  1 28  1  0
  3 29  1  0
  6 30  1  0
  7 31  1  0
  8 32  1  0
  9 33  1  0
 10 34  1  0
 16 35  1  0
 16 36  1  0
 19 37  1  0
 21 38  1  0
 22 39  1  0
M  END
>  <Binding energies>  (1) 
[-8.18]

>  <Ligand effiencies>  (1) 
[-0.31461538461538463]

>  <Interactions>  (1) 
["V-A:HIS:456:CE1:4069, H-A:GLY:454:N:4049, V-A:TYR:484:CZ:4346, H-B:ALA:541:N:9863, V-A:ARG:545:CZ:4926, V-A:ASP:366:CG:3212, H-A:TYR:484:OH:4347, H-A:ARG:545:NE:4924, H-A:ILE:455:N:4054, V-A:ARG:545:CD:4923, V-A:ARG:545:CG:4922, H-A:GLU:543:OE2:4910, H-A:GLU:543:OE1:4909, V-B:PRO:540:CB:9857, V-B:TYR:539:CE2:9848, V-B:PRO:540:CD:9859, V-B:PRO:540:N:9856, V-B:PRO:540:CA:9855, V-B:MET:535:CE:9807, V-B:TYR:539:CA:9841, V-B:TYR:531:CE2:9765, V-B:TYR:539:C:9839, V-B:LEU:363:CD1:8160, V-A:ASP:366:CB:3211, V-B:TYR:539:CG:9844, V-B:TYR:539:CZ:9849, H-B:TYR:539:OH:9850, V-B:TYR:539:CE1:9847, V-B:TYR:539:CD1:9845, V-B:PRO:540:CG:9858"]

$$$$
3cj_Grossjean_2025
     RDKit          3D

 39 41  0  0  0  0  0  0  0  0999 V2000
  130.5620  120.8310   62.1210 C   0  0  0  0  0  0  0  0  0  0  0  0
  130.3820  121.7550   60.9320 C   0  0  0  0  0  0  0  0  0  0  0  0
  129.1790  121.8150   60.2320 C   0  0  0  0  0  0  0  0  0  0  0  0
  129.0490  122.7000   59.1530 C   0  0  0  0  0  0  0  0  0  0  0  0
  127.7230  122.7780   58.4740 C   0  0  0  0  0  0  0  0  0  0  0  0
  127.5090  122.1230   57.2560 C   0  0  0  0  0  0  0  0  0  0  0  0
  126.2750  122.2070   56.6160 C   0  0  0  0  0  0  0  0  0  0  0  0
  125.2510  122.9530   57.1910 C   0  0  0  0  0  0  0  0  0  0  0  0
  125.4510  123.6180   58.3980 C   0  0  0  0  0  0  0  0  0  0  0  0
  126.6860  123.5330   59.0360 C   0  0  0  0  0  0  0  0  0  0  0  0
  130.1690  123.4880   58.7890 C   0  0  0  0  0  0  0  0  0  0  0  0
  130.1040  124.4120   57.6520 C   0  0  0  0  0  0  0  0  0  0  0  0
  130.0520  125.1420   56.7550 N   0  0  0  0  0  0  0  0  0  0  0  0
  131.3480  123.3660   59.5580 C   0  0  0  0  0  0  0  0  0  0  0  0
  132.7800  124.3900   59.2920 S   0  0  0  0  0  0  0  0  0  0  0  0
  134.1280  123.5490   60.1830 C   0  0  0  0  0  0  0  0  0  0  0  0
  134.2670  124.0600   61.6200 C   0  0  0  0  0  0  0  0  0  0  0  0
  135.3840  124.3470   62.0570 O   0  0  0  0  0  0  0  0  0  0  0  0
  133.1090  124.1920   62.3020 N   0  0  0  0  0  0  0  0  0  0  0  0
  132.9490  124.7540   63.5580 C   0  0  0  0  0  0  0  0  0  0  0  0
  133.8420  124.8560   64.5180 N   0  0  0  0  0  0  0  0  0  0  0  0
  133.3510  125.4780   65.5720 C   0  0  0  0  0  0  0  0  0  0  0  0
  132.0270  125.8960   65.4790 C   0  0  0  0  0  0  0  0  0  0  0  0
  131.3980  125.4430   63.9220 S   0  0  0  0  0  0  0  0  0  0  0  0
  131.4490  122.5220   60.6160 N   0  0  0  0  0  0  0  0  0  0  0  0
  130.4500  121.4057   63.0522 H   0  0  0  0  0  0  0  0  0  0  0  0
  129.8017  120.0368   62.0866 H   0  0  0  0  0  0  0  0  0  0  0  0
  131.5648  120.3803   62.0866 H   0  0  0  0  0  0  0  0  0  0  0  0
  128.3361  121.1716   60.5244 H   0  0  0  0  0  0  0  0  0  0  0  0
  128.3214  121.5375   56.8008 H   0  0  0  0  0  0  0  0  0  0  0  0
  126.1108  121.6864   55.6610 H   0  0  0  0  0  0  0  0  0  0  0  0
  124.2750  123.0181   56.6878 H   0  0  0  0  0  0  0  0  0  0  0  0
  124.6373  124.2077   58.8454 H   0  0  0  0  0  0  0  0  0  0  0  0
  126.8479  124.0619   59.9868 H   0  0  0  0  0  0  0  0  0  0  0  0
  133.9188  122.4694   60.2079 H   0  0  0  0  0  0  0  0  0  0  0  0
  135.0695  123.7578   59.6538 H   0  0  0  0  0  0  0  0  0  0  0  0
  132.2570  123.9370   61.8240 H   0  0  0  0  0  0  0  0  0  0  0  0
  133.9543  125.6565   66.4743 H   0  0  0  0  0  0  0  0  0  0  0  0
  131.4683  126.4272   66.2636 H   0  0  0  0  0  0  0  0  0  0  0  0
  1  2  1  0
  2  3  2  0
  3  4  1  0
  4  5  1  0
  5  6  2  0
  6  7  1  0
  7  8  2  0
  8  9  1  0
  9 10  2  0
  4 11  2  0
 11 12  1  0
 12 13  3  0
 11 14  1  0
 14 15  1  0
 15 16  1  0
 16 17  1  0
 17 18  2  0
 17 19  1  0
 19 20  1  0
 20 21  2  0
 21 22  1  0
 22 23  2  0
 23 24  1  0
 14 25  2  0
 25  2  1  0
 10  5  1  0
 24 20  1  0
  1 26  1  0
  1 27  1  0
  1 28  1  0
  3 29  1  0
  6 30  1  0
  7 31  1  0
  8 32  1  0
  9 33  1  0
 10 34  1  0
 16 35  1  0
 16 36  1  0
 19 37  1  0
 22 38  1  0
 23 39  1  0
M  END
>  <Binding energies>  (1) 
[-7.64]

>  <Ligand effiencies>  (1) 
[-0.2938461538461538]

>  <Interactions>  (1) 
["H-A:GLY:454:N:4049, H-A:ARG:545:NH2:4928, V-A:ARG:545:CZ:4926, V-A:ASP:366:CG:3212, H-A:TYR:484:OH:4347, V-B:ALA:541:CB:9864, V-A:ARG:545:CD:4923, V-B:PRO:540:CB:9857, V-B:TYR:539:CE2:9848, V-B:PRO:540:CD:9859, V-B:PRO:540:N:9856, V-B:PRO:540:CA:9855, V-B:MET:535:CE:9807, V-B:TYR:539:CA:9841, V-B:TYR:539:CD2:9846, V-B:TYR:531:CE2:9765, V-B:TYR:539:C:9839, V-B:LEU:363:CD1:8160, V-A:ILE:369:CG2:3236, V-A:ILE:369:CB:3235, V-A:LEU:475:CD1:4257, V-A:ILE:369:CD1:3238, V-B:TYR:539:CZ:9849, H-B:TYR:539:OH:9850, V-A:ASP:366:CA:3209"]

$$$$
3ck_Grossjean_2025
     RDKit          3D

 57 58  0  0  0  0  0  0  0  0999 V2000
  125.2980  121.7890   55.8890 C   0  0  0  0  0  0  0  0  0  0  0  0
  126.6140  121.7310   56.4180 O   0  0  0  0  0  0  0  0  0  0  0  0
  126.9230  122.8130   57.2850 C   0  0  0  0  0  0  0  0  0  0  0  0
  125.6660  123.6620   57.5170 C   0  0  0  0  0  0  0  0  0  0  0  0
  126.0400  125.0260   57.6600 O   0  0  0  0  0  0  0  0  0  0  0  0
  127.4180  125.2200   57.9500 C   0  0  0  0  0  0  0  0  0  0  0  0
  127.5500  126.2090   59.1140 C   0  0  0  0  0  0  0  0  0  0  0  0
  127.3360  127.5210   58.6130 O   0  0  0  0  0  0  0  0  0  0  0  0
  127.8880  128.5590   59.4080 C   0  0  0  0  0  0  0  0  0  0  0  0
  127.2140  129.8970   59.0500 C   0  0  0  0  0  0  0  0  0  0  0  0
  127.1210  130.1430   57.6070 N   0  0  0  0  0  0  0  0  0  0  0  0
  126.2720  129.5330   56.7610 C   0  0  0  0  0  0  0  0  0  0  0  0
  125.4410  128.6980   57.1220 O   0  0  0  0  0  0  0  0  0  0  0  0
  126.3950  129.9490   55.2860 C   0  0  0  0  0  0  0  0  0  0  0  0
  128.0990  130.2130   54.6870 S   0  0  0  0  0  0  0  0  0  0  0  0
  129.2410  129.3860   55.7840 C   0  0  0  0  0  0  0  0  0  0  0  0
  129.3070  128.0370   55.6520 N   0  0  0  0  0  0  0  0  0  0  0  0
  130.1470  127.3450   56.4540 C   0  0  0  0  0  0  0  0  0  0  0  0
  130.1650  125.8430   56.2500 C   0  0  0  0  0  0  0  0  0  0  0  0
  130.9470  127.9620   57.4120 C   0  0  0  0  0  0  0  0  0  0  0  0
  130.8910  129.3530   57.5710 C   0  0  0  0  0  0  0  0  0  0  0  0
  131.7490  129.9680   58.6270 C   0  0  0  0  0  0  0  0  0  0  0  0
  131.2250  130.2230   59.9000 C   0  0  0  0  0  0  0  0  0  0  0  0
  132.0170  130.8060   60.8860 C   0  0  0  0  0  0  0  0  0  0  0  0
  133.3370  131.1420   60.6010 C   0  0  0  0  0  0  0  0  0  0  0  0
  133.8710  130.9040   59.3360 C   0  0  0  0  0  0  0  0  0  0  0  0
  133.0770  130.3210   58.3530 C   0  0  0  0  0  0  0  0  0  0  0  0
  130.0220  130.0930   56.7270 C   0  0  0  0  0  0  0  0  0  0  0  0
  129.9530  131.5550   56.8200 C   0  0  0  0  0  0  0  0  0  0  0  0
  129.8980  132.7090   56.8930 N   0  0  0  0  0  0  0  0  0  0  0  0
  124.5720  121.8210   56.7147 H   0  0  0  0  0  0  0  0  0  0  0  0
  125.1907  122.6927   55.2712 H   0  0  0  0  0  0  0  0  0  0  0  0
  125.1116  120.8982   55.2712 H   0  0  0  0  0  0  0  0  0  0  0  0
  127.2820  122.4198   58.2476 H   0  0  0  0  0  0  0  0  0  0  0  0
  127.7053  123.4361   56.8270 H   0  0  0  0  0  0  0  0  0  0  0  0
  124.9869  123.5553   56.6583 H   0  0  0  0  0  0  0  0  0  0  0  0
  125.1553  123.3223   58.4301 H   0  0  0  0  0  0  0  0  0  0  0  0
  127.8747  124.2590   58.2292 H   0  0  0  0  0  0  0  0  0  0  0  0
  127.9311  125.6201   57.0631 H   0  0  0  0  0  0  0  0  0  0  0  0
  126.7996  125.9784   59.8845 H   0  0  0  0  0  0  0  0  0  0  0  0
  128.5516  126.1340   59.5624 H   0  0  0  0  0  0  0  0  0  0  0  0
  127.7173  128.3360   60.4715 H   0  0  0  0  0  0  0  0  0  0  0  0
  128.9687  128.6311   59.2162 H   0  0  0  0  0  0  0  0  0  0  0  0
  126.1967  129.8963   59.4684 H   0  0  0  0  0  0  0  0  0  0  0  0
  127.8411  130.6959   59.4725 H   0  0  0  0  0  0  0  0  0  0  0  0
  127.7600  130.8280   57.2330 H   0  0  0  0  0  0  0  0  0  0  0  0
  125.9376  129.1597   54.6714 H   0  0  0  0  0  0  0  0  0  0  0  0
  125.8899  130.9226   55.2023 H   0  0  0  0  0  0  0  0  0  0  0  0
  130.1710  125.3401   57.2283 H   0  0  0  0  0  0  0  0  0  0  0  0
  129.2704  125.5387   55.6868 H   0  0  0  0  0  0  0  0  0  0  0  0
  131.0666  125.5602   55.6868 H   0  0  0  0  0  0  0  0  0  0  0  0
  131.6197  127.3604   58.0410 H   0  0  0  0  0  0  0  0  0  0  0  0
  130.1802  129.9610   60.1230 H   0  0  0  0  0  0  0  0  0  0  0  0
  131.6010  131.0000   61.8857 H   0  0  0  0  0  0  0  0  0  0  0  0
  133.9640  131.5992   61.3806 H   0  0  0  0  0  0  0  0  0  0  0  0
  134.9140  131.1754   59.1158 H   0  0  0  0  0  0  0  0  0  0  0  0
  133.4954  130.1358   57.3527 H   0  0  0  0  0  0  0  0  0  0  0  0
  1  2  1  0
  2  3  1  0
  3  4  1  0
  4  5  1  0
  5  6  1  0
  6  7  1  0
  7  8  1  0
  8  9  1  0
  9 10  1  0
 10 11  1  0
 11 12  1  0
 12 13  2  0
 12 14  1  0
 14 15  1  0
 15 16  1  0
 16 17  2  0
 17 18  1  0
 18 19  1  0
 18 20  2  0
 20 21  1  0
 21 22  1  0
 22 23  2  0
 23 24  1  0
 24 25  2  0
 25 26  1  0
 26 27  2  0
 21 28  2  0
 28 29  1  0
 29 30  3  0
 28 16  1  0
 27 22  1  0
  1 31  1  0
  1 32  1  0
  1 33  1  0
  3 34  1  0
  3 35  1  0
  4 36  1  0
  4 37  1  0
  6 38  1  0
  6 39  1  0
  7 40  1  0
  7 41  1  0
  9 42  1  0
  9 43  1  0
 10 44  1  0
 10 45  1  0
 11 46  1  0
 14 47  1  0
 14 48  1  0
 19 49  1  0
 19 50  1  0
 19 51  1  0
 20 52  1  0
 23 53  1  0
 24 54  1  0
 25 55  1  0
 26 56  1  0
 27 57  1  0
M  END
>  <Binding energies>  (1) 
[-6.42]

>  <Ligand effiencies>  (1) 
[-0.20709677419354838]

>  <Interactions>  (1) 
["V-A:ASP:366:CG:3212, V-A:PRO:540:CB:4885, V-A:LEU:363:CD1:3188, V-A:TYR:539:CE1:4875, V-A:PRO:540:CA:4883, H-B:LYS:534:NZ:9795, H-B:TYR:531:OH:9767, V-A:TYR:539:CZ:4877, V-B:PRO:540:CD:9859, V-B:PRO:540:N:9856, V-B:PRO:540:CA:9855, V-B:MET:535:CE:9807, V-B:TYR:531:CE2:9765, V-B:TYR:531:CZ:9766, V-B:LEU:363:CD1:8160, V-A:ASP:366:CB:3211, V-B:TYR:531:CE1:9764, H-A:TYR:531:OH:4795, V-A:LEU:363:CA:3184, V-A:ASN:362:CB:3175, V-A:ASN:362:C:3171, V-A:LEU:363:CB:3186, H-A:TYR:539:N:4870, V-B:ILE:538:CG2:9835, H-B:TYR:539:N:9842, V-B:ILE:538:CA:9832"]

$$$$
4aa_Grossjean_2025
     RDKit          3D

 45 47  0  0  0  0  0  0  0  0999 V2000
  125.3660  121.9480   55.5130 C   0  0  0  0  0  0  0  0  0  0  0  0
  125.7740  122.6540   56.8100 C   0  0  0  0  0  0  0  0  0  0  0  0
  125.3310  124.0050   56.7720 O   0  0  0  0  0  0  0  0  0  0  0  0
  124.8300  124.6100   57.8800 C   0  0  0  0  0  0  0  0  0  0  0  0
  123.6900  125.0810   57.9420 O   0  0  0  0  0  0  0  0  0  0  0  0
  125.8030  124.6520   59.0230 C   0  0  0  0  0  0  0  0  0  0  0  0
  127.0210  125.3250   58.8600 C   0  0  0  0  0  0  0  0  0  0  0  0
  127.9460  125.3790   59.9000 C   0  0  0  0  0  0  0  0  0  0  0  0
  127.6690  124.7690   61.1240 C   0  0  0  0  0  0  0  0  0  0  0  0
  128.6770  124.8770   62.1020 N   0  0  0  0  0  0  0  0  0  0  0  0
  129.0790  123.9890   63.0430 C   0  0  0  0  0  0  0  0  0  0  0  0
  128.5570  122.8890   63.2250 O   0  0  0  0  0  0  0  0  0  0  0  0
  130.1940  124.4310   63.8830 C   0  0  0  0  0  0  0  0  0  0  0  0
  131.8460  123.9380   63.5010 S   0  0  0  0  0  0  0  0  0  0  0  0
  132.4710  124.7840   64.8980 C   0  0  0  0  0  0  0  0  0  0  0  0
  133.7720  124.7960   65.1930 N   0  0  0  0  0  0  0  0  0  0  0  0
  134.1240  125.4850   66.3060 C   0  0  0  0  0  0  0  0  0  0  0  0
  135.6080  125.4820   66.6260 C   0  0  0  0  0  0  0  0  0  0  0  0
  133.2160  126.1590   67.1200 C   0  0  0  0  0  0  0  0  0  0  0  0
  131.8520  126.1460   66.8070 C   0  0  0  0  0  0  0  0  0  0  0  0
  130.8990  126.8970   67.7250 C   0  0  0  0  0  0  0  0  0  0  0  0
  131.4440  125.4300   65.6500 C   0  0  0  0  0  0  0  0  0  0  0  0
  130.1540  125.2090   65.0500 C   0  0  0  0  0  0  0  0  0  0  0  0
  129.0010  125.7240   65.5870 N   0  0  0  0  0  0  0  0  0  0  0  0
  126.4550  124.0890   61.2960 C   0  0  0  0  0  0  0  0  0  0  0  0
  125.5320  124.0340   60.2530 C   0  0  0  0  0  0  0  0  0  0  0  0
  124.8290  121.0189   55.7546 H   0  0  0  0  0  0  0  0  0  0  0  0
  124.7104  122.6085   54.9266 H   0  0  0  0  0  0  0  0  0  0  0  0
  126.2656  121.7097   54.9266 H   0  0  0  0  0  0  0  0  0  0  0  0
  125.3141  122.1409   57.6675 H   0  0  0  0  0  0  0  0  0  0  0  0
  126.8689  122.6291   56.9131 H   0  0  0  0  0  0  0  0  0  0  0  0
  127.2488  125.8152   57.9020 H   0  0  0  0  0  0  0  0  0  0  0  0
  128.9008  125.9058   59.7555 H   0  0  0  0  0  0  0  0  0  0  0  0
  129.1590  125.7650   62.1010 H   0  0  0  0  0  0  0  0  0  0  0  0
  135.7478  125.4817   67.7171 H   0  0  0  0  0  0  0  0  0  0  0  0
  136.0739  124.5829   66.1964 H   0  0  0  0  0  0  0  0  0  0  0  0
  136.0775  126.3792   66.1964 H   0  0  0  0  0  0  0  0  0  0  0  0
  133.5712  126.7013   68.0086 H   0  0  0  0  0  0  0  0  0  0  0  0
  131.1608  126.6907   68.7733 H   0  0  0  0  0  0  0  0  0  0  0  0
  130.9795  127.9771   67.5327 H   0  0  0  0  0  0  0  0  0  0  0  0
  129.8677  126.5662   67.5327 H   0  0  0  0  0  0  0  0  0  0  0  0
  128.6740  126.6510   65.3560 H   0  0  0  0  0  0  0  0  0  0  0  0
  128.4390  125.1910   66.2360 H   0  0  0  0  0  0  0  0  0  0  0  0
  126.2308  123.5986   62.2547 H   0  0  0  0  0  0  0  0  0  0  0  0
  124.5808  123.5003   60.3958 H   0  0  0  0  0  0  0  0  0  0  0  0
  1  2  1  0
  2  3  1  0
  3  4  1  0
  4  5  2  0
  4  6  1  0
  6  7  2  0
  7  8  1  0
  8  9  2  0
  9 10  1  0
 10 11  1  0
 11 12  2  0
 11 13  1  0
 13 14  1  0
 14 15  1  0
 15 16  2  0
 16 17  1  0
 17 18  1  0
 17 19  2  0
 19 20  1  0
 20 21  1  0
 20 22  2  0
 22 23  1  0
 23 24  1  0
  9 25  1  0
 25 26  2  0
 26  6  1  0
 23 13  2  0
 22 15  1  0
  1 27  1  0
  1 28  1  0
  1 29  1  0
  2 30  1  0
  2 31  1  0
  7 32  1  0
  8 33  1  0
 10 34  1  0
 18 35  1  0
 18 36  1  0
 18 37  1  0
 19 38  1  0
 21 39  1  0
 21 40  1  0
 21 41  1  0
 24 42  1  0
 24 43  1  0
 25 44  1  0
 26 45  1  0
M  END
>  <Binding energies>  (1) 
[-7.31]

>  <Ligand effiencies>  (1) 
[-0.25206896551724134]

>  <Interactions>  (1) 
["V-A:HIS:456:CE1:4069, H-A:GLY:454:N:4049, V-A:TYR:484:CZ:4346, V-B:GLU:543:CG:9879, V-A:ILE:455:C:4051, V-A:ARG:545:CZ:4926, H-A:TYR:484:OH:4347, V-B:GLU:543:CD:9880, H-B:GLU:543:OE2:9882, V-A:GLY:453:C:4041, V-A:ARG:545:CD:4923, V-A:ARG:545:CG:4922, V-A:GLY:453:CA:4043, H-B:TYR:531:OH:9767, V-B:ASP:366:CB:8183, H-A:GLU:543:OE1:4909, V-B:PRO:540:CB:9857, V-B:PRO:540:CD:9859, V-B:PRO:540:N:9856, V-B:MET:535:CE:9807, V-B:TYR:531:CE2:9765, V-B:TYR:531:CZ:9766, V-B:LEU:363:CD1:8160, V-A:GLY:454:CA:4048, V-B:GLU:543:CB:9878, V-A:GLU:543:CB:4906, V-B:ILE:538:CG2:9835, V-A:ARG:545:CB:4921, V-B:ILE:538:CA:9832, V-B:MET:535:CG:9805, V-B:ILE:538:CB:9834, V-B:ILE:538:CG1:9836, V-A:VAL:452:CG2:4039"]

$$$$
4ab_Grossjean_2025
     RDKit          3D

 42 44  0  0  0  0  0  0  0  0999 V2000
  125.2270  121.3860   55.3560 C   0  0  0  0  0  0  0  0  0  0  0  0
  126.1650  121.8770   56.3030 O   0  0  0  0  0  0  0  0  0  0  0  0
  126.0390  123.1210   56.8320 C   0  0  0  0  0  0  0  0  0  0  0  0
  125.2230  123.9540   56.4240 O   0  0  0  0  0  0  0  0  0  0  0  0
  126.9970  123.3870   57.9570 C   0  0  0  0  0  0  0  0  0  0  0  0
  126.4910  123.6580   59.2350 C   0  0  0  0  0  0  0  0  0  0  0  0
  127.3530  123.9110   60.2990 C   0  0  0  0  0  0  0  0  0  0  0  0
  128.7350  123.8890   60.1100 C   0  0  0  0  0  0  0  0  0  0  0  0
  129.5110  124.1650   61.2520 N   0  0  0  0  0  0  0  0  0  0  0  0
  129.4290  123.6610   62.5070 C   0  0  0  0  0  0  0  0  0  0  0  0
  128.5740  122.8540   62.8750 O   0  0  0  0  0  0  0  0  0  0  0  0
  130.4330  124.1610   63.4480 C   0  0  0  0  0  0  0  0  0  0  0  0
  132.1390  123.7640   63.2240 S   0  0  0  0  0  0  0  0  0  0  0  0
  132.5820  124.6390   64.6720 C   0  0  0  0  0  0  0  0  0  0  0  0
  133.8460  124.7210   65.0890 N   0  0  0  0  0  0  0  0  0  0  0  0
  134.0530  125.4260   66.2270 C   0  0  0  0  0  0  0  0  0  0  0  0
  135.4970  125.5030   66.6860 C   0  0  0  0  0  0  0  0  0  0  0  0
  133.0370  126.0480   66.9500 C   0  0  0  0  0  0  0  0  0  0  0  0
  131.7110  125.9590   66.5100 C   0  0  0  0  0  0  0  0  0  0  0  0
  130.6370  126.6520   67.3340 C   0  0  0  0  0  0  0  0  0  0  0  0
  131.4530  125.2240   65.3210 C   0  0  0  0  0  0  0  0  0  0  0  0
  130.2410  124.9300   64.6060 C   0  0  0  0  0  0  0  0  0  0  0  0
  129.0140  125.3760   65.0310 N   0  0  0  0  0  0  0  0  0  0  0  0
  129.2510  123.6230   58.8330 C   0  0  0  0  0  0  0  0  0  0  0  0
  128.3880  123.3740   57.7700 C   0  0  0  0  0  0  0  0  0  0  0  0
  124.3723  120.9386   55.8845 H   0  0  0  0  0  0  0  0  0  0  0  0
  124.8746  122.2153   54.7251 H   0  0  0  0  0  0  0  0  0  0  0  0
  125.7077  120.6239   54.7251 H   0  0  0  0  0  0  0  0  0  0  0  0
  125.4034  123.6710   59.3994 H   0  0  0  0  0  0  0  0  0  0  0  0
  126.9414  124.1297   61.2954 H   0  0  0  0  0  0  0  0  0  0  0  0
  130.2300  124.8580   61.1030 H   0  0  0  0  0  0  0  0  0  0  0  0
  135.5327  125.5049   67.7854 H   0  0  0  0  0  0  0  0  0  0  0  0
  136.0505  124.6331   66.3027 H   0  0  0  0  0  0  0  0  0  0  0  0
  135.9548  126.4268   66.3027 H   0  0  0  0  0  0  0  0  0  0  0  0
  133.2767  126.6084   67.8657 H   0  0  0  0  0  0  0  0  0  0  0  0
  130.8502  126.5144   68.4043 H   0  0  0  0  0  0  0  0  0  0  0  0
  130.6289  127.7261   67.0968 H   0  0  0  0  0  0  0  0  0  0  0  0
  129.6550  126.2167   67.0968 H   0  0  0  0  0  0  0  0  0  0  0  0
  128.4740  126.0410   64.4980 H   0  0  0  0  0  0  0  0  0  0  0  0
  128.6120  125.0530   65.9010 H   0  0  0  0  0  0  0  0  0  0  0  0
  130.3390  123.6112   58.6716 H   0  0  0  0  0  0  0  0  0  0  0  0
  128.8006  123.1647   56.7721 H   0  0  0  0  0  0  0  0  0  0  0  0
  1  2  1  0
  2  3  1  0
  3  4  2  0
  3  5  1  0
  5  6  2  0
  6  7  1  0
  7  8  2  0
  8  9  1  0
  9 10  1  0
 10 11  2  0
 10 12  1  0
 12 13  1  0
 13 14  1  0
 14 15  2  0
 15 16  1  0
 16 17  1  0
 16 18  2  0
 18 19  1  0
 19 20  1  0
 19 21  2  0
 21 22  1  0
 22 23  1  0
  8 24  1  0
 24 25  2  0
 25  5  1  0
 22 12  2  0
 21 14  1  0
  1 26  1  0
  1 27  1  0
  1 28  1  0
  6 29  1  0
  7 30  1  0
  9 31  1  0
 17 32  1  0
 17 33  1  0
 17 34  1  0
 18 35  1  0
 20 36  1  0
 20 37  1  0
 20 38  1  0
 23 39  1  0
 23 40  1  0
 24 41  1  0
 25 42  1  0
M  END
>  <Binding energies>  (1) 
[-7.33]

>  <Ligand effiencies>  (1) 
[-0.2617857142857143]

>  <Interactions>  (1) 
["V-A:HIS:456:CE1:4069, H-A:GLY:454:N:4049, V-B:GLU:543:CG:9879, H-B:ALA:541:N:9863, V-A:ILE:455:C:4051, V-A:ARG:545:CZ:4926, H-A:TYR:484:OH:4347, V-B:GLU:543:CD:9880, H-B:GLU:543:OE2:9882, V-A:GLY:453:C:4041, V-A:ARG:545:CD:4923, V-A:ARG:545:CG:4922, V-A:GLY:453:CA:4043, H-B:TYR:531:OH:9767, H-A:GLU:543:OE1:4909, V-B:PRO:540:CB:9857, V-B:TYR:539:CE2:9848, V-B:PRO:540:CD:9859, V-B:PRO:540:CA:9855, V-B:MET:535:CE:9807, V-B:TYR:531:CE2:9765, V-B:LEU:363:CD1:8160, V-A:GLY:454:CA:4048, V-B:GLU:543:CB:9878, V-B:ILE:538:CG2:9835, V-A:ARG:545:CB:4921, H-B:TYR:539:N:9842, V-B:ILE:538:CA:9832, V-B:ILE:538:CB:9834, V-B:ILE:538:CG1:9836, V-B:ILE:538:C:9830"]

$$$$
4ac_Grossjean_2025
     RDKit          3D

 40 42  0  0  0  0  0  0  0  0999 V2000
  133.7940  125.4730   66.6310 C   0  0  0  0  0  0  0  0  0  0  0  0
  134.0750  125.1670   65.2690 O   0  0  0  0  0  0  0  0  0  0  0  0
  133.0260  124.9590   64.3940 C   0  0  0  0  0  0  0  0  0  0  0  0
  133.1210  123.8420   63.5640 C   0  0  0  0  0  0  0  0  0  0  0  0
  132.1110  123.5510   62.6500 C   0  0  0  0  0  0  0  0  0  0  0  0
  130.9860  124.3710   62.5620 C   0  0  0  0  0  0  0  0  0  0  0  0
  130.0250  124.0060   61.6010 N   0  0  0  0  0  0  0  0  0  0  0  0
  128.9550  123.1850   61.7280 C   0  0  0  0  0  0  0  0  0  0  0  0
  128.6730  122.5760   62.7610 O   0  0  0  0  0  0  0  0  0  0  0  0
  128.1250  123.0460   60.5290 C   0  0  0  0  0  0  0  0  0  0  0  0
  128.7080  122.1260   59.1410 S   0  0  0  0  0  0  0  0  0  0  0  0
  127.2380  122.4470   58.2490 C   0  0  0  0  0  0  0  0  0  0  0  0
  127.0450  121.9800   57.0150 N   0  0  0  0  0  0  0  0  0  0  0  0
  125.8630  122.3020   56.4360 C   0  0  0  0  0  0  0  0  0  0  0  0
  125.6620  121.7610   55.0320 C   0  0  0  0  0  0  0  0  0  0  0  0
  124.8810  123.0730   57.0540 C   0  0  0  0  0  0  0  0  0  0  0  0
  125.0870  123.5620   58.3500 C   0  0  0  0  0  0  0  0  0  0  0  0
  123.9860  124.3980   58.9820 C   0  0  0  0  0  0  0  0  0  0  0  0
  126.3150  123.2430   58.9900 C   0  0  0  0  0  0  0  0  0  0  0  0
  126.8440  123.5680   60.2870 C   0  0  0  0  0  0  0  0  0  0  0  0
  126.1450  124.3260   61.1940 N   0  0  0  0  0  0  0  0  0  0  0  0
  130.8890  125.5030   63.3830 C   0  0  0  0  0  0  0  0  0  0  0  0
  131.9010  125.7920   64.2960 C   0  0  0  0  0  0  0  0  0  0  0  0
  134.3926  124.8212   67.2843 H   0  0  0  0  0  0  0  0  0  0  0  0
  134.0477  126.5246   66.8304 H   0  0  0  0  0  0  0  0  0  0  0  0
  132.7246  125.3096   66.8304 H   0  0  0  0  0  0  0  0  0  0  0  0
  134.0009  123.1854   63.6318 H   0  0  0  0  0  0  0  0  0  0  0  0
  132.2008  122.6716   61.9954 H   0  0  0  0  0  0  0  0  0  0  0  0
  130.1840  124.3920   60.6810 H   0  0  0  0  0  0  0  0  0  0  0  0
  125.2794  120.7312   55.0872 H   0  0  0  0  0  0  0  0  0  0  0  0
  124.9386  122.3927   54.4957 H   0  0  0  0  0  0  0  0  0  0  0  0
  126.6224  121.7671   54.4957 H   0  0  0  0  0  0  0  0  0  0  0  0
  123.9437  123.2977   56.5239 H   0  0  0  0  0  0  0  0  0  0  0  0
  124.0638  124.3389   60.0776 H   0  0  0  0  0  0  0  0  0  0  0  0
  124.0918  125.4454   58.6629 H   0  0  0  0  0  0  0  0  0  0  0  0
  123.0056  124.0147   58.6629 H   0  0  0  0  0  0  0  0  0  0  0  0
  125.5870  125.1160   60.9100 H   0  0  0  0  0  0  0  0  0  0  0  0
  126.1660  124.1130   62.1810 H   0  0  0  0  0  0  0  0  0  0  0  0
  130.0130  126.1639   63.3064 H   0  0  0  0  0  0  0  0  0  0  0  0
  131.8177  126.6775   64.9432 H   0  0  0  0  0  0  0  0  0  0  0  0
  1  2  1  0
  2  3  1  0
  3  4  2  0
  4  5  1  0
  5  6  2  0
  6  7  1  0
  7  8  1  0
  8  9  2  0
  8 10  1  0
 10 11  1  0
 11 12  1  0
 12 13  2  0
 13 14  1  0
 14 15  1  0
 14 16  2  0
 16 17  1  0
 17 18  1  0
 17 19  2  0
 19 20  1  0
 20 21  1  0
  6 22  1  0
 22 23  2  0
 23  3  1  0
 20 10  2  0
 19 12  1  0
  1 24  1  0
  1 25  1  0
  1 26  1  0
  4 27  1  0
  5 28  1  0
  7 29  1  0
 15 30  1  0
 15 31  1  0
 15 32  1  0
 16 33  1  0
 18 34  1  0
 18 35  1  0
 18 36  1  0
 21 37  1  0
 21 38  1  0
 22 39  1  0
 23 40  1  0
M  END
>  <Binding energies>  (1) 
[-7.24]

>  <Ligand effiencies>  (1) 
[-0.2784615384615385]

>  <Interactions>  (1) 
["H-A:GLY:454:N:4049, H-A:ARG:545:NH2:4928, V-A:TYR:484:CZ:4346, H-B:ALA:541:N:9863, V-A:ARG:545:CZ:4926, H-A:TYR:484:OH:4347, V-B:GLU:543:CD:9880, H-B:GLU:543:OE1:9881, H-B:GLU:543:OE2:9882, H-A:ARG:545:NE:4924, V-A:ARG:545:CD:4923, V-A:ARG:545:CG:4922, V-B:ASP:366:CG:8184, V-B:ASP:366:CB:8183, V-B:PRO:540:CB:9857, V-B:TYR:539:CE2:9848, V-B:PRO:540:CD:9859, V-B:PRO:540:N:9856, V-B:PRO:540:CA:9855, V-B:MET:535:CE:9807, H-B:ASP:366:OD1:8185, V-B:TYR:539:CD2:9846, V-B:TYR:531:CE2:9765, V-B:TYR:539:C:9839, V-B:LEU:363:CD1:8160, V-A:GLY:454:CA:4048, V-B:LEU:363:CA:8156, V-B:LEU:363:CB:8158, V-B:ILE:538:CG2:9835, H-A:ARG:545:NH1:4927, H-B:TYR:539:N:9842, V-B:ILE:538:CA:9832, V-B:MET:535:CG:9805, V-B:ILE:538:CB:9834, V-B:ILE:538:CG1:9836, V-B:ILE:538:C:9830"]

$$$$
4ad_Grossjean_2025
     RDKit          3D

 36 38  0  0  0  0  0  0  0  0999 V2000
  130.2430  132.2440   55.0000 C   0  0  0  0  0  0  0  0  0  0  0  0
  130.4650  131.8590   56.4510 C   0  0  0  0  0  0  0  0  0  0  0  0
  131.7000  131.3840   56.8870 C   0  0  0  0  0  0  0  0  0  0  0  0
  131.8810  131.0320   58.2300 C   0  0  0  0  0  0  0  0  0  0  0  0
  133.2470  130.5160   58.6580 C   0  0  0  0  0  0  0  0  0  0  0  0
  130.7740  131.1780   59.1080 C   0  0  0  0  0  0  0  0  0  0  0  0
  130.6090  130.9190   60.5130 C   0  0  0  0  0  0  0  0  0  0  0  0
  131.6320  130.4410   61.2930 N   0  0  0  0  0  0  0  0  0  0  0  0
  129.3230  131.2010   60.9990 C   0  0  0  0  0  0  0  0  0  0  0  0
  128.8070  131.0410   62.3600 C   0  0  0  0  0  0  0  0  0  0  0  0
  129.4000  131.5380   63.3190 O   0  0  0  0  0  0  0  0  0  0  0  0
  127.6560  130.3320   62.4660 N   0  0  0  0  0  0  0  0  0  0  0  0
  126.9320  129.9660   63.6170 C   0  0  0  0  0  0  0  0  0  0  0  0
  125.5390  130.0130   63.5030 C   0  0  0  0  0  0  0  0  0  0  0  0
  124.7350  129.6590   64.5830 C   0  0  0  0  0  0  0  0  0  0  0  0
  125.3230  129.2500   65.7770 C   0  0  0  0  0  0  0  0  0  0  0  0
  126.7090  129.1870   65.8980 C   0  0  0  0  0  0  0  0  0  0  0  0
  127.5160  129.5400   64.8200 C   0  0  0  0  0  0  0  0  0  0  0  0
  128.2750  131.8040   59.7140 S   0  0  0  0  0  0  0  0  0  0  0  0
  129.5620  131.6740   58.5380 C   0  0  0  0  0  0  0  0  0  0  0  0
  129.3880  132.0100   57.2590 N   0  0  0  0  0  0  0  0  0  0  0  0
  129.6940  133.1961   54.9531 H   0  0  0  0  0  0  0  0  0  0  0  0
  131.2151  132.3562   54.4975 H   0  0  0  0  0  0  0  0  0  0  0  0
  129.6590  131.4589   54.4975 H   0  0  0  0  0  0  0  0  0  0  0  0
  132.5333  131.2855   56.1758 H   0  0  0  0  0  0  0  0  0  0  0  0
  133.3033  130.4947   59.7564 H   0  0  0  0  0  0  0  0  0  0  0  0
  133.3952  129.4999   58.2635 H   0  0  0  0  0  0  0  0  0  0  0  0
  134.0300  131.1803   58.2635 H   0  0  0  0  0  0  0  0  0  0  0  0
  131.8740  130.8640   62.1770 H   0  0  0  0  0  0  0  0  0  0  0  0
  132.1790  129.6390   61.0070 H   0  0  0  0  0  0  0  0  0  0  0  0
  127.2380  130.0320   61.5970 H   0  0  0  0  0  0  0  0  0  0  0  0
  125.0769  130.3308   62.5567 H   0  0  0  0  0  0  0  0  0  0  0  0
  123.6395  129.7022   64.4934 H   0  0  0  0  0  0  0  0  0  0  0  0
  124.6877  128.9744   66.6316 H   0  0  0  0  0  0  0  0  0  0  0  0
  127.1652  128.8589   66.8436 H   0  0  0  0  0  0  0  0  0  0  0  0
  128.6109  129.4851   64.9110 H   0  0  0  0  0  0  0  0  0  0  0  0
  1  2  1  0
  2  3  2  0
  3  4  1  0
  4  5  1  0
  4  6  2  0
  6  7  1  0
  7  8  1  0
  7  9  2  0
  9 10  1  0
 10 11  2  0
 10 12  1  0
 12 13  1  0
 13 14  2  0
 14 15  1  0
 15 16  2  0
 16 17  1  0
 17 18  2  0
  9 19  1  0
 19 20  1  0
 20 21  2  0
 21  2  1  0
 20  6  1  0
 18 13  1  0
  1 22  1  0
  1 23  1  0
  1 24  1  0
  3 25  1  0
  5 26  1  0
  5 27  1  0
  5 28  1  0
  8 29  1  0
  8 30  1  0
 12 31  1  0
 14 32  1  0
 15 33  1  0
 16 34  1  0
 17 35  1  0
 18 36  1  0
M  END
>  <Binding energies>  (1) 
[-6.81]

>  <Ligand effiencies>  (1) 
[-0.28375]

>  <Interactions>  (1) 
["V-A:ASP:366:CG:3212, V-A:TYR:539:CD1:4873, H-A:GLU:543:OE2:4910, V-A:PRO:540:CB:4885, V-A:ILE:538:CB:4862, V-A:ILE:538:CG2:4863, V-A:LEU:363:CD1:3188, H-A:ASP:366:OD2:3214, V-A:PRO:540:N:4884, V-A:TYR:539:CE1:4875, V-A:PRO:540:CA:4883, V-A:ALA:541:CB:4892, V-A:ILE:538:CA:4860, V-A:TYR:539:C:4867, V-A:GLU:543:CD:4908, V-A:GLU:543:CG:4907, H-A:ALA:541:O:4889, V-A:ILE:538:C:4858, V-A:ASP:366:CB:3211, V-A:LEU:363:CA:3184, V-B:ARG:545:CZ:9898"]

$$$$
4ae_Grossjean_2025
     RDKit          3D

 38 40  0  0  0  0  0  0  0  0999 V2000
  127.8550  129.4980   67.2140 C   0  0  0  0  0  0  0  0  0  0  0  0
  127.0720  129.6610   65.9260 C   0  0  0  0  0  0  0  0  0  0  0  0
  125.6880  129.4760   65.8830 C   0  0  0  0  0  0  0  0  0  0  0  0
  125.0350  129.6360   64.6610 C   0  0  0  0  0  0  0  0  0  0  0  0
  125.7730  129.9720   63.5230 C   0  0  0  0  0  0  0  0  0  0  0  0
  127.1550  130.1500   63.6380 C   0  0  0  0  0  0  0  0  0  0  0  0
  127.8460  130.4670   62.4550 N   0  0  0  0  0  0  0  0  0  0  0  0
  129.0080  131.1510   62.3090 C   0  0  0  0  0  0  0  0  0  0  0  0
  129.6510  131.6210   63.2490 O   0  0  0  0  0  0  0  0  0  0  0  0
  129.4720  131.3110   60.9290 C   0  0  0  0  0  0  0  0  0  0  0  0
  128.3620  131.8640   59.6740 S   0  0  0  0  0  0  0  0  0  0  0  0
  129.6050  131.7410   58.4520 C   0  0  0  0  0  0  0  0  0  0  0  0
  129.3720  132.0440   57.1750 N   0  0  0  0  0  0  0  0  0  0  0  0
  130.4190  131.9010   56.3280 C   0  0  0  0  0  0  0  0  0  0  0  0
  130.1290  132.2440   54.8780 C   0  0  0  0  0  0  0  0  0  0  0  0
  131.6840  131.4680   56.7240 C   0  0  0  0  0  0  0  0  0  0  0  0
  131.9250  131.1510   58.0660 C   0  0  0  0  0  0  0  0  0  0  0  0
  133.3200  130.6790   58.4490 C   0  0  0  0  0  0  0  0  0  0  0  0
  130.8490  131.2880   58.9840 C   0  0  0  0  0  0  0  0  0  0  0  0
  130.7470  131.0510   60.4000 C   0  0  0  0  0  0  0  0  0  0  0  0
  131.8090  130.6110   61.1490 N   0  0  0  0  0  0  0  0  0  0  0  0
  127.8020  129.9890   64.8300 N   0  0  0  0  0  0  0  0  0  0  0  0
  127.1818  129.6381   68.0726 H   0  0  0  0  0  0  0  0  0  0  0  0
  128.2926  128.4895   67.2520 H   0  0  0  0  0  0  0  0  0  0  0  0
  128.6587  130.2481   67.2520 H   0  0  0  0  0  0  0  0  0  0  0  0
  125.1267  129.2105   66.7910 H   0  0  0  0  0  0  0  0  0  0  0  0
  123.9457  129.4985   64.5935 H   0  0  0  0  0  0  0  0  0  0  0  0
  125.2738  130.0947   62.5505 H   0  0  0  0  0  0  0  0  0  0  0  0
  127.3790  130.1860   61.6050 H   0  0  0  0  0  0  0  0  0  0  0  0
  129.4193  133.0834   54.8346 H   0  0  0  0  0  0  0  0  0  0  0  0
  131.0646  132.5285   54.3743 H   0  0  0  0  0  0  0  0  0  0  0  0
  129.6929  131.3687   54.3743 H   0  0  0  0  0  0  0  0  0  0  0  0
  132.4915  131.3757   55.9828 H   0  0  0  0  0  0  0  0  0  0  0  0
  133.4089  130.6489   59.5450 H   0  0  0  0  0  0  0  0  0  0  0  0
  133.4919  129.6727   58.0394 H   0  0  0  0  0  0  0  0  0  0  0  0
  134.0676  131.3742   58.0394 H   0  0  0  0  0  0  0  0  0  0  0  0
  132.5060  129.9850   60.7700 H   0  0  0  0  0  0  0  0  0  0  0  0
  131.9290  130.9010   62.1090 H   0  0  0  0  0  0  0  0  0  0  0  0
  1  2  1  0
  2  3  2  0
  3  4  1  0
  4  5  2  0
  5  6  1  0
  6  7  1  0
  7  8  1  0
  8  9  2  0
  8 10  1  0
 10 11  1  0
 11 12  1  0
 12 13  2  0
 13 14  1  0
 14 15  1  0
 14 16  2  0
 16 17  1  0
 17 18  1  0
 17 19  2  0
 19 20  1  0
 20 21  1  0
  6 22  2  0
 22  2  1  0
 20 10  2  0
 19 12  1  0
  1 23  1  0
  1 24  1  0
  1 25  1  0
  3 26  1  0
  4 27  1  0
  5 28  1  0
  7 29  1  0
 15 30  1  0
 15 31  1  0
 15 32  1  0
 16 33  1  0
 18 34  1  0
 18 35  1  0
 18 36  1  0
 21 37  1  0
 21 38  1  0
M  END
>  <Binding energies>  (1) 
[-6.86]

>  <Ligand effiencies>  (1) 
[-0.27440000000000003]

>  <Interactions>  (1) 
["V-A:ASP:366:CG:3212, V-A:TYR:539:CD1:4873, H-A:GLU:543:OE2:4910, V-A:PRO:540:CB:4885, V-A:ILE:538:CB:4862, V-A:ILE:538:CG2:4863, V-A:LEU:363:CD1:3188, H-A:ASP:366:OD2:3214, V-A:PRO:540:N:4884, V-A:TYR:539:CE1:4875, V-A:PRO:540:CA:4883, V-A:ALA:541:CB:4892, V-A:ILE:538:CA:4860, H-A:ALA:541:N:4891, V-A:TYR:539:C:4867, V-A:GLU:543:CD:4908, V-A:GLU:543:CG:4907, H-A:ALA:541:O:4889, V-A:ILE:538:C:4858, V-A:ASP:366:CB:3211, V-A:GLU:543:CB:4906, V-B:HIS:456:CE1:9041, V-A:LEU:363:CA:3184, V-A:LEU:363:CB:3186, V-B:TYR:484:CZ:9318, V-B:TYR:484:CE2:9317, V-B:ARG:545:CZ:9898, H-A:TYR:539:N:4870"]

$$$$
4af_Grossjean_2025
     RDKit          3D

 35 37  0  0  0  0  0  0  0  0999 V2000
  130.3470  132.2360   54.9930 C   0  0  0  0  0  0  0  0  0  0  0  0
  130.5230  131.8600   56.4530 C   0  0  0  0  0  0  0  0  0  0  0  0
  131.7390  131.3710   56.9260 C   0  0  0  0  0  0  0  0  0  0  0  0
  131.8780  131.0280   58.2770 C   0  0  0  0  0  0  0  0  0  0  0  0
  133.2230  130.4980   58.7450 C   0  0  0  0  0  0  0  0  0  0  0  0
  130.7490  131.1960   59.1230 C   0  0  0  0  0  0  0  0  0  0  0  0
  130.5420  130.9480   60.5250 C   0  0  0  0  0  0  0  0  0  0  0  0
  131.5350  130.4560   61.3350 N   0  0  0  0  0  0  0  0  0  0  0  0
  129.2490  131.2560   60.9740 C   0  0  0  0  0  0  0  0  0  0  0  0
  128.6900  131.0990   62.3190 C   0  0  0  0  0  0  0  0  0  0  0  0
  129.3140  131.4870   63.3070 O   0  0  0  0  0  0  0  0  0  0  0  0
  127.4630  130.5260   62.3730 N   0  0  0  0  0  0  0  0  0  0  0  0
  126.6790  130.1930   63.4940 C   0  0  0  0  0  0  0  0  0  0  0  0
  127.1680  129.6720   64.7060 C   0  0  0  0  0  0  0  0  0  0  0  0
  126.2770  129.3670   65.7360 C   0  0  0  0  0  0  0  0  0  0  0  0
  124.9140  129.5860   65.5290 C   0  0  0  0  0  0  0  0  0  0  0  0
  124.4170  130.0800   64.3670 N   0  0  0  0  0  0  0  0  0  0  0  0
  125.2950  130.3710   63.3750 C   0  0  0  0  0  0  0  0  0  0  0  0
  128.2440  131.8630   59.6560 S   0  0  0  0  0  0  0  0  0  0  0  0
  129.5620  131.7060   58.5160 C   0  0  0  0  0  0  0  0  0  0  0  0
  129.4260  132.0340   57.2310 N   0  0  0  0  0  0  0  0  0  0  0  0
  129.8816  133.2303   54.9240 H   0  0  0  0  0  0  0  0  0  0  0  0
  131.3294  132.2559   54.4985 H   0  0  0  0  0  0  0  0  0  0  0  0
  129.7025  131.4943   54.4985 H   0  0  0  0  0  0  0  0  0  0  0  0
  132.5898  131.2543   56.2385 H   0  0  0  0  0  0  0  0  0  0  0  0
  133.2504  130.4872   59.8446 H   0  0  0  0  0  0  0  0  0  0  0  0
  133.3669  129.4759   58.3646 H   0  0  0  0  0  0  0  0  0  0  0  0
  134.0254  131.1472   58.3646 H   0  0  0  0  0  0  0  0  0  0  0  0
  131.7040  130.8270   62.2590 H   0  0  0  0  0  0  0  0  0  0  0  0
  132.1300  129.6970   61.0320 H   0  0  0  0  0  0  0  0  0  0  0  0
  127.0350  130.3050   61.4860 H   0  0  0  0  0  0  0  0  0  0  0  0
  128.2470  129.5059   64.8411 H   0  0  0  0  0  0  0  0  0  0  0  0
  126.6415  128.9622   66.6917 H   0  0  0  0  0  0  0  0  0  0  0  0
  124.2129  129.3480   66.3425 H   0  0  0  0  0  0  0  0  0  0  0  0
  124.8996  130.7673   62.4281 H   0  0  0  0  0  0  0  0  0  0  0  0
  1  2  1  0
  2  3  2  0
  3  4  1  0
  4  5  1  0
  4  6  2  0
  6  7  1  0
  7  8  1  0
  7  9  2  0
  9 10  1  0
 10 11  2  0
 10 12  1  0
 12 13  1  0
 13 14  2  0
 14 15  1  0
 15 16  2  0
 16 17  1  0
 17 18  2  0
  9 19  1  0
 19 20  1  0
 20 21  2  0
 21  2  1  0
 20  6  1  0
 18 13  1  0
  1 22  1  0
  1 23  1  0
  1 24  1  0
  3 25  1  0
  5 26  1  0
  5 27  1  0
  5 28  1  0
  8 29  1  0
  8 30  1  0
 12 31  1  0
 14 32  1  0
 15 33  1  0
 16 34  1  0
 18 35  1  0
M  END
>  <Binding energies>  (1) 
[-6.95]

>  <Ligand effiencies>  (1) 
[-0.28958333333333336]

>  <Interactions>  (1) 
["V-A:ASP:366:CG:3212, V-A:TYR:539:CD1:4873, H-A:GLU:543:OE2:4910, V-A:PRO:540:CB:4885, V-A:ILE:538:CB:4862, V-A:ILE:538:CG2:4863, V-A:LEU:363:CD1:3188, H-A:ASP:366:OD2:3214, V-A:PRO:540:N:4884, V-A:TYR:539:CE1:4875, V-A:PRO:540:CA:4883, V-A:ALA:541:CB:4892, V-A:ILE:538:CA:4860, V-A:TYR:539:C:4867, V-A:GLU:543:CD:4908, H-A:ALA:541:O:4889, V-A:ILE:538:C:4858, V-A:ASP:366:CB:3211, V-A:LEU:363:CA:3184, V-B:ARG:545:CZ:9898, H-A:TYR:539:N:4870, H-B:GLY:454:N:9021"]

$$$$
4ag_Grossjean_2025
     RDKit          3D

 39 41  0  0  0  0  0  0  0  0999 V2000
  133.4930  123.6490   57.7080 C   0  0  0  0  0  0  0  0  0  0  0  0
  132.9710  124.2390   59.0040 C   0  0  0  0  0  0  0  0  0  0  0  0
  131.7740  124.9520   59.0360 C   0  0  0  0  0  0  0  0  0  0  0  0
  131.3100  125.4880   60.2430 C   0  0  0  0  0  0  0  0  0  0  0  0
  129.9980  126.2580   60.2270 C   0  0  0  0  0  0  0  0  0  0  0  0
  132.0950  125.2770   61.4070 C   0  0  0  0  0  0  0  0  0  0  0  0
  131.9230  125.6750   62.7780 C   0  0  0  0  0  0  0  0  0  0  0  0
  130.8390  126.4040   63.1990 N   0  0  0  0  0  0  0  0  0  0  0  0
  132.9560  125.2550   63.6270 C   0  0  0  0  0  0  0  0  0  0  0  0
  133.0950  125.4730   65.0670 C   0  0  0  0  0  0  0  0  0  0  0  0
  133.8820  124.8090   65.7450 O   0  0  0  0  0  0  0  0  0  0  0  0
  132.3030  126.4260   65.6030 N   0  0  0  0  0  0  0  0  0  0  0  0
  132.2930  126.8280   67.0080 C   0  0  0  0  0  0  0  0  0  0  0  0
  130.9170  126.7630   67.6610 C   0  0  0  0  0  0  0  0  0  0  0  0
  130.2070  125.5590   67.6690 C   0  0  0  0  0  0  0  0  0  0  0  0
  128.9610  125.4900   68.2870 C   0  0  0  0  0  0  0  0  0  0  0  0
  128.4330  126.6220   68.9040 C   0  0  0  0  0  0  0  0  0  0  0  0
  129.1420  127.8210   68.9130 C   0  0  0  0  0  0  0  0  0  0  0  0
  130.3890  127.8900   68.2970 C   0  0  0  0  0  0  0  0  0  0  0  0
  134.1760  124.3360   62.7450 S   0  0  0  0  0  0  0  0  0  0  0  0
  133.3000  124.5290   61.2430 C   0  0  0  0  0  0  0  0  0  0  0  0
  133.7440  124.0170   60.0940 N   0  0  0  0  0  0  0  0  0  0  0  0
  134.2064  122.8426   57.9334 H   0  0  0  0  0  0  0  0  0  0  0  0
  132.6529  123.2431   57.1253 H   0  0  0  0  0  0  0  0  0  0  0  0
  133.9982  124.4334   57.1253 H   0  0  0  0  0  0  0  0  0  0  0  0
  131.1936  125.0936   58.1124 H   0  0  0  0  0  0  0  0  0  0  0  0
  129.6724  126.4491   61.2602 H   0  0  0  0  0  0  0  0  0  0  0  0
  130.1411  127.2154   59.7046 H   0  0  0  0  0  0  0  0  0  0  0  0
  129.2319  125.6662   59.7046 H   0  0  0  0  0  0  0  0  0  0  0  0
  129.8960  126.0520   63.1190 H   0  0  0  0  0  0  0  0  0  0  0  0
  130.9500  127.3210   63.6100 H   0  0  0  0  0  0  0  0  0  0  0  0
  131.7240  126.9700   64.9800 H   0  0  0  0  0  0  0  0  0  0  0  0
  132.9712  126.1631   67.5630 H   0  0  0  0  0  0  0  0  0  0  0  0
  132.6117  127.8803   67.0405 H   0  0  0  0  0  0  0  0  0  0  0  0
  130.6324  124.6663   67.1873 H   0  0  0  0  0  0  0  0  0  0  0  0
  128.3963  124.5460   68.2880 H   0  0  0  0  0  0  0  0  0  0  0  0
  127.4470  126.5685   69.3886 H   0  0  0  0  0  0  0  0  0  0  0  0
  128.7187  128.7094   69.4045 H   0  0  0  0  0  0  0  0  0  0  0  0
  130.9583  128.8311   68.3110 H   0  0  0  0  0  0  0  0  0  0  0  0
  1  2  1  0
  2  3  2  0
  3  4  1  0
  4  5  1  0
  4  6  2  0
  6  7  1  0
  7  8  1  0
  7  9  2  0
  9 10  1  0
 10 11  2  0
 10 12  1  0
 12 13  1  0
 13 14  1  0
 14 15  2  0
 15 16  1  0
 16 17  2  0
 17 18  1  0
 18 19  2  0
  9 20  1  0
 20 21  1  0
 21 22  2  0
 22  2  1  0
 21  6  1  0
 19 14  1  0
  1 23  1  0
  1 24  1  0
  1 25  1  0
  3 26  1  0
  5 27  1  0
  5 28  1  0
  5 29  1  0
  8 30  1  0
  8 31  1  0
 12 32  1  0
 13 33  1  0
 13 34  1  0
 15 35  1  0
 16 36  1  0
 17 37  1  0
 18 38  1  0
 19 39  1  0
M  END
>  <Binding energies>  (1) 
[-7.02]

>  <Ligand effiencies>  (1) 
[-0.2808]

>  <Interactions>  (1) 
["V-A:HIS:456:CE1:4069, H-A:GLY:454:N:4049, V-A:TYR:484:CZ:4346, V-B:GLU:543:CG:9879, V-A:ARG:545:CZ:4926, V-A:ASP:366:CG:3212, H-A:TYR:484:OH:4347, V-A:GLY:453:C:4041, V-A:ARG:545:CD:4923, V-A:ARG:545:CG:4922, V-A:GLY:453:CA:4043, H-A:GLU:543:OE2:4910, V-A:GLU:543:CD:4908, H-A:GLU:543:OE1:4909, V-B:TYR:539:CE2:9848, V-A:ILE:369:CG2:3236, V-A:ASP:366:CB:3211, V-A:ILE:369:CB:3235, V-B:GLU:543:CB:9878, V-B:GLU:543:C:9874, V-A:TYR:484:CE2:4345, V-A:GLU:543:CB:4906, V-B:HIS:456:CE1:9041, V-B:TYR:539:CZ:9849, V-A:ASP:366:CA:3209, V-A:ASP:366:C:3207, V-B:GLU:543:CA:9876"]

$$$$
4ah_Grossjean_2025
     RDKit          3D

 51 53  0  0  0  0  0  0  0  0999 V2000
  122.8090  129.2740   67.0150 C   0  0  0  0  0  0  0  0  0  0  0  0
  123.4440  129.2290   65.7430 O   0  0  0  0  0  0  0  0  0  0  0  0
  124.8250  129.2780   65.6710 C   0  0  0  0  0  0  0  0  0  0  0  0
  125.6790  128.4760   66.4430 C   0  0  0  0  0  0  0  0  0  0  0  0
  127.0650  128.5810   66.3180 C   0  0  0  0  0  0  0  0  0  0  0  0
  127.9760  127.6680   67.1310 C   0  0  0  0  0  0  0  0  0  0  0  0
  128.9930  126.9900   66.3270 N   0  0  0  0  0  0  0  0  0  0  0  0
  129.6320  125.8530   66.6730 C   0  0  0  0  0  0  0  0  0  0  0  0
  129.4400  125.2830   67.7480 O   0  0  0  0  0  0  0  0  0  0  0  0
  130.6100  125.3490   65.7080 C   0  0  0  0  0  0  0  0  0  0  0  0
  132.1640  126.1610   65.5150 S   0  0  0  0  0  0  0  0  0  0  0  0
  132.6420  125.0430   64.2570 C   0  0  0  0  0  0  0  0  0  0  0  0
  133.8250  125.1280   63.6490 N   0  0  0  0  0  0  0  0  0  0  0  0
  134.0720  124.2000   62.6940 C   0  0  0  0  0  0  0  0  0  0  0  0
  135.4240  124.3170   62.0130 C   0  0  0  0  0  0  0  0  0  0  0  0
  133.1730  123.1990   62.3360 C   0  0  0  0  0  0  0  0  0  0  0  0
  131.9300  123.1130   62.9730 C   0  0  0  0  0  0  0  0  0  0  0  0
  130.9810  122.0020   62.5470 C   0  0  0  0  0  0  0  0  0  0  0  0
  131.6340  124.0710   63.9800 C   0  0  0  0  0  0  0  0  0  0  0  0
  130.4800  124.2760   64.8140 C   0  0  0  0  0  0  0  0  0  0  0  0
  129.3660  123.4790   64.7360 N   0  0  0  0  0  0  0  0  0  0  0  0
  127.6070  129.4760   65.3950 C   0  0  0  0  0  0  0  0  0  0  0  0
  126.7770  130.2950   64.6130 C   0  0  0  0  0  0  0  0  0  0  0  0
  127.2460  131.2130   63.6910 O   0  0  0  0  0  0  0  0  0  0  0  0
  128.4280  130.9200   62.9540 C   0  0  0  0  0  0  0  0  0  0  0  0
  125.3870  130.1910   64.7660 C   0  0  0  0  0  0  0  0  0  0  0  0
  124.5620  130.9740   63.9940 O   0  0  0  0  0  0  0  0  0  0  0  0
  124.1540  130.3610   62.7790 C   0  0  0  0  0  0  0  0  0  0  0  0
  123.5704  129.2200   67.8070 H   0  0  0  0  0  0  0  0  0  0  0  0
  122.2462  130.2143   67.1108 H   0  0  0  0  0  0  0  0  0  0  0  0
  122.1193  128.4225   67.1108 H   0  0  0  0  0  0  0  0  0  0  0  0
  125.2508  127.7556   67.1555 H   0  0  0  0  0  0  0  0  0  0  0  0
  128.4840  128.2745   67.8952 H   0  0  0  0  0  0  0  0  0  0  0  0
  127.3396  126.8868   67.5724 H   0  0  0  0  0  0  0  0  0  0  0  0
  129.1390  127.3550   65.3980 H   0  0  0  0  0  0  0  0  0  0  0  0
  136.2139  124.3854   62.7755 H   0  0  0  0  0  0  0  0  0  0  0  0
  135.5962  123.4304   61.3851 H   0  0  0  0  0  0  0  0  0  0  0  0
  135.4414  125.2200   61.3851 H   0  0  0  0  0  0  0  0  0  0  0  0
  133.4400  122.4752   61.5519 H   0  0  0  0  0  0  0  0  0  0  0  0
  130.5638  121.5136   63.4400 H   0  0  0  0  0  0  0  0  0  0  0  0
  130.1637  122.4280   61.9466 H   0  0  0  0  0  0  0  0  0  0  0  0
  131.5296  121.2614   61.9466 H   0  0  0  0  0  0  0  0  0  0  0  0
  128.5950  123.6980   64.1230 H   0  0  0  0  0  0  0  0  0  0  0  0
  129.2800  122.6430   65.2990 H   0  0  0  0  0  0  0  0  0  0  0  0
  128.6989  129.5408   65.2785 H   0  0  0  0  0  0  0  0  0  0  0  0
  129.2537  130.7153   63.6514 H   0  0  0  0  0  0  0  0  0  0  0  0
  128.2558  130.0374   62.3205 H   0  0  0  0  0  0  0  0  0  0  0  0
  128.6880  131.7809   62.3205 H   0  0  0  0  0  0  0  0  0  0  0  0
  123.5573  129.4645   63.0030 H   0  0  0  0  0  0  0  0  0  0  0  0
  123.5467  131.0696   62.1967 H   0  0  0  0  0  0  0  0  0  0  0  0
  125.0421  130.0743   62.1967 H   0  0  0  0  0  0  0  0  0  0  0  0
  1  2  1  0
  2  3  1  0
  3  4  2  0
  4  5  1  0
  5  6  1  0
  6  7  1  0
  7  8  1  0
  8  9  2  0
  8 10  1  0
 10 11  1  0
 11 12  1  0
 12 13  2  0
 13 14  1  0
 14 15  1  0
 14 16  2  0
 16 17  1  0
 17 18  1  0
 17 19  2  0
 19 20  1  0
 20 21  1  0
  5 22  2  0
 22 23  1  0
 23 24  1  0
 24 25  1  0
 23 26  2  0
 26 27  1  0
 27 28  1  0
 26  3  1  0
 20 10  2  0
 19 12  1  0
  1 29  1  0
  1 30  1  0
  1 31  1  0
  4 32  1  0
  6 33  1  0
  6 34  1  0
  7 35  1  0
 15 36  1  0
 15 37  1  0
 15 38  1  0
 16 39  1  0
 18 40  1  0
 18 41  1  0
 18 42  1  0
 21 43  1  0
 21 44  1  0
 22 45  1  0
 25 46  1  0
 25 47  1  0
 25 48  1  0
 28 49  1  0
 28 50  1  0
 28 51  1  0
M  END
>  <Binding energies>  (1) 
[-6.91]

>  <Ligand effiencies>  (1) 
[-0.2229032258064516]

>  <Interactions>  (1) 
["H-A:GLY:454:N:4049, H-A:ARG:545:NH2:4928, V-B:GLU:543:CG:9879, V-A:ARG:545:CZ:4926, V-A:ASP:366:CG:3212, H-A:TYR:484:OH:4347, V-B:GLU:543:CD:9880, H-B:GLU:543:OE1:9881, H-B:GLU:543:OE2:9882, V-B:ALA:541:CB:9864, V-A:GLY:453:C:4041, V-A:GLY:453:CA:4043, V-B:ASP:366:CG:8184, V-A:ALA:541:CB:4892, V-B:ILE:369:CD1:8210, V-A:GLU:543:CD:4908, H-A:GLU:543:OE1:4909, V-A:GLU:543:CG:4907, H-B:ARG:545:NH2:9900, V-A:LEU:475:CD1:4257, V-A:ILE:369:CD1:3238, V-B:GLU:543:CB:9878, V-B:HIS:456:CE1:9041, V-B:GLY:454:CA:9020, V-B:ARG:545:CZ:9898, V-B:ARG:545:CG:9894, V-B:ARG:545:CD:9895, H-A:ARG:545:NH1:4927, H-B:GLY:454:N:9021, H-B:TYR:484:OH:9319, H-B:ARG:545:NE:9896, V-B:GLY:453:CA:9015, V-B:GLY:453:C:9013, H-B:ARG:545:NH1:9899, V-B:ILE:455:C:9023, V-B:GLY:454:C:9018"]

$$$$
4ai_Grossjean_2025
     RDKit          3D

 32 34  0  0  0  0  0  0  0  0999 V2000
  124.5230  129.6220   65.3560 C   0  0  0  0  0  0  0  0  0  0  0  0
  125.1510  130.4120   64.2220 C   0  0  0  0  0  0  0  0  0  0  0  0
  124.4990  131.5120   63.6680 C   0  0  0  0  0  0  0  0  0  0  0  0
  125.0990  132.2310   62.6270 C   0  0  0  0  0  0  0  0  0  0  0  0
  124.3490  133.4250   62.0570 C   0  0  0  0  0  0  0  0  0  0  0  0
  126.3740  131.7980   62.1720 C   0  0  0  0  0  0  0  0  0  0  0  0
  127.2550  132.2900   61.1480 C   0  0  0  0  0  0  0  0  0  0  0  0
  126.9410  133.3770   60.3720 N   0  0  0  0  0  0  0  0  0  0  0  0
  128.4510  131.5650   61.0270 C   0  0  0  0  0  0  0  0  0  0  0  0
  129.5570  131.7800   60.0930 C   0  0  0  0  0  0  0  0  0  0  0  0
  130.7160  131.8750   60.5010 O   0  0  0  0  0  0  0  0  0  0  0  0
  129.2070  131.8470   58.7830 N   0  0  0  0  0  0  0  0  0  0  0  0
  130.0470  132.0330   57.6930 C   0  0  0  0  0  0  0  0  0  0  0  0
  131.3740  131.6010   57.6710 C   0  0  0  0  0  0  0  0  0  0  0  0
  131.8510  131.9740   56.4360 C   0  0  0  0  0  0  0  0  0  0  0  0
  130.8640  132.5960   55.7490 O   0  0  0  0  0  0  0  0  0  0  0  0
  129.7250  132.6260   56.5550 N   0  0  0  0  0  0  0  0  0  0  0  0
  128.5010  130.2250   62.1750 S   0  0  0  0  0  0  0  0  0  0  0  0
  126.9340  130.6570   62.8220 C   0  0  0  0  0  0  0  0  0  0  0  0
  126.3650  129.9700   63.8130 N   0  0  0  0  0  0  0  0  0  0  0  0
  124.8534  130.0376   66.3194 H   0  0  0  0  0  0  0  0  0  0  0  0
  123.4272  129.6868   65.2852 H   0  0  0  0  0  0  0  0  0  0  0  0
  124.8333  128.5691   65.2852 H   0  0  0  0  0  0  0  0  0  0  0  0
  123.5126  131.8156   64.0486 H   0  0  0  0  0  0  0  0  0  0  0  0
  123.9614  134.0420   62.8811 H   0  0  0  0  0  0  0  0  0  0  0  0
  125.0321  134.0260   61.4388 H   0  0  0  0  0  0  0  0  0  0  0  0
  123.5110  133.0706   61.4388 H   0  0  0  0  0  0  0  0  0  0  0  0
  126.0390  133.4730   59.9280 H   0  0  0  0  0  0  0  0  0  0  0  0
  127.6090  134.1200   60.2140 H   0  0  0  0  0  0  0  0  0  0  0  0
  128.2280  131.7420   58.5640 H   0  0  0  0  0  0  0  0  0  0  0  0
  131.9201  131.0760   58.4686 H   0  0  0  0  0  0  0  0  0  0  0  0
  132.8713  131.7955   56.0657 H   0  0  0  0  0  0  0  0  0  0  0  0
  1  2  1  0
  2  3  2  0
  3  4  1  0
  4  5  1  0
  4  6  2  0
  6  7  1  0
  7  8  1  0
  7  9  2  0
  9 10  1  0
 10 11  2  0
 10 12  1  0
 12 13  1  0
 13 14  1  0
 14 15  2  0
 15 16  1  0
 16 17  1  0
  9 18  1  0
 18 19  1  0
 19 20  2  0
 20  2  1  0
 19  6  1  0
 17 13  2  0
  1 21  1  0
  1 22  1  0
  1 23  1  0
  3 24  1  0
  5 25  1  0
  5 26  1  0
  5 27  1  0
  8 28  1  0
  8 29  1  0
 12 30  1  0
 14 31  1  0
 15 32  1  0
M  END
>  <Binding energies>  (1) 
[-6.83]

>  <Ligand effiencies>  (1) 
[-0.29695652173913045]

>  <Interactions>  (1) 
["V-A:TYR:539:CD1:4873, V-A:PRO:540:CB:4885, V-A:LEU:363:CD1:3188, V-A:PRO:540:N:4884, V-A:TYR:539:CE1:4875, V-A:PRO:540:CA:4883, V-B:ILE:369:CG2:8208, V-B:LEU:475:CD1:9229, V-B:ILE:369:CD1:8210, H-A:ALA:541:N:4891, V-A:TYR:539:C:4867, V-A:PRO:540:CD:4887, V-A:GLU:543:CD:4908, V-B:GLY:454:CA:9020, V-B:ARG:545:CZ:9898, H-A:TYR:539:N:4870, H-A:TYR:539:O:4868"]

$$$$
4aj_Grossjean_2025
     RDKit          3D

 32 34  0  0  0  0  0  0  0  0999 V2000
  125.1380  129.3550   65.5740 C   0  0  0  0  0  0  0  0  0  0  0  0
  125.6670  130.3250   64.5330 C   0  0  0  0  0  0  0  0  0  0  0  0
  126.9910  130.2640   64.1020 C   0  0  0  0  0  0  0  0  0  0  0  0
  127.4590  131.1710   63.1450 C   0  0  0  0  0  0  0  0  0  0  0  0
  128.9120  131.0630   62.7080 C   0  0  0  0  0  0  0  0  0  0  0  0
  126.5440  132.1350   62.6420 C   0  0  0  0  0  0  0  0  0  0  0  0
  126.6840  133.1920   61.6760 C   0  0  0  0  0  0  0  0  0  0  0  0
  127.8680  133.4450   61.0330 N   0  0  0  0  0  0  0  0  0  0  0  0
  125.5050  133.9230   61.4580 C   0  0  0  0  0  0  0  0  0  0  0  0
  125.2920  135.0610   60.5610 C   0  0  0  0  0  0  0  0  0  0  0  0
  124.4950  134.9830   59.6240 O   0  0  0  0  0  0  0  0  0  0  0  0
  126.0130  136.1720   60.8500 N   0  0  0  0  0  0  0  0  0  0  0  0
  125.9880  137.3820   60.1700 C   0  0  0  0  0  0  0  0  0  0  0  0
  127.0120  138.1240   59.8040 N   0  0  0  0  0  0  0  0  0  0  0  0
  126.6200  139.2110   59.1690 C   0  0  0  0  0  0  0  0  0  0  0  0
  125.2460  139.3690   59.0080 C   0  0  0  0  0  0  0  0  0  0  0  0
  124.4340  138.0120   59.7320 S   0  0  0  0  0  0  0  0  0  0  0  0
  124.1870  133.3220   62.4660 S   0  0  0  0  0  0  0  0  0  0  0  0
  125.2150  132.0910   63.1620 C   0  0  0  0  0  0  0  0  0  0  0  0
  124.7660  131.2280   64.0740 N   0  0  0  0  0  0  0  0  0  0  0  0
  125.3507  129.7451   66.5803 H   0  0  0  0  0  0  0  0  0  0  0  0
  124.0515  129.2385   65.4480 H   0  0  0  0  0  0  0  0  0  0  0  0
  125.6285  128.3785   65.4480 H   0  0  0  0  0  0  0  0  0  0  0  0
  127.6686  129.5021   64.5146 H   0  0  0  0  0  0  0  0  0  0  0  0
  129.5594  131.0149   63.5960 H   0  0  0  0  0  0  0  0  0  0  0  0
  129.0471  130.1523   62.1060 H   0  0  0  0  0  0  0  0  0  0  0  0
  129.1803  131.9437   62.1060 H   0  0  0  0  0  0  0  0  0  0  0  0
  128.5330  132.7120   60.8320 H   0  0  0  0  0  0  0  0  0  0  0  0
  128.1170  134.3790   60.7380 H   0  0  0  0  0  0  0  0  0  0  0  0
  126.6330  136.1280   61.6460 H   0  0  0  0  0  0  0  0  0  0  0  0
  127.3383  139.9517   58.7877 H   0  0  0  0  0  0  0  0  0  0  0  0
  124.7541  140.2145   58.5048 H   0  0  0  0  0  0  0  0  0  0  0  0
  1  2  1  0
  2  3  2  0
  3  4  1  0
  4  5  1  0
  4  6  2  0
  6  7  1  0
  7  8  1  0
  7  9  2  0
  9 10  1  0
 10 11  2  0
 10 12  1  0
 12 13  1  0
 13 14  2  0
 14 15  1  0
 15 16  2  0
 16 17  1  0
  9 18  1  0
 18 19  1  0
 19 20  2  0
 20  2  1  0
 19  6  1  0
 17 13  1  0
  1 21  1  0
  1 22  1  0
  1 23  1  0
  3 24  1  0
  5 25  1  0
  5 26  1  0
  5 27  1  0
  8 28  1  0
  8 29  1  0
 12 30  1  0
 15 31  1  0
 16 32  1  0
M  END
>  <Binding energies>  (1) 
[-6.54]

>  <Ligand effiencies>  (1) 
[-0.2843478260869565]

>  <Interactions>  (1) 
["V-A:TYR:539:CD1:4873, V-B:ILE:369:CG2:8208, V-B:LEU:475:CD1:9229, V-A:ALA:541:CB:4892, V-B:ILE:369:CD1:8210, V-A:TYR:539:C:4867, V-A:GLU:543:CD:4908, V-A:GLU:543:CG:4907, V-B:GLY:454:CA:9020, V-B:ARG:545:CZ:9898, H-A:TYR:539:O:4868, V-A:TYR:539:CB:4871, V-B:PRO:482:CG:9298, V-B:LEU:373:CD1:8251, H-B:SER:385:OG:8381, V-B:SER:385:CB:8380, V-A:ILE:343:CG2:2991, V-B:HIS:383:CD2:8363, V-B:HIS:383:CE1:8365, V-A:VAL:344:CG1:3000, V-B:SER:385:CA:8378, V-B:LEU:373:CD2:8252, H-B:GLY:454:N:9021, H-B:TYR:484:OH:9319, V-A:ILE:343:CB:2990"]

$$$$
4ak_Grossjean_2025
     RDKit          3D

 50 51  0  0  0  0  0  0  0  0999 V2000
  128.8930  122.8920   63.5460 C   0  0  0  0  0  0  0  0  0  0  0  0
  128.1190  122.5320   62.4120 O   0  0  0  0  0  0  0  0  0  0  0  0
  127.2870  123.5830   61.9370 C   0  0  0  0  0  0  0  0  0  0  0  0
  125.9850  122.9930   61.3810 C   0  0  0  0  0  0  0  0  0  0  0  0
  125.9930  123.0860   59.9630 O   0  0  0  0  0  0  0  0  0  0  0  0
  124.8110  123.6560   59.4190 C   0  0  0  0  0  0  0  0  0  0  0  0
  125.1900  124.8030   58.4730 C   0  0  0  0  0  0  0  0  0  0  0  0
  125.6410  124.2640   57.2380 O   0  0  0  0  0  0  0  0  0  0  0  0
  125.2840  122.9020   57.0410 C   0  0  0  0  0  0  0  0  0  0  0  0
  126.5090  122.1250   56.5230 C   0  0  0  0  0  0  0  0  0  0  0  0
  127.7030  122.2950   57.3510 N   0  0  0  0  0  0  0  0  0  0  0  0
  128.4230  123.4300   57.4580 C   0  0  0  0  0  0  0  0  0  0  0  0
  128.1170  124.4650   56.8640 O   0  0  0  0  0  0  0  0  0  0  0  0
  129.5940  123.3690   58.3310 C   0  0  0  0  0  0  0  0  0  0  0  0
  131.0040  124.3750   58.0010 S   0  0  0  0  0  0  0  0  0  0  0  0
  131.8400  123.7430   59.4010 C   0  0  0  0  0  0  0  0  0  0  0  0
  133.0710  124.1410   59.7270 N   0  0  0  0  0  0  0  0  0  0  0  0
  133.6060  123.5710   60.8350 C   0  0  0  0  0  0  0  0  0  0  0  0
  135.0060  124.0370   61.1900 C   0  0  0  0  0  0  0  0  0  0  0  0
  132.9460  122.6240   61.6150 C   0  0  0  0  0  0  0  0  0  0  0  0
  131.6550  122.2090   61.2700 C   0  0  0  0  0  0  0  0  0  0  0  0
  130.9770  121.1700   62.1510 C   0  0  0  0  0  0  0  0  0  0  0  0
  131.0610  122.7840   60.1150 C   0  0  0  0  0  0  0  0  0  0  0  0
  129.7820  122.5930   59.4860 C   0  0  0  0  0  0  0  0  0  0  0  0
  128.8420  121.7250   59.9820 N   0  0  0  0  0  0  0  0  0  0  0  0
  128.3417  122.6356   64.4627 H   0  0  0  0  0  0  0  0  0  0  0  0
  129.8474  122.3453   63.5271 H   0  0  0  0  0  0  0  0  0  0  0  0
  129.0898  123.9741   63.5271 H   0  0  0  0  0  0  0  0  0  0  0  0
  127.0545  124.2692   62.7647 H   0  0  0  0  0  0  0  0  0  0  0  0
  127.8098  124.1329   61.1406 H   0  0  0  0  0  0  0  0  0  0  0  0
  125.9036  121.9373   61.6792 H   0  0  0  0  0  0  0  0  0  0  0  0
  125.1271  123.5531   61.7814 H   0  0  0  0  0  0  0  0  0  0  0  0
  124.2557  122.8877   58.8610 H   0  0  0  0  0  0  0  0  0  0  0  0
  124.1801  124.0428   60.2329 H   0  0  0  0  0  0  0  0  0  0  0  0
  124.3105  125.4396   58.2967 H   0  0  0  0  0  0  0  0  0  0  0  0
  125.9911  125.4051   58.9266 H   0  0  0  0  0  0  0  0  0  0  0  0
  124.9499  122.4679   57.9949 H   0  0  0  0  0  0  0  0  0  0  0  0
  124.4684  122.8372   56.3057 H   0  0  0  0  0  0  0  0  0  0  0  0
  126.2554  121.0550   56.4939 H   0  0  0  0  0  0  0  0  0  0  0  0
  126.7475  122.5255   55.5267 H   0  0  0  0  0  0  0  0  0  0  0  0
  128.0050  121.4820   57.8700 H   0  0  0  0  0  0  0  0  0  0  0  0
  135.1141  124.0730   62.2841 H   0  0  0  0  0  0  0  0  0  0  0  0
  135.7430  123.3357   60.7716 H   0  0  0  0  0  0  0  0  0  0  0  0
  135.1757  125.0401   60.7716 H   0  0  0  0  0  0  0  0  0  0  0  0
  133.4401  122.2022   62.5027 H   0  0  0  0  0  0  0  0  0  0  0  0
  131.1418  121.4225   63.2089 H   0  0  0  0  0  0  0  0  0  0  0  0
  129.8974  121.1590   61.9405 H   0  0  0  0  0  0  0  0  0  0  0  0
  131.4017  120.1774   61.9405 H   0  0  0  0  0  0  0  0  0  0  0  0
  127.9320  122.0410   60.2880 H   0  0  0  0  0  0  0  0  0  0  0  0
  129.0290  120.7350   60.0550 H   0  0  0  0  0  0  0  0  0  0  0  0
  1  2  1  0
  2  3  1  0
  3  4  1  0
  4  5  1  0
  5  6  1  0
  6  7  1  0
  7  8  1  0
  8  9  1  0
  9 10  1  0
 10 11  1  0
 11 12  1  0
 12 13  2  0
 12 14  1  0
 14 15  1  0
 15 16  1  0
 16 17  2  0
 17 18  1  0
 18 19  1  0
 18 20  2  0
 20 21  1  0
 21 22  1  0
 21 23  2  0
 23 24  1  0
 24 25  1  0
 24 14  2  0
 23 16  1  0
  1 26  1  0
  1 27  1  0
  1 28  1  0
  3 29  1  0
  3 30  1  0
  4 31  1  0
  4 32  1  0
  6 33  1  0
  6 34  1  0
  7 35  1  0
  7 36  1  0
  9 37  1  0
  9 38  1  0
 10 39  1  0
 10 40  1  0
 11 41  1  0
 19 42  1  0
 19 43  1  0
 19 44  1  0
 20 45  1  0
 22 46  1  0
 22 47  1  0
 22 48  1  0
 25 49  1  0
 25 50  1  0
M  END
>  <Binding energies>  (1) 
[-5.7]

>  <Ligand effiencies>  (1) 
[-0.20357142857142857]

>  <Interactions>  (1) 
["V-B:GLU:543:CG:9879, H-B:ALA:541:N:9863, V-A:ASP:366:CG:3212, V-B:GLU:543:CD:9880, V-B:ALA:541:CB:9864, V-B:ASP:366:CG:8184, H-B:TYR:531:OH:9767, V-B:ASP:366:CB:8183, V-B:PRO:540:CB:9857, V-B:TYR:539:CE2:9848, V-B:PRO:540:CD:9859, V-B:PRO:540:N:9856, V-B:PRO:540:CA:9855, V-B:MET:535:CE:9807, V-B:TYR:539:CD2:9846, V-B:TYR:531:CE2:9765, V-B:TYR:539:C:9839, V-B:LEU:363:CD1:8160, V-A:LEU:475:CD1:4257, V-B:PRO:540:C:9853, V-A:ILE:369:CD1:3238, V-B:TYR:539:CZ:9849, V-B:LEU:363:CA:8156, V-A:ASP:366:CA:3209, H-B:TYR:539:O:9840"]

$$$$
4al_Grossjean_2025
     RDKit          3D

 28 29  0  0  0  0  0  0  0  0999 V2000
  131.2530  117.4210   60.9980 C   0  0  0  0  0  0  0  0  0  0  0  0
  132.0090  118.0360   59.9650 O   0  0  0  0  0  0  0  0  0  0  0  0
  133.1300  118.7460   60.2500 C   0  0  0  0  0  0  0  0  0  0  0  0
  134.2670  118.4050   59.9160 O   0  0  0  0  0  0  0  0  0  0  0  0
  132.8500  119.9840   61.0090 C   0  0  0  0  0  0  0  0  0  0  0  0
  134.1460  120.7850   61.9010 S   0  0  0  0  0  0  0  0  0  0  0  0
  133.0540  122.0350   62.4490 C   0  0  0  0  0  0  0  0  0  0  0  0
  133.4620  123.0340   63.2330 N   0  0  0  0  0  0  0  0  0  0  0  0
  132.5150  123.9380   63.5860 C   0  0  0  0  0  0  0  0  0  0  0  0
  133.0000  125.0660   64.4790 C   0  0  0  0  0  0  0  0  0  0  0  0
  131.1850  123.8680   63.1780 C   0  0  0  0  0  0  0  0  0  0  0  0
  130.7600  122.8190   62.3550 C   0  0  0  0  0  0  0  0  0  0  0  0
  129.2990  122.7840   61.9350 C   0  0  0  0  0  0  0  0  0  0  0  0
  131.7250  121.8520   61.9640 C   0  0  0  0  0  0  0  0  0  0  0  0
  131.6390  120.6740   61.1460 C   0  0  0  0  0  0  0  0  0  0  0  0
  130.4700  120.2680   60.5550 N   0  0  0  0  0  0  0  0  0  0  0  0
  131.6430  117.7383   61.9764 H   0  0  0  0  0  0  0  0  0  0  0  0
  130.1984  117.7209   60.9089 H   0  0  0  0  0  0  0  0  0  0  0  0
  131.3320  116.3275   60.9089 H   0  0  0  0  0  0  0  0  0  0  0  0
  132.8762  124.7780   65.5334 H   0  0  0  0  0  0  0  0  0  0  0  0
  134.0627  125.2639   64.2753 H   0  0  0  0  0  0  0  0  0  0  0  0
  132.4125  125.9734   64.2753 H   0  0  0  0  0  0  0  0  0  0  0  0
  130.4688  124.6372   63.5027 H   0  0  0  0  0  0  0  0  0  0  0  0
  128.6603  122.7687   62.8305 H   0  0  0  0  0  0  0  0  0  0  0  0
  129.0684  123.6769   61.3353 H   0  0  0  0  0  0  0  0  0  0  0  0
  129.1114  121.8811   61.3353 H   0  0  0  0  0  0  0  0  0  0  0  0
  129.5810  120.6910   60.7830 H   0  0  0  0  0  0  0  0  0  0  0  0
  130.4580  119.5280   59.8660 H   0  0  0  0  0  0  0  0  0  0  0  0
  1  2  1  0
  2  3  1  0
  3  4  2  0
  3  5  1  0
  5  6  1  0
  6  7  1  0
  7  8  2  0
  8  9  1  0
  9 10  1  0
  9 11  2  0
 11 12  1  0
 12 13  1  0
 12 14  2  0
 14 15  1  0
 15 16  1  0
 15  5  2  0
 14  7  1  0
  1 17  1  0
  1 18  1  0
  1 19  1  0
 10 20  1  0
 10 21  1  0
 10 22  1  0
 11 23  1  0
 13 24  1  0
 13 25  1  0
 13 26  1  0
 16 27  1  0
 16 28  1  0
M  END
>  <Binding energies>  (1) 
[-5.16]

>  <Ligand effiencies>  (1) 
[-0.2866666666666667]

>  <Interactions>  (1) 
["H-A:GLY:454:N:4049, V-A:ARG:545:CZ:4926, V-B:ALA:541:CB:9864, V-A:PRO:482:CG:4326, V-B:TYR:539:CE2:9848, V-B:TYR:539:CD2:9846, V-A:PRO:482:CB:4325, V-B:TYR:539:C:9839, V-A:GLY:454:CA:4048, V-A:ILE:369:CG2:3236, V-A:LEU:475:CD1:4257, V-A:SER:385:C:3404, V-A:ILE:369:CD1:3238, H-B:TYR:539:O:9840, V-A:HIS:383:CD2:3391, H-A:SER:385:OG:3409, H-A:HIS:383:NE2:3393, V-A:HIS:383:CE1:3392"]

$$$$
4ba_Grossjean_2025
     RDKit          3D

 44 46  0  0  0  0  0  0  0  0999 V2000
  124.8440  124.2720   57.5230 C   0  0  0  0  0  0  0  0  0  0  0  0
  125.2900  123.2950   56.4190 C   0  0  0  0  0  0  0  0  0  0  0  0
  126.5180  122.4290   56.7680 C   0  0  0  0  0  0  0  0  0  0  0  0
  126.7330  121.3950   56.1310 O   0  0  0  0  0  0  0  0  0  0  0  0
  127.4090  122.8980   57.8810 C   0  0  0  0  0  0  0  0  0  0  0  0
  126.9360  122.8680   59.1990 C   0  0  0  0  0  0  0  0  0  0  0  0
  127.7400  123.2990   60.2510 C   0  0  0  0  0  0  0  0  0  0  0  0
  129.0330  123.7640   60.0080 C   0  0  0  0  0  0  0  0  0  0  0  0
  129.7560  124.1820   61.1420 N   0  0  0  0  0  0  0  0  0  0  0  0
  129.3620  124.9370   62.1970 C   0  0  0  0  0  0  0  0  0  0  0  0
  128.2430  125.4400   62.3080 O   0  0  0  0  0  0  0  0  0  0  0  0
  130.3820  125.1530   63.2260 C   0  0  0  0  0  0  0  0  0  0  0  0
  132.0630  124.7290   62.9100 S   0  0  0  0  0  0  0  0  0  0  0  0
  132.5350  125.2120   64.5220 C   0  0  0  0  0  0  0  0  0  0  0  0
  133.8000  125.1190   64.9320 N   0  0  0  0  0  0  0  0  0  0  0  0
  134.0440  125.5210   66.2000 C   0  0  0  0  0  0  0  0  0  0  0  0
  135.4890  125.3980   66.6490 C   0  0  0  0  0  0  0  0  0  0  0  0
  133.0650  126.0140   67.0580 C   0  0  0  0  0  0  0  0  0  0  0  0
  131.7310  126.1150   66.6320 C   0  0  0  0  0  0  0  0  0  0  0  0
  130.6890  126.6660   67.6110 C   0  0  0  0  0  0  0  0  0  0  0  0
  131.2050  127.5220   68.4960 F   0  0  0  0  0  0  0  0  0  0  0  0
  129.7350  127.3120   66.9410 F   0  0  0  0  0  0  0  0  0  0  0  0
  130.1420  125.6630   68.2990 F   0  0  0  0  0  0  0  0  0  0  0  0
  131.4390  125.6930   65.3010 C   0  0  0  0  0  0  0  0  0  0  0  0
  130.2170  125.6380   64.5340 C   0  0  0  0  0  0  0  0  0  0  0  0
  129.0060  126.0290   65.0440 N   0  0  0  0  0  0  0  0  0  0  0  0
  129.5120  123.8030   58.6900 C   0  0  0  0  0  0  0  0  0  0  0  0
  128.7060  123.3720   57.6390 C   0  0  0  0  0  0  0  0  0  0  0  0
  125.0465  123.8283   58.5090 H   0  0  0  0  0  0  0  0  0  0  0  0
  125.4005  125.2157   57.4242 H   0  0  0  0  0  0  0  0  0  0  0  0
  123.7664  124.4697   57.4242 H   0  0  0  0  0  0  0  0  0  0  0  0
  124.4487  122.6209   56.2004 H   0  0  0  0  0  0  0  0  0  0  0  0
  125.5875  123.9168   55.5618 H   0  0  0  0  0  0  0  0  0  0  0  0
  125.9199  122.5005   59.4050 H   0  0  0  0  0  0  0  0  0  0  0  0
  127.3533  123.2727   61.2805 H   0  0  0  0  0  0  0  0  0  0  0  0
  130.7170  123.8780   61.1520 H   0  0  0  0  0  0  0  0  0  0  0  0
  135.5324  125.3943   67.7481 H   0  0  0  0  0  0  0  0  0  0  0  0
  135.9146  124.4604   66.2621 H   0  0  0  0  0  0  0  0  0  0  0  0
  136.0670  126.2502   66.2621 H   0  0  0  0  0  0  0  0  0  0  0  0
  133.3384  126.3266   68.0766 H   0  0  0  0  0  0  0  0  0  0  0  0
  128.8000  125.9790   66.0320 H   0  0  0  0  0  0  0  0  0  0  0  0
  128.2700  126.3750   64.4440 H   0  0  0  0  0  0  0  0  0  0  0  0
  130.5269  124.1750   58.4860 H   0  0  0  0  0  0  0  0  0  0  0  0
  129.0909  123.4038   56.6090 H   0  0  0  0  0  0  0  0  0  0  0  0
  1  2  1  0
  2  3  1  0
  3  4  2  0
  3  5  1  0
  5  6  2  0
  6  7  1  0
  7  8  2  0
  8  9  1  0
  9 10  1  0
 10 11  2  0
 10 12  1  0
 12 13  1  0
 13 14  1  0
 14 15  2  0
 15 16  1  0
 16 17  1  0
 16 18  2  0
 18 19  1  0
 19 20  1  0
 20 21  1  0
 20 22  1  0
 20 23  1  0
 19 24  2  0
 24 25  1  0
 25 26  1  0
  8 27  1  0
 27 28  2  0
 28  5  1  0
 25 12  2  0
 24 14  1  0
  1 29  1  0
  1 30  1  0
  1 31  1  0
  2 32  1  0
  2 33  1  0
  6 34  1  0
  7 35  1  0
  9 36  1  0
 17 37  1  0
 17 38  1  0
 17 39  1  0
 18 40  1  0
 26 41  1  0
 26 42  1  0
 27 43  1  0
 28 44  1  0
M  END
>  <Binding energies>  (1) 
[-7.17]

>  <Ligand effiencies>  (1) 
[-0.23129032258064516]

>  <Interactions>  (1) 
["V-A:HIS:456:CE1:4069, H-A:GLY:454:N:4049, H-A:ARG:545:NH2:4928, V-A:TYR:484:CZ:4346, V-B:GLU:543:CG:9879, V-A:ILE:455:C:4051, V-A:ARG:545:CZ:4926, H-A:TYR:484:OH:4347, V-B:GLU:543:CD:9880, H-B:GLU:543:OE2:9882, H-A:ARG:545:NE:4924, V-A:GLY:453:C:4041, V-A:ARG:545:CD:4923, V-A:ARG:545:CG:4922, V-A:GLY:453:CA:4043, V-A:GLU:543:CD:4908, H-A:GLU:543:OE1:4909, V-B:PRO:540:CB:9857, V-B:TYR:539:CE2:9848, V-B:PRO:540:N:9856, V-B:PRO:540:CA:9855, V-B:MET:535:CE:9807, V-B:TYR:531:CE2:9765, V-B:TYR:539:C:9839, V-B:TYR:531:CZ:9766, V-B:LEU:363:CD1:8160, V-A:GLY:454:CA:4048, V-A:TYR:484:CE2:4345, V-A:GLU:543:CB:4906, V-B:TYR:539:CZ:9849, H-A:ARG:545:NH1:4927, H-B:TYR:539:N:9842, V-A:GLY:454:C:4046, V-A:ILE:455:CA:4053"]

$$$$
4bb_Grossjean_2025
     RDKit          3D

 41 43  0  0  0  0  0  0  0  0999 V2000
  125.3030  123.2340   56.3920 C   0  0  0  0  0  0  0  0  0  0  0  0
  126.5020  122.4240   56.8890 C   0  0  0  0  0  0  0  0  0  0  0  0
  126.8190  121.4120   56.2610 O   0  0  0  0  0  0  0  0  0  0  0  0
  127.2200  122.8980   58.1170 C   0  0  0  0  0  0  0  0  0  0  0  0
  128.6210  122.8820   58.1430 C   0  0  0  0  0  0  0  0  0  0  0  0
  129.3120  123.3160   59.2710 C   0  0  0  0  0  0  0  0  0  0  0  0
  128.6180  123.7800   60.3900 C   0  0  0  0  0  0  0  0  0  0  0  0
  129.4160  124.1910   61.4760 N   0  0  0  0  0  0  0  0  0  0  0  0
  129.1370  125.0540   62.4840 C   0  0  0  0  0  0  0  0  0  0  0  0
  128.0780  125.6720   62.5930 O   0  0  0  0  0  0  0  0  0  0  0  0
  130.2140  125.2430   63.4590 C   0  0  0  0  0  0  0  0  0  0  0  0
  131.8390  124.6580   63.1100 S   0  0  0  0  0  0  0  0  0  0  0  0
  132.4210  125.2040   64.6660 C   0  0  0  0  0  0  0  0  0  0  0  0
  133.6910  125.0390   65.0310 N   0  0  0  0  0  0  0  0  0  0  0  0
  134.0210  125.5010   66.2590 C   0  0  0  0  0  0  0  0  0  0  0  0
  135.4740  125.3040   66.6540 C   0  0  0  0  0  0  0  0  0  0  0  0
  133.1210  126.1190   67.1220 C   0  0  0  0  0  0  0  0  0  0  0  0
  131.7810  126.2960   66.7430 C   0  0  0  0  0  0  0  0  0  0  0  0
  130.8270  126.9820   67.7270 C   0  0  0  0  0  0  0  0  0  0  0  0
  129.8830  127.7050   67.1200 F   0  0  0  0  0  0  0  0  0  0  0  0
  130.2100  126.0630   68.4710 F   0  0  0  0  0  0  0  0  0  0  0  0
  131.5110  127.8040   68.5220 F   0  0  0  0  0  0  0  0  0  0  0  0
  131.3980  125.8190   65.4530 C   0  0  0  0  0  0  0  0  0  0  0  0
  130.1470  125.8220   64.7380 C   0  0  0  0  0  0  0  0  0  0  0  0
  128.9960  126.3520   65.2620 N   0  0  0  0  0  0  0  0  0  0  0  0
  127.2150  123.7910   60.3740 C   0  0  0  0  0  0  0  0  0  0  0  0
  126.5260  123.3550   59.2450 C   0  0  0  0  0  0  0  0  0  0  0  0
  124.7365  123.6167   57.2537 H   0  0  0  0  0  0  0  0  0  0  0  0
  125.6580  124.0781   55.7825 H   0  0  0  0  0  0  0  0  0  0  0  0
  124.6525  122.5896   55.7825 H   0  0  0  0  0  0  0  0  0  0  0  0
  129.1791  122.5238   57.2654 H   0  0  0  0  0  0  0  0  0  0  0  0
  130.4117  123.2932   59.2806 H   0  0  0  0  0  0  0  0  0  0  0  0
  130.3420  123.7910   61.4810 H   0  0  0  0  0  0  0  0  0  0  0  0
  135.5575  125.2927   67.7508 H   0  0  0  0  0  0  0  0  0  0  0  0
  135.8378  124.3483   66.2487 H   0  0  0  0  0  0  0  0  0  0  0  0
  136.0792  126.1283   66.2487 H   0  0  0  0  0  0  0  0  0  0  0  0
  133.4617  126.4709   68.1070 H   0  0  0  0  0  0  0  0  0  0  0  0
  128.8300  127.3480   65.2910 H   0  0  0  0  0  0  0  0  0  0  0  0
  128.2680  125.7600   65.6390 H   0  0  0  0  0  0  0  0  0  0  0  0
  126.6585  124.1445   61.2545 H   0  0  0  0  0  0  0  0  0  0  0  0
  125.4261  123.3696   59.2388 H   0  0  0  0  0  0  0  0  0  0  0  0
  1  2  1  0
  2  3  2  0
  2  4  1  0
  4  5  2  0
  5  6  1  0
  6  7  2  0
  7  8  1  0
  8  9  1  0
  9 10  2  0
  9 11  1  0
 11 12  1  0
 12 13  1  0
 13 14  2  0
 14 15  1  0
 15 16  1  0
 15 17  2  0
 17 18  1  0
 18 19  1  0
 19 20  1  0
 19 21  1  0
 19 22  1  0
 18 23  2  0
 23 24  1  0
 24 25  1  0
  7 26  1  0
 26 27  2  0
 27  4  1  0
 24 11  2  0
 23 13  1  0
  1 28  1  0
  1 29  1  0
  1 30  1  0
  5 31  1  0
  6 32  1  0
  8 33  1  0
 16 34  1  0
 16 35  1  0
 16 36  1  0
 17 37  1  0
 25 38  1  0
 25 39  1  0
 26 40  1  0
 27 41  1  0
M  END
>  <Binding energies>  (1) 
[-7.28]

>  <Ligand effiencies>  (1) 
[-0.24266666666666667]

>  <Interactions>  (1) 
["V-A:GLU:543:C:4902, V-A:HIS:456:CE1:4069, H-A:GLY:454:N:4049, H-A:ARG:545:NH2:4928, V-B:GLU:543:CG:9879, V-A:ILE:455:C:4051, V-A:ARG:545:CZ:4926, H-A:TYR:484:OH:4347, V-B:GLU:543:CD:9880, H-B:GLU:543:OE1:9881, H-B:GLU:543:OE2:9882, H-A:ARG:545:NE:4924, V-A:GLY:453:C:4041, V-A:ARG:545:CD:4923, V-A:ARG:545:CG:4922, V-A:GLY:453:CA:4043, V-A:GLU:543:CD:4908, H-A:GLU:543:OE1:4909, V-A:GLU:543:CG:4907, V-B:PRO:540:CB:9857, V-B:TYR:539:CE2:9848, V-B:PRO:540:CD:9859, V-B:PRO:540:N:9856, V-B:PRO:540:CA:9855, V-B:MET:535:CE:9807, V-B:TYR:539:CD2:9846, V-B:TYR:531:CE2:9765, V-B:TYR:539:C:9839, V-B:TYR:531:CZ:9766, V-B:LEU:363:CD1:8160, V-A:GLY:454:CA:4048, V-A:GLU:543:CB:4906, V-B:TYR:539:CZ:9849, H-B:TYR:539:N:9842, V-A:GLY:454:C:4046, V-A:ILE:455:CA:4053"]

$$$$
4bc_Grossjean_2025
     RDKit          3D

 40 42  0  0  0  0  0  0  0  0999 V2000
  125.3020  122.1140   56.1360 C   0  0  0  0  0  0  0  0  0  0  0  0
  126.6290  121.7210   56.4700 O   0  0  0  0  0  0  0  0  0  0  0  0
  127.2250  122.2520   57.5970 C   0  0  0  0  0  0  0  0  0  0  0  0
  128.6120  122.1350   57.6820 C   0  0  0  0  0  0  0  0  0  0  0  0
  129.3010  122.6410   58.7810 C   0  0  0  0  0  0  0  0  0  0  0  0
  128.6080  123.2800   59.8110 C   0  0  0  0  0  0  0  0  0  0  0  0
  129.3860  123.7450   60.8880 N   0  0  0  0  0  0  0  0  0  0  0  0
  129.5680  125.0130   61.3290 C   0  0  0  0  0  0  0  0  0  0  0  0
  129.0720  126.0050   60.7940 O   0  0  0  0  0  0  0  0  0  0  0  0
  130.4200  125.1510   62.5140 C   0  0  0  0  0  0  0  0  0  0  0  0
  132.1490  124.8260   62.4060 S   0  0  0  0  0  0  0  0  0  0  0  0
  132.3700  125.1930   64.1000 C   0  0  0  0  0  0  0  0  0  0  0  0
  133.5710  125.1250   64.6750 N   0  0  0  0  0  0  0  0  0  0  0  0
  133.6170  125.4290   65.9920 C   0  0  0  0  0  0  0  0  0  0  0  0
  134.9940  125.3510   66.6260 C   0  0  0  0  0  0  0  0  0  0  0  0
  132.5020  125.7960   66.7420 C   0  0  0  0  0  0  0  0  0  0  0  0
  131.2350  125.8690   66.1420 C   0  0  0  0  0  0  0  0  0  0  0  0
  130.0370  126.2740   67.0090 C   0  0  0  0  0  0  0  0  0  0  0  0
  129.1550  127.0330   66.3560 F   0  0  0  0  0  0  0  0  0  0  0  0
  129.3950  125.1840   67.4270 F   0  0  0  0  0  0  0  0  0  0  0  0
  130.4590  126.9700   68.0650 F   0  0  0  0  0  0  0  0  0  0  0  0
  131.1520  125.5550   64.7530 C   0  0  0  0  0  0  0  0  0  0  0  0
  130.0540  125.5240   63.8170 C   0  0  0  0  0  0  0  0  0  0  0  0
  128.7670  125.8350   64.1760 N   0  0  0  0  0  0  0  0  0  0  0  0
  127.2110  123.3900   59.7400 C   0  0  0  0  0  0  0  0  0  0  0  0
  126.5260  122.8830   58.6400 C   0  0  0  0  0  0  0  0  0  0  0  0
  124.7270  122.2843   57.0581 H   0  0  0  0  0  0  0  0  0  0  0  0
  125.3319  123.0418   55.5459 H   0  0  0  0  0  0  0  0  0  0  0  0
  124.8218  121.3195   55.5459 H   0  0  0  0  0  0  0  0  0  0  0  0
  129.1672  121.6380   56.8728 H   0  0  0  0  0  0  0  0  0  0  0  0
  130.3946  122.5370   58.8380 H   0  0  0  0  0  0  0  0  0  0  0  0
  129.9010  123.0240   61.3730 H   0  0  0  0  0  0  0  0  0  0  0  0
  134.8941  125.3567   67.7214 H   0  0  0  0  0  0  0  0  0  0  0  0
  135.4921  124.4232   66.3080 H   0  0  0  0  0  0  0  0  0  0  0  0
  135.5936  126.2166   66.3080 H   0  0  0  0  0  0  0  0  0  0  0  0
  132.6150  126.0300   67.8109 H   0  0  0  0  0  0  0  0  0  0  0  0
  128.0910  126.1710   63.5060 H   0  0  0  0  0  0  0  0  0  0  0  0
  128.4500  125.7340   65.1300 H   0  0  0  0  0  0  0  0  0  0  0  0
  126.6564  123.8778   60.5552 H   0  0  0  0  0  0  0  0  0  0  0  0
  125.4313  122.9767   58.5866 H   0  0  0  0  0  0  0  0  0  0  0  0
  1  2  1  0
  2  3  1  0
  3  4  2  0
  4  5  1  0
  5  6  2  0
  6  7  1  0
  7  8  1  0
  8  9  2  0
  8 10  1  0
 10 11  1  0
 11 12  1  0
 12 13  2  0
 13 14  1  0
 14 15  1  0
 14 16  2  0
 16 17  1  0
 17 18  1  0
 18 19  1  0
 18 20  1  0
 18 21  1  0
 17 22  2  0
 22 23  1  0
 23 24  1  0
  6 25  1  0
 25 26  2  0
 26  3  1  0
 23 10  2  0
 22 12  1  0
  1 27  1  0
  1 28  1  0
  1 29  1  0
  4 30  1  0
  5 31  1  0
  7 32  1  0
 15 33  1  0
 15 34  1  0
 15 35  1  0
 16 36  1  0
 24 37  1  0
 24 38  1  0
 25 39  1  0
 26 40  1  0
M  END
>  <Binding energies>  (1) 
[-6.5]

>  <Ligand effiencies>  (1) 
[-0.22413793103448276]

>  <Interactions>  (1) 
["V-A:HIS:456:CE1:4069, H-A:GLY:454:N:4049, H-A:ARG:545:NH2:4928, V-A:TYR:484:CZ:4346, V-B:GLU:543:CG:9879, V-A:ILE:455:C:4051, V-A:ARG:545:CZ:4926, H-A:TYR:484:OH:4347, V-B:GLU:543:CD:9880, H-B:GLU:543:OE1:9881, H-B:GLU:543:OE2:9882, H-A:ARG:545:NE:4924, V-A:GLY:453:C:4041, V-A:ARG:545:CD:4923, V-A:ARG:545:CG:4922, V-A:GLY:453:CA:4043, V-A:GLU:543:CD:4908, V-B:PRO:540:CB:9857, V-B:TYR:539:CE2:9848, V-B:PRO:540:CD:9859, V-B:PRO:540:N:9856, V-B:PRO:540:CA:9855, V-B:MET:535:CE:9807, V-B:TYR:539:CD2:9846, V-B:TYR:539:C:9839, V-B:LEU:363:CD1:8160, V-A:GLY:454:CA:4048, V-B:GLU:543:CB:9878, V-A:TYR:484:CE2:4345, V-A:GLU:543:CB:4906, V-B:TYR:539:CG:9844, V-B:TYR:539:CZ:9849, V-B:TYR:539:CE1:9847, V-B:TYR:539:CD1:9845, V-B:ILE:538:CG2:9835, H-B:TYR:539:N:9842, V-B:GLU:543:CA:9876"]

$$$$
4bd_Grossjean_2025
     RDKit          3D

 36 38  0  0  0  0  0  0  0  0999 V2000
  124.5550  129.6860   65.4890 C   0  0  0  0  0  0  0  0  0  0  0  0
  125.2180  130.4600   64.3650 C   0  0  0  0  0  0  0  0  0  0  0  0
  124.5980  131.5660   63.7910 C   0  0  0  0  0  0  0  0  0  0  0  0
  125.2220  132.2720   62.7500 C   0  0  0  0  0  0  0  0  0  0  0  0
  124.4990  133.4810   62.1470 C   0  0  0  0  0  0  0  0  0  0  0  0
  125.2560  134.5790   62.1150 F   0  0  0  0  0  0  0  0  0  0  0  0
  124.1350  133.2110   60.8940 F   0  0  0  0  0  0  0  0  0  0  0  0
  123.4160  133.7650   62.8700 F   0  0  0  0  0  0  0  0  0  0  0  0
  126.5000  131.8060   62.3210 C   0  0  0  0  0  0  0  0  0  0  0  0
  127.4220  132.2610   61.3090 C   0  0  0  0  0  0  0  0  0  0  0  0
  127.1700  133.3500   60.5160 N   0  0  0  0  0  0  0  0  0  0  0  0
  128.5930  131.4900   61.2100 C   0  0  0  0  0  0  0  0  0  0  0  0
  129.7210  131.6570   60.2890 C   0  0  0  0  0  0  0  0  0  0  0  0
  130.8550  131.8740   60.7170 O   0  0  0  0  0  0  0  0  0  0  0  0
  129.4180  131.5420   58.9720 N   0  0  0  0  0  0  0  0  0  0  0  0
  130.2500  131.6870   57.8460 C   0  0  0  0  0  0  0  0  0  0  0  0
  129.6160  132.0740   56.6620 C   0  0  0  0  0  0  0  0  0  0  0  0
  130.3550  132.2540   55.4960 C   0  0  0  0  0  0  0  0  0  0  0  0
  131.7330  132.0560   55.5150 C   0  0  0  0  0  0  0  0  0  0  0  0
  132.3780  131.6840   56.6910 C   0  0  0  0  0  0  0  0  0  0  0  0
  131.6430  131.5020   57.8590 C   0  0  0  0  0  0  0  0  0  0  0  0
  128.5900  130.1740   62.3810 S   0  0  0  0  0  0  0  0  0  0  0  0
  127.0260  130.6590   62.9920 C   0  0  0  0  0  0  0  0  0  0  0  0
  126.4290  129.9940   63.9800 N   0  0  0  0  0  0  0  0  0  0  0  0
  124.8946  130.0824   66.4573 H   0  0  0  0  0  0  0  0  0  0  0  0
  123.4628  129.7915   65.4123 H   0  0  0  0  0  0  0  0  0  0  0  0
  124.8270  128.6229   65.4123 H   0  0  0  0  0  0  0  0  0  0  0  0
  123.6119  131.8894   64.1556 H   0  0  0  0  0  0  0  0  0  0  0  0
  127.8900  134.0180   60.2780 H   0  0  0  0  0  0  0  0  0  0  0  0
  126.2500  133.5200   60.1320 H   0  0  0  0  0  0  0  0  0  0  0  0
  128.4620  131.3000   58.7550 H   0  0  0  0  0  0  0  0  0  0  0  0
  128.5282  132.2371   56.6514 H   0  0  0  0  0  0  0  0  0  0  0  0
  129.8524  132.5513   54.5638 H   0  0  0  0  0  0  0  0  0  0  0  0
  132.3168  132.1947   54.5931 H   0  0  0  0  0  0  0  0  0  0  0  0
  133.4677  131.5340   56.6974 H   0  0  0  0  0  0  0  0  0  0  0  0
  132.1518  131.2138   58.7907 H   0  0  0  0  0  0  0  0  0  0  0  0
  1  2  1  0
  2  3  2  0
  3  4  1  0
  4  5  1  0
  5  6  1  0
  5  7  1  0
  5  8  1  0
  4  9  2  0
  9 10  1  0
 10 11  1  0
 10 12  2  0
 12 13  1  0
 13 14  2  0
 13 15  1  0
 15 16  1  0
 16 17  2  0
 17 18  1  0
 18 19  2  0
 19 20  1  0
 20 21  2  0
 12 22  1  0
 22 23  1  0
 23 24  2  0
 24  2  1  0
 23  9  1  0
 21 16  1  0
  1 25  1  0
  1 26  1  0
  1 27  1  0
  3 28  1  0
 11 29  1  0
 11 30  1  0
 15 31  1  0
 17 32  1  0
 18 33  1  0
 19 34  1  0
 20 35  1  0
 21 36  1  0
M  END
>  <Binding energies>  (1) 
[-6.28]

>  <Ligand effiencies>  (1) 
[-0.2325925925925926]

>  <Interactions>  (1) 
["V-A:TYR:539:CD1:4873, V-A:PRO:540:CB:4885, V-A:ILE:538:CB:4862, V-A:ILE:538:CG2:4863, V-A:LEU:363:CD1:3188, V-A:PRO:540:N:4884, V-A:TYR:539:CE1:4875, V-A:PRO:540:CA:4883, V-B:ILE:369:CG2:8208, V-B:LEU:475:CD1:9229, V-B:ILE:369:CD1:8210, V-B:ILE:369:CB:8207, V-A:ILE:538:CA:4860, H-A:ALA:541:N:4891, V-B:ILE:369:CG1:8209, V-A:TYR:539:C:4867, V-A:PRO:540:CD:4887, V-A:GLU:543:CD:4908, V-A:ILE:538:C:4858, V-B:GLY:454:CA:9020, V-B:ARG:545:CZ:9898, H-A:TYR:539:O:4868, V-B:SER:385:C:8376"]

$$$$
4be_Grossjean_2025
     RDKit          3D

 38 40  0  0  0  0  0  0  0  0999 V2000
  125.2570  122.8100   55.7260 C   0  0  0  0  0  0  0  0  0  0  0  0
  125.9270  123.2500   57.0140 C   0  0  0  0  0  0  0  0  0  0  0  0
  126.7890  122.4040   57.7160 C   0  0  0  0  0  0  0  0  0  0  0  0
  127.3680  122.8750   58.8940 C   0  0  0  0  0  0  0  0  0  0  0  0
  127.0750  124.1670   59.3380 C   0  0  0  0  0  0  0  0  0  0  0  0
  126.2080  124.9650   58.5830 C   0  0  0  0  0  0  0  0  0  0  0  0
  125.9490  126.2520   59.0880 N   0  0  0  0  0  0  0  0  0  0  0  0
  126.4920  127.4380   58.7170 C   0  0  0  0  0  0  0  0  0  0  0  0
  127.3360  127.5570   57.8260 O   0  0  0  0  0  0  0  0  0  0  0  0
  126.0250  128.6070   59.4680 C   0  0  0  0  0  0  0  0  0  0  0  0
  125.6870  130.1200   58.6300 S   0  0  0  0  0  0  0  0  0  0  0  0
  125.2620  130.9090   60.1310 C   0  0  0  0  0  0  0  0  0  0  0  0
  124.8790  132.1840   60.1610 N   0  0  0  0  0  0  0  0  0  0  0  0
  124.5740  132.6830   61.3810 C   0  0  0  0  0  0  0  0  0  0  0  0
  124.1430  134.1380   61.3950 C   0  0  0  0  0  0  0  0  0  0  0  0
  124.6410  131.9440   62.5590 C   0  0  0  0  0  0  0  0  0  0  0  0
  125.0430  130.5990   62.5330 C   0  0  0  0  0  0  0  0  0  0  0  0
  125.0970  129.8250   63.8550 C   0  0  0  0  0  0  0  0  0  0  0  0
  126.0110  128.8510   63.8510 F   0  0  0  0  0  0  0  0  0  0  0  0
  125.4040  130.6550   64.8520 F   0  0  0  0  0  0  0  0  0  0  0  0
  123.9130  129.2630   64.0980 F   0  0  0  0  0  0  0  0  0  0  0  0
  125.3760  130.0430   61.2630 C   0  0  0  0  0  0  0  0  0  0  0  0
  125.8250  128.7350   60.8510 C   0  0  0  0  0  0  0  0  0  0  0  0
  126.0300  127.7090   61.7380 N   0  0  0  0  0  0  0  0  0  0  0  0
  125.6340  124.5080   57.4320 N   0  0  0  0  0  0  0  0  0  0  0  0
  124.3591  122.2203   55.9627 H   0  0  0  0  0  0  0  0  0  0  0  0
  124.9700  123.6961   55.1407 H   0  0  0  0  0  0  0  0  0  0  0  0
  125.9561  122.1946   55.1407 H   0  0  0  0  0  0  0  0  0  0  0  0
  127.0059  121.3902   57.3482 H   0  0  0  0  0  0  0  0  0  0  0  0
  128.0511  122.2334   59.4700 H   0  0  0  0  0  0  0  0  0  0  0  0
  127.5195  124.5515   60.2678 H   0  0  0  0  0  0  0  0  0  0  0  0
  125.2970  126.2780   59.8580 H   0  0  0  0  0  0  0  0  0  0  0  0
  124.0416  134.4804   62.4354 H   0  0  0  0  0  0  0  0  0  0  0  0
  124.8987  134.7492   60.8799 H   0  0  0  0  0  0  0  0  0  0  0  0
  123.1763  134.2390   60.8799 H   0  0  0  0  0  0  0  0  0  0  0  0
  124.3772  132.4170   63.5164 H   0  0  0  0  0  0  0  0  0  0  0  0
  126.7980  127.7140   62.3930 H   0  0  0  0  0  0  0  0  0  0  0  0
  125.4190  126.9050   61.7600 H   0  0  0  0  0  0  0  0  0  0  0  0
  1  2  1  0
  2  3  2  0
  3  4  1  0
  4  5  2  0
  5  6  1  0
  6  7  1  0
  7  8  1  0
  8  9  2  0
  8 10  1  0
 10 11  1  0
 11 12  1  0
 12 13  2  0
 13 14  1  0
 14 15  1  0
 14 16  2  0
 16 17  1  0
 17 18  1  0
 18 19  1  0
 18 20  1  0
 18 21  1  0
 17 22  2  0
 22 23  1  0
 23 24  1  0
  6 25  2  0
 25  2  1  0
 23 10  2  0
 22 12  1  0
  1 26  1  0
  1 27  1  0
  1 28  1  0
  3 29  1  0
  4 30  1  0
  5 31  1  0
  7 32  1  0
 15 33  1  0
 15 34  1  0
 15 35  1  0
 16 36  1  0
 24 37  1  0
 24 38  1  0
M  END
>  <Binding energies>  (1) 
[-6.43]

>  <Ligand effiencies>  (1) 
[-0.22964285714285712]

>  <Interactions>  (1) 
["H-B:GLU:543:OE2:9882, V-A:TYR:539:CE1:4875, V-B:ILE:369:CG2:8208, V-B:ASP:366:CG:8184, V-B:LEU:475:CD1:9229, V-B:ILE:369:CD1:8210, H-B:TYR:531:OH:9767, V-B:ASP:366:CB:8183, V-B:PRO:540:CB:9857, V-B:PRO:540:CD:9859, V-B:PRO:540:N:9856, V-B:PRO:540:CA:9855, V-B:MET:535:CE:9807, H-B:ASP:366:OD1:8185, V-B:TYR:531:CE2:9765, V-B:TYR:539:C:9839, V-B:LEU:363:CD1:8160, V-B:GLY:454:CA:9020, V-B:ARG:545:CZ:9898, H-B:ASP:366:OD2:8186, V-B:GLY:453:CA:9015, V-B:MET:535:CG:9805"]

$$$$
4bf_Grossjean_2025
     RDKit          3D

 35 37  0  0  0  0  0  0  0  0999 V2000
  124.5260  129.6070   65.6070 C   0  0  0  0  0  0  0  0  0  0  0  0
  125.1920  130.3890   64.4880 C   0  0  0  0  0  0  0  0  0  0  0  0
  124.5520  131.4690   63.8890 C   0  0  0  0  0  0  0  0  0  0  0  0
  125.1770  132.1810   62.8530 C   0  0  0  0  0  0  0  0  0  0  0  0
  124.4320  133.3620   62.2220 C   0  0  0  0  0  0  0  0  0  0  0  0
  125.1820  134.4630   62.1300 F   0  0  0  0  0  0  0  0  0  0  0  0
  124.0410  133.0420   60.9880 F   0  0  0  0  0  0  0  0  0  0  0  0
  123.3640  133.6680   62.9580 F   0  0  0  0  0  0  0  0  0  0  0  0
  126.4770  131.7470   62.4550 C   0  0  0  0  0  0  0  0  0  0  0  0
  127.4050  132.2160   61.4560 C   0  0  0  0  0  0  0  0  0  0  0  0
  127.1360  133.2870   60.6420 N   0  0  0  0  0  0  0  0  0  0  0  0
  128.6020  131.4830   61.3940 C   0  0  0  0  0  0  0  0  0  0  0  0
  129.7370  131.6630   60.4840 C   0  0  0  0  0  0  0  0  0  0  0  0
  130.8690  131.8650   60.9260 O   0  0  0  0  0  0  0  0  0  0  0  0
  129.4430  131.5750   59.1640 N   0  0  0  0  0  0  0  0  0  0  0  0
  130.2810  131.7460   58.0460 C   0  0  0  0  0  0  0  0  0  0  0  0
  131.6490  131.4260   57.9960 C   0  0  0  0  0  0  0  0  0  0  0  0
  132.3720  131.6600   56.8240 C   0  0  0  0  0  0  0  0  0  0  0  0
  131.7080  132.2140   55.7300 C   0  0  0  0  0  0  0  0  0  0  0  0
  130.3910  132.5380   55.7540 N   0  0  0  0  0  0  0  0  0  0  0  0
  129.7020  132.3050   56.9000 C   0  0  0  0  0  0  0  0  0  0  0  0
  128.6120  130.1790   62.5790 S   0  0  0  0  0  0  0  0  0  0  0  0
  127.0220  130.6240   63.1520 C   0  0  0  0  0  0  0  0  0  0  0  0
  126.4240  129.9530   64.1350 N   0  0  0  0  0  0  0  0  0  0  0  0
  124.8606  129.9999   66.5784 H   0  0  0  0  0  0  0  0  0  0  0  0
  123.4338  129.7097   65.5265 H   0  0  0  0  0  0  0  0  0  0  0  0
  124.8013  128.5451   65.5265 H   0  0  0  0  0  0  0  0  0  0  0  0
  123.5494  131.7672   64.2294 H   0  0  0  0  0  0  0  0  0  0  0  0
  127.8690  133.8820   60.2830 H   0  0  0  0  0  0  0  0  0  0  0  0
  126.1900  133.5170   60.3720 H   0  0  0  0  0  0  0  0  0  0  0  0
  128.4870  131.3470   58.9360 H   0  0  0  0  0  0  0  0  0  0  0  0
  132.1477  130.9933   58.8758 H   0  0  0  0  0  0  0  0  0  0  0  0
  133.4422  131.4126   56.7653 H   0  0  0  0  0  0  0  0  0  0  0  0
  132.2774  132.3963   54.8067 H   0  0  0  0  0  0  0  0  0  0  0  0
  128.6345  132.5687   56.9301 H   0  0  0  0  0  0  0  0  0  0  0  0
  1  2  1  0
  2  3  2  0
  3  4  1  0
  4  5  1  0
  5  6  1  0
  5  7  1  0
  5  8  1  0
  4  9  2  0
  9 10  1  0
 10 11  1  0
 10 12  2  0
 12 13  1  0
 13 14  2  0
 13 15  1  0
 15 16  1  0
 16 17  2  0
 17 18  1  0
 18 19  2  0
 19 20  1  0
 20 21  2  0
 12 22  1  0
 22 23  1  0
 23 24  2  0
 24  2  1  0
 23  9  1  0
 21 16  1  0
  1 25  1  0
  1 26  1  0
  1 27  1  0
  3 28  1  0
 11 29  1  0
 11 30  1  0
 15 31  1  0
 17 32  1  0
 18 33  1  0
 19 34  1  0
 21 35  1  0
M  END
>  <Binding energies>  (1) 
[-6.56]

>  <Ligand effiencies>  (1) 
[-0.24296296296296294]

>  <Interactions>  (1) 
["V-A:TYR:539:CD1:4873, V-A:PRO:540:CB:4885, V-A:ILE:538:CB:4862, V-A:ILE:538:CG2:4863, V-A:LEU:363:CD1:3188, V-A:PRO:540:N:4884, V-A:TYR:539:CE1:4875, V-A:PRO:540:CA:4883, V-B:ILE:369:CG2:8208, V-B:LEU:475:CD1:9229, V-A:ALA:541:CB:4892, V-B:ILE:369:CD1:8210, V-B:ILE:369:CB:8207, H-A:ALA:541:N:4891, V-B:ILE:369:CG1:8209, V-A:TYR:539:C:4867, V-A:PRO:540:CD:4887, V-A:GLU:543:CD:4908, V-B:GLY:454:CA:9020, V-B:ARG:545:CZ:9898, H-A:TYR:539:N:4870, H-A:TYR:539:O:4868, V-A:TYR:539:CA:4869, V-B:SER:385:C:8376"]

$$$$
4bg_Grossjean_2025
     RDKit          3D

 39 41  0  0  0  0  0  0  0  0999 V2000
  133.4950  123.2810   58.1600 C   0  0  0  0  0  0  0  0  0  0  0  0
  132.9920  123.3870   59.5880 C   0  0  0  0  0  0  0  0  0  0  0  0
  131.8070  122.7700   59.9790 C   0  0  0  0  0  0  0  0  0  0  0  0
  131.3500  122.8800   61.3030 C   0  0  0  0  0  0  0  0  0  0  0  0
  130.0410  122.1840   61.6860 C   0  0  0  0  0  0  0  0  0  0  0  0
  129.1410  123.0180   62.2120 F   0  0  0  0  0  0  0  0  0  0  0  0
  129.4890  121.6340   60.6040 F   0  0  0  0  0  0  0  0  0  0  0  0
  130.2810  121.2350   62.5890 F   0  0  0  0  0  0  0  0  0  0  0  0
  132.1500  123.6420   62.2060 C   0  0  0  0  0  0  0  0  0  0  0  0
  132.0060  123.9750   63.6020 C   0  0  0  0  0  0  0  0  0  0  0  0
  130.9360  123.5650   64.3580 N   0  0  0  0  0  0  0  0  0  0  0  0
  133.0590  124.7460   64.1170 C   0  0  0  0  0  0  0  0  0  0  0  0
  133.2200  125.2820   65.4690 C   0  0  0  0  0  0  0  0  0  0  0  0
  134.1020  124.8700   66.2230 O   0  0  0  0  0  0  0  0  0  0  0  0
  132.3740  126.2740   65.8160 N   0  0  0  0  0  0  0  0  0  0  0  0
  132.3410  126.9470   67.1140 C   0  0  0  0  0  0  0  0  0  0  0  0
  130.9600  126.9660   67.7560 C   0  0  0  0  0  0  0  0  0  0  0  0
  130.5590  128.0630   68.5260 C   0  0  0  0  0  0  0  0  0  0  0  0
  129.2820  128.0950   69.0790 C   0  0  0  0  0  0  0  0  0  0  0  0
  128.4030  127.0380   68.8500 C   0  0  0  0  0  0  0  0  0  0  0  0
  128.7890  125.9510   68.0700 C   0  0  0  0  0  0  0  0  0  0  0  0
  130.0670  125.9170   67.5170 C   0  0  0  0  0  0  0  0  0  0  0  0
  134.2490  125.1190   62.8740 S   0  0  0  0  0  0  0  0  0  0  0  0
  133.3470  124.2170   61.6790 C   0  0  0  0  0  0  0  0  0  0  0  0
  133.7740  124.1110   60.4210 N   0  0  0  0  0  0  0  0  0  0  0  0
  134.5713  123.0542   58.1663 H   0  0  0  0  0  0  0  0  0  0  0  0
  132.9539  122.4772   57.6394 H   0  0  0  0  0  0  0  0  0  0  0  0
  133.3243  124.2348   57.6394 H   0  0  0  0  0  0  0  0  0  0  0  0
  131.2244  122.1923   59.2463 H   0  0  0  0  0  0  0  0  0  0  0  0
  129.9830  123.7150   64.0610 H   0  0  0  0  0  0  0  0  0  0  0  0
  131.0680  123.1030   65.2470 H   0  0  0  0  0  0  0  0  0  0  0  0
  131.6250  126.5060   65.1780 H   0  0  0  0  0  0  0  0  0  0  0  0
  133.0330  126.4272   67.7929 H   0  0  0  0  0  0  0  0  0  0  0  0
  132.6312  127.9940   66.9420 H   0  0  0  0  0  0  0  0  0  0  0  0
  131.2526  128.9000   68.6944 H   0  0  0  0  0  0  0  0  0  0  0  0
  128.9679  128.9511   69.6942 H   0  0  0  0  0  0  0  0  0  0  0  0
  127.3949  127.0627   69.2895 H   0  0  0  0  0  0  0  0  0  0  0  0
  128.0876  125.1227   67.8913 H   0  0  0  0  0  0  0  0  0  0  0  0
  130.3736  125.0650   66.8924 H   0  0  0  0  0  0  0  0  0  0  0  0
  1  2  1  0
  2  3  2  0
  3  4  1  0
  4  5  1  0
  5  6  1  0
  5  7  1  0
  5  8  1  0
  4  9  2  0
  9 10  1  0
 10 11  1  0
 10 12  2  0
 12 13  1  0
 13 14  2  0
 13 15  1  0
 15 16  1  0
 16 17  1  0
 17 18  2  0
 18 19  1  0
 19 20  2  0
 20 21  1  0
 21 22  2  0
 12 23  1  0
 23 24  1  0
 24 25  2  0
 25  2  1  0
 24  9  1  0
 22 17  1  0
  1 26  1  0
  1 27  1  0
  1 28  1  0
  3 29  1  0
 11 30  1  0
 11 31  1  0
 15 32  1  0
 16 33  1  0
 16 34  1  0
 18 35  1  0
 19 36  1  0
 20 37  1  0
 21 38  1  0
 22 39  1  0
M  END
>  <Binding energies>  (1) 
[-6.39]

>  <Ligand effiencies>  (1) 
[-0.2282142857142857]

>  <Interactions>  (1) 
["V-A:GLU:543:C:4902, V-A:HIS:456:CE1:4069, H-A:GLY:454:N:4049, V-B:GLU:543:CG:9879, V-A:ARG:545:CZ:4926, V-A:ASP:366:CG:3212, H-A:TYR:484:OH:4347, H-A:ARG:545:NE:4924, H-A:ILE:455:N:4054, V-B:ALA:541:CB:9864, V-A:GLY:453:C:4041, V-A:ARG:545:CD:4923, V-A:ARG:545:CG:4922, V-A:GLY:453:CA:4043, H-A:GLU:543:OE2:4910, V-A:GLU:543:CD:4908, H-A:GLU:543:OE1:4909, V-B:TYR:539:CE2:9848, V-B:PRO:540:CA:9855, V-A:GLU:543:CA:4904, V-A:ILE:369:CG2:3236, V-A:ILE:369:CB:3235, V-A:LEU:475:CD1:4257, V-B:GLU:543:CB:9878, V-A:GLU:543:CB:4906, V-B:HIS:456:CE1:9041, V-B:TYR:539:CZ:9849, V-A:ASP:366:CA:3209"]

$$$$
4bh_Grossjean_2025
     RDKit          3D

 51 53  0  0  0  0  0  0  0  0999 V2000
  125.6090  121.8450   55.7290 C   0  0  0  0  0  0  0  0  0  0  0  0
  126.4100  121.6650   56.8910 O   0  0  0  0  0  0  0  0  0  0  0  0
  127.1720  122.7190   57.3610 C   0  0  0  0  0  0  0  0  0  0  0  0
  128.5480  122.6350   57.6260 C   0  0  0  0  0  0  0  0  0  0  0  0
  129.2550  123.7400   58.1020 C   0  0  0  0  0  0  0  0  0  0  0  0
  130.7570  123.6420   58.3400 C   0  0  0  0  0  0  0  0  0  0  0  0
  131.1520  123.9620   59.7120 N   0  0  0  0  0  0  0  0  0  0  0  0
  131.0920  125.1850   60.2790 C   0  0  0  0  0  0  0  0  0  0  0  0
  130.7220  126.1840   59.6590 O   0  0  0  0  0  0  0  0  0  0  0  0
  131.5350  125.2720   61.6700 C   0  0  0  0  0  0  0  0  0  0  0  0
  133.2290  125.0080   62.0730 S   0  0  0  0  0  0  0  0  0  0  0  0
  132.9020  125.2260   63.7770 C   0  0  0  0  0  0  0  0  0  0  0  0
  133.8720  125.1440   64.6870 N   0  0  0  0  0  0  0  0  0  0  0  0
  133.4970  125.3340   65.9730 C   0  0  0  0  0  0  0  0  0  0  0  0
  134.6160  125.2340   66.9940 C   0  0  0  0  0  0  0  0  0  0  0  0
  132.1890  125.6030   66.3670 C   0  0  0  0  0  0  0  0  0  0  0  0
  131.1620  125.6890   65.4130 C   0  0  0  0  0  0  0  0  0  0  0  0
  129.7390  125.9900   65.8940 C   0  0  0  0  0  0  0  0  0  0  0  0
  129.0390  126.7260   65.0280 F   0  0  0  0  0  0  0  0  0  0  0  0
  129.0740  124.8500   66.0760 F   0  0  0  0  0  0  0  0  0  0  0  0
  129.7850  126.6620   67.0450 F   0  0  0  0  0  0  0  0  0  0  0  0
  131.5230  125.4910   64.0480 C   0  0  0  0  0  0  0  0  0  0  0  0
  130.7640  125.4970   62.8210 C   0  0  0  0  0  0  0  0  0  0  0  0
  129.4110  125.7130   62.7860 N   0  0  0  0  0  0  0  0  0  0  0  0
  128.5890  124.9530   58.2890 C   0  0  0  0  0  0  0  0  0  0  0  0
  127.2130  125.0650   58.0400 C   0  0  0  0  0  0  0  0  0  0  0  0
  126.4880  126.2290   58.2180 O   0  0  0  0  0  0  0  0  0  0  0  0
  126.5040  126.8740   59.4870 C   0  0  0  0  0  0  0  0  0  0  0  0
  126.5140  123.9380   57.5820 C   0  0  0  0  0  0  0  0  0  0  0  0
  125.1690  124.0380   57.3160 O   0  0  0  0  0  0  0  0  0  0  0  0
  124.3590  124.1670   58.4770 C   0  0  0  0  0  0  0  0  0  0  0  0
  124.5762  122.0771   56.0280 H   0  0  0  0  0  0  0  0  0  0  0  0
  126.0127  122.6748   55.1303 H   0  0  0  0  0  0  0  0  0  0  0  0
  125.6189  120.9222   55.1303 H   0  0  0  0  0  0  0  0  0  0  0  0
  129.0762  121.6852   57.4561 H   0  0  0  0  0  0  0  0  0  0  0  0
  131.0789  122.6144   58.1156 H   0  0  0  0  0  0  0  0  0  0  0  0
  131.2379  124.3822   57.6836 H   0  0  0  0  0  0  0  0  0  0  0  0
  131.3840  123.1750   60.3010 H   0  0  0  0  0  0  0  0  0  0  0  0
  134.1915  125.2719   68.0081 H   0  0  0  0  0  0  0  0  0  0  0  0
  135.1537  124.2842   66.8569 H   0  0  0  0  0  0  0  0  0  0  0  0
  135.3136  126.0734   66.8569 H   0  0  0  0  0  0  0  0  0  0  0  0
  131.9585  125.7491   67.4326 H   0  0  0  0  0  0  0  0  0  0  0  0
  128.8030  125.4170   63.5390 H   0  0  0  0  0  0  0  0  0  0  0  0
  128.9710  126.1700   62.0000 H   0  0  0  0  0  0  0  0  0  0  0  0
  129.1509  125.8326   58.6362 H   0  0  0  0  0  0  0  0  0  0  0  0
  126.4852  126.1159   60.2839 H   0  0  0  0  0  0  0  0  0  0  0  0
  127.4175  127.4799   59.5788 H   0  0  0  0  0  0  0  0  0  0  0  0
  125.6217  127.5245   59.5788 H   0  0  0  0  0  0  0  0  0  0  0  0
  124.9866  124.0671   59.3749 H   0  0  0  0  0  0  0  0  0  0  0  0
  123.8731  125.1539   58.4773 H   0  0  0  0  0  0  0  0  0  0  0  0
  123.5906  123.3799   58.4773 H   0  0  0  0  0  0  0  0  0  0  0  0
  1  2  1  0
  2  3  1  0
  3  4  2  0
  4  5  1  0
  5  6  1  0
  6  7  1  0
  7  8  1  0
  8  9  2  0
  8 10  1  0
 10 11  1  0
 11 12  1  0
 12 13  2  0
 13 14  1  0
 14 15  1  0
 14 16  2  0
 16 17  1  0
 17 18  1  0
 18 19  1  0
 18 20  1  0
 18 21  1  0
 17 22  2  0
 22 23  1  0
 23 24  1  0
  5 25  2  0
 25 26  1  0
 26 27  1  0
 27 28  1  0
 26 29  2  0
 29 30  1  0
 30 31  1  0
 29  3  1  0
 23 10  2  0
 22 12  1  0
  1 32  1  0
  1 33  1  0
  1 34  1  0
  4 35  1  0
  6 36  1  0
  6 37  1  0
  7 38  1  0
 15 39  1  0
 15 40  1  0
 15 41  1  0
 16 42  1  0
 24 43  1  0
 24 44  1  0
 25 45  1  0
 28 46  1  0
 28 47  1  0
 28 48  1  0
 31 49  1  0
 31 50  1  0
 31 51  1  0
M  END
>  <Binding energies>  (1) 
[-5.91]

>  <Ligand effiencies>  (1) 
[-0.1738235294117647]

>  <Interactions>  (1) 
["H-A:GLY:454:N:4049, H-A:ARG:545:NH2:4928, V-A:TYR:484:CZ:4346, V-B:GLU:543:CG:9879, V-A:ILE:455:C:4051, V-A:ARG:545:CZ:4926, V-A:ASP:366:CG:3212, H-A:TYR:484:OH:4347, V-B:GLU:543:CD:9880, H-B:GLU:543:OE2:9882, H-A:ARG:545:NE:4924, V-A:GLY:453:C:4041, V-A:ARG:545:CD:4923, V-A:ARG:545:CG:4922, V-B:ASP:366:CG:8184, H-B:TYR:531:OH:9767, V-B:ASP:366:CB:8183, V-A:GLU:543:CD:4908, V-B:PRO:540:CB:9857, V-B:TYR:539:CE2:9848, V-B:PRO:540:CD:9859, V-B:PRO:540:N:9856, V-B:PRO:540:CA:9855, V-B:MET:535:CE:9807, V-B:TYR:539:CD2:9846, V-B:TYR:531:CE2:9765, V-B:TYR:539:C:9839, V-B:LEU:363:CD1:8160, V-A:GLY:454:CA:4048, V-B:GLU:543:CB:9878, V-A:TYR:484:CE2:4345, V-B:TYR:539:CG:9844, V-B:TYR:539:CZ:9849, V-B:LEU:363:CA:8156, V-B:LEU:363:CB:8158, V-B:ILE:538:CG2:9835, H-A:ARG:545:NH1:4927, H-B:TYR:539:N:9842, V-B:ILE:538:CA:9832"]

$$$$
4bi_Grossjean_2025
     RDKit          3D

 32 34  0  0  0  0  0  0  0  0999 V2000
  124.8600  129.6440   65.5160 C   0  0  0  0  0  0  0  0  0  0  0  0
  125.4460  130.4330   64.3590 C   0  0  0  0  0  0  0  0  0  0  0  0
  124.7580  131.5090   63.8030 C   0  0  0  0  0  0  0  0  0  0  0  0
  125.3140  132.2330   62.7360 C   0  0  0  0  0  0  0  0  0  0  0  0
  124.5240  133.4140   62.1630 C   0  0  0  0  0  0  0  0  0  0  0  0
  125.2300  134.5470   62.1270 F   0  0  0  0  0  0  0  0  0  0  0  0
  124.1450  133.1420   60.9150 F   0  0  0  0  0  0  0  0  0  0  0  0
  123.4440  133.6410   62.9120 F   0  0  0  0  0  0  0  0  0  0  0  0
  126.5920  131.8140   62.2590 C   0  0  0  0  0  0  0  0  0  0  0  0
  127.4520  132.2960   61.2060 C   0  0  0  0  0  0  0  0  0  0  0  0
  127.1210  133.3590   60.4060 N   0  0  0  0  0  0  0  0  0  0  0  0
  128.6580  131.5860   61.0800 C   0  0  0  0  0  0  0  0  0  0  0  0
  129.7450  131.7950   60.1200 C   0  0  0  0  0  0  0  0  0  0  0  0
  130.9150  131.8740   60.5000 O   0  0  0  0  0  0  0  0  0  0  0  0
  129.3670  131.8720   58.8200 N   0  0  0  0  0  0  0  0  0  0  0  0
  130.1830  132.0530   57.7100 C   0  0  0  0  0  0  0  0  0  0  0  0
  131.4890  131.5720   57.6400 C   0  0  0  0  0  0  0  0  0  0  0  0
  131.9450  131.9540   56.3990 C   0  0  0  0  0  0  0  0  0  0  0  0
  130.9630  132.6300   55.7550 O   0  0  0  0  0  0  0  0  0  0  0  0
  129.8510  132.6860   56.5980 N   0  0  0  0  0  0  0  0  0  0  0  0
  128.7520  130.2750   62.2540 S   0  0  0  0  0  0  0  0  0  0  0  0
  127.1900  130.6950   62.9160 C   0  0  0  0  0  0  0  0  0  0  0  0
  126.6580  130.0130   63.9300 N   0  0  0  0  0  0  0  0  0  0  0  0
  125.1897  130.0880   66.4669 H   0  0  0  0  0  0  0  0  0  0  0  0
  123.7618  129.6717   65.4597 H   0  0  0  0  0  0  0  0  0  0  0  0
  125.2038  128.6006   65.4597 H   0  0  0  0  0  0  0  0  0  0  0  0
  123.7732  131.7933   64.2022 H   0  0  0  0  0  0  0  0  0  0  0  0
  126.2310  133.4120   59.9290 H   0  0  0  0  0  0  0  0  0  0  0  0
  127.7600  134.1270   60.2600 H   0  0  0  0  0  0  0  0  0  0  0  0
  128.3800  131.7810   58.6220 H   0  0  0  0  0  0  0  0  0  0  0  0
  132.0368  131.0089   58.4100 H   0  0  0  0  0  0  0  0  0  0  0  0
  132.9462  131.7442   55.9947 H   0  0  0  0  0  0  0  0  0  0  0  0
  1  2  1  0
  2  3  2  0
  3  4  1  0
  4  5  1  0
  5  6  1  0
  5  7  1  0
  5  8  1  0
  4  9  2  0
  9 10  1  0
 10 11  1  0
 10 12  2  0
 12 13  1  0
 13 14  2  0
 13 15  1  0
 15 16  1  0
 16 17  1  0
 17 18  2  0
 18 19  1  0
 19 20  1  0
 12 21  1  0
 21 22  1  0
 22 23  2  0
 23  2  1  0
 22  9  1  0
 20 16  2  0
  1 24  1  0
  1 25  1  0
  1 26  1  0
  3 27  1  0
 11 28  1  0
 11 29  1  0
 15 30  1  0
 17 31  1  0
 18 32  1  0
M  END
>  <Binding energies>  (1) 
[-6.52]

>  <Ligand effiencies>  (1) 
[-0.25076923076923074]

>  <Interactions>  (1) 
["V-A:TYR:539:CD1:4873, V-A:PRO:540:CB:4885, V-A:LEU:363:CD1:3188, V-A:PRO:540:N:4884, V-A:TYR:539:CE1:4875, V-A:PRO:540:CA:4883, V-B:ILE:369:CG2:8208, V-B:LEU:475:CD1:9229, V-B:ILE:369:CD1:8210, V-B:ILE:369:CB:8207, H-A:ALA:541:N:4891, V-B:ILE:369:CG1:8209, V-A:TYR:539:C:4867, V-A:PRO:540:CD:4887, V-A:GLU:543:CD:4908, V-B:GLY:454:CA:9020, V-B:ARG:545:CZ:9898, H-A:TYR:539:N:4870, H-A:TYR:539:O:4868, V-B:SER:385:C:8376"]

$$$$
4bj_Grossjean_2025
     RDKit          3D

 32 34  0  0  0  0  0  0  0  0999 V2000
  124.5160  129.6300   65.3920 C   0  0  0  0  0  0  0  0  0  0  0  0
  125.1920  130.4300   64.2930 C   0  0  0  0  0  0  0  0  0  0  0  0
  124.5740  131.5460   63.7340 C   0  0  0  0  0  0  0  0  0  0  0  0
  125.2080  132.2730   62.7140 C   0  0  0  0  0  0  0  0  0  0  0  0
  124.4870  133.4920   62.1280 C   0  0  0  0  0  0  0  0  0  0  0  0
  125.2440  134.5910   62.1180 F   0  0  0  0  0  0  0  0  0  0  0  0
  124.1280  133.2420   60.8690 F   0  0  0  0  0  0  0  0  0  0  0  0
  123.3990  133.7620   62.8510 F   0  0  0  0  0  0  0  0  0  0  0  0
  126.4920  131.8190   62.2910 C   0  0  0  0  0  0  0  0  0  0  0  0
  127.4220  132.2930   61.2940 C   0  0  0  0  0  0  0  0  0  0  0  0
  127.1690  133.3870   60.5060 N   0  0  0  0  0  0  0  0  0  0  0  0
  128.6050  131.5420   61.2100 C   0  0  0  0  0  0  0  0  0  0  0  0
  129.7460  131.7340   60.3120 C   0  0  0  0  0  0  0  0  0  0  0  0
  130.8870  131.8650   60.7610 O   0  0  0  0  0  0  0  0  0  0  0  0
  129.4520  131.7410   58.9890 N   0  0  0  0  0  0  0  0  0  0  0  0
  130.3440  131.8920   57.9370 C   0  0  0  0  0  0  0  0  0  0  0  0
  130.2000  132.6250   56.8540 N   0  0  0  0  0  0  0  0  0  0  0  0
  131.2520  132.5380   56.0650 C   0  0  0  0  0  0  0  0  0  0  0  0
  132.2850  131.7170   56.5060 C   0  0  0  0  0  0  0  0  0  0  0  0
  131.8420  131.0230   58.0380 S   0  0  0  0  0  0  0  0  0  0  0  0
  128.5940  130.2030   62.3550 S   0  0  0  0  0  0  0  0  0  0  0  0
  127.0160  130.6640   62.9490 C   0  0  0  0  0  0  0  0  0  0  0  0
  126.4100  129.9760   63.9160 N   0  0  0  0  0  0  0  0  0  0  0  0
  124.8373  130.0102   66.3729 H   0  0  0  0  0  0  0  0  0  0  0  0
  123.4244  129.7297   65.2997 H   0  0  0  0  0  0  0  0  0  0  0  0
  124.7965  128.5704   65.2997 H   0  0  0  0  0  0  0  0  0  0  0  0
  123.5830  131.8597   64.0939 H   0  0  0  0  0  0  0  0  0  0  0  0
  126.2750  133.5280   60.0570 H   0  0  0  0  0  0  0  0  0  0  0  0
  127.8760  134.0910   60.3430 H   0  0  0  0  0  0  0  0  0  0  0  0
  128.4840  131.6160   58.7290 H   0  0  0  0  0  0  0  0  0  0  0  0
  131.3101  133.0837   55.1116 H   0  0  0  0  0  0  0  0  0  0  0  0
  133.2295  131.5360   55.9719 H   0  0  0  0  0  0  0  0  0  0  0  0
  1  2  1  0
  2  3  2  0
  3  4  1  0
  4  5  1  0
  5  6  1  0
  5  7  1  0
  5  8  1  0
  4  9  2  0
  9 10  1  0
 10 11  1  0
 10 12  2  0
 12 13  1  0
 13 14  2  0
 13 15  1  0
 15 16  1  0
 16 17  2  0
 17 18  1  0
 18 19  2  0
 19 20  1  0
 12 21  1  0
 21 22  1  0
 22 23  2  0
 23  2  1  0
 22  9  1  0
 20 16  1  0
  1 24  1  0
  1 25  1  0
  1 26  1  0
  3 27  1  0
 11 28  1  0
 11 29  1  0
 15 30  1  0
 18 31  1  0
 19 32  1  0
M  END
>  <Binding energies>  (1) 
[-6.12]

>  <Ligand effiencies>  (1) 
[-0.2353846153846154]

>  <Interactions>  (1) 
["V-A:TYR:539:CD1:4873, V-A:PRO:540:CB:4885, V-A:ILE:538:CB:4862, V-A:ILE:538:CG2:4863, V-A:LEU:363:CD1:3188, V-A:PRO:540:N:4884, V-A:TYR:539:CE1:4875, V-A:PRO:540:CA:4883, V-B:ILE:369:CG2:8208, V-B:LEU:475:CD1:9229, V-B:ILE:369:CD1:8210, V-B:ILE:369:CB:8207, V-A:ILE:538:CA:4860, H-A:ALA:541:N:4891, V-B:ILE:369:CG1:8209, V-A:TYR:539:C:4867, V-A:PRO:540:CD:4887, V-A:GLU:543:CD:4908, V-B:GLY:454:CA:9020, V-B:ARG:545:CZ:9898, H-A:TYR:539:N:4870, H-A:TYR:539:O:4868, V-B:SER:385:C:8376"]

$$$$
4bk_Grossjean_2025
     RDKit          3D

 50 51  0  0  0  0  0  0  0  0999 V2000
  130.6280  124.3300   58.0370 C   0  0  0  0  0  0  0  0  0  0  0  0
  129.4530  123.6020   58.3610 O   0  0  0  0  0  0  0  0  0  0  0  0
  128.6830  123.2360   57.2230 C   0  0  0  0  0  0  0  0  0  0  0  0
  127.7000  122.1240   57.6070 C   0  0  0  0  0  0  0  0  0  0  0  0
  127.0010  121.6900   56.4480 O   0  0  0  0  0  0  0  0  0  0  0  0
  125.7440  122.3270   56.2640 C   0  0  0  0  0  0  0  0  0  0  0  0
  125.2920  122.9560   57.5880 C   0  0  0  0  0  0  0  0  0  0  0  0
  125.4030  124.3700   57.4980 O   0  0  0  0  0  0  0  0  0  0  0  0
  125.5090  125.0200   58.7590 C   0  0  0  0  0  0  0  0  0  0  0  0
  125.7870  123.9720   59.8510 C   0  0  0  0  0  0  0  0  0  0  0  0
  127.2110  123.7690   60.1220 N   0  0  0  0  0  0  0  0  0  0  0  0
  127.7140  123.0710   61.1610 C   0  0  0  0  0  0  0  0  0  0  0  0
  126.9960  122.5080   61.9890 O   0  0  0  0  0  0  0  0  0  0  0  0
  129.1740  123.0090   61.2480 C   0  0  0  0  0  0  0  0  0  0  0  0
  130.0970  124.4520   61.6610 S   0  0  0  0  0  0  0  0  0  0  0  0
  131.6010  123.5660   61.5820 C   0  0  0  0  0  0  0  0  0  0  0  0
  132.7710  124.1590   61.8170 N   0  0  0  0  0  0  0  0  0  0  0  0
  133.8660  123.3700   61.7280 C   0  0  0  0  0  0  0  0  0  0  0  0
  135.1870  124.0660   62.0010 C   0  0  0  0  0  0  0  0  0  0  0  0
  133.8200  122.0140   61.4120 C   0  0  0  0  0  0  0  0  0  0  0  0
  132.5910  121.3830   61.1630 C   0  0  0  0  0  0  0  0  0  0  0  0
  132.5910  119.8910   60.8160 C   0  0  0  0  0  0  0  0  0  0  0  0
  133.7830  119.3150   60.9880 F   0  0  0  0  0  0  0  0  0  0  0  0
  131.7200  119.2470   61.5930 F   0  0  0  0  0  0  0  0  0  0  0  0
  132.2490  119.7240   59.5390 F   0  0  0  0  0  0  0  0  0  0  0  0
  131.4160  122.1870   61.2500 C   0  0  0  0  0  0  0  0  0  0  0  0
  130.0140  121.9000   61.0690 C   0  0  0  0  0  0  0  0  0  0  0  0
  129.5490  120.6510   60.7480 N   0  0  0  0  0  0  0  0  0  0  0  0
  131.1327  124.6427   58.9630 H   0  0  0  0  0  0  0  0  0  0  0  0
  131.3039  123.6922   57.4485 H   0  0  0  0  0  0  0  0  0  0  0  0
  130.3578  125.2192   57.4485 H   0  0  0  0  0  0  0  0  0  0  0  0
  128.1234  124.1115   56.8620 H   0  0  0  0  0  0  0  0  0  0  0  0
  129.3523  122.8752   56.4281 H   0  0  0  0  0  0  0  0  0  0  0  0
  128.2540  121.2779   58.0396 H   0  0  0  0  0  0  0  0  0  0  0  0
  126.9819  122.5080   58.3466 H   0  0  0  0  0  0  0  0  0  0  0  0
  125.8388  123.1114   55.4987 H   0  0  0  0  0  0  0  0  0  0  0  0
  125.0006  121.5848   55.9375 H   0  0  0  0  0  0  0  0  0  0  0  0
  124.2456  122.6814   57.7870 H   0  0  0  0  0  0  0  0  0  0  0  0
  125.9274  122.5878   58.4069 H   0  0  0  0  0  0  0  0  0  0  0  0
  126.3340  125.7470   58.7292 H   0  0  0  0  0  0  0  0  0  0  0  0
  124.5682  125.5442   58.9830 H   0  0  0  0  0  0  0  0  0  0  0  0
  125.3000  124.3014   60.7807 H   0  0  0  0  0  0  0  0  0  0  0  0
  125.3892  123.0136   59.4859 H   0  0  0  0  0  0  0  0  0  0  0  0
  127.8530  124.2070   59.4790 H   0  0  0  0  0  0  0  0  0  0  0  0
  135.3411  124.1472   63.0871 H   0  0  0  0  0  0  0  0  0  0  0  0
  136.0073  123.4830   61.5569 H   0  0  0  0  0  0  0  0  0  0  0  0
  135.1700  125.0722   61.5569 H   0  0  0  0  0  0  0  0  0  0  0  0
  134.7530  121.4339   61.3572 H   0  0  0  0  0  0  0  0  0  0  0  0
  130.1180  119.9790   60.2500 H   0  0  0  0  0  0  0  0  0  0  0  0
  128.6160  120.3550   61.0040 H   0  0  0  0  0  0  0  0  0  0  0  0
  1  2  1  0
  2  3  1  0
  3  4  1  0
  4  5  1  0
  5  6  1  0
  6  7  1  0
  7  8  1  0
  8  9  1  0
  9 10  1  0
 10 11  1  0
 11 12  1  0
 12 13  2  0
 12 14  1  0
 14 15  1  0
 15 16  1  0
 16 17  2  0
 17 18  1  0
 18 19  1  0
 18 20  2  0
 20 21  1  0
 21 22  1  0
 22 23  1  0
 22 24  1  0
 22 25  1  0
 21 26  2  0
 26 27  1  0
 27 28  1  0
 27 14  2  0
 26 16  1  0
  1 29  1  0
  1 30  1  0
  1 31  1  0
  3 32  1  0
  3 33  1  0
  4 34  1  0
  4 35  1  0
  6 36  1  0
  6 37  1  0
  7 38  1  0
  7 39  1  0
  9 40  1  0
  9 41  1  0
 10 42  1  0
 10 43  1  0
 11 44  1  0
 19 45  1  0
 19 46  1  0
 19 47  1  0
 20 48  1  0
 28 49  1  0
 28 50  1  0
M  END
>  <Binding energies>  (1) 
[-5.73]

>  <Ligand effiencies>  (1) 
[-0.18483870967741936]

>  <Interactions>  (1) 
["H-B:ALA:541:N:9863, V-A:ASP:366:CG:3212, V-B:ALA:541:CB:9864, V-A:GLY:453:C:4041, V-A:GLY:453:CA:4043, V-B:ASP:366:CG:8184, H-B:TYR:531:OH:9767, V-B:ASP:366:CB:8183, V-B:PRO:540:CB:9857, V-B:TYR:539:CE2:9848, V-B:PRO:540:CD:9859, V-B:PRO:540:N:9856, V-B:PRO:540:CA:9855, V-B:MET:535:CE:9807, V-B:TYR:539:CA:9841, V-B:TYR:539:CD2:9846, V-B:TYR:539:C:9839, V-B:LEU:363:CD1:8160, V-A:ILE:369:CG2:3236, V-A:LEU:475:CD1:4257, V-B:PRO:540:C:9853, V-A:SER:385:C:3404, V-A:ILE:369:CD1:3238, V-A:SER:385:CA:3406, V-B:TYR:539:CG:9844, V-B:TYR:539:CZ:9849, V-B:TYR:539:CE1:9847, H-B:TYR:539:O:9840, H-B:TYR:539:N:9842"]

$$$$
4ca_Grossjean_2025
     RDKit          3D

 52 55  0  0  0  0  0  0  0  0999 V2000
  129.0780  125.0560   72.9700 C   0  0  0  0  0  0  0  0  0  0  0  0
  128.8980  126.5540   73.2350 C   0  0  0  0  0  0  0  0  0  0  0  0
  129.8010  127.2900   72.4200 O   0  0  0  0  0  0  0  0  0  0  0  0
  129.3490  128.1240   71.4470 C   0  0  0  0  0  0  0  0  0  0  0  0
  128.9640  129.2770   71.6650 O   0  0  0  0  0  0  0  0  0  0  0  0
  129.3660  127.5040   70.0810 C   0  0  0  0  0  0  0  0  0  0  0  0
  128.6870  126.2970   69.8680 C   0  0  0  0  0  0  0  0  0  0  0  0
  128.6810  125.7000   68.6100 C   0  0  0  0  0  0  0  0  0  0  0  0
  129.3590  126.2900   67.5440 C   0  0  0  0  0  0  0  0  0  0  0  0
  129.2800  125.6060   66.3150 N   0  0  0  0  0  0  0  0  0  0  0  0
  130.2650  125.2220   65.4650 C   0  0  0  0  0  0  0  0  0  0  0  0
  131.4660  125.3860   65.6800 O   0  0  0  0  0  0  0  0  0  0  0  0
  129.8100  124.5600   64.2400 C   0  0  0  0  0  0  0  0  0  0  0  0
  128.5670  125.3070   63.2390 S   0  0  0  0  0  0  0  0  0  0  0  0
  128.6580  124.0050   62.0770 C   0  0  0  0  0  0  0  0  0  0  0  0
  127.8940  123.9930   60.9870 N   0  0  0  0  0  0  0  0  0  0  0  0
  128.0440  122.9470   60.1340 C   0  0  0  0  0  0  0  0  0  0  0  0
  127.1760  122.9680   58.9090 C   0  0  0  0  0  0  0  0  0  0  0  0
  126.0700  123.8280   58.8270 C   0  0  0  0  0  0  0  0  0  0  0  0
  125.2570  123.8480   57.6960 C   0  0  0  0  0  0  0  0  0  0  0  0
  125.5400  123.0030   56.6280 C   0  0  0  0  0  0  0  0  0  0  0  0
  126.6280  122.1390   56.6840 C   0  0  0  0  0  0  0  0  0  0  0  0
  127.4380  122.1220   57.8170 C   0  0  0  0  0  0  0  0  0  0  0  0
  128.9440  121.9070   60.3910 C   0  0  0  0  0  0  0  0  0  0  0  0
  129.7500  121.9080   61.5400 C   0  0  0  0  0  0  0  0  0  0  0  0
  130.7170  120.7380   61.7580 C   0  0  0  0  0  0  0  0  0  0  0  0
  130.5040  120.0890   62.9040 F   0  0  0  0  0  0  0  0  0  0  0  0
  130.5870  119.8540   60.7690 F   0  0  0  0  0  0  0  0  0  0  0  0
  131.9720  121.1880   61.7830 F   0  0  0  0  0  0  0  0  0  0  0  0
  129.6140  123.0090   62.4320 C   0  0  0  0  0  0  0  0  0  0  0  0
  130.2600  123.3550   63.6750 C   0  0  0  0  0  0  0  0  0  0  0  0
  131.2260  122.5710   64.2510 N   0  0  0  0  0  0  0  0  0  0  0  0
  130.0380  127.5010   67.7460 C   0  0  0  0  0  0  0  0  0  0  0  0
  130.0410  128.0980   69.0040 C   0  0  0  0  0  0  0  0  0  0  0  0
  129.1425  124.5193   73.9280 H   0  0  0  0  0  0  0  0  0  0  0  0
  128.2187  124.6794   72.3958 H   0  0  0  0  0  0  0  0  0  0  0  0
  130.0021  124.8937   72.3958 H   0  0  0  0  0  0  0  0  0  0  0  0
  127.8652  126.8474   72.9958 H   0  0  0  0  0  0  0  0  0  0  0  0
  129.1028  126.7667   74.2946 H   0  0  0  0  0  0  0  0  0  0  0  0
  128.1540  125.8168   70.7019 H   0  0  0  0  0  0  0  0  0  0  0  0
  128.1375  124.7561   68.4561 H   0  0  0  0  0  0  0  0  0  0  0  0
  128.3420  125.3580   66.0410 H   0  0  0  0  0  0  0  0  0  0  0  0
  125.8414  124.4972   59.6696 H   0  0  0  0  0  0  0  0  0  0  0  0
  124.3947  124.5293   57.6477 H   0  0  0  0  0  0  0  0  0  0  0  0
  124.8994  123.0184   55.7339 H   0  0  0  0  0  0  0  0  0  0  0  0
  126.8480  121.4720   55.8374 H   0  0  0  0  0  0  0  0  0  0  0  0
  128.2966  121.4356   57.8581 H   0  0  0  0  0  0  0  0  0  0  0  0
  129.0214  121.0724   59.6787 H   0  0  0  0  0  0  0  0  0  0  0  0
  131.5510  121.7170   63.8170 H   0  0  0  0  0  0  0  0  0  0  0  0
  131.6520  122.8210   65.1330 H   0  0  0  0  0  0  0  0  0  0  0  0
  130.5686  127.9794   66.9096 H   0  0  0  0  0  0  0  0  0  0  0  0
  130.5785  129.0458   69.1550 H   0  0  0  0  0  0  0  0  0  0  0  0
  1  2  1  0
  2  3  1  0
  3  4  1  0
  4  5  2  0
  4  6  1  0
  6  7  2  0
  7  8  1  0
  8  9  2  0
  9 10  1  0
 10 11  1  0
 11 12  2  0
 11 13  1  0
 13 14  1  0
 14 15  1  0
 15 16  2  0
 16 17  1  0
 17 18  1  0
 18 19  2  0
 19 20  1  0
 20 21  2  0
 21 22  1  0
 22 23  2  0
 17 24  2  0
 24 25  1  0
 25 26  1  0
 26 27  1  0
 26 28  1  0
 26 29  1  0
 25 30  2  0
 30 31  1  0
 31 32  1  0
  9 33  1  0
 33 34  2  0
 34  6  1  0
 31 13  2  0
 30 15  1  0
 23 18  1  0
  1 35  1  0
  1 36  1  0
  1 37  1  0
  2 38  1  0
  2 39  1  0
  7 40  1  0
  8 41  1  0
 10 42  1  0
 19 43  1  0
 20 44  1  0
 21 45  1  0
 22 46  1  0
 23 47  1  0
 24 48  1  0
 32 49  1  0
 32 50  1  0
 33 51  1  0
 34 52  1  0
M  END
>  <Binding energies>  (1) 
[-7.82]

>  <Ligand effiencies>  (1) 
[-0.21135135135135136]

>  <Interactions>  (1) 
["V-B:HIS:456:CD2:9039, V-A:GLU:543:C:4902, V-A:HIS:456:CD2:4067, V-A:HIS:456:CE1:4069, V-A:TYR:484:CZ:4346, V-B:GLU:543:CG:9879, H-A:TYR:484:OH:4347, V-B:GLU:543:CD:9880, H-B:GLU:543:OE2:9882, V-B:ALA:541:CB:9864, V-A:GLU:543:CD:4908, V-B:PRO:540:CB:9857, V-B:PRO:540:CD:9859, V-B:PRO:540:N:9856, V-B:PRO:540:CA:9855, V-B:MET:535:CE:9807, V-B:TYR:539:CD2:9846, V-B:TYR:531:CE2:9765, V-B:TYR:539:C:9839, V-B:LEU:363:CD1:8160, V-A:LEU:475:CD1:4257, V-B:ALA:541:CA:9862, V-B:GLU:543:CB:9878, V-B:GLU:543:C:9874, V-A:GLU:543:CB:4906, V-B:HIS:456:CE1:9041, V-B:GLU:543:CA:9876, V-A:LEU:475:CD2:4258, V-A:LEU:475:CG:4256"]

$$$$
4cb_Grossjean_2025
     RDKit          3D

 49 52  0  0  0  0  0  0  0  0999 V2000
  124.9290  121.8690   54.9500 C   0  0  0  0  0  0  0  0  0  0  0  0
  125.5230  121.3750   56.1430 O   0  0  0  0  0  0  0  0  0  0  0  0
  126.6930  121.8860   56.6040 C   0  0  0  0  0  0  0  0  0  0  0  0
  127.7850  121.3290   56.4560 O   0  0  0  0  0  0  0  0  0  0  0  0
  126.5290  123.2010   57.3120 C   0  0  0  0  0  0  0  0  0  0  0  0
  127.6690  123.9340   57.6680 C   0  0  0  0  0  0  0  0  0  0  0  0
  127.5490  125.1580   58.3180 C   0  0  0  0  0  0  0  0  0  0  0  0
  126.2900  125.6730   58.6320 C   0  0  0  0  0  0  0  0  0  0  0  0
  126.2860  126.9250   59.2760 N   0  0  0  0  0  0  0  0  0  0  0  0
  126.3800  127.2290   60.5930 C   0  0  0  0  0  0  0  0  0  0  0  0
  126.5410  126.3960   61.4860 O   0  0  0  0  0  0  0  0  0  0  0  0
  126.2950  128.6570   60.9130 C   0  0  0  0  0  0  0  0  0  0  0  0
  126.1690  129.8490   59.6210 S   0  0  0  0  0  0  0  0  0  0  0  0
  126.0760  131.1580   60.7760 C   0  0  0  0  0  0  0  0  0  0  0  0
  125.9570  132.4240   60.3830 N   0  0  0  0  0  0  0  0  0  0  0  0
  125.8820  133.3710   61.3540 C   0  0  0  0  0  0  0  0  0  0  0  0
  125.7420  134.7890   60.8800 C   0  0  0  0  0  0  0  0  0  0  0  0
  124.5380  135.2430   60.3190 C   0  0  0  0  0  0  0  0  0  0  0  0
  124.4030  136.5560   59.8740 C   0  0  0  0  0  0  0  0  0  0  0  0
  125.4740  137.4360   59.9850 C   0  0  0  0  0  0  0  0  0  0  0  0
  126.6800  137.0120   60.5350 C   0  0  0  0  0  0  0  0  0  0  0  0
  126.8110  135.6980   60.9770 C   0  0  0  0  0  0  0  0  0  0  0  0
  125.9490  133.0440   62.7130 C   0  0  0  0  0  0  0  0  0  0  0  0
  126.0780  131.7130   63.1370 C   0  0  0  0  0  0  0  0  0  0  0  0
  126.1430  131.4240   64.6420 C   0  0  0  0  0  0  0  0  0  0  0  0
  127.1270  130.5830   64.9700 F   0  0  0  0  0  0  0  0  0  0  0  0
  126.3500  132.5590   65.3090 F   0  0  0  0  0  0  0  0  0  0  0  0
  124.9980  130.8770   65.0470 F   0  0  0  0  0  0  0  0  0  0  0  0
  126.1410  130.7090   62.1270 C   0  0  0  0  0  0  0  0  0  0  0  0
  126.2610  129.2720   62.1750 C   0  0  0  0  0  0  0  0  0  0  0  0
  126.3360  128.5740   63.3530 N   0  0  0  0  0  0  0  0  0  0  0  0
  125.1430  124.9470   58.2760 C   0  0  0  0  0  0  0  0  0  0  0  0
  125.2650  123.7230   57.6250 C   0  0  0  0  0  0  0  0  0  0  0  0
  124.1065  122.5531   55.2060 H   0  0  0  0  0  0  0  0  0  0  0  0
  125.6847  122.4087   54.3604 H   0  0  0  0  0  0  0  0  0  0  0  0
  124.5361  121.0276   54.3604 H   0  0  0  0  0  0  0  0  0  0  0  0
  128.6676  123.5380   57.4314 H   0  0  0  0  0  0  0  0  0  0  0  0
  128.4529  125.7244   58.5866 H   0  0  0  0  0  0  0  0  0  0  0  0
  126.2090  127.7110   58.6470 H   0  0  0  0  0  0  0  0  0  0  0  0
  123.6877  134.5509   60.2294 H   0  0  0  0  0  0  0  0  0  0  0  0
  123.4526  136.8956   59.4364 H   0  0  0  0  0  0  0  0  0  0  0  0
  125.3673  138.4737   59.6359 H   0  0  0  0  0  0  0  0  0  0  0  0
  127.5251  137.7110   60.6201 H   0  0  0  0  0  0  0  0  0  0  0  0
  127.7663  135.3654   61.4092 H   0  0  0  0  0  0  0  0  0  0  0  0
  125.8995  133.8465   63.4637 H   0  0  0  0  0  0  0  0  0  0  0  0
  126.4560  127.5710   63.3730 H   0  0  0  0  0  0  0  0  0  0  0  0
  126.2780  129.0420   64.2470 H   0  0  0  0  0  0  0  0  0  0  0  0
  124.1455  125.3462   58.5120 H   0  0  0  0  0  0  0  0  0  0  0  0
  124.3607  123.1588   57.3530 H   0  0  0  0  0  0  0  0  0  0  0  0
  1  2  1  0
  2  3  1  0
  3  4  2  0
  3  5  1  0
  5  6  2  0
  6  7  1  0
  7  8  2  0
  8  9  1  0
  9 10  1  0
 10 11  2  0
 10 12  1  0
 12 13  1  0
 13 14  1  0
 14 15  2  0
 15 16  1  0
 16 17  1  0
 17 18  2  0
 18 19  1  0
 19 20  2  0
 20 21  1  0
 21 22  2  0
 16 23  2  0
 23 24  1  0
 24 25  1  0
 25 26  1  0
 25 27  1  0
 25 28  1  0
 24 29  2  0
 29 30  1  0
 30 31  1  0
  8 32  1  0
 32 33  2  0
 33  5  1  0
 30 12  2  0
 29 14  1  0
 22 17  1  0
  1 34  1  0
  1 35  1  0
  1 36  1  0
  6 37  1  0
  7 38  1  0
  9 39  1  0
 18 40  1  0
 19 41  1  0
 20 42  1  0
 21 43  1  0
 22 44  1  0
 23 45  1  0
 31 46  1  0
 31 47  1  0
 32 48  1  0
 33 49  1  0
M  END
>  <Binding energies>  (1) 
[-7.75]

>  <Ligand effiencies>  (1) 
[-0.2152777777777778]

>  <Interactions>  (1) 
["H-B:GLU:543:OE2:9882, V-A:TYR:539:CD1:4873, V-B:ILE:369:CG2:8208, V-B:ASP:366:CG:8184, V-B:LEU:475:CD1:9229, H-B:TYR:531:OH:9767, V-B:ASP:366:CB:8183, V-B:PRO:540:CD:9859, V-B:PRO:540:N:9856, V-B:PRO:540:CA:9855, V-B:MET:535:CE:9807, V-B:TYR:539:CA:9841, H-B:ASP:366:OD1:8185, V-B:TYR:531:CE2:9765, V-B:TYR:539:C:9839, H-B:ARG:545:NH2:9900, V-B:TYR:531:CZ:9766, V-B:LEU:363:CD1:8160, V-B:TYR:484:CZ:9318, V-B:GLY:454:CA:9020, V-B:TYR:484:CE2:9317, V-B:ARG:545:CZ:9898, V-B:ILE:538:CG2:9835, H-B:TYR:539:N:9842, V-B:ILE:538:CA:9832, V-B:PRO:482:CB:9297, V-A:TYR:539:CB:4871, V-B:PRO:482:CG:9298, V-B:LEU:373:CD1:8251, V-B:SER:385:CB:8380, V-B:SER:385:CA:8378, V-B:LEU:475:CD2:9230, V-B:MET:535:CG:9805, V-B:ILE:538:CB:9834, V-B:ILE:538:CG1:9836, V-B:LEU:475:CG:9228"]

$$$$
4cc_Grossjean_2025
     RDKit          3D

 47 50  0  0  0  0  0  0  0  0999 V2000
  125.3290  121.3770   55.3720 C   0  0  0  0  0  0  0  0  0  0  0  0
  126.1930  121.3960   56.5030 O   0  0  0  0  0  0  0  0  0  0  0  0
  126.3710  122.5770   57.1960 C   0  0  0  0  0  0  0  0  0  0  0  0
  125.2620  123.4180   57.2870 C   0  0  0  0  0  0  0  0  0  0  0  0
  125.3450  124.6300   57.9680 C   0  0  0  0  0  0  0  0  0  0  0  0
  126.5470  125.0230   58.5600 C   0  0  0  0  0  0  0  0  0  0  0  0
  126.5310  126.2550   59.2390 N   0  0  0  0  0  0  0  0  0  0  0  0
  126.5190  126.4990   60.5720 C   0  0  0  0  0  0  0  0  0  0  0  0
  126.5610  125.6190   61.4330 O   0  0  0  0  0  0  0  0  0  0  0  0
  126.4530  127.9130   60.9530 C   0  0  0  0  0  0  0  0  0  0  0  0
  126.2820  129.1590   59.7170 S   0  0  0  0  0  0  0  0  0  0  0  0
  126.2760  130.4200   60.9260 C   0  0  0  0  0  0  0  0  0  0  0  0
  126.1630  131.7030   60.5910 N   0  0  0  0  0  0  0  0  0  0  0  0
  126.1580  132.6120   61.6000 C   0  0  0  0  0  0  0  0  0  0  0  0
  126.0320  134.0510   61.1920 C   0  0  0  0  0  0  0  0  0  0  0  0
  124.8530  134.5270   60.5960 C   0  0  0  0  0  0  0  0  0  0  0  0
  124.7290  135.8600   60.2120 C   0  0  0  0  0  0  0  0  0  0  0  0
  125.7870  136.7380   60.4190 C   0  0  0  0  0  0  0  0  0  0  0  0
  126.9680  136.2920   61.0040 C   0  0  0  0  0  0  0  0  0  0  0  0
  127.0880  134.9580   61.3850 C   0  0  0  0  0  0  0  0  0  0  0  0
  126.2840  132.2290   62.9390 C   0  0  0  0  0  0  0  0  0  0  0  0
  126.4060  130.8780   63.3040 C   0  0  0  0  0  0  0  0  0  0  0  0
  126.5340  130.5300   64.7910 C   0  0  0  0  0  0  0  0  0  0  0  0
  127.5810  129.7450   65.0580 F   0  0  0  0  0  0  0  0  0  0  0  0
  126.6810  131.6450   65.5050 F   0  0  0  0  0  0  0  0  0  0  0  0
  125.4400  129.8870   65.2000 F   0  0  0  0  0  0  0  0  0  0  0  0
  126.4030  129.9160   62.2540 C   0  0  0  0  0  0  0  0  0  0  0  0
  126.5060  128.4780   62.2370 C   0  0  0  0  0  0  0  0  0  0  0  0
  126.6420  127.7310   63.3800 N   0  0  0  0  0  0  0  0  0  0  0  0
  127.6640  124.1770   58.4830 C   0  0  0  0  0  0  0  0  0  0  0  0
  127.5750  122.9660   57.8020 C   0  0  0  0  0  0  0  0  0  0  0  0
  124.2826  121.3540   55.7103 H   0  0  0  0  0  0  0  0  0  0  0  0
  125.4986  122.2791   54.7658 H   0  0  0  0  0  0  0  0  0  0  0  0
  125.5381  120.4832   54.7658 H   0  0  0  0  0  0  0  0  0  0  0  0
  124.3130  123.1212   56.8165 H   0  0  0  0  0  0  0  0  0  0  0  0
  124.4605  125.2800   58.0398 H   0  0  0  0  0  0  0  0  0  0  0  0
  126.5620  127.0650   58.6380 H   0  0  0  0  0  0  0  0  0  0  0  0
  124.0136  133.8358   60.4297 H   0  0  0  0  0  0  0  0  0  0  0  0
  123.7981  136.2166   59.7470 H   0  0  0  0  0  0  0  0  0  0  0  0
  125.6898  137.7917   60.1184 H   0  0  0  0  0  0  0  0  0  0  0  0
  127.8029  136.9899   61.1648 H   0  0  0  0  0  0  0  0  0  0  0  0
  128.0244  134.6085   61.8444 H   0  0  0  0  0  0  0  0  0  0  0  0
  126.2877  133.0013   63.7223 H   0  0  0  0  0  0  0  0  0  0  0  0
  126.6410  126.7210   63.3620 H   0  0  0  0  0  0  0  0  0  0  0  0
  126.7460  128.1700   64.2840 H   0  0  0  0  0  0  0  0  0  0  0  0
  128.6102  124.4708   58.9609 H   0  0  0  0  0  0  0  0  0  0  0  0
  128.4552  122.3093   57.7386 H   0  0  0  0  0  0  0  0  0  0  0  0
  1  2  1  0
  2  3  1  0
  3  4  2  0
  4  5  1  0
  5  6  2  0
  6  7  1  0
  7  8  1  0
  8  9  2  0
  8 10  1  0
 10 11  1  0
 11 12  1  0
 12 13  2  0
 13 14  1  0
 14 15  1  0
 15 16  2  0
 16 17  1  0
 17 18  2  0
 18 19  1  0
 19 20  2  0
 14 21  2  0
 21 22  1  0
 22 23  1  0
 23 24  1  0
 23 25  1  0
 23 26  1  0
 22 27  2  0
 27 28  1  0
 28 29  1  0
  6 30  1  0
 30 31  2  0
 31  3  1  0
 28 10  2  0
 27 12  1  0
 20 15  1  0
  1 32  1  0
  1 33  1  0
  1 34  1  0
  4 35  1  0
  5 36  1  0
  7 37  1  0
 16 38  1  0
 17 39  1  0
 18 40  1  0
 19 41  1  0
 20 42  1  0
 21 43  1  0
 29 44  1  0
 29 45  1  0
 30 46  1  0
 31 47  1  0
M  END
>  <Binding energies>  (1) 
[-7.44]

>  <Ligand effiencies>  (1) 
[-0.21882352941176472]

>  <Interactions>  (1) 
["V-B:GLU:543:CD:9880, H-B:GLU:543:OE1:9881, H-B:GLU:543:OE2:9882, V-A:TYR:539:CD1:4873, V-B:ILE:369:CG2:8208, V-B:ASP:366:CG:8184, V-B:LEU:475:CD1:9229, V-A:ALA:541:CB:4892, H-B:TYR:531:OH:9767, V-A:GLU:543:CD:4908, V-A:GLU:543:CG:4907, V-B:PRO:540:CB:9857, V-B:PRO:540:CD:9859, V-B:PRO:540:N:9856, V-B:PRO:540:CA:9855, V-B:MET:535:CE:9807, V-B:TYR:531:CE2:9765, V-B:TYR:539:C:9839, H-B:ARG:545:NH2:9900, V-B:TYR:531:CZ:9766, V-B:LEU:363:CD1:8160, V-B:TYR:484:CZ:9318, V-B:TYR:484:CE2:9317, V-B:ARG:545:CZ:9898, V-B:ILE:538:CG2:9835, H-B:TYR:539:N:9842, V-B:ILE:538:CA:9832, V-B:PRO:482:CB:9297, V-A:TYR:539:CB:4871, V-B:PRO:482:CG:9298, V-B:LEU:373:CD1:8251, V-B:SER:385:CB:8380, V-B:ILE:538:CB:9834, V-B:ILE:538:CG1:9836, V-B:ILE:538:C:9830"]

$$$$
4cd_Grossjean_2025
     RDKit          3D

 43 46  0  0  0  0  0  0  0  0999 V2000
  128.8050  129.1320   63.2210 N   0  0  0  0  0  0  0  0  0  0  0  0
  127.8750  130.0940   63.5230 C   0  0  0  0  0  0  0  0  0  0  0  0
  127.0740  130.0540   64.6760 C   0  0  0  0  0  0  0  0  0  0  0  0
  127.0410  129.0370   65.7310 C   0  0  0  0  0  0  0  0  0  0  0  0
  126.0460  128.3300   65.8900 O   0  0  0  0  0  0  0  0  0  0  0  0
  128.1650  128.9420   66.4820 N   0  0  0  0  0  0  0  0  0  0  0  0
  128.4370  128.1180   67.5900 C   0  0  0  0  0  0  0  0  0  0  0  0
  128.9870  128.7540   68.7060 C   0  0  0  0  0  0  0  0  0  0  0  0
  129.2780  128.0260   69.8560 C   0  0  0  0  0  0  0  0  0  0  0  0
  129.0130  126.6600   69.8940 C   0  0  0  0  0  0  0  0  0  0  0  0
  128.4530  126.0160   68.7940 C   0  0  0  0  0  0  0  0  0  0  0  0
  128.1600  126.7410   67.6410 C   0  0  0  0  0  0  0  0  0  0  0  0
  126.0010  131.4510   64.7530 S   0  0  0  0  0  0  0  0  0  0  0  0
  126.6240  132.0690   63.2420 C   0  0  0  0  0  0  0  0  0  0  0  0
  126.1680  133.2030   62.7140 N   0  0  0  0  0  0  0  0  0  0  0  0
  126.7040  133.5960   61.5290 C   0  0  0  0  0  0  0  0  0  0  0  0
  126.1670  134.8760   60.9580 C   0  0  0  0  0  0  0  0  0  0  0  0
  124.8600  134.9430   60.4490 C   0  0  0  0  0  0  0  0  0  0  0  0
  124.3550  136.1270   59.9170 C   0  0  0  0  0  0  0  0  0  0  0  0
  125.1540  137.2650   59.8880 C   0  0  0  0  0  0  0  0  0  0  0  0
  126.4500  137.2270   60.3880 C   0  0  0  0  0  0  0  0  0  0  0  0
  126.9500  136.0430   60.9200 C   0  0  0  0  0  0  0  0  0  0  0  0
  127.7080  132.8620   60.8920 C   0  0  0  0  0  0  0  0  0  0  0  0
  128.2000  131.6670   61.4430 C   0  0  0  0  0  0  0  0  0  0  0  0
  129.2990  130.9100   60.6880 C   0  0  0  0  0  0  0  0  0  0  0  0
  128.9540  129.6580   60.3770 F   0  0  0  0  0  0  0  0  0  0  0  0
  129.5820  131.5410   59.5490 F   0  0  0  0  0  0  0  0  0  0  0  0
  130.3980  130.8440   61.4400 F   0  0  0  0  0  0  0  0  0  0  0  0
  127.6360  131.2380   62.6780 C   0  0  0  0  0  0  0  0  0  0  0  0
  129.0880  128.9430   62.2700 H   0  0  0  0  0  0  0  0  0  0  0  0
  129.2440  128.5790   63.9440 H   0  0  0  0  0  0  0  0  0  0  0  0
  128.9340  129.5360   66.2080 H   0  0  0  0  0  0  0  0  0  0  0  0
  129.1908  129.8345   68.6755 H   0  0  0  0  0  0  0  0  0  0  0  0
  129.7157  128.5281   70.7314 H   0  0  0  0  0  0  0  0  0  0  0  0
  129.2481  126.0842   70.8013 H   0  0  0  0  0  0  0  0  0  0  0  0
  128.2424  124.9371   68.8352 H   0  0  0  0  0  0  0  0  0  0  0  0
  127.7126  126.2365   66.7719 H   0  0  0  0  0  0  0  0  0  0  0  0
  124.2244  134.0455   60.4708 H   0  0  0  0  0  0  0  0  0  0  0  0
  123.3291  136.1619   59.5217 H   0  0  0  0  0  0  0  0  0  0  0  0
  124.7577  138.2007   59.4668 H   0  0  0  0  0  0  0  0  0  0  0  0
  127.0781  138.1297   60.3632 H   0  0  0  0  0  0  0  0  0  0  0  0
  127.9753  136.0194   61.3177 H   0  0  0  0  0  0  0  0  0  0  0  0
  128.1213  133.2271   59.9402 H   0  0  0  0  0  0  0  0  0  0  0  0
  1  2  1  0
  2  3  2  0
  3  4  1  0
  4  5  2  0
  4  6  1  0
  6  7  1  0
  7  8  2  0
  8  9  1  0
  9 10  2  0
 10 11  1  0
 11 12  2  0
  3 13  1  0
 13 14  1  0
 14 15  2  0
 15 16  1  0
 16 17  1  0
 17 18  2  0
 18 19  1  0
 19 20  2  0
 20 21  1  0
 21 22  2  0
 16 23  2  0
 23 24  1  0
 24 25  1  0
 25 26  1  0
 25 27  1  0
 25 28  1  0
 24 29  2  0
 29  2  1  0
 12  7  1  0
 29 14  1  0
 22 17  1  0
  1 30  1  0
  1 31  1  0
  6 32  1  0
  8 33  1  0
  9 34  1  0
 10 35  1  0
 11 36  1  0
 12 37  1  0
 18 38  1  0
 19 39  1  0
 20 40  1  0
 21 41  1  0
 22 42  1  0
 23 43  1  0
M  END
>  <Binding energies>  (1) 
[-7.7]

>  <Ligand effiencies>  (1) 
[-0.240625]

>  <Interactions>  (1) 
["V-A:GLU:543:C:4902, V-A:HIS:456:CE1:4069, V-B:GLU:543:CD:9880, V-A:TYR:539:CD1:4873, H-A:GLU:543:OE2:4910, V-A:PRO:540:CA:4883, V-B:ILE:369:CG2:8208, V-B:LEU:475:CD1:9229, V-A:ALA:541:CB:4892, V-A:TYR:539:C:4867, V-A:GLU:543:CD:4908, H-A:GLU:543:OE1:4909, V-A:GLU:543:CG:4907, H-B:ARG:545:NH2:9900, V-B:GLU:543:CB:9878, V-B:GLU:543:C:9874, V-A:GLU:543:CB:4906, V-B:HIS:456:CE1:9041, V-B:TYR:484:CZ:9318, V-B:PRO:482:CB:9297, V-A:TYR:539:CB:4871, V-B:PRO:482:CG:9298, V-B:LEU:373:CD1:8251, V-B:SER:385:CB:8380, V-B:SER:385:CA:8378, H-B:ARG:545:NE:9896, V-B:GLU:543:CA:9876"]

$$$$
4ce_Grossjean_2025
     RDKit          3D

 45 48  0  0  0  0  0  0  0  0999 V2000
  129.3780  128.3370   71.1540 C   0  0  0  0  0  0  0  0  0  0  0  0
  129.0510  127.7300   69.8030 C   0  0  0  0  0  0  0  0  0  0  0  0
  129.0170  126.3460   69.6120 C   0  0  0  0  0  0  0  0  0  0  0  0
  128.7010  125.8580   68.3430 C   0  0  0  0  0  0  0  0  0  0  0  0
  128.4280  126.7540   67.3080 C   0  0  0  0  0  0  0  0  0  0  0  0
  128.4850  128.1290   67.5670 C   0  0  0  0  0  0  0  0  0  0  0  0
  128.1770  128.9800   66.4900 N   0  0  0  0  0  0  0  0  0  0  0  0
  127.0010  129.1210   65.8290 C   0  0  0  0  0  0  0  0  0  0  0  0
  125.9780  128.4950   66.1120 O   0  0  0  0  0  0  0  0  0  0  0  0
  127.0090  130.0870   64.7290 C   0  0  0  0  0  0  0  0  0  0  0  0
  125.9550  131.4990   64.7800 S   0  0  0  0  0  0  0  0  0  0  0  0
  126.5790  132.0760   63.2540 C   0  0  0  0  0  0  0  0  0  0  0  0
  126.1410  133.2080   62.7090 N   0  0  0  0  0  0  0  0  0  0  0  0
  126.6970  133.5840   61.5270 C   0  0  0  0  0  0  0  0  0  0  0  0
  126.1860  134.8670   60.9420 C   0  0  0  0  0  0  0  0  0  0  0  0
  124.8760  134.9550   60.4430 C   0  0  0  0  0  0  0  0  0  0  0  0
  124.3970  136.1410   59.8920 C   0  0  0  0  0  0  0  0  0  0  0  0
  125.2230  137.2580   59.8340 C   0  0  0  0  0  0  0  0  0  0  0  0
  126.5240  137.1980   60.3200 C   0  0  0  0  0  0  0  0  0  0  0  0
  127.0010  136.0090   60.8680 C   0  0  0  0  0  0  0  0  0  0  0  0
  127.6730  132.8110   60.8890 C   0  0  0  0  0  0  0  0  0  0  0  0
  128.1380  131.6120   61.4530 C   0  0  0  0  0  0  0  0  0  0  0  0
  129.2100  130.8160   60.7020 C   0  0  0  0  0  0  0  0  0  0  0  0
  128.8350  129.5670   60.4210 F   0  0  0  0  0  0  0  0  0  0  0  0
  129.4920  131.4180   59.5460 F   0  0  0  0  0  0  0  0  0  0  0  0
  130.3180  130.7430   61.4400 F   0  0  0  0  0  0  0  0  0  0  0  0
  127.5740  131.2170   62.7000 C   0  0  0  0  0  0  0  0  0  0  0  0
  127.7980  130.0850   63.5660 C   0  0  0  0  0  0  0  0  0  0  0  0
  128.7030  129.0970   63.2760 N   0  0  0  0  0  0  0  0  0  0  0  0
  128.7890  128.6140   68.8060 N   0  0  0  0  0  0  0  0  0  0  0  0
  129.0189  127.6705   71.9520 H   0  0  0  0  0  0  0  0  0  0  0  0
  130.4668  128.4644   71.2449 H   0  0  0  0  0  0  0  0  0  0  0  0
  128.8854  129.3163   71.2449 H   0  0  0  0  0  0  0  0  0  0  0  0
  129.2341  125.6576   70.4420 H   0  0  0  0  0  0  0  0  0  0  0  0
  128.6673  124.7739   68.1597 H   0  0  0  0  0  0  0  0  0  0  0  0
  128.1719  126.3854   66.3037 H   0  0  0  0  0  0  0  0  0  0  0  0
  128.9290  129.5900   66.2060 H   0  0  0  0  0  0  0  0  0  0  0  0
  124.2187  134.0742   60.4881 H   0  0  0  0  0  0  0  0  0  0  0  0
  123.3690  136.1939   59.5041 H   0  0  0  0  0  0  0  0  0  0  0  0
  124.8444  138.1955   59.4006 H   0  0  0  0  0  0  0  0  0  0  0  0
  127.1735  138.0845   60.2722 H   0  0  0  0  0  0  0  0  0  0  0  0
  128.0320  135.9638   61.2487 H   0  0  0  0  0  0  0  0  0  0  0  0
  128.0843  133.1491   59.9265 H   0  0  0  0  0  0  0  0  0  0  0  0
  129.2350  128.6300   63.9970 H   0  0  0  0  0  0  0  0  0  0  0  0
  128.8720  128.8020   62.3240 H   0  0  0  0  0  0  0  0  0  0  0  0
  1  2  1  0
  2  3  2  0
  3  4  1  0
  4  5  2  0
  5  6  1  0
  6  7  1  0
  7  8  1  0
  8  9  2  0
  8 10  1  0
 10 11  1  0
 11 12  1  0
 12 13  2  0
 13 14  1  0
 14 15  1  0
 15 16  2  0
 16 17  1  0
 17 18  2  0
 18 19  1  0
 19 20  2  0
 14 21  2  0
 21 22  1  0
 22 23  1  0
 23 24  1  0
 23 25  1  0
 23 26  1  0
 22 27  2  0
 27 28  1  0
 28 29  1  0
  6 30  2  0
 30  2  1  0
 28 10  2  0
 27 12  1  0
 20 15  1  0
  1 31  1  0
  1 32  1  0
  1 33  1  0
  3 34  1  0
  4 35  1  0
  5 36  1  0
  7 37  1  0
 16 38  1  0
 17 39  1  0
 18 40  1  0
 19 41  1  0
 20 42  1  0
 21 43  1  0
 29 44  1  0
 29 45  1  0
M  END
>  <Binding energies>  (1) 
[-7.75]

>  <Ligand effiencies>  (1) 
[-0.23484848484848486]

>  <Interactions>  (1) 
["V-B:HIS:456:CD2:9039, V-A:HIS:456:CE1:4069, V-B:GLU:543:CG:9879, V-B:GLU:543:CD:9880, V-A:TYR:539:CD1:4873, H-A:GLU:543:OE2:4910, V-A:PRO:540:CA:4883, V-B:ILE:369:CG2:8208, V-B:LEU:475:CD1:9229, V-A:ALA:541:CB:4892, V-A:TYR:539:C:4867, V-A:GLU:543:CD:4908, H-A:GLU:543:OE1:4909, V-A:GLU:543:CG:4907, V-B:GLU:543:CB:9878, V-B:GLU:543:C:9874, V-A:GLU:543:CB:4906, V-B:HIS:456:CE1:9041, V-B:TYR:484:CZ:9318, V-B:GLY:454:CA:9020, V-B:PRO:482:CB:9297, V-A:TYR:539:CB:4871, V-B:PRO:482:CG:9298, V-B:LEU:373:CD1:8251, V-B:SER:385:CB:8380, H-B:TYR:484:OH:9319, H-B:ARG:545:NE:9896, V-B:GLU:543:CA:9876"]

$$$$
4cf_Grossjean_2025
     RDKit          3D

 42 45  0  0  0  0  0  0  0  0999 V2000
  128.7660  129.1090   63.2050 N   0  0  0  0  0  0  0  0  0  0  0  0
  127.8670  130.0970   63.5130 C   0  0  0  0  0  0  0  0  0  0  0  0
  127.0890  130.0930   64.6830 C   0  0  0  0  0  0  0  0  0  0  0  0
  127.0410  129.0830   65.7440 C   0  0  0  0  0  0  0  0  0  0  0  0
  126.0140  128.4330   65.9440 O   0  0  0  0  0  0  0  0  0  0  0  0
  128.1870  128.9270   66.4500 N   0  0  0  0  0  0  0  0  0  0  0  0
  128.4570  128.0920   67.5510 C   0  0  0  0  0  0  0  0  0  0  0  0
  128.2220  126.7050   67.6000 C   0  0  0  0  0  0  0  0  0  0  0  0
  128.5230  125.9950   68.7640 C   0  0  0  0  0  0  0  0  0  0  0  0
  129.0510  126.6890   69.8530 C   0  0  0  0  0  0  0  0  0  0  0  0
  129.2800  128.0260   69.8340 N   0  0  0  0  0  0  0  0  0  0  0  0
  128.9810  128.7030   68.6950 C   0  0  0  0  0  0  0  0  0  0  0  0
  126.0490  131.5130   64.7600 S   0  0  0  0  0  0  0  0  0  0  0  0
  126.6540  132.0950   63.2270 C   0  0  0  0  0  0  0  0  0  0  0  0
  126.2080  133.2290   62.6890 N   0  0  0  0  0  0  0  0  0  0  0  0
  126.7270  133.5900   61.4860 C   0  0  0  0  0  0  0  0  0  0  0  0
  126.2000  134.8680   60.9000 C   0  0  0  0  0  0  0  0  0  0  0  0
  124.8830  134.9480   60.4200 C   0  0  0  0  0  0  0  0  0  0  0  0
  124.3860  136.1300   59.8760 C   0  0  0  0  0  0  0  0  0  0  0  0
  125.2030  137.2530   59.8070 C   0  0  0  0  0  0  0  0  0  0  0  0
  126.5110  137.2040   60.2780 C   0  0  0  0  0  0  0  0  0  0  0  0
  127.0030  136.0200   60.8210 C   0  0  0  0  0  0  0  0  0  0  0  0
  127.7060  132.8280   60.8430 C   0  0  0  0  0  0  0  0  0  0  0  0
  128.1860  131.6340   61.4040 C   0  0  0  0  0  0  0  0  0  0  0  0
  129.2570  130.8440   60.6420 C   0  0  0  0  0  0  0  0  0  0  0  0
  128.8950  129.5850   60.3840 F   0  0  0  0  0  0  0  0  0  0  0  0
  129.5070  131.4340   59.4740 F   0  0  0  0  0  0  0  0  0  0  0  0
  130.3790  130.7950   61.3610 F   0  0  0  0  0  0  0  0  0  0  0  0
  127.6360  131.2340   62.6560 C   0  0  0  0  0  0  0  0  0  0  0  0
  128.9060  128.7890   62.2570 H   0  0  0  0  0  0  0  0  0  0  0  0
  129.3250  128.6640   63.9210 H   0  0  0  0  0  0  0  0  0  0  0  0
  128.9730  129.4850   66.1490 H   0  0  0  0  0  0  0  0  0  0  0  0
  127.8037  126.1835   66.7264 H   0  0  0  0  0  0  0  0  0  0  0  0
  128.3474  124.9106   68.8212 H   0  0  0  0  0  0  0  0  0  0  0  0
  129.2923  126.1273   70.7675 H   0  0  0  0  0  0  0  0  0  0  0  0
  129.1602  129.7880   68.6710 H   0  0  0  0  0  0  0  0  0  0  0  0
  124.2328  134.0624   60.4745 H   0  0  0  0  0  0  0  0  0  0  0  0
  123.3522  136.1748   59.5028 H   0  0  0  0  0  0  0  0  0  0  0  0
  124.8122  138.1869   59.3768 H   0  0  0  0  0  0  0  0  0  0  0  0
  127.1529  138.0955   60.2218 H   0  0  0  0  0  0  0  0  0  0  0  0
  128.0371  135.9850   61.1945 H   0  0  0  0  0  0  0  0  0  0  0  0
  128.1085  133.1705   59.8783 H   0  0  0  0  0  0  0  0  0  0  0  0
  1  2  1  0
  2  3  2  0
  3  4  1  0
  4  5  2  0
  4  6  1  0
  6  7  1  0
  7  8  2  0
  8  9  1  0
  9 10  2  0
 10 11  1  0
 11 12  2  0
  3 13  1  0
 13 14  1  0
 14 15  2  0
 15 16  1  0
 16 17  1  0
 17 18  2  0
 18 19  1  0
 19 20  2  0
 20 21  1  0
 21 22  2  0
 16 23  2  0
 23 24  1  0
 24 25  1  0
 25 26  1  0
 25 27  1  0
 25 28  1  0
 24 29  2  0
 29  2  1  0
 12  7  1  0
 29 14  1  0
 22 17  1  0
  1 30  1  0
  1 31  1  0
  6 32  1  0
  8 33  1  0
  9 34  1  0
 10 35  1  0
 12 36  1  0
 18 37  1  0
 19 38  1  0
 20 39  1  0
 21 40  1  0
 22 41  1  0
 23 42  1  0
M  END
>  <Binding energies>  (1) 
[-7.39]

>  <Ligand effiencies>  (1) 
[-0.2309375]

>  <Interactions>  (1) 
["V-A:GLU:543:C:4902, V-A:HIS:456:CE1:4069, V-B:GLU:543:CD:9880, V-A:TYR:539:CD1:4873, H-A:GLU:543:OE2:4910, V-A:PRO:540:CA:4883, V-B:ILE:369:CG2:8208, V-B:LEU:475:CD1:9229, V-A:ALA:541:CB:4892, V-A:TYR:539:C:4867, V-A:GLU:543:CD:4908, H-A:GLU:543:OE1:4909, V-A:GLU:543:CG:4907, H-B:ARG:545:NH2:9900, V-B:GLU:543:CB:9878, V-B:GLU:543:C:9874, V-A:GLU:543:CB:4906, V-B:HIS:456:CE1:9041, V-B:TYR:484:CZ:9318, V-B:PRO:482:CB:9297, V-A:TYR:539:CB:4871, V-B:PRO:482:CG:9298, V-B:LEU:373:CD1:8251, V-B:SER:385:CB:8380, H-B:ARG:545:NE:9896, V-B:GLU:543:CA:9876"]

$$$$
4cg_Grossjean_2025
     RDKit          3D

 46 49  0  0  0  0  0  0  0  0999 V2000
  128.0140  127.8830   64.3310 N   0  0  0  0  0  0  0  0  0  0  0  0
  128.3450  128.7140   63.2920 C   0  0  0  0  0  0  0  0  0  0  0  0
  129.3650  128.4270   62.3740 C   0  0  0  0  0  0  0  0  0  0  0  0
  130.2110  127.2360   62.2930 C   0  0  0  0  0  0  0  0  0  0  0  0
  130.4460  126.6870   61.2150 O   0  0  0  0  0  0  0  0  0  0  0  0
  130.6770  126.7610   63.4670 N   0  0  0  0  0  0  0  0  0  0  0  0
  131.5540  125.6020   63.6240 C   0  0  0  0  0  0  0  0  0  0  0  0
  132.2600  125.5540   64.9740 C   0  0  0  0  0  0  0  0  0  0  0  0
  133.5960  125.1470   65.0450 C   0  0  0  0  0  0  0  0  0  0  0  0
  134.2540  125.1320   66.2720 C   0  0  0  0  0  0  0  0  0  0  0  0
  133.5780  125.5330   67.4220 C   0  0  0  0  0  0  0  0  0  0  0  0
  132.2520  125.9550   67.3550 C   0  0  0  0  0  0  0  0  0  0  0  0
  131.5940  125.9720   66.1290 C   0  0  0  0  0  0  0  0  0  0  0  0
  129.5110  129.6930   61.1580 S   0  0  0  0  0  0  0  0  0  0  0  0
  128.2210  130.6110   61.9010 C   0  0  0  0  0  0  0  0  0  0  0  0
  127.8250  131.7780   61.4030 N   0  0  0  0  0  0  0  0  0  0  0  0
  126.8120  132.4180   62.0440 C   0  0  0  0  0  0  0  0  0  0  0  0
  126.3890  133.7350   61.4580 C   0  0  0  0  0  0  0  0  0  0  0  0
  125.1630  133.8630   60.7840 C   0  0  0  0  0  0  0  0  0  0  0  0
  124.7670  135.0800   60.2380 C   0  0  0  0  0  0  0  0  0  0  0  0
  125.5950  136.1930   60.3570 C   0  0  0  0  0  0  0  0  0  0  0  0
  126.8150  136.0930   61.0170 C   0  0  0  0  0  0  0  0  0  0  0  0
  127.2070  134.8740   61.5610 C   0  0  0  0  0  0  0  0  0  0  0  0
  126.2160  131.8880   63.1950 C   0  0  0  0  0  0  0  0  0  0  0  0
  126.6270  130.6570   63.7290 C   0  0  0  0  0  0  0  0  0  0  0  0
  125.9320  130.1360   64.9920 C   0  0  0  0  0  0  0  0  0  0  0  0
  125.5880  128.8490   64.9070 F   0  0  0  0  0  0  0  0  0  0  0  0
  126.7460  130.2630   66.0400 F   0  0  0  0  0  0  0  0  0  0  0  0
  124.8180  130.8320   65.2140 F   0  0  0  0  0  0  0  0  0  0  0  0
  127.6790  129.9720   63.0550 C   0  0  0  0  0  0  0  0  0  0  0  0
  127.1500  127.3600   64.3440 H   0  0  0  0  0  0  0  0  0  0  0  0
  128.6330  127.7580   65.1210 H   0  0  0  0  0  0  0  0  0  0  0  0
  130.5050  127.3030   64.3010 H   0  0  0  0  0  0  0  0  0  0  0  0
  130.9490  124.6899   63.5146 H   0  0  0  0  0  0  0  0  0  0  0  0
  132.3344  125.6791   62.8526 H   0  0  0  0  0  0  0  0  0  0  0  0
  134.1267  124.8389   64.1321 H   0  0  0  0  0  0  0  0  0  0  0  0
  135.3025  124.8051   66.3329 H   0  0  0  0  0  0  0  0  0  0  0  0
  134.0960  125.5163   68.3922 H   0  0  0  0  0  0  0  0  0  0  0  0
  131.7272  126.2735   68.2677 H   0  0  0  0  0  0  0  0  0  0  0  0
  130.5503  126.3143   66.0692 H   0  0  0  0  0  0  0  0  0  0  0  0
  124.5053  132.9867   60.6863 H   0  0  0  0  0  0  0  0  0  0  0  0
  123.8032  135.1625   59.7142 H   0  0  0  0  0  0  0  0  0  0  0  0
  125.2827  137.1561   59.9269 H   0  0  0  0  0  0  0  0  0  0  0  0
  127.4673  136.9740   61.1085 H   0  0  0  0  0  0  0  0  0  0  0  0
  128.1737  134.8000   62.0807 H   0  0  0  0  0  0  0  0  0  0  0  0
  125.4093  132.4479   63.6907 H   0  0  0  0  0  0  0  0  0  0  0  0
  1  2  1  0
  2  3  2  0
  3  4  1  0
  4  5  2  0
  4  6  1  0
  6  7  1  0
  7  8  1  0
  8  9  2  0
  9 10  1  0
 10 11  2  0
 11 12  1  0
 12 13  2  0
  3 14  1  0
 14 15  1  0
 15 16  2  0
 16 17  1  0
 17 18  1  0
 18 19  2  0
 19 20  1  0
 20 21  2  0
 21 22  1  0
 22 23  2  0
 17 24  2  0
 24 25  1  0
 25 26  1  0
 26 27  1  0
 26 28  1  0
 26 29  1  0
 25 30  2  0
 30  2  1  0
 13  8  1  0
 30 15  1  0
 23 18  1  0
  1 31  1  0
  1 32  1  0
  6 33  1  0
  7 34  1  0
  7 35  1  0
  9 36  1  0
 10 37  1  0
 11 38  1  0
 12 39  1  0
 13 40  1  0
 19 41  1  0
 20 42  1  0
 21 43  1  0
 22 44  1  0
 23 45  1  0
 24 46  1  0
M  END
>  <Binding energies>  (1) 
[-7.94]

>  <Ligand effiencies>  (1) 
[-0.24060606060606063]

>  <Interactions>  (1) 
["V-A:HIS:456:CE1:4069, V-A:TYR:484:CZ:4346, V-A:ARG:545:CZ:4926, H-B:GLU:543:OE2:9882, V-A:GLY:453:C:4041, V-A:ARG:545:CD:4923, V-A:ARG:545:CG:4922, V-A:GLY:453:CA:4043, V-A:TYR:539:CD1:4873, H-A:GLU:543:OE2:4910, V-A:TYR:539:CE1:4875, V-B:ILE:369:CG2:8208, V-B:LEU:475:CD1:9229, V-A:ALA:541:CB:4892, V-A:GLU:543:CD:4908, H-A:GLU:543:OE1:4909, V-A:GLY:454:CA:4048, V-B:TYR:484:CZ:9318, V-B:GLY:454:CA:9020, V-B:TYR:484:CE2:9317, V-B:ARG:545:CZ:9898, V-B:PRO:482:CB:9297, V-A:TYR:539:CB:4871, V-B:PRO:482:CG:9298, V-B:LEU:373:CD1:8251, V-B:SER:385:CB:8380"]

$$$$
4ch_Grossjean_2025
     RDKit          3D

 58 61  0  0  0  0  0  0  0  0999 V2000
  133.8170  120.9990   61.5670 C   0  0  0  0  0  0  0  0  0  0  0  0
  132.5350  121.2490   61.0000 O   0  0  0  0  0  0  0  0  0  0  0  0
  131.6900  122.1590   61.6080 C   0  0  0  0  0  0  0  0  0  0  0  0
  132.1280  123.3330   62.2420 C   0  0  0  0  0  0  0  0  0  0  0  0
  131.2170  124.2090   62.8350 C   0  0  0  0  0  0  0  0  0  0  0  0
  131.7130  125.4650   63.5430 C   0  0  0  0  0  0  0  0  0  0  0  0
  130.8350  126.6250   63.3930 N   0  0  0  0  0  0  0  0  0  0  0  0
  130.4640  127.1830   62.2210 C   0  0  0  0  0  0  0  0  0  0  0  0
  130.8230  126.7340   61.1310 O   0  0  0  0  0  0  0  0  0  0  0  0
  129.5750  128.3410   62.3150 C   0  0  0  0  0  0  0  0  0  0  0  0
  129.6860  129.6370   61.1290 S   0  0  0  0  0  0  0  0  0  0  0  0
  128.3780  130.5070   61.8930 C   0  0  0  0  0  0  0  0  0  0  0  0
  127.9550  131.6790   61.4240 N   0  0  0  0  0  0  0  0  0  0  0  0
  126.9280  132.2790   62.0810 C   0  0  0  0  0  0  0  0  0  0  0  0
  126.4800  133.6020   61.5310 C   0  0  0  0  0  0  0  0  0  0  0  0
  125.2870  133.7090   60.7980 C   0  0  0  0  0  0  0  0  0  0  0  0
  124.8650  134.9330   60.2840 C   0  0  0  0  0  0  0  0  0  0  0  0
  125.6350  136.0710   60.4960 C   0  0  0  0  0  0  0  0  0  0  0  0
  126.8230  135.9930   61.2150 C   0  0  0  0  0  0  0  0  0  0  0  0
  127.2410  134.7670   61.7250 C   0  0  0  0  0  0  0  0  0  0  0  0
  126.3430  131.7070   63.2160 C   0  0  0  0  0  0  0  0  0  0  0  0
  126.7820  130.4720   63.7200 C   0  0  0  0  0  0  0  0  0  0  0  0
  126.0960  129.9020   64.9670 C   0  0  0  0  0  0  0  0  0  0  0  0
  125.7180  128.6300   64.8220 F   0  0  0  0  0  0  0  0  0  0  0  0
  126.9300  129.9550   66.0040 F   0  0  0  0  0  0  0  0  0  0  0  0
  125.0030  130.6130   65.2450 F   0  0  0  0  0  0  0  0  0  0  0  0
  127.8490  129.8280   63.0310 C   0  0  0  0  0  0  0  0  0  0  0  0
  128.5480  128.5840   63.2410 C   0  0  0  0  0  0  0  0  0  0  0  0
  128.2400  127.7210   64.2620 N   0  0  0  0  0  0  0  0  0  0  0  0
  129.8550  123.9050   62.8120 C   0  0  0  0  0  0  0  0  0  0  0  0
  129.3900  122.7370   62.1870 C   0  0  0  0  0  0  0  0  0  0  0  0
  128.0560  122.3740   62.1250 O   0  0  0  0  0  0  0  0  0  0  0  0
  127.0850  123.3440   61.7450 C   0  0  0  0  0  0  0  0  0  0  0  0
  130.3170  121.8760   61.5830 C   0  0  0  0  0  0  0  0  0  0  0  0
  129.8770  120.7230   60.9800 O   0  0  0  0  0  0  0  0  0  0  0  0
  130.2180  119.5350   61.6830 C   0  0  0  0  0  0  0  0  0  0  0  0
  133.7418  121.0137   62.6643 H   0  0  0  0  0  0  0  0  0  0  0  0
  134.1779  120.0136   61.2373 H   0  0  0  0  0  0  0  0  0  0  0  0
  134.5217  121.7766   61.2373 H   0  0  0  0  0  0  0  0  0  0  0  0
  133.2028  123.5654   62.2718 H   0  0  0  0  0  0  0  0  0  0  0  0
  131.8084  125.2412   64.6158 H   0  0  0  0  0  0  0  0  0  0  0  0
  132.6723  125.7327   63.0760 H   0  0  0  0  0  0  0  0  0  0  0  0
  130.5470  127.0780   64.2490 H   0  0  0  0  0  0  0  0  0  0  0  0
  124.6753  132.8109   60.6268 H   0  0  0  0  0  0  0  0  0  0  0  0
  123.9270  134.9988   59.7131 H   0  0  0  0  0  0  0  0  0  0  0  0
  125.3026  137.0389   60.0927 H   0  0  0  0  0  0  0  0  0  0  0  0
  127.4294  136.8958   61.3799 H   0  0  0  0  0  0  0  0  0  0  0  0
  128.1833  134.7094   62.2896 H   0  0  0  0  0  0  0  0  0  0  0  0
  125.5226  132.2354   63.7238 H   0  0  0  0  0  0  0  0  0  0  0  0
  127.3070  127.3540   64.3880 H   0  0  0  0  0  0  0  0  0  0  0  0
  128.9410  127.4190   64.9240 H   0  0  0  0  0  0  0  0  0  0  0  0
  129.1374  124.5886   63.2892 H   0  0  0  0  0  0  0  0  0  0  0  0
  126.6392  123.7893   62.6467 H   0  0  0  0  0  0  0  0  0  0  0  0
  127.5676  124.1314   61.1474 H   0  0  0  0  0  0  0  0  0  0  0  0
  126.2981  122.8605   61.1474 H   0  0  0  0  0  0  0  0  0  0  0  0
  130.1645  119.7215   62.7658 H   0  0  0  0  0  0  0  0  0  0  0  0
  129.5134  118.7344   61.4135 H   0  0  0  0  0  0  0  0  0  0  0  0
  131.2400  119.2300   61.4135 H   0  0  0  0  0  0  0  0  0  0  0  0
  1  2  1  0
  2  3  1  0
  3  4  2  0
  4  5  1  0
  5  6  1  0
  6  7  1  0
  7  8  1  0
  8  9  2  0
  8 10  1  0
 10 11  1  0
 11 12  1  0
 12 13  2  0
 13 14  1  0
 14 15  1  0
 15 16  2  0
 16 17  1  0
 17 18  2  0
 18 19  1  0
 19 20  2  0
 14 21  2  0
 21 22  1  0
 22 23  1  0
 23 24  1  0
 23 25  1  0
 23 26  1  0
 22 27  2  0
 27 28  1  0
 28 29  1  0
  5 30  2  0
 30 31  1  0
 31 32  1  0
 32 33  1  0
 31 34  2  0
 34 35  1  0
 35 36  1  0
 34  3  1  0
 28 10  2  0
 27 12  1  0
 20 15  1  0
  1 37  1  0
  1 38  1  0
  1 39  1  0
  4 40  1  0
  6 41  1  0
  6 42  1  0
  7 43  1  0
 16 44  1  0
 17 45  1  0
 18 46  1  0
 19 47  1  0
 20 48  1  0
 21 49  1  0
 29 50  1  0
 29 51  1  0
 30 52  1  0
 33 53  1  0
 33 54  1  0
 33 55  1  0
 36 56  1  0
 36 57  1  0
 36 58  1  0
M  END
>  <Binding energies>  (1) 
[-7.25]

>  <Ligand effiencies>  (1) 
[-0.1858974358974359]

>  <Interactions>  (1) 
["H-B:ALA:541:N:9863, V-B:GLU:543:CD:9880, H-B:GLU:543:OE2:9882, V-B:ALA:541:CB:9864, V-A:TYR:539:CD1:4873, H-A:GLU:543:OE2:4910, V-A:TYR:539:CE1:4875, V-B:ILE:369:CG2:8208, V-B:LEU:475:CD1:9229, V-A:ALA:541:CB:4892, V-A:GLU:543:CD:4908, H-A:GLU:543:OE1:4909, V-A:ILE:369:CG2:3236, V-A:LEU:475:CD1:4257, V-B:ALA:541:CA:9862, V-A:ILE:369:CD1:3238, V-B:TYR:484:CZ:9318, V-B:GLY:454:CA:9020, V-B:TYR:484:CE2:9317, V-B:ARG:545:CZ:9898, V-B:PRO:482:CB:9297, V-B:PRO:482:CG:9298, V-B:SER:385:CB:8380"]

$$$$
4ci_Grossjean_2025
     RDKit          3D

 39 42  0  0  0  0  0  0  0  0999 V2000
  129.2450  121.6660   60.3320 N   0  0  0  0  0  0  0  0  0  0  0  0
  128.7940  122.7670   61.0130 C   0  0  0  0  0  0  0  0  0  0  0  0
  127.6350  123.4730   60.6540 C   0  0  0  0  0  0  0  0  0  0  0  0
  126.7050  123.2020   59.5540 C   0  0  0  0  0  0  0  0  0  0  0  0
  125.4910  123.3600   59.7030 O   0  0  0  0  0  0  0  0  0  0  0  0
  127.2740  122.7650   58.4020 N   0  0  0  0  0  0  0  0  0  0  0  0
  126.6340  122.4330   57.2150 C   0  0  0  0  0  0  0  0  0  0  0  0
  125.6080  123.1970   56.6620 C   0  0  0  0  0  0  0  0  0  0  0  0
  125.2500  122.5380   55.5090 C   0  0  0  0  0  0  0  0  0  0  0  0
  126.0230  121.4330   55.3740 O   0  0  0  0  0  0  0  0  0  0  0  0
  126.8950  121.3770   56.4620 N   0  0  0  0  0  0  0  0  0  0  0  0
  127.3460  124.8230   61.7480 S   0  0  0  0  0  0  0  0  0  0  0  0
  128.7800  124.4400   62.6720 C   0  0  0  0  0  0  0  0  0  0  0  0
  129.1400  125.1640   63.7290 N   0  0  0  0  0  0  0  0  0  0  0  0
  130.2680  124.7880   64.3860 C   0  0  0  0  0  0  0  0  0  0  0  0
  130.6520  125.6270   65.5710 C   0  0  0  0  0  0  0  0  0  0  0  0
  131.9990  125.9190   65.8410 C   0  0  0  0  0  0  0  0  0  0  0  0
  132.3610  126.6980   66.9370 C   0  0  0  0  0  0  0  0  0  0  0  0
  131.3760  127.1960   67.7840 C   0  0  0  0  0  0  0  0  0  0  0  0
  130.0350  126.9190   67.5440 C   0  0  0  0  0  0  0  0  0  0  0  0
  129.6780  126.1390   66.4470 C   0  0  0  0  0  0  0  0  0  0  0  0
  131.0370  123.6970   63.9670 C   0  0  0  0  0  0  0  0  0  0  0  0
  130.6650  122.9260   62.8530 C   0  0  0  0  0  0  0  0  0  0  0  0
  131.5550  121.7440   62.4500 C   0  0  0  0  0  0  0  0  0  0  0  0
  131.9220  121.7780   61.1680 F   0  0  0  0  0  0  0  0  0  0  0  0
  132.6670  121.7480   63.1840 F   0  0  0  0  0  0  0  0  0  0  0  0
  130.9010  120.5990   62.6490 F   0  0  0  0  0  0  0  0  0  0  0  0
  129.4780  123.3050   62.1650 C   0  0  0  0  0  0  0  0  0  0  0  0
  130.1570  121.6420   59.8970 H   0  0  0  0  0  0  0  0  0  0  0  0
  128.6790  120.8320   60.2480 H   0  0  0  0  0  0  0  0  0  0  0  0
  128.2780  122.6630   58.3960 H   0  0  0  0  0  0  0  0  0  0  0  0
  125.1772  124.1269   57.0616 H   0  0  0  0  0  0  0  0  0  0  0  0
  124.4632  122.8565   54.8093 H   0  0  0  0  0  0  0  0  0  0  0  0
  132.7814  125.5256   65.1753 H   0  0  0  0  0  0  0  0  0  0  0  0
  133.4208  126.9186   67.1322 H   0  0  0  0  0  0  0  0  0  0  0  0
  131.6602  127.8130   68.6492 H   0  0  0  0  0  0  0  0  0  0  0  0
  129.2599  127.3139   68.2172 H   0  0  0  0  0  0  0  0  0  0  0  0
  128.6160  125.9195   66.2624 H   0  0  0  0  0  0  0  0  0  0  0  0
  131.9513  123.4376   64.5209 H   0  0  0  0  0  0  0  0  0  0  0  0
  1  2  1  0
  2  3  2  0
  3  4  1  0
  4  5  2  0
  4  6  1  0
  6  7  1  0
  7  8  1  0
  8  9  2  0
  9 10  1  0
 10 11  1  0
  3 12  1  0
 12 13  1  0
 13 14  2  0
 14 15  1  0
 15 16  1  0
 16 17  2  0
 17 18  1  0
 18 19  2  0
 19 20  1  0
 20 21  2  0
 15 22  2  0
 22 23  1  0
 23 24  1  0
 24 25  1  0
 24 26  1  0
 24 27  1  0
 23 28  2  0
 28  2  1  0
 11  7  2  0
 28 13  1  0
 21 16  1  0
  1 29  1  0
  1 30  1  0
  6 31  1  0
  8 32  1  0
  9 33  1  0
 17 34  1  0
 18 35  1  0
 19 36  1  0
 20 37  1  0
 21 38  1  0
 22 39  1  0
M  END
>  <Binding energies>  (1) 
[-7.6]

>  <Ligand effiencies>  (1) 
[-0.24516129032258063]

>  <Interactions>  (1) 
["V-A:HIS:456:CE1:4069, V-B:GLU:543:CD:9880, V-B:ALA:541:CB:9864, V-A:ARG:545:CD:4923, V-A:ARG:545:CG:4922, V-A:GLU:543:CD:4908, V-B:PRO:540:CB:9857, V-B:PRO:540:CD:9859, V-B:PRO:540:N:9856, V-B:PRO:540:CA:9855, V-B:MET:535:CE:9807, V-B:TYR:531:CE2:9765, V-B:TYR:539:C:9839, V-B:LEU:363:CD1:8160, V-A:GLY:454:CA:4048, V-A:LEU:475:CD1:4257, V-A:GLU:543:CB:4906, H-B:TYR:539:O:9840, H-B:TYR:539:N:9842, V-B:MET:535:CG:9805"]

$$$$
4cj_Grossjean_2025
     RDKit          3D

 39 42  0  0  0  0  0  0  0  0999 V2000
  128.8110  128.9690   63.2220 N   0  0  0  0  0  0  0  0  0  0  0  0
  127.8400  129.8980   63.4970 C   0  0  0  0  0  0  0  0  0  0  0  0
  126.9910  129.8150   64.6120 C   0  0  0  0  0  0  0  0  0  0  0  0
  126.9590  128.7940   65.6630 C   0  0  0  0  0  0  0  0  0  0  0  0
  125.8860  128.3910   66.1190 O   0  0  0  0  0  0  0  0  0  0  0  0
  128.1710  128.3540   66.0830 N   0  0  0  0  0  0  0  0  0  0  0  0
  128.4170  127.3980   67.0600 C   0  0  0  0  0  0  0  0  0  0  0  0
  127.8540  127.2900   68.2440 N   0  0  0  0  0  0  0  0  0  0  0  0
  128.3270  126.2570   68.9130 C   0  0  0  0  0  0  0  0  0  0  0  0
  129.3000  125.4990   68.2680 C   0  0  0  0  0  0  0  0  0  0  0  0
  129.6020  126.1830   66.6990 S   0  0  0  0  0  0  0  0  0  0  0  0
  125.8740  131.1770   64.6650 S   0  0  0  0  0  0  0  0  0  0  0  0
  126.5490  131.8430   63.1970 C   0  0  0  0  0  0  0  0  0  0  0  0
  126.0900  132.9780   62.6750 N   0  0  0  0  0  0  0  0  0  0  0  0
  126.6810  133.4230   61.5360 C   0  0  0  0  0  0  0  0  0  0  0  0
  126.1480  134.7130   60.9810 C   0  0  0  0  0  0  0  0  0  0  0  0
  124.8720  134.7710   60.3980 C   0  0  0  0  0  0  0  0  0  0  0  0
  124.3740  135.9620   59.8760 C   0  0  0  0  0  0  0  0  0  0  0  0
  125.1500  137.1160   59.9270 C   0  0  0  0  0  0  0  0  0  0  0  0
  126.4180  137.0850   60.4960 C   0  0  0  0  0  0  0  0  0  0  0  0
  126.9110  135.8920   61.0180 C   0  0  0  0  0  0  0  0  0  0  0  0
  127.7140  132.7140   60.9150 C   0  0  0  0  0  0  0  0  0  0  0  0
  128.2050  131.5150   61.4550 C   0  0  0  0  0  0  0  0  0  0  0  0
  129.3410  130.7900   60.7250 C   0  0  0  0  0  0  0  0  0  0  0  0
  129.0370  129.5320   60.3990 F   0  0  0  0  0  0  0  0  0  0  0  0
  129.6330  131.4350   59.5960 F   0  0  0  0  0  0  0  0  0  0  0  0
  130.4240  130.7500   61.5010 F   0  0  0  0  0  0  0  0  0  0  0  0
  127.6050  131.0490   62.6600 C   0  0  0  0  0  0  0  0  0  0  0  0
  129.3160  128.4890   63.9550 H   0  0  0  0  0  0  0  0  0  0  0  0
  129.0530  128.7280   62.2700 H   0  0  0  0  0  0  0  0  0  0  0  0
  128.9880  128.7640   65.6550 H   0  0  0  0  0  0  0  0  0  0  0  0
  127.9725  126.0082   69.9242 H   0  0  0  0  0  0  0  0  0  0  0  0
  129.7975  124.6105   68.6841 H   0  0  0  0  0  0  0  0  0  0  0  0
  124.2558  133.8609   60.3529 H   0  0  0  0  0  0  0  0  0  0  0  0
  123.3711  135.9905   59.4251 H   0  0  0  0  0  0  0  0  0  0  0  0
  124.7580  138.0576   59.5150 H   0  0  0  0  0  0  0  0  0  0  0  0
  127.0291  137.9988   60.5337 H   0  0  0  0  0  0  0  0  0  0  0  0
  127.9150  135.8724   61.4670 H   0  0  0  0  0  0  0  0  0  0  0  0
  128.1509  133.1040   59.9839 H   0  0  0  0  0  0  0  0  0  0  0  0
  1  2  1  0
  2  3  2  0
  3  4  1  0
  4  5  2  0
  4  6  1  0
  6  7  1  0
  7  8  2  0
  8  9  1  0
  9 10  2  0
 10 11  1  0
  3 12  1  0
 12 13  1  0
 13 14  2  0
 14 15  1  0
 15 16  1  0
 16 17  2  0
 17 18  1  0
 18 19  2  0
 19 20  1  0
 20 21  2  0
 15 22  2  0
 22 23  1  0
 23 24  1  0
 24 25  1  0
 24 26  1  0
 24 27  1  0
 23 28  2  0
 28  2  1  0
 11  7  1  0
 28 13  1  0
 21 16  1  0
  1 29  1  0
  1 30  1  0
  6 31  1  0
  9 32  1  0
 10 33  1  0
 17 34  1  0
 18 35  1  0
 19 36  1  0
 20 37  1  0
 21 38  1  0
 22 39  1  0
M  END
>  <Binding energies>  (1) 
[-7.17]

>  <Ligand effiencies>  (1) 
[-0.23129032258064516]

>  <Interactions>  (1) 
["V-A:HIS:456:CE1:4069, V-A:TYR:539:CD1:4873, H-A:GLU:543:OE2:4910, V-A:TYR:539:CE1:4875, V-A:PRO:540:CA:4883, V-B:ILE:369:CG2:8208, V-B:LEU:475:CD1:9229, V-A:ALA:541:CB:4892, V-A:GLU:543:CD:4908, H-A:GLU:543:OE1:4909, V-A:GLU:543:CG:4907, H-B:ARG:545:NH2:9900, V-B:GLU:543:CB:9878, V-B:GLU:543:C:9874, V-A:TYR:484:CE2:4345, V-B:HIS:456:CE1:9041, V-B:PRO:482:CB:9297, V-A:TYR:539:CB:4871, V-B:PRO:482:CG:9298, V-B:LEU:373:CD1:8251, V-B:SER:385:CB:8380, H-B:ARG:545:NE:9896"]

$$$$
4ck_Grossjean_2025
     RDKit          3D

 57 59  0  0  0  0  0  0  0  0999 V2000
  124.5270  123.8940   58.4780 C   0  0  0  0  0  0  0  0  0  0  0  0
  125.5250  124.4420   57.6300 O   0  0  0  0  0  0  0  0  0  0  0  0
  125.7990  123.6400   56.4900 C   0  0  0  0  0  0  0  0  0  0  0  0
  125.7680  122.1620   56.8980 C   0  0  0  0  0  0  0  0  0  0  0  0
  127.0850  121.6330   56.8310 O   0  0  0  0  0  0  0  0  0  0  0  0
  128.0810  122.5320   57.3010 C   0  0  0  0  0  0  0  0  0  0  0  0
  128.3440  122.2580   58.7870 C   0  0  0  0  0  0  0  0  0  0  0  0
  127.3780  122.9590   59.5590 O   0  0  0  0  0  0  0  0  0  0  0  0
  127.2980  122.5250   60.9110 C   0  0  0  0  0  0  0  0  0  0  0  0
  126.1220  123.2260   61.6090 C   0  0  0  0  0  0  0  0  0  0  0  0
  126.0700  124.6540   61.2970 N   0  0  0  0  0  0  0  0  0  0  0  0
  127.0040  125.5700   61.6280 C   0  0  0  0  0  0  0  0  0  0  0  0
  128.0420  125.2770   62.2230 O   0  0  0  0  0  0  0  0  0  0  0  0
  126.7180  126.9480   61.2280 C   0  0  0  0  0  0  0  0  0  0  0  0
  127.0940  128.2810   62.3160 S   0  0  0  0  0  0  0  0  0  0  0  0
  126.5470  129.4530   61.1400 C   0  0  0  0  0  0  0  0  0  0  0  0
  126.5820  130.7590   61.3920 N   0  0  0  0  0  0  0  0  0  0  0  0
  126.1340  131.5930   60.4170 C   0  0  0  0  0  0  0  0  0  0  0  0
  126.2040  133.0610   60.7260 C   0  0  0  0  0  0  0  0  0  0  0  0
  127.3070  133.6010   61.4060 C   0  0  0  0  0  0  0  0  0  0  0  0
  127.3760  134.9620   61.6980 C   0  0  0  0  0  0  0  0  0  0  0  0
  126.3400  135.8040   61.3100 C   0  0  0  0  0  0  0  0  0  0  0  0
  125.2370  135.2960   60.6310 C   0  0  0  0  0  0  0  0  0  0  0  0
  125.1730  133.9350   60.3400 C   0  0  0  0  0  0  0  0  0  0  0  0
  125.6630  131.1120   59.1920 C   0  0  0  0  0  0  0  0  0  0  0  0
  125.6210  129.7360   58.9160 C   0  0  0  0  0  0  0  0  0  0  0  0
  125.0880  129.2770   57.5530 C   0  0  0  0  0  0  0  0  0  0  0  0
  124.5130  128.0740   57.5940 F   0  0  0  0  0  0  0  0  0  0  0  0
  124.1760  130.1410   57.1110 F   0  0  0  0  0  0  0  0  0  0  0  0
  126.0920  129.2100   56.6770 F   0  0  0  0  0  0  0  0  0  0  0  0
  126.0860  128.8520   59.9320 C   0  0  0  0  0  0  0  0  0  0  0  0
  126.2030  127.4160   60.0090 C   0  0  0  0  0  0  0  0  0  0  0  0
  125.8380  126.5840   58.9810 N   0  0  0  0  0  0  0  0  0  0  0  0
  124.8122  124.0506   59.5288 H   0  0  0  0  0  0  0  0  0  0  0  0
  123.5654  124.3906   58.2812 H   0  0  0  0  0  0  0  0  0  0  0  0
  124.4300  122.8161   58.2812 H   0  0  0  0  0  0  0  0  0  0  0  0
  125.0379  123.8251   55.7177 H   0  0  0  0  0  0  0  0  0  0  0  0
  126.7912  123.8931   56.0882 H   0  0  0  0  0  0  0  0  0  0  0  0
  125.3867  122.0716   57.9258 H   0  0  0  0  0  0  0  0  0  0  0  0
  125.1094  121.6034   56.2167 H   0  0  0  0  0  0  0  0  0  0  0  0
  129.0093  122.3848   56.7295 H   0  0  0  0  0  0  0  0  0  0  0  0
  127.7358  123.5683   57.1708 H   0  0  0  0  0  0  0  0  0  0  0  0
  128.2628  121.1789   58.9842 H   0  0  0  0  0  0  0  0  0  0  0  0
  129.3554  122.5962   59.0566 H   0  0  0  0  0  0  0  0  0  0  0  0
  127.1430  121.4363   60.9374 H   0  0  0  0  0  0  0  0  0  0  0  0
  128.2340  122.7765   61.4313 H   0  0  0  0  0  0  0  0  0  0  0  0
  125.1832  122.7565   61.2800 H   0  0  0  0  0  0  0  0  0  0  0  0
  126.2611  123.1211   62.6951 H   0  0  0  0  0  0  0  0  0  0  0  0
  125.2890  124.9560   60.7320 H   0  0  0  0  0  0  0  0  0  0  0  0
  128.1302  132.9392   61.7133 H   0  0  0  0  0  0  0  0  0  0  0  0
  128.2468  135.3684   62.2334 H   0  0  0  0  0  0  0  0  0  0  0  0
  126.3927  136.8781   61.5412 H   0  0  0  0  0  0  0  0  0  0  0  0
  124.4195  135.9656   60.3254 H   0  0  0  0  0  0  0  0  0  0  0  0
  124.3013  133.5379   59.7993 H   0  0  0  0  0  0  0  0  0  0  0  0
  125.3184  131.8256   58.4291 H   0  0  0  0  0  0  0  0  0  0  0  0
  124.9660  126.0750   58.9870 H   0  0  0  0  0  0  0  0  0  0  0  0
  126.4330  126.4560   58.1720 H   0  0  0  0  0  0  0  0  0  0  0  0
  1  2  1  0
  2  3  1  0
  3  4  1  0
  4  5  1  0
  5  6  1  0
  6  7  1  0
  7  8  1  0
  8  9  1  0
  9 10  1  0
 10 11  1  0
 11 12  1  0
 12 13  2  0
 12 14  1  0
 14 15  1  0
 15 16  1  0
 16 17  2  0
 17 18  1  0
 18 19  1  0
 19 20  2  0
 20 21  1  0
 21 22  2  0
 22 23  1  0
 23 24  2  0
 18 25  2  0
 25 26  1  0
 26 27  1  0
 27 28  1  0
 27 29  1  0
 27 30  1  0
 26 31  2  0
 31 32  1  0
 32 33  1  0
 32 14  2  0
 31 16  1  0
 24 19  1  0
  1 34  1  0
  1 35  1  0
  1 36  1  0
  3 37  1  0
  3 38  1  0
  4 39  1  0
  4 40  1  0
  6 41  1  0
  6 42  1  0
  7 43  1  0
  7 44  1  0
  9 45  1  0
  9 46  1  0
 10 47  1  0
 10 48  1  0
 11 49  1  0
 20 50  1  0
 21 51  1  0
 22 52  1  0
 23 53  1  0
 24 54  1  0
 25 55  1  0
 33 56  1  0
 33 57  1  0
M  END
>  <Binding energies>  (1) 
[-6.46]

>  <Ligand effiencies>  (1) 
[-0.17944444444444443]

>  <Interactions>  (1) 
["V-B:GLU:543:CD:9880, H-B:GLU:543:OE1:9881, V-A:TYR:539:CD1:4873, V-A:TYR:539:CE1:4875, V-B:ILE:369:CG2:8208, V-B:ASP:366:CG:8184, V-B:ASP:366:CA:8181, V-B:LEU:475:CD1:9229, V-A:ALA:541:CB:4892, H-B:TYR:531:OH:9767, V-B:ASP:366:CB:8183, V-A:ALA:541:CA:4890, V-A:TYR:539:CZ:4877, V-B:ASP:366:C:8179, V-B:PRO:540:CB:9857, V-B:TYR:539:CE2:9848, V-B:PRO:540:CD:9859, V-B:PRO:540:N:9856, V-B:PRO:540:CA:9855, V-B:MET:535:CE:9807, H-B:ASP:366:OD1:8185, V-B:TYR:539:CD2:9846, V-B:TYR:531:CE2:9765, V-B:TYR:539:C:9839, V-B:TYR:531:CZ:9766, V-B:LEU:363:CD1:8160, V-B:PRO:540:C:9853, V-B:TYR:531:CE1:9764, V-B:TYR:539:CZ:9849, V-B:LEU:363:CA:8156, V-B:LEU:363:CB:8158, H-B:TYR:539:N:9842, V-B:PRO:482:CB:9297, V-B:PRO:482:CG:9298, V-B:PRO:540:CG:9858"]

$$$$
4dd_Grossjean_2025
     RDKit          3D

 43 46  0  0  0  0  0  0  0  0999 V2000
  129.1270  130.6830   60.7270 C   0  0  0  0  0  0  0  0  0  0  0  0
  128.0930  131.5030   61.4830 C   0  0  0  0  0  0  0  0  0  0  0  0
  127.6460  132.6970   60.9050 C   0  0  0  0  0  0  0  0  0  0  0  0
  126.6950  133.4970   61.5510 C   0  0  0  0  0  0  0  0  0  0  0  0
  126.2010  134.7830   60.9570 C   0  0  0  0  0  0  0  0  0  0  0  0
  124.9040  134.8820   60.4300 C   0  0  0  0  0  0  0  0  0  0  0  0
  124.4390  136.0740   59.8810 C   0  0  0  0  0  0  0  0  0  0  0  0
  125.2690  137.1890   59.8490 C   0  0  0  0  0  0  0  0  0  0  0  0
  126.5580  137.1210   60.3660 C   0  0  0  0  0  0  0  0  0  0  0  0
  127.0190  135.9270   60.9170 C   0  0  0  0  0  0  0  0  0  0  0  0
  126.1760  133.1600   62.7630 N   0  0  0  0  0  0  0  0  0  0  0  0
  126.5960  132.0210   63.3110 C   0  0  0  0  0  0  0  0  0  0  0  0
  125.9990  131.4580   64.8560 S   0  0  0  0  0  0  0  0  0  0  0  0
  127.0120  130.0150   64.7760 C   0  0  0  0  0  0  0  0  0  0  0  0
  126.9750  129.0230   65.8520 C   0  0  0  0  0  0  0  0  0  0  0  0
  125.9510  128.3740   66.0720 O   0  0  0  0  0  0  0  0  0  0  0  0
  128.1270  128.8810   66.5520 N   0  0  0  0  0  0  0  0  0  0  0  0
  128.4060  128.0670   67.6640 C   0  0  0  0  0  0  0  0  0  0  0  0
  129.0000  128.7060   68.7560 C   0  0  0  0  0  0  0  0  0  0  0  0
  129.3030  127.9890   69.9100 C   0  0  0  0  0  0  0  0  0  0  0  0
  129.0030  126.6310   69.9770 C   0  0  0  0  0  0  0  0  0  0  0  0
  128.3990  125.9840   68.9020 C   0  0  0  0  0  0  0  0  0  0  0  0
  128.0960  126.6990   67.7460 C   0  0  0  0  0  0  0  0  0  0  0  0
  127.7730  129.9980   63.5970 C   0  0  0  0  0  0  0  0  0  0  0  0
  128.6540  128.9960   63.2720 N   0  0  0  0  0  0  0  0  0  0  0  0
  127.5510  131.1330   62.7410 C   0  0  0  0  0  0  0  0  0  0  0  0
  129.7802  130.1650   61.4446 H   0  0  0  0  0  0  0  0  0  0  0  0
  128.6163  129.9418   60.0948 H   0  0  0  0  0  0  0  0  0  0  0  0
  129.7324  131.3492   60.0948 H   0  0  0  0  0  0  0  0  0  0  0  0
  128.0471  133.0113   59.9301 H   0  0  0  0  0  0  0  0  0  0  0  0
  124.2434  134.0027   60.4511 H   0  0  0  0  0  0  0  0  0  0  0  0
  123.4188  136.1334   59.4741 H   0  0  0  0  0  0  0  0  0  0  0  0
  124.9039  138.1302   59.4122 H   0  0  0  0  0  0  0  0  0  0  0  0
  127.2109  138.0059   60.3402 H   0  0  0  0  0  0  0  0  0  0  0  0
  128.0385  135.8781   61.3271 H   0  0  0  0  0  0  0  0  0  0  0  0
  128.9120  129.4270   66.2290 H   0  0  0  0  0  0  0  0  0  0  0  0
  129.2291  129.7806   68.7032 H   0  0  0  0  0  0  0  0  0  0  0  0
  129.7773  128.4929   70.7651 H   0  0  0  0  0  0  0  0  0  0  0  0
  129.2454  126.0638   70.8878 H   0  0  0  0  0  0  0  0  0  0  0  0
  128.1620  124.9117   68.9657 H   0  0  0  0  0  0  0  0  0  0  0  0
  127.6138  126.1926   66.8968 H   0  0  0  0  0  0  0  0  0  0  0  0
  128.7780  128.6830   62.3200 H   0  0  0  0  0  0  0  0  0  0  0  0
  129.2140  128.5410   63.9790 H   0  0  0  0  0  0  0  0  0  0  0  0
  1  2  1  0
  2  3  2  0
  3  4  1  0
  4  5  1  0
  5  6  2  0
  6  7  1  0
  7  8  2  0
  8  9  1  0
  9 10  2  0
  4 11  2  0
 11 12  1  0
 12 13  1  0
 13 14  1  0
 14 15  1  0
 15 16  2  0
 15 17  1  0
 17 18  1  0
 18 19  2  0
 19 20  1  0
 20 21  2  0
 21 22  1  0
 22 23  2  0
 14 24  2  0
 24 25  1  0
 24 26  1  0
 26  2  1  0
 10  5  1  0
 26 12  2  0
 23 18  1  0
  1 27  1  0
  1 28  1  0
  1 29  1  0
  3 30  1  0
  6 31  1  0
  7 32  1  0
  8 33  1  0
  9 34  1  0
 10 35  1  0
 17 36  1  0
 19 37  1  0
 20 38  1  0
 21 39  1  0
 22 40  1  0
 23 41  1  0
 25 42  1  0
 25 43  1  0
M  END
>  <Binding energies>  (1) 
[-8.07]

>  <Ligand effiencies>  (1) 
[-0.27827586206896554]

>  <Interactions>  (1) 
["V-A:GLU:543:C:4902, V-A:HIS:456:CE1:4069, V-B:GLU:543:CD:9880, V-A:TYR:539:CD1:4873, H-A:GLU:543:OE2:4910, V-A:TYR:539:CE1:4875, V-B:ILE:369:CG2:8208, V-B:LEU:475:CD1:9229, V-A:ALA:541:CB:4892, V-A:TYR:539:C:4867, V-A:GLU:543:CD:4908, H-A:GLU:543:OE1:4909, V-A:GLU:543:CG:4907, H-B:ARG:545:NH2:9900, V-B:GLU:543:CB:9878, V-B:GLU:543:C:9874, V-A:GLU:543:CB:4906, V-B:HIS:456:CE1:9041, V-B:TYR:484:CZ:9318, V-B:GLY:454:CA:9020, V-B:PRO:482:CB:9297, V-A:TYR:539:CB:4871, V-B:PRO:482:CG:9298, V-B:LEU:373:CD1:8251, V-B:SER:385:CB:8380, H-B:ARG:545:NE:9896, V-B:GLU:543:CA:9876"]

$$$$
4dg_Grossjean_2025
     RDKit          3D

 46 49  0  0  0  0  0  0  0  0999 V2000
  123.4390  129.9830   63.2090 C   0  0  0  0  0  0  0  0  0  0  0  0
  124.6070  130.9530   63.2960 C   0  0  0  0  0  0  0  0  0  0  0  0
  124.5920  132.0810   62.4660 C   0  0  0  0  0  0  0  0  0  0  0  0
  125.6370  133.0120   62.4990 C   0  0  0  0  0  0  0  0  0  0  0  0
  125.6480  134.2320   61.6210 C   0  0  0  0  0  0  0  0  0  0  0  0
  124.5580  134.5290   60.7860 C   0  0  0  0  0  0  0  0  0  0  0  0
  124.5650  135.6570   59.9680 C   0  0  0  0  0  0  0  0  0  0  0  0
  125.6650  136.5070   59.9740 C   0  0  0  0  0  0  0  0  0  0  0  0
  126.7600  136.2350   60.7890 C   0  0  0  0  0  0  0  0  0  0  0  0
  126.7490  135.1070   61.6040 C   0  0  0  0  0  0  0  0  0  0  0  0
  126.6950  132.8740   63.3430 N   0  0  0  0  0  0  0  0  0  0  0  0
  126.7120  131.8010   64.1320 C   0  0  0  0  0  0  0  0  0  0  0  0
  128.0150  131.5000   65.2580 S   0  0  0  0  0  0  0  0  0  0  0  0
  127.2500  130.0110   65.8130 C   0  0  0  0  0  0  0  0  0  0  0  0
  127.9080  129.1770   66.8160 C   0  0  0  0  0  0  0  0  0  0  0  0
  128.3900  129.6640   67.8410 O   0  0  0  0  0  0  0  0  0  0  0  0
  127.9850  127.8600   66.5300 N   0  0  0  0  0  0  0  0  0  0  0  0
  128.5770  126.8390   67.3930 C   0  0  0  0  0  0  0  0  0  0  0  0
  130.0140  126.4900   67.0210 C   0  0  0  0  0  0  0  0  0  0  0  0
  130.2670  125.6980   65.8970 C   0  0  0  0  0  0  0  0  0  0  0  0
  131.5780  125.4040   65.5360 C   0  0  0  0  0  0  0  0  0  0  0  0
  132.6330  125.9110   66.2930 C   0  0  0  0  0  0  0  0  0  0  0  0
  132.3880  126.7140   67.4040 C   0  0  0  0  0  0  0  0  0  0  0  0
  131.0760  127.0100   67.7650 C   0  0  0  0  0  0  0  0  0  0  0  0
  126.0480  129.7710   65.1300 C   0  0  0  0  0  0  0  0  0  0  0  0
  125.2500  128.6770   65.3510 N   0  0  0  0  0  0  0  0  0  0  0  0
  125.7110  130.7890   64.1710 C   0  0  0  0  0  0  0  0  0  0  0  0
  123.1117  129.7112   64.2234 H   0  0  0  0  0  0  0  0  0  0  0  0
  122.6064  130.4590   62.6703 H   0  0  0  0  0  0  0  0  0  0  0  0
  123.7540  129.0771   62.6703 H   0  0  0  0  0  0  0  0  0  0  0  0
  123.7475  132.2376   61.7787 H   0  0  0  0  0  0  0  0  0  0  0  0
  123.6847  133.8602   60.7778 H   0  0  0  0  0  0  0  0  0  0  0  0
  123.7032  135.8741   59.3198 H   0  0  0  0  0  0  0  0  0  0  0  0
  125.6700  137.3995   59.3311 H   0  0  0  0  0  0  0  0  0  0  0  0
  127.6298  136.9083   60.7889 H   0  0  0  0  0  0  0  0  0  0  0  0
  127.6168  134.8960   62.2463 H   0  0  0  0  0  0  0  0  0  0  0  0
  127.5000  127.5220   65.7120 H   0  0  0  0  0  0  0  0  0  0  0  0
  128.5650  127.2085   68.4290 H   0  0  0  0  0  0  0  0  0  0  0  0
  127.9788  125.9240   67.2708 H   0  0  0  0  0  0  0  0  0  0  0  0
  129.4304  125.3078   65.2988 H   0  0  0  0  0  0  0  0  0  0  0  0
  131.7811  124.7743   64.6572 H   0  0  0  0  0  0  0  0  0  0  0  0
  133.6693  125.6744   66.0100 H   0  0  0  0  0  0  0  0  0  0  0  0
  133.2268  127.1126   67.9936 H   0  0  0  0  0  0  0  0  0  0  0  0
  130.8760  127.6526   68.6351 H   0  0  0  0  0  0  0  0  0  0  0  0
  125.6100  127.7350   65.3010 H   0  0  0  0  0  0  0  0  0  0  0  0
  124.2710  128.7800   65.5790 H   0  0  0  0  0  0  0  0  0  0  0  0
  1  2  1  0
  2  3  2  0
  3  4  1  0
  4  5  1  0
  5  6  2  0
  6  7  1  0
  7  8  2  0
  8  9  1  0
  9 10  2  0
  4 11  2  0
 11 12  1  0
 12 13  1  0
 13 14  1  0
 14 15  1  0
 15 16  2  0
 15 17  1  0
 17 18  1  0
 18 19  1  0
 19 20  2  0
 20 21  1  0
 21 22  2  0
 22 23  1  0
 23 24  2  0
 14 25  2  0
 25 26  1  0
 25 27  1  0
 27  2  1  0
 10  5  1  0
 27 12  2  0
 24 19  1  0
  1 28  1  0
  1 29  1  0
  1 30  1  0
  3 31  1  0
  6 32  1  0
  7 33  1  0
  8 34  1  0
  9 35  1  0
 10 36  1  0
 17 37  1  0
 18 38  1  0
 18 39  1  0
 20 40  1  0
 21 41  1  0
 22 42  1  0
 23 43  1  0
 24 44  1  0
 26 45  1  0
 26 46  1  0
M  END
>  <Binding energies>  (1) 
[-8.43]

>  <Ligand effiencies>  (1) 
[-0.28099999999999997]

>  <Interactions>  (1) 
["V-A:HIS:456:CE1:4069, V-A:ARG:545:CZ:4926, H-B:GLU:543:OE2:9882, V-A:ARG:545:CD:4923, V-A:ARG:545:CG:4922, V-A:TYR:539:CD1:4873, V-B:ILE:369:CG2:8208, V-B:ASP:366:CG:8184, V-B:LEU:475:CD1:9229, V-A:ALA:541:CB:4892, V-B:ILE:369:CD1:8210, V-A:GLU:543:CD:4908, H-A:GLU:543:OE1:4909, V-A:GLU:543:CG:4907, V-A:TYR:539:CG:4872, V-B:GLU:543:CB:9878, V-A:GLU:543:CB:4906, V-B:HIS:456:CE1:9041, V-B:GLY:454:CA:9020, V-B:TYR:484:CE2:9317, V-B:ARG:545:CZ:9898, V-B:ARG:545:CD:9895, V-B:PRO:482:CB:9297, V-A:TYR:539:CB:4871, V-B:PRO:482:CG:9298, V-B:LEU:373:CD1:8251, V-B:SER:385:CB:8380, H-B:TYR:484:OH:9319, V-B:GLY:453:CA:9015, V-B:GLY:453:C:9013"]

$$$$
4dj_Grossjean_2025
     RDKit          3D

 39 42  0  0  0  0  0  0  0  0999 V2000
  125.2520  129.2470   61.5480 C   0  0  0  0  0  0  0  0  0  0  0  0
  125.7900  130.5150   62.1930 C   0  0  0  0  0  0  0  0  0  0  0  0
  125.6330  131.7230   61.5030 C   0  0  0  0  0  0  0  0  0  0  0  0
  126.1070  132.9260   62.0410 C   0  0  0  0  0  0  0  0  0  0  0  0
  125.9490  134.2380   61.3270 C   0  0  0  0  0  0  0  0  0  0  0  0
  124.7850  134.5230   60.5950 C   0  0  0  0  0  0  0  0  0  0  0  0
  124.6310  135.7370   59.9300 C   0  0  0  0  0  0  0  0  0  0  0  0
  125.6460  136.6860   59.9850 C   0  0  0  0  0  0  0  0  0  0  0  0
  126.8110  136.4290   60.6990 C   0  0  0  0  0  0  0  0  0  0  0  0
  126.9600  135.2150   61.3630 C   0  0  0  0  0  0  0  0  0  0  0  0
  126.7210  132.9770   63.2550 N   0  0  0  0  0  0  0  0  0  0  0  0
  126.8720  131.8280   63.9120 C   0  0  0  0  0  0  0  0  0  0  0  0
  127.6500  131.7480   65.4770 S   0  0  0  0  0  0  0  0  0  0  0  0
  127.4120  130.0010   65.5590 C   0  0  0  0  0  0  0  0  0  0  0  0
  127.8870  129.2440   66.7170 C   0  0  0  0  0  0  0  0  0  0  0  0
  128.2130  129.8210   67.7580 O   0  0  0  0  0  0  0  0  0  0  0  0
  127.9460  127.8990   66.5510 N   0  0  0  0  0  0  0  0  0  0  0  0
  128.3600  126.9600   67.4850 C   0  0  0  0  0  0  0  0  0  0  0  0
  128.0730  126.9160   68.7690 N   0  0  0  0  0  0  0  0  0  0  0  0
  128.6390  125.8800   69.3560 C   0  0  0  0  0  0  0  0  0  0  0  0
  129.4060  125.0520   68.5410 C   0  0  0  0  0  0  0  0  0  0  0  0
  129.3780  125.6750   66.9190 S   0  0  0  0  0  0  0  0  0  0  0  0
  126.7600  129.5260   64.4110 C   0  0  0  0  0  0  0  0  0  0  0  0
  126.4480  128.2060   64.2020 N   0  0  0  0  0  0  0  0  0  0  0  0
  126.4380  130.5510   63.4550 C   0  0  0  0  0  0  0  0  0  0  0  0
  124.9505  128.5364   62.3317 H   0  0  0  0  0  0  0  0  0  0  0  0
  124.3814  129.4946   60.9229 H   0  0  0  0  0  0  0  0  0  0  0  0
  126.0350  128.7929   60.9229 H   0  0  0  0  0  0  0  0  0  0  0  0
  125.1303  131.7273   60.5246 H   0  0  0  0  0  0  0  0  0  0  0  0
  123.9807  133.7742   60.5460 H   0  0  0  0  0  0  0  0  0  0  0  0
  123.7109  135.9442   59.3640 H   0  0  0  0  0  0  0  0  0  0  0  0
  125.5265  137.6455   59.4606 H   0  0  0  0  0  0  0  0  0  0  0  0
  127.6117  137.1822   60.7389 H   0  0  0  0  0  0  0  0  0  0  0  0
  127.8842  135.0163   61.9255 H   0  0  0  0  0  0  0  0  0  0  0  0
  127.6640  127.5310   65.6540 H   0  0  0  0  0  0  0  0  0  0  0  0
  128.5122  125.6809   70.4304 H   0  0  0  0  0  0  0  0  0  0  0  0
  129.9426  124.1500   68.8703 H   0  0  0  0  0  0  0  0  0  0  0  0
  126.3920  127.8110   63.2750 H   0  0  0  0  0  0  0  0  0  0  0  0
  126.2640  127.5820   64.9750 H   0  0  0  0  0  0  0  0  0  0  0  0
  1  2  1  0
  2  3  2  0
  3  4  1  0
  4  5  1  0
  5  6  2  0
  6  7  1  0
  7  8  2  0
  8  9  1  0
  9 10  2  0
  4 11  2  0
 11 12  1  0
 12 13  1  0
 13 14  1  0
 14 15  1  0
 15 16  2  0
 15 17  1  0
 17 18  1  0
 18 19  2  0
 19 20  1  0
 20 21  2  0
 21 22  1  0
 14 23  2  0
 23 24  1  0
 23 25  1  0
 25  2  1  0
 10  5  1  0
 25 12  2  0
 22 18  1  0
  1 26  1  0
  1 27  1  0
  1 28  1  0
  3 29  1  0
  6 30  1  0
  7 31  1  0
  8 32  1  0
  9 33  1  0
 10 34  1  0
 17 35  1  0
 20 36  1  0
 21 37  1  0
 24 38  1  0
 24 39  1  0
M  END
>  <Binding energies>  (1) 
[-7.83]

>  <Ligand effiencies>  (1) 
[-0.27964285714285714]

>  <Interactions>  (1) 
["V-A:HIS:456:CE1:4069, V-A:TYR:484:CZ:4346, V-B:GLU:543:CG:9879, V-B:GLU:543:CD:9880, H-B:GLU:543:OE2:9882, V-A:TYR:539:CD1:4873, V-B:ILE:369:CG2:8208, V-B:ASP:366:CG:8184, V-B:LEU:475:CD1:9229, V-A:ALA:541:CB:4892, V-B:ASP:366:CB:8183, V-A:GLU:543:CD:4908, H-A:GLU:543:OE1:4909, V-A:GLU:543:CG:4907, V-A:TYR:539:CG:4872, V-B:GLU:543:CB:9878, V-B:GLU:543:C:9874, V-A:TYR:484:CE2:4345, V-A:GLU:543:CB:4906, V-B:HIS:456:CE1:9041, V-B:TYR:484:CZ:9318, V-B:TYR:484:CE2:9317, V-B:ARG:545:CZ:9898, V-B:PRO:482:CB:9297, V-A:TYR:539:CB:4871, V-B:PRO:482:CG:9298, V-B:LEU:373:CD1:8251, V-B:SER:385:CB:8380, H-B:TYR:484:OH:9319, V-B:GLU:543:CA:9876, V-A:TYR:484:CD2:4343"]

$$$$
4ea_Grossjean_2025
     RDKit          3D

 52 55  0  0  0  0  0  0  0  0999 V2000
  124.1560  123.9720   58.6430 C   0  0  0  0  0  0  0  0  0  0  0  0
  125.1420  124.4860   57.5900 C   0  0  0  0  0  0  0  0  0  0  0  0
  125.4290  123.4470   56.6650 O   0  0  0  0  0  0  0  0  0  0  0  0
  126.4670  122.5940   56.8660 C   0  0  0  0  0  0  0  0  0  0  0  0
  126.6520  121.5780   56.1890 O   0  0  0  0  0  0  0  0  0  0  0  0
  127.3650  123.0090   57.9950 C   0  0  0  0  0  0  0  0  0  0  0  0
  126.9210  122.8520   59.3140 C   0  0  0  0  0  0  0  0  0  0  0  0
  127.7300  123.2270   60.3830 C   0  0  0  0  0  0  0  0  0  0  0  0
  128.9970  123.7660   60.1570 C   0  0  0  0  0  0  0  0  0  0  0  0
  129.7260  124.1090   61.3120 N   0  0  0  0  0  0  0  0  0  0  0  0
  129.2960  124.4840   62.5420 C   0  0  0  0  0  0  0  0  0  0  0  0
  128.1120  124.5910   62.8610 O   0  0  0  0  0  0  0  0  0  0  0  0
  130.3560  124.7690   63.5140 C   0  0  0  0  0  0  0  0  0  0  0  0
  132.0430  124.4270   63.1210 S   0  0  0  0  0  0  0  0  0  0  0  0
  132.5750  125.0090   64.6810 C   0  0  0  0  0  0  0  0  0  0  0  0
  133.8630  125.0140   65.0300 N   0  0  0  0  0  0  0  0  0  0  0  0
  134.1430  125.4910   66.2680 C   0  0  0  0  0  0  0  0  0  0  0  0
  135.6130  125.4870   66.6440 C   0  0  0  0  0  0  0  0  0  0  0  0
  133.1760  125.9580   67.1550 C   0  0  0  0  0  0  0  0  0  0  0  0
  131.8270  125.9510   66.7860 C   0  0  0  0  0  0  0  0  0  0  0  0
  130.8120  126.4500   67.7400 C   0  0  0  0  0  0  0  0  0  0  0  0
  130.8560  127.7760   68.1830 C   0  0  0  0  0  0  0  0  0  0  0  0
  129.8990  128.2470   69.0790 C   0  0  0  0  0  0  0  0  0  0  0  0
  128.9000  127.3900   69.5340 C   0  0  0  0  0  0  0  0  0  0  0  0
  128.8500  126.0670   69.1030 C   0  0  0  0  0  0  0  0  0  0  0  0
  129.8070  125.5970   68.2080 C   0  0  0  0  0  0  0  0  0  0  0  0
  131.4910  125.4580   65.4940 C   0  0  0  0  0  0  0  0  0  0  0  0
  130.2360  125.3100   64.8040 C   0  0  0  0  0  0  0  0  0  0  0  0
  129.0420  125.6700   65.3720 N   0  0  0  0  0  0  0  0  0  0  0  0
  129.4500  123.9270   58.8380 C   0  0  0  0  0  0  0  0  0  0  0  0
  128.6400  123.5510   57.7710 C   0  0  0  0  0  0  0  0  0  0  0  0
  124.5523  124.1786   59.6481 H   0  0  0  0  0  0  0  0  0  0  0  0
  123.1886  124.4805   58.5186 H   0  0  0  0  0  0  0  0  0  0  0  0
  124.0189  122.8877   58.5186 H   0  0  0  0  0  0  0  0  0  0  0  0
  124.6977  125.3395   57.0569 H   0  0  0  0  0  0  0  0  0  0  0  0
  126.0718  124.8062   58.0828 H   0  0  0  0  0  0  0  0  0  0  0  0
  125.9242  122.4286   59.5069 H   0  0  0  0  0  0  0  0  0  0  0  0
  127.3677  123.0974   61.4135 H   0  0  0  0  0  0  0  0  0  0  0  0
  130.7270  124.0640   61.1930 H   0  0  0  0  0  0  0  0  0  0  0  0
  135.7112  125.4867   67.7396 H   0  0  0  0  0  0  0  0  0  0  0  0
  136.0943  124.5875   66.2325 H   0  0  0  0  0  0  0  0  0  0  0  0
  136.0992  126.3838   66.2325 H   0  0  0  0  0  0  0  0  0  0  0  0
  133.4733  126.3323   68.1457 H   0  0  0  0  0  0  0  0  0  0  0  0
  131.6484  128.4486   67.8229 H   0  0  0  0  0  0  0  0  0  0  0  0
  129.9322  129.2905   69.4254 H   0  0  0  0  0  0  0  0  0  0  0  0
  128.1433  127.7618   70.2405 H   0  0  0  0  0  0  0  0  0  0  0  0
  128.0581  125.3964   69.4680 H   0  0  0  0  0  0  0  0  0  0  0  0
  129.7728  124.5515   67.8677 H   0  0  0  0  0  0  0  0  0  0  0  0
  128.5520  126.5100   65.0960 H   0  0  0  0  0  0  0  0  0  0  0  0
  128.6080  125.1050   66.0890 H   0  0  0  0  0  0  0  0  0  0  0  0
  130.4470  124.3511   58.6477 H   0  0  0  0  0  0  0  0  0  0  0  0
  129.0029  123.6800   56.7406 H   0  0  0  0  0  0  0  0  0  0  0  0
  1  2  1  0
  2  3  1  0
  3  4  1  0
  4  5  2  0
  4  6  1  0
  6  7  2  0
  7  8  1  0
  8  9  2  0
  9 10  1  0
 10 11  1  0
 11 12  2  0
 11 13  1  0
 13 14  1  0
 14 15  1  0
 15 16  2  0
 16 17  1  0
 17 18  1  0
 17 19  2  0
 19 20  1  0
 20 21  1  0
 21 22  2  0
 22 23  1  0
 23 24  2  0
 24 25  1  0
 25 26  2  0
 20 27  2  0
 27 28  1  0
 28 29  1  0
  9 30  1  0
 30 31  2  0
 31  6  1  0
 28 13  2  0
 27 15  1  0
 26 21  1  0
  1 32  1  0
  1 33  1  0
  1 34  1  0
  2 35  1  0
  2 36  1  0
  7 37  1  0
  8 38  1  0
 10 39  1  0
 18 40  1  0
 18 41  1  0
 18 42  1  0
 19 43  1  0
 22 44  1  0
 23 45  1  0
 24 46  1  0
 25 47  1  0
 26 48  1  0
 29 49  1  0
 29 50  1  0
 30 51  1  0
 31 52  1  0
M  END
>  <Binding energies>  (1) 
[-9.0]

>  <Ligand effiencies>  (1) 
[-0.2647058823529412]

>  <Interactions>  (1) 
["V-A:GLU:543:C:4902, V-A:HIS:456:CE1:4069, H-A:GLY:454:N:4049, H-A:ARG:545:NH2:4928, V-A:TYR:484:CZ:4346, V-B:GLU:543:CG:9879, V-A:ILE:455:C:4051, V-A:ARG:545:CZ:4926, H-A:TYR:484:OH:4347, V-B:GLU:543:CD:9880, H-B:GLU:543:OE2:9882, H-A:ARG:545:NE:4924, V-A:GLY:453:C:4041, V-A:ARG:545:CD:4923, V-A:ARG:545:CG:4922, V-A:GLY:453:CA:4043, H-B:TYR:531:OH:9767, V-B:ASP:366:CB:8183, V-A:GLU:543:CD:4908, H-A:GLU:543:OE1:4909, V-B:PRO:540:CB:9857, V-B:TYR:539:CE2:9848, V-B:PRO:540:N:9856, V-B:PRO:540:CA:9855, V-B:MET:535:CE:9807, V-B:TYR:531:CE2:9765, V-B:TYR:531:CZ:9766, V-B:LEU:363:CD1:8160, V-A:GLY:454:CA:4048, V-B:GLU:543:CB:9878, V-B:GLU:543:C:9874, V-A:TYR:484:CE2:4345, V-A:GLU:543:CB:4906, V-B:HIS:456:CE1:9041, V-B:TYR:539:CZ:9849, V-B:LEU:363:CA:8156, V-B:LEU:363:CB:8158, V-A:ARG:545:CB:4921, H-B:TYR:539:N:9842, V-A:VAL:452:CG2:4039"]

$$$$
4eb_Grossjean_2025
     RDKit          3D

 49 52  0  0  0  0  0  0  0  0999 V2000
  124.7030  124.3880   57.5860 C   0  0  0  0  0  0  0  0  0  0  0  0
  125.4210  123.7490   56.5400 O   0  0  0  0  0  0  0  0  0  0  0  0
  126.3400  122.7850   56.8110 C   0  0  0  0  0  0  0  0  0  0  0  0
  126.4150  121.7230   56.1870 O   0  0  0  0  0  0  0  0  0  0  0  0
  127.2550  123.1410   57.9480 C   0  0  0  0  0  0  0  0  0  0  0  0
  126.8400  122.8930   59.2630 C   0  0  0  0  0  0  0  0  0  0  0  0
  127.6650  123.2110   60.3370 C   0  0  0  0  0  0  0  0  0  0  0  0
  128.9190  123.7830   60.1210 C   0  0  0  0  0  0  0  0  0  0  0  0
  129.6670  124.0630   61.2820 N   0  0  0  0  0  0  0  0  0  0  0  0
  129.3380  123.9320   62.5910 C   0  0  0  0  0  0  0  0  0  0  0  0
  128.2520  123.5160   62.9950 O   0  0  0  0  0  0  0  0  0  0  0  0
  130.3830  124.3260   63.5400 C   0  0  0  0  0  0  0  0  0  0  0  0
  132.0810  124.0030   63.1820 S   0  0  0  0  0  0  0  0  0  0  0  0
  132.5860  124.7260   64.6920 C   0  0  0  0  0  0  0  0  0  0  0  0
  133.8710  124.7980   65.0440 N   0  0  0  0  0  0  0  0  0  0  0  0
  134.1300  125.3810   66.2390 C   0  0  0  0  0  0  0  0  0  0  0  0
  135.5980  125.4520   66.6200 C   0  0  0  0  0  0  0  0  0  0  0  0
  133.1450  125.8900   67.0830 C   0  0  0  0  0  0  0  0  0  0  0  0
  131.7980  125.8130   66.7090 C   0  0  0  0  0  0  0  0  0  0  0  0
  130.7620  126.3580   67.6170 C   0  0  0  0  0  0  0  0  0  0  0  0
  130.7990  127.7030   67.9960 C   0  0  0  0  0  0  0  0  0  0  0  0
  129.8240  128.2180   68.8480 C   0  0  0  0  0  0  0  0  0  0  0  0
  128.8140  127.3840   69.3230 C   0  0  0  0  0  0  0  0  0  0  0  0
  128.7710  126.0410   68.9520 C   0  0  0  0  0  0  0  0  0  0  0  0
  129.7460  125.5290   68.1010 C   0  0  0  0  0  0  0  0  0  0  0  0
  131.4850  125.2070   65.4620 C   0  0  0  0  0  0  0  0  0  0  0  0
  130.2400  124.9660   64.7810 C   0  0  0  0  0  0  0  0  0  0  0  0
  129.0310  125.3360   65.3130 N   0  0  0  0  0  0  0  0  0  0  0  0
  129.3440  124.0350   58.8080 C   0  0  0  0  0  0  0  0  0  0  0  0
  128.5170  123.7160   57.7340 C   0  0  0  0  0  0  0  0  0  0  0  0
  125.0881  124.0453   58.5577 H   0  0  0  0  0  0  0  0  0  0  0  0
  124.8295  125.4777   57.5051 H   0  0  0  0  0  0  0  0  0  0  0  0
  123.6353  124.1359   57.5051 H   0  0  0  0  0  0  0  0  0  0  0  0
  125.8534  122.4430   59.4478 H   0  0  0  0  0  0  0  0  0  0  0  0
  127.3262  123.0100   61.3640 H   0  0  0  0  0  0  0  0  0  0  0  0
  130.5930  124.4160   61.0970 H   0  0  0  0  0  0  0  0  0  0  0  0
  135.6926  125.4566   67.7159 H   0  0  0  0  0  0  0  0  0  0  0  0
  136.1259  124.5783   66.2101 H   0  0  0  0  0  0  0  0  0  0  0  0
  136.0391  126.3725   66.2101 H   0  0  0  0  0  0  0  0  0  0  0  0
  133.4252  126.3515   68.0414 H   0  0  0  0  0  0  0  0  0  0  0  0
  131.6001  128.3567   67.6206 H   0  0  0  0  0  0  0  0  0  0  0  0
  129.8516  129.2771   69.1439 H   0  0  0  0  0  0  0  0  0  0  0  0
  128.0441  127.7887   69.9964 H   0  0  0  0  0  0  0  0  0  0  0  0
  127.9700  125.3888   69.3302 H   0  0  0  0  0  0  0  0  0  0  0  0
  129.7170  124.4690   67.8085 H   0  0  0  0  0  0  0  0  0  0  0  0
  128.5450  126.1650   65.0010 H   0  0  0  0  0  0  0  0  0  0  0  0
  128.5840  124.7890   66.0360 H   0  0  0  0  0  0  0  0  0  0  0  0
  130.3313  124.4849   58.6267 H   0  0  0  0  0  0  0  0  0  0  0  0
  128.8566  123.9168   56.7072 H   0  0  0  0  0  0  0  0  0  0  0  0
  1  2  1  0
  2  3  1  0
  3  4  2  0
  3  5  1  0
  5  6  2  0
  6  7  1  0
  7  8  2  0
  8  9  1  0
  9 10  1  0
 10 11  2  0
 10 12  1  0
 12 13  1  0
 13 14  1  0
 14 15  2  0
 15 16  1  0
 16 17  1  0
 16 18  2  0
 18 19  1  0
 19 20  1  0
 20 21  2  0
 21 22  1  0
 22 23  2  0
 23 24  1  0
 24 25  2  0
 19 26  2  0
 26 27  1  0
 27 28  1  0
  8 29  1  0
 29 30  2  0
 30  5  1  0
 27 12  2  0
 26 14  1  0
 25 20  1  0
  1 31  1  0
  1 32  1  0
  1 33  1  0
  6 34  1  0
  7 35  1  0
  9 36  1  0
 17 37  1  0
 17 38  1  0
 17 39  1  0
 18 40  1  0
 21 41  1  0
 22 42  1  0
 23 43  1  0
 24 44  1  0
 25 45  1  0
 28 46  1  0
 28 47  1  0
 29 48  1  0
 30 49  1  0
M  END
>  <Binding energies>  (1) 
[-8.89]

>  <Ligand effiencies>  (1) 
[-0.2693939393939394]

>  <Interactions>  (1) 
["V-A:GLU:543:C:4902, V-A:HIS:456:CE1:4069, H-A:GLY:454:N:4049, V-A:TYR:484:CZ:4346, V-B:GLU:543:CG:9879, V-A:ILE:455:C:4051, V-A:ARG:545:CZ:4926, H-A:TYR:484:OH:4347, V-B:GLU:543:CD:9880, H-B:GLU:543:OE2:9882, V-A:GLY:453:C:4041, V-A:ARG:545:CD:4923, V-A:ARG:545:CG:4922, V-A:GLY:453:CA:4043, H-B:TYR:531:OH:9767, V-A:GLU:543:CD:4908, H-A:GLU:543:OE1:4909, V-A:GLU:543:CG:4907, V-B:PRO:540:CB:9857, V-B:PRO:540:N:9856, V-B:PRO:540:CA:9855, V-B:MET:535:CE:9807, V-B:TYR:531:CE2:9765, V-B:TYR:531:CZ:9766, V-B:LEU:363:CD1:8160, V-A:GLY:454:CA:4048, V-B:GLU:543:CB:9878, V-B:GLU:543:C:9874, V-A:TYR:484:CE2:4345, V-A:GLU:543:CB:4906, V-B:HIS:456:CE1:9041, V-A:ARG:545:CB:4921, H-B:TYR:539:N:9842"]

$$$$
8a_Ghoteimi_2023
     RDKit          3D

 67 71  0  0  0  0  0  0  0  0999 V2000
  130.5100  116.7250   59.5410 C   0  0  0  0  0  0  0  0  0  0  0  0
  130.6530  117.9320   60.4720 C   0  0  0  0  0  0  0  0  0  0  0  0
  132.0280  118.1410   60.7670 O   0  0  0  0  0  0  0  0  0  0  0  0
  132.6350  119.3230   60.4820 C   0  0  0  0  0  0  0  0  0  0  0  0
  133.4140  119.4770   59.5360 O   0  0  0  0  0  0  0  0  0  0  0  0
  132.2690  120.4240   61.4360 C   0  0  0  0  0  0  0  0  0  0  0  0
  130.9510  120.5160   61.8990 C   0  0  0  0  0  0  0  0  0  0  0  0
  130.5800  121.5250   62.7830 C   0  0  0  0  0  0  0  0  0  0  0  0
  131.5160  122.4630   63.2210 C   0  0  0  0  0  0  0  0  0  0  0  0
  131.0260  123.4410   64.1100 N   0  0  0  0  0  0  0  0  0  0  0  0
  130.5580  124.6900   63.8680 C   0  0  0  0  0  0  0  0  0  0  0  0
  130.4880  125.2000   62.7500 O   0  0  0  0  0  0  0  0  0  0  0  0
  130.1160  125.4320   65.0530 C   0  0  0  0  0  0  0  0  0  0  0  0
  130.8620  125.1310   66.6220 S   0  0  0  0  0  0  0  0  0  0  0  0
  129.8280  126.3120   67.3920 C   0  0  0  0  0  0  0  0  0  0  0  0
  129.8960  126.5540   68.7010 N   0  0  0  0  0  0  0  0  0  0  0  0
  129.0430  127.4870   69.2000 C   0  0  0  0  0  0  0  0  0  0  0  0
  129.1210  127.7280   70.6740 C   0  0  0  0  0  0  0  0  0  0  0  0
  129.0230  129.0230   71.2020 C   0  0  0  0  0  0  0  0  0  0  0  0
  129.1090  129.2410   72.5740 C   0  0  0  0  0  0  0  0  0  0  0  0
  129.2920  128.1740   73.4520 C   0  0  0  0  0  0  0  0  0  0  0  0
  129.3680  128.4860   74.7960 O   0  0  0  0  0  0  0  0  0  0  0  0
  129.3930  127.4310   75.7520 C   0  0  0  0  0  0  0  0  0  0  0  0
  129.3850  126.8750   72.9340 C   0  0  0  0  0  0  0  0  0  0  0  0
  129.3020  126.6590   71.5610 C   0  0  0  0  0  0  0  0  0  0  0  0
  128.1360  128.1780   68.3930 C   0  0  0  0  0  0  0  0  0  0  0  0
  128.0740  127.9390   67.0160 C   0  0  0  0  0  0  0  0  0  0  0  0
  127.1130  128.7240   66.1990 C   0  0  0  0  0  0  0  0  0  0  0  0
  125.7380  128.5460   66.3660 C   0  0  0  0  0  0  0  0  0  0  0  0
  124.8350  129.2950   65.6170 C   0  0  0  0  0  0  0  0  0  0  0  0
  125.2890  130.2360   64.6930 C   0  0  0  0  0  0  0  0  0  0  0  0
  124.3200  130.9320   63.9950 O   0  0  0  0  0  0  0  0  0  0  0  0
  124.0080  130.5410   62.6640 C   0  0  0  0  0  0  0  0  0  0  0  0
  126.6700  130.4220   64.5290 C   0  0  0  0  0  0  0  0  0  0  0  0
  127.5720  129.6730   65.2810 C   0  0  0  0  0  0  0  0  0  0  0  0
  128.9420  126.9490   66.4750 C   0  0  0  0  0  0  0  0  0  0  0  0
  129.1160  126.4130   65.1470 C   0  0  0  0  0  0  0  0  0  0  0  0
  128.3530  126.8210   64.0820 N   0  0  0  0  0  0  0  0  0  0  0  0
  132.8400  122.3750   62.7660 C   0  0  0  0  0  0  0  0  0  0  0  0
  133.2100  121.3650   61.8820 C   0  0  0  0  0  0  0  0  0  0  0  0
  130.4016  115.8097   60.1414 H   0  0  0  0  0  0  0  0  0  0  0  0
  129.6209  116.8547   58.9064 H   0  0  0  0  0  0  0  0  0  0  0  0
  131.4048  116.6434   58.9064 H   0  0  0  0  0  0  0  0  0  0  0  0
  130.2434  118.8261   59.9792 H   0  0  0  0  0  0  0  0  0  0  0  0
  130.1017  117.7435   61.4050 H   0  0  0  0  0  0  0  0  0  0  0  0
  130.2021  119.7845   61.5612 H   0  0  0  0  0  0  0  0  0  0  0  0
  129.5409  121.5836   63.1392 H   0  0  0  0  0  0  0  0  0  0  0  0
  131.0160  123.1490   65.0760 H   0  0  0  0  0  0  0  0  0  0  0  0
  128.8764  129.8768   70.5241 H   0  0  0  0  0  0  0  0  0  0  0  0
  129.0318  130.2647   72.9690 H   0  0  0  0  0  0  0  0  0  0  0  0
  129.3829  127.8554   76.7668 H   0  0  0  0  0  0  0  0  0  0  0  0
  128.5098  126.7900   75.6139 H   0  0  0  0  0  0  0  0  0  0  0  0
  130.3056  126.8326   75.6139 H   0  0  0  0  0  0  0  0  0  0  0  0
  129.5242  126.0225   73.6151 H   0  0  0  0  0  0  0  0  0  0  0  0
  129.3796  125.6348   71.1674 H   0  0  0  0  0  0  0  0  0  0  0  0
  127.4618  128.9197   68.8461 H   0  0  0  0  0  0  0  0  0  0  0  0
  125.3664  127.8096   67.0937 H   0  0  0  0  0  0  0  0  0  0  0  0
  123.7543  129.1435   65.7550 H   0  0  0  0  0  0  0  0  0  0  0  0
  123.3220  129.6814   62.6856 H   0  0  0  0  0  0  0  0  0  0  0  0
  123.5283  131.3798   62.1383 H   0  0  0  0  0  0  0  0  0  0  0  0
  124.9323  130.2594   62.1383 H   0  0  0  0  0  0  0  0  0  0  0  0
  127.0415  131.1615   63.8044 H   0  0  0  0  0  0  0  0  0  0  0  0
  128.6531  129.8294   65.1516 H   0  0  0  0  0  0  0  0  0  0  0  0
  127.3990  127.1300   64.2050 H   0  0  0  0  0  0  0  0  0  0  0  0
  128.7180  126.8310   63.1400 H   0  0  0  0  0  0  0  0  0  0  0  0
  133.5876  123.1056   63.1084 H   0  0  0  0  0  0  0  0  0  0  0  0
  134.2502  121.3039   61.5296 H   0  0  0  0  0  0  0  0  0  0  0  0
  1  2  1  0
  2  3  1  0
  3  4  1  0
  4  5  2  0
  4  6  1  0
  6  7  2  0
  7  8  1  0
  8  9  2  0
  9 10  1  0
 10 11  1  0
 11 12  2  0
 11 13  1  0
 13 14  1  0
 14 15  1  0
 15 16  2  0
 16 17  1  0
 17 18  1  0
 18 19  2  0
 19 20  1  0
 20 21  2  0
 21 22  1  0
 22 23  1  0
 21 24  1  0
 24 25  2  0
 17 26  2  0
 26 27  1  0
 27 28  1  0
 28 29  2  0
 29 30  1  0
 30 31  2  0
 31 32  1  0
 32 33  1  0
 31 34  1  0
 34 35  2  0
 27 36  2  0
 36 37  1  0
 37 38  1  0
  9 39  1  0
 39 40  2  0
 40  6  1  0
 37 13  2  0
 36 15  1  0
 25 18  1  0
 35 28  1  0
  1 41  1  0
  1 42  1  0
  1 43  1  0
  2 44  1  0
  2 45  1  0
  7 46  1  0
  8 47  1  0
 10 48  1  0
 19 49  1  0
 20 50  1  0
 23 51  1  0
 23 52  1  0
 23 53  1  0
 24 54  1  0
 25 55  1  0
 26 56  1  0
 29 57  1  0
 30 58  1  0
 33 59  1  0
 33 60  1  0
 33 61  1  0
 34 62  1  0
 35 63  1  0
 38 64  1  0
 38 65  1  0
 39 66  1  0
 40 67  1  0
M  END
>  <Binding energies>  (1) 
[-8.62]

>  <Ligand effiencies>  (1) 
[-0.20046511627906974]

>  <Interactions>  (1) 
["H-A:LYS:547:NZ:4951, V-B:HIS:456:CD2:9039, V-A:GLU:543:C:4902, V-A:HIS:456:CE1:4069, V-A:TYR:484:CZ:4346, V-B:GLU:543:CG:9879, H-A:TYR:484:OH:4347, V-B:GLU:543:CD:9880, H-B:GLU:543:OE1:9881, H-B:GLU:543:OE2:9882, V-B:ALA:541:CB:9864, V-B:ASP:366:CG:8184, V-B:ILE:369:CD1:8210, V-A:GLU:543:CD:4908, H-A:GLU:543:OE1:4909, V-A:GLU:543:CG:4907, V-A:PRO:482:CG:4326, V-B:TYR:539:CD2:9846, V-B:TYR:539:C:9839, V-A:GLY:454:CA:4048, V-A:LEU:475:CD1:4257, V-A:TYR:484:CE2:4345, V-B:HIS:456:CE1:9041, V-B:ARG:545:CZ:9898, V-B:ARG:545:CG:9894, V-B:ARG:545:CD:9895, V-B:TYR:539:CB:9843, H-A:SER:385:OG:3409, H-A:HIS:383:NE2:3393, V-A:HIS:383:CE1:3392, H-B:GLY:454:N:9021, V-B:VAL:344:CG1:7972"]

$$$$
8b_Ghoteimi_2023
     RDKit          3D

 54 58  0  0  0  0  0  0  0  0999 V2000
  124.8730  138.9590   59.5590 C   0  0  0  0  0  0  0  0  0  0  0  0
  125.6150  138.3020   60.5810 O   0  0  0  0  0  0  0  0  0  0  0  0
  125.6500  136.9210   60.6060 C   0  0  0  0  0  0  0  0  0  0  0  0
  126.6850  136.3370   61.3330 C   0  0  0  0  0  0  0  0  0  0  0  0
  126.8000  134.9530   61.4130 C   0  0  0  0  0  0  0  0  0  0  0  0
  125.8810  134.1140   60.7660 C   0  0  0  0  0  0  0  0  0  0  0  0
  126.0010  132.6250   60.8470 C   0  0  0  0  0  0  0  0  0  0  0  0
  125.9510  131.9480   62.0700 C   0  0  0  0  0  0  0  0  0  0  0  0
  126.0660  130.5550   62.1190 C   0  0  0  0  0  0  0  0  0  0  0  0
  126.0180  129.8690   63.4310 C   0  0  0  0  0  0  0  0  0  0  0  0
  127.1400  129.1900   63.9100 C   0  0  0  0  0  0  0  0  0  0  0  0
  127.0970  128.5540   65.1470 C   0  0  0  0  0  0  0  0  0  0  0  0
  125.9360  128.5850   65.9210 C   0  0  0  0  0  0  0  0  0  0  0  0
  125.9850  127.9280   67.1360 O   0  0  0  0  0  0  0  0  0  0  0  0
  127.2080  127.3280   67.5510 C   0  0  0  0  0  0  0  0  0  0  0  0
  124.8080  129.2650   65.4350 C   0  0  0  0  0  0  0  0  0  0  0  0
  124.8530  129.9010   64.1980 C   0  0  0  0  0  0  0  0  0  0  0  0
  126.2250  129.8540   60.8930 C   0  0  0  0  0  0  0  0  0  0  0  0
  126.3640  128.4560   60.5790 C   0  0  0  0  0  0  0  0  0  0  0  0
  126.3590  127.4830   61.5460 N   0  0  0  0  0  0  0  0  0  0  0  0
  126.4990  128.1920   59.2070 C   0  0  0  0  0  0  0  0  0  0  0  0
  126.6540  126.8990   58.5390 C   0  0  0  0  0  0  0  0  0  0  0  0
  127.6980  126.6190   57.9440 O   0  0  0  0  0  0  0  0  0  0  0  0
  125.5860  126.0660   58.6270 N   0  0  0  0  0  0  0  0  0  0  0  0
  125.4630  124.7900   58.0960 C   0  0  0  0  0  0  0  0  0  0  0  0
  124.7560  123.7670   58.7270 C   0  0  0  0  0  0  0  0  0  0  0  0
  124.8770  122.6800   57.8910 C   0  0  0  0  0  0  0  0  0  0  0  0
  125.6150  123.0300   56.8120 O   0  0  0  0  0  0  0  0  0  0  0  0
  125.9800  124.3710   56.9510 N   0  0  0  0  0  0  0  0  0  0  0  0
  126.4560  129.6830   58.2650 S   0  0  0  0  0  0  0  0  0  0  0  0
  126.2570  130.6470   59.7100 C   0  0  0  0  0  0  0  0  0  0  0  0
  126.1510  131.9740   59.6630 N   0  0  0  0  0  0  0  0  0  0  0  0
  124.8410  134.7080   60.0380 C   0  0  0  0  0  0  0  0  0  0  0  0
  124.7240  136.0930   59.9550 C   0  0  0  0  0  0  0  0  0  0  0  0
  124.1245  139.6218   60.0178 H   0  0  0  0  0  0  0  0  0  0  0  0
  125.5560  139.5539   58.9348 H   0  0  0  0  0  0  0  0  0  0  0  0
  124.3652  138.2090   58.9348 H   0  0  0  0  0  0  0  0  0  0  0  0
  127.4175  136.9757   61.8482 H   0  0  0  0  0  0  0  0  0  0  0  0
  127.6237  134.5102   61.9921 H   0  0  0  0  0  0  0  0  0  0  0  0
  125.8199  132.5168   63.0024 H   0  0  0  0  0  0  0  0  0  0  0  0
  128.0602  129.1577   63.3081 H   0  0  0  0  0  0  0  0  0  0  0  0
  127.9856  128.0223   65.5180 H   0  0  0  0  0  0  0  0  0  0  0  0
  127.2516  127.3066   68.6499 H   0  0  0  0  0  0  0  0  0  0  0  0
  127.2630  126.3006   67.1618 H   0  0  0  0  0  0  0  0  0  0  0  0
  128.0542  127.9133   67.1618 H   0  0  0  0  0  0  0  0  0  0  0  0
  123.8858  129.2952   66.0338 H   0  0  0  0  0  0  0  0  0  0  0  0
  123.9654  130.4317   63.8230 H   0  0  0  0  0  0  0  0  0  0  0  0
  127.1650  127.3220   62.1340 H   0  0  0  0  0  0  0  0  0  0  0  0
  125.5550  126.8920   61.7010 H   0  0  0  0  0  0  0  0  0  0  0  0
  124.7850  126.4020   59.1400 H   0  0  0  0  0  0  0  0  0  0  0  0
  124.2181  123.8176   59.6852 H   0  0  0  0  0  0  0  0  0  0  0  0
  124.4430  121.6855   58.0713 H   0  0  0  0  0  0  0  0  0  0  0  0
  124.1062  134.0705   59.5245 H   0  0  0  0  0  0  0  0  0  0  0  0
  123.9019  136.5395   59.3764 H   0  0  0  0  0  0  0  0  0  0  0  0
  1  2  1  0
  2  3  1  0
  3  4  2  0
  4  5  1  0
  5  6  2  0
  6  7  1  0
  7  8  2  0
  8  9  1  0
  9 10  1  0
 10 11  2  0
 11 12  1  0
 12 13  2  0
 13 14  1  0
 14 15  1  0
 13 16  1  0
 16 17  2  0
  9 18  2  0
 18 19  1  0
 19 20  1  0
 19 21  2  0
 21 22  1  0
 22 23  2  0
 22 24  1  0
 24 25  1  0
 25 26  1  0
 26 27  2  0
 27 28  1  0
 28 29  1  0
 21 30  1  0
 30 31  1  0
 31 32  2  0
  6 33  1  0
 33 34  2  0
 34  3  1  0
 32  7  1  0
 17 10  1  0
 31 18  1  0
 29 25  2  0
  1 35  1  0
  1 36  1  0
  1 37  1  0
  4 38  1  0
  5 39  1  0
  8 40  1  0
 11 41  1  0
 12 42  1  0
 15 43  1  0
 15 44  1  0
 15 45  1  0
 16 46  1  0
 17 47  1  0
 20 48  1  0
 20 49  1  0
 24 50  1  0
 26 51  1  0
 27 52  1  0
 33 53  1  0
 34 54  1  0
M  END
>  <Binding energies>  (1) 
[-8.38]

>  <Ligand effiencies>  (1) 
[-0.2264864864864865]

>  <Interactions>  (1) 
["V-B:GLU:543:CD:9880, H-B:GLU:543:OE2:9882, V-A:TYR:539:CD1:4873, V-A:TYR:539:CE1:4875, V-B:ILE:369:CG2:8208, V-B:ASP:366:CG:8184, V-B:LEU:475:CD1:9229, V-A:ALA:541:CB:4892, H-B:TYR:531:OH:9767, V-B:ASP:366:CB:8183, V-B:PRO:540:CB:9857, V-B:PRO:540:CD:9859, V-B:PRO:540:N:9856, V-B:PRO:540:CA:9855, H-B:ASP:366:OD1:8185, V-B:TYR:531:CE2:9765, V-B:TYR:531:CZ:9766, V-B:LEU:363:CD1:8160, V-B:GLU:543:CB:9878, V-B:HIS:456:CE1:9041, V-B:LEU:363:CA:8156, V-B:ARG:545:CZ:9898, H-B:ASP:366:OD2:8186, V-B:PRO:482:CB:9297, V-B:PRO:482:CG:9298, V-B:LEU:373:CD1:8251, H-B:SER:385:OG:8381, V-B:SER:385:CB:8380, V-B:LEU:373:CD2:8252, H-B:ARG:545:NE:9896, V-B:PRO:540:CG:9858"]

$$$$
8c_Ghoteimi_2023
     RDKit          3D

 54 58  0  0  0  0  0  0  0  0999 V2000
  124.8870  138.9780   59.5000 C   0  0  0  0  0  0  0  0  0  0  0  0
  125.6300  138.3220   60.5210 O   0  0  0  0  0  0  0  0  0  0  0  0
  125.6660  136.9400   60.5460 C   0  0  0  0  0  0  0  0  0  0  0  0
  126.6880  136.3570   61.2920 C   0  0  0  0  0  0  0  0  0  0  0  0
  126.8040  134.9730   61.3720 C   0  0  0  0  0  0  0  0  0  0  0  0
  125.8990  134.1340   60.7060 C   0  0  0  0  0  0  0  0  0  0  0  0
  126.0210  132.6450   60.7850 C   0  0  0  0  0  0  0  0  0  0  0  0
  125.9720  131.9650   62.0050 C   0  0  0  0  0  0  0  0  0  0  0  0
  126.0850  130.5710   62.0510 C   0  0  0  0  0  0  0  0  0  0  0  0
  126.0380  129.8820   63.3600 C   0  0  0  0  0  0  0  0  0  0  0  0
  127.1610  129.2020   63.8390 C   0  0  0  0  0  0  0  0  0  0  0  0
  127.1170  128.5630   65.0740 C   0  0  0  0  0  0  0  0  0  0  0  0
  125.9550  128.5900   65.8470 C   0  0  0  0  0  0  0  0  0  0  0  0
  126.0050  127.9310   67.0600 O   0  0  0  0  0  0  0  0  0  0  0  0
  127.2220  127.3150   67.4670 C   0  0  0  0  0  0  0  0  0  0  0  0
  124.8270  129.2700   65.3620 C   0  0  0  0  0  0  0  0  0  0  0  0
  124.8710  129.9100   64.1270 C   0  0  0  0  0  0  0  0  0  0  0  0
  126.2460  129.8740   60.8240 C   0  0  0  0  0  0  0  0  0  0  0  0
  126.3870  128.4770   60.5070 C   0  0  0  0  0  0  0  0  0  0  0  0
  126.3850  127.5000   61.4710 N   0  0  0  0  0  0  0  0  0  0  0  0
  126.5240  128.2160   59.1340 C   0  0  0  0  0  0  0  0  0  0  0  0
  126.6820  126.9240   58.4630 C   0  0  0  0  0  0  0  0  0  0  0  0
  127.7240  126.6480   57.8650 O   0  0  0  0  0  0  0  0  0  0  0  0
  125.6170  126.0890   58.5510 N   0  0  0  0  0  0  0  0  0  0  0  0
  125.5090  124.8150   58.0110 C   0  0  0  0  0  0  0  0  0  0  0  0
  126.0890  124.3450   56.9280 N   0  0  0  0  0  0  0  0  0  0  0  0
  125.7630  123.0870   56.7110 C   0  0  0  0  0  0  0  0  0  0  0  0
  124.8970  122.5070   57.6320 C   0  0  0  0  0  0  0  0  0  0  0  0
  124.4910  123.6850   58.8450 S   0  0  0  0  0  0  0  0  0  0  0  0
  126.4770  129.7080   58.1940 S   0  0  0  0  0  0  0  0  0  0  0  0
  126.2770  130.6690   59.6420 C   0  0  0  0  0  0  0  0  0  0  0  0
  126.1710  131.9970   59.5980 N   0  0  0  0  0  0  0  0  0  0  0  0
  124.8720  134.7280   59.9600 C   0  0  0  0  0  0  0  0  0  0  0  0
  124.7540  136.1120   59.8770 C   0  0  0  0  0  0  0  0  0  0  0  0
  124.1377  139.6395   59.9593 H   0  0  0  0  0  0  0  0  0  0  0  0
  125.5689  139.5741   58.8757 H   0  0  0  0  0  0  0  0  0  0  0  0
  124.3800  138.2275   58.8757 H   0  0  0  0  0  0  0  0  0  0  0  0
  127.4092  136.9963   61.8222 H   0  0  0  0  0  0  0  0  0  0  0  0
  127.6172  134.5305   61.9661 H   0  0  0  0  0  0  0  0  0  0  0  0
  125.8432  132.5316   62.9390 H   0  0  0  0  0  0  0  0  0  0  0  0
  128.0819  129.1719   63.2381 H   0  0  0  0  0  0  0  0  0  0  0  0
  128.0060  128.0317   65.4447 H   0  0  0  0  0  0  0  0  0  0  0  0
  127.2709  127.2902   68.5656 H   0  0  0  0  0  0  0  0  0  0  0  0
  127.2622  126.2880   67.0749 H   0  0  0  0  0  0  0  0  0  0  0  0
  128.0734  127.8907   67.0749 H   0  0  0  0  0  0  0  0  0  0  0  0
  123.9045  129.2972   65.9605 H   0  0  0  0  0  0  0  0  0  0  0  0
  123.9827  130.4403   63.7532 H   0  0  0  0  0  0  0  0  0  0  0  0
  125.5840  126.9000   61.6120 H   0  0  0  0  0  0  0  0  0  0  0  0
  127.1800  127.3480   62.0740 H   0  0  0  0  0  0  0  0  0  0  0  0
  124.8140  126.4170   59.0680 H   0  0  0  0  0  0  0  0  0  0  0  0
  126.1541  122.5264   55.8491 H   0  0  0  0  0  0  0  0  0  0  0  0
  124.5286  121.4710   57.5985 H   0  0  0  0  0  0  0  0  0  0  0  0
  124.1479  134.0902   59.4319 H   0  0  0  0  0  0  0  0  0  0  0  0
  123.9419  136.5580   59.2841 H   0  0  0  0  0  0  0  0  0  0  0  0
  1  2  1  0
  2  3  1  0
  3  4  2  0
  4  5  1  0
  5  6  2  0
  6  7  1  0
  7  8  2  0
  8  9  1  0
  9 10  1  0
 10 11  2  0
 11 12  1  0
 12 13  2  0
 13 14  1  0
 14 15  1  0
 13 16  1  0
 16 17  2  0
  9 18  2  0
 18 19  1  0
 19 20  1  0
 19 21  2  0
 21 22  1  0
 22 23  2  0
 22 24  1  0
 24 25  1  0
 25 26  2  0
 26 27  1  0
 27 28  2  0
 28 29  1  0
 21 30  1  0
 30 31  1  0
 31 32  2  0
  6 33  1  0
 33 34  2  0
 34  3  1  0
 32  7  1  0
 17 10  1  0
 31 18  1  0
 29 25  1  0
  1 35  1  0
  1 36  1  0
  1 37  1  0
  4 38  1  0
  5 39  1  0
  8 40  1  0
 11 41  1  0
 12 42  1  0
 15 43  1  0
 15 44  1  0
 15 45  1  0
 16 46  1  0
 17 47  1  0
 20 48  1  0
 20 49  1  0
 24 50  1  0
 27 51  1  0
 28 52  1  0
 33 53  1  0
 34 54  1  0
M  END
>  <Binding energies>  (1) 
[-8.62]

>  <Ligand effiencies>  (1) 
[-0.23297297297297295]

>  <Interactions>  (1) 
["V-B:GLU:543:CD:9880, V-A:TYR:539:CD1:4873, V-A:TYR:539:CE1:4875, V-B:ILE:369:CG2:8208, V-B:ASP:366:CG:8184, V-B:LEU:475:CD1:9229, V-A:ALA:541:CB:4892, H-B:TYR:531:OH:9767, V-B:ASP:366:CB:8183, V-B:PRO:540:CB:9857, V-B:PRO:540:CD:9859, V-B:PRO:540:N:9856, V-B:PRO:540:CA:9855, V-B:MET:535:CE:9807, H-B:ASP:366:OD1:8185, V-B:TYR:531:CE2:9765, V-B:TYR:531:CZ:9766, V-B:LEU:363:CD1:8160, V-B:GLU:543:CB:9878, V-B:HIS:456:CE1:9041, V-B:LEU:363:CA:8156, V-B:ARG:545:CZ:9898, V-B:LEU:363:CB:8158, H-B:ASP:366:OD2:8186, V-B:PRO:482:CB:9297, V-B:PRO:482:CG:9298, V-B:LEU:373:CD1:8251, H-B:SER:385:OG:8381, V-B:SER:385:CB:8380, V-B:LEU:373:CD2:8252, H-B:ARG:545:NE:9896, V-B:PRO:540:CG:9858"]

$$$$
8d_Ghoteimi_2023
     RDKit          3D

 50 53  0  0  0  0  0  0  0  0999 V2000
  132.2430  131.5070   61.2930 C   0  0  0  0  0  0  0  0  0  0  0  0
  130.8270  131.4740   61.4040 O   0  0  0  0  0  0  0  0  0  0  0  0
  130.0480  131.2440   60.3150 C   0  0  0  0  0  0  0  0  0  0  0  0
  129.6060  132.1320   59.5830 O   0  0  0  0  0  0  0  0  0  0  0  0
  129.7810  129.8060   60.0920 C   0  0  0  0  0  0  0  0  0  0  0  0
  128.6100  129.3080   58.8690 S   0  0  0  0  0  0  0  0  0  0  0  0
  128.8850  127.6210   59.2360 C   0  0  0  0  0  0  0  0  0  0  0  0
  128.2400  126.6470   58.5940 N   0  0  0  0  0  0  0  0  0  0  0  0
  128.5300  125.3690   58.9570 C   0  0  0  0  0  0  0  0  0  0  0  0
  127.7900  124.2950   58.2240 C   0  0  0  0  0  0  0  0  0  0  0  0
  126.4230  124.4240   57.9370 C   0  0  0  0  0  0  0  0  0  0  0  0
  125.7380  123.4220   57.2560 C   0  0  0  0  0  0  0  0  0  0  0  0
  126.4000  122.2660   56.8440 C   0  0  0  0  0  0  0  0  0  0  0  0
  125.6420  121.3260   56.1740 O   0  0  0  0  0  0  0  0  0  0  0  0
  124.9010  121.7220   55.0240 C   0  0  0  0  0  0  0  0  0  0  0  0
  127.7670  122.1270   57.1230 C   0  0  0  0  0  0  0  0  0  0  0  0
  128.4480  123.1320   57.8050 C   0  0  0  0  0  0  0  0  0  0  0  0
  129.4550  125.0700   59.9620 C   0  0  0  0  0  0  0  0  0  0  0  0
  130.1340  126.0910   60.6330 C   0  0  0  0  0  0  0  0  0  0  0  0
  131.1140  125.7420   61.6870 C   0  0  0  0  0  0  0  0  0  0  0  0
  130.8510  126.0540   63.0230 C   0  0  0  0  0  0  0  0  0  0  0  0
  131.7760  125.7340   64.0120 C   0  0  0  0  0  0  0  0  0  0  0  0
  132.9720  125.0950   63.6840 C   0  0  0  0  0  0  0  0  0  0  0  0
  133.8300  124.8180   64.7310 O   0  0  0  0  0  0  0  0  0  0  0  0
  133.6370  125.4720   65.9790 C   0  0  0  0  0  0  0  0  0  0  0  0
  133.2330  124.7790   62.3410 C   0  0  0  0  0  0  0  0  0  0  0  0
  132.3070  125.1000   61.3520 C   0  0  0  0  0  0  0  0  0  0  0  0
  129.8480  127.4340   60.2680 C   0  0  0  0  0  0  0  0  0  0  0  0
  130.3420  128.6990   60.7380 C   0  0  0  0  0  0  0  0  0  0  0  0
  131.2780  128.8020   61.7360 N   0  0  0  0  0  0  0  0  0  0  0  0
  132.6894  131.5174   62.2983 H   0  0  0  0  0  0  0  0  0  0  0  0
  132.5889  130.6167   60.7474 H   0  0  0  0  0  0  0  0  0  0  0  0
  132.5470  132.4125   60.7474 H   0  0  0  0  0  0  0  0  0  0  0  0
  125.8851  125.3295   58.2545 H   0  0  0  0  0  0  0  0  0  0  0  0
  124.6660  123.5429   57.0411 H   0  0  0  0  0  0  0  0  0  0  0  0
  123.9717  122.2186   55.3397 H   0  0  0  0  0  0  0  0  0  0  0  0
  125.5028  122.4187   54.4220 H   0  0  0  0  0  0  0  0  0  0  0  0
  124.6562  120.8345   54.4220 H   0  0  0  0  0  0  0  0  0  0  0  0
  128.3030  121.2215   56.8022 H   0  0  0  0  0  0  0  0  0  0  0  0
  129.5203  123.0104   58.0181 H   0  0  0  0  0  0  0  0  0  0  0  0
  129.6504  124.0205   60.2273 H   0  0  0  0  0  0  0  0  0  0  0  0
  129.9096  126.5543   63.2941 H   0  0  0  0  0  0  0  0  0  0  0  0
  131.5625  125.9869   65.0610 H   0  0  0  0  0  0  0  0  0  0  0  0
  133.8448  124.7677   66.7980 H   0  0  0  0  0  0  0  0  0  0  0  0
  134.3199  126.3313   66.0521 H   0  0  0  0  0  0  0  0  0  0  0  0
  132.5970  125.8229   66.0521 H   0  0  0  0  0  0  0  0  0  0  0  0
  134.1727  124.2759   62.0692 H   0  0  0  0  0  0  0  0  0  0  0  0
  132.5166  124.8465   60.3023 H   0  0  0  0  0  0  0  0  0  0  0  0
  132.0200  128.1240   61.8360 H   0  0  0  0  0  0  0  0  0  0  0  0
  131.2610  129.5610   62.4020 H   0  0  0  0  0  0  0  0  0  0  0  0
  1  2  1  0
  2  3  1  0
  3  4  2  0
  3  5  1  0
  5  6  1  0
  6  7  1  0
  7  8  2  0
  8  9  1  0
  9 10  1  0
 10 11  2  0
 11 12  1  0
 12 13  2  0
 13 14  1  0
 14 15  1  0
 13 16  1  0
 16 17  2  0
  9 18  2  0
 18 19  1  0
 19 20  1  0
 20 21  2  0
 21 22  1  0
 22 23  2  0
 23 24  1  0
 24 25  1  0
 23 26  1  0
 26 27  2  0
 19 28  2  0
 28 29  1  0
 29 30  1  0
 29  5  2  0
 28  7  1  0
 17 10  1  0
 27 20  1  0
  1 31  1  0
  1 32  1  0
  1 33  1  0
 11 34  1  0
 12 35  1  0
 15 36  1  0
 15 37  1  0
 15 38  1  0
 16 39  1  0
 17 40  1  0
 18 41  1  0
 21 42  1  0
 22 43  1  0
 25 44  1  0
 25 45  1  0
 25 46  1  0
 26 47  1  0
 27 48  1  0
 30 49  1  0
 30 50  1  0
M  END
>  <Binding energies>  (1) 
[-7.77]

>  <Ligand effiencies>  (1) 
[-0.2428125]

>  <Interactions>  (1) 
["H-A:GLY:454:N:4049, H-A:ARG:545:NH2:4928, V-A:ARG:545:CZ:4926, V-A:ASP:366:CG:3212, H-A:TYR:484:OH:4347, V-A:ARG:545:CD:4923, V-A:ARG:545:CG:4922, H-A:GLU:543:OE2:4910, V-A:PRO:540:CB:4885, H-A:ASP:366:OD2:3214, V-A:PRO:540:CA:4883, H-A:ALA:541:N:4891, V-A:GLU:543:CD:4908, H-A:GLU:543:OE1:4909, V-B:PRO:540:CB:9857, V-B:TYR:539:CE2:9848, V-B:PRO:540:CD:9859, V-B:PRO:540:N:9856, V-B:PRO:540:CA:9855, V-B:MET:535:CE:9807, V-B:TYR:539:CA:9841, V-B:TYR:539:CD2:9846, V-B:TYR:531:CE2:9765, V-B:TYR:539:C:9839, V-B:LEU:363:CD1:8160, V-B:TYR:539:CG:9844, V-B:TYR:539:CZ:9849, V-A:PRO:540:C:4881, H-A:ASP:366:OD1:3213, V-B:TYR:539:CE1:9847, V-B:TYR:539:CD1:9845, V-B:ILE:538:CG2:9835, H-B:TYR:539:N:9842, V-B:ILE:538:CA:9832, V-B:MET:535:CG:9805, V-B:ILE:538:CB:9834, V-B:ILE:538:CG1:9836"]

$$$$
9a_Ghoteimi_2023
     RDKit          3D

 85 91  0  0  0  0  0  0  0  0999 V2000
  125.4190  139.3050   60.6960 C   0  0  0  0  0  0  0  0  0  0  0  0
  125.4220  138.3300   59.5140 C   0  0  0  0  0  0  0  0  0  0  0  0
  125.6600  137.0100   59.9880 O   0  0  0  0  0  0  0  0  0  0  0  0
  124.6330  136.1540   60.2260 C   0  0  0  0  0  0  0  0  0  0  0  0
  123.4570  136.4080   59.9430 O   0  0  0  0  0  0  0  0  0  0  0  0
  125.0660  134.8710   60.8730 C   0  0  0  0  0  0  0  0  0  0  0  0
  126.4160  134.5010   60.8240 C   0  0  0  0  0  0  0  0  0  0  0  0
  126.8490  133.3160   61.4140 C   0  0  0  0  0  0  0  0  0  0  0  0
  125.9440  132.4780   62.0650 C   0  0  0  0  0  0  0  0  0  0  0  0
  126.4930  131.3080   62.6230 N   0  0  0  0  0  0  0  0  0  0  0  0
  126.4640  130.8450   63.8980 C   0  0  0  0  0  0  0  0  0  0  0  0
  125.9080  131.4240   64.8320 O   0  0  0  0  0  0  0  0  0  0  0  0
  127.1490  129.5670   64.1160 C   0  0  0  0  0  0  0  0  0  0  0  0
  127.4590  128.4810   62.7600 S   0  0  0  0  0  0  0  0  0  0  0  0
  128.2450  127.3240   63.8090 C   0  0  0  0  0  0  0  0  0  0  0  0
  128.7650  126.1930   63.3350 N   0  0  0  0  0  0  0  0  0  0  0  0
  129.3650  125.3670   64.2320 C   0  0  0  0  0  0  0  0  0  0  0  0
  129.9510  124.1090   63.6770 C   0  0  0  0  0  0  0  0  0  0  0  0
  131.2550  123.7250   64.0080 C   0  0  0  0  0  0  0  0  0  0  0  0
  131.8080  122.5540   63.4960 C   0  0  0  0  0  0  0  0  0  0  0  0
  131.0720  121.7160   62.6440 C   0  0  0  0  0  0  0  0  0  0  0  0
  131.6200  120.5460   62.1070 N   0  0  0  0  0  0  0  0  0  0  0  0
  130.7650  119.4680   61.5700 C   0  0  0  0  0  0  0  0  0  0  0  0
  131.5060  118.1310   61.3620 C   0  0  0  0  0  0  0  0  0  0  0  0
  132.6480  118.3300   60.5450 O   0  0  0  0  0  0  0  0  0  0  0  0
  133.5570  119.2450   61.1360 C   0  0  0  0  0  0  0  0  0  0  0  0
  132.8750  120.6140   61.3300 C   0  0  0  0  0  0  0  0  0  0  0  0
  129.7700  122.1130   62.3040 C   0  0  0  0  0  0  0  0  0  0  0  0
  129.2190  123.2850   62.8140 C   0  0  0  0  0  0  0  0  0  0  0  0
  129.4190  125.6600   65.5970 C   0  0  0  0  0  0  0  0  0  0  0  0
  128.8560  126.8380   66.1010 C   0  0  0  0  0  0  0  0  0  0  0  0
  128.9090  127.0840   67.5650 C   0  0  0  0  0  0  0  0  0  0  0  0
  128.2360  126.2410   68.4530 C   0  0  0  0  0  0  0  0  0  0  0  0
  128.2980  126.4650   69.8250 C   0  0  0  0  0  0  0  0  0  0  0  0
  129.0500  127.5280   70.3480 C   0  0  0  0  0  0  0  0  0  0  0  0
  129.1180  127.7800   71.7210 N   0  0  0  0  0  0  0  0  0  0  0  0
  128.9730  129.1660   72.2070 C   0  0  0  0  0  0  0  0  0  0  0  0
  128.6870  129.2560   73.7210 C   0  0  0  0  0  0  0  0  0  0  0  0
  129.6930  128.5680   74.4470 O   0  0  0  0  0  0  0  0  0  0  0  0
  129.7480  127.1950   74.0940 C   0  0  0  0  0  0  0  0  0  0  0  0
  130.0620  127.0490   72.5900 C   0  0  0  0  0  0  0  0  0  0  0  0
  129.7240  128.3670   69.4480 C   0  0  0  0  0  0  0  0  0  0  0  0
  129.6580  128.1450   68.0760 C   0  0  0  0  0  0  0  0  0  0  0  0
  128.2540  127.7360   65.1740 C   0  0  0  0  0  0  0  0  0  0  0  0
  127.6410  129.0340   65.3160 C   0  0  0  0  0  0  0  0  0  0  0  0
  127.5660  129.6850   66.5200 N   0  0  0  0  0  0  0  0  0  0  0  0
  124.5890  132.8420   62.1220 C   0  0  0  0  0  0  0  0  0  0  0  0
  124.1580  134.0270   61.5310 C   0  0  0  0  0  0  0  0  0  0  0  0
  125.4207  138.7383   61.6388 H   0  0  0  0  0  0  0  0  0  0  0  0
  126.3152  139.9411   60.6489 H   0  0  0  0  0  0  0  0  0  0  0  0
  124.5189  139.9356   60.6489 H   0  0  0  0  0  0  0  0  0  0  0  0
  124.4470  138.3668   59.0060 H   0  0  0  0  0  0  0  0  0  0  0  0
  126.2152  138.6140   58.8068 H   0  0  0  0  0  0  0  0  0  0  0  0
  127.1412  135.1526   60.3146 H   0  0  0  0  0  0  0  0  0  0  0  0
  127.9125  133.0390   61.3662 H   0  0  0  0  0  0  0  0  0  0  0  0
  126.9810  130.7270   61.9580 H   0  0  0  0  0  0  0  0  0  0  0  0
  131.8518  124.3570   64.6821 H   0  0  0  0  0  0  0  0  0  0  0  0
  132.8394  122.2811   63.7639 H   0  0  0  0  0  0  0  0  0  0  0  0
  129.9364  119.2995   62.2736 H   0  0  0  0  0  0  0  0  0  0  0  0
  130.4164  119.7984   60.5804 H   0  0  0  0  0  0  0  0  0  0  0  0
  131.8214  117.7339   62.3381 H   0  0  0  0  0  0  0  0  0  0  0  0
  130.8299  117.4170   60.8689 H   0  0  0  0  0  0  0  0  0  0  0  0
  133.8805  118.8573   62.1133 H   0  0  0  0  0  0  0  0  0  0  0  0
  134.4285  119.3658   60.4758 H   0  0  0  0  0  0  0  0  0  0  0  0
  133.5746  121.2792   61.8573 H   0  0  0  0  0  0  0  0  0  0  0  0
  132.6143  120.9887   60.3292 H   0  0  0  0  0  0  0  0  0  0  0  0
  129.1745  121.4874   61.6228 H   0  0  0  0  0  0  0  0  0  0  0  0
  128.1933  123.5679   62.5348 H   0  0  0  0  0  0  0  0  0  0  0  0
  129.9104  124.9557   66.2844 H   0  0  0  0  0  0  0  0  0  0  0  0
  127.6524  125.3934   68.0644 H   0  0  0  0  0  0  0  0  0  0  0  0
  127.7502  125.7999   70.5087 H   0  0  0  0  0  0  0  0  0  0  0  0
  129.9056  129.7095   71.9951 H   0  0  0  0  0  0  0  0  0  0  0  0
  128.1094  129.6050   71.6859 H   0  0  0  0  0  0  0  0  0  0  0  0
  128.6750  130.3125   74.0272 H   0  0  0  0  0  0  0  0  0  0  0  0
  127.7107  128.7951   73.9319 H   0  0  0  0  0  0  0  0  0  0  0  0
  130.5357  126.6994   74.6804 H   0  0  0  0  0  0  0  0  0  0  0  0
  128.7750  126.7281   74.3068 H   0  0  0  0  0  0  0  0  0  0  0  0
  131.0756  127.4348   72.4062 H   0  0  0  0  0  0  0  0  0  0  0  0
  129.9726  125.9812   72.3414 H   0  0  0  0  0  0  0  0  0  0  0  0
  130.3132  129.2126   69.8325 H   0  0  0  0  0  0  0  0  0  0  0  0
  130.2004  128.8109   67.3887 H   0  0  0  0  0  0  0  0  0  0  0  0
  128.2160  129.4960   67.2710 H   0  0  0  0  0  0  0  0  0  0  0  0
  126.8530  130.3800   66.6990 H   0  0  0  0  0  0  0  0  0  0  0  0
  123.8665  132.1898   62.6345 H   0  0  0  0  0  0  0  0  0  0  0  0
  123.0947  134.3045   61.5804 H   0  0  0  0  0  0  0  0  0  0  0  0
  1  2  1  0
  2  3  1  0
  3  4  1  0
  4  5  2  0
  4  6  1  0
  6  7  2  0
  7  8  1  0
  8  9  2  0
  9 10  1  0
 10 11  1  0
 11 12  2  0
 11 13  1  0
 13 14  1  0
 14 15  1  0
 15 16  2  0
 16 17  1  0
 17 18  1  0
 18 19  2  0
 19 20  1  0
 20 21  2  0
 21 22  1  0
 22 23  1  0
 23 24  1  0
 24 25  1  0
 25 26  1  0
 26 27  1  0
 21 28  1  0
 28 29  2  0
 17 30  2  0
 30 31  1  0
 31 32  1  0
 32 33  2  0
 33 34  1  0
 34 35  2  0
 35 36  1  0
 36 37  1  0
 37 38  1  0
 38 39  1  0
 39 40  1  0
 40 41  1  0
 35 42  1  0
 42 43  2  0
 31 44  2  0
 44 45  1  0
 45 46  1  0
  9 47  1  0
 47 48  2  0
 48  6  1  0
 45 13  2  0
 44 15  1  0
 29 18  1  0
 43 32  1  0
 27 22  1  0
 41 36  1  0
  1 49  1  0
  1 50  1  0
  1 51  1  0
  2 52  1  0
  2 53  1  0
  7 54  1  0
  8 55  1  0
 10 56  1  0
 19 57  1  0
 20 58  1  0
 23 59  1  0
 23 60  1  0
 24 61  1  0
 24 62  1  0
 26 63  1  0
 26 64  1  0
 27 65  1  0
 27 66  1  0
 28 67  1  0
 29 68  1  0
 30 69  1  0
 33 70  1  0
 34 71  1  0
 37 72  1  0
 37 73  1  0
 38 74  1  0
 38 75  1  0
 40 76  1  0
 40 77  1  0
 41 78  1  0
 41 79  1  0
 42 80  1  0
 43 81  1  0
 46 82  1  0
 46 83  1  0
 47 84  1  0
 48 85  1  0
M  END
>  <Binding energies>  (1) 
[-10.63]

>  <Ligand effiencies>  (1) 
[-0.2084313725490196]

>  <Interactions>  (1) 
["H-A:LYS:547:NZ:4951, V-B:HIS:456:CD2:9039, V-A:GLU:543:C:4902, V-A:HIS:456:CE1:4069, V-B:GLU:543:CG:9879, V-B:GLU:543:CD:9880, V-B:ALA:541:CB:9864, V-A:TYR:539:CD1:4873, V-B:ILE:369:CG2:8208, V-B:LEU:475:CD1:9229, V-A:ALA:541:CB:4892, V-B:ILE:369:CD1:8210, V-A:GLU:543:CD:4908, H-A:GLU:543:OE1:4909, V-A:GLU:543:CG:4907, V-A:PRO:482:CG:4326, V-A:PRO:482:CB:4325, V-A:ILE:369:CG2:3236, V-A:LEU:475:CD1:4257, V-A:SER:385:C:3404, V-A:SER:385:CA:3406, V-B:GLU:543:CB:9878, V-B:GLU:543:C:9874, V-A:GLU:543:CB:4906, V-B:HIS:456:CE1:9041, V-B:TYR:484:CZ:9318, V-B:TYR:484:CE2:9317, V-A:TYR:539:CB:4871, V-B:PRO:482:CG:9298, V-B:LEU:373:CD1:8251, H-B:SER:385:OG:8381, V-B:SER:385:CB:8380, V-B:HIS:383:CD2:8363, H-A:SER:385:OG:3409, H-A:HIS:383:NE2:3393, H-B:TYR:484:OH:9319"]

$$$$
9b_Ghoteimi_2023
     RDKit          3D

 72 78  0  0  0  0  0  0  0  0999 V2000
  126.0120  129.6220   60.1930 N   0  0  0  0  0  0  0  0  0  0  0  0
  126.4640  128.6710   61.0720 C   0  0  0  0  0  0  0  0  0  0  0  0
  126.5800  127.3100   60.7480 C   0  0  0  0  0  0  0  0  0  0  0  0
  126.2890  126.6460   59.4750 C   0  0  0  0  0  0  0  0  0  0  0  0
  125.8940  127.2940   58.5040 O   0  0  0  0  0  0  0  0  0  0  0  0
  126.4810  125.3030   59.4610 N   0  0  0  0  0  0  0  0  0  0  0  0
  126.2740  124.4290   58.4020 C   0  0  0  0  0  0  0  0  0  0  0  0
  126.7490  123.1180   58.3930 C   0  0  0  0  0  0  0  0  0  0  0  0
  126.3360  122.5970   57.1880 C   0  0  0  0  0  0  0  0  0  0  0  0
  125.6490  123.5450   56.5080 O   0  0  0  0  0  0  0  0  0  0  0  0
  125.6160  124.7010   57.2870 N   0  0  0  0  0  0  0  0  0  0  0  0
  127.1620  126.3740   62.1250 S   0  0  0  0  0  0  0  0  0  0  0  0
  127.2270  127.8040   63.1270 C   0  0  0  0  0  0  0  0  0  0  0  0
  127.5990  127.7450   64.4050 N   0  0  0  0  0  0  0  0  0  0  0  0
  127.5990  128.9120   65.1020 C   0  0  0  0  0  0  0  0  0  0  0  0
  128.0010  128.8140   66.5380 C   0  0  0  0  0  0  0  0  0  0  0  0
  128.1860  129.9620   67.3180 C   0  0  0  0  0  0  0  0  0  0  0  0
  128.5740  129.8650   68.6510 C   0  0  0  0  0  0  0  0  0  0  0  0
  128.8050  128.6170   69.2490 C   0  0  0  0  0  0  0  0  0  0  0  0
  129.1930  128.5040   70.5890 N   0  0  0  0  0  0  0  0  0  0  0  0
  129.3410  127.1860   71.2390 C   0  0  0  0  0  0  0  0  0  0  0  0
  130.0970  127.2350   72.5820 C   0  0  0  0  0  0  0  0  0  0  0  0
  129.4760  128.1630   73.4550 O   0  0  0  0  0  0  0  0  0  0  0  0
  129.4810  129.4730   72.9110 C   0  0  0  0  0  0  0  0  0  0  0  0
  128.7090  129.4950   71.5740 C   0  0  0  0  0  0  0  0  0  0  0  0
  128.5990  127.4710   68.4690 C   0  0  0  0  0  0  0  0  0  0  0  0
  128.2070  127.5670   67.1370 C   0  0  0  0  0  0  0  0  0  0  0  0
  127.2550  130.1320   64.5150 C   0  0  0  0  0  0  0  0  0  0  0  0
  126.8830  130.2020   63.1680 C   0  0  0  0  0  0  0  0  0  0  0  0
  126.5550  131.5270   62.5840 C   0  0  0  0  0  0  0  0  0  0  0  0
  125.2710  132.0570   62.7160 C   0  0  0  0  0  0  0  0  0  0  0  0
  124.9660  133.3070   62.1870 C   0  0  0  0  0  0  0  0  0  0  0  0
  125.9370  134.0620   61.5100 C   0  0  0  0  0  0  0  0  0  0  0  0
  125.6560  135.3260   60.9840 N   0  0  0  0  0  0  0  0  0  0  0  0
  126.7720  136.2230   60.6250 C   0  0  0  0  0  0  0  0  0  0  0  0
  126.3370  137.6930   60.4450 C   0  0  0  0  0  0  0  0  0  0  0  0
  125.2960  137.7770   59.4840 O   0  0  0  0  0  0  0  0  0  0  0  0
  124.1570  137.0250   59.8750 C   0  0  0  0  0  0  0  0  0  0  0  0
  124.5370  135.5390   60.0460 C   0  0  0  0  0  0  0  0  0  0  0  0
  127.2290  133.5270   61.3990 C   0  0  0  0  0  0  0  0  0  0  0  0
  127.5340  132.2760   61.9280 C   0  0  0  0  0  0  0  0  0  0  0  0
  126.8420  128.9870   62.4270 C   0  0  0  0  0  0  0  0  0  0  0  0
  125.9180  130.5920   60.4590 H   0  0  0  0  0  0  0  0  0  0  0  0
  125.7570  129.3820   59.2440 H   0  0  0  0  0  0  0  0  0  0  0  0
  126.8160  124.8790   60.3140 H   0  0  0  0  0  0  0  0  0  0  0  0
  127.3281  122.6104   59.1785 H   0  0  0  0  0  0  0  0  0  0  0  0
  126.5326  121.5742   56.8340 H   0  0  0  0  0  0  0  0  0  0  0  0
  128.0225  130.9538   66.8712 H   0  0  0  0  0  0  0  0  0  0  0  0
  128.7016  130.7817   69.2454 H   0  0  0  0  0  0  0  0  0  0  0  0
  128.3372  126.7746   71.4210 H   0  0  0  0  0  0  0  0  0  0  0  0
  129.9365  126.5589   70.5592 H   0  0  0  0  0  0  0  0  0  0  0  0
  130.0847  126.2365   73.0434 H   0  0  0  0  0  0  0  0  0  0  0  0
  131.1353  127.5497   72.4003 H   0  0  0  0  0  0  0  0  0  0  0  0
  129.0005  130.1633   73.6200 H   0  0  0  0  0  0  0  0  0  0  0  0
  130.5206  129.7845   72.7317 H   0  0  0  0  0  0  0  0  0  0  0  0
  127.6489  129.2878   71.7822 H   0  0  0  0  0  0  0  0  0  0  0  0
  128.8644  130.4896   71.1306 H   0  0  0  0  0  0  0  0  0  0  0  0
  128.7498  126.4780   68.9175 H   0  0  0  0  0  0  0  0  0  0  0  0
  128.0573  126.6503   66.5477 H   0  0  0  0  0  0  0  0  0  0  0  0
  127.2769  131.0504   65.1201 H   0  0  0  0  0  0  0  0  0  0  0  0
  124.4944  131.4824   63.2421 H   0  0  0  0  0  0  0  0  0  0  0  0
  123.9488  133.7099   62.3008 H   0  0  0  0  0  0  0  0  0  0  0  0
  127.5278  136.1773   61.4229 H   0  0  0  0  0  0  0  0  0  0  0  0
  127.1698  135.8792   59.6588 H   0  0  0  0  0  0  0  0  0  0  0  0
  125.9773  138.0868   61.4070 H   0  0  0  0  0  0  0  0  0  0  0  0
  127.1973  138.2842   60.0980 H   0  0  0  0  0  0  0  0  0  0  0  0
  123.7735  137.4148   60.8295 H   0  0  0  0  0  0  0  0  0  0  0  0
  123.3834  137.1121   59.0979 H   0  0  0  0  0  0  0  0  0  0  0  0
  123.6580  134.9951   60.4221 H   0  0  0  0  0  0  0  0  0  0  0  0
  124.8628  135.1711   59.0619 H   0  0  0  0  0  0  0  0  0  0  0  0
  128.0125  134.1044   60.8865 H   0  0  0  0  0  0  0  0  0  0  0  0
  128.5534  131.8747   61.8285 H   0  0  0  0  0  0  0  0  0  0  0  0
  1  2  1  0
  2  3  2  0
  3  4  1  0
  4  5  2  0
  4  6  1  0
  6  7  1  0
  7  8  1  0
  8  9  2  0
  9 10  1  0
 10 11  1  0
  3 12  1  0
 12 13  1  0
 13 14  2  0
 14 15  1  0
 15 16  1  0
 16 17  2  0
 17 18  1  0
 18 19  2  0
 19 20  1  0
 20 21  1  0
 21 22  1  0
 22 23  1  0
 23 24  1  0
 24 25  1  0
 19 26  1  0
 26 27  2  0
 15 28  2  0
 28 29  1  0
 29 30  1  0
 30 31  2  0
 31 32  1  0
 32 33  2  0
 33 34  1  0
 34 35  1  0
 35 36  1  0
 36 37  1  0
 37 38  1  0
 38 39  1  0
 33 40  1  0
 40 41  2  0
 29 42  2  0
 42  2  1  0
 11  7  2  0
 42 13  1  0
 27 16  1  0
 41 30  1  0
 25 20  1  0
 39 34  1  0
  1 43  1  0
  1 44  1  0
  6 45  1  0
  8 46  1  0
  9 47  1  0
 17 48  1  0
 18 49  1  0
 21 50  1  0
 21 51  1  0
 22 52  1  0
 22 53  1  0
 24 54  1  0
 24 55  1  0
 25 56  1  0
 25 57  1  0
 26 58  1  0
 27 59  1  0
 28 60  1  0
 31 61  1  0
 32 62  1  0
 35 63  1  0
 35 64  1  0
 36 65  1  0
 36 66  1  0
 38 67  1  0
 38 68  1  0
 39 69  1  0
 39 70  1  0
 40 71  1  0
 41 72  1  0
M  END
>  <Binding energies>  (1) 
[-9.06]

>  <Ligand effiencies>  (1) 
[-0.20133333333333334]

>  <Interactions>  (1) 
["V-B:HIS:456:CG:9037, V-A:LYS:547:CE:4950, H-A:LYS:547:NZ:4951, V-B:HIS:456:CD2:9039, V-A:GLU:543:C:4902, V-A:HIS:456:CE1:4069, V-B:GLU:543:CD:9880, V-A:TYR:539:CD1:4873, V-B:ILE:369:CG2:8208, V-B:ASP:366:CG:8184, V-B:LEU:475:CD1:9229, V-A:ALA:541:CB:4892, H-B:TYR:531:OH:9767, V-B:ASP:366:CB:8183, V-A:TYR:539:C:4867, V-A:GLU:543:CD:4908, V-A:GLU:543:CG:4907, V-B:PRO:540:CB:9857, V-B:PRO:540:CD:9859, V-B:PRO:540:N:9856, V-B:PRO:540:CA:9855, V-B:MET:535:CE:9807, H-B:ASP:366:OD1:8185, V-B:TYR:539:C:9839, V-B:TYR:484:CD2:9315, V-A:GLU:543:CA:4904, V-A:GLU:543:CB:4906, V-B:HIS:456:CE1:9041, V-B:TYR:484:CZ:9318, V-B:TYR:484:CE2:9317, V-B:PRO:482:CB:9297, V-A:TYR:539:CB:4871, V-B:PRO:482:CG:9298, V-B:LEU:373:CD1:8251, V-B:SER:385:CB:8380, V-B:SER:385:CA:8378"]

$$$$
9c_Ghoteimi_2023
     RDKit          3D

 72 78  0  0  0  0  0  0  0  0999 V2000
  127.2990  129.4710   66.7950 N   0  0  0  0  0  0  0  0  0  0  0  0
  127.5360  128.9270   65.5580 C   0  0  0  0  0  0  0  0  0  0  0  0
  127.1080  129.5160   64.3590 C   0  0  0  0  0  0  0  0  0  0  0  0
  126.3770  130.7730   64.1690 C   0  0  0  0  0  0  0  0  0  0  0  0
  125.8780  131.3640   65.1280 O   0  0  0  0  0  0  0  0  0  0  0  0
  126.2960  131.2100   62.8880 N   0  0  0  0  0  0  0  0  0  0  0  0
  125.6530  132.3540   62.4360 C   0  0  0  0  0  0  0  0  0  0  0  0
  124.3980  132.7030   62.6220 N   0  0  0  0  0  0  0  0  0  0  0  0
  124.1260  133.8580   62.0440 C   0  0  0  0  0  0  0  0  0  0  0  0
  125.1770  134.4700   61.3670 C   0  0  0  0  0  0  0  0  0  0  0  0
  126.5940  133.4730   61.5020 S   0  0  0  0  0  0  0  0  0  0  0  0
  127.5590  128.5310   62.9680 S   0  0  0  0  0  0  0  0  0  0  0  0
  128.2990  127.3310   64.0000 C   0  0  0  0  0  0  0  0  0  0  0  0
  128.8500  126.2260   63.5010 N   0  0  0  0  0  0  0  0  0  0  0  0
  129.3830  125.3480   64.3900 C   0  0  0  0  0  0  0  0  0  0  0  0
  129.9750  124.1060   63.8050 C   0  0  0  0  0  0  0  0  0  0  0  0
  131.3150  123.7680   64.0260 C   0  0  0  0  0  0  0  0  0  0  0  0
  131.8630  122.6150   63.4720 C   0  0  0  0  0  0  0  0  0  0  0  0
  131.0930  121.7630   62.6640 C   0  0  0  0  0  0  0  0  0  0  0  0
  131.6280  120.5970   62.1050 N   0  0  0  0  0  0  0  0  0  0  0  0
  132.8310  120.6360   61.2490 C   0  0  0  0  0  0  0  0  0  0  0  0
  133.4750  119.2530   61.0150 C   0  0  0  0  0  0  0  0  0  0  0  0
  132.5110  118.3530   60.4930 O   0  0  0  0  0  0  0  0  0  0  0  0
  131.4260  118.1770   61.3890 C   0  0  0  0  0  0  0  0  0  0  0  0
  130.7200  119.5270   61.6410 C   0  0  0  0  0  0  0  0  0  0  0  0
  129.7460  122.0970   62.4610 C   0  0  0  0  0  0  0  0  0  0  0  0
  129.1980  123.2480   63.0200 C   0  0  0  0  0  0  0  0  0  0  0  0
  129.3910  125.5900   65.7660 C   0  0  0  0  0  0  0  0  0  0  0  0
  128.8340  126.7610   66.2920 C   0  0  0  0  0  0  0  0  0  0  0  0
  128.8950  126.9870   67.7570 C   0  0  0  0  0  0  0  0  0  0  0  0
  128.3480  126.0530   68.6380 C   0  0  0  0  0  0  0  0  0  0  0  0
  128.4180  126.2530   70.0140 C   0  0  0  0  0  0  0  0  0  0  0  0
  129.0360  127.3950   70.5460 C   0  0  0  0  0  0  0  0  0  0  0  0
  129.1280  127.6120   71.9240 N   0  0  0  0  0  0  0  0  0  0  0  0
  130.0860  126.8140   72.7160 C   0  0  0  0  0  0  0  0  0  0  0  0
  129.8130  126.8670   74.2340 C   0  0  0  0  0  0  0  0  0  0  0  0
  129.7950  128.2160   74.6780 O   0  0  0  0  0  0  0  0  0  0  0  0
  128.7860  128.9690   74.0240 C   0  0  0  0  0  0  0  0  0  0  0  0
  129.0280  128.9670   72.4990 C   0  0  0  0  0  0  0  0  0  0  0  0
  129.6000  128.3180   69.6520 C   0  0  0  0  0  0  0  0  0  0  0  0
  129.5300  128.1170   68.2760 C   0  0  0  0  0  0  0  0  0  0  0  0
  128.2360  127.6790   65.3820 C   0  0  0  0  0  0  0  0  0  0  0  0
  126.7480  130.3110   66.9110 H   0  0  0  0  0  0  0  0  0  0  0  0
  127.6690  129.0500   67.6350 H   0  0  0  0  0  0  0  0  0  0  0  0
  126.7490  130.6530   62.1780 H   0  0  0  0  0  0  0  0  0  0  0  0
  123.1251  134.3114   62.0945 H   0  0  0  0  0  0  0  0  0  0  0  0
  125.1199  135.4298   60.8327 H   0  0  0  0  0  0  0  0  0  0  0  0
  131.9441  124.4231   64.6465 H   0  0  0  0  0  0  0  0  0  0  0  0
  132.9162  122.3671   63.6702 H   0  0  0  0  0  0  0  0  0  0  0  0
  132.5483  121.0564   60.2726 H   0  0  0  0  0  0  0  0  0  0  0  0
  133.5768  121.2518   61.7730 H   0  0  0  0  0  0  0  0  0  0  0  0
  134.3048  119.3535   60.3000 H   0  0  0  0  0  0  0  0  0  0  0  0
  133.8532  118.8634   61.9717 H   0  0  0  0  0  0  0  0  0  0  0  0
  130.7074  117.4664   60.9547 H   0  0  0  0  0  0  0  0  0  0  0  0
  131.8080  117.7873   62.3441 H   0  0  0  0  0  0  0  0  0  0  0  0
  130.2505  119.8537   60.7014 H   0  0  0  0  0  0  0  0  0  0  0  0
  129.9854  119.3599   62.4425 H   0  0  0  0  0  0  0  0  0  0  0  0
  129.1118  121.4382   61.8496 H   0  0  0  0  0  0  0  0  0  0  0  0
  128.1390  123.4861   62.8418 H   0  0  0  0  0  0  0  0  0  0  0  0
  129.8410  124.8505   66.4447 H   0  0  0  0  0  0  0  0  0  0  0  0
  127.8576  125.1515   68.2420 H   0  0  0  0  0  0  0  0  0  0  0  0
  127.9828  125.5055   70.6936 H   0  0  0  0  0  0  0  0  0  0  0  0
  130.0249  125.7664   72.3862 H   0  0  0  0  0  0  0  0  0  0  0  0
  131.0852  127.2425   72.5485 H   0  0  0  0  0  0  0  0  0  0  0  0
  128.8393  126.4010   74.4454 H   0  0  0  0  0  0  0  0  0  0  0  0
  130.6097  126.3235   74.7631 H   0  0  0  0  0  0  0  0  0  0  0  0
  127.8033  128.5231   74.2372 H   0  0  0  0  0  0  0  0  0  0  0  0
  128.8141  130.0052   74.3920 H   0  0  0  0  0  0  0  0  0  0  0  0
  128.1924  129.4915   72.0126 H   0  0  0  0  0  0  0  0  0  0  0  0
  129.9917  129.4670   72.3222 H   0  0  0  0  0  0  0  0  0  0  0  0
  130.1047  129.2133   70.0440 H   0  0  0  0  0  0  0  0  0  0  0  0
  129.9781  128.8537   67.5930 H   0  0  0  0  0  0  0  0  0  0  0  0
  1  2  1  0
  2  3  2  0
  3  4  1  0
  4  5  2  0
  4  6  1  0
  6  7  1  0
  7  8  2  0
  8  9  1  0
  9 10  2  0
 10 11  1  0
  3 12  1  0
 12 13  1  0
 13 14  2  0
 14 15  1  0
 15 16  1  0
 16 17  2  0
 17 18  1  0
 18 19  2  0
 19 20  1  0
 20 21  1  0
 21 22  1  0
 22 23  1  0
 23 24  1  0
 24 25  1  0
 19 26  1  0
 26 27  2  0
 15 28  2  0
 28 29  1  0
 29 30  1  0
 30 31  2  0
 31 32  1  0
 32 33  2  0
 33 34  1  0
 34 35  1  0
 35 36  1  0
 36 37  1  0
 37 38  1  0
 38 39  1  0
 33 40  1  0
 40 41  2  0
 29 42  2  0
 42  2  1  0
 11  7  1  0
 42 13  1  0
 27 16  1  0
 41 30  1  0
 25 20  1  0
 39 34  1  0
  1 43  1  0
  1 44  1  0
  6 45  1  0
  9 46  1  0
 10 47  1  0
 17 48  1  0
 18 49  1  0
 21 50  1  0
 21 51  1  0
 22 52  1  0
 22 53  1  0
 24 54  1  0
 24 55  1  0
 25 56  1  0
 25 57  1  0
 26 58  1  0
 27 59  1  0
 28 60  1  0
 31 61  1  0
 32 62  1  0
 35 63  1  0
 35 64  1  0
 36 65  1  0
 36 66  1  0
 38 67  1  0
 38 68  1  0
 39 69  1  0
 39 70  1  0
 40 71  1  0
 41 72  1  0
M  END
>  <Binding energies>  (1) 
[-9.17]

>  <Ligand effiencies>  (1) 
[-0.20377777777777778]

>  <Interactions>  (1) 
["H-A:LYS:547:NZ:4951, V-B:HIS:456:CD2:9039, V-A:GLU:543:C:4902, V-A:HIS:456:CD2:4067, V-A:HIS:456:CE1:4069, V-B:GLU:543:CG:9879, V-B:GLU:543:CD:9880, V-B:ALA:541:CB:9864, V-B:ILE:369:CG2:8208, V-B:LEU:475:CD1:9229, V-B:ILE:369:CD1:8210, V-A:GLU:543:CD:4908, V-A:PRO:482:CG:4326, V-A:PRO:482:CB:4325, V-A:ILE:369:CG2:3236, V-A:LEU:475:CD1:4257, V-A:SER:385:C:3404, V-A:SER:385:CA:3406, V-B:GLU:543:CB:9878, V-B:GLU:543:C:9874, V-A:GLU:543:CB:4906, V-B:HIS:456:CE1:9041, V-B:TYR:484:CZ:9318, V-B:TYR:484:CE2:9317, H-A:SER:385:OG:3409, H-A:HIS:383:NE2:3393, H-B:TYR:484:OH:9319, H-B:HIS:456:NE2:9042, V-B:GLU:543:CA:9876"]

$$$$
9d_Ghoteimi_2023
     RDKit          3D

 68 73  0  0  0  0  0  0  0  0999 V2000
  124.4060  129.6600   65.4660 C   0  0  0  0  0  0  0  0  0  0  0  0
  124.9820  130.7520   64.7640 O   0  0  0  0  0  0  0  0  0  0  0  0
  126.3310  130.8930   64.6830 C   0  0  0  0  0  0  0  0  0  0  0  0
  126.9020  131.9740   64.5120 O   0  0  0  0  0  0  0  0  0  0  0  0
  127.0540  129.6100   64.8170 C   0  0  0  0  0  0  0  0  0  0  0  0
  127.3520  128.6170   63.3910 S   0  0  0  0  0  0  0  0  0  0  0  0
  128.2000  127.4260   64.3490 C   0  0  0  0  0  0  0  0  0  0  0  0
  128.7470  126.3450   63.7940 N   0  0  0  0  0  0  0  0  0  0  0  0
  129.4010  125.4890   64.6230 C   0  0  0  0  0  0  0  0  0  0  0  0
  130.0280  124.2970   63.9740 C   0  0  0  0  0  0  0  0  0  0  0  0
  129.2560  123.4140   63.2120 C   0  0  0  0  0  0  0  0  0  0  0  0
  129.8300  122.3000   62.6070 C   0  0  0  0  0  0  0  0  0  0  0  0
  131.2030  122.0350   62.7300 C   0  0  0  0  0  0  0  0  0  0  0  0
  131.7920  120.9100   62.1420 N   0  0  0  0  0  0  0  0  0  0  0  0
  130.9700  119.8220   61.5740 C   0  0  0  0  0  0  0  0  0  0  0  0
  131.7600  118.5270   61.2890 C   0  0  0  0  0  0  0  0  0  0  0  0
  132.8730  118.8100   60.4590 O   0  0  0  0  0  0  0  0  0  0  0  0
  133.7600  119.7290   61.0750 C   0  0  0  0  0  0  0  0  0  0  0  0
  133.0340  121.0620   61.3550 C   0  0  0  0  0  0  0  0  0  0  0  0
  131.9700  122.9150   63.5080 C   0  0  0  0  0  0  0  0  0  0  0  0
  131.3950  124.0270   64.1160 C   0  0  0  0  0  0  0  0  0  0  0  0
  129.4750  125.6980   66.0020 C   0  0  0  0  0  0  0  0  0  0  0  0
  128.8860  126.8210   66.5920 C   0  0  0  0  0  0  0  0  0  0  0  0
  128.9710  126.9810   68.0680 C   0  0  0  0  0  0  0  0  0  0  0  0
  128.2910  126.1080   68.9200 C   0  0  0  0  0  0  0  0  0  0  0  0
  128.3890  126.2500   70.3020 C   0  0  0  0  0  0  0  0  0  0  0  0
  129.1840  127.2600   70.8680 C   0  0  0  0  0  0  0  0  0  0  0  0
  129.2920  127.4290   72.2500 N   0  0  0  0  0  0  0  0  0  0  0  0
  129.0040  128.7530   72.8350 C   0  0  0  0  0  0  0  0  0  0  0  0
  128.7780  128.7070   74.3620 C   0  0  0  0  0  0  0  0  0  0  0  0
  129.8920  128.1020   75.0010 O   0  0  0  0  0  0  0  0  0  0  0  0
  130.0990  126.7720   74.5460 C   0  0  0  0  0  0  0  0  0  0  0  0
  130.3620  126.7720   73.0250 C   0  0  0  0  0  0  0  0  0  0  0  0
  129.8620  128.1310   70.0020 C   0  0  0  0  0  0  0  0  0  0  0  0
  129.7620  127.9900   68.6210 C   0  0  0  0  0  0  0  0  0  0  0  0
  128.2330  127.7530   65.7370 C   0  0  0  0  0  0  0  0  0  0  0  0
  127.5860  129.0170   65.9700 C   0  0  0  0  0  0  0  0  0  0  0  0
  127.5160  129.6010   67.2080 N   0  0  0  0  0  0  0  0  0  0  0  0
  124.4965  129.8315   66.5488 H   0  0  0  0  0  0  0  0  0  0  0  0
  123.3433  129.5704   65.1965 H   0  0  0  0  0  0  0  0  0  0  0  0
  124.9321  128.7323   65.1965 H   0  0  0  0  0  0  0  0  0  0  0  0
  128.1793  123.6029   63.0892 H   0  0  0  0  0  0  0  0  0  0  0  0
  129.1973  121.6157   62.0227 H   0  0  0  0  0  0  0  0  0  0  0  0
  130.1653  119.5875   62.2863 H   0  0  0  0  0  0  0  0  0  0  0  0
  130.5862  120.1818   60.6080 H   0  0  0  0  0  0  0  0  0  0  0  0
  132.1135  118.0996   62.2389 H   0  0  0  0  0  0  0  0  0  0  0  0
  131.1024  117.8084   60.7779 H   0  0  0  0  0  0  0  0  0  0  0  0
  134.1213  119.3054   62.0237 H   0  0  0  0  0  0  0  0  0  0  0  0
  134.6088  119.9165   60.4009 H   0  0  0  0  0  0  0  0  0  0  0  0
  133.7185  121.7199   61.9106 H   0  0  0  0  0  0  0  0  0  0  0  0
  132.7464  121.4817   60.3797 H   0  0  0  0  0  0  0  0  0  0  0  0
  133.0450  122.7227   63.6398 H   0  0  0  0  0  0  0  0  0  0  0  0
  132.0223  124.7027   64.7159 H   0  0  0  0  0  0  0  0  0  0  0  0
  130.0042  124.9689   66.6331 H   0  0  0  0  0  0  0  0  0  0  0  0
  127.6734  125.3023   68.4964 H   0  0  0  0  0  0  0  0  0  0  0  0
  127.8365  125.5621   70.9589 H   0  0  0  0  0  0  0  0  0  0  0  0
  129.8541  129.4195   72.6273 H   0  0  0  0  0  0  0  0  0  0  0  0
  128.0723  129.1170   72.3774 H   0  0  0  0  0  0  0  0  0  0  0  0
  128.6523  129.7314   74.7424 H   0  0  0  0  0  0  0  0  0  0  0  0
  127.8752  128.1157   74.5752 H   0  0  0  0  0  0  0  0  0  0  0  0
  130.9664  126.3394   75.0661 H   0  0  0  0  0  0  0  0  0  0  0  0
  129.2013  126.1728   74.7583 H   0  0  0  0  0  0  0  0  0  0  0  0
  131.3074  127.3009   72.8337 H   0  0  0  0  0  0  0  0  0  0  0  0
  130.4030  125.7218   72.7004 H   0  0  0  0  0  0  0  0  0  0  0  0
  130.4819  128.9374   70.4208 H   0  0  0  0  0  0  0  0  0  0  0  0
  130.3099  128.6782   67.9606 H   0  0  0  0  0  0  0  0  0  0  0  0
  126.7430  130.1950   67.4740 H   0  0  0  0  0  0  0  0  0  0  0  0
  128.2350  129.4530   67.9020 H   0  0  0  0  0  0  0  0  0  0  0  0
  1  2  1  0
  2  3  1  0
  3  4  2  0
  3  5  1  0
  5  6  1  0
  6  7  1  0
  7  8  2  0
  8  9  1  0
  9 10  1  0
 10 11  2  0
 11 12  1  0
 12 13  2  0
 13 14  1  0
 14 15  1  0
 15 16  1  0
 16 17  1  0
 17 18  1  0
 18 19  1  0
 13 20  1  0
 20 21  2  0
  9 22  2  0
 22 23  1  0
 23 24  1  0
 24 25  2  0
 25 26  1  0
 26 27  2  0
 27 28  1  0
 28 29  1  0
 29 30  1  0
 30 31  1  0
 31 32  1  0
 32 33  1  0
 27 34  1  0
 34 35  2  0
 23 36  2  0
 36 37  1  0
 37 38  1  0
 37  5  2  0
 36  7  1  0
 21 10  1  0
 35 24  1  0
 19 14  1  0
 33 28  1  0
  1 39  1  0
  1 40  1  0
  1 41  1  0
 11 42  1  0
 12 43  1  0
 15 44  1  0
 15 45  1  0
 16 46  1  0
 16 47  1  0
 18 48  1  0
 18 49  1  0
 19 50  1  0
 19 51  1  0
 20 52  1  0
 21 53  1  0
 22 54  1  0
 25 55  1  0
 26 56  1  0
 29 57  1  0
 29 58  1  0
 30 59  1  0
 30 60  1  0
 32 61  1  0
 32 62  1  0
 33 63  1  0
 33 64  1  0
 34 65  1  0
 35 66  1  0
 38 67  1  0
 38 68  1  0
M  END
>  <Binding energies>  (1) 
[-8.13]

>  <Ligand effiencies>  (1) 
[-0.20325000000000001]

>  <Interactions>  (1) 
["H-A:LYS:547:NZ:4951, V-B:HIS:456:CD2:9039, V-A:GLU:543:C:4902, V-A:HIS:456:CD2:4067, V-A:HIS:456:CE1:4069, V-A:HIS:456:CG:4065, V-B:GLU:543:CG:9879, V-B:GLU:543:CD:9880, V-B:ALA:541:CB:9864, V-A:GLU:543:CD:4908, H-A:GLU:543:OE1:4909, V-A:GLU:543:CG:4907, V-A:PRO:482:CG:4326, V-A:ILE:369:CG2:3236, V-A:LEU:475:CD1:4257, V-A:SER:385:C:3404, V-A:SER:385:CA:3406, V-B:GLU:543:CB:9878, V-B:GLU:543:C:9874, V-A:GLU:543:CB:4906, V-B:HIS:456:CE1:9041, V-B:TYR:484:CZ:9318, V-B:GLY:454:CA:9020, V-B:TYR:484:CE2:9317, V-B:ARG:545:CZ:9898, H-A:SER:385:OG:3409, H-A:HIS:383:NE2:3393, H-B:GLY:454:N:9021, H-B:TYR:484:OH:9319, H-A:GLU:543:O:4903"]

$$$$
RR10_Rahimova_2017
     RDKit          3D

 66 70  0  0  0  0  0  0  0  0999 V2000
  132.8410  125.3380   62.9240 C   0  0  0  0  0  0  0  0  0  0  0  0
  132.2090  124.9860   64.2810 C   0  0  1  0  0  0  0  0  0  0  0  0
  132.3820  126.1270   65.3110 C   0  0  0  0  0  0  0  0  0  0  0  0
  131.7710  125.7380   66.6760 C   0  0  0  0  0  0  0  0  0  0  0  0
  130.2670  125.3790   66.5630 C   0  0  1  0  0  0  0  0  0  0  0  0
  129.4710  126.5690   66.2320 N   0  0  0  0  0  0  0  0  0  0  0  0
  128.3530  126.9620   66.8690 C   0  0  0  0  0  0  0  0  0  0  0  0
  127.8830  126.3560   67.8360 O   0  0  0  0  0  0  0  0  0  0  0  0
  127.6500  128.2230   66.3250 C   0  0  1  0  0  0  0  0  0  0  0  0
  128.2150  129.4770   67.0430 C   0  0  0  0  0  0  0  0  0  0  0  0
  127.5800  130.7510   66.4360 C   0  0  0  0  0  0  0  0  0  0  0  0
  127.7060  130.7980   64.8950 C   0  0  0  0  0  0  0  0  0  0  0  0
  127.2030  129.5360   64.2880 N   0  0  0  0  0  0  0  0  0  0  0  0
  127.0200  129.5920   62.5270 S   0  0  0  0  0  0  0  0  0  0  0  0
  126.1090  128.5120   62.1280 O   0  0  0  0  0  0  0  0  0  0  0  0
  128.3610  129.6830   61.9360 O   0  0  0  0  0  0  0  0  0  0  0  0
  126.1670  131.1340   62.1960 C   0  0  0  0  0  0  0  0  0  0  0  0
  124.8310  131.2750   62.5870 C   0  0  0  0  0  0  0  0  0  0  0  0
  124.1090  132.4490   62.3560 C   0  0  0  0  0  0  0  0  0  0  0  0
  124.7910  133.4850   61.7130 C   0  0  0  0  0  0  0  0  0  0  0  0
  124.4410  134.7530   61.3150 N   0  0  0  0  0  0  0  0  0  0  0  0
  125.5420  135.3300   60.7170 C   0  0  0  0  0  0  0  0  0  0  0  0
  125.5440  136.7180   60.1430 C   0  0  0  0  0  0  0  0  0  0  0  0
  126.7540  137.3750   59.8780 C   0  0  0  0  0  0  0  0  0  0  0  0
  126.7570  138.6600   59.3420 C   0  0  0  0  0  0  0  0  0  0  0  0
  125.5500  139.2970   59.0700 C   0  0  0  0  0  0  0  0  0  0  0  0
  124.3400  138.6590   59.3280 C   0  0  0  0  0  0  0  0  0  0  0  0
  124.3370  137.3730   59.8630 C   0  0  0  0  0  0  0  0  0  0  0  0
  126.5790  134.5220   60.7090 N   0  0  0  0  0  0  0  0  0  0  0  0
  126.1450  133.3720   61.3150 C   0  0  0  0  0  0  0  0  0  0  0  0
  126.8450  132.1820   61.5630 C   0  0  0  0  0  0  0  0  0  0  0  0
  127.8870  128.3210   64.7980 C   0  0  0  0  0  0  0  0  0  0  0  0
  130.1070  124.2460   65.5140 C   0  0  0  0  0  0  0  0  0  0  0  0
  130.7090  124.6340   64.1450 C   0  0  0  0  0  0  0  0  0  0  0  0
  133.7912  125.8672   63.0883 H   0  0  0  0  0  0  0  0  0  0  0  0
  133.0290  124.4146   62.3565 H   0  0  0  0  0  0  0  0  0  0  0  0
  132.1549  125.9839   62.3565 H   0  0  0  0  0  0  0  0  0  0  0  0
  132.7459  124.0983   64.6468 H   0  0  0  0  0  0  0  0  0  0  0  0
  133.4544  126.3333   65.4426 H   0  0  0  0  0  0  0  0  0  0  0  0
  131.8610  127.0201   64.9355 H   0  0  0  0  0  0  0  0  0  0  0  0
  132.3143  124.8674   67.0722 H   0  0  0  0  0  0  0  0  0  0  0  0
  131.8619  126.6054   67.3464 H   0  0  0  0  0  0  0  0  0  0  0  0
  129.8874  125.0155   67.5293 H   0  0  0  0  0  0  0  0  0  0  0  0
  129.7340  127.0550   65.3870 H   0  0  0  0  0  0  0  0  0  0  0  0
  126.5682  128.1628   66.5149 H   0  0  0  0  0  0  0  0  0  0  0  0
  127.9761  129.4239   68.1154 H   0  0  0  0  0  0  0  0  0  0  0  0
  129.3064  129.5136   66.9110 H   0  0  0  0  0  0  0  0  0  0  0  0
  126.5134  130.7757   66.7038 H   0  0  0  0  0  0  0  0  0  0  0  0
  128.1188  131.6196   66.8424 H   0  0  0  0  0  0  0  0  0  0  0  0
  127.1172  131.6437   64.5101 H   0  0  0  0  0  0  0  0  0  0  0  0
  128.7667  130.9199   64.6302 H   0  0  0  0  0  0  0  0  0  0  0  0
  124.3329  130.4346   63.0926 H   0  0  0  0  0  0  0  0  0  0  0  0
  123.0582  132.5521   62.6645 H   0  0  0  0  0  0  0  0  0  0  0  0
  123.5520  135.2230   61.4130 H   0  0  0  0  0  0  0  0  0  0  0  0
  127.7077  136.8716   60.0951 H   0  0  0  0  0  0  0  0  0  0  0  0
  127.7095  139.1696   59.1344 H   0  0  0  0  0  0  0  0  0  0  0  0
  125.5521  140.3127   58.6478 H   0  0  0  0  0  0  0  0  0  0  0  0
  123.3898  139.1685   59.1102 H   0  0  0  0  0  0  0  0  0  0  0  0
  123.3812  136.8682   60.0671 H   0  0  0  0  0  0  0  0  0  0  0  0
  127.8992  132.0753   61.2677 H   0  0  0  0  0  0  0  0  0  0  0  0
  127.4768  127.4292   64.3016 H   0  0  0  0  0  0  0  0  0  0  0  0
  128.9652  128.3818   64.5888 H   0  0  0  0  0  0  0  0  0  0  0  0
  130.6182  123.3450   65.8840 H   0  0  0  0  0  0  0  0  0  0  0  0
  129.0314  124.0641   65.3724 H   0  0  0  0  0  0  0  0  0  0  0  0
  130.5992  123.7880   63.4506 H   0  0  0  0  0  0  0  0  0  0  0  0
  130.1743  125.5164   63.7635 H   0  0  0  0  0  0  0  0  0  0  0  0
  1  2  1  0
  2  3  1  0
  3  4  1  0
  4  5  1  0
  5  6  1  0
  6  7  1  0
  7  8  2  0
  7  9  1  0
  9 10  1  0
 10 11  1  0
 11 12  1  0
 12 13  1  0
 13 14  1  0
 14 15  2  0
 14 16  2  0
 14 17  1  0
 17 18  2  0
 18 19  1  0
 19 20  2  0
 20 21  1  0
 21 22  1  0
 22 23  1  0
 23 24  2  0
 24 25  1  0
 25 26  2  0
 26 27  1  0
 27 28  2  0
 22 29  2  0
 29 30  1  0
 30 31  2  0
 13 32  1  0
  5 33  1  0
 33 34  1  0
 34  2  1  0
 32  9  1  0
 31 17  1  0
 30 20  1  0
 28 23  1  0
  1 35  1  0
  1 36  1  0
  1 37  1  0
  2 38  1  1
  3 39  1  0
  3 40  1  0
  4 41  1  0
  4 42  1  0
  5 43  1  1
  6 44  1  0
  9 45  1  6
 10 46  1  0
 10 47  1  0
 11 48  1  0
 11 49  1  0
 12 50  1  0
 12 51  1  0
 18 52  1  0
 19 53  1  0
 21 54  1  0
 24 55  1  0
 25 56  1  0
 26 57  1  0
 27 58  1  0
 28 59  1  0
 31 60  1  0
 32 61  1  0
 32 62  1  0
 33 63  1  0
 33 64  1  0
 34 65  1  0
 34 66  1  0
M  END
>  <Binding energies>  (1) 
[-10.31]

>  <Ligand effiencies>  (1) 
[-0.2863888888888889]

>  <Interactions>  (1) 
["V-A:HIS:456:CE1:4069, V-A:TYR:484:CZ:4346, V-B:GLU:543:CG:9879, V-A:ARG:545:CZ:4926, V-A:ASP:366:CG:3212, V-B:GLU:543:CD:9880, H-B:GLU:543:OE2:9882, V-A:TYR:539:CD1:4873, V-B:ILE:369:CG2:8208, V-B:LEU:475:CD1:9229, V-B:ILE:369:CD1:8210, V-A:GLU:543:CD:4908, H-A:GLU:543:OE1:4909, V-A:GLU:543:CG:4907, V-A:TYR:539:CG:4872, H-B:ARG:545:NH2:9900, V-B:GLU:543:CB:9878, V-A:TYR:484:CE2:4345, V-A:GLU:543:CB:4906, V-B:HIS:456:CE1:9041, V-B:TYR:484:CZ:9318, V-B:GLY:454:CA:9020, V-B:TYR:484:CE2:9317, V-A:TYR:539:CB:4871, V-B:PRO:482:CG:9298, V-B:LEU:373:CD1:8251, H-B:SER:385:OG:8381, V-B:SER:385:CB:8380, V-A:ILE:343:CG2:2991, V-B:LEU:373:CG:8250, V-B:HIS:383:CE1:8365, V-A:VAL:344:CG1:3000, V-B:SER:385:CA:8378, V-B:LEU:373:CD2:8252, H-B:SER:385:O:8377"]

$$$$
RR11_Rahimova_2017
     RDKit          3D

 55 60  0  0  0  0  0  0  0  0999 V2000
  133.6640  123.6470   57.6870 N   0  0  0  0  0  0  0  0  0  0  0  0
  133.1870  124.0400   58.9360 C   0  0  0  0  0  0  0  0  0  0  0  0
  132.0090  124.7800   59.0270 C   0  0  0  0  0  0  0  0  0  0  0  0
  131.5320  125.1700   60.2740 C   0  0  0  0  0  0  0  0  0  0  0  0
  132.2260  124.8260   61.4420 C   0  0  0  0  0  0  0  0  0  0  0  0
  131.7080  125.2430   62.7860 C   0  0  0  0  0  0  0  0  0  0  0  0
  130.4490  125.5240   63.0420 N   0  0  0  0  0  0  0  0  0  0  0  0
  130.4130  125.8400   64.3750 C   0  0  0  0  0  0  0  0  0  0  0  0
  129.3180  126.2100   65.1690 C   0  0  0  0  0  0  0  0  0  0  0  0
  129.5370  126.4690   66.5270 C   0  0  0  0  0  0  0  0  0  0  0  0
  128.3680  126.8780   67.4120 C   0  0  0  0  0  0  0  0  0  0  0  0
  127.4070  127.8350   66.7210 C   0  0  0  0  0  0  0  0  0  0  0  0
  126.0380  127.7610   67.0060 C   0  0  0  0  0  0  0  0  0  0  0  0
  125.1180  128.6220   66.4050 C   0  0  0  0  0  0  0  0  0  0  0  0
  125.6010  129.5790   65.5030 C   0  0  0  0  0  0  0  0  0  0  0  0
  124.9120  130.5220   64.7850 N   0  0  0  0  0  0  0  0  0  0  0  0
  125.8250  131.1630   64.0870 C   0  0  0  0  0  0  0  0  0  0  0  0
  125.5310  132.2840   63.1320 C   0  0  0  0  0  0  0  0  0  0  0  0
  126.5750  132.9650   62.4920 C   0  0  0  0  0  0  0  0  0  0  0  0
  126.3040  134.0110   61.6150 C   0  0  0  0  0  0  0  0  0  0  0  0
  124.9840  134.3850   61.3710 C   0  0  0  0  0  0  0  0  0  0  0  0
  124.7110  135.4360   60.4960 N   0  0  0  0  0  0  0  0  0  0  0  0
  123.9360  133.7150   61.9970 C   0  0  0  0  0  0  0  0  0  0  0  0
  124.2090  132.6690   62.8740 C   0  0  0  0  0  0  0  0  0  0  0  0
  127.0930  130.6780   64.3270 N   0  0  0  0  0  0  0  0  0  0  0  0
  126.9890  129.6510   65.2350 C   0  0  0  0  0  0  0  0  0  0  0  0
  127.9150  128.7950   65.8370 C   0  0  0  0  0  0  0  0  0  0  0  0
  130.8240  126.3850   67.0700 C   0  0  0  0  0  0  0  0  0  0  0  0
  131.9360  126.0250   66.3050 C   0  0  0  0  0  0  0  0  0  0  0  0
  131.7000  125.7530   64.9550 C   0  0  0  0  0  0  0  0  0  0  0  0
  132.5030  125.3710   63.9060 N   0  0  0  0  0  0  0  0  0  0  0  0
  133.4100  124.0840   61.3350 C   0  0  0  0  0  0  0  0  0  0  0  0
  133.8890  123.6910   60.0880 C   0  0  0  0  0  0  0  0  0  0  0  0
  134.6570  123.6720   57.5030 H   0  0  0  0  0  0  0  0  0  0  0  0
  133.0150  123.3020   56.9940 H   0  0  0  0  0  0  0  0  0  0  0  0
  131.4583  125.0547   58.1152 H   0  0  0  0  0  0  0  0  0  0  0  0
  130.6021  125.7534   60.3441 H   0  0  0  0  0  0  0  0  0  0  0  0
  128.3108  126.2947   64.7349 H   0  0  0  0  0  0  0  0  0  0  0  0
  127.8140  125.9730   67.7018 H   0  0  0  0  0  0  0  0  0  0  0  0
  128.7834  127.4017   68.2856 H   0  0  0  0  0  0  0  0  0  0  0  0
  125.6788  127.0061   67.7208 H   0  0  0  0  0  0  0  0  0  0  0  0
  124.0443  128.5510   66.6332 H   0  0  0  0  0  0  0  0  0  0  0  0
  127.6172  132.6705   62.6843 H   0  0  0  0  0  0  0  0  0  0  0  0
  127.1289  134.5407   61.1161 H   0  0  0  0  0  0  0  0  0  0  0  0
  125.0280  135.3820   59.5390 H   0  0  0  0  0  0  0  0  0  0  0  0
  124.1690  136.2250   60.8210 H   0  0  0  0  0  0  0  0  0  0  0  0
  122.8954  134.0115   61.7991 H   0  0  0  0  0  0  0  0  0  0  0  0
  123.3803  132.1407   63.3682 H   0  0  0  0  0  0  0  0  0  0  0  0
  127.9210  131.0450   63.8810 H   0  0  0  0  0  0  0  0  0  0  0  0
  128.9919  128.8716   65.6265 H   0  0  0  0  0  0  0  0  0  0  0  0
  130.9651  126.6105   68.1374 H   0  0  0  0  0  0  0  0  0  0  0  0
  132.9433  125.9592   66.7420 H   0  0  0  0  0  0  0  0  0  0  0  0
  133.4980  125.1980   63.9030 H   0  0  0  0  0  0  0  0  0  0  0  0
  133.9657  123.8097   62.2438 H   0  0  0  0  0  0  0  0  0  0  0  0
  134.8182  123.1071   60.0126 H   0  0  0  0  0  0  0  0  0  0  0  0
  1  2  1  0
  2  3  2  0
  3  4  1  0
  4  5  2  0
  5  6  1  0
  6  7  2  0
  7  8  1  0
  8  9  2  0
  9 10  1  0
 10 11  1  0
 11 12  1  0
 12 13  2  0
 13 14  1  0
 14 15  2  0
 15 16  1  0
 16 17  2  0
 17 18  1  0
 18 19  2  0
 19 20  1  0
 20 21  2  0
 21 22  1  0
 21 23  1  0
 23 24  2  0
 17 25  1  0
 25 26  1  0
 26 27  2  0
 10 28  2  0
 28 29  1  0
 29 30  2  0
 30 31  1  0
  5 32  1  0
 32 33  2  0
 33  2  1  0
 31  6  1  0
 30  8  1  0
 27 12  1  0
 26 15  1  0
 24 18  1  0
  1 34  1  0
  1 35  1  0
  3 36  1  0
  4 37  1  0
  9 38  1  0
 11 39  1  0
 11 40  1  0
 13 41  1  0
 14 42  1  0
 19 43  1  0
 20 44  1  0
 22 45  1  0
 22 46  1  0
 23 47  1  0
 24 48  1  0
 25 49  1  0
 27 50  1  0
 28 51  1  0
 29 52  1  0
 31 53  1  0
 32 54  1  0
 33 55  1  0
M  END
>  <Binding energies>  (1) 
[-8.95]

>  <Ligand effiencies>  (1) 
[-0.22948717948717948]

>  <Interactions>  (1) 
["V-A:HIS:456:CE1:4069, V-B:GLU:543:CG:9879, V-A:ARG:545:CZ:4926, V-A:ASP:366:CG:3212, V-B:GLU:543:CD:9880, V-A:TYR:539:CD1:4873, V-B:ILE:369:CG2:8208, V-B:LEU:475:CD1:9229, V-A:ALA:541:CB:4892, V-B:ILE:369:CD1:8210, V-A:GLU:543:CD:4908, V-A:GLU:543:CG:4907, V-B:TYR:539:CE2:9848, V-A:ILE:369:CG2:3236, V-A:ASP:366:CB:3211, V-A:ILE:369:CB:3235, V-A:ILE:369:CD1:3238, V-B:GLU:543:CB:9878, V-B:HIS:456:CE1:9041, V-B:TYR:539:CZ:9849, H-B:TYR:539:OH:9850, V-B:GLY:454:CA:9020, V-B:ARG:545:CZ:9898, V-B:ARG:545:CG:9894, V-B:ARG:545:CD:9895, V-A:ASP:366:CA:3209, V-A:ASP:366:C:3207, V-B:LEU:373:CD1:8251, H-B:SER:385:OG:8381, V-B:SER:385:CB:8380, H-B:GLY:454:N:9021, H-B:TYR:484:OH:9319, H-A:ASP:366:O:3208"]

$$$$
RR11_Rahimova_2017-again1
     RDKit          3D

 56 61  0  0  0  0  0  0  0  0999 V2000
  124.6480  135.5030   60.4620 N   0  0  0  0  0  0  0  0  0  0  0  0
  124.9220  134.4470   61.3300 C   0  0  0  0  0  0  0  0  0  0  0  0
  123.8770  133.7880   61.9730 C   0  0  0  0  0  0  0  0  0  0  0  0
  124.1520  132.7350   62.8430 C   0  0  0  0  0  0  0  0  0  0  0  0
  125.4740  132.3330   63.0760 C   0  0  0  0  0  0  0  0  0  0  0  0
  125.7710  131.2040   64.0190 C   0  0  0  0  0  0  0  0  0  0  0  0
  124.8640  130.5790   64.7370 N   0  0  0  0  0  0  0  0  0  0  0  0
  125.5570  129.6460   65.4640 C   0  0  0  0  0  0  0  0  0  0  0  0
  125.0810  128.7130   66.3940 C   0  0  0  0  0  0  0  0  0  0  0  0
  126.0060  127.8730   67.0160 C   0  0  0  0  0  0  0  0  0  0  0  0
  127.3740  127.9500   66.7320 C   0  0  0  0  0  0  0  0  0  0  0  0
  128.3400  127.0130   67.4430 C   0  0  0  0  0  0  0  0  0  0  0  0
  129.4840  126.5600   66.5470 C   0  0  0  0  0  0  0  0  0  0  0  0
  130.7730  126.4420   67.0790 C   0  0  0  0  0  0  0  0  0  0  0  0
  131.8620  126.0330   66.3060 C   0  0  0  0  0  0  0  0  0  0  0  0
  131.6020  125.7390   64.9640 C   0  0  0  0  0  0  0  0  0  0  0  0
  132.4310  125.3260   63.9290 N   0  0  0  0  0  0  0  0  0  0  0  0
  131.7020  125.1720   62.7730 C   0  0  0  0  0  0  0  0  0  0  0  0
  132.2190  124.7590   61.4330 C   0  0  0  0  0  0  0  0  0  0  0  0
  131.5400  125.1410   60.2700 C   0  0  0  0  0  0  0  0  0  0  0  0
  132.0220  124.7650   59.0180 C   0  0  0  0  0  0  0  0  0  0  0  0
  133.1870  124.0050   58.9250 C   0  0  0  0  0  0  0  0  0  0  0  0
  133.6710  123.6340   57.6710 N   0  0  0  0  0  0  0  0  0  0  0  0
  133.8700  123.6180   60.0770 C   0  0  0  0  0  0  0  0  0  0  0  0
  133.3870  123.9930   61.3270 C   0  0  0  0  0  0  0  0  0  0  0  0
  130.4010  125.4850   63.0900 N   0  0  0  0  0  0  0  0  0  0  0  0
  130.3080  125.8410   64.4280 C   0  0  0  0  0  0  0  0  0  0  0  0
  129.2210  126.2450   65.2080 C   0  0  0  0  0  0  0  0  0  0  0  0
  127.8710  128.8580   65.7880 C   0  0  0  0  0  0  0  0  0  0  0  0
  126.9410  129.7010   65.1750 C   0  0  0  0  0  0  0  0  0  0  0  0
  127.0380  130.7070   64.2410 N   0  0  0  0  0  0  0  0  0  0  0  0
  126.5160  133.0040   62.4210 C   0  0  0  0  0  0  0  0  0  0  0  0
  126.2410  134.0570   61.5510 C   0  0  0  0  0  0  0  0  0  0  0  0
  124.1270  136.2990   60.7980 H   0  0  0  0  0  0  0  0  0  0  0  0
  124.9400  135.4410   59.4970 H   0  0  0  0  0  0  0  0  0  0  0  0
  122.8369  134.0982   61.7944 H   0  0  0  0  0  0  0  0  0  0  0  0
  123.3257  132.2157   63.3504 H   0  0  0  0  0  0  0  0  0  0  0  0
  124.0083  128.6442   66.6276 H   0  0  0  0  0  0  0  0  0  0  0  0
  125.6508  127.1322   67.7475 H   0  0  0  0  0  0  0  0  0  0  0  0
  128.7610  127.5362   68.3142 H   0  0  0  0  0  0  0  0  0  0  0  0
  127.7758  126.1169   67.7408 H   0  0  0  0  0  0  0  0  0  0  0  0
  130.9338  126.6792   68.1410 H   0  0  0  0  0  0  0  0  0  0  0  0
  132.8728  125.9466   66.7313 H   0  0  0  0  0  0  0  0  0  0  0  0
  133.4260  125.1570   63.9690 H   0  0  0  0  0  0  0  0  0  0  0  0
  130.6212  125.7411   60.3450 H   0  0  0  0  0  0  0  0  0  0  0  0
  131.4854  125.0667   58.1064 H   0  0  0  0  0  0  0  0  0  0  0  0
  133.0390  123.2350   56.9920 H   0  0  0  0  0  0  0  0  0  0  0  0
  134.6530  123.7410   57.4660 H   0  0  0  0  0  0  0  0  0  0  0  0
  134.7884  123.0177   59.9981 H   0  0  0  0  0  0  0  0  0  0  0  0
  133.9250  123.6865   62.2362 H   0  0  0  0  0  0  0  0  0  0  0  0
  129.6570  125.4510   62.4100 H   0  0  0  0  0  0  0  0  0  0  0  0
  128.2059  126.3124   64.7896 H   0  0  0  0  0  0  0  0  0  0  0  0
  128.9420  128.9049   65.5414 H   0  0  0  0  0  0  0  0  0  0  0  0
  127.8620  131.0620   63.7790 H   0  0  0  0  0  0  0  0  0  0  0  0
  127.5579  132.6971   62.5951 H   0  0  0  0  0  0  0  0  0  0  0  0
  127.0633  134.5791   61.0399 H   0  0  0  0  0  0  0  0  0  0  0  0
  1  2  1  0
  2  3  2  0
  3  4  1  0
  4  5  2  0
  5  6  1  0
  6  7  2  0
  7  8  1  0
  8  9  2  0
  9 10  1  0
 10 11  2  0
 11 12  1  0
 12 13  1  0
 13 14  2  0
 14 15  1  0
 15 16  2  0
 16 17  1  0
 17 18  1  0
 18 19  1  0
 19 20  2  0
 20 21  1  0
 21 22  2  0
 22 23  1  0
 22 24  1  0
 24 25  2  0
 18 26  2  0
 26 27  1  0
 27 28  2  0
 11 29  1  0
 29 30  2  0
 30 31  1  0
  5 32  1  0
 32 33  2  0
 33  2  1  0
 31  6  1  0
 30  8  1  0
 28 13  1  0
 27 16  1  0
 25 19  1  0
  1 34  1  0
  1 35  1  0
  3 36  1  0
  4 37  1  0
  9 38  1  0
 10 39  1  0
 12 40  1  0
 12 41  1  0
 14 42  1  0
 15 43  1  0
 17 44  1  0
 20 45  1  0
 21 46  1  0
 23 47  1  0
 23 48  1  0
 24 49  1  0
 25 50  1  0
 26 51  1  0
 28 52  1  0
 29 53  1  0
 31 54  1  0
 32 55  1  0
 33 56  1  0
M  CHG  1  26   1
M  END
>  <Binding energies>  (1) 
[-9.54]

>  <Ligand effiencies>  (1) 
[-0.2385]

>  <Interactions>  (1) 
["V-A:HIS:456:CE1:4069, V-B:GLU:543:CG:9879, V-A:ARG:545:CZ:4926, V-A:ASP:366:CG:3212, V-B:GLU:543:CD:9880, V-A:TYR:539:CD1:4873, V-B:ILE:369:CG2:8208, V-B:LEU:475:CD1:9229, V-A:ALA:541:CB:4892, V-B:ILE:369:CD1:8210, V-A:GLU:543:CD:4908, V-A:GLU:543:CG:4907, V-B:TYR:539:CE2:9848, V-A:ILE:369:CG2:3236, V-A:ASP:366:CB:3211, V-A:ILE:369:CB:3235, V-A:ILE:369:CD1:3238, V-B:GLU:543:CB:9878, V-B:HIS:456:CE1:9041, V-B:TYR:539:CZ:9849, H-B:TYR:539:OH:9850, V-B:GLY:454:CA:9020, V-B:ARG:545:CZ:9898, V-B:ARG:545:CG:9894, V-B:ARG:545:CD:9895, V-A:ASP:366:CA:3209, V-A:ASP:366:C:3207, V-B:LEU:373:CD1:8251, H-B:SER:385:OG:8381, V-B:SER:385:CB:8380, H-B:GLY:454:N:9021, H-B:TYR:484:OH:9319, H-A:ASP:366:O:3208"]

$$$$
RR11_Rahimova_2017-again2
     RDKit          3D

 57 62  0  0  0  0  0  0  0  0999 V2000
  132.8340  125.4630   55.7990 N   0  0  0  0  0  0  0  0  0  0  0  0
  131.6840  126.1120   56.2480 C   0  0  0  0  0  0  0  0  0  0  0  0
  131.7090  126.8130   57.4520 C   0  0  0  0  0  0  0  0  0  0  0  0
  130.5590  127.4560   57.9030 C   0  0  0  0  0  0  0  0  0  0  0  0
  129.3780  127.4010   57.1520 C   0  0  0  0  0  0  0  0  0  0  0  0
  128.1410  128.0820   57.6410 C   0  0  0  0  0  0  0  0  0  0  0  0
  127.8250  128.3780   58.9470 N   0  0  0  0  0  0  0  0  0  0  0  0
  126.6020  129.0310   59.0050 C   0  0  0  0  0  0  0  0  0  0  0  0
  125.8680  129.5370   60.0820 C   0  0  0  0  0  0  0  0  0  0  0  0
  124.6550  130.1690   59.7820 C   0  0  0  0  0  0  0  0  0  0  0  0
  123.8130  130.7450   60.9130 C   0  0  0  0  0  0  0  0  0  0  0  0
  124.5100  130.6690   62.2640 C   0  0  0  0  0  0  0  0  0  0  0  0
  124.7660  131.8480   62.9760 C   0  0  0  0  0  0  0  0  0  0  0  0
  125.4020  131.8410   64.2200 C   0  0  0  0  0  0  0  0  0  0  0  0
  125.7720  130.5930   64.7290 C   0  0  0  0  0  0  0  0  0  0  0  0
  126.4160  130.2280   65.9030 N   0  0  0  0  0  0  0  0  0  0  0  0
  126.5630  128.8610   65.9560 C   0  0  0  0  0  0  0  0  0  0  0  0
  127.2170  128.0710   67.0420 C   0  0  0  0  0  0  0  0  0  0  0  0
  126.5460  126.9970   67.6370 C   0  0  0  0  0  0  0  0  0  0  0  0
  127.1590  126.2530   68.6420 C   0  0  0  0  0  0  0  0  0  0  0  0
  128.4480  126.5810   69.0570 C   0  0  0  0  0  0  0  0  0  0  0  0
  129.0650  125.8340   70.0590 N   0  0  0  0  0  0  0  0  0  0  0  0
  129.1250  127.6520   68.4750 C   0  0  0  0  0  0  0  0  0  0  0  0
  128.5110  128.3940   67.4690 C   0  0  0  0  0  0  0  0  0  0  0  0
  125.9960  128.3660   64.8040 N   0  0  0  0  0  0  0  0  0  0  0  0
  125.5060  129.4060   64.0270 C   0  0  0  0  0  0  0  0  0  0  0  0
  124.8630  129.4170   62.7860 C   0  0  0  0  0  0  0  0  0  0  0  0
  124.1910  130.2600   58.4640 C   0  0  0  0  0  0  0  0  0  0  0  0
  124.9170  129.7510   57.3840 C   0  0  0  0  0  0  0  0  0  0  0  0
  126.1370  129.1380   57.6840 C   0  0  0  0  0  0  0  0  0  0  0  0
  127.0980  128.5470   56.8740 N   0  0  0  0  0  0  0  0  0  0  0  0
  129.3660  126.6970   55.9420 C   0  0  0  0  0  0  0  0  0  0  0  0
  130.5160  126.0540   55.4910 C   0  0  0  0  0  0  0  0  0  0  0  0
  132.9010  124.4590   55.8800 H   0  0  0  0  0  0  0  0  0  0  0  0
  133.6130  126.0090   55.4600 H   0  0  0  0  0  0  0  0  0  0  0  0
  132.6346  126.8584   58.0446 H   0  0  0  0  0  0  0  0  0  0  0  0
  130.5782  128.0096   58.8533 H   0  0  0  0  0  0  0  0  0  0  0  0
  128.4320  128.1400   59.7170 H   0  0  0  0  0  0  0  0  0  0  0  0
  126.2269  129.4430   61.1175 H   0  0  0  0  0  0  0  0  0  0  0  0
  123.5963  131.7997   60.6880 H   0  0  0  0  0  0  0  0  0  0  0  0
  122.8934  130.1452   60.9802 H   0  0  0  0  0  0  0  0  0  0  0  0
  124.4564  132.8101   62.5418 H   0  0  0  0  0  0  0  0  0  0  0  0
  125.6016  132.7716   64.7715 H   0  0  0  0  0  0  0  0  0  0  0  0
  126.7500  130.8360   66.6360 H   0  0  0  0  0  0  0  0  0  0  0  0
  125.5283  126.7388   67.3090 H   0  0  0  0  0  0  0  0  0  0  0  0
  126.6275  125.4094   69.1065 H   0  0  0  0  0  0  0  0  0  0  0  0
  128.9820  124.8280   70.0530 H   0  0  0  0  0  0  0  0  0  0  0  0
  129.5330  126.3100   70.8170 H   0  0  0  0  0  0  0  0  0  0  0  0
  130.1407  127.9100   68.8093 H   0  0  0  0  0  0  0  0  0  0  0  0
  129.0450  129.2378   67.0076 H   0  0  0  0  0  0  0  0  0  0  0  0
  125.9720  127.3780   64.5960 H   0  0  0  0  0  0  0  0  0  0  0  0
  124.6439  128.4854   62.2436 H   0  0  0  0  0  0  0  0  0  0  0  0
  123.2239  130.7479   58.2726 H   0  0  0  0  0  0  0  0  0  0  0  0
  124.5475  129.8287   56.3508 H   0  0  0  0  0  0  0  0  0  0  0  0
  127.0830  128.4540   55.8690 H   0  0  0  0  0  0  0  0  0  0  0  0
  128.4436  126.6515   55.3445 H   0  0  0  0  0  0  0  0  0  0  0  0
  130.5021  125.5019   54.5397 H   0  0  0  0  0  0  0  0  0  0  0  0
  1  2  1  0
  2  3  2  0
  3  4  1  0
  4  5  2  0
  5  6  1  0
  6  7  1  0
  7  8  1  0
  8  9  2  0
  9 10  1  0
 10 11  1  0
 11 12  1  0
 12 13  2  0
 13 14  1  0
 14 15  2  0
 15 16  1  0
 16 17  1  0
 17 18  1  0
 18 19  2  0
 19 20  1  0
 20 21  2  0
 21 22  1  0
 21 23  1  0
 23 24  2  0
 17 25  2  0
 25 26  1  0
 26 27  2  0
 10 28  2  0
 28 29  1  0
 29 30  2  0
 30 31  1  0
  5 32  1  0
 32 33  2  0
 33  2  1  0
 31  6  2  0
 30  8  1  0
 27 12  1  0
 26 15  1  0
 24 18  1  0
  1 34  1  0
  1 35  1  0
  3 36  1  0
  4 37  1  0
  7 38  1  0
  9 39  1  0
 11 40  1  0
 11 41  1  0
 13 42  1  0
 14 43  1  0
 16 44  1  0
 19 45  1  0
 20 46  1  0
 22 47  1  0
 22 48  1  0
 23 49  1  0
 24 50  1  0
 25 51  1  0
 27 52  1  0
 28 53  1  0
 29 54  1  0
 31 55  1  0
 32 56  1  0
 33 57  1  0
M  CHG  2  25   1  31   1
M  END
>  <Binding energies>  (1) 
[-10.08]

>  <Ligand effiencies>  (1) 
[-0.24585365853658536]

>  <Interactions>  (1) 
["V-A:HIS:456:CE1:4069, V-B:GLU:543:CG:9879, V-A:ASP:366:CG:3212, V-B:GLU:543:CD:9880, H-B:GLU:543:OE1:9881, H-B:GLU:543:OE2:9882, V-A:TYR:539:CE1:4875, V-B:ILE:369:CG2:8208, V-B:ASP:366:CG:8184, V-B:ASP:366:CA:8181, V-B:LEU:475:CD1:9229, V-B:ILE:369:CD1:8210, H-B:TYR:531:OH:9767, V-A:TYR:531:CZ:4794, V-B:ASP:366:CB:8183, V-A:GLU:543:CD:4908, V-A:TYR:539:CZ:4877, V-A:GLU:543:CG:4907, V-B:ASP:366:C:8179, V-B:TYR:531:CZ:9766, V-A:ASP:366:CB:3211, V-B:TYR:531:CE1:9764, V-B:GLU:543:CB:9878, V-B:GLU:543:C:9874, V-A:GLU:543:CB:4906, V-B:HIS:456:CE1:9041, H-B:TYR:539:OH:9850, H-A:TYR:531:OH:4795, V-B:TYR:484:CZ:9318, V-B:GLY:454:CA:9020, V-B:TYR:484:CE2:9317, V-B:ARG:545:CZ:9898, H-A:HIS:456:NE2:4070, V-B:ARG:545:CG:9894, H-B:GLU:543:O:9875, H-A:ASN:370:OD1:3246, V-A:ASP:366:C:3207, V-A:ASN:370:CB:3244, H-B:TYR:484:OH:9319, V-A:TYR:531:CE1:4792, V-B:GLU:543:CA:9876, H-A:ASP:366:O:3208"]

$$$$
RR12_Rahimova_2017
     RDKit          3D

 51 53  0  0  0  0  0  0  0  0999 V2000
  132.5500  119.4970   60.8190 C   0  0  0  0  0  0  0  0  0  0  0  0
  131.0950  119.9730   60.7070 C   0  0  0  0  0  0  0  0  0  0  0  0
  130.9860  121.4360   60.2410 C   0  0  0  0  0  0  0  0  0  0  0  0
  129.6610  121.9770   60.5370 N   0  0  0  0  0  0  0  0  0  0  0  0
  129.1470  122.3170   61.7790 C   0  0  0  0  0  0  0  0  0  0  0  0
  129.8970  122.1300   63.0860 C   0  0  0  0  0  0  0  0  0  0  0  0
  129.7920  123.3620   64.0040 C   0  0  0  0  0  0  0  0  0  0  0  0
  131.1690  123.9370   64.3890 C   0  0  0  0  0  0  0  0  0  0  0  0
  132.1470  123.9050   63.3020 N   0  0  0  0  0  0  0  0  0  0  0  0
  133.4070  124.3690   63.3840 C   0  0  0  0  0  0  0  0  0  0  0  0
  133.8740  124.8820   64.4040 O   0  0  0  0  0  0  0  0  0  0  0  0
  134.2540  124.2180   62.1140 C   0  0  0  0  0  0  0  0  0  0  0  0
  133.5830  123.3560   61.1940 O   0  0  0  0  0  0  0  0  0  0  0  0
  133.0940  123.8780   60.0110 C   0  0  0  0  0  0  0  0  0  0  0  0
  131.9140  124.6200   60.1010 C   0  0  0  0  0  0  0  0  0  0  0  0
  131.3470  125.1880   58.9640 C   0  0  0  0  0  0  0  0  0  0  0  0
  131.9620  125.0140   57.7280 C   0  0  0  0  0  0  0  0  0  0  0  0
  133.1370  124.2750   57.6180 C   0  0  0  0  0  0  0  0  0  0  0  0
  133.7040  123.7060   58.7570 C   0  0  0  0  0  0  0  0  0  0  0  0
  127.9330  122.8050   61.7220 N   0  0  0  0  0  0  0  0  0  0  0  0
  127.6220  122.8200   60.3910 C   0  0  0  0  0  0  0  0  0  0  0  0
  126.4450  123.2570   59.7640 C   0  0  0  0  0  0  0  0  0  0  0  0
  126.3720  123.1750   58.3730 C   0  0  0  0  0  0  0  0  0  0  0  0
  127.4350  122.6740   57.6200 C   0  0  0  0  0  0  0  0  0  0  0  0
  128.6170  122.2290   58.2140 C   0  0  0  0  0  0  0  0  0  0  0  0
  128.6900  122.3110   59.6110 C   0  0  0  0  0  0  0  0  0  0  0  0
  132.8256  119.4068   61.8801 H   0  0  0  0  0  0  0  0  0  0  0  0
  132.6543  118.5179   60.3286 H   0  0  0  0  0  0  0  0  0  0  0  0
  133.2128  120.2252   60.3286 H   0  0  0  0  0  0  0  0  0  0  0  0
  130.5693  119.3325   59.9835 H   0  0  0  0  0  0  0  0  0  0  0  0
  130.6446  119.9075   61.7084 H   0  0  0  0  0  0  0  0  0  0  0  0
  131.7458  122.0378   60.7611 H   0  0  0  0  0  0  0  0  0  0  0  0
  131.1473  121.4729   59.1535 H   0  0  0  0  0  0  0  0  0  0  0  0
  129.4776  121.2601   63.6127 H   0  0  0  0  0  0  0  0  0  0  0  0
  130.9598  121.9809   62.8447 H   0  0  0  0  0  0  0  0  0  0  0  0
  129.2187  124.1420   63.4817 H   0  0  0  0  0  0  0  0  0  0  0  0
  129.2943  123.0431   64.9317 H   0  0  0  0  0  0  0  0  0  0  0  0
  131.0329  124.9826   64.7024 H   0  0  0  0  0  0  0  0  0  0  0  0
  131.5662  123.3039   65.1961 H   0  0  0  0  0  0  0  0  0  0  0  0
  131.8370  123.4950   62.4330 H   0  0  0  0  0  0  0  0  0  0  0  0
  134.4005  125.2052   61.6514 H   0  0  0  0  0  0  0  0  0  0  0  0
  135.2317  123.7864   62.3745 H   0  0  0  0  0  0  0  0  0  0  0  0
  131.4288  124.7565   61.0787 H   0  0  0  0  0  0  0  0  0  0  0  0
  130.4177  125.7713   59.0420 H   0  0  0  0  0  0  0  0  0  0  0  0
  131.5157  125.4646   56.8292 H   0  0  0  0  0  0  0  0  0  0  0  0
  133.6155  124.1409   56.6367 H   0  0  0  0  0  0  0  0  0  0  0  0
  134.6316  123.1207   58.6740 H   0  0  0  0  0  0  0  0  0  0  0  0
  125.6040  123.6529   60.3523 H   0  0  0  0  0  0  0  0  0  0  0  0
  125.4591  123.5117   57.8600 H   0  0  0  0  0  0  0  0  0  0  0  0
  127.3383  122.6285   56.5252 H   0  0  0  0  0  0  0  0  0  0  0  0
  129.4504  121.8333   57.6149 H   0  0  0  0  0  0  0  0  0  0  0  0
  1  2  1  0
  2  3  1  0
  3  4  1  0
  4  5  1  0
  5  6  1  0
  6  7  1  0
  7  8  1  0
  8  9  1  0
  9 10  1  0
 10 11  2  0
 10 12  1  0
 12 13  1  0
 13 14  1  0
 14 15  2  0
 15 16  1  0
 16 17  2  0
 17 18  1  0
 18 19  2  0
  5 20  2  0
 20 21  1  0
 21 22  2  0
 22 23  1  0
 23 24  2  0
 24 25  1  0
 25 26  2  0
 26  4  1  0
 19 14  1  0
 26 21  1  0
  1 27  1  0
  1 28  1  0
  1 29  1  0
  2 30  1  0
  2 31  1  0
  3 32  1  0
  3 33  1  0
  6 34  1  0
  6 35  1  0
  7 36  1  0
  7 37  1  0
  8 38  1  0
  8 39  1  0
  9 40  1  0
 12 41  1  0
 12 42  1  0
 15 43  1  0
 16 44  1  0
 17 45  1  0
 18 46  1  0
 19 47  1  0
 22 48  1  0
 23 49  1  0
 24 50  1  0
 25 51  1  0
M  END
>  <Binding energies>  (1) 
[-6.49]

>  <Ligand effiencies>  (1) 
[-0.24037037037037037]

>  <Interactions>  (1) 
["H-A:GLY:454:N:4049, H-A:ARG:545:NH2:4928, V-B:GLU:543:CG:9879, H-B:ALA:541:N:9863, V-A:ASP:366:CG:3212, H-A:TYR:484:OH:4347, V-B:GLU:543:CD:9880, V-B:ALA:541:CB:9864, V-A:GLY:453:C:4041, V-A:GLY:453:CA:4043, V-B:PRO:540:CB:9857, V-B:TYR:539:CE2:9848, V-B:PRO:540:N:9856, V-B:PRO:540:CA:9855, V-B:MET:535:CE:9807, V-B:TYR:539:CD2:9846, V-B:TYR:539:C:9839, V-A:ILE:369:CG2:3236, V-A:ASP:366:CB:3211, V-A:ILE:369:CB:3235, V-A:LEU:475:CD1:4257, V-A:ILE:369:CD1:3238, V-B:TYR:539:CG:9844, V-B:TYR:539:CZ:9849, V-A:ASP:366:CA:3209, V-A:ASP:366:C:3207, H-A:ARG:545:NH1:4927"]

$$$$
RR13_Rahimova_2017
     RDKit          3D

 84 90  0  0  0  0  0  0  0  0999 V2000
  132.2880  131.5130   57.2230 Cl  0  0  0  0  0  0  0  0  0  0  0  0
  130.7070  131.2940   56.5530 C   0  0  0  0  0  0  0  0  0  0  0  0
  130.3830  132.0160   55.4020 C   0  0  0  0  0  0  0  0  0  0  0  0
  129.1200  131.9000   54.8270 C   0  0  0  0  0  0  0  0  0  0  0  0
  128.1700  131.0610   55.4030 C   0  0  0  0  0  0  0  0  0  0  0  0
  128.4850  130.3380   56.5510 C   0  0  0  0  0  0  0  0  0  0  0  0
  129.7570  130.4320   57.1390 C   0  0  0  0  0  0  0  0  0  0  0  0
  130.0740  129.6390   58.4260 C   0  0  1  0  0  0  0  0  0  0  0  0
  130.2140  130.5790   59.6330 C   0  0  0  0  0  0  0  0  0  0  0  0
  131.2570  130.6870   60.4270 N   0  0  0  0  0  0  0  0  0  0  0  0
  130.9110  131.6380   61.3830 N   0  0  0  0  0  0  0  0  0  0  0  0
  129.6260  132.0900   61.1580 N   0  0  0  0  0  0  0  0  0  0  0  0
  129.2080  131.4040   60.0890 N   0  0  0  0  0  0  0  0  0  0  0  0
  127.8850  131.6470   59.5270 C   0  0  0  0  0  0  0  0  0  0  0  0
  126.8680  131.9150   60.6520 C   0  0  0  0  0  0  0  0  0  0  0  0
  126.5320  133.3930   60.7830 C   0  0  0  0  0  0  0  0  0  0  0  0
  125.3110  133.8760   60.3030 C   0  0  0  0  0  0  0  0  0  0  0  0
  125.0080  135.2300   60.4160 C   0  0  0  0  0  0  0  0  0  0  0  0
  125.9250  136.0960   61.0090 C   0  0  0  0  0  0  0  0  0  0  0  0
  127.1430  135.6200   61.4880 C   0  0  0  0  0  0  0  0  0  0  0  0
  127.4480  134.2660   61.3750 C   0  0  0  0  0  0  0  0  0  0  0  0
  129.1270  128.5280   58.6830 N   0  0  0  0  0  0  0  0  0  0  0  0
  129.1790  128.1210   60.0990 C   0  0  0  0  0  0  0  0  0  0  0  0
  128.1010  127.0550   60.4050 C   0  0  0  0  0  0  0  0  0  0  0  0
  128.3210  125.8460   59.5920 N   0  0  0  0  0  0  0  0  0  0  0  0
  127.3590  124.7660   59.9120 C   0  0  1  0  0  0  0  0  0  0  0  0
  126.9540  123.8630   58.7260 C   0  0  0  0  0  0  0  0  0  0  0  0
  125.6630  124.0300   58.2050 C   0  0  0  0  0  0  0  0  0  0  0  0
  125.2180  123.2710   57.1240 C   0  0  0  0  0  0  0  0  0  0  0  0
  126.0600  122.3230   56.5490 C   0  0  0  0  0  0  0  0  0  0  0  0
  127.3390  122.1300   57.0610 C   0  0  0  0  0  0  0  0  0  0  0  0
  127.7940  122.8830   58.1460 C   0  0  0  0  0  0  0  0  0  0  0  0
  129.3750  122.5200   58.7540 Cl  0  0  0  0  0  0  0  0  0  0  0  0
  127.7910  123.9080   61.1020 C   0  0  0  0  0  0  0  0  0  0  0  0
  127.0900  122.9330   61.6330 N   0  0  0  0  0  0  0  0  0  0  0  0
  127.8670  122.4240   62.6690 N   0  0  0  0  0  0  0  0  0  0  0  0
  129.0640  123.1060   62.7420 N   0  0  0  0  0  0  0  0  0  0  0  0
  129.0040  124.0030   61.7510 N   0  0  0  0  0  0  0  0  0  0  0  0
  130.1100  124.9310   61.5380 C   0  0  0  0  0  0  0  0  0  0  0  0
  131.4300  124.1600   61.3550 C   0  0  0  0  0  0  0  0  0  0  0  0
  132.0010  124.3230   59.9550 C   0  0  0  0  0  0  0  0  0  0  0  0
  131.5000  125.3160   59.1090 C   0  0  0  0  0  0  0  0  0  0  0  0
  132.0280  125.4700   57.8290 C   0  0  0  0  0  0  0  0  0  0  0  0
  133.0530  124.6290   57.4000 C   0  0  0  0  0  0  0  0  0  0  0  0
  133.5560  123.6370   58.2400 C   0  0  0  0  0  0  0  0  0  0  0  0
  133.0300  123.4830   59.5190 C   0  0  0  0  0  0  0  0  0  0  0  0
  128.2620  126.2570   58.1780 C   0  0  0  0  0  0  0  0  0  0  0  0
  129.3490  127.3150   57.8770 C   0  0  0  0  0  0  0  0  0  0  0  0
  131.1312  132.6813   54.9463 H   0  0  0  0  0  0  0  0  0  0  0  0
  128.8734  132.4703   53.9193 H   0  0  0  0  0  0  0  0  0  0  0  0
  127.1711  130.9691   54.9517 H   0  0  0  0  0  0  0  0  0  0  0  0
  127.7259  129.6834   57.0041 H   0  0  0  0  0  0  0  0  0  0  0  0
  131.0474  129.1532   58.2633 H   0  0  0  0  0  0  0  0  0  0  0  0
  127.9285  132.5215   58.8611 H   0  0  0  0  0  0  0  0  0  0  0  0
  127.5675  130.7585   58.9615 H   0  0  0  0  0  0  0  0  0  0  0  0
  125.9439  131.3596   60.4338 H   0  0  0  0  0  0  0  0  0  0  0  0
  127.3186  131.5859   61.6000 H   0  0  0  0  0  0  0  0  0  0  0  0
  124.5910  133.1873   59.8369 H   0  0  0  0  0  0  0  0  0  0  0  0
  124.0490  135.6148   60.0389 H   0  0  0  0  0  0  0  0  0  0  0  0
  125.6844  137.1655   61.0995 H   0  0  0  0  0  0  0  0  0  0  0  0
  127.8612  136.3108   61.9537 H   0  0  0  0  0  0  0  0  0  0  0  0
  128.4086  133.8844   61.7513 H   0  0  0  0  0  0  0  0  0  0  0  0
  130.1724  127.7021   60.3174 H   0  0  0  0  0  0  0  0  0  0  0  0
  128.9890  129.0042   60.7265 H   0  0  0  0  0  0  0  0  0  0  0  0
  128.1495  126.7875   61.4709 H   0  0  0  0  0  0  0  0  0  0  0  0
  127.1122  127.4708   60.1614 H   0  0  0  0  0  0  0  0  0  0  0  0
  126.4552  125.3281   60.1896 H   0  0  0  0  0  0  0  0  0  0  0  0
  124.9896  124.7730   58.6573 H   0  0  0  0  0  0  0  0  0  0  0  0
  124.2035  123.4207   56.7260 H   0  0  0  0  0  0  0  0  0  0  0  0
  125.7144  121.7275   55.6911 H   0  0  0  0  0  0  0  0  0  0  0  0
  127.9990  121.3764   56.6066 H   0  0  0  0  0  0  0  0  0  0  0  0
  129.9122  125.5299   60.6368 H   0  0  0  0  0  0  0  0  0  0  0  0
  130.1991  125.5875   62.4161 H   0  0  0  0  0  0  0  0  0  0  0  0
  132.1639  124.5362   62.0829 H   0  0  0  0  0  0  0  0  0  0  0  0
  131.2216  123.0915   61.5125 H   0  0  0  0  0  0  0  0  0  0  0  0
  130.6896  125.9753   59.4533 H   0  0  0  0  0  0  0  0  0  0  0  0
  131.6378  126.2515   57.1604 H   0  0  0  0  0  0  0  0  0  0  0  0
  133.4691  124.7492   56.3888 H   0  0  0  0  0  0  0  0  0  0  0  0
  134.3658  122.9783   57.8931 H   0  0  0  0  0  0  0  0  0  0  0  0
  133.4232  122.7016   60.1860 H   0  0  0  0  0  0  0  0  0  0  0  0
  128.4256  125.3774   57.5380 H   0  0  0  0  0  0  0  0  0  0  0  0
  127.2733  126.6943   57.9750 H   0  0  0  0  0  0  0  0  0  0  0  0
  130.3375  126.8967   58.1175 H   0  0  0  0  0  0  0  0  0  0  0  0
  129.2990  127.5825   56.8112 H   0  0  0  0  0  0  0  0  0  0  0  0
  1  2  1  0
  2  3  2  0
  3  4  1  0
  4  5  2  0
  5  6  1  0
  6  7  2  0
  7  8  1  0
  8  9  1  0
  9 10  2  0
 10 11  1  0
 11 12  2  0
 12 13  1  0
 13 14  1  0
 14 15  1  0
 15 16  1  0
 16 17  2  0
 17 18  1  0
 18 19  2  0
 19 20  1  0
 20 21  2  0
  8 22  1  0
 22 23  1  0
 23 24  1  0
 24 25  1  0
 25 26  1  0
 26 27  1  0
 27 28  2  0
 28 29  1  0
 29 30  2  0
 30 31  1  0
 31 32  2  0
 32 33  1  0
 26 34  1  0
 34 35  2  0
 35 36  1  0
 36 37  2  0
 37 38  1  0
 38 39  1  0
 39 40  1  0
 40 41  1  0
 41 42  2  0
 42 43  1  0
 43 44  2  0
 44 45  1  0
 45 46  2  0
 25 47  1  0
 47 48  1  0
  7  2  1  0
 13  9  1  0
 21 16  1  0
 48 22  1  0
 32 27  1  0
 38 34  1  0
 46 41  1  0
  3 49  1  0
  4 50  1  0
  5 51  1  0
  6 52  1  0
  8 53  1  6
 14 54  1  0
 14 55  1  0
 15 56  1  0
 15 57  1  0
 17 58  1  0
 18 59  1  0
 19 60  1  0
 20 61  1  0
 21 62  1  0
 23 63  1  0
 23 64  1  0
 24 65  1  0
 24 66  1  0
 26 67  1  1
 28 68  1  0
 29 69  1  0
 30 70  1  0
 31 71  1  0
 39 72  1  0
 39 73  1  0
 40 74  1  0
 40 75  1  0
 42 76  1  0
 43 77  1  0
 44 78  1  0
 45 79  1  0
 46 80  1  0
 47 81  1  0
 47 82  1  0
 48 83  1  0
 48 84  1  0
M  END
>  <Binding energies>  (1) 
[-13.69]

>  <Ligand effiencies>  (1) 
[-0.28520833333333334]

>  <Interactions>  (1) 
["H-B:ALA:541:N:9863, V-A:ASP:366:CG:3212, V-A:TYR:539:CD1:4873, V-A:PRO:540:CB:4885, V-A:ILE:538:CB:4862, V-A:ILE:538:CG2:4863, V-A:LEU:363:CD1:3188, V-A:PRO:540:N:4884, V-A:TYR:539:CE1:4875, V-A:PRO:540:CA:4883, V-B:ILE:369:CG2:8208, V-B:LEU:475:CD1:9229, V-A:ALA:541:CB:4892, V-A:ILE:538:CA:4860, H-A:ALA:541:N:4891, V-A:TYR:539:CZ:4877, V-B:PRO:540:CB:9857, V-B:TYR:539:CE2:9848, V-B:PRO:540:CD:9859, V-B:PRO:540:N:9856, V-B:PRO:540:CA:9855, V-B:MET:535:CE:9807, V-B:TYR:539:CA:9841, V-B:TYR:539:CD2:9846, V-B:TYR:531:CE2:9765, V-B:TYR:539:C:9839, V-B:LEU:363:CD1:8160, V-A:ILE:369:CG2:3236, V-A:ASP:366:CB:3211, V-A:ILE:369:CB:3235, V-B:TYR:539:CZ:9849, V-A:ASP:366:CA:3209, V-A:ASP:366:C:3207, V-B:PRO:482:CB:9297, V-B:PRO:482:CG:9298, V-B:SER:385:CB:8380"]

$$$$
RR14_Rahimova_2017
     RDKit          3D

 76 80  0  0  0  0  0  0  0  0999 V2000
  131.2040  118.0030   60.2610 C   0  0  0  0  0  0  0  0  0  0  0  0
  132.5860  118.3390   60.3170 O   0  0  0  0  0  0  0  0  0  0  0  0
  132.9520  119.6310   60.6440 C   0  0  0  0  0  0  0  0  0  0  0  0
  132.3470  120.6530   59.9120 C   0  0  0  0  0  0  0  0  0  0  0  0
  132.6710  121.9840   60.1530 C   0  0  0  0  0  0  0  0  0  0  0  0
  133.6140  122.3070   61.1320 C   0  0  0  0  0  0  0  0  0  0  0  0
  134.0200  123.7590   61.3550 C   0  0  0  0  0  0  0  0  0  0  0  0
  133.8780  124.1930   62.7440 N   0  0  0  0  0  0  0  0  0  0  0  0
  134.7040  125.1140   63.2520 N   0  0  0  0  0  0  0  0  0  0  0  0
  134.3070  125.2550   64.5680 N   0  0  0  0  0  0  0  0  0  0  0  0
  133.2410  124.4030   64.8390 N   0  0  0  0  0  0  0  0  0  0  0  0
  133.0030  123.7630   63.7180 C   0  0  0  0  0  0  0  0  0  0  0  0
  131.9330  122.6970   63.5270 C   0  0  0  0  0  0  0  0  0  0  0  0
  130.6900  123.2430   62.9570 N   0  0  0  0  0  0  0  0  0  0  0  0
  130.8670  124.6180   62.4720 C   0  0  0  0  0  0  0  0  0  0  0  0
  130.3630  125.6880   63.4650 C   0  0  0  0  0  0  0  0  0  0  0  0
  129.4960  125.1150   64.6050 C   0  0  0  0  0  0  0  0  0  0  0  0
  130.0590  125.3540   65.9380 N   0  0  0  0  0  0  0  0  0  0  0  0
  129.0280  125.8790   66.8420 C   0  0  0  0  0  0  0  0  0  0  0  0
  129.6010  126.1890   68.2410 C   0  0  0  0  0  0  0  0  0  0  0  0
  130.7170  127.0660   68.1290 O   0  0  0  0  0  0  0  0  0  0  0  0
  131.7640  126.5070   67.3450 C   0  0  0  0  0  0  0  0  0  0  0  0
  131.2570  126.2070   65.9180 C   0  0  0  0  0  0  0  0  0  0  0  0
  130.2050  122.3740   61.8750 C   0  0  0  0  0  0  0  0  0  0  0  0
  128.7920  122.6550   61.3710 C   0  0  0  0  0  0  0  0  0  0  0  0
  128.5560  122.9190   60.0620 C   0  0  0  0  0  0  0  0  0  0  0  0
  127.2040  123.2330   59.5550 C   0  0  0  0  0  0  0  0  0  0  0  0
  126.9200  123.4910   58.2040 C   0  0  0  0  0  0  0  0  0  0  0  0
  128.0100  123.4640   57.1400 C   0  0  0  0  0  0  0  0  0  0  0  0
  125.6050  123.7770   57.8280 C   0  0  0  0  0  0  0  0  0  0  0  0
  124.5840  123.8070   58.7760 C   0  0  0  0  0  0  0  0  0  0  0  0
  124.8560  123.5490   60.1230 C   0  0  0  0  0  0  0  0  0  0  0  0
  123.7180  123.5870   61.1350 C   0  0  0  0  0  0  0  0  0  0  0  0
  126.1730  123.2610   60.5120 C   0  0  0  0  0  0  0  0  0  0  0  0
  126.4960  122.9980   61.8600 N   0  0  0  0  0  0  0  0  0  0  0  0
  127.7190  122.7050   62.3690 C   0  0  0  0  0  0  0  0  0  0  0  0
  127.8610  122.5110   63.5760 O   0  0  0  0  0  0  0  0  0  0  0  0
  134.2030  121.2930   61.8910 C   0  0  0  0  0  0  0  0  0  0  0  0
  133.8780  119.9620   61.6470 C   0  0  0  0  0  0  0  0  0  0  0  0
  130.8083  117.9068   61.2829 H   0  0  0  0  0  0  0  0  0  0  0  0
  130.6556  118.7940   59.7284 H   0  0  0  0  0  0  0  0  0  0  0  0
  131.0800  117.0485   59.7284 H   0  0  0  0  0  0  0  0  0  0  0  0
  131.6070  120.4039   59.1372 H   0  0  0  0  0  0  0  0  0  0  0  0
  132.1849  122.7822   59.5729 H   0  0  0  0  0  0  0  0  0  0  0  0
  135.0727  123.8765   61.0585 H   0  0  0  0  0  0  0  0  0  0  0  0
  133.3462  124.3822   60.7487 H   0  0  0  0  0  0  0  0  0  0  0  0
  132.3224  121.9236   62.8487 H   0  0  0  0  0  0  0  0  0  0  0  0
  131.6932  122.2822   64.5172 H   0  0  0  0  0  0  0  0  0  0  0  0
  131.9384  124.7883   62.2899 H   0  0  0  0  0  0  0  0  0  0  0  0
  130.2683  124.7185   61.5547 H   0  0  0  0  0  0  0  0  0  0  0  0
  131.2360  126.1878   63.9100 H   0  0  0  0  0  0  0  0  0  0  0  0
  129.7279  126.3823   62.8953 H   0  0  0  0  0  0  0  0  0  0  0  0
  128.5018  125.5833   64.5568 H   0  0  0  0  0  0  0  0  0  0  0  0
  129.4482  124.0254   64.4620 H   0  0  0  0  0  0  0  0  0  0  0  0
  128.6147  126.8037   66.4129 H   0  0  0  0  0  0  0  0  0  0  0  0
  128.2465  125.1129   66.9531 H   0  0  0  0  0  0  0  0  0  0  0  0
  128.8232  126.6664   68.8552 H   0  0  0  0  0  0  0  0  0  0  0  0
  129.9266  125.2502   68.7129 H   0  0  0  0  0  0  0  0  0  0  0  0
  132.5993  127.2208   67.2916 H   0  0  0  0  0  0  0  0  0  0  0  0
  132.1015  125.5696   67.8113 H   0  0  0  0  0  0  0  0  0  0  0  0
  131.0112  127.1562   65.4194 H   0  0  0  0  0  0  0  0  0  0  0  0
  132.0510  125.6729   65.3756 H   0  0  0  0  0  0  0  0  0  0  0  0
  130.8932  122.4814   61.0236 H   0  0  0  0  0  0  0  0  0  0  0  0
  130.1705  121.3610   62.3023 H   0  0  0  0  0  0  0  0  0  0  0  0
  129.3982  122.8988   59.3547 H   0  0  0  0  0  0  0  0  0  0  0  0
  128.9964  123.4396   57.6262 H   0  0  0  0  0  0  0  0  0  0  0  0
  127.8881  122.5686   56.5128 H   0  0  0  0  0  0  0  0  0  0  0  0
  127.9325  124.3643   56.5128 H   0  0  0  0  0  0  0  0  0  0  0  0
  125.3732  123.9807   56.7722 H   0  0  0  0  0  0  0  0  0  0  0  0
  123.5549  124.0357   58.4618 H   0  0  0  0  0  0  0  0  0  0  0  0
  124.1327  123.5732   62.1538 H   0  0  0  0  0  0  0  0  0  0  0  0
  123.1298  124.5053   60.9910 H   0  0  0  0  0  0  0  0  0  0  0  0
  123.0698  122.7100   60.9910 H   0  0  0  0  0  0  0  0  0  0  0  0
  125.7540  123.0300   62.5420 H   0  0  0  0  0  0  0  0  0  0  0  0
  134.9241  121.5467   62.6820 H   0  0  0  0  0  0  0  0  0  0  0  0
  134.3484  119.1655   62.2423 H   0  0  0  0  0  0  0  0  0  0  0  0
  1  2  1  0
  2  3  1  0
  3  4  2  0
  4  5  1  0
  5  6  2  0
  6  7  1  0
  7  8  1  0
  8  9  1  0
  9 10  2  0
 10 11  1  0
 11 12  2  0
 12 13  1  0
 13 14  1  0
 14 15  1  0
 15 16  1  0
 16 17  1  0
 17 18  1  0
 18 19  1  0
 19 20  1  0
 20 21  1  0
 21 22  1  0
 22 23  1  0
 14 24  1  0
 24 25  1  0
 25 26  2  0
 26 27  1  0
 27 28  2  0
 28 29  1  0
 28 30  1  0
 30 31  2  0
 31 32  1  0
 32 33  1  0
 32 34  2  0
 34 35  1  0
 35 36  1  0
 36 37  2  0
  6 38  1  0
 38 39  2  0
 39  3  1  0
 12  8  1  0
 23 18  1  0
 36 25  1  0
 34 27  1  0
  1 40  1  0
  1 41  1  0
  1 42  1  0
  4 43  1  0
  5 44  1  0
  7 45  1  0
  7 46  1  0
 13 47  1  0
 13 48  1  0
 15 49  1  0
 15 50  1  0
 16 51  1  0
 16 52  1  0
 17 53  1  0
 17 54  1  0
 19 55  1  0
 19 56  1  0
 20 57  1  0
 20 58  1  0
 22 59  1  0
 22 60  1  0
 23 61  1  0
 23 62  1  0
 24 63  1  0
 24 64  1  0
 26 65  1  0
 29 66  1  0
 29 67  1  0
 29 68  1  0
 30 69  1  0
 31 70  1  0
 33 71  1  0
 33 72  1  0
 33 73  1  0
 35 74  1  0
 38 75  1  0
 39 76  1  0
M  END
>  <Binding energies>  (1) 
[-10.6]

>  <Ligand effiencies>  (1) 
[-0.265]

>  <Interactions>  (1) 
["V-A:HIS:456:CE1:4069, H-A:GLY:454:N:4049, H-A:ARG:545:NH2:4928, V-B:GLU:543:CG:9879, H-B:ALA:541:N:9863, V-A:ASP:366:CG:3212, H-A:TYR:484:OH:4347, V-B:GLU:543:CD:9880, H-B:ALA:541:O:9861, H-B:GLU:543:OE1:9881, H-A:ARG:545:NE:4924, V-B:ALA:541:CB:9864, V-A:GLY:453:C:4041, V-A:ARG:545:CG:4922, V-A:GLY:453:CA:4043, V-B:ASP:366:CG:8184, V-A:GLU:543:CD:4908, V-A:PRO:482:CG:4326, V-B:PRO:540:CB:9857, V-B:TYR:539:CE2:9848, V-B:PRO:540:CA:9855, V-B:MET:535:CE:9807, V-B:TYR:539:CD2:9846, V-B:TYR:531:CE2:9765, V-B:LEU:363:CD1:8160, V-A:GLY:454:CA:4048, V-A:ILE:369:CG2:3236, V-A:LEU:475:CD1:4257, V-B:ALA:541:CA:9862, V-B:PRO:540:C:9853, V-A:SER:385:C:3404, V-A:ILE:369:CD1:3238, V-A:SER:385:CA:3406, V-B:GLU:543:CB:9878, V-B:LEU:363:CA:8156, H-A:ARG:545:NH1:4927, H-A:SER:385:OG:3409, H-A:HIS:383:NE2:3393, V-B:ASN:362:C:8143, V-B:ASN:362:CA:8145, V-B:ASN:362:CB:8147"]

$$$$
RR15_Rahimova_2017
     RDKit          3D

 85 89  0  0  0  0  0  0  0  0999 V2000
  133.7390  120.0970   61.1670 C   0  0  0  0  0  0  0  0  0  0  0  0
  133.2570  121.3860   61.5300 O   0  0  0  0  0  0  0  0  0  0  0  0
  132.9020  122.2860   60.5400 C   0  0  0  0  0  0  0  0  0  0  0  0
  133.8030  123.1850   59.9480 C   0  0  0  0  0  0  0  0  0  0  0  0
  133.3800  124.0670   58.9560 C   0  0  0  0  0  0  0  0  0  0  0  0
  132.0490  124.0780   58.5290 C   0  0  0  0  0  0  0  0  0  0  0  0
  131.5910  125.0350   57.4630 C   0  0  0  0  0  0  0  0  0  0  0  0
  132.3270  125.3390   56.4030 N   0  0  0  0  0  0  0  0  0  0  0  0
  131.5850  126.2420   55.6690 N   0  0  0  0  0  0  0  0  0  0  0  0
  130.4500  126.3510   56.3600 N   0  0  0  0  0  0  0  0  0  0  0  0
  129.4290  127.3410   56.0210 C   0  0  0  0  0  0  0  0  0  0  0  0
  128.9680  128.2290   57.2040 C   0  0  0  0  0  0  0  0  0  0  0  0
  129.8130  128.9210   57.7760 O   0  0  0  0  0  0  0  0  0  0  0  0
  127.6470  128.2510   57.5610 N   0  0  0  0  0  0  0  0  0  0  0  0
  127.1460  127.4530   58.6970 C   0  0  0  0  0  0  0  0  0  0  0  0
  125.8740  126.6420   58.3700 C   0  0  0  0  0  0  0  0  0  0  0  0
  125.9110  125.1640   58.8240 C   0  0  0  0  0  0  0  0  0  0  0  0
  126.3490  124.2360   57.7770 N   0  0  0  0  0  0  0  0  0  0  0  0
  127.4320  123.3370   58.2030 C   0  0  0  0  0  0  0  0  0  0  0  0
  127.7960  122.3260   57.0950 C   0  0  0  0  0  0  0  0  0  0  0  0
  126.6360  121.6120   56.6810 O   0  0  0  0  0  0  0  0  0  0  0  0
  125.6240  122.4730   56.1700 C   0  0  0  0  0  0  0  0  0  0  0  0
  125.1980  123.4870   57.2540 C   0  0  0  0  0  0  0  0  0  0  0  0
  126.6540  129.2050   56.9790 C   0  0  2  0  0  0  0  0  0  0  0  0
  127.1570  129.9490   55.7030 C   0  0  0  0  0  0  0  0  0  0  0  0
  126.4940  129.9530   54.6660 O   0  0  0  0  0  0  0  0  0  0  0  0
  128.3240  130.6050   55.8350 N   0  0  0  0  0  0  0  0  0  0  0  0
  128.9370  131.4500   54.8160 C   0  0  0  0  0  0  0  0  0  0  0  0
  130.1720  132.1830   55.3710 C   0  0  2  0  0  0  0  0  0  0  0  0
  131.5060  131.4310   55.2260 C   0  0  0  0  0  0  0  0  0  0  0  0
  131.7640  130.8500   56.5950 C   0  0  0  0  0  0  0  0  0  0  0  0
  131.1620  131.9180   57.4920 C   0  0  0  0  0  0  0  0  0  0  0  0
  129.9770  132.2770   56.7890 O   0  0  0  0  0  0  0  0  0  0  0  0
  126.0100  130.0460   58.0750 C   0  0  0  0  0  0  0  0  0  0  0  0
  124.6150  130.0290   58.1870 C   0  0  0  0  0  0  0  0  0  0  0  0
  123.9730  130.7790   59.1680 C   0  0  0  0  0  0  0  0  0  0  0  0
  124.7240  131.5520   60.0490 C   0  0  0  0  0  0  0  0  0  0  0  0
  124.1010  132.2790   61.0030 F   0  0  0  0  0  0  0  0  0  0  0  0
  126.1130  131.5800   59.9540 C   0  0  0  0  0  0  0  0  0  0  0  0
  126.7540  130.8310   58.9720 C   0  0  0  0  0  0  0  0  0  0  0  0
  130.4240  125.6520   57.5010 N   0  0  0  0  0  0  0  0  0  0  0  0
  131.1520  123.1780   59.1200 C   0  0  0  0  0  0  0  0  0  0  0  0
  131.5640  122.2800   60.1190 C   0  0  0  0  0  0  0  0  0  0  0  0
  130.7180  121.3710   60.7300 O   0  0  0  0  0  0  0  0  0  0  0  0
  129.3980  121.7670   61.0850 C   0  0  0  0  0  0  0  0  0  0  0  0
  133.9558  119.5172   62.0763 H   0  0  0  0  0  0  0  0  0  0  0  0
  132.9756  119.5742   60.5721 H   0  0  0  0  0  0  0  0  0  0  0  0
  134.6581  120.2034   60.5721 H   0  0  0  0  0  0  0  0  0  0  0  0
  134.8545  123.1932   60.2709 H   0  0  0  0  0  0  0  0  0  0  0  0
  134.1018  124.7629   58.5035 H   0  0  0  0  0  0  0  0  0  0  0  0
  129.8357  127.9979   55.2380 H   0  0  0  0  0  0  0  0  0  0  0  0
  128.5441  126.7746   55.6953 H   0  0  0  0  0  0  0  0  0  0  0  0
  127.9358  126.7519   59.0045 H   0  0  0  0  0  0  0  0  0  0  0  0
  126.8804  128.1610   59.4959 H   0  0  0  0  0  0  0  0  0  0  0  0
  125.0209  127.1301   58.8638 H   0  0  0  0  0  0  0  0  0  0  0  0
  125.7908  126.6265   57.2733 H   0  0  0  0  0  0  0  0  0  0  0  0
  126.6032  125.0794   59.6747 H   0  0  0  0  0  0  0  0  0  0  0  0
  124.8812  124.8842   59.0909 H   0  0  0  0  0  0  0  0  0  0  0  0
  128.3211  123.9378   58.4449 H   0  0  0  0  0  0  0  0  0  0  0  0
  127.0880  122.7750   59.0838 H   0  0  0  0  0  0  0  0  0  0  0  0
  128.2168  122.8662   56.2341 H   0  0  0  0  0  0  0  0  0  0  0  0
  128.5353  121.6128   57.4884 H   0  0  0  0  0  0  0  0  0  0  0  0
  126.0142  123.0158   55.2964 H   0  0  0  0  0  0  0  0  0  0  0  0
  124.7518  121.8709   55.8754 H   0  0  0  0  0  0  0  0  0  0  0  0
  124.4796  124.1961   56.8168 H   0  0  0  0  0  0  0  0  0  0  0  0
  124.7434  122.9298   58.0864 H   0  0  0  0  0  0  0  0  0  0  0  0
  125.8212  128.6286   56.5499 H   0  0  0  0  0  0  0  0  0  0  0  0
  128.7940  130.5760   56.7280 H   0  0  0  0  0  0  0  0  0  0  0  0
  129.2438  130.8225   53.9663 H   0  0  0  0  0  0  0  0  0  0  0  0
  128.1999  132.2014   54.4964 H   0  0  0  0  0  0  0  0  0  0  0  0
  130.2463  133.1268   54.8109 H   0  0  0  0  0  0  0  0  0  0  0  0
  131.4222  130.6323   54.4743 H   0  0  0  0  0  0  0  0  0  0  0  0
  132.3218  132.0880   54.8903 H   0  0  0  0  0  0  0  0  0  0  0  0
  131.2559  129.8830   56.7240 H   0  0  0  0  0  0  0  0  0  0  0  0
  132.8231  130.6351   56.8001 H   0  0  0  0  0  0  0  0  0  0  0  0
  130.9268  131.5147   58.4880 H   0  0  0  0  0  0  0  0  0  0  0  0
  131.8366  132.7668   57.6776 H   0  0  0  0  0  0  0  0  0  0  0  0
  124.0203  129.4169   57.4930 H   0  0  0  0  0  0  0  0  0  0  0  0
  122.8760  130.7610   59.2469 H   0  0  0  0  0  0  0  0  0  0  0  0
  126.7016  132.1923   60.6530 H   0  0  0  0  0  0  0  0  0  0  0  0
  127.8512  130.8536   58.8974 H   0  0  0  0  0  0  0  0  0  0  0  0
  130.1013  123.1745   58.7943 H   0  0  0  0  0  0  0  0  0  0  0  0
  129.3057  121.7947   62.1808 H   0  0  0  0  0  0  0  0  0  0  0  0
  129.1921  122.7665   60.6743 H   0  0  0  0  0  0  0  0  0  0  0  0
  128.6759  121.0459   60.6743 H   0  0  0  0  0  0  0  0  0  0  0  0
  1  2  1  0
  2  3  1  0
  3  4  2  0
  4  5  1  0
  5  6  2  0
  6  7  1  0
  7  8  1  0
  8  9  2  0
  9 10  1  0
 10 11  1  0
 11 12  1  0
 12 13  2  0
 12 14  1  0
 14 15  1  0
 15 16  1  0
 16 17  1  0
 17 18  1  0
 18 19  1  0
 19 20  1  0
 20 21  1  0
 21 22  1  0
 22 23  1  0
 14 24  1  0
 24 25  1  0
 25 26  2  0
 25 27  1  0
 27 28  1  0
 28 29  1  0
 29 30  1  0
 30 31  1  0
 31 32  1  0
 32 33  1  0
 24 34  1  0
 34 35  2  0
 35 36  1  0
 36 37  2  0
 37 38  1  0
 37 39  1  0
 39 40  2  0
 10 41  1  0
  6 42  1  0
 42 43  2  0
 43 44  1  0
 44 45  1  0
 43  3  1  0
 41  7  2  0
 23 18  1  0
 33 29  1  0
 40 34  1  0
  1 46  1  0
  1 47  1  0
  1 48  1  0
  4 49  1  0
  5 50  1  0
 11 51  1  0
 11 52  1  0
 15 53  1  0
 15 54  1  0
 16 55  1  0
 16 56  1  0
 17 57  1  0
 17 58  1  0
 19 59  1  0
 19 60  1  0
 20 61  1  0
 20 62  1  0
 22 63  1  0
 22 64  1  0
 23 65  1  0
 23 66  1  0
 24 67  1  6
 27 68  1  0
 28 69  1  0
 28 70  1  0
 29 71  1  6
 30 72  1  0
 30 73  1  0
 31 74  1  0
 31 75  1  0
 32 76  1  0
 32 77  1  0
 35 78  1  0
 36 79  1  0
 39 80  1  0
 40 81  1  0
 42 82  1  0
 45 83  1  0
 45 84  1  0
 45 85  1  0
M  END
>  <Binding energies>  (1) 
[-10.47]

>  <Ligand effiencies>  (1) 
[-0.22760869565217393]

>  <Interactions>  (1) 
["V-A:ASP:366:CG:3212, V-B:ALA:541:CB:9864, V-A:TYR:539:CD1:4873, H-A:TYR:539:OH:4878, V-A:PRO:540:CB:4885, V-A:ILE:538:CB:4862, V-A:ILE:538:CG2:4863, V-A:LEU:363:CD1:3188, V-A:PRO:540:N:4884, V-A:TYR:531:CE2:4793, V-A:TYR:539:CE1:4875, V-A:PRO:540:CA:4883, H-B:LYS:534:NZ:9795, V-B:ILE:369:CG2:8208, V-B:ASP:366:CG:8184, V-B:ASP:366:CA:8181, V-B:ILE:369:CD1:8210, H-B:TYR:531:OH:9767, V-B:ILE:369:CB:8207, V-A:TYR:531:CZ:4794, V-A:ILE:538:CA:4860, V-B:ASP:366:CB:8183, V-B:ILE:369:CG1:8209, V-A:TYR:539:C:4867, V-A:PRO:540:CD:4887, V-A:TYR:539:CZ:4877, V-A:ILE:538:C:4858, V-B:ASP:366:C:8179, V-B:TYR:539:CE2:9848, V-B:PRO:540:N:9856, V-B:MET:535:CE:9807, V-B:TYR:539:CD2:9846, V-B:TYR:531:CE2:9765, V-B:TYR:539:C:9839, V-B:TYR:531:CZ:9766, V-B:LEU:363:CD1:8160, V-A:ILE:369:CG2:3236, V-A:ASP:366:CB:3211, V-A:ILE:369:CB:3235, V-A:LEU:475:CD1:4257, V-A:SER:385:C:3404, V-A:ILE:369:CD1:3238, V-B:TYR:531:CE1:9764, V-B:TYR:539:CG:9844, V-B:TYR:539:CZ:9849, H-B:TYR:539:OH:9850, H-A:TYR:531:OH:4795, H-A:TYR:539:N:4870, V-A:ASP:366:CA:3209, V-B:TYR:539:CE1:9847, V-B:TYR:539:CD1:9845, H-B:TYR:539:N:9842"]

$$$$
RR16_Rahimova_2017
     RDKit          3D

 80 85  0  0  0  0  0  0  0  0999 V2000
  130.4880  121.0410   64.1090 O   0  0  0  0  0  0  0  0  0  0  0  0
  130.8740  122.2660   63.4010 S   0  0  0  0  0  0  0  0  0  0  0  0
  132.2850  122.5740   63.1420 O   0  0  0  0  0  0  0  0  0  0  0  0
  130.1660  123.6290   64.2710 N   0  0  0  0  0  0  0  0  0  0  0  0
  130.7950  124.9700   64.2260 C   0  0  0  0  0  0  0  0  0  0  0  0
  129.7420  126.0390   64.6160 C   0  0  0  0  0  0  0  0  0  0  0  0
  129.1290  125.9470   66.0260 C   0  0  0  0  0  0  0  0  0  0  0  0
  130.1700  125.8330   67.1530 C   0  0  0  0  0  0  0  0  0  0  0  0
  131.4500  126.6680   66.9680 C   0  0  0  0  0  0  0  0  0  0  0  0
  132.3940  126.2650   65.8180 C   0  0  0  0  0  0  0  0  0  0  0  0
  132.0740  124.9410   65.0960 C   0  0  0  0  0  0  0  0  0  0  0  0
  130.0180  122.2480   61.8300 C   0  0  0  0  0  0  0  0  0  0  0  0
  130.7360  122.3320   60.6350 C   0  0  0  0  0  0  0  0  0  0  0  0
  130.0520  122.4410   59.4270 C   0  0  0  0  0  0  0  0  0  0  0  0
  128.6560  122.4640   59.4190 C   0  0  0  0  0  0  0  0  0  0  0  0
  127.7780  122.7460   57.8840 S   0  0  0  0  0  0  0  0  0  0  0  0
  126.3410  122.6520   58.1760 O   0  0  0  0  0  0  0  0  0  0  0  0
  128.3840  121.8800   56.8650 O   0  0  0  0  0  0  0  0  0  0  0  0
  128.1530  124.4300   57.4710 N   0  0  0  0  0  0  0  0  0  0  0  0
  128.1760  125.3570   58.6320 C   0  0  0  0  0  0  0  0  0  0  0  0
  128.1960  126.8230   58.1520 C   0  0  0  0  0  0  0  0  0  0  0  0
  129.3460  127.0830   57.1470 C   0  0  0  0  0  0  0  0  0  0  0  0
  129.3550  128.5210   56.6230 C   0  0  0  0  0  0  0  0  0  0  0  0
  128.2560  129.0040   55.8990 C   0  0  0  0  0  0  0  0  0  0  0  0
  128.2180  130.3110   55.4090 C   0  0  0  0  0  0  0  0  0  0  0  0
  127.1330  130.7670   54.7060 O   0  0  0  0  0  0  0  0  0  0  0  0
  129.3180  131.1440   55.6610 C   0  0  0  0  0  0  0  0  0  0  0  0
  129.5500  132.4480   55.3280 N   0  0  0  0  0  0  0  0  0  0  0  0
  130.7780  132.7960   55.8470 N   0  0  0  0  0  0  0  0  0  0  0  0
  131.3090  131.7130   56.4480 N   0  0  0  0  0  0  0  0  0  0  0  0
  132.5750  131.8180   57.1610 C   0  0  0  0  0  0  0  0  0  0  0  0
  132.4520  131.4460   58.6320 C   0  0  0  0  0  0  0  0  0  0  0  0
  133.5940  131.1160   59.3700 C   0  0  0  0  0  0  0  0  0  0  0  0
  133.4880  130.7980   60.7250 C   0  0  0  0  0  0  0  0  0  0  0  0
  132.2400  130.8080   61.3480 C   0  0  0  0  0  0  0  0  0  0  0  0
  131.0970  131.1380   60.6190 C   0  0  0  0  0  0  0  0  0  0  0  0
  129.5540  131.1620   61.3900 Cl  0  0  0  0  0  0  0  0  0  0  0  0
  131.2030  131.4530   59.2620 C   0  0  0  0  0  0  0  0  0  0  0  0
  130.4270  130.6470   56.3860 C   0  0  0  0  0  0  0  0  0  0  0  0
  130.4670  129.3370   56.8740 C   0  0  0  0  0  0  0  0  0  0  0  0
  129.3830  126.0280   56.0100 C   0  0  0  0  0  0  0  0  0  0  0  0
  129.3140  124.5890   56.5580 C   0  0  0  0  0  0  0  0  0  0  0  0
  127.9400  122.3380   60.6120 C   0  0  0  0  0  0  0  0  0  0  0  0
  128.6220  122.2330   61.8190 C   0  0  0  0  0  0  0  0  0  0  0  0
  129.1570  123.6030   64.4350 H   0  0  0  0  0  0  0  0  0  0  0  0
  131.1266  125.2503   63.2153 H   0  0  0  0  0  0  0  0  0  0  0  0
  130.2237  127.0241   64.5290 H   0  0  0  0  0  0  0  0  0  0  0  0
  128.8990  125.8675   63.9304 H   0  0  0  0  0  0  0  0  0  0  0  0
  128.5266  126.8506   66.2012 H   0  0  0  0  0  0  0  0  0  0  0  0
  128.5277  125.0263   66.0529 H   0  0  0  0  0  0  0  0  0  0  0  0
  129.6902  126.1533   68.0896 H   0  0  0  0  0  0  0  0  0  0  0  0
  130.4957  124.7823   67.1545 H   0  0  0  0  0  0  0  0  0  0  0  0
  131.1432  127.7100   66.7945 H   0  0  0  0  0  0  0  0  0  0  0  0
  132.0331  126.5001   67.8855 H   0  0  0  0  0  0  0  0  0  0  0  0
  132.3688  127.0691   65.0678 H   0  0  0  0  0  0  0  0  0  0  0  0
  133.3758  126.1094   66.2889 H   0  0  0  0  0  0  0  0  0  0  0  0
  132.9251  124.6915   64.4453 H   0  0  0  0  0  0  0  0  0  0  0  0
  131.8965  124.1936   65.8833 H   0  0  0  0  0  0  0  0  0  0  0  0
  131.8357  122.3122   60.6480 H   0  0  0  0  0  0  0  0  0  0  0  0
  130.6101  122.5088   58.4815 H   0  0  0  0  0  0  0  0  0  0  0  0
  127.2794  125.1895   59.2469 H   0  0  0  0  0  0  0  0  0  0  0  0
  129.0829  125.1638   59.2238 H   0  0  0  0  0  0  0  0  0  0  0  0
  127.2373  127.0508   57.6630 H   0  0  0  0  0  0  0  0  0  0  0  0
  128.3554  127.4680   59.0287 H   0  0  0  0  0  0  0  0  0  0  0  0
  130.2841  126.9622   57.7085 H   0  0  0  0  0  0  0  0  0  0  0  0
  127.4019  128.3364   55.7122 H   0  0  0  0  0  0  0  0  0  0  0  0
  126.3230  130.7720   55.2200 H   0  0  0  0  0  0  0  0  0  0  0  0
  133.3032  131.1435   56.6869 H   0  0  0  0  0  0  0  0  0  0  0  0
  132.9000  132.8676   57.1092 H   0  0  0  0  0  0  0  0  0  0  0  0
  134.5791  131.1071   58.8805 H   0  0  0  0  0  0  0  0  0  0  0  0
  134.3885  130.5395   61.3014 H   0  0  0  0  0  0  0  0  0  0  0  0
  132.1568  130.5554   62.4154 H   0  0  0  0  0  0  0  0  0  0  0  0
  130.3007  131.7075   58.6866 H   0  0  0  0  0  0  0  0  0  0  0  0
  131.3369  128.9616   57.4329 H   0  0  0  0  0  0  0  0  0  0  0  0
  128.5255  126.1954   55.3416 H   0  0  0  0  0  0  0  0  0  0  0  0
  130.3348  126.1418   55.4705 H   0  0  0  0  0  0  0  0  0  0  0  0
  129.2111  123.8870   55.7174 H   0  0  0  0  0  0  0  0  0  0  0  0
  130.2366  124.3797   57.1193 H   0  0  0  0  0  0  0  0  0  0  0  0
  126.8402  122.3219   60.5964 H   0  0  0  0  0  0  0  0  0  0  0  0
  128.0636  122.1384   62.7620 H   0  0  0  0  0  0  0  0  0  0  0  0
  1  2  2  0
  2  3  2  0
  2  4  1  0
  4  5  1  0
  5  6  1  0
  6  7  1  0
  7  8  1  0
  8  9  1  0
  9 10  1  0
 10 11  1  0
  2 12  1  0
 12 13  2  0
 13 14  1  0
 14 15  2  0
 15 16  1  0
 16 17  2  0
 16 18  2  0
 16 19  1  0
 19 20  1  0
 20 21  1  0
 21 22  1  0
 22 23  1  0
 23 24  2  0
 24 25  1  0
 25 26  1  0
 25 27  2  0
 27 28  1  0
 28 29  2  0
 29 30  1  0
 30 31  1  0
 31 32  1  0
 32 33  2  0
 33 34  1  0
 34 35  2  0
 35 36  1  0
 36 37  1  0
 36 38  2  0
 30 39  1  0
 39 40  2  0
 22 41  1  0
 41 42  1  0
 15 43  1  0
 43 44  2  0
 11  5  1  0
 44 12  1  0
 42 19  1  0
 40 23  1  0
 39 27  1  0
 38 32  1  0
  4 45  1  0
  5 46  1  0
  6 47  1  0
  6 48  1  0
  7 49  1  0
  7 50  1  0
  8 51  1  0
  8 52  1  0
  9 53  1  0
  9 54  1  0
 10 55  1  0
 10 56  1  0
 11 57  1  0
 11 58  1  0
 13 59  1  0
 14 60  1  0
 20 61  1  0
 20 62  1  0
 21 63  1  0
 21 64  1  0
 22 65  1  0
 24 66  1  0
 26 67  1  0
 31 68  1  0
 31 69  1  0
 33 70  1  0
 34 71  1  0
 35 72  1  0
 38 73  1  0
 40 74  1  0
 41 75  1  0
 41 76  1  0
 42 77  1  0
 42 78  1  0
 43 79  1  0
 44 80  1  0
M  END
>  <Binding energies>  (1) 
[-11.23]

>  <Ligand effiencies>  (1) 
[-0.23395833333333335]

>  <Interactions>  (1) 
["V-A:HIS:456:CE1:4069, V-A:TYR:484:CZ:4346, V-B:GLU:543:CG:9879, V-A:ARG:545:CZ:4926, V-A:ASP:366:CG:3212, H-A:TYR:484:OH:4347, V-B:GLU:543:CD:9880, H-B:GLU:543:OE2:9882, V-B:ALA:541:CB:9864, V-A:ARG:545:CD:4923, H-A:TYR:539:OH:4878, V-A:PRO:540:CB:4885, V-A:LEU:363:CD1:3188, V-A:PRO:540:N:4884, V-A:PRO:540:CA:4883, H-B:LYS:534:NZ:9795, H-B:TYR:531:OH:9767, V-A:PRO:540:CD:4887, V-A:GLU:543:CD:4908, V-A:TYR:539:CZ:4877, V-B:TYR:539:CE2:9848, V-B:PRO:540:N:9856, V-B:PRO:540:CA:9855, V-B:MET:535:CE:9807, V-B:TYR:539:CD2:9846, V-B:TYR:539:C:9839, V-A:LEU:475:CD1:4257, V-B:ALA:541:CA:9862, V-B:PRO:540:C:9853, V-B:GLU:543:CB:9878, V-A:TYR:484:CE2:4345, V-B:TYR:539:CZ:9849, V-A:LEU:363:CA:3184, V-A:ASN:362:CB:3175, V-A:ASN:362:C:3171, V-A:LEU:363:CB:3186, H-A:TYR:539:N:4870, H-B:TYR:539:N:9842, V-A:PRO:540:CG:4886"]

$$$$
RR17_Rahimova_2017
     RDKit          3D

 63 66  0  0  0  0  0  0  0  0999 V2000
  125.2930  122.3490   56.1870 C   0  0  0  0  0  0  0  0  0  0  0  0
  126.3120  123.2660   56.8700 C   0  0  0  0  0  0  0  0  0  0  0  0
  125.6200  124.3700   57.4460 O   0  0  0  0  0  0  0  0  0  0  0  0
  126.1190  124.9600   58.5930 C   0  0  0  0  0  0  0  0  0  0  0  0
  125.9090  124.2730   59.7870 C   0  0  0  0  0  0  0  0  0  0  0  0
  126.3740  124.7890   60.9930 C   0  0  0  0  0  0  0  0  0  0  0  0
  127.0610  126.0110   61.0280 C   0  0  0  0  0  0  0  0  0  0  0  0
  127.5520  126.5420   62.3440 C   0  0  0  0  0  0  0  0  0  0  0  0
  128.0890  125.8200   63.1900 O   0  0  0  0  0  0  0  0  0  0  0  0
  127.3430  128.0490   62.6140 C   0  0  0  0  0  0  0  0  0  0  0  0
  126.3960  128.3490   64.1490 S   0  0  0  0  0  0  0  0  0  0  0  0
  125.2750  129.5960   63.5770 C   0  0  0  0  0  0  0  0  0  0  0  0
  123.9920  129.6460   63.8460 N   0  0  0  0  0  0  0  0  0  0  0  0
  123.4700  130.7720   63.2220 N   0  0  0  0  0  0  0  0  0  0  0  0
  124.4600  131.3640   62.6030 C   0  0  0  0  0  0  0  0  0  0  0  0
  124.3310  132.6490   61.7990 C   0  0  0  0  0  0  0  0  0  0  0  0
  125.4540  133.5670   61.9700 N   0  0  0  0  0  0  0  0  0  0  0  0
  125.5770  134.7880   61.2810 C   0  0  0  0  0  0  0  0  0  0  0  0
  124.4610  135.2460   60.5830 C   0  0  0  0  0  0  0  0  0  0  0  0
  124.5160  136.4430   59.8750 C   0  0  0  0  0  0  0  0  0  0  0  0
  125.6910  137.2000   59.8620 C   0  0  0  0  0  0  0  0  0  0  0  0
  125.7370  138.5100   59.0750 C   0  0  0  0  0  0  0  0  0  0  0  0
  124.6000  139.2020   59.1790 F   0  0  0  0  0  0  0  0  0  0  0  0
  126.7310  139.2820   59.5140 F   0  0  0  0  0  0  0  0  0  0  0  0
  125.9440  138.2380   57.7860 F   0  0  0  0  0  0  0  0  0  0  0  0
  126.8090  136.7460   60.5680 C   0  0  0  0  0  0  0  0  0  0  0  0
  126.7530  135.5500   61.2760 C   0  0  0  0  0  0  0  0  0  0  0  0
  125.6350  130.6620   62.7770 N   0  0  0  0  0  0  0  0  0  0  0  0
  126.9080  130.9790   62.2800 C   0  0  0  0  0  0  0  0  0  0  0  0
  127.9640  131.1740   63.1710 C   0  0  0  0  0  0  0  0  0  0  0  0
  129.2260  131.4920   62.6780 C   0  0  0  0  0  0  0  0  0  0  0  0
  129.4360  131.6170   61.2950 C   0  0  0  0  0  0  0  0  0  0  0  0
  130.6520  131.9290   60.7170 O   0  0  0  0  0  0  0  0  0  0  0  0
  131.7830  131.1100   60.9950 C   0  0  0  0  0  0  0  0  0  0  0  0
  128.3660  131.4200   60.4190 C   0  0  0  0  0  0  0  0  0  0  0  0
  127.1010  131.1010   60.9050 C   0  0  0  0  0  0  0  0  0  0  0  0
  127.2720  126.7010   59.8260 C   0  0  0  0  0  0  0  0  0  0  0  0
  126.8070  126.1820   58.6200 C   0  0  0  0  0  0  0  0  0  0  0  0
  124.7053  121.8201   56.9517 H   0  0  0  0  0  0  0  0  0  0  0  0
  124.6201  122.9518   55.5594 H   0  0  0  0  0  0  0  0  0  0  0  0
  125.8217  121.6165   55.5594 H   0  0  0  0  0  0  0  0  0  0  0  0
  126.8412  122.7094   57.6575 H   0  0  0  0  0  0  0  0  0  0  0  0
  127.0445  123.6265   56.1328 H   0  0  0  0  0  0  0  0  0  0  0  0
  125.3706  123.3138   59.7762 H   0  0  0  0  0  0  0  0  0  0  0  0
  126.2012  124.2336   61.9266 H   0  0  0  0  0  0  0  0  0  0  0  0
  128.3268  128.5328   62.7041 H   0  0  0  0  0  0  0  0  0  0  0  0
  126.7678  128.4665   61.7745 H   0  0  0  0  0  0  0  0  0  0  0  0
  124.2577  132.3855   60.7335 H   0  0  0  0  0  0  0  0  0  0  0  0
  123.4339  133.1684   62.1672 H   0  0  0  0  0  0  0  0  0  0  0  0
  126.2720  133.2150   62.4460 H   0  0  0  0  0  0  0  0  0  0  0  0
  123.5314  134.6580   60.5917 H   0  0  0  0  0  0  0  0  0  0  0  0
  123.6315  136.7946   59.3236 H   0  0  0  0  0  0  0  0  0  0  0  0
  127.7367  137.3370   60.5636 H   0  0  0  0  0  0  0  0  0  0  0  0
  127.6346  135.2012   61.8337 H   0  0  0  0  0  0  0  0  0  0  0  0
  127.8003  131.0771   64.2544 H   0  0  0  0  0  0  0  0  0  0  0  0
  130.0630  131.6462   63.3749 H   0  0  0  0  0  0  0  0  0  0  0  0
  131.9103  131.0179   62.0837 H   0  0  0  0  0  0  0  0  0  0  0  0
  131.6295  130.1123   60.5580 H   0  0  0  0  0  0  0  0  0  0  0  0
  132.6830  131.5671   60.5580 H   0  0  0  0  0  0  0  0  0  0  0  0
  128.5244  131.5178   59.3349 H   0  0  0  0  0  0  0  0  0  0  0  0
  126.2619  130.9467   60.2106 H   0  0  0  0  0  0  0  0  0  0  0  0
  127.8095  127.6607   59.8354 H   0  0  0  0  0  0  0  0  0  0  0  0
  126.9802  126.7333   57.6840 H   0  0  0  0  0  0  0  0  0  0  0  0
  1  2  1  0
  2  3  1  0
  3  4  1  0
  4  5  2  0
  5  6  1  0
  6  7  2  0
  7  8  1  0
  8  9  2  0
  8 10  1  0
 10 11  1  0
 11 12  1  0
 12 13  2  0
 13 14  1  0
 14 15  2  0
 15 16  1  0
 16 17  1  0
 17 18  1  0
 18 19  2  0
 19 20  1  0
 20 21  2  0
 21 22  1  0
 22 23  1  0
 22 24  1  0
 22 25  1  0
 21 26  1  0
 26 27  2  0
 15 28  1  0
 28 29  1  0
 29 30  2  0
 30 31  1  0
 31 32  2  0
 32 33  1  0
 33 34  1  0
 32 35  1  0
 35 36  2  0
  7 37  1  0
 37 38  2  0
 38  4  1  0
 28 12  1  0
 36 29  1  0
 27 18  1  0
  1 39  1  0
  1 40  1  0
  1 41  1  0
  2 42  1  0
  2 43  1  0
  5 44  1  0
  6 45  1  0
 10 46  1  0
 10 47  1  0
 16 48  1  0
 16 49  1  0
 17 50  1  0
 19 51  1  0
 20 52  1  0
 26 53  1  0
 27 54  1  0
 30 55  1  0
 31 56  1  0
 34 57  1  0
 34 58  1  0
 34 59  1  0
 35 60  1  0
 36 61  1  0
 37 62  1  0
 38 63  1  0
M  END
>  <Binding energies>  (1) 
[-8.59]

>  <Ligand effiencies>  (1) 
[-0.22025641025641024]

>  <Interactions>  (1) 
["V-B:GLU:543:CD:9880, V-A:TYR:539:CD1:4873, V-A:PRO:540:CB:4885, V-A:PRO:540:CA:4883, V-B:ILE:369:CG2:8208, V-B:LEU:475:CD1:9229, V-A:ALA:541:CB:4892, V-B:ILE:369:CD1:8210, H-B:TYR:531:OH:9767, H-A:ALA:541:N:4891, V-A:GLU:543:CD:4908, V-A:TYR:539:CD2:4874, V-A:ALA:541:CA:4890, V-A:GLU:543:CG:4907, V-A:TYR:539:CG:4872, V-B:PRO:540:CD:9859, V-B:MET:535:CE:9807, V-B:TYR:531:CE2:9765, H-B:ARG:545:NH2:9900, V-B:LEU:363:CD1:8160, V-B:ARG:545:CZ:9898, V-B:PRO:482:CB:9297, V-A:TYR:539:CB:4871, V-B:PRO:482:CG:9298, V-B:LEU:373:CD1:8251, V-B:SER:385:CB:8380, V-A:ILE:343:CG2:2991, V-B:HIS:383:CD2:8363, V-B:LEU:373:CG:8250, V-A:VAL:344:CG1:3000, V-B:LEU:373:CD2:8252, H-B:GLY:454:N:9021, H-B:ARG:545:NH1:9899, V-A:ILE:343:CB:2990, V-A:ILE:343:CG1:2992"]

$$$$
RR18_Rahimova_2017
     RDKit          3D

 56 61  0  0  0  0  0  0  0  0999 V2000
  134.6250  123.9890   60.5780 C   0  0  0  0  0  0  0  0  0  0  0  0
  133.3410  124.2330   59.8240 C   0  0  0  0  0  0  0  0  0  0  0  0
  132.9900  124.2130   58.4840 C   0  0  0  0  0  0  0  0  0  0  0  0
  131.6330  124.5280   58.4190 C   0  0  0  0  0  0  0  0  0  0  0  0
  131.2040  124.7280   59.7220 C   0  0  0  0  0  0  0  0  0  0  0  0
  129.8590  125.0850   60.3500 C   0  0  1  0  0  0  0  0  0  0  0  0
  129.5750  124.2270   61.6180 C   0  0  0  0  0  0  0  0  0  0  0  0
  129.3930  122.7830   61.5070 C   0  0  0  0  0  0  0  0  0  0  0  0
  128.2760  122.2640   61.5420 O   0  0  0  0  0  0  0  0  0  0  0  0
  130.5450  122.0900   61.3490 N   0  0  0  0  0  0  0  0  0  0  0  0
  130.7650  120.7000   61.2300 C   0  0  0  0  0  0  0  0  0  0  0  0
  129.7510  119.7380   61.3890 C   0  0  0  0  0  0  0  0  0  0  0  0
  130.0360  118.3800   61.2650 C   0  0  0  0  0  0  0  0  0  0  0  0
  131.3340  117.9610   60.9870 C   0  0  0  0  0  0  0  0  0  0  0  0
  132.3500  118.9020   60.8380 C   0  0  0  0  0  0  0  0  0  0  0  0
  132.0790  120.2690   60.9590 C   0  0  0  0  0  0  0  0  0  0  0  0
  133.2290  121.2580   60.7910 C   0  0  0  0  0  0  0  0  0  0  0  0
  129.6030  124.8370   62.8320 C   0  0  0  0  0  0  0  0  0  0  0  0
  129.7460  126.1770   63.0250 N   0  0  0  0  0  0  0  0  0  0  0  0
  129.7810  126.9600   62.0100 C   0  0  0  0  0  0  0  0  0  0  0  0
  129.8090  128.7050   62.1040 S   0  0  0  0  0  0  0  0  0  0  0  0
  129.8070  128.8540   60.3180 C   0  0  0  0  0  0  0  0  0  0  0  0
  129.8210  130.0170   59.5790 C   0  0  0  0  0  0  0  0  0  0  0  0
  129.7540  131.3230   60.2510 C   0  0  0  0  0  0  0  0  0  0  0  0
  129.7080  131.5960   61.4500 O   0  0  0  0  0  0  0  0  0  0  0  0
  129.7290  132.2600   59.2970 N   0  0  0  0  0  0  0  0  0  0  0  0
  129.8070  131.7420   58.0400 C   0  0  0  0  0  0  0  0  0  0  0  0
  129.8200  132.4330   56.8300 C   0  0  0  0  0  0  0  0  0  0  0  0
  129.9370  131.7130   55.6450 C   0  0  0  0  0  0  0  0  0  0  0  0
  130.0480  130.3240   55.6910 C   0  0  0  0  0  0  0  0  0  0  0  0
  130.0310  129.6530   56.9160 C   0  0  0  0  0  0  0  0  0  0  0  0
  129.8900  130.3630   58.1240 C   0  0  0  0  0  0  0  0  0  0  0  0
  129.7740  127.5040   59.7530 C   0  0  0  0  0  0  0  0  0  0  0  0
  129.7130  127.2130   58.5630 O   0  0  0  0  0  0  0  0  0  0  0  0
  129.7970  126.5450   60.7180 N   0  0  0  0  0  0  0  0  0  0  0  0
  132.2510  124.5480   60.5710 O   0  0  0  0  0  0  0  0  0  0  0  0
  134.4279  124.0265   61.6595 H   0  0  0  0  0  0  0  0  0  0  0  0
  135.0239  122.9990   60.3121 H   0  0  0  0  0  0  0  0  0  0  0  0
  135.3593  124.7637   60.3121 H   0  0  0  0  0  0  0  0  0  0  0  0
  133.6536  123.9914   57.6351 H   0  0  0  0  0  0  0  0  0  0  0  0
  131.0205  124.6033   57.5084 H   0  0  0  0  0  0  0  0  0  0  0  0
  129.0902  124.8698   59.5932 H   0  0  0  0  0  0  0  0  0  0  0  0
  131.3810  122.6450   61.2520 H   0  0  0  0  0  0  0  0  0  0  0  0
  128.7237  120.0610   61.6133 H   0  0  0  0  0  0  0  0  0  0  0  0
  129.2337  117.6374   61.3870 H   0  0  0  0  0  0  0  0  0  0  0  0
  131.5569  116.8886   60.8852 H   0  0  0  0  0  0  0  0  0  0  0  0
  133.3755  118.5670   60.6231 H   0  0  0  0  0  0  0  0  0  0  0  0
  133.5919  121.5701   61.7814 H   0  0  0  0  0  0  0  0  0  0  0  0
  134.0477  120.7774   60.2352 H   0  0  0  0  0  0  0  0  0  0  0  0
  132.8764  122.1394   60.2352 H   0  0  0  0  0  0  0  0  0  0  0  0
  129.5028  124.2014   63.7242 H   0  0  0  0  0  0  0  0  0  0  0  0
  129.6800  133.2490   59.4970 H   0  0  0  0  0  0  0  0  0  0  0  0
  129.7391  133.5299   56.8119 H   0  0  0  0  0  0  0  0  0  0  0  0
  129.9419  132.2367   54.6777 H   0  0  0  0  0  0  0  0  0  0  0  0
  130.1496  129.7527   54.7565 H   0  0  0  0  0  0  0  0  0  0  0  0
  130.1289  128.5576   56.9374 H   0  0  0  0  0  0  0  0  0  0  0  0
  1  2  1  0
  2  3  2  0
  3  4  1  0
  4  5  2  0
  5  6  1  0
  6  7  1  0
  7  8  1  0
  8  9  2  0
  8 10  1  0
 10 11  1  0
 11 12  2  0
 12 13  1  0
 13 14  2  0
 14 15  1  0
 15 16  2  0
 16 17  1  0
  7 18  2  0
 18 19  1  0
 19 20  2  0
 20 21  1  0
 21 22  1  0
 22 23  2  0
 23 24  1  0
 24 25  2  0
 24 26  1  0
 26 27  1  0
 27 28  2  0
 28 29  1  0
 29 30  2  0
 30 31  1  0
 31 32  2  0
 22 33  1  0
 33 34  2  0
 33 35  1  0
  5 36  1  0
 36  2  1  0
 35  6  1  0
 16 11  1  0
 35 20  1  0
 32 23  1  0
 32 27  1  0
  1 37  1  0
  1 38  1  0
  1 39  1  0
  3 40  1  0
  4 41  1  0
  6 42  1  6
 10 43  1  0
 12 44  1  0
 13 45  1  0
 14 46  1  0
 15 47  1  0
 17 48  1  0
 17 49  1  0
 17 50  1  0
 18 51  1  0
 26 52  1  0
 28 53  1  0
 29 54  1  0
 30 55  1  0
 31 56  1  0
M  END
>  <Binding energies>  (1) 
[-9.14]

>  <Ligand effiencies>  (1) 
[-0.2405263157894737]

>  <Interactions>  (1) 
["H-B:ALA:541:N:9863, V-A:ASP:366:CG:3212, V-B:ALA:541:CB:9864, V-A:TYR:539:CD1:4873, V-A:PRO:540:N:4884, V-A:PRO:540:CA:4883, H-A:ALA:541:N:4891, V-A:TYR:539:C:4867, V-A:GLU:543:CD:4908, V-A:PRO:482:CG:4326, V-B:TYR:539:CE2:9848, V-A:PRO:482:CB:4325, V-B:TYR:539:C:9839, V-A:ILE:369:CG2:3236, V-A:ASP:366:CB:3211, V-A:ILE:369:CB:3235, V-A:LEU:475:CD1:4257, V-B:ALA:541:CA:9862, V-B:PRO:540:C:9853, V-A:ILE:369:CD1:3238, V-A:PRO:540:C:4881, V-A:ASP:366:CA:3209, H-A:TYR:539:O:4868, V-A:TYR:539:CA:4869"]

$$$$
RR19_Rahimova_2017
     RDKit          3D

 72 77  0  0  0  0  0  0  0  0999 V2000
  133.0950  123.6370   59.9450 O   0  0  0  0  0  0  0  0  0  0  0  0
  132.8080  124.4090   60.8650 C   0  0  0  0  0  0  0  0  0  0  0  0
  131.9670  125.4710   60.7800 N   0  0  0  0  0  0  0  0  0  0  0  0
  131.0650  125.8770   59.8270 C   0  0  0  0  0  0  0  0  0  0  0  0
  130.5560  124.9610   58.4980 S   0  0  0  0  0  0  0  0  0  0  0  0
  130.6450  127.1480   60.1330 N   0  0  0  0  0  0  0  0  0  0  0  0
  129.6780  127.9500   59.6210 C   0  0  0  0  0  0  0  0  0  0  0  0
  128.7950  127.6170   58.8270 O   0  0  0  0  0  0  0  0  0  0  0  0
  129.7610  129.4210   60.1030 C   0  0  2  0  0  0  0  0  0  0  0  0
  131.1720  130.0670   59.9870 C   0  0  0  0  0  0  0  0  0  0  0  0
  131.4840  130.7060   58.6430 C   0  0  0  0  0  0  0  0  0  0  0  0
  132.5330  130.2180   57.8350 C   0  0  0  0  0  0  0  0  0  0  0  0
  132.7520  130.7620   56.5770 C   0  0  0  0  0  0  0  0  0  0  0  0
  131.9300  131.7760   56.0990 C   0  0  0  0  0  0  0  0  0  0  0  0
  130.8750  132.2460   56.8710 C   0  0  0  0  0  0  0  0  0  0  0  0
  130.6370  131.7130   58.1310 C   0  0  0  0  0  0  0  0  0  0  0  0
  129.2010  129.5730   61.4730 N   0  0  0  0  0  0  0  0  0  0  0  0
  129.0620  130.8000   62.0500 C   0  0  0  0  0  0  0  0  0  0  0  0
  129.3830  131.8900   61.5730 O   0  0  0  0  0  0  0  0  0  0  0  0
  128.4380  130.5490   63.3730 C   0  0  0  0  0  0  0  0  0  0  0  0
  128.0700  131.4270   64.3920 C   0  0  0  0  0  0  0  0  0  0  0  0
  127.4830  130.9020   65.5490 C   0  0  0  0  0  0  0  0  0  0  0  0
  127.2730  129.5220   65.6710 C   0  0  0  0  0  0  0  0  0  0  0  0
  127.6480  128.6580   64.6360 C   0  0  0  0  0  0  0  0  0  0  0  0
  128.2330  129.2010   63.4910 C   0  0  0  0  0  0  0  0  0  0  0  0
  128.7190  128.5540   62.2470 C   0  0  0  0  0  0  0  0  0  0  0  0
  128.6850  127.3540   61.9710 O   0  0  0  0  0  0  0  0  0  0  0  0
  133.4470  124.2050   62.2640 C   0  0  2  0  0  0  0  0  0  0  0  0
  133.9700  122.7610   62.5130 C   0  0  0  0  0  0  0  0  0  0  0  0
  133.0240  121.6720   62.0410 C   0  0  0  0  0  0  0  0  0  0  0  0
  131.6660  121.6990   62.4250 C   0  0  0  0  0  0  0  0  0  0  0  0
  130.7800  120.7610   61.9100 C   0  0  0  0  0  0  0  0  0  0  0  0
  131.2180  119.8120   60.9960 C   0  0  0  0  0  0  0  0  0  0  0  0
  132.5430  119.7980   60.5780 C   0  0  0  0  0  0  0  0  0  0  0  0
  133.4450  120.7260   61.0820 C   0  0  0  0  0  0  0  0  0  0  0  0
  132.5810  124.6730   63.3830 N   0  0  0  0  0  0  0  0  0  0  0  0
  133.1080  125.1240   64.5560 C   0  0  0  0  0  0  0  0  0  0  0  0
  134.2990  125.1950   64.8620 O   0  0  0  0  0  0  0  0  0  0  0  0
  131.9410  125.5140   65.3870 C   0  0  0  0  0  0  0  0  0  0  0  0
  131.8720  126.0340   66.6800 C   0  0  0  0  0  0  0  0  0  0  0  0
  130.6130  126.3160   67.2220 C   0  0  0  0  0  0  0  0  0  0  0  0
  129.4530  126.0800   66.4740 C   0  0  0  0  0  0  0  0  0  0  0  0
  129.5430  125.5600   65.1780 C   0  0  0  0  0  0  0  0  0  0  0  0
  130.8080  125.2830   64.6560 C   0  0  0  0  0  0  0  0  0  0  0  0
  131.2180  124.7400   63.3380 C   0  0  0  0  0  0  0  0  0  0  0  0
  130.4840  124.4190   62.4030 O   0  0  0  0  0  0  0  0  0  0  0  0
  131.9300  126.0180   61.6280 H   0  0  0  0  0  0  0  0  0  0  0  0
  131.2300  127.6140   60.8110 H   0  0  0  0  0  0  0  0  0  0  0  0
  129.1343  129.9884   59.3993 H   0  0  0  0  0  0  0  0  0  0  0  0
  131.2547  130.8445   60.7607 H   0  0  0  0  0  0  0  0  0  0  0  0
  131.8940  129.2462   60.1092 H   0  0  0  0  0  0  0  0  0  0  0  0
  133.1776  129.4059   58.2024 H   0  0  0  0  0  0  0  0  0  0  0  0
  133.5796  130.3892   55.9556 H   0  0  0  0  0  0  0  0  0  0  0  0
  132.1158  132.2083   55.1047 H   0  0  0  0  0  0  0  0  0  0  0  0
  130.2252  133.0440   56.4824 H   0  0  0  0  0  0  0  0  0  0  0  0
  129.7886  132.0753   58.7302 H   0  0  0  0  0  0  0  0  0  0  0  0
  128.2375  132.5092   64.2886 H   0  0  0  0  0  0  0  0  0  0  0  0
  127.1852  131.5756   66.3661 H   0  0  0  0  0  0  0  0  0  0  0  0
  126.8118  129.1164   66.5835 H   0  0  0  0  0  0  0  0  0  0  0  0
  127.4851  127.5736   64.7230 H   0  0  0  0  0  0  0  0  0  0  0  0
  134.3334  124.8563   62.2516 H   0  0  0  0  0  0  0  0  0  0  0  0
  134.9260  122.6429   61.9818 H   0  0  0  0  0  0  0  0  0  0  0  0
  134.0731  122.6431   63.6018 H   0  0  0  0  0  0  0  0  0  0  0  0
  131.3093  122.4626   63.1319 H   0  0  0  0  0  0  0  0  0  0  0  0
  129.7269  120.7702   62.2277 H   0  0  0  0  0  0  0  0  0  0  0  0
  130.5119  119.0670   60.6005 H   0  0  0  0  0  0  0  0  0  0  0  0
  132.8787  119.0493   59.8454 H   0  0  0  0  0  0  0  0  0  0  0  0
  134.4883  120.7237   60.7335 H   0  0  0  0  0  0  0  0  0  0  0  0
  132.7877  126.2183   67.2609 H   0  0  0  0  0  0  0  0  0  0  0  0
  130.5343  126.7249   68.2401 H   0  0  0  0  0  0  0  0  0  0  0  0
  128.4670  126.3043   66.9070 H   0  0  0  0  0  0  0  0  0  0  0  0
  128.6366  125.3735   64.5833 H   0  0  0  0  0  0  0  0  0  0  0  0
  1  2  2  0
  2  3  1  0
  3  4  1  0
  4  5  2  0
  4  6  1  0
  6  7  1  0
  7  8  2  0
  7  9  1  0
  9 10  1  0
 10 11  1  0
 11 12  2  0
 12 13  1  0
 13 14  2  0
 14 15  1  0
 15 16  2  0
  9 17  1  0
 17 18  1  0
 18 19  2  0
 18 20  1  0
 20 21  2  0
 21 22  1  0
 22 23  2  0
 23 24  1  0
 24 25  2  0
 25 26  1  0
 26 27  2  0
  2 28  1  0
 28 29  1  0
 29 30  1  0
 30 31  2  0
 31 32  1  0
 32 33  2  0
 33 34  1  0
 34 35  2  0
 28 36  1  0
 36 37  1  0
 37 38  2  0
 37 39  1  0
 39 40  2  0
 40 41  1  0
 41 42  2  0
 42 43  1  0
 43 44  2  0
 44 45  1  0
 45 46  2  0
 16 11  1  0
 26 17  1  0
 35 30  1  0
 45 36  1  0
 25 20  1  0
 44 39  1  0
  3 47  1  0
  6 48  1  0
  9 49  1  6
 10 50  1  0
 10 51  1  0
 12 52  1  0
 13 53  1  0
 14 54  1  0
 15 55  1  0
 16 56  1  0
 21 57  1  0
 22 58  1  0
 23 59  1  0
 24 60  1  0
 28 61  1  6
 29 62  1  0
 29 63  1  0
 31 64  1  0
 32 65  1  0
 33 66  1  0
 34 67  1  0
 35 68  1  0
 40 69  1  0
 41 70  1  0
 42 71  1  0
 43 72  1  0
M  END
>  <Binding energies>  (1) 
[-11.63]

>  <Ligand effiencies>  (1) 
[-0.24229166666666668]

>  <Interactions>  (1) 
["V-A:HIS:456:CE1:4069, H-A:GLY:454:N:4049, H-A:ARG:545:NH2:4928, V-B:GLU:543:CG:9879, V-A:ARG:545:CZ:4926, V-A:ASP:366:CG:3212, H-A:TYR:484:OH:4347, V-B:GLU:543:CD:9880, H-A:ARG:545:NE:4924, V-B:ALA:541:CB:9864, V-A:GLY:453:C:4041, V-A:PRO:540:CB:4885, V-A:ILE:538:CB:4862, V-A:LEU:363:CD1:3188, H-A:ASP:366:OD2:3214, V-A:PRO:540:N:4884, V-A:TYR:531:CE2:4793, V-A:PRO:540:CA:4883, V-A:ALA:541:CB:4892, V-A:TYR:531:CZ:4794, H-A:ALA:541:N:4891, V-A:TYR:539:C:4867, V-A:PRO:540:CD:4887, V-A:GLU:543:CD:4908, V-A:GLU:543:CG:4907, V-B:TYR:539:CD2:9846, V-A:GLY:454:CA:4048, V-A:ILE:369:CG2:3236, V-A:ASP:366:CB:3211, V-A:LEU:475:CD1:4257, V-A:ILE:369:CD1:3238, V-B:GLU:543:CB:9878, V-B:TYR:484:CZ:9318, V-B:TYR:484:CE2:9317, H-A:ASP:366:OD1:3213, H-A:ARG:545:NH1:4927"]

$$$$
RR19_Rahimova_2017-again1
     RDKit          3D

 71 76  0  0  0  0  0  0  0  0999 V2000
  132.2910  122.9390   58.8840 O   0  0  0  0  0  0  0  0  0  0  0  0
  131.1910  123.4560   59.0940 C   0  0  0  0  0  0  0  0  0  0  0  0
  130.7600  124.6340   58.5840 N   0  0  0  0  0  0  0  0  0  0  0  0
  131.2750  125.4840   57.6450 C   0  0  0  0  0  0  0  0  0  0  0  0
  132.7420  125.4360   56.8270 S   0  0  0  0  0  0  0  0  0  0  0  0
  130.2970  126.4280   57.3860 N   0  0  0  0  0  0  0  0  0  0  0  0
  129.2000  126.6650   58.0280 C   0  0  0  0  0  0  0  0  0  0  0  0
  128.7620  126.1770   59.0890 O   0  0  0  0  0  0  0  0  0  0  0  0
  128.2520  127.7230   57.3700 C   0  0  2  0  0  0  0  0  0  0  0  0
  128.6790  128.0330   55.8970 C   0  0  0  0  0  0  0  0  0  0  0  0
  128.9720  129.5060   55.6180 C   0  0  0  0  0  0  0  0  0  0  0  0
  127.9870  130.3150   55.0450 C   0  0  0  0  0  0  0  0  0  0  0  0
  128.2470  131.6620   54.8040 C   0  0  0  0  0  0  0  0  0  0  0  0
  129.4930  132.1940   55.1350 C   0  0  0  0  0  0  0  0  0  0  0  0
  130.4800  131.3910   55.7030 C   0  0  0  0  0  0  0  0  0  0  0  0
  130.2200  130.0450   55.9430 C   0  0  0  0  0  0  0  0  0  0  0  0
  128.0210  128.9360   58.2220 N   0  0  0  0  0  0  0  0  0  0  0  0
  126.7690  129.4300   58.4360 C   0  0  0  0  0  0  0  0  0  0  0  0
  125.7070  128.9990   57.9860 O   0  0  0  0  0  0  0  0  0  0  0  0
  126.9560  130.6040   59.3280 C   0  0  0  0  0  0  0  0  0  0  0  0
  126.0300  131.4960   59.8710 C   0  0  0  0  0  0  0  0  0  0  0  0
  126.4980  132.5270   60.6920 C   0  0  0  0  0  0  0  0  0  0  0  0
  127.8680  132.6520   60.9600 C   0  0  0  0  0  0  0  0  0  0  0  0
  128.7790  131.7470   60.4070 C   0  0  0  0  0  0  0  0  0  0  0  0
  128.2930  130.7270   59.5880 C   0  0  0  0  0  0  0  0  0  0  0  0
  128.9990  129.6360   58.8730 C   0  0  0  0  0  0  0  0  0  0  0  0
  130.2090  129.4140   58.8700 O   0  0  0  0  0  0  0  0  0  0  0  0
  130.1670  122.7390   60.0220 C   0  0  2  0  0  0  0  0  0  0  0  0
  130.3890  121.2020   60.1290 C   0  0  0  0  0  0  0  0  0  0  0  0
  131.7270  120.8130   60.7310 C   0  0  0  0  0  0  0  0  0  0  0  0
  132.4080  119.6700   60.2600 C   0  0  0  0  0  0  0  0  0  0  0  0
  133.6760  119.3690   60.7410 C   0  0  0  0  0  0  0  0  0  0  0  0
  134.2910  120.2060   61.6650 C   0  0  0  0  0  0  0  0  0  0  0  0
  133.6480  121.3540   62.1080 C   0  0  0  0  0  0  0  0  0  0  0  0
  132.3800  121.6720   61.6400 C   0  0  0  0  0  0  0  0  0  0  0  0
  128.7410  123.0810   59.7340 N   0  0  0  0  0  0  0  0  0  0  0  0
  128.3040  123.3130   58.4640 C   0  0  0  0  0  0  0  0  0  0  0  0
  128.9820  123.3570   57.4370 O   0  0  0  0  0  0  0  0  0  0  0  0
  126.8360  123.4930   58.5780 C   0  0  0  0  0  0  0  0  0  0  0  0
  125.8670  123.7430   57.6050 C   0  0  0  0  0  0  0  0  0  0  0  0
  124.5290  123.8470   58.0030 C   0  0  0  0  0  0  0  0  0  0  0  0
  124.1810  123.7040   59.3530 C   0  0  0  0  0  0  0  0  0  0  0  0
  125.1670  123.4570   60.3140 C   0  0  0  0  0  0  0  0  0  0  0  0
  126.4950  123.3540   59.8960 C   0  0  0  0  0  0  0  0  0  0  0  0
  127.7360  123.0740   60.6600 C   0  0  0  0  0  0  0  0  0  0  0  0
  127.8340  122.8670   61.8700 O   0  0  0  0  0  0  0  0  0  0  0  0
  129.8370  124.8980   58.8930 H   0  0  0  0  0  0  0  0  0  0  0  0
  127.2532  127.2668   57.3055 H   0  0  0  0  0  0  0  0  0  0  0  0
  129.5872  127.4540   55.6737 H   0  0  0  0  0  0  0  0  0  0  0  0
  127.8255  127.7581   55.2599 H   0  0  0  0  0  0  0  0  0  0  0  0
  127.0071  129.8883   54.7845 H   0  0  0  0  0  0  0  0  0  0  0  0
  127.4738  132.3027   54.3550 H   0  0  0  0  0  0  0  0  0  0  0  0
  129.6986  133.2579   54.9458 H   0  0  0  0  0  0  0  0  0  0  0  0
  131.4601  131.8189   55.9605 H   0  0  0  0  0  0  0  0  0  0  0  0
  130.9964  129.4055   56.3883 H   0  0  0  0  0  0  0  0  0  0  0  0
  124.9560  131.3905   59.6580 H   0  0  0  0  0  0  0  0  0  0  0  0
  125.7872  133.2434   61.1296 H   0  0  0  0  0  0  0  0  0  0  0  0
  128.2278  133.4650   61.6077 H   0  0  0  0  0  0  0  0  0  0  0  0
  129.8558  131.8371   60.6131 H   0  0  0  0  0  0  0  0  0  0  0  0
  130.3801  123.1517   61.0191 H   0  0  0  0  0  0  0  0  0  0  0  0
  129.5909  120.7800   60.7574 H   0  0  0  0  0  0  0  0  0  0  0  0
  130.3738  120.8056   59.1030 H   0  0  0  0  0  0  0  0  0  0  0  0
  131.9345  119.0173   59.5118 H   0  0  0  0  0  0  0  0  0  0  0  0
  134.1952  118.4652   60.3895 H   0  0  0  0  0  0  0  0  0  0  0  0
  135.2921  119.9575   62.0471 H   0  0  0  0  0  0  0  0  0  0  0  0
  134.1455  122.0148   62.8332 H   0  0  0  0  0  0  0  0  0  0  0  0
  131.8844  122.5940   61.9781 H   0  0  0  0  0  0  0  0  0  0  0  0
  126.1488  123.8559   56.5477 H   0  0  0  0  0  0  0  0  0  0  0  0
  123.7479  124.0417   57.2534 H   0  0  0  0  0  0  0  0  0  0  0  0
  123.1275  123.7864   59.6584 H   0  0  0  0  0  0  0  0  0  0  0  0
  124.9018  123.3463   61.3758 H   0  0  0  0  0  0  0  0  0  0  0  0
  1  2  2  0
  2  3  1  0
  3  4  1  0
  4  5  2  0
  4  6  1  0
  6  7  2  0
  7  8  1  0
  7  9  1  0
  9 10  1  0
 10 11  1  0
 11 12  2  0
 12 13  1  0
 13 14  2  0
 14 15  1  0
 15 16  2  0
  9 17  1  0
 17 18  1  0
 18 19  2  0
 18 20  1  0
 20 21  2  0
 21 22  1  0
 22 23  2  0
 23 24  1  0
 24 25  2  0
 25 26  1  0
 26 27  2  0
  2 28  1  0
 28 29  1  0
 29 30  1  0
 30 31  2  0
 31 32  1  0
 32 33  2  0
 33 34  1  0
 34 35  2  0
 28 36  1  0
 36 37  1  0
 37 38  2  0
 37 39  1  0
 39 40  2  0
 40 41  1  0
 41 42  2  0
 42 43  1  0
 43 44  2  0
 44 45  1  0
 45 46  2  0
 16 11  1  0
 26 17  1  0
 35 30  1  0
 45 36  1  0
 25 20  1  0
 44 39  1  0
  3 47  1  0
  9 48  1  6
 10 49  1  0
 10 50  1  0
 12 51  1  0
 13 52  1  0
 14 53  1  0
 15 54  1  0
 16 55  1  0
 21 56  1  0
 22 57  1  0
 23 58  1  0
 24 59  1  0
 28 60  1  1
 29 61  1  0
 29 62  1  0
 31 63  1  0
 32 64  1  0
 33 65  1  0
 34 66  1  0
 35 67  1  0
 40 68  1  0
 41 69  1  0
 42 70  1  0
 43 71  1  0
M  CHG  1   8  -1
M  END
>  <Binding energies>  (1) 
[-9.77]

>  <Ligand effiencies>  (1) 
[-0.2078723404255319]

>  <Interactions>  (1) 
["H-B:ALA:541:N:9863, V-A:TYR:539:CD1:4873, V-A:ILE:538:CB:4862, V-A:ILE:538:CG2:4863, V-A:TYR:539:CE1:4875, V-B:ASP:366:CG:8184, V-A:ALA:541:CB:4892, H-B:TYR:531:OH:9767, V-A:ILE:538:CA:4860, V-A:TYR:539:CE2:4876, V-A:TYR:539:CZ:4877, V-A:ILE:538:C:4858, V-B:PRO:540:CB:9857, V-B:TYR:539:CE2:9848, V-B:PRO:540:CA:9855, V-B:TYR:539:CD2:9846, V-B:TYR:531:CE2:9765, V-B:LEU:363:CD1:8160, V-A:GLY:454:CA:4048, V-A:ILE:369:CG2:3236, V-A:ASP:366:CB:3211, V-A:LEU:475:CD1:4257, V-A:SER:385:C:3404, V-A:ILE:369:CD1:3238, V-A:SER:385:CA:3406, V-B:TYR:539:CZ:9849, H-B:TYR:539:OH:9850, V-B:LEU:363:CA:8156, V-A:ASP:366:CA:3209, V-A:ASP:366:C:3207, V-B:LEU:363:CB:8158"]

$$$$
RR1_Rahimova_2017
     RDKit          3D

 68 71  0  0  0  0  0  0  0  0999 V2000
  125.0010  122.0150   54.9750 C   0  0  0  0  0  0  0  0  0  0  0  0
  126.0930  121.5370   55.7520 O   0  0  0  0  0  0  0  0  0  0  0  0
  126.4240  122.1890   56.9230 C   0  0  0  0  0  0  0  0  0  0  0  0
  125.5120  122.9030   57.7170 C   0  0  0  0  0  0  0  0  0  0  0  0
  125.9400  123.5370   58.8800 C   0  0  0  0  0  0  0  0  0  0  0  0
  127.2770  123.4650   59.2730 C   0  0  0  0  0  0  0  0  0  0  0  0
  127.6210  124.1770   60.4380 N   0  0  0  0  0  0  0  0  0  0  0  0
  127.7530  123.7300   61.7050 C   0  0  0  0  0  0  0  0  0  0  0  0
  127.5140  122.5790   62.0720 O   0  0  0  0  0  0  0  0  0  0  0  0
  128.2330  124.7890   62.7100 C   0  0  0  0  0  0  0  0  0  0  0  0
  129.9290  125.4140   62.4390 S   0  0  0  0  0  0  0  0  0  0  0  0
  130.5250  124.0760   61.4610 C   0  0  0  0  0  0  0  0  0  0  0  0
  130.5260  122.8250   61.8470 N   0  0  0  0  0  0  0  0  0  0  0  0
  131.0410  122.1730   60.8100 C   0  0  0  0  0  0  0  0  0  0  0  0
  131.2200  120.6810   60.8070 C   0  0  0  0  0  0  0  0  0  0  0  0
  130.2450  119.8230   61.3400 C   0  0  0  0  0  0  0  0  0  0  0  0
  130.4400  118.4410   61.3260 C   0  0  0  0  0  0  0  0  0  0  0  0
  131.6180  117.9420   60.7720 C   0  0  0  0  0  0  0  0  0  0  0  0
  132.5810  118.7420   60.2480 N   0  0  0  0  0  0  0  0  0  0  0  0
  132.3720  120.0830   60.2710 C   0  0  0  0  0  0  0  0  0  0  0  0
  131.3810  122.9250   59.7800 N   0  0  0  0  0  0  0  0  0  0  0  0
  131.0510  124.1510   60.1970 N   0  0  0  0  0  0  0  0  0  0  0  0
  131.2460  125.3100   59.3260 C   0  0  0  0  0  0  0  0  0  0  0  0
  130.1790  126.4110   59.4590 C   0  0  0  0  0  0  0  0  0  0  0  0
  128.9760  126.1380   59.3850 O   0  0  0  0  0  0  0  0  0  0  0  0
  130.6640  127.6520   59.6540 N   0  0  0  0  0  0  0  0  0  0  0  0
  129.7630  128.6710   59.9300 N   0  0  0  0  0  0  0  0  0  0  0  0
  130.2190  129.7520   60.5980 C   0  0  0  0  0  0  0  0  0  0  0  0
  131.4060  129.9380   60.8870 O   0  0  0  0  0  0  0  0  0  0  0  0
  129.1730  130.7840   60.9680 C   0  0  0  0  0  0  0  0  0  0  0  0
  128.7700  131.7390   60.0290 C   0  0  0  0  0  0  0  0  0  0  0  0
  127.8200  132.7020   60.3510 C   0  0  0  0  0  0  0  0  0  0  0  0
  127.2460  132.7440   61.6320 C   0  0  0  0  0  0  0  0  0  0  0  0
  126.3070  133.6830   62.0210 O   0  0  0  0  0  0  0  0  0  0  0  0
  126.3000  134.9650   61.4030 C   0  0  0  0  0  0  0  0  0  0  0  0
  127.6410  131.8010   62.5900 C   0  0  0  0  0  0  0  0  0  0  0  0
  127.0610  131.8980   63.8440 O   0  0  0  0  0  0  0  0  0  0  0  0
  127.8140  131.5420   64.9970 C   0  0  0  0  0  0  0  0  0  0  0  0
  128.5980  130.8280   62.2490 C   0  0  0  0  0  0  0  0  0  0  0  0
  128.1920  122.7520   58.4820 C   0  0  0  0  0  0  0  0  0  0  0  0
  127.7600  122.1190   57.3210 C   0  0  0  0  0  0  0  0  0  0  0  0
  124.2008  122.3653   55.6436 H   0  0  0  0  0  0  0  0  0  0  0  0
  125.3392  122.8474   54.3404 H   0  0  0  0  0  0  0  0  0  0  0  0
  124.6188  121.2019   54.3404 H   0  0  0  0  0  0  0  0  0  0  0  0
  124.4549  122.9615   57.4187 H   0  0  0  0  0  0  0  0  0  0  0  0
  125.2196  124.0984   59.4932 H   0  0  0  0  0  0  0  0  0  0  0  0
  127.7520  125.1680   60.2970 H   0  0  0  0  0  0  0  0  0  0  0  0
  127.5435  125.6444   62.6571 H   0  0  0  0  0  0  0  0  0  0  0  0
  128.2460  124.2921   63.6913 H   0  0  0  0  0  0  0  0  0  0  0  0
  129.3234  120.2417   61.7705 H   0  0  0  0  0  0  0  0  0  0  0  0
  129.6819  117.7614   61.7424 H   0  0  0  0  0  0  0  0  0  0  0  0
  131.7736  116.8531   60.7590 H   0  0  0  0  0  0  0  0  0  0  0  0
  133.1477  120.7373   59.8464 H   0  0  0  0  0  0  0  0  0  0  0  0
  132.2247  125.7532   59.5619 H   0  0  0  0  0  0  0  0  0  0  0  0
  131.1733  124.9348   58.2945 H   0  0  0  0  0  0  0  0  0  0  0  0
  131.6150  127.8650   59.9240 H   0  0  0  0  0  0  0  0  0  0  0  0
  128.8340  128.3080   60.0910 H   0  0  0  0  0  0  0  0  0  0  0  0
  129.2109  131.7281   59.0213 H   0  0  0  0  0  0  0  0  0  0  0  0
  127.5147  133.4392   59.5938 H   0  0  0  0  0  0  0  0  0  0  0  0
  126.2957  135.7456   62.1780 H   0  0  0  0  0  0  0  0  0  0  0  0
  127.1976  135.0750   60.7767 H   0  0  0  0  0  0  0  0  0  0  0  0
  125.4013  135.0652   60.7767 H   0  0  0  0  0  0  0  0  0  0  0  0
  127.2481  131.8096   65.9015 H   0  0  0  0  0  0  0  0  0  0  0  0
  128.0042  130.4586   64.9906 H   0  0  0  0  0  0  0  0  0  0  0  0
  128.7720  132.0825   64.9906 H   0  0  0  0  0  0  0  0  0  0  0  0
  128.9026  130.0857   63.0015 H   0  0  0  0  0  0  0  0  0  0  0  0
  129.2493  122.6940   58.7800 H   0  0  0  0  0  0  0  0  0  0  0  0
  128.4803  121.5563   56.7090 H   0  0  0  0  0  0  0  0  0  0  0  0
  1  2  1  0
  2  3  1  0
  3  4  2  0
  4  5  1  0
  5  6  2  0
  6  7  1  0
  7  8  1  0
  8  9  2  0
  8 10  1  0
 10 11  1  0
 11 12  1  0
 12 13  2  0
 13 14  1  0
 14 15  1  0
 15 16  2  0
 16 17  1  0
 17 18  2  0
 18 19  1  0
 19 20  2  0
 14 21  2  0
 21 22  1  0
 22 23  1  0
 23 24  1  0
 24 25  2  0
 24 26  1  0
 26 27  1  0
 27 28  1  0
 28 29  2  0
 28 30  1  0
 30 31  2  0
 31 32  1  0
 32 33  2  0
 33 34  1  0
 34 35  1  0
 33 36  1  0
 36 37  1  0
 37 38  1  0
 36 39  2  0
  6 40  1  0
 40 41  2  0
 41  3  1  0
 22 12  1  0
 39 30  1  0
 20 15  1  0
  1 42  1  0
  1 43  1  0
  1 44  1  0
  4 45  1  0
  5 46  1  0
  7 47  1  0
 10 48  1  0
 10 49  1  0
 16 50  1  0
 17 51  1  0
 18 52  1  0
 20 53  1  0
 23 54  1  0
 23 55  1  0
 26 56  1  0
 27 57  1  0
 31 58  1  0
 32 59  1  0
 35 60  1  0
 35 61  1  0
 35 62  1  0
 38 63  1  0
 38 64  1  0
 38 65  1  0
 39 66  1  0
 40 67  1  0
 41 68  1  0
M  END
>  <Binding energies>  (1) 
[-8.54]

>  <Ligand effiencies>  (1) 
[-0.19409090909090906]

>  <Interactions>  (1) 
["V-B:GLU:543:CG:9879, H-B:ALA:541:N:9863, V-A:ASP:366:CG:3212, V-B:GLU:543:CD:9880, V-B:ALA:541:CB:9864, V-A:TYR:539:CD1:4873, H-A:ASP:366:OD2:3214, V-A:TYR:539:CE1:4875, V-B:LEU:475:CD1:9229, V-A:ALA:541:CB:4892, V-A:GLU:543:CD:4908, V-A:GLU:543:CG:4907, V-A:PRO:482:CG:4326, V-B:PRO:540:CB:9857, V-B:TYR:539:CE2:9848, V-B:PRO:540:CD:9859, V-B:PRO:540:N:9856, V-B:PRO:540:CA:9855, V-B:MET:535:CE:9807, V-B:TYR:539:CA:9841, V-B:TYR:539:CD2:9846, V-A:PRO:482:CB:4325, V-B:TYR:539:C:9839, V-B:LEU:363:CD1:8160, V-A:ILE:369:CG2:3236, V-B:TYR:539:CG:9844, V-B:TYR:484:CE2:9317, V-B:ILE:538:CG2:9835, H-B:TYR:539:N:9842, V-B:ILE:538:CA:9832, H-A:SER:385:OG:3409, H-A:HIS:383:NE2:3393, V-B:MET:535:CG:9805, V-B:ILE:538:CB:9834, V-B:ILE:538:CG1:9836"]

$$$$
RR20_Rahimova_2017
     RDKit          3D

 68 73  0  0  0  0  0  0  0  0999 V2000
  126.7310  136.0850   60.6120 C   0  0  0  0  0  0  0  0  0  0  0  0
  126.1670  134.7720   61.1250 C   0  0  0  0  0  0  0  0  0  0  0  0
  127.0030  133.8630   61.7720 C   0  0  0  0  0  0  0  0  0  0  0  0
  126.4860  132.6620   62.2510 C   0  0  0  0  0  0  0  0  0  0  0  0
  125.1320  132.3550   62.0750 C   0  0  0  0  0  0  0  0  0  0  0  0
  124.5850  131.0550   62.6210 C   0  0  0  0  0  0  0  0  0  0  0  0
  123.3840  131.0110   62.8970 O   0  0  0  0  0  0  0  0  0  0  0  0
  125.4240  129.9890   62.7740 N   0  0  0  0  0  0  0  0  0  0  0  0
  126.1710  129.4250   61.6380 C   0  0  0  0  0  0  0  0  0  0  0  0
  127.1000  128.3710   62.2160 C   0  0  0  0  0  0  0  0  0  0  0  0
  127.0810  128.6780   63.6830 C   0  0  0  0  0  0  0  0  0  0  0  0
  127.8160  128.0910   64.7130 C   0  0  0  0  0  0  0  0  0  0  0  0
  127.5420  128.4000   66.0510 C   0  0  0  0  0  0  0  0  0  0  0  0
  128.3390  127.7750   67.1610 C   0  0  0  0  0  0  0  0  0  0  0  0
  128.3890  128.3990   68.3280 N   0  0  0  0  0  0  0  0  0  0  0  0
  129.0940  127.7560   69.2250 C   0  0  0  0  0  0  0  0  0  0  0  0
  129.3430  128.1230   70.5380 N   0  0  0  0  0  0  0  0  0  0  0  0
  128.9700  127.4530   71.6560 C   0  0  0  0  0  0  0  0  0  0  0  0
  128.3590  126.3830   71.6460 O   0  0  0  0  0  0  0  0  0  0  0  0
  129.3590  128.0540   73.0280 C   0  0  0  0  0  0  0  0  0  0  0  0
  130.1910  127.1470   73.8400 N   0  0  0  0  0  0  0  0  0  0  0  0
  129.9950  125.7340   73.4810 C   0  0  0  0  0  0  0  0  0  0  0  0
  130.6750  124.8200   74.5260 C   0  0  0  0  0  0  0  0  0  0  0  0
  132.0900  125.2750   74.8860 C   0  0  0  0  0  0  0  0  0  0  0  0
  132.9560  124.4390   75.6000 C   0  0  0  0  0  0  0  0  0  0  0  0
  134.2310  124.8680   75.9610 C   0  0  0  0  0  0  0  0  0  0  0  0
  134.6570  126.1440   75.6080 C   0  0  0  0  0  0  0  0  0  0  0  0
  133.8090  126.9830   74.8900 C   0  0  0  0  0  0  0  0  0  0  0  0
  132.5250  126.5660   74.5220 C   0  0  0  0  0  0  0  0  0  0  0  0
  131.6150  127.4650   73.6830 C   0  0  0  0  0  0  0  0  0  0  0  0
  129.7820  126.2820   68.6660 S   0  0  0  0  0  0  0  0  0  0  0  0
  129.0660  126.5670   67.0970 C   0  0  0  0  0  0  0  0  0  0  0  0
  129.3050  125.5990   65.9590 C   0  0  0  0  0  0  0  0  0  0  0  0
  126.4760  129.2680   66.3320 C   0  0  0  0  0  0  0  0  0  0  0  0
  125.7270  129.8420   65.3050 C   0  0  0  0  0  0  0  0  0  0  0  0
  126.0660  129.5910   63.9690 C   0  0  0  0  0  0  0  0  0  0  0  0
  124.2920  133.2860   61.4510 C   0  0  0  0  0  0  0  0  0  0  0  0
  124.8090  134.4880   60.9720 C   0  0  0  0  0  0  0  0  0  0  0  0
  127.0055  136.7240   61.4642 H   0  0  0  0  0  0  0  0  0  0  0  0
  127.6233  135.8866   60.0001 H   0  0  0  0  0  0  0  0  0  0  0  0
  125.9728  136.5956   60.0001 H   0  0  0  0  0  0  0  0  0  0  0  0
  128.0703  134.0944   61.9040 H   0  0  0  0  0  0  0  0  0  0  0  0
  127.1453  131.9509   62.7704 H   0  0  0  0  0  0  0  0  0  0  0  0
  125.4780  128.9670   60.9168 H   0  0  0  0  0  0  0  0  0  0  0  0
  126.7351  130.2047   61.1053 H   0  0  0  0  0  0  0  0  0  0  0  0
  126.7206  127.3576   62.0186 H   0  0  0  0  0  0  0  0  0  0  0  0
  128.1095  128.3947   61.7797 H   0  0  0  0  0  0  0  0  0  0  0  0
  128.6186  127.3785   64.4719 H   0  0  0  0  0  0  0  0  0  0  0  0
  129.8500  128.9870   70.6690 H   0  0  0  0  0  0  0  0  0  0  0  0
  129.9198  128.9846   72.8566 H   0  0  0  0  0  0  0  0  0  0  0  0
  128.4273  128.2323   73.5849 H   0  0  0  0  0  0  0  0  0  0  0  0
  128.9179  125.5126   73.4503 H   0  0  0  0  0  0  0  0  0  0  0  0
  130.4441  125.5481   72.4942 H   0  0  0  0  0  0  0  0  0  0  0  0
  130.0639  124.8180   75.4407 H   0  0  0  0  0  0  0  0  0  0  0  0
  130.7544  123.8161   74.0835 H   0  0  0  0  0  0  0  0  0  0  0  0
  132.6248  123.4282   75.8802 H   0  0  0  0  0  0  0  0  0  0  0  0
  134.8991  124.1995   76.5237 H   0  0  0  0  0  0  0  0  0  0  0  0
  135.6611  126.4894   75.8953 H   0  0  0  0  0  0  0  0  0  0  0  0
  134.1536  127.9888   74.6078 H   0  0  0  0  0  0  0  0  0  0  0  0
  131.7765  128.5094   73.9881 H   0  0  0  0  0  0  0  0  0  0  0  0
  131.8740  127.3006   72.6266 H   0  0  0  0  0  0  0  0  0  0  0  0
  129.5499  124.6071   66.3667 H   0  0  0  0  0  0  0  0  0  0  0  0
  128.3975  125.5278   65.3415 H   0  0  0  0  0  0  0  0  0  0  0  0
  130.1414  125.9583   65.3415 H   0  0  0  0  0  0  0  0  0  0  0  0
  126.2272  129.4993   67.3782 H   0  0  0  0  0  0  0  0  0  0  0  0
  124.8714  130.4908   65.5436 H   0  0  0  0  0  0  0  0  0  0  0  0
  123.2198  133.0674   61.3386 H   0  0  0  0  0  0  0  0  0  0  0  0
  124.1477  135.2122   60.4739 H   0  0  0  0  0  0  0  0  0  0  0  0
  1  2  1  0
  2  3  2  0
  3  4  1  0
  4  5  2  0
  5  6  1  0
  6  7  2  0
  6  8  1  0
  8  9  1  0
  9 10  1  0
 10 11  1  0
 11 12  2  0
 12 13  1  0
 13 14  1  0
 14 15  1  0
 15 16  2  0
 16 17  1  0
 17 18  1  0
 18 19  2  0
 18 20  1  0
 20 21  1  0
 21 22  1  0
 22 23  1  0
 23 24  1  0
 24 25  2  0
 25 26  1  0
 26 27  2  0
 27 28  1  0
 28 29  2  0
 29 30  1  0
 16 31  1  0
 31 32  1  0
 32 33  1  0
 13 34  2  0
 34 35  1  0
 35 36  2  0
  5 37  1  0
 37 38  2  0
 38  2  1  0
 36  8  1  0
 36 11  1  0
 32 14  2  0
 30 21  1  0
 29 24  1  0
  1 39  1  0
  1 40  1  0
  1 41  1  0
  3 42  1  0
  4 43  1  0
  9 44  1  0
  9 45  1  0
 10 46  1  0
 10 47  1  0
 12 48  1  0
 17 49  1  0
 20 50  1  0
 20 51  1  0
 22 52  1  0
 22 53  1  0
 23 54  1  0
 23 55  1  0
 25 56  1  0
 26 57  1  0
 27 58  1  0
 28 59  1  0
 30 60  1  0
 30 61  1  0
 33 62  1  0
 33 63  1  0
 33 64  1  0
 34 65  1  0
 35 66  1  0
 37 67  1  0
 38 68  1  0
M  END
>  <Binding energies>  (1) 
[-10.54]

>  <Ligand effiencies>  (1) 
[-0.27025641025641023]

>  <Interactions>  (1) 
["V-A:LYS:547:CD:4949, V-A:LYS:547:CE:4950, V-A:LYS:547:CG:4948, V-B:HIS:456:CD2:9039, V-A:HIS:456:CD2:4067, V-A:HIS:456:CE1:4069, V-A:HIS:456:CB:4064, V-A:VAL:458:CG2:4086, V-A:HIS:456:CG:4065, V-B:GLU:543:CG:9879, V-B:GLU:543:CD:9880, V-A:TYR:539:CD1:4873, V-B:ILE:369:CG2:8208, V-B:LEU:475:CD1:9229, V-A:ALA:541:CB:4892, V-B:ILE:369:CD1:8210, V-A:TYR:539:C:4867, V-A:GLU:543:CD:4908, V-A:LYS:471:CD:4218, V-B:GLU:543:CB:9878, V-B:HIS:456:CE1:9041, V-B:TYR:484:CZ:9318, V-B:PRO:482:CB:9297, V-A:TYR:539:CB:4871, V-B:PRO:482:CG:9298, V-A:HIS:456:C:4060, H-B:GLY:454:N:9021, H-A:GLU:543:O:4903"]

$$$$
RR20_Rahimova_2017-again1
     RDKit          3D

 68 73  0  0  0  0  0  0  0  0999 V2000
  126.4930  138.4210   59.8190 C   0  0  0  0  0  0  0  0  0  0  0  0
  126.0700  137.0260   60.2450 C   0  0  0  0  0  0  0  0  0  0  0  0
  126.9290  136.2440   61.0180 C   0  0  0  0  0  0  0  0  0  0  0  0
  126.5390  134.9680   61.4150 C   0  0  0  0  0  0  0  0  0  0  0  0
  125.2930  134.4580   61.0330 C   0  0  0  0  0  0  0  0  0  0  0  0
  124.8800  133.0760   61.4880 C   0  0  0  0  0  0  0  0  0  0  0  0
  124.1880  132.9910   62.5050 O   0  0  0  0  0  0  0  0  0  0  0  0
  125.2580  131.9910   60.7520 N   0  0  0  0  0  0  0  0  0  0  0  0
  124.2700  131.1590   60.0460 C   0  0  0  0  0  0  0  0  0  0  0  0
  125.0620  130.1550   59.2250 C   0  0  0  0  0  0  0  0  0  0  0  0
  126.4450  130.7360   59.2350 C   0  0  0  0  0  0  0  0  0  0  0  0
  127.5890  130.2890   58.5730 C   0  0  0  0  0  0  0  0  0  0  0  0
  128.8400  130.8690   58.8380 C   0  0  0  0  0  0  0  0  0  0  0  0
  130.0730  130.3850   58.1300 C   0  0  0  0  0  0  0  0  0  0  0  0
  130.4200  129.1160   58.2750 N   0  0  0  0  0  0  0  0  0  0  0  0
  131.5120  128.7830   57.6310 C   0  0  0  0  0  0  0  0  0  0  0  0
  132.1630  127.5780   57.6020 N   0  0  0  0  0  0  0  0  0  0  0  0
  131.9310  126.6310   56.7560 C   0  0  0  0  0  0  0  0  0  0  0  0
  131.1770  126.5740   55.7660 O   0  0  0  0  0  0  0  0  0  0  0  0
  132.7450  125.3470   57.0160 C   0  0  0  0  0  0  0  0  0  0  0  0
  131.8390  124.2700   57.6810 N   0  0  2  0  0  0  0  0  0  0  0  0
  130.6720  124.8890   58.4780 C   0  0  0  0  0  0  0  0  0  0  0  0
  131.2180  125.6780   59.6820 C   0  0  0  0  0  0  0  0  0  0  0  0
  132.2350  124.8930   60.5040 C   0  0  0  0  0  0  0  0  0  0  0  0
  132.5080  125.2770   61.8220 C   0  0  0  0  0  0  0  0  0  0  0  0
  133.4650  124.6130   62.5860 C   0  0  0  0  0  0  0  0  0  0  0  0
  134.1650  123.5470   62.0360 C   0  0  0  0  0  0  0  0  0  0  0  0
  133.8960  123.1450   60.7300 C   0  0  0  0  0  0  0  0  0  0  0  0
  132.9330  123.7930   59.9490 C   0  0  0  0  0  0  0  0  0  0  0  0
  132.6470  123.2660   58.5380 C   0  0  0  0  0  0  0  0  0  0  0  0
  132.2290  130.1010   56.7810 S   0  0  0  0  0  0  0  0  0  0  0  0
  130.9290  131.1430   57.3070 C   0  0  0  0  0  0  0  0  0  0  0  0
  130.8670  132.5850   56.8490 C   0  0  0  0  0  0  0  0  0  0  0  0
  128.9170  131.8710   59.8140 C   0  0  0  0  0  0  0  0  0  0  0  0
  127.7770  132.3060   60.4910 C   0  0  0  0  0  0  0  0  0  0  0  0
  126.5240  131.7750   60.1610 C   0  0  0  0  0  0  0  0  0  0  0  0
  124.4240  135.2610   60.2830 C   0  0  0  0  0  0  0  0  0  0  0  0
  124.8130  136.5370   59.8860 C   0  0  0  0  0  0  0  0  0  0  0  0
  126.6795  139.0362   60.7116 H   0  0  0  0  0  0  0  0  0  0  0  0
  127.4124  138.3580   59.2184 H   0  0  0  0  0  0  0  0  0  0  0  0
  125.6934  138.8792   59.2184 H   0  0  0  0  0  0  0  0  0  0  0  0
  127.9136  136.6355   61.3135 H   0  0  0  0  0  0  0  0  0  0  0  0
  127.2140  134.3571   62.0324 H   0  0  0  0  0  0  0  0  0  0  0  0
  123.6270  130.6360   60.7692 H   0  0  0  0  0  0  0  0  0  0  0  0
  123.6180  131.7714   59.4058 H   0  0  0  0  0  0  0  0  0  0  0  0
  125.0467  129.1599   59.6935 H   0  0  0  0  0  0  0  0  0  0  0  0
  124.6593  130.0058   58.2123 H   0  0  0  0  0  0  0  0  0  0  0  0
  127.5102  129.4752   57.8371 H   0  0  0  0  0  0  0  0  0  0  0  0
  133.1305  124.9601   56.0612 H   0  0  0  0  0  0  0  0  0  0  0  0
  133.5834  125.5801   57.6888 H   0  0  0  0  0  0  0  0  0  0  0  0
  131.4210  123.7500   56.9200 H   0  0  0  0  0  0  0  0  0  0  0  0
  130.1041  125.5677   57.8247 H   0  0  0  0  0  0  0  0  0  0  0  0
  130.0152  124.0846   58.8407 H   0  0  0  0  0  0  0  0  0  0  0  0
  131.7012  126.5935   59.3099 H   0  0  0  0  0  0  0  0  0  0  0  0
  130.3657  125.8991   60.3414 H   0  0  0  0  0  0  0  0  0  0  0  0
  131.9559  126.1199   62.2633 H   0  0  0  0  0  0  0  0  0  0  0  0
  133.6653  124.9314   63.6197 H   0  0  0  0  0  0  0  0  0  0  0  0
  134.9285  123.0225   62.6293 H   0  0  0  0  0  0  0  0  0  0  0  0
  134.4535  122.2985   60.3027 H   0  0  0  0  0  0  0  0  0  0  0  0
  133.6049  123.0650   58.0359 H   0  0  0  0  0  0  0  0  0  0  0  0
  132.0430  122.3523   58.6393 H   0  0  0  0  0  0  0  0  0  0  0  0
  130.8385  133.2476   57.7266 H   0  0  0  0  0  0  0  0  0  0  0  0
  131.7560  132.8161   56.2438 H   0  0  0  0  0  0  0  0  0  0  0  0
  129.9614  132.7389   56.2438 H   0  0  0  0  0  0  0  0  0  0  0  0
  129.8919  132.3222   60.0505 H   0  0  0  0  0  0  0  0  0  0  0  0
  127.8625  133.0649   61.2827 H   0  0  0  0  0  0  0  0  0  0  0  0
  123.4294  134.8812   60.0065 H   0  0  0  0  0  0  0  0  0  0  0  0
  124.1301  137.1598   59.2896 H   0  0  0  0  0  0  0  0  0  0  0  0
  1  2  1  0
  2  3  2  0
  3  4  1  0
  4  5  2  0
  5  6  1  0
  6  7  2  0
  6  8  1  0
  8  9  1  0
  9 10  1  0
 10 11  1  0
 11 12  2  0
 12 13  1  0
 13 14  1  0
 14 15  1  0
 15 16  2  0
 16 17  1  0
 17 18  2  0
 18 19  1  0
 18 20  1  0
 20 21  1  0
 21 22  1  0
 22 23  1  0
 23 24  1  0
 24 25  2  0
 25 26  1  0
 26 27  2  0
 27 28  1  0
 28 29  2  0
 29 30  1  0
 16 31  1  0
 31 32  1  0
 32 33  1  0
 13 34  2  0
 34 35  1  0
 35 36  2  0
  5 37  1  0
 37 38  2  0
 38  2  1  0
 36  8  1  0
 36 11  1  0
 32 14  2  0
 30 21  1  0
 29 24  1  0
  1 39  1  0
  1 40  1  0
  1 41  1  0
  3 42  1  0
  4 43  1  0
  9 44  1  0
  9 45  1  0
 10 46  1  0
 10 47  1  0
 12 48  1  0
 20 49  1  0
 20 50  1  0
 21 51  1  6
 22 52  1  0
 22 53  1  0
 23 54  1  0
 23 55  1  0
 25 56  1  0
 26 57  1  0
 27 58  1  0
 28 59  1  0
 30 60  1  0
 30 61  1  0
 33 62  1  0
 33 63  1  0
 33 64  1  0
 34 65  1  0
 35 66  1  0
 37 67  1  0
 38 68  1  0
M  CHG  2  19  -1  21   1
M  END
>  <Binding energies>  (1) 
[-10.34]

>  <Ligand effiencies>  (1) 
[-0.2651282051282051]

>  <Interactions>  (1) 
["V-A:ASP:366:CG:3212, V-A:GLY:453:C:4041, V-A:TYR:539:CD1:4873, V-A:PRO:540:CB:4885, V-A:LEU:363:CD1:3188, V-A:PRO:540:N:4884, V-A:TYR:539:CE1:4875, V-A:PRO:540:CA:4883, V-B:ILE:369:CG2:8208, V-B:ASP:366:CG:8184, V-B:LEU:475:CD1:9229, V-B:ILE:369:CD1:8210, V-B:ILE:369:CB:8207, V-A:TYR:531:CZ:4794, V-B:ASP:366:CB:8183, V-A:TYR:539:C:4867, V-A:PRO:540:CD:4887, V-B:TYR:539:CE2:9848, V-A:ILE:369:CG2:3236, V-A:ASP:366:CB:3211, V-A:ILE:369:CD1:3238, V-B:TYR:539:CZ:9849, H-B:TYR:539:OH:9850, H-A:TYR:531:OH:4795, V-A:ASP:366:CA:3209, V-A:ASP:366:C:3207, V-B:PRO:482:CB:9297, V-A:TYR:539:CB:4871, V-B:PRO:482:CG:9298, V-B:LEU:373:CD1:8251, V-B:SER:385:CB:8380, V-A:VAL:344:CG1:3000, V-A:TYR:539:CA:4869"]

$$$$
RR21_Rahimova_2017
     RDKit          3D

 62 67  0  0  0  0  0  0  0  0999 V2000
  124.6500  130.0220   62.6720 C   0  0  0  0  0  0  0  0  0  0  0  0
  124.5490  130.1500   64.0870 O   0  0  0  0  0  0  0  0  0  0  0  0
  125.4630  129.4960   64.8910 C   0  0  0  0  0  0  0  0  0  0  0  0
  126.8080  129.2790   64.5450 C   0  0  0  0  0  0  0  0  0  0  0  0
  127.6670  128.6110   65.4170 C   0  0  0  0  0  0  0  0  0  0  0  0
  127.2080  128.1450   66.6540 C   0  0  0  0  0  0  0  0  0  0  0  0
  128.1340  127.4320   67.5910 C   0  0  0  0  0  0  0  0  0  0  0  0
  128.1900  127.7920   68.8580 N   0  0  0  0  0  0  0  0  0  0  0  0
  129.0900  126.9900   69.4470 N   0  0  0  0  0  0  0  0  0  0  0  0
  129.3830  127.0950   70.8320 C   0  0  0  0  0  0  0  0  0  0  0  0
  128.9030  126.1410   71.7420 C   0  0  0  0  0  0  0  0  0  0  0  0
  129.2010  126.2520   73.0970 C   0  0  0  0  0  0  0  0  0  0  0  0
  129.9780  127.3170   73.5480 C   0  0  0  0  0  0  0  0  0  0  0  0
  130.4580  128.2720   72.6560 C   0  0  0  0  0  0  0  0  0  0  0  0
  130.1610  128.1640   71.3000 C   0  0  0  0  0  0  0  0  0  0  0  0
  129.5970  126.0970   68.5360 C   0  0  0  0  0  0  0  0  0  0  0  0
  129.0110  126.3600   67.3070 C   0  0  0  0  0  0  0  0  0  0  0  0
  129.1980  125.6480   66.0520 C   0  0  0  0  0  0  0  0  0  0  0  0
  130.3500  125.4290   65.3770 C   0  0  0  0  0  0  0  0  0  0  0  0
  131.9900  125.9560   65.8160 S   0  0  0  0  0  0  0  0  0  0  0  0
  132.6150  125.1590   64.3800 C   0  0  0  0  0  0  0  0  0  0  0  0
  133.8490  125.0830   63.9860 N   0  0  0  0  0  0  0  0  0  0  0  0
  134.2240  124.3920   62.8010 C   0  0  0  0  0  0  0  0  0  0  0  0
  135.3700  124.2560   62.3720 O   0  0  0  0  0  0  0  0  0  0  0  0
  133.0660  123.7880   62.0560 C   0  0  0  0  0  0  0  0  0  0  0  0
  133.3470  123.0340   60.7500 C   0  0  0  0  0  0  0  0  0  0  0  0
  132.7770  121.6180   60.7050 C   0  0  0  0  0  0  0  0  0  0  0  0
  133.6050  120.5220   60.9570 C   0  0  0  0  0  0  0  0  0  0  0  0
  133.0810  119.2320   60.9320 C   0  0  0  0  0  0  0  0  0  0  0  0
  131.7270  119.0350   60.6580 C   0  0  0  0  0  0  0  0  0  0  0  0
  131.1580  117.6280   60.6450 C   0  0  0  0  0  0  0  0  0  0  0  0
  130.8940  120.1310   60.4170 C   0  0  0  0  0  0  0  0  0  0  0  0
  131.4180  121.4200   60.4410 C   0  0  0  0  0  0  0  0  0  0  0  0
  131.8400  123.8780   62.4580 N   0  0  0  0  0  0  0  0  0  0  0  0
  131.6130  124.5770   63.6500 N   0  0  0  0  0  0  0  0  0  0  0  0
  130.3470  124.6850   64.1250 C   0  0  0  0  0  0  0  0  0  0  0  0
  129.3450  124.2140   63.5750 O   0  0  0  0  0  0  0  0  0  0  0  0
  125.8680  128.3540   66.9970 C   0  0  0  0  0  0  0  0  0  0  0  0
  125.0060  129.0230   66.1260 C   0  0  0  0  0  0  0  0  0  0  0  0
  123.7160  129.2090   66.4880 F   0  0  0  0  0  0  0  0  0  0  0  0
  125.3142  129.1802   62.4265 H   0  0  0  0  0  0  0  0  0  0  0  0
  123.6518  129.8371   62.2484 H   0  0  0  0  0  0  0  0  0  0  0  0
  125.0620  130.9498   62.2484 H   0  0  0  0  0  0  0  0  0  0  0  0
  127.1865  129.6396   63.5772 H   0  0  0  0  0  0  0  0  0  0  0  0
  128.7163  128.4487   65.1295 H   0  0  0  0  0  0  0  0  0  0  0  0
  128.2887  125.3020   71.3831 H   0  0  0  0  0  0  0  0  0  0  0  0
  128.8248  125.5023   73.8086 H   0  0  0  0  0  0  0  0  0  0  0  0
  130.2143  127.4040   74.6188 H   0  0  0  0  0  0  0  0  0  0  0  0
  131.0702  129.1096   73.0215 H   0  0  0  0  0  0  0  0  0  0  0  0
  130.5375  128.9189   70.5940 H   0  0  0  0  0  0  0  0  0  0  0  0
  130.3378  125.3110   68.7443 H   0  0  0  0  0  0  0  0  0  0  0  0
  128.2871  125.2353   65.5937 H   0  0  0  0  0  0  0  0  0  0  0  0
  132.9090  123.6079   59.9201 H   0  0  0  0  0  0  0  0  0  0  0  0
  134.4399  122.9355   60.6728 H   0  0  0  0  0  0  0  0  0  0  0  0
  134.6718  120.6778   61.1754 H   0  0  0  0  0  0  0  0  0  0  0  0
  133.7341  118.3688   61.1281 H   0  0  0  0  0  0  0  0  0  0  0  0
  131.0172  117.2799   61.6789 H   0  0  0  0  0  0  0  0  0  0  0  0
  130.1896  117.6289   60.1233 H   0  0  0  0  0  0  0  0  0  0  0  0
  131.8548  116.9555   60.1233 H   0  0  0  0  0  0  0  0  0  0  0  0
  129.8253  119.9749   60.2086 H   0  0  0  0  0  0  0  0  0  0  0  0
  130.7631  122.2834   60.2523 H   0  0  0  0  0  0  0  0  0  0  0  0
  125.4897  127.9876   67.9627 H   0  0  0  0  0  0  0  0  0  0  0  0
  1  2  1  0
  2  3  1  0
  3  4  2  0
  4  5  1  0
  5  6  2  0
  6  7  1  0
  7  8  2  0
  8  9  1  0
  9 10  1  0
 10 11  2  0
 11 12  1  0
 12 13  2  0
 13 14  1  0
 14 15  2  0
  9 16  1  0
 16 17  2  0
 17 18  1  0
 18 19  2  0
 19 20  1  0
 20 21  1  0
 21 22  2  0
 22 23  1  0
 23 24  2  0
 23 25  1  0
 25 26  1  0
 26 27  1  0
 27 28  2  0
 28 29  1  0
 29 30  2  0
 30 31  1  0
 30 32  1  0
 32 33  2  0
 25 34  2  0
 34 35  1  0
 35 36  1  0
 36 37  2  0
  6 38  1  0
 38 39  2  0
 39 40  1  0
 39  3  1  0
 17  7  1  0
 36 19  1  0
 15 10  1  0
 35 21  1  0
 33 27  1  0
  1 41  1  0
  1 42  1  0
  1 43  1  0
  4 44  1  0
  5 45  1  0
 11 46  1  0
 12 47  1  0
 13 48  1  0
 14 49  1  0
 15 50  1  0
 16 51  1  0
 18 52  1  0
 26 53  1  0
 26 54  1  0
 28 55  1  0
 29 56  1  0
 31 57  1  0
 31 58  1  0
 31 59  1  0
 32 60  1  0
 33 61  1  0
 38 62  1  0
M  END
>  <Binding energies>  (1) 
[-11.04]

>  <Ligand effiencies>  (1) 
[-0.27599999999999997]

>  <Interactions>  (1) 
["V-A:LYS:547:CE:4950, V-B:HIS:456:CD2:9039, V-A:GLU:543:C:4902, V-A:HIS:456:CE1:4069, H-A:GLY:454:N:4049, H-A:ARG:545:NH2:4928, V-B:GLU:543:CG:9879, V-A:ARG:545:CZ:4926, V-B:GLU:543:CD:9880, H-A:ARG:545:NE:4924, V-A:GLY:453:C:4041, V-A:GLY:453:CA:4043, V-B:ASP:366:CG:8184, V-A:GLU:543:CD:4908, V-A:PRO:482:CG:4326, V-B:TYR:539:CE2:9848, V-B:TYR:539:CD2:9846, V-A:ILE:369:CG2:3236, V-A:LEU:475:CD1:4257, V-B:GLU:543:CB:9878, V-B:HIS:456:CE1:9041, V-B:ARG:545:CZ:9898, V-B:ARG:545:CG:9894, V-B:ARG:545:CD:9895, H-A:ARG:545:NH1:4927, V-A:HIS:383:CE1:3392, H-B:GLY:454:N:9021"]

$$$$
RR22_Rahimova_2017
     RDKit          3D

 49 54  0  0  0  0  0  0  0  0999 V2000
  123.7180  129.6660   55.7400 O   0  0  0  0  0  0  0  0  0  0  0  0
  124.6250  129.6700   56.5690 C   0  0  0  0  0  0  0  0  0  0  0  0
  124.5230  129.4660   57.9340 N   0  0  0  0  0  0  0  0  0  0  0  0
  125.6940  129.4420   58.7570 C   0  0  1  0  0  0  0  0  0  0  0  0
  125.4650  130.4330   59.7630 O   0  0  0  0  0  0  0  0  0  0  0  0
  125.4610  130.0320   61.0990 C   0  0  0  0  0  0  0  0  0  0  0  0
  124.8820  130.9130   62.0120 C   0  0  0  0  0  0  0  0  0  0  0  0
  124.8770  130.6000   63.3710 C   0  0  0  0  0  0  0  0  0  0  0  0
  125.4570  129.4110   63.8160 C   0  0  0  0  0  0  0  0  0  0  0  0
  126.0370  128.5290   62.9030 C   0  0  0  0  0  0  0  0  0  0  0  0
  126.0280  128.8190   61.5350 C   0  0  0  0  0  0  0  0  0  0  0  0
  126.6660  127.9520   60.4720 C   0  0  1  0  0  0  0  0  0  0  0  0
  126.7420  126.4440   60.5890 C   0  0  0  0  0  0  0  0  0  0  0  0
  126.7020  126.0640   59.1060 C   0  0  0  0  0  0  0  0  0  0  0  0
  127.1310  124.7410   58.6090 C   0  0  0  0  0  0  0  0  0  0  0  0
  126.2370  123.9190   57.9070 C   0  0  0  0  0  0  0  0  0  0  0  0
  126.6480  122.6730   57.4400 C   0  0  0  0  0  0  0  0  0  0  0  0
  127.9510  122.2430   57.6700 C   0  0  0  0  0  0  0  0  0  0  0  0
  128.8510  123.0480   58.3640 C   0  0  0  0  0  0  0  0  0  0  0  0
  128.4430  124.2940   58.8310 C   0  0  0  0  0  0  0  0  0  0  0  0
  126.2340  127.0210   58.3970 N   0  0  0  0  0  0  0  0  0  0  0  0
  125.9100  128.0790   59.2630 N   0  0  0  0  0  0  0  0  0  0  0  0
  126.8430  129.9410   57.8930 C   0  0  0  0  0  0  0  0  0  0  0  0
  128.0170  130.3750   58.4070 C   0  0  0  0  0  0  0  0  0  0  0  0
  129.2110  130.8620   57.6900 C   0  0  0  0  0  0  0  0  0  0  0  0
  130.4860  130.3000   57.8510 C   0  0  0  0  0  0  0  0  0  0  0  0
  131.5700  130.8140   57.1390 C   0  0  0  0  0  0  0  0  0  0  0  0
  131.3510  131.8910   56.2800 C   0  0  0  0  0  0  0  0  0  0  0  0
  130.1320  132.4610   56.1100 N   0  0  0  0  0  0  0  0  0  0  0  0
  129.0890  131.9460   56.8110 C   0  0  0  0  0  0  0  0  0  0  0  0
  126.3790  129.9580   56.1850 S   0  0  0  0  0  0  0  0  0  0  0  0
  123.6210  129.3740   58.3770 H   0  0  0  0  0  0  0  0  0  0  0  0
  124.4303  131.8526   61.6610 H   0  0  0  0  0  0  0  0  0  0  0  0
  124.4158  131.2904   64.0925 H   0  0  0  0  0  0  0  0  0  0  0  0
  125.4570  129.1685   64.8889 H   0  0  0  0  0  0  0  0  0  0  0  0
  126.5041  127.6000   63.2617 H   0  0  0  0  0  0  0  0  0  0  0  0
  127.6949  128.3339   60.5459 H   0  0  0  0  0  0  0  0  0  0  0  0
  127.6761  126.1177   61.0697 H   0  0  0  0  0  0  0  0  0  0  0  0
  125.9564  125.9856   61.2077 H   0  0  0  0  0  0  0  0  0  0  0  0
  125.2072  124.2599   57.7246 H   0  0  0  0  0  0  0  0  0  0  0  0
  125.9442  122.0304   56.8907 H   0  0  0  0  0  0  0  0  0  0  0  0
  128.2733  121.2584   57.3004 H   0  0  0  0  0  0  0  0  0  0  0  0
  129.8794  122.7007   58.5422 H   0  0  0  0  0  0  0  0  0  0  0  0
  129.1529  124.9323   59.3774 H   0  0  0  0  0  0  0  0  0  0  0  0
  128.0910  130.3632   59.5044 H   0  0  0  0  0  0  0  0  0  0  0  0
  130.6312  129.4539   58.5387 H   0  0  0  0  0  0  0  0  0  0  0  0
  132.5744  130.3800   57.2524 H   0  0  0  0  0  0  0  0  0  0  0  0
  132.2042  132.2957   55.7158 H   0  0  0  0  0  0  0  0  0  0  0  0
  128.0971  132.4037   56.6819 H   0  0  0  0  0  0  0  0  0  0  0  0
  1  2  2  0
  2  3  1  0
  3  4  1  0
  4  5  1  1
  5  6  1  0
  6  7  2  0
  7  8  1  0
  8  9  2  0
  9 10  1  0
 10 11  2  0
 11 12  1  0
 12 13  1  0
 13 14  1  0
 14 15  1  0
 15 16  2  0
 16 17  1  0
 17 18  2  0
 18 19  1  0
 19 20  2  0
 14 21  2  0
 21 22  1  0
  4 23  1  0
 23 24  2  0
 24 25  1  0
 25 26  2  0
 26 27  1  0
 27 28  2  0
 28 29  1  0
 29 30  2  0
 23 31  1  0
 31  2  1  0
 22  4  1  0
 30 25  1  0
 11  6  1  0
 22 12  1  0
 20 15  1  0
  3 32  1  0
  7 33  1  0
  8 34  1  0
  9 35  1  0
 10 36  1  0
 12 37  1  6
 13 38  1  0
 13 39  1  0
 16 40  1  0
 17 41  1  0
 18 42  1  0
 19 43  1  0
 20 44  1  0
 24 45  1  0
 26 46  1  0
 27 47  1  0
 28 48  1  0
 30 49  1  0
M  END
>  <Binding energies>  (1) 
[-9.19]

>  <Ligand effiencies>  (1) 
[-0.2871875]

>  <Interactions>  (1) 
["V-A:TYR:539:CD1:4873, H-A:TYR:539:OH:4878, V-A:ILE:538:CB:4862, V-A:PRO:540:N:4884, V-A:TYR:539:CE1:4875, V-B:ASP:366:CG:8184, V-B:ASP:366:CA:8181, H-B:TYR:531:OH:9767, V-B:ASP:366:CB:8183, V-A:TYR:539:C:4867, V-A:PRO:540:CD:4887, V-A:TYR:539:CZ:4877, V-A:TYR:539:CG:4872, V-B:ASP:366:C:8179, V-B:PRO:540:CB:9857, V-B:TYR:539:CE2:9848, V-B:PRO:540:N:9856, V-B:PRO:540:CA:9855, V-B:MET:535:CE:9807, V-B:TYR:539:CD2:9846, V-B:TYR:539:C:9839, V-B:TYR:531:CZ:9766, V-B:TYR:531:CE1:9764, V-B:TYR:539:CG:9844, V-B:ARG:545:CZ:9898, H-A:TYR:539:N:4870, H-B:ASP:366:O:8180, H-B:ASP:366:OD2:8186, V-B:TYR:531:CD1:9762"]

$$$$
RR23_Rahimova_2017
     RDKit          3D

 65 70  0  0  0  0  0  0  0  0999 V2000
  131.2470  117.2650   60.8280 C   0  0  0  0  0  0  0  0  0  0  0  0
  131.6860  118.7160   60.7530 C   0  0  0  0  0  0  0  0  0  0  0  0
  130.7310  119.7330   60.7170 C   0  0  0  0  0  0  0  0  0  0  0  0
  131.1350  121.0640   60.6570 C   0  0  0  0  0  0  0  0  0  0  0  0
  132.4960  121.3890   60.6220 C   0  0  0  0  0  0  0  0  0  0  0  0
  132.9130  122.8410   60.5780 C   0  0  0  0  0  0  0  0  0  0  0  0
  132.9750  123.3850   59.4730 O   0  0  0  0  0  0  0  0  0  0  0  0
  133.1890  123.4950   61.7460 N   0  0  0  0  0  0  0  0  0  0  0  0
  134.3540  124.3850   61.8740 C   0  0  0  0  0  0  0  0  0  0  0  0
  134.2470  125.0340   63.2440 C   0  0  0  0  0  0  0  0  0  0  0  0
  132.8300  124.7510   63.6380 C   0  0  0  0  0  0  0  0  0  0  0  0
  132.1290  125.1790   64.7660 C   0  0  0  0  0  0  0  0  0  0  0  0
  130.8490  124.6720   65.0410 C   0  0  0  0  0  0  0  0  0  0  0  0
  130.0430  125.1170   66.2710 C   0  0  2  0  0  0  0  0  0  0  0  0
  129.0370  126.1020   65.9370 N   0  0  0  0  0  0  0  0  0  0  0  0
  128.8380  126.9180   66.8930 C   0  0  0  0  0  0  0  0  0  0  0  0
  127.9900  127.9820   66.9240 N   0  0  0  0  0  0  0  0  0  0  0  0
  127.2640  128.5100   65.9100 C   0  0  0  0  0  0  0  0  0  0  0  0
  127.2190  128.0730   64.7580 O   0  0  0  0  0  0  0  0  0  0  0  0
  126.4440  129.7620   66.2640 C   0  0  0  0  0  0  0  0  0  0  0  0
  125.9520  130.3880   65.0160 N   0  0  0  0  0  0  0  0  0  0  0  0
  124.6770  130.0030   64.6190 N   0  0  0  0  0  0  0  0  0  0  0  0
  124.1320  130.4780   63.5450 N   0  0  0  0  0  0  0  0  0  0  0  0
  124.8310  131.3980   62.7600 C   0  0  0  0  0  0  0  0  0  0  0  0
  124.2150  131.8890   61.6060 C   0  0  0  0  0  0  0  0  0  0  0  0
  124.8870  132.8090   60.8010 C   0  0  0  0  0  0  0  0  0  0  0  0
  126.1710  133.2380   61.1460 C   0  0  0  0  0  0  0  0  0  0  0  0
  126.7890  132.7480   62.2980 C   0  0  0  0  0  0  0  0  0  0  0  0
  126.1130  131.8270   63.1070 C   0  0  0  0  0  0  0  0  0  0  0  0
  126.7650  131.2820   64.3560 C   0  0  0  0  0  0  0  0  0  0  0  0
  127.8990  131.5950   64.7310 O   0  0  0  0  0  0  0  0  0  0  0  0
  129.7890  126.6660   68.3850 S   0  0  0  0  0  0  0  0  0  0  0  0
  130.9080  125.6020   67.4570 C   0  0  2  0  0  0  0  0  0  0  0  0
  132.1830  126.3970   67.1060 C   0  0  0  0  0  0  0  0  0  0  0  0
  130.3130  123.6970   64.1920 C   0  0  0  0  0  0  0  0  0  0  0  0
  131.0230  123.2520   63.0760 C   0  0  0  0  0  0  0  0  0  0  0  0
  132.2640  123.8220   62.7640 C   0  0  0  0  0  0  0  0  0  0  0  0
  133.4490  120.3640   60.6860 C   0  0  0  0  0  0  0  0  0  0  0  0
  133.0450  119.0330   60.7470 C   0  0  0  0  0  0  0  0  0  0  0  0
  131.1558  116.9635   61.8819 H   0  0  0  0  0  0  0  0  0  0  0  0
  130.2739  117.1500   60.3282 H   0  0  0  0  0  0  0  0  0  0  0  0
  131.9932  116.6299   60.3282 H   0  0  0  0  0  0  0  0  0  0  0  0
  129.6599  119.4832   60.7360 H   0  0  0  0  0  0  0  0  0  0  0  0
  130.3807  121.8644   60.6370 H   0  0  0  0  0  0  0  0  0  0  0  0
  135.2860  123.8055   61.7989 H   0  0  0  0  0  0  0  0  0  0  0  0
  134.3699  125.1401   61.0742 H   0  0  0  0  0  0  0  0  0  0  0  0
  134.9536  124.5791   63.9538 H   0  0  0  0  0  0  0  0  0  0  0  0
  134.4901  126.1068   63.2369 H   0  0  0  0  0  0  0  0  0  0  0  0
  132.5818  125.9178   65.4436 H   0  0  0  0  0  0  0  0  0  0  0  0
  129.5381  124.2019   66.6141 H   0  0  0  0  0  0  0  0  0  0  0  0
  127.9280  128.4710   67.8050 H   0  0  0  0  0  0  0  0  0  0  0  0
  125.5891  129.4762   66.8945 H   0  0  0  0  0  0  0  0  0  0  0  0
  127.0761  130.4760   66.8124 H   0  0  0  0  0  0  0  0  0  0  0  0
  123.2042  131.5515   61.3334 H   0  0  0  0  0  0  0  0  0  0  0  0
  124.4046  133.1977   59.8921 H   0  0  0  0  0  0  0  0  0  0  0  0
  126.6966  133.9639   60.5082 H   0  0  0  0  0  0  0  0  0  0  0  0
  127.8011  133.0836   62.5684 H   0  0  0  0  0  0  0  0  0  0  0  0
  131.3011  124.7231   67.9890 H   0  0  0  0  0  0  0  0  0  0  0  0
  132.6862  126.7107   68.0325 H   0  0  0  0  0  0  0  0  0  0  0  0
  132.8611  125.7614   66.5176 H   0  0  0  0  0  0  0  0  0  0  0  0
  131.9107  127.2856   66.5176 H   0  0  0  0  0  0  0  0  0  0  0  0
  129.3197  123.2762   64.4070 H   0  0  0  0  0  0  0  0  0  0  0  0
  130.6085  122.4544   62.4419 H   0  0  0  0  0  0  0  0  0  0  0  0
  134.5207  120.6118   60.6881 H   0  0  0  0  0  0  0  0  0  0  0  0
  133.7970  118.2314   60.7905 H   0  0  0  0  0  0  0  0  0  0  0  0
  1  2  1  0
  2  3  2  0
  3  4  1  0
  4  5  2  0
  5  6  1  0
  6  7  2  0
  6  8  1  0
  8  9  1  0
  9 10  1  0
 10 11  1  0
 11 12  2  0
 12 13  1  0
 13 14  1  0
 14 15  1  0
 15 16  2  0
 16 17  1  0
 17 18  1  0
 18 19  2  0
 18 20  1  0
 20 21  1  0
 21 22  1  0
 22 23  2  0
 23 24  1  0
 24 25  2  0
 25 26  1  0
 26 27  2  0
 27 28  1  0
 28 29  2  0
 29 30  1  0
 30 31  2  0
 16 32  1  0
 32 33  1  0
 33 34  1  0
 13 35  2  0
 35 36  1  0
 36 37  2  0
  5 38  1  0
 38 39  2  0
 39  2  1  0
 37  8  1  0
 37 11  1  0
 33 14  1  0
 30 21  1  0
 29 24  1  0
  1 40  1  0
  1 41  1  0
  1 42  1  0
  3 43  1  0
  4 44  1  0
  9 45  1  0
  9 46  1  0
 10 47  1  0
 10 48  1  0
 12 49  1  0
 14 50  1  1
 17 51  1  0
 20 52  1  0
 20 53  1  0
 25 54  1  0
 26 55  1  0
 27 56  1  0
 28 57  1  0
 33 58  1  1
 34 59  1  0
 34 60  1  0
 34 61  1  0
 35 62  1  0
 36 63  1  0
 38 64  1  0
 39 65  1  0
M  END
>  <Binding energies>  (1) 
[-10.79]

>  <Ligand effiencies>  (1) 
[-0.26975]

>  <Interactions>  (1) 
["V-A:HIS:456:CE1:4069, V-A:TYR:484:CZ:4346, V-B:GLU:543:CG:9879, V-A:ARG:545:CZ:4926, V-A:ASP:366:CG:3212, V-A:GLY:453:C:4041, V-A:ARG:545:CG:4922, V-A:GLY:453:CA:4043, V-A:TYR:539:CD1:4873, V-A:TYR:539:CE1:4875, V-B:ILE:369:CG2:8208, V-B:LEU:475:CD1:9229, V-A:ALA:541:CB:4892, V-B:ILE:369:CD1:8210, V-A:PRO:482:CG:4326, V-B:TYR:539:CE2:9848, V-B:TYR:539:CD2:9846, V-A:PRO:482:CB:4325, V-A:ILE:369:CG2:3236, V-A:LEU:475:CD1:4257, V-A:ILE:369:CD1:3238, V-B:GLU:543:CB:9878, V-A:TYR:484:CE2:4345, V-B:HIS:456:CE1:9041, V-B:TYR:484:CZ:9318, V-B:TYR:484:CE2:9317, V-A:HIS:383:CE1:3392, H-B:GLY:454:N:9021, H-B:TYR:484:OH:9319, H-B:HIS:456:NE2:9042"]

$$$$
RR24_Rahimova_2017
     RDKit          3D

 65 71  0  0  0  0  0  0  0  0999 V2000
  128.9510  132.4830   55.0430 C   0  0  0  0  0  0  0  0  0  0  0  0
  129.7300  131.1730   55.2280 C   0  0  2  0  0  0  0  0  0  0  0  0
  128.8500  129.9030   55.0330 C   0  0  0  0  0  0  0  0  0  0  0  0
  127.6300  129.9150   55.2210 O   0  0  0  0  0  0  0  0  0  0  0  0
  129.5840  128.8110   54.6670 O   0  0  0  0  0  0  0  0  0  0  0  0
  129.5640  127.6840   55.4570 C   0  0  0  0  0  0  0  0  0  0  0  0
  130.0800  126.4870   54.9550 C   0  0  0  0  0  0  0  0  0  0  0  0
  130.0740  125.3430   55.7480 C   0  0  0  0  0  0  0  0  0  0  0  0
  129.5610  125.3920   57.0480 C   0  0  0  0  0  0  0  0  0  0  0  0
  129.5390  124.1240   57.9090 C   0  0  1  0  0  0  0  0  0  0  0  0
  130.7780  124.0310   58.8320 C   0  0  0  0  0  0  0  0  0  0  0  0
  130.6850  123.8040   60.1550 C   0  0  0  0  0  0  0  0  0  0  0  0
  129.4770  123.6390   60.7860 N   0  0  0  0  0  0  0  0  0  0  0  0
  128.2920  123.7000   60.0900 C   0  0  0  0  0  0  0  0  0  0  0  0
  127.1900  123.5080   60.8590 N   0  0  0  0  0  0  0  0  0  0  0  0
  125.9270  123.6110   60.3600 C   0  0  0  0  0  0  0  0  0  0  0  0
  124.9810  123.7450   61.1380 O   0  0  0  0  0  0  0  0  0  0  0  0
  125.8730  123.7190   58.9790 N   0  0  0  0  0  0  0  0  0  0  0  0
  124.5230  123.7420   58.3780 C   0  0  0  0  0  0  0  0  0  0  0  0
  126.9270  123.9200   58.1050 C   0  0  0  0  0  0  0  0  0  0  0  0
  126.7990  124.0600   56.8850 O   0  0  0  0  0  0  0  0  0  0  0  0
  128.2430  123.9300   58.7520 C   0  0  0  0  0  0  0  0  0  0  0  0
  132.0020  123.7680   60.7670 C   0  0  0  0  0  0  0  0  0  0  0  0
  132.4360  123.5740   62.0790 C   0  0  0  0  0  0  0  0  0  0  0  0
  133.8060  123.5960   62.3540 C   0  0  0  0  0  0  0  0  0  0  0  0
  134.7280  123.8080   61.3240 C   0  0  0  0  0  0  0  0  0  0  0  0
  134.2870  124.0010   60.0120 C   0  0  0  0  0  0  0  0  0  0  0  0
  132.9170  123.9800   59.7440 C   0  0  0  0  0  0  0  0  0  0  0  0
  132.1860  124.1500   58.4700 C   0  0  0  0  0  0  0  0  0  0  0  0
  132.6180  124.3490   57.3360 O   0  0  0  0  0  0  0  0  0  0  0  0
  129.0620  126.5970   57.5540 C   0  0  0  0  0  0  0  0  0  0  0  0
  129.0690  127.7410   56.7620 C   0  0  0  0  0  0  0  0  0  0  0  0
  130.4860  131.1480   56.5150 N   0  0  0  0  0  0  0  0  0  0  0  0
  131.8490  131.1520   56.5410 C   0  0  0  0  0  0  0  0  0  0  0  0
  132.6150  131.1670   55.5760 O   0  0  0  0  0  0  0  0  0  0  0  0
  132.2160  131.1340   57.9780 C   0  0  0  0  0  0  0  0  0  0  0  0
  133.4650  131.1280   58.6020 C   0  0  0  0  0  0  0  0  0  0  0  0
  133.5140  131.1130   60.0010 C   0  0  0  0  0  0  0  0  0  0  0  0
  132.3300  131.1070   60.7490 C   0  0  0  0  0  0  0  0  0  0  0  0
  131.0880  131.1140   60.1050 C   0  0  0  0  0  0  0  0  0  0  0  0
  131.0600  131.1270   58.7100 C   0  0  0  0  0  0  0  0  0  0  0  0
  129.9200  131.1410   57.7600 C   0  0  0  0  0  0  0  0  0  0  0  0
  128.7190  131.1480   58.0360 O   0  0  0  0  0  0  0  0  0  0  0  0
  128.7011  132.9033   56.0284 H   0  0  0  0  0  0  0  0  0  0  0  0
  129.5689  133.2012   54.4841 H   0  0  0  0  0  0  0  0  0  0  0  0
  128.0249  132.2831   54.4841 H   0  0  0  0  0  0  0  0  0  0  0  0
  130.4738  131.1454   54.4180 H   0  0  0  0  0  0  0  0  0  0  0  0
  130.4903  126.4485   53.9351 H   0  0  0  0  0  0  0  0  0  0  0  0
  130.4737  124.3982   55.3511 H   0  0  0  0  0  0  0  0  0  0  0  0
  129.5605  123.3048   57.1752 H   0  0  0  0  0  0  0  0  0  0  0  0
  129.4530  123.4680   61.7820 H   0  0  0  0  0  0  0  0  0  0  0  0
  127.2740  123.3070   61.8440 H   0  0  0  0  0  0  0  0  0  0  0  0
  123.7664  123.7549   59.1764 H   0  0  0  0  0  0  0  0  0  0  0  0
  124.4142  124.6421   57.7552 H   0  0  0  0  0  0  0  0  0  0  0  0
  124.3836  122.8461   57.7552 H   0  0  0  0  0  0  0  0  0  0  0  0
  131.7086  123.4058   62.8869 H   0  0  0  0  0  0  0  0  0  0  0  0
  134.1605  123.4460   63.3845 H   0  0  0  0  0  0  0  0  0  0  0  0
  135.8049  123.8229   61.5475 H   0  0  0  0  0  0  0  0  0  0  0  0
  135.0105  124.1674   59.2003 H   0  0  0  0  0  0  0  0  0  0  0  0
  128.6639  126.6401   58.5785 H   0  0  0  0  0  0  0  0  0  0  0  0
  128.6847  128.6903   57.1635 H   0  0  0  0  0  0  0  0  0  0  0  0
  134.3904  131.1349   58.0073 H   0  0  0  0  0  0  0  0  0  0  0  0
  134.4865  131.1059   60.5149 H   0  0  0  0  0  0  0  0  0  0  0  0
  132.3768  131.0967   61.8480 H   0  0  0  0  0  0  0  0  0  0  0  0
  130.1538  131.1094   60.6858 H   0  0  0  0  0  0  0  0  0  0  0  0
  1  2  1  0
  2  3  1  0
  3  4  2  0
  3  5  1  0
  5  6  1  0
  6  7  2  0
  7  8  1  0
  8  9  2  0
  9 10  1  0
 10 11  1  0
 11 12  2  0
 12 13  1  0
 13 14  1  0
 14 15  1  0
 15 16  1  0
 16 17  2  0
 16 18  1  0
 18 19  1  0
 18 20  1  0
 20 21  2  0
 20 22  1  0
 12 23  1  0
 23 24  2  0
 24 25  1  0
 25 26  2  0
 26 27  1  0
 27 28  2  0
 28 29  1  0
 29 30  2  0
  9 31  1  0
 31 32  2  0
  2 33  1  0
 33 34  1  0
 34 35  2  0
 34 36  1  0
 36 37  2  0
 37 38  1  0
 38 39  2  0
 39 40  1  0
 40 41  2  0
 41 42  1  0
 42 43  2  0
 32  6  1  0
 42 33  1  0
 22 10  1  0
 28 23  1  0
 41 36  1  0
 29 11  1  0
 22 14  2  0
  1 44  1  0
  1 45  1  0
  1 46  1  0
  2 47  1  6
  7 48  1  0
  8 49  1  0
 10 50  1  6
 13 51  1  0
 15 52  1  0
 19 53  1  0
 19 54  1  0
 19 55  1  0
 24 56  1  0
 25 57  1  0
 26 58  1  0
 27 59  1  0
 31 60  1  0
 32 61  1  0
 37 62  1  0
 38 63  1  0
 39 64  1  0
 40 65  1  0
M  END
>  <Binding energies>  (1) 
[-11.13]

>  <Ligand effiencies>  (1) 
[-0.24733333333333335]

>  <Interactions>  (1) 
["V-A:ASP:366:CG:3212, H-B:GLU:543:OE1:9881, V-A:TYR:539:CD1:4873, H-A:TYR:539:OH:4878, V-A:PRO:540:CB:4885, V-A:ILE:538:CB:4862, V-A:ILE:538:CG2:4863, V-A:LEU:363:CD1:3188, V-A:TYR:539:CE1:4875, V-A:PRO:540:CA:4883, H-B:TYR:531:OH:9767, V-A:ILE:538:CA:4860, V-A:TYR:539:CD2:4874, V-A:TYR:539:CE2:4876, V-A:TYR:539:CZ:4877, V-A:ILE:538:C:4858, V-A:TYR:539:CG:4872, V-B:PRO:540:CB:9857, V-B:TYR:539:CE2:9848, V-B:PRO:540:CA:9855, V-B:MET:535:CE:9807, V-B:LEU:363:CD1:8160, V-A:ILE:369:CG2:3236, V-A:ASP:366:CB:3211, V-A:ILE:369:CB:3235, V-A:ILE:369:CD1:3238, V-B:TYR:539:CZ:9849, H-B:TYR:539:OH:9850, H-A:TYR:531:OH:4795, V-A:LEU:363:CA:3184, V-A:ASN:362:CB:3175, V-A:ASN:362:C:3171, V-B:LEU:363:CA:8156, V-A:LEU:363:CB:3186, V-A:ASP:366:CA:3209, V-B:LEU:363:CB:8158"]

$$$$
RR24_Rahimova_2017-again1
     RDKit          3D

 63 69  0  0  0  0  0  0  0  0999 V2000
  127.2270  131.8830   61.4220 C   0  0  0  0  0  0  0  0  0  0  0  0
  127.8010  130.7310   60.5860 C   0  0  2  0  0  0  0  0  0  0  0  0
  127.3480  129.3260   61.0770 C   0  0  0  0  0  0  0  0  0  0  0  0
  126.4580  129.1830   61.9240 O   0  0  0  0  0  0  0  0  0  0  0  0
  128.0520  128.3110   60.4930 O   0  0  0  0  0  0  0  0  0  0  0  0
  128.5720  127.3060   61.2750 C   0  0  0  0  0  0  0  0  0  0  0  0
  129.9560  127.1990   61.4270 C   0  0  0  0  0  0  0  0  0  0  0  0
  130.4900  126.1980   62.2330 C   0  0  0  0  0  0  0  0  0  0  0  0
  129.6440  125.3030   62.8970 C   0  0  0  0  0  0  0  0  0  0  0  0
  130.2280  124.1970   63.7860 C   0  0  1  0  0  0  0  0  0  0  0  0
  130.6360  122.9610   62.9520 C   0  0  0  0  0  0  0  0  0  0  0  0
  129.9190  122.0910   62.2060 C   0  0  0  0  0  0  0  0  0  0  0  0
  128.6370  122.1160   62.0720 O   0  0  0  0  0  0  0  0  0  0  0  0
  130.8070  121.1320   61.5500 C   0  0  0  0  0  0  0  0  0  0  0  0
  130.5650  120.0610   60.6800 C   0  0  0  0  0  0  0  0  0  0  0  0
  131.6370  119.3090   60.1980 C   0  0  0  0  0  0  0  0  0  0  0  0
  132.9420  119.6230   60.5820 C   0  0  0  0  0  0  0  0  0  0  0  0
  133.1790  120.6910   61.4510 C   0  0  0  0  0  0  0  0  0  0  0  0
  132.1040  121.4450   61.9300 C   0  0  0  0  0  0  0  0  0  0  0  0
  132.0330  122.5760   62.8370 C   0  0  0  0  0  0  0  0  0  0  0  0
  132.9660  123.1810   63.4730 N   0  0  0  0  0  0  0  0  0  0  0  0
  132.6930  124.1560   64.3850 C   0  0  0  0  0  0  0  0  0  0  0  0
  133.7970  124.5660   65.0760 N   0  0  0  0  0  0  0  0  0  0  0  0
  133.6800  125.4960   65.9560 C   0  0  0  0  0  0  0  0  0  0  0  0
  134.7490  125.7920   66.5170 O   0  0  0  0  0  0  0  0  0  0  0  0
  132.4580  126.1020   66.2430 N   0  0  0  0  0  0  0  0  0  0  0  0
  132.2920  127.1770   67.2500 C   0  0  0  0  0  0  0  0  0  0  0  0
  131.2870  125.7390   65.6080 C   0  0  0  0  0  0  0  0  0  0  0  0
  130.1800  126.2330   65.8490 O   0  0  0  0  0  0  0  0  0  0  0  0
  131.4490  124.6870   64.6000 C   0  0  0  0  0  0  0  0  0  0  0  0
  128.2580  125.4220   62.7520 C   0  0  0  0  0  0  0  0  0  0  0  0
  127.7230  126.4240   61.9490 C   0  0  0  0  0  0  0  0  0  0  0  0
  129.2830  130.8300   60.4400 N   0  0  0  0  0  0  0  0  0  0  0  0
  129.9090  130.4900   59.2780 C   0  0  0  0  0  0  0  0  0  0  0  0
  129.3900  130.0750   58.2400 O   0  0  0  0  0  0  0  0  0  0  0  0
  131.3540  130.7260   59.5250 C   0  0  0  0  0  0  0  0  0  0  0  0
  132.4650  130.5470   58.6980 C   0  0  0  0  0  0  0  0  0  0  0  0
  133.7320  130.8550   59.2040 C   0  0  0  0  0  0  0  0  0  0  0  0
  133.8740  131.3320   60.5130 C   0  0  0  0  0  0  0  0  0  0  0  0
  132.7490  131.5050   61.3260 C   0  0  0  0  0  0  0  0  0  0  0  0
  131.4930  131.1910   60.8040 C   0  0  0  0  0  0  0  0  0  0  0  0
  130.1410  131.2700   61.4110 C   0  0  0  0  0  0  0  0  0  0  0  0
  129.8530  131.6520   62.5450 O   0  0  0  0  0  0  0  0  0  0  0  0
  127.3418  131.6526   62.4915 H   0  0  0  0  0  0  0  0  0  0  0  0
  127.7678  132.8116   61.1869 H   0  0  0  0  0  0  0  0  0  0  0  0
  126.1600  132.0105   61.1869 H   0  0  0  0  0  0  0  0  0  0  0  0
  127.3689  130.8446   59.5808 H   0  0  0  0  0  0  0  0  0  0  0  0
  130.6231  127.9048   60.9105 H   0  0  0  0  0  0  0  0  0  0  0  0
  131.5804  126.1102   62.3484 H   0  0  0  0  0  0  0  0  0  0  0  0
  129.4304  123.9148   64.4889 H   0  0  0  0  0  0  0  0  0  0  0  0
  129.5362  119.8144   60.3787 H   0  0  0  0  0  0  0  0  0  0  0  0
  131.4535  118.4672   59.5142 H   0  0  0  0  0  0  0  0  0  0  0  0
  133.7850  119.0286   60.1998 H   0  0  0  0  0  0  0  0  0  0  0  0
  134.2066  120.9373   61.7567 H   0  0  0  0  0  0  0  0  0  0  0  0
  132.3585  126.7466   68.2601 H   0  0  0  0  0  0  0  0  0  0  0  0
  133.0848  127.9281   67.1186 H   0  0  0  0  0  0  0  0  0  0  0  0
  131.3096  127.6540   67.1186 H   0  0  0  0  0  0  0  0  0  0  0  0
  127.5895  124.7217   63.2741 H   0  0  0  0  0  0  0  0  0  0  0  0
  126.6324  126.5220   61.8446 H   0  0  0  0  0  0  0  0  0  0  0  0
  132.3462  130.1719   57.6708 H   0  0  0  0  0  0  0  0  0  0  0  0
  134.6214  130.7219   58.5706 H   0  0  0  0  0  0  0  0  0  0  0  0
  134.8741  131.5716   60.9033 H   0  0  0  0  0  0  0  0  0  0  0  0
  132.8518  131.8805   62.3548 H   0  0  0  0  0  0  0  0  0  0  0  0
  1  2  1  0
  2  3  1  0
  3  4  2  0
  3  5  1  0
  5  6  1  0
  6  7  2  0
  7  8  1  0
  8  9  2  0
  9 10  1  0
 10 11  1  0
 11 12  2  0
 12 13  1  0
 12 14  1  0
 14 15  2  0
 15 16  1  0
 16 17  2  0
 17 18  1  0
 18 19  2  0
 19 20  1  0
 20 21  2  0
 21 22  1  0
 22 23  1  0
 23 24  2  0
 24 25  1  0
 24 26  1  0
 26 27  1  0
 26 28  1  0
 28 29  2  0
 28 30  1  0
  9 31  1  0
 31 32  2  0
  2 33  1  0
 33 34  1  0
 34 35  2  0
 34 36  1  0
 36 37  2  0
 37 38  1  0
 38 39  2  0
 39 40  1  0
 40 41  2  0
 41 42  1  0
 42 43  2  0
 32  6  1  0
 42 33  1  0
 30 10  1  0
 41 36  1  0
 20 11  1  0
 30 22  2  0
 19 14  1  0
  1 44  1  0
  1 45  1  0
  1 46  1  0
  2 47  1  6
  7 48  1  0
  8 49  1  0
 10 50  1  1
 15 51  1  0
 16 52  1  0
 17 53  1  0
 18 54  1  0
 27 55  1  0
 27 56  1  0
 27 57  1  0
 31 58  1  0
 32 59  1  0
 37 60  1  0
 38 61  1  0
 39 62  1  0
 40 63  1  0
M  CHG  2  13  -1  25  -1
M  END
>  <Binding energies>  (1) 
[-9.39]

>  <Ligand effiencies>  (1) 
[-0.21837209302325583]

>  <Interactions>  (1) 
["V-A:HIS:456:CE1:4069, H-A:GLY:454:N:4049, H-B:ALA:541:N:9863, V-A:ARG:545:CZ:4926, V-A:ASP:366:CG:3212, H-A:TYR:484:OH:4347, V-B:GLU:543:CD:9880, H-A:ARG:545:NE:4924, V-B:ALA:541:CB:9864, V-A:ARG:545:CD:4923, V-A:ARG:545:CG:4922, V-A:PRO:540:CB:4885, V-A:LEU:363:CD1:3188, V-A:PRO:540:CA:4883, H-A:ALA:541:N:4891, V-A:GLU:543:CD:4908, V-B:TYR:539:CE2:9848, V-B:TYR:539:CD2:9846, V-A:GLY:454:CA:4048, V-A:ILE:369:CG2:3236, V-A:ASP:366:CB:3211, V-A:LEU:475:CD1:4257, V-A:GLU:543:CB:4906, V-A:PRO:540:C:4881, V-A:LEU:363:CA:3184, V-A:ASN:362:CB:3175, V-A:ASN:362:C:3171, V-A:LEU:363:CB:3186, V-A:ASN:362:CA:3173"]

$$$$
RR25_Rahimova_2017
     RDKit          3D

 63 68  0  0  0  0  0  0  0  0999 V2000
  126.5020  131.9040   65.2920 O   0  0  0  0  0  0  0  0  0  0  0  0
  126.6620  130.7650   65.7320 C   0  0  0  0  0  0  0  0  0  0  0  0
  127.8570  130.5200   66.3620 O   0  0  0  0  0  0  0  0  0  0  0  0
  128.0570  129.3730   67.1090 C   0  0  0  0  0  0  0  0  0  0  0  0
  129.0110  129.4440   68.1230 C   0  0  0  0  0  0  0  0  0  0  0  0
  129.2690  128.3230   68.9100 C   0  0  0  0  0  0  0  0  0  0  0  0
  128.5830  127.1190   68.6920 C   0  0  0  0  0  0  0  0  0  0  0  0
  128.8550  125.9290   69.5370 N   0  0  0  0  0  0  0  0  0  0  0  0
  129.2060  124.8870   68.9890 O   0  0  0  0  0  0  0  0  0  0  0  0
  128.7180  126.0280   70.7520 O   0  0  0  0  0  0  0  0  0  0  0  0
  127.6350  127.0650   67.6580 C   0  0  0  0  0  0  0  0  0  0  0  0
  127.3700  128.1770   66.8550 C   0  0  0  0  0  0  0  0  0  0  0  0
  126.3480  128.1730   65.7320 C   0  0  0  0  0  0  0  0  0  0  0  0
  125.6700  129.5690   65.6360 C   0  0  2  0  0  0  0  0  0  0  0  0
  124.6860  129.6320   64.4320 C   0  0  0  0  0  0  0  0  0  0  0  0
  123.4840  129.6210   64.7130 O   0  0  0  0  0  0  0  0  0  0  0  0
  125.1180  129.8180   63.1480 N   0  0  0  0  0  0  0  0  0  0  0  0
  126.5030  129.5310   62.7200 C   0  0  0  0  0  0  0  0  0  0  0  0
  126.9340  130.5840   61.6770 C   0  0  0  0  0  0  0  0  0  0  0  0
  125.9930  130.6430   60.5550 N   0  0  0  0  0  0  0  0  0  0  0  0
  126.4700  131.5470   59.5000 C   0  0  0  0  0  0  0  0  0  0  0  0
  127.6050  132.4900   59.9810 C   0  0  0  0  0  0  0  0  0  0  0  0
  128.9990  132.0240   59.7220 N   0  0  0  0  0  0  0  0  0  0  0  0
  129.3020  131.7820   58.3990 C   0  0  0  0  0  0  0  0  0  0  0  0
  128.4800  131.9010   57.4830 O   0  0  0  0  0  0  0  0  0  0  0  0
  130.7400  131.3740   58.1460 C   0  0  0  0  0  0  0  0  0  0  0  0
  131.1650  131.1280   56.8330 C   0  0  0  0  0  0  0  0  0  0  0  0
  132.4810  130.7580   56.5630 C   0  0  0  0  0  0  0  0  0  0  0  0
  133.4130  130.6260   57.5910 C   0  0  0  0  0  0  0  0  0  0  0  0
  133.0300  130.8640   58.9330 C   0  0  0  0  0  0  0  0  0  0  0  0
  133.9250  130.7490   60.0230 C   0  0  0  0  0  0  0  0  0  0  0  0
  133.4830  131.0010   61.3210 C   0  0  0  0  0  0  0  0  0  0  0  0
  132.1610  131.3660   61.5680 C   0  0  0  0  0  0  0  0  0  0  0  0
  131.2400  131.4920   60.5200 C   0  0  0  0  0  0  0  0  0  0  0  0
  131.6830  131.2390   59.1970 C   0  0  0  0  0  0  0  0  0  0  0  0
  129.8130  131.9010   60.8290 C   0  0  0  0  0  0  0  0  0  0  0  0
  129.4280  132.1180   61.9830 O   0  0  0  0  0  0  0  0  0  0  0  0
  124.6670  131.0290   61.0390 C   0  0  0  0  0  0  0  0  0  0  0  0
  124.1180  130.0170   62.0730 C   0  0  0  0  0  0  0  0  0  0  0  0
  129.5582  130.3814   68.3014 H   0  0  0  0  0  0  0  0  0  0  0  0
  130.0197  128.3831   69.7118 H   0  0  0  0  0  0  0  0  0  0  0  0
  127.0893  126.1273   67.4763 H   0  0  0  0  0  0  0  0  0  0  0  0
  126.8508  127.9444   64.7807 H   0  0  0  0  0  0  0  0  0  0  0  0
  125.5831  127.4098   65.9380 H   0  0  0  0  0  0  0  0  0  0  0  0
  125.0566  129.6929   66.5406 H   0  0  0  0  0  0  0  0  0  0  0  0
  127.1749  129.5766   63.5897 H   0  0  0  0  0  0  0  0  0  0  0  0
  126.5547  128.5255   62.2768 H   0  0  0  0  0  0  0  0  0  0  0  0
  126.9757  131.5708   62.1612 H   0  0  0  0  0  0  0  0  0  0  0  0
  127.9216  130.2987   61.2854 H   0  0  0  0  0  0  0  0  0  0  0  0
  126.8478  130.9414   58.6630 H   0  0  0  0  0  0  0  0  0  0  0  0
  125.6217  132.1786   59.1977 H   0  0  0  0  0  0  0  0  0  0  0  0
  127.4747  133.4581   59.4752 H   0  0  0  0  0  0  0  0  0  0  0  0
  127.5072  132.5361   61.0757 H   0  0  0  0  0  0  0  0  0  0  0  0
  130.4492  131.2285   56.0038 H   0  0  0  0  0  0  0  0  0  0  0  0
  132.7886  130.5675   55.5242 H   0  0  0  0  0  0  0  0  0  0  0  0
  134.4485  130.3362   57.3590 H   0  0  0  0  0  0  0  0  0  0  0  0
  134.9715  130.4602   59.8458 H   0  0  0  0  0  0  0  0  0  0  0  0
  134.1871  130.9105   62.1613 H   0  0  0  0  0  0  0  0  0  0  0  0
  131.8359  131.5580   62.6012 H   0  0  0  0  0  0  0  0  0  0  0  0
  124.7346  132.0201   61.5114 H   0  0  0  0  0  0  0  0  0  0  0  0
  123.9805  131.0478   60.1797 H   0  0  0  0  0  0  0  0  0  0  0  0
  123.1852  130.4060   62.5073 H   0  0  0  0  0  0  0  0  0  0  0  0
  123.9181  129.0564   61.5756 H   0  0  0  0  0  0  0  0  0  0  0  0
  1  2  2  0
  2  3  1  0
  3  4  1  0
  4  5  2  0
  5  6  1  0
  6  7  2  0
  7  8  1  0
  8  9  2  0
  8 10  1  0
  7 11  1  0
 11 12  2  0
 12 13  1  0
 13 14  1  0
 14 15  1  0
 15 16  2  0
 15 17  1  0
 17 18  1  0
 18 19  1  0
 19 20  1  0
 20 21  1  0
 21 22  1  0
 22 23  1  0
 23 24  1  0
 24 25  2  0
 24 26  1  0
 26 27  2  0
 27 28  1  0
 28 29  2  0
 29 30  1  0
 30 31  2  0
 31 32  1  0
 32 33  2  0
 33 34  1  0
 34 35  2  0
 34 36  1  0
 36 37  2  0
 20 38  1  0
 38 39  1  0
 14  2  1  0
 39 17  1  0
 12  4  1  0
 36 23  1  0
 35 26  1  0
 35 30  1  0
  5 40  1  0
  6 41  1  0
 11 42  1  0
 13 43  1  0
 13 44  1  0
 14 45  1  1
 18 46  1  0
 18 47  1  0
 19 48  1  0
 19 49  1  0
 21 50  1  0
 21 51  1  0
 22 52  1  0
 22 53  1  0
 27 54  1  0
 28 55  1  0
 29 56  1  0
 31 57  1  0
 32 58  1  0
 33 59  1  0
 38 60  1  0
 38 61  1  0
 39 62  1  0
 39 63  1  0
M  CHG  2   8   1  10  -1
M  END
>  <Binding energies>  (1) 
[-10.85]

>  <Ligand effiencies>  (1) 
[-0.2782051282051282]

>  <Interactions>  (1) 
["V-A:GLU:543:C:4902, V-A:HIS:456:CE1:4069, V-A:ASP:366:CG:3212, V-B:GLU:543:CD:9880, V-A:TYR:539:CD1:4873, V-A:PRO:540:CB:4885, V-A:LEU:363:CD1:3188, V-A:PRO:540:N:4884, V-A:TYR:531:CE2:4793, V-A:TYR:539:CE1:4875, V-A:PRO:540:CA:4883, V-B:ASP:366:CG:8184, V-A:ALA:541:CB:4892, V-A:TYR:531:CZ:4794, H-A:ALA:541:N:4891, V-A:TYR:539:C:4867, V-A:GLU:543:CD:4908, V-A:GLU:543:CG:4907, H-B:ARG:545:NH2:9900, V-A:GLU:543:CA:4904, V-A:ASP:366:CB:3211, V-B:GLU:543:CB:9878, V-B:GLU:543:C:9874, V-A:GLU:543:CB:4906, V-B:HIS:456:CE1:9041, V-A:PRO:540:C:4881, V-A:LEU:363:CA:3184, V-A:ASN:362:CB:3175, V-A:ASN:362:C:3171, V-A:LEU:363:CB:3186, V-B:TYR:484:CZ:9318, V-B:TYR:484:CE2:9317, V-B:ARG:545:CZ:9898, H-B:GLY:454:N:9021, H-B:TYR:484:OH:9319, H-B:ARG:545:NE:9896, H-B:ARG:545:NH1:9899"]

$$$$
RR26_Rahimova_2017
     RDKit          3D

 59 65  0  0  0  0  0  0  0  0999 V2000
  124.1230  124.7450   58.0850 C   0  0  0  0  0  0  0  0  0  0  0  0
  125.4230  123.9930   57.8330 C   0  0  0  0  0  0  0  0  0  0  0  0
  125.3480  122.6870   57.3360 C   0  0  0  0  0  0  0  0  0  0  0  0
  126.5050  121.9660   57.0490 C   0  0  0  0  0  0  0  0  0  0  0  0
  127.7520  122.5500   57.2500 C   0  0  0  0  0  0  0  0  0  0  0  0
  127.8410  123.8500   57.7430 C   0  0  0  0  0  0  0  0  0  0  0  0
  126.6860  124.5880   58.0470 C   0  0  0  0  0  0  0  0  0  0  0  0
  126.8710  125.9760   58.5880 C   0  0  0  0  0  0  0  0  0  0  0  0
  125.8490  126.8060   58.7820 N   0  0  0  0  0  0  0  0  0  0  0  0
  126.4470  127.8630   59.2610 C   0  0  0  0  0  0  0  0  0  0  0  0
  125.9540  129.4280   59.7930 S   0  0  0  0  0  0  0  0  0  0  0  0
  127.6750  129.8170   60.1680 C   0  0  0  0  0  0  0  0  0  0  0  0
  128.1730  130.9710   60.6660 C   0  0  0  0  0  0  0  0  0  0  0  0
  127.4470  132.1780   61.0290 C   0  0  0  0  0  0  0  0  0  0  0  0
  127.2230  133.3070   60.2570 C   0  0  0  0  0  0  0  0  0  0  0  0
  126.4560  134.1750   60.9920 N   0  0  0  0  0  0  0  0  0  0  0  0
  125.9730  135.4550   60.6140 C   0  0  0  0  0  0  0  0  0  0  0  0
  126.8250  136.5680   60.5980 C   0  0  0  0  0  0  0  0  0  0  0  0
  126.3370  137.8190   60.2290 C   0  0  0  0  0  0  0  0  0  0  0  0
  124.9990  137.9600   59.8720 C   0  0  0  0  0  0  0  0  0  0  0  0
  124.1420  136.8610   59.8810 C   0  0  0  0  0  0  0  0  0  0  0  0
  124.6260  135.6100   60.2520 C   0  0  0  0  0  0  0  0  0  0  0  0
  126.1580  133.6370   62.1850 N   0  0  0  0  0  0  0  0  0  0  0  0
  126.7430  132.4570   62.2220 C   0  0  0  0  0  0  0  0  0  0  0  0
  126.6100  131.5970   63.4410 C   0  0  0  0  0  0  0  0  0  0  0  0
  127.7300  131.3130   64.2370 C   0  0  0  0  0  0  0  0  0  0  0  0
  127.6170  130.5100   65.3730 C   0  0  0  0  0  0  0  0  0  0  0  0
  126.3760  129.9800   65.7210 C   0  0  0  0  0  0  0  0  0  0  0  0
  125.2450  130.2710   64.9440 C   0  0  0  0  0  0  0  0  0  0  0  0
  125.3620  131.0690   63.8070 C   0  0  0  0  0  0  0  0  0  0  0  0
  124.0050  129.7330   65.2270 O   0  0  0  0  0  0  0  0  0  0  0  0
  123.8690  129.2460   66.5660 C   0  0  0  0  0  0  0  0  0  0  0  0
  125.1170  128.4280   66.9760 C   0  0  0  0  0  0  0  0  0  0  0  0
  126.2990  129.2310   66.8780 O   0  0  0  0  0  0  0  0  0  0  0  0
  128.5750  128.7100   59.8560 C   0  0  0  0  0  0  0  0  0  0  0  0
  129.7980  128.6440   59.9840 O   0  0  0  0  0  0  0  0  0  0  0  0
  127.7750  127.6710   59.3570 N   0  0  0  0  0  0  0  0  0  0  0  0
  128.0640  126.4400   58.9250 N   0  0  0  0  0  0  0  0  0  0  0  0
  123.9585  124.8401   59.1685 H   0  0  0  0  0  0  0  0  0  0  0  0
  124.1854  125.7465   57.6343 H   0  0  0  0  0  0  0  0  0  0  0  0
  123.2860  124.1916   57.6343 H   0  0  0  0  0  0  0  0  0  0  0  0
  124.3640  122.2243   57.1700 H   0  0  0  0  0  0  0  0  0  0  0  0
  126.4330  120.9379   56.6646 H   0  0  0  0  0  0  0  0  0  0  0  0
  128.6674  121.9852   57.0196 H   0  0  0  0  0  0  0  0  0  0  0  0
  128.8307  124.3049   57.8963 H   0  0  0  0  0  0  0  0  0  0  0  0
  129.2624  131.0009   60.8152 H   0  0  0  0  0  0  0  0  0  0  0  0
  127.5945  133.4770   59.2357 H   0  0  0  0  0  0  0  0  0  0  0  0
  127.8826  136.4529   60.8778 H   0  0  0  0  0  0  0  0  0  0  0  0
  127.0061  138.6921   60.2197 H   0  0  0  0  0  0  0  0  0  0  0  0
  124.6144  138.9483   59.5800 H   0  0  0  0  0  0  0  0  0  0  0  0
  123.0865  136.9820   59.5958 H   0  0  0  0  0  0  0  0  0  0  0  0
  123.9515  134.7411   60.2615 H   0  0  0  0  0  0  0  0  0  0  0  0
  128.7105  131.7289   63.9620 H   0  0  0  0  0  0  0  0  0  0  0  0
  128.5023  130.2967   65.9900 H   0  0  0  0  0  0  0  0  0  0  0  0
  124.4740  131.2855   63.1950 H   0  0  0  0  0  0  0  0  0  0  0  0
  123.7543  130.0988   67.2512 H   0  0  0  0  0  0  0  0  0  0  0  0
  122.9842  128.5946   66.6189 H   0  0  0  0  0  0  0  0  0  0  0  0
  124.9988  128.0834   68.0139 H   0  0  0  0  0  0  0  0  0  0  0  0
  125.2155  127.5668   66.2988 H   0  0  0  0  0  0  0  0  0  0  0  0
  1  2  1  0
  2  3  2  0
  3  4  1  0
  4  5  2  0
  5  6  1  0
  6  7  2  0
  7  8  1  0
  8  9  1  0
  9 10  2  0
 10 11  1  0
 11 12  1  0
 12 13  2  0
 13 14  1  0
 14 15  2  0
 15 16  1  0
 16 17  1  0
 17 18  2  0
 18 19  1  0
 19 20  2  0
 20 21  1  0
 21 22  2  0
 16 23  1  0
 23 24  2  0
 24 25  1  0
 25 26  2  0
 26 27  1  0
 27 28  2  0
 28 29  1  0
 29 30  2  0
 29 31  1  0
 31 32  1  0
 32 33  1  0
 33 34  1  0
 12 35  1  0
 35 36  2  0
 35 37  1  0
 37 38  1  0
  7  2  1  0
 38  8  2  0
 37 10  1  0
 24 14  1  0
 30 25  1  0
 22 17  1  0
 34 28  1  0
  1 39  1  0
  1 40  1  0
  1 41  1  0
  3 42  1  0
  4 43  1  0
  5 44  1  0
  6 45  1  0
 13 46  1  0
 15 47  1  0
 18 48  1  0
 19 49  1  0
 20 50  1  0
 21 51  1  0
 22 52  1  0
 26 53  1  0
 27 54  1  0
 30 55  1  0
 32 56  1  0
 32 57  1  0
 33 58  1  0
 33 59  1  0
M  END
>  <Binding energies>  (1) 
[-10.1]

>  <Ligand effiencies>  (1) 
[-0.2657894736842105]

>  <Interactions>  (1) 
["V-A:TYR:539:CD1:4873, V-A:TYR:539:CE1:4875, V-B:ILE:369:CG2:8208, V-B:ASP:366:CG:8184, V-B:LEU:475:CD1:9229, V-A:ALA:541:CB:4892, H-B:TYR:531:OH:9767, V-B:ASP:366:CB:8183, V-A:TYR:539:C:4867, V-A:GLU:543:CD:4908, V-A:GLU:543:CG:4907, V-B:PRO:540:CB:9857, V-B:PRO:540:CD:9859, V-B:PRO:540:N:9856, V-B:PRO:540:CA:9855, V-B:MET:535:CE:9807, V-B:TYR:539:CA:9841, V-B:TYR:531:CE2:9765, V-B:TYR:539:C:9839, H-B:ARG:545:NH2:9900, V-B:TYR:531:CZ:9766, V-B:LEU:363:CD1:8160, V-B:HIS:456:CE1:9041, V-B:LEU:363:CA:8156, V-B:TYR:484:CZ:9318, V-B:GLY:454:CA:9020, V-B:TYR:484:CE2:9317, V-B:ARG:545:CZ:9898, V-B:ARG:545:CG:9894, V-B:ARG:545:CD:9895, V-B:PRO:482:CB:9297, V-A:TYR:539:CB:4871, V-B:PRO:482:CG:9298, V-B:LEU:373:CD1:8251, V-B:SER:385:CB:8380, V-B:SER:385:CA:8378, H-B:GLY:454:N:9021, H-B:TYR:484:OH:9319, H-B:ARG:545:NE:9896, H-B:ARG:545:NH1:9899"]

$$$$
RR27_Rahimova_2017
     RDKit          3D

 66 71  0  0  0  0  0  0  0  0999 V2000
  130.5540  122.0140   59.1830 O   0  0  0  0  0  0  0  0  0  0  0  0
  129.5870  122.6080   59.6690 C   0  0  0  0  0  0  0  0  0  0  0  0
  128.9110  123.7300   58.8270 C   0  0  0  0  0  0  0  0  0  0  0  0
  127.6260  123.2620   58.1170 C   0  0  0  0  0  0  0  0  0  0  0  0
  127.6140  122.1450   57.2670 C   0  0  0  0  0  0  0  0  0  0  0  0
  126.4350  121.7480   56.6440 C   0  0  0  0  0  0  0  0  0  0  0  0
  125.2630  122.4650   56.8660 C   0  0  0  0  0  0  0  0  0  0  0  0
  125.2590  123.5760   57.7040 C   0  0  0  0  0  0  0  0  0  0  0  0
  126.4390  123.9730   58.3270 C   0  0  0  0  0  0  0  0  0  0  0  0
  129.9250  124.4550   57.9220 C   0  0  0  0  0  0  0  0  0  0  0  0
  131.2440  124.6890   58.3320 C   0  0  0  0  0  0  0  0  0  0  0  0
  132.1320  125.3580   57.4930 C   0  0  0  0  0  0  0  0  0  0  0  0
  131.7020  125.8000   56.2450 C   0  0  0  0  0  0  0  0  0  0  0  0
  130.3910  125.5850   55.8290 C   0  0  0  0  0  0  0  0  0  0  0  0
  129.5050  124.9170   56.6680 C   0  0  0  0  0  0  0  0  0  0  0  0
  129.0160  122.2080   60.8400 N   0  0  0  0  0  0  0  0  0  0  0  0
  128.0400  123.0170   61.5860 C   0  0  0  0  0  0  0  0  0  0  0  0
  128.8490  123.9470   62.5170 C   0  0  0  0  0  0  0  0  0  0  0  0
  129.8350  123.1650   63.4420 C   0  0  0  0  0  0  0  0  0  0  0  0
  130.7460  124.0520   64.3110 C   0  0  0  0  0  0  0  0  0  0  0  0
  132.0500  124.1500   63.9200 N   0  0  0  0  0  0  0  0  0  0  0  0
  132.8920  124.9440   64.6390 C   0  0  0  0  0  0  0  0  0  0  0  0
  134.2170  125.1260   64.3430 O   0  0  0  0  0  0  0  0  0  0  0  0
  132.3820  125.6300   65.7580 C   0  0  0  0  0  0  0  0  0  0  0  0
  132.9310  126.4850   66.6680 N   0  0  0  0  0  0  0  0  0  0  0  0
  131.9330  126.8370   67.5570 N   0  0  0  0  0  0  0  0  0  0  0  0
  130.7900  126.2160   67.1950 N   0  0  0  0  0  0  0  0  0  0  0  0
  129.5710  126.3910   67.9810 C   0  0  0  0  0  0  0  0  0  0  0  0
  128.8000  127.6600   67.6420 C   0  0  0  0  0  0  0  0  0  0  0  0
  129.0280  128.8360   68.3630 C   0  0  0  0  0  0  0  0  0  0  0  0
  128.3300  130.0020   68.0440 C   0  0  0  0  0  0  0  0  0  0  0  0
  127.4040  129.9980   67.0010 C   0  0  0  0  0  0  0  0  0  0  0  0
  127.1790  128.8300   66.2710 C   0  0  0  0  0  0  0  0  0  0  0  0
  126.0530  128.8300   64.9620 Cl  0  0  0  0  0  0  0  0  0  0  0  0
  127.8710  127.6630   66.5940 C   0  0  0  0  0  0  0  0  0  0  0  0
  131.0190  125.4400   66.0710 C   0  0  0  0  0  0  0  0  0  0  0  0
  130.1740  124.6620   65.3890 N   0  0  0  0  0  0  0  0  0  0  0  0
  130.6100  122.0590   62.6630 C   0  0  0  0  0  0  0  0  0  0  0  0
  129.7070  121.2400   61.7070 C   0  0  0  0  0  0  0  0  0  0  0  0
  128.5531  124.4967   59.5299 H   0  0  0  0  0  0  0  0  0  0  0  0
  128.5418  121.5804   57.0925 H   0  0  0  0  0  0  0  0  0  0  0  0
  126.4292  120.8716   55.9792 H   0  0  0  0  0  0  0  0  0  0  0  0
  124.3307  122.1504   56.3742 H   0  0  0  0  0  0  0  0  0  0  0  0
  124.3284  124.1375   57.8733 H   0  0  0  0  0  0  0  0  0  0  0  0
  126.4384  124.8516   58.9889 H   0  0  0  0  0  0  0  0  0  0  0  0
  131.5798  124.3429   59.3207 H   0  0  0  0  0  0  0  0  0  0  0  0
  133.1685  125.5363   57.8152 H   0  0  0  0  0  0  0  0  0  0  0  0
  132.4050  126.3243   55.5810 H   0  0  0  0  0  0  0  0  0  0  0  0
  130.0578  125.9411   54.8430 H   0  0  0  0  0  0  0  0  0  0  0  0
  128.4670  124.7503   56.3444 H   0  0  0  0  0  0  0  0  0  0  0  0
  127.4321  123.6137   60.8900 H   0  0  0  0  0  0  0  0  0  0  0  0
  127.3570  122.3772   62.1641 H   0  0  0  0  0  0  0  0  0  0  0  0
  129.4283  124.6475   61.8976 H   0  0  0  0  0  0  0  0  0  0  0  0
  128.1326  124.4733   63.1649 H   0  0  0  0  0  0  0  0  0  0  0  0
  129.1974  122.6530   64.1777 H   0  0  0  0  0  0  0  0  0  0  0  0
  134.6510  125.7340   64.9450 H   0  0  0  0  0  0  0  0  0  0  0  0
  128.9144  125.5272   67.8003 H   0  0  0  0  0  0  0  0  0  0  0  0
  129.8771  126.4729   69.0344 H   0  0  0  0  0  0  0  0  0  0  0  0
  129.7598  128.8424   69.1843 H   0  0  0  0  0  0  0  0  0  0  0  0
  128.5104  130.9244   68.6155 H   0  0  0  0  0  0  0  0  0  0  0  0
  126.8507  130.9160   66.7536 H   0  0  0  0  0  0  0  0  0  0  0  0
  127.6863  126.7410   66.0232 H   0  0  0  0  0  0  0  0  0  0  0  0
  131.4024  122.5390   62.0700 H   0  0  0  0  0  0  0  0  0  0  0  0
  131.0177  121.3593   63.4074 H   0  0  0  0  0  0  0  0  0  0  0  0
  130.3196  120.5576   61.0995 H   0  0  0  0  0  0  0  0  0  0  0  0
  128.9856  120.6308   62.2713 H   0  0  0  0  0  0  0  0  0  0  0  0
  1  2  2  0
  2  3  1  0
  3  4  1  0
  4  5  2  0
  5  6  1  0
  6  7  2  0
  7  8  1  0
  8  9  2  0
  3 10  1  0
 10 11  2  0
 11 12  1  0
 12 13  2  0
 13 14  1  0
 14 15  2  0
  2 16  1  0
 16 17  1  0
 17 18  1  0
 18 19  1  0
 19 20  1  0
 20 21  2  0
 21 22  1  0
 22 23  1  0
 22 24  2  0
 24 25  1  0
 25 26  2  0
 26 27  1  0
 27 28  1  0
 28 29  1  0
 29 30  2  0
 30 31  1  0
 31 32  2  0
 32 33  1  0
 33 34  1  0
 33 35  2  0
 27 36  1  0
 36 37  2  0
 19 38  1  0
 38 39  1  0
  9  4  1  0
 15 10  1  0
 39 16  1  0
 37 20  1  0
 36 24  1  0
 35 29  1  0
  3 40  1  0
  5 41  1  0
  6 42  1  0
  7 43  1  0
  8 44  1  0
  9 45  1  0
 11 46  1  0
 12 47  1  0
 13 48  1  0
 14 49  1  0
 15 50  1  0
 17 51  1  0
 17 52  1  0
 18 53  1  0
 18 54  1  0
 19 55  1  0
 23 56  1  0
 28 57  1  0
 28 58  1  0
 30 59  1  0
 31 60  1  0
 32 61  1  0
 35 62  1  0
 38 63  1  0
 38 64  1  0
 39 65  1  0
 39 66  1  0
M  END
>  <Binding energies>  (1) 
[-10.85]

>  <Ligand effiencies>  (1) 
[-0.27125]

>  <Interactions>  (1) 
["V-A:GLU:543:C:4902, V-A:HIS:456:CE1:4069, H-A:GLY:454:N:4049, H-A:ARG:545:NH2:4928, V-A:TYR:484:CZ:4346, V-A:ARG:545:CZ:4926, V-A:ASP:366:CG:3212, H-A:TYR:484:OH:4347, V-B:GLU:543:CD:9880, H-A:ARG:545:NE:4924, V-B:ALA:541:CB:9864, V-A:GLU:543:CG:4907, V-B:PRO:540:CB:9857, V-B:TYR:539:CE2:9848, V-B:PRO:540:CD:9859, V-B:PRO:540:N:9856, V-B:PRO:540:CA:9855, V-B:MET:535:CE:9807, V-B:TYR:539:CA:9841, V-B:TYR:539:CD2:9846, V-B:TYR:531:CE2:9765, V-B:TYR:539:C:9839, V-B:LEU:363:CD1:8160, V-B:TYR:484:CD2:9315, V-A:GLU:543:CA:4904, V-A:ASP:366:CB:3211, V-A:LEU:475:CD1:4257, V-B:ALA:541:CA:9862, V-A:GLU:543:CB:4906, V-B:HIS:456:CE1:9041, V-B:TYR:539:CG:9844, V-B:TYR:539:CZ:9849, V-B:TYR:484:CZ:9318, V-B:TYR:484:CE2:9317, V-B:ARG:545:CZ:9898, H-A:ARG:545:NH1:4927"]

$$$$
RR27_Rahimova_2017-again1
     RDKit          3D

 66 71  0  0  0  0  0  0  0  0999 V2000
  129.9490  123.1600   64.0810 O   0  0  0  0  0  0  0  0  0  0  0  0
  130.8240  123.4980   63.2780 C   0  0  0  0  0  0  0  0  0  0  0  0
  131.3590  124.9610   63.3440 C   0  0  0  0  0  0  0  0  0  0  0  0
  131.9730  125.3030   64.7150 C   0  0  0  0  0  0  0  0  0  0  0  0
  131.1920  125.7660   65.7860 C   0  0  0  0  0  0  0  0  0  0  0  0
  131.7830  126.0630   67.0110 C   0  0  0  0  0  0  0  0  0  0  0  0
  133.1560  125.9000   67.1730 C   0  0  0  0  0  0  0  0  0  0  0  0
  133.9430  125.4410   66.1210 C   0  0  0  0  0  0  0  0  0  0  0  0
  133.3520  125.1430   64.8970 C   0  0  0  0  0  0  0  0  0  0  0  0
  130.3120  125.9820   62.8620 C   0  0  0  0  0  0  0  0  0  0  0  0
  130.6660  127.0590   62.0360 C   0  0  0  0  0  0  0  0  0  0  0  0
  129.7050  127.9810   61.6290 C   0  0  0  0  0  0  0  0  0  0  0  0
  128.3850  127.8300   62.0440 C   0  0  0  0  0  0  0  0  0  0  0  0
  128.0190  126.7680   62.8650 C   0  0  0  0  0  0  0  0  0  0  0  0
  128.9810  125.8500   63.2780 C   0  0  0  0  0  0  0  0  0  0  0  0
  131.4290  122.5840   62.4640 N   0  0  0  0  0  0  0  0  0  0  0  0
  132.2610  122.9450   61.3080 C   0  0  0  0  0  0  0  0  0  0  0  0
  131.3210  123.1650   60.1010 C   0  0  0  0  0  0  0  0  0  0  0  0
  130.1900  122.0990   59.9180 C   0  0  0  0  0  0  0  0  0  0  0  0
  128.9670  122.6300   59.1650 C   0  0  0  0  0  0  0  0  0  0  0  0
  128.4090  123.7470   59.5160 N   0  0  0  0  0  0  0  0  0  0  0  0
  127.3250  124.1180   58.7800 C   0  0  0  0  0  0  0  0  0  0  0  0
  126.7770  123.4200   57.7150 C   0  0  0  0  0  0  0  0  0  0  0  0
  125.7250  124.0610   57.2370 N   0  0  0  0  0  0  0  0  0  0  0  0
  125.5620  125.2170   57.9940 N   0  0  0  0  0  0  0  0  0  0  0  0
  126.5470  125.2390   58.9080 N   0  0  0  0  0  0  0  0  0  0  0  0
  126.6440  126.3210   59.8790 C   0  0  0  0  0  0  0  0  0  0  0  0
  126.3820  127.6950   59.2800 C   0  0  0  0  0  0  0  0  0  0  0  0
  125.6650  128.6520   60.0050 C   0  0  0  0  0  0  0  0  0  0  0  0
  125.4150  129.9090   59.4540 C   0  0  0  0  0  0  0  0  0  0  0  0
  125.8830  130.2170   58.1770 C   0  0  0  0  0  0  0  0  0  0  0  0
  126.6030  129.2690   57.4500 C   0  0  0  0  0  0  0  0  0  0  0  0
  127.1780  129.6490   55.8690 Cl  0  0  0  0  0  0  0  0  0  0  0  0
  126.8550  128.0120   58.0000 C   0  0  0  0  0  0  0  0  0  0  0  0
  127.3920  122.1610   57.2940 C   0  0  0  0  0  0  0  0  0  0  0  0
  127.0540  121.4110   56.3800 O   0  0  0  0  0  0  0  0  0  0  0  0
  128.4770  121.8830   58.0980 N   0  0  0  0  0  0  0  0  0  0  0  0
  129.7940  121.2960   61.1970 C   0  0  0  0  0  0  0  0  0  0  0  0
  130.8570  121.2370   62.3230 C   0  0  0  0  0  0  0  0  0  0  0  0
  132.1930  125.0321   62.6303 H   0  0  0  0  0  0  0  0  0  0  0  0
  130.1073  125.8948   65.6564 H   0  0  0  0  0  0  0  0  0  0  0  0
  131.1675  126.4251   67.8477 H   0  0  0  0  0  0  0  0  0  0  0  0
  133.6228  126.1360   68.1407 H   0  0  0  0  0  0  0  0  0  0  0  0
  135.0273  125.3144   66.2565 H   0  0  0  0  0  0  0  0  0  0  0  0
  133.9733  124.7787   64.0656 H   0  0  0  0  0  0  0  0  0  0  0  0
  131.7093  127.1760   61.7077 H   0  0  0  0  0  0  0  0  0  0  0  0
  129.9878  128.8248   60.9825 H   0  0  0  0  0  0  0  0  0  0  0  0
  127.6249  128.5563   61.7202 H   0  0  0  0  0  0  0  0  0  0  0  0
  126.9733  126.6540   63.1867 H   0  0  0  0  0  0  0  0  0  0  0  0
  128.6939  125.0158   63.9351 H   0  0  0  0  0  0  0  0  0  0  0  0
  132.8183  123.8690   61.5218 H   0  0  0  0  0  0  0  0  0  0  0  0
  132.9853  122.1461   61.0909 H   0  0  0  0  0  0  0  0  0  0  0  0
  130.8425  124.1483   60.2202 H   0  0  0  0  0  0  0  0  0  0  0  0
  131.9570  123.0836   59.2072 H   0  0  0  0  0  0  0  0  0  0  0  0
  130.6703  121.3506   59.2705 H   0  0  0  0  0  0  0  0  0  0  0  0
  125.9072  126.1416   60.6759 H   0  0  0  0  0  0  0  0  0  0  0  0
  127.6758  126.3240   60.2602 H   0  0  0  0  0  0  0  0  0  0  0  0
  125.2968  128.4127   61.0135 H   0  0  0  0  0  0  0  0  0  0  0  0
  124.8484  130.6576   60.0272 H   0  0  0  0  0  0  0  0  0  0  0  0
  125.6843  131.2080   57.7428 H   0  0  0  0  0  0  0  0  0  0  0  0
  127.4269  127.2674   57.4268 H   0  0  0  0  0  0  0  0  0  0  0  0
  128.9590  121.0240   57.8750 H   0  0  0  0  0  0  0  0  0  0  0  0
  128.8869  121.7567   61.6153 H   0  0  0  0  0  0  0  0  0  0  0  0
  129.6604  120.2565   60.8629 H   0  0  0  0  0  0  0  0  0  0  0  0
  130.3860  120.9285   63.2680 H   0  0  0  0  0  0  0  0  0  0  0  0
  131.6422  120.5074   62.0758 H   0  0  0  0  0  0  0  0  0  0  0  0
  1  2  2  0
  2  3  1  0
  3  4  1  0
  4  5  2  0
  5  6  1  0
  6  7  2  0
  7  8  1  0
  8  9  2  0
  3 10  1  0
 10 11  2  0
 11 12  1  0
 12 13  2  0
 13 14  1  0
 14 15  2  0
  2 16  1  0
 16 17  1  0
 17 18  1  0
 18 19  1  0
 19 20  1  0
 20 21  2  0
 21 22  1  0
 22 23  2  0
 23 24  1  0
 24 25  2  0
 25 26  1  0
 26 27  1  0
 27 28  1  0
 28 29  2  0
 29 30  1  0
 30 31  2  0
 31 32  1  0
 32 33  1  0
 32 34  2  0
 23 35  1  0
 35 36  2  0
 35 37  1  0
 19 38  1  0
 38 39  1  0
  9  4  1  0
 15 10  1  0
 39 16  1  0
 37 20  1  0
 26 22  1  0
 34 28  1  0
  3 40  1  0
  5 41  1  0
  6 42  1  0
  7 43  1  0
  8 44  1  0
  9 45  1  0
 11 46  1  0
 12 47  1  0
 13 48  1  0
 14 49  1  0
 15 50  1  0
 17 51  1  0
 17 52  1  0
 18 53  1  0
 18 54  1  0
 19 55  1  0
 27 56  1  0
 27 57  1  0
 29 58  1  0
 30 59  1  0
 31 60  1  0
 34 61  1  0
 37 62  1  0
 38 63  1  0
 38 64  1  0
 39 65  1  0
 39 66  1  0
M  END
>  <Binding energies>  (1) 
[-10.38]

>  <Ligand effiencies>  (1) 
[-0.2595]

>  <Interactions>  (1) 
["V-A:HIS:456:CE1:4069, V-A:TYR:484:CZ:4346, V-A:ARG:545:CZ:4926, H-A:TYR:484:OH:4347, V-B:GLU:543:CD:9880, V-B:ALA:541:CB:9864, V-A:ARG:545:CD:4923, V-A:ARG:545:CG:4922, V-A:TYR:539:CE1:4875, V-B:ASP:366:CG:8184, H-B:TYR:531:OH:9767, V-B:ASP:366:CB:8183, V-A:TYR:539:CZ:4877, V-B:TYR:539:CE2:9848, V-B:PRO:540:N:9856, V-B:PRO:540:CA:9855, V-B:MET:535:CE:9807, V-B:TYR:539:CA:9841, V-B:TYR:539:CD2:9846, V-B:TYR:539:C:9839, V-B:TYR:531:CZ:9766, V-A:LEU:475:CD1:4257, V-B:TYR:531:CE1:9764, V-B:TYR:539:CG:9844, V-B:TYR:539:CZ:9849, H-B:TYR:539:O:9840, H-B:TYR:539:N:9842"]

$$$$
RR28_Rahimova_2017
     RDKit          3D

 82 85  0  0  0  0  0  0  0  0999 V2000
  125.7040  131.7910   64.5370 C   0  0  0  0  0  0  0  0  0  0  0  0
  125.2070  132.1820   63.1500 C   0  0  0  0  0  0  0  0  0  0  0  0
  124.0090  132.3970   62.9720 O   0  0  0  0  0  0  0  0  0  0  0  0
  126.1420  132.2660   62.1820 N   0  0  0  0  0  0  0  0  0  0  0  0
  125.9540  132.6120   60.7550 C   0  0  0  0  0  0  0  0  0  0  0  0
  125.8730  134.1610   60.6360 C   0  0  0  0  0  0  0  0  0  0  0  0
  126.8270  134.9520   61.2950 C   0  0  0  0  0  0  0  0  0  0  0  0
  126.7830  136.3410   61.2150 C   0  0  0  0  0  0  0  0  0  0  0  0
  125.7830  136.9710   60.4740 C   0  0  0  0  0  0  0  0  0  0  0  0
  125.7480  138.4970   60.4010 C   0  0  0  0  0  0  0  0  0  0  0  0
  126.7030  138.9890   59.6080 F   0  0  0  0  0  0  0  0  0  0  0  0
  124.5700  138.9120   59.9320 F   0  0  0  0  0  0  0  0  0  0  0  0
  125.9230  138.9990   61.6240 F   0  0  0  0  0  0  0  0  0  0  0  0
  124.8260  136.1950   59.8140 C   0  0  0  0  0  0  0  0  0  0  0  0
  124.8710  134.8060   59.8960 C   0  0  0  0  0  0  0  0  0  0  0  0
  124.7020  131.8670   60.1680 C   0  0  0  0  0  0  0  0  0  0  0  0
  124.8720  130.3280   60.1180 C   0  0  0  0  0  0  0  0  0  0  0  0
  126.0580  130.0660   59.2860 N   0  0  0  0  0  0  0  0  0  0  0  0
  125.9230  129.8280   57.9530 C   0  0  0  0  0  0  0  0  0  0  0  0
  124.8210  129.6540   57.4270 O   0  0  0  0  0  0  0  0  0  0  0  0
  127.1960  129.6050   57.1000 C   0  0  0  0  0  0  0  0  0  0  0  0
  128.3970  128.9460   57.8330 C   0  0  0  0  0  0  0  0  0  0  0  0
  129.0780  127.7880   57.0670 C   0  0  0  0  0  0  0  0  0  0  0  0
  129.1880  127.8910   55.8420 O   0  0  0  0  0  0  0  0  0  0  0  0
  129.6550  126.7660   57.7600 N   0  0  0  0  0  0  0  0  0  0  0  0
  129.2980  126.4260   59.1430 C   0  0  0  0  0  0  0  0  0  0  0  0
  128.0690  125.4930   59.0640 C   0  0  0  0  0  0  0  0  0  0  0  0
  128.2810  124.2010   58.2010 C   0  0  0  0  0  0  0  0  0  0  0  0
  126.9630  123.6150   57.8740 N   0  0  0  0  0  0  0  0  0  0  0  0
  126.7030  122.4900   57.1790 C   0  0  0  0  0  0  0  0  0  0  0  0
  125.2310  122.1430   56.9820 C   0  0  0  0  0  0  0  0  0  0  0  0
  127.5700  121.7540   56.7080 O   0  0  0  0  0  0  0  0  0  0  0  0
  129.0490  123.1670   59.0870 C   0  0  0  0  0  0  0  0  0  0  0  0
  128.4010  122.3070   59.9900 C   0  0  0  0  0  0  0  0  0  0  0  0
  129.1230  121.4000   60.7600 C   0  0  0  0  0  0  0  0  0  0  0  0
  130.5130  121.3290   60.6490 C   0  0  0  0  0  0  0  0  0  0  0  0
  131.3200  120.3360   61.4850 C   0  0  0  0  0  0  0  0  0  0  0  0
  132.1910  120.9770   62.2670 F   0  0  0  0  0  0  0  0  0  0  0  0
  130.4870  119.6380   62.2570 F   0  0  0  0  0  0  0  0  0  0  0  0
  132.0040  119.4780   60.7250 F   0  0  0  0  0  0  0  0  0  0  0  0
  131.1730  122.1820   59.7630 C   0  0  0  0  0  0  0  0  0  0  0  0
  130.4480  123.0880   58.9950 C   0  0  0  0  0  0  0  0  0  0  0  0
  129.0560  124.5850   56.8820 C   0  0  0  0  0  0  0  0  0  0  0  0
  130.2100  125.6110   57.0430 C   0  0  0  0  0  0  0  0  0  0  0  0
  127.3080  130.5630   59.8800 C   0  0  0  0  0  0  0  0  0  0  0  0
  127.1960  132.1080   59.9480 C   0  0  0  0  0  0  0  0  0  0  0  0
  125.0819  132.2804   65.3009 H   0  0  0  0  0  0  0  0  0  0  0  0
  125.6390  130.6993   64.6555 H   0  0  0  0  0  0  0  0  0  0  0  0
  126.7497  132.1111   64.6555 H   0  0  0  0  0  0  0  0  0  0  0  0
  127.0920  132.0460   62.4420 H   0  0  0  0  0  0  0  0  0  0  0  0
  127.6205  134.4675   61.8829 H   0  0  0  0  0  0  0  0  0  0  0  0
  127.5397  136.9442   61.7381 H   0  0  0  0  0  0  0  0  0  0  0  0
  124.0341  136.6838   59.2274 H   0  0  0  0  0  0  0  0  0  0  0  0
  124.1109  134.2065   59.3737 H   0  0  0  0  0  0  0  0  0  0  0  0
  123.8300  132.1016   60.7961 H   0  0  0  0  0  0  0  0  0  0  0  0
  124.5725  132.2141   59.1323 H   0  0  0  0  0  0  0  0  0  0  0  0
  125.0233  129.9291   61.1319 H   0  0  0  0  0  0  0  0  0  0  0  0
  123.9777  129.8421   59.7007 H   0  0  0  0  0  0  0  0  0  0  0  0
  126.9243  128.9603   56.2512 H   0  0  0  0  0  0  0  0  0  0  0  0
  127.5391  130.6088   56.8092 H   0  0  0  0  0  0  0  0  0  0  0  0
  129.1527  129.7240   58.0165 H   0  0  0  0  0  0  0  0  0  0  0  0
  127.9889  128.5054   58.7546 H   0  0  0  0  0  0  0  0  0  0  0  0
  130.1354  125.9100   59.6354 H   0  0  0  0  0  0  0  0  0  0  0  0
  129.0736  127.3296   59.7288 H   0  0  0  0  0  0  0  0  0  0  0  0
  127.8080  125.1829   60.0866 H   0  0  0  0  0  0  0  0  0  0  0  0
  127.2729  126.0693   58.5698 H   0  0  0  0  0  0  0  0  0  0  0  0
  126.1700  124.1560   58.1850 H   0  0  0  0  0  0  0  0  0  0  0  0
  124.7467  122.0288   57.9630 H   0  0  0  0  0  0  0  0  0  0  0  0
  124.7362  122.9491   56.4204 H   0  0  0  0  0  0  0  0  0  0  0  0
  125.1484  121.2008   56.4204 H   0  0  0  0  0  0  0  0  0  0  0  0
  127.3064  122.3514   60.0897 H   0  0  0  0  0  0  0  0  0  0  0  0
  128.5956  120.7353   61.4600 H   0  0  0  0  0  0  0  0  0  0  0  0
  132.2683  122.1380   59.6717 H   0  0  0  0  0  0  0  0  0  0  0  0
  130.9813  123.7555   58.3021 H   0  0  0  0  0  0  0  0  0  0  0  0
  129.4827  123.6622   56.4620 H   0  0  0  0  0  0  0  0  0  0  0  0
  128.3135  125.0741   56.2344 H   0  0  0  0  0  0  0  0  0  0  0  0
  131.0336  125.1667   57.6211 H   0  0  0  0  0  0  0  0  0  0  0  0
  130.6109  125.9104   56.0634 H   0  0  0  0  0  0  0  0  0  0  0  0
  127.4364  130.1489   60.8909 H   0  0  0  0  0  0  0  0  0  0  0  0
  128.1765  130.2590   59.2773 H   0  0  0  0  0  0  0  0  0  0  0  0
  128.1047  132.5016   60.4269 H   0  0  0  0  0  0  0  0  0  0  0  0
  127.0771  132.4681   58.9155 H   0  0  0  0  0  0  0  0  0  0  0  0
  1  2  1  0
  2  3  2  0
  2  4  1  0
  4  5  1  0
  5  6  1  0
  6  7  2  0
  7  8  1  0
  8  9  2  0
  9 10  1  0
 10 11  1  0
 10 12  1  0
 10 13  1  0
  9 14  1  0
 14 15  2  0
  5 16  1  0
 16 17  1  0
 17 18  1  0
 18 19  1  0
 19 20  2  0
 19 21  1  0
 21 22  1  0
 22 23  1  0
 23 24  2  0
 23 25  1  0
 25 26  1  0
 26 27  1  0
 27 28  1  0
 28 29  1  0
 29 30  1  0
 30 31  1  0
 30 32  2  0
 28 33  1  0
 33 34  2  0
 34 35  1  0
 35 36  2  0
 36 37  1  0
 37 38  1  0
 37 39  1  0
 37 40  1  0
 36 41  1  0
 41 42  2  0
 28 43  1  0
 43 44  1  0
 18 45  1  0
 45 46  1  0
 46  5  1  0
 15  6  1  0
 44 25  1  0
 42 33  1  0
  1 47  1  0
  1 48  1  0
  1 49  1  0
  4 50  1  0
  7 51  1  0
  8 52  1  0
 14 53  1  0
 15 54  1  0
 16 55  1  0
 16 56  1  0
 17 57  1  0
 17 58  1  0
 21 59  1  0
 21 60  1  0
 22 61  1  0
 22 62  1  0
 26 63  1  0
 26 64  1  0
 27 65  1  0
 27 66  1  0
 29 67  1  0
 31 68  1  0
 31 69  1  0
 31 70  1  0
 34 71  1  0
 35 72  1  0
 41 73  1  0
 42 74  1  0
 43 75  1  0
 43 76  1  0
 44 77  1  0
 44 78  1  0
 45 79  1  0
 45 80  1  0
 46 81  1  0
 46 82  1  0
M  END
>  <Binding energies>  (1) 
[-9.56]

>  <Ligand effiencies>  (1) 
[-0.1991666666666667]

>  <Interactions>  (1) 
["V-B:ALA:541:CB:9864, V-A:TYR:539:CD1:4873, H-A:TYR:539:OH:4878, V-A:TYR:539:CE1:4875, V-B:ILE:369:CG2:8208, V-B:ASP:366:CG:8184, V-B:LEU:475:CD1:9229, V-A:ALA:541:CB:4892, H-B:TYR:531:OH:9767, V-B:ASP:366:CB:8183, V-A:TYR:539:CG:4872, V-B:PRO:540:CB:9857, V-B:TYR:539:CE2:9848, V-B:PRO:540:CD:9859, V-B:PRO:540:N:9856, V-B:PRO:540:CA:9855, V-B:MET:535:CE:9807, V-B:TYR:539:CD2:9846, V-A:PRO:482:CB:4325, V-B:TYR:539:C:9839, V-B:LEU:363:CD1:8160, V-A:LEU:475:CD1:4257, V-B:ALA:541:CA:9862, V-B:PRO:540:C:9853, V-B:TYR:539:CZ:9849, H-A:TYR:531:OH:4795, V-B:GLY:454:CA:9020, H-B:TYR:539:N:9842, V-B:PRO:482:CB:9297, V-A:TYR:539:CB:4871, V-B:PRO:482:CG:9298, V-B:LEU:373:CD1:8251, V-B:SER:385:CB:8380, V-A:ILE:343:CG2:2991, V-B:HIS:383:CD2:8363, V-A:VAL:344:CG1:3000, H-B:GLY:454:N:9021, V-B:PRO:540:CG:9858"]

$$$$
RR29_Rahimova_2017
     RDKit          3D

 35 36  0  0  0  0  0  0  0  0999 V2000
  126.3990  126.5290   59.5780 C   0  0  0  0  0  0  0  0  0  0  0  0
  126.7340  126.3160   61.0470 C   0  0  0  0  0  0  0  0  0  0  0  0
  126.5360  124.8540   61.5050 C   0  0  0  0  0  0  0  0  0  0  0  0
  127.7160  123.9570   61.0760 C   0  0  0  0  0  0  0  0  0  0  0  0
  127.4830  123.3040   59.7220 C   0  0  0  0  0  0  0  0  0  0  0  0
  128.5670  122.7570   59.0080 C   0  0  0  0  0  0  0  0  0  0  0  0
  128.3740  122.1500   57.7590 C   0  0  0  0  0  0  0  0  0  0  0  0
  127.0810  122.1210   57.2520 C   0  0  0  0  0  0  0  0  0  0  0  0
  126.0250  122.6530   57.9380 C   0  0  0  0  0  0  0  0  0  0  0  0
  126.1850  123.2510   59.1830 C   0  0  0  0  0  0  0  0  0  0  0  0
  124.8830  122.4560   57.2280 O   0  0  0  0  0  0  0  0  0  0  0  0
  125.2930  121.9740   55.9760 C   0  0  0  0  0  0  0  0  0  0  0  0
  126.6320  121.5740   56.0910 O   0  0  0  0  0  0  0  0  0  0  0  0
  127.1220  127.3210   61.7400 N   0  0  0  0  0  0  0  0  0  0  0  0
  127.3430  127.1490   63.0890 N   0  0  0  0  0  0  0  0  0  0  0  0
  128.5550  127.2090   63.6660 C   0  0  0  0  0  0  0  0  0  0  0  0
  129.6940  127.4590   63.0200 N   0  0  0  0  0  0  0  0  0  0  0  0
  128.6260  127.0060   64.9730 N   0  0  0  0  0  0  0  0  0  0  0  0
  125.4734  127.1175   59.4946 H   0  0  0  0  0  0  0  0  0  0  0  0
  127.2226  127.0697   59.0888 H   0  0  0  0  0  0  0  0  0  0  0  0
  126.2588  125.5538   59.0888 H   0  0  0  0  0  0  0  0  0  0  0  0
  126.4519  124.8322   62.6016 H   0  0  0  0  0  0  0  0  0  0  0  0
  125.6214  124.4672   61.0318 H   0  0  0  0  0  0  0  0  0  0  0  0
  128.6259  124.5725   61.0199 H   0  0  0  0  0  0  0  0  0  0  0  0
  127.8181  123.1557   61.8227 H   0  0  0  0  0  0  0  0  0  0  0  0
  129.5790  122.8068   59.4363 H   0  0  0  0  0  0  0  0  0  0  0  0
  129.2153  121.7129   57.2012 H   0  0  0  0  0  0  0  0  0  0  0  0
  125.3255  123.6685   59.7280 H   0  0  0  0  0  0  0  0  0  0  0  0
  124.6697  121.1166   55.6822 H   0  0  0  0  0  0  0  0  0  0  0  0
  125.1889  122.7558   55.2092 H   0  0  0  0  0  0  0  0  0  0  0  0
  126.5350  126.9390   63.6580 H   0  0  0  0  0  0  0  0  0  0  0  0
  130.5010  127.7970   63.5250 H   0  0  0  0  0  0  0  0  0  0  0  0
  129.7410  127.3190   62.0210 H   0  0  0  0  0  0  0  0  0  0  0  0
  127.8850  126.5110   65.4480 H   0  0  0  0  0  0  0  0  0  0  0  0
  129.4250  127.3410   65.4910 H   0  0  0  0  0  0  0  0  0  0  0  0
  1  2  1  0
  2  3  1  0
  3  4  1  0
  4  5  1  0
  5  6  2  0
  6  7  1  0
  7  8  2  0
  8  9  1  0
  9 10  2  0
  9 11  1  0
 11 12  1  0
 12 13  1  0
  2 14  2  0
 14 15  1  0
 15 16  1  0
 16 17  1  0
 16 18  2  0
 10  5  1  0
 13  8  1  0
  1 19  1  0
  1 20  1  0
  1 21  1  0
  3 22  1  0
  3 23  1  0
  4 24  1  0
  4 25  1  0
  6 26  1  0
  7 27  1  0
 10 28  1  0
 12 29  1  0
 12 30  1  0
 15 31  1  0
 17 32  1  0
 17 33  1  0
 18 34  1  0
 18 35  1  0
M  CHG  1  18   1
M  END
>  <Binding energies>  (1) 
[-7.67]

>  <Ligand effiencies>  (1) 
[-0.3334782608695652]

>  <Interactions>  (1) 
["V-B:GLU:543:CD:9880, H-B:GLU:543:OE1:9881, H-B:GLU:543:OE2:9882, H-A:GLU:543:OE2:4910, V-B:ASP:366:CG:8184, V-A:GLU:543:CD:4908, H-A:GLU:543:OE1:4909, V-B:PRO:540:CB:9857, V-B:TYR:539:CE2:9848, V-B:PRO:540:CD:9859, V-B:PRO:540:N:9856, V-B:PRO:540:CA:9855, V-B:MET:535:CE:9807, V-B:TYR:539:CD2:9846, V-B:TYR:539:C:9839, V-B:LEU:363:CD1:8160, V-B:TYR:539:CG:9844, V-B:TYR:539:CZ:9849, V-B:ILE:538:CG2:9835, H-B:TYR:539:N:9842"]

$$$$
RR29_Rahimova_2017-again1
     RDKit          3D

 34 35  0  0  0  0  0  0  0  0999 V2000
  130.0980  121.3300   62.1540 C   0  0  0  0  0  0  0  0  0  0  0  0
  129.1460  122.3330   61.5200 C   0  0  0  0  0  0  0  0  0  0  0  0
  129.8570  123.3910   60.6540 C   0  0  0  0  0  0  0  0  0  0  0  0
  130.0000  122.9210   59.1910 C   0  0  0  0  0  0  0  0  0  0  0  0
  128.7050  123.0710   58.4080 C   0  0  0  0  0  0  0  0  0  0  0  0
  127.9430  124.2500   58.5300 C   0  0  0  0  0  0  0  0  0  0  0  0
  126.7470  124.4110   57.8170 C   0  0  0  0  0  0  0  0  0  0  0  0
  126.3410  123.3640   56.9970 C   0  0  0  0  0  0  0  0  0  0  0  0
  127.0750  122.2170   56.8770 C   0  0  0  0  0  0  0  0  0  0  0  0
  128.2690  122.0350   57.5640 C   0  0  0  0  0  0  0  0  0  0  0  0
  126.4650  121.3850   55.9920 O   0  0  0  0  0  0  0  0  0  0  0  0
  125.2140  121.9610   55.7300 C   0  0  0  0  0  0  0  0  0  0  0  0
  125.2490  123.2860   56.1920 O   0  0  0  0  0  0  0  0  0  0  0  0
  127.8850  122.2390   61.7570 N   0  0  0  0  0  0  0  0  0  0  0  0
  127.1130  123.1290   61.2210 N   0  0  0  0  0  0  0  0  0  0  0  0
  125.8630  123.0700   61.5010 C   0  0  0  0  0  0  0  0  0  0  0  0
  125.1950  122.1330   62.3380 N   0  0  0  0  0  0  0  0  0  0  0  0
  124.9480  124.0030   60.9670 N   0  0  0  0  0  0  0  0  0  0  0  0
  130.0299  121.4017   63.2495 H   0  0  0  0  0  0  0  0  0  0  0  0
  129.8248  120.3132   61.8354 H   0  0  0  0  0  0  0  0  0  0  0  0
  131.1277  121.5498   61.8354 H   0  0  0  0  0  0  0  0  0  0  0  0
  129.2716  124.3221   60.6747 H   0  0  0  0  0  0  0  0  0  0  0  0
  130.8646  123.5528   61.0646 H   0  0  0  0  0  0  0  0  0  0  0  0
  130.7811  123.5211   58.7013 H   0  0  0  0  0  0  0  0  0  0  0  0
  130.2635  121.8531   59.2046 H   0  0  0  0  0  0  0  0  0  0  0  0
  128.2915  125.0550   59.1938 H   0  0  0  0  0  0  0  0  0  0  0  0
  126.1515  125.3318   57.9030 H   0  0  0  0  0  0  0  0  0  0  0  0
  128.8540  121.1103   57.4510 H   0  0  0  0  0  0  0  0  0  0  0  0
  125.0140  121.9465   54.6484 H   0  0  0  0  0  0  0  0  0  0  0  0
  124.4167  121.3973   56.2365 H   0  0  0  0  0  0  0  0  0  0  0  0
  125.6880  121.3850   62.8050 H   0  0  0  0  0  0  0  0  0  0  0  0
  124.2000  122.1620   62.4980 H   0  0  0  0  0  0  0  0  0  0  0  0
  125.2390  124.7430   60.3450 H   0  0  0  0  0  0  0  0  0  0  0  0
  123.9610  123.9720   61.1710 H   0  0  0  0  0  0  0  0  0  0  0  0
  1  2  1  0
  2  3  1  0
  3  4  1  0
  4  5  1  0
  5  6  2  0
  6  7  1  0
  7  8  2  0
  8  9  1  0
  9 10  2  0
  9 11  1  0
 11 12  1  0
 12 13  1  0
  2 14  2  0
 14 15  1  0
 15 16  2  0
 16 17  1  0
 16 18  1  0
 10  5  1  0
 13  8  1  0
  1 19  1  0
  1 20  1  0
  1 21  1  0
  3 22  1  0
  3 23  1  0
  4 24  1  0
  4 25  1  0
  6 26  1  0
  7 27  1  0
 10 28  1  0
 12 29  1  0
 12 30  1  0
 17 31  1  0
 17 32  1  0
 18 33  1  0
 18 34  1  0
M  END
>  <Binding energies>  (1) 
[-6.86]

>  <Ligand effiencies>  (1) 
[-0.3118181818181818]

>  <Interactions>  (1) 
["H-B:ALA:541:N:9863, V-B:GLU:543:CD:9880, H-B:ALA:541:O:9861, H-B:GLU:543:OE1:9881, V-B:ALA:541:CB:9864, V-B:ASP:366:CG:8184, H-B:TYR:531:OH:9767, V-B:PRO:540:CB:9857, V-B:TYR:539:CE2:9848, V-B:PRO:540:CD:9859, V-B:PRO:540:N:9856, V-B:PRO:540:CA:9855, V-B:MET:535:CE:9807, V-B:TYR:539:CA:9841, H-B:ASP:366:OD1:8185, V-B:TYR:539:CD2:9846, V-B:TYR:539:C:9839, V-B:LEU:363:CD1:8160, V-B:ALA:541:CA:9862, V-B:PRO:540:C:9853, V-B:TYR:539:CG:9844, V-B:TYR:539:CZ:9849, V-B:TYR:539:CE1:9847, V-B:TYR:539:CD1:9845, V-B:ILE:538:CG2:9835, H-B:TYR:539:N:9842, V-B:ILE:538:CA:9832, V-B:ASN:362:CB:8147, V-B:ALA:541:C:9860"]

$$$$
RR2_Rahimova_2017
     RDKit          3D

 76 80  0  0  0  0  0  0  0  0999 V2000
  133.6720  122.4540   61.0170 C   0  0  0  0  0  0  0  0  0  0  0  0
  132.6930  122.4360   59.9850 O   0  0  0  0  0  0  0  0  0  0  0  0
  132.4770  123.5800   59.2400 C   0  0  0  0  0  0  0  0  0  0  0  0
  133.0290  123.8160   57.9730 C   0  0  0  0  0  0  0  0  0  0  0  0
  132.7580  125.0020   57.2970 C   0  0  0  0  0  0  0  0  0  0  0  0
  131.9340  125.9800   57.8700 C   0  0  0  0  0  0  0  0  0  0  0  0
  131.6600  127.2670   57.1160 C   0  0  0  0  0  0  0  0  0  0  0  0
  131.0790  127.2380   56.0260 O   0  0  0  0  0  0  0  0  0  0  0  0
  132.0990  128.4030   57.7070 N   0  0  0  0  0  0  0  0  0  0  0  0
  131.9560  129.6010   57.0160 N   0  0  0  0  0  0  0  0  0  0  0  0
  132.6910  130.6580   57.4140 C   0  0  0  0  0  0  0  0  0  0  0  0
  133.3520  130.7060   58.4550 O   0  0  0  0  0  0  0  0  0  0  0  0
  132.6930  131.8590   56.4580 C   0  0  0  0  0  0  0  0  0  0  0  0
  131.0560  132.6270   56.1760 S   0  0  0  0  0  0  0  0  0  0  0  0
  130.0400  131.1880   56.0410 C   0  0  0  0  0  0  0  0  0  0  0  0
  129.7470  130.6270   54.8950 N   0  0  0  0  0  0  0  0  0  0  0  0
  128.8790  129.5750   55.1550 N   0  0  0  0  0  0  0  0  0  0  0  0
  128.7040  129.5210   56.4550 C   0  0  0  0  0  0  0  0  0  0  0  0
  127.8420  128.5020   57.1260 C   0  0  0  0  0  0  0  0  0  0  0  0
  126.5470  128.8420   57.5260 C   0  0  0  0  0  0  0  0  0  0  0  0
  125.7390  127.9020   58.1580 C   0  0  0  0  0  0  0  0  0  0  0  0
  126.2140  126.6050   58.3820 C   0  0  0  0  0  0  0  0  0  0  0  0
  125.4480  125.6200   59.0240 N   0  0  0  0  0  0  0  0  0  0  0  0
  125.4000  123.9070   58.5510 S   0  0  0  0  0  0  0  0  0  0  0  0
  125.6450  123.8800   57.1050 O   0  0  0  0  0  0  0  0  0  0  0  0
  124.1850  123.3110   59.1200 O   0  0  0  0  0  0  0  0  0  0  0  0
  126.8320  123.1660   59.3300 C   0  0  0  0  0  0  0  0  0  0  0  0
  126.9160  123.0690   60.7210 C   0  0  0  0  0  0  0  0  0  0  0  0
  128.0450  122.5040   61.3080 C   0  0  0  0  0  0  0  0  0  0  0  0
  129.0850  122.0300   60.5060 C   0  0  0  0  0  0  0  0  0  0  0  0
  130.3220  121.4270   61.1480 C   0  0  0  0  0  0  0  0  0  0  0  0
  129.0010  122.1310   59.1150 C   0  0  0  0  0  0  0  0  0  0  0  0
  127.8740  122.6980   58.5270 C   0  0  0  0  0  0  0  0  0  0  0  0
  127.5050  126.2650   57.9790 C   0  0  0  0  0  0  0  0  0  0  0  0
  128.3160  127.2070   57.3520 C   0  0  0  0  0  0  0  0  0  0  0  0
  129.4160  130.5290   57.0840 N   0  0  0  0  0  0  0  0  0  0  0  0
  129.4610  130.8440   58.4580 C   0  0  0  0  0  0  0  0  0  0  0  0
  128.9130  132.0430   58.9170 C   0  0  0  0  0  0  0  0  0  0  0  0
  128.9570  132.3450   60.2750 C   0  0  0  0  0  0  0  0  0  0  0  0
  129.5450  131.4610   61.1810 C   0  0  0  0  0  0  0  0  0  0  0  0
  129.5420  131.8480   62.5070 O   0  0  0  0  0  0  0  0  0  0  0  0
  128.5590  131.3100   63.3860 C   0  0  0  0  0  0  0  0  0  0  0  0
  130.0940  130.2570   60.7100 C   0  0  0  0  0  0  0  0  0  0  0  0
  130.0510  129.9490   59.3540 C   0  0  0  0  0  0  0  0  0  0  0  0
  131.3800  125.7350   59.1360 C   0  0  0  0  0  0  0  0  0  0  0  0
  131.6510  124.5470   59.8090 C   0  0  0  0  0  0  0  0  0  0  0  0
  133.1721  122.4448   61.9968 H   0  0  0  0  0  0  0  0  0  0  0  0
  134.3169  121.5676   60.9261 H   0  0  0  0  0  0  0  0  0  0  0  0
  134.2839  123.3635   60.9261 H   0  0  0  0  0  0  0  0  0  0  0  0
  133.6800  123.0595   57.5106 H   0  0  0  0  0  0  0  0  0  0  0  0
  133.1953  125.1735   56.3023 H   0  0  0  0  0  0  0  0  0  0  0  0
  132.9190  128.4070   58.2980 H   0  0  0  0  0  0  0  0  0  0  0  0
  131.6240  129.4780   56.0690 H   0  0  0  0  0  0  0  0  0  0  0  0
  133.3622  132.6259   56.8752 H   0  0  0  0  0  0  0  0  0  0  0  0
  133.0238  131.4741   55.4821 H   0  0  0  0  0  0  0  0  0  0  0  0
  126.1649  129.8567   57.3405 H   0  0  0  0  0  0  0  0  0  0  0  0
  124.7250  128.1789   58.4821 H   0  0  0  0  0  0  0  0  0  0  0  0
  124.9040  125.8980   59.8280 H   0  0  0  0  0  0  0  0  0  0  0  0
  126.0928  123.4378   61.3505 H   0  0  0  0  0  0  0  0  0  0  0  0
  128.1176  122.4311   62.4032 H   0  0  0  0  0  0  0  0  0  0  0  0
  130.2266  121.4735   62.2429 H   0  0  0  0  0  0  0  0  0  0  0  0
  130.4242  120.3780   60.8331 H   0  0  0  0  0  0  0  0  0  0  0  0
  131.2113  121.9927   60.8331 H   0  0  0  0  0  0  0  0  0  0  0  0
  129.8245  121.7629   58.4854 H   0  0  0  0  0  0  0  0  0  0  0  0
  127.8044  122.7772   57.4321 H   0  0  0  0  0  0  0  0  0  0  0  0
  127.8843  125.2480   58.1573 H   0  0  0  0  0  0  0  0  0  0  0  0
  129.3322  126.9313   57.0338 H   0  0  0  0  0  0  0  0  0  0  0  0
  128.4488  132.7455   58.2092 H   0  0  0  0  0  0  0  0  0  0  0  0
  128.5243  133.2891   60.6376 H   0  0  0  0  0  0  0  0  0  0  0  0
  128.8674  131.4788   64.4283 H   0  0  0  0  0  0  0  0  0  0  0  0
  127.5940  131.8057   63.2043 H   0  0  0  0  0  0  0  0  0  0  0  0
  128.4564  130.2300   63.2043 H   0  0  0  0  0  0  0  0  0  0  0  0
  130.5601  129.5544   61.4165 H   0  0  0  0  0  0  0  0  0  0  0  0
  130.4800  129.0043   58.9886 H   0  0  0  0  0  0  0  0  0  0  0  0
  130.7262  126.4880   59.6003 H   0  0  0  0  0  0  0  0  0  0  0  0
  131.2084  124.3699   60.8003 H   0  0  0  0  0  0  0  0  0  0  0  0
  1  2  1  0
  2  3  1  0
  3  4  2  0
  4  5  1  0
  5  6  2  0
  6  7  1  0
  7  8  2  0
  7  9  1  0
  9 10  1  0
 10 11  1  0
 11 12  2  0
 11 13  1  0
 13 14  1  0
 14 15  1  0
 15 16  2  0
 16 17  1  0
 17 18  2  0
 18 19  1  0
 19 20  2  0
 20 21  1  0
 21 22  2  0
 22 23  1  0
 23 24  1  0
 24 25  2  0
 24 26  2  0
 24 27  1  0
 27 28  2  0
 28 29  1  0
 29 30  2  0
 30 31  1  0
 30 32  1  0
 32 33  2  0
 22 34  1  0
 34 35  2  0
 18 36  1  0
 36 37  1  0
 37 38  2  0
 38 39  1  0
 39 40  2  0
 40 41  1  0
 41 42  1  0
 40 43  1  0
 43 44  2  0
  6 45  1  0
 45 46  2  0
 46  3  1  0
 36 15  1  0
 44 37  1  0
 35 19  1  0
 33 27  1  0
  1 47  1  0
  1 48  1  0
  1 49  1  0
  4 50  1  0
  5 51  1  0
  9 52  1  0
 10 53  1  0
 13 54  1  0
 13 55  1  0
 20 56  1  0
 21 57  1  0
 23 58  1  0
 28 59  1  0
 29 60  1  0
 31 61  1  0
 31 62  1  0
 31 63  1  0
 32 64  1  0
 33 65  1  0
 34 66  1  0
 35 67  1  0
 38 68  1  0
 39 69  1  0
 42 70  1  0
 42 71  1  0
 42 72  1  0
 43 73  1  0
 44 74  1  0
 45 75  1  0
 46 76  1  0
M  END
>  <Binding energies>  (1) 
[-10.87]

>  <Ligand effiencies>  (1) 
[-0.22183673469387755]

>  <Interactions>  (1) 
["V-A:ASP:366:CG:3212, V-B:ALA:541:CB:9864, V-A:TYR:539:CD1:4873, V-A:PRO:540:CB:4885, V-A:LEU:363:CD1:3188, H-A:ASP:366:OD2:3214, V-A:PRO:540:N:4884, V-A:TYR:539:CE1:4875, V-A:PRO:540:CA:4883, V-B:ASP:366:CG:8184, V-A:ALA:541:CB:4892, H-B:TYR:531:OH:9767, V-A:TYR:531:CZ:4794, V-B:ASP:366:CB:8183, H-A:ALA:541:N:4891, V-A:TYR:539:C:4867, V-A:PRO:540:CD:4887, V-A:GLU:543:CD:4908, V-A:GLU:543:CG:4907, V-B:PRO:540:CB:9857, V-B:TYR:539:CE2:9848, V-B:PRO:540:N:9856, V-B:PRO:540:CA:9855, H-B:ASP:366:OD1:8185, V-B:TYR:539:CD2:9846, V-B:TYR:539:C:9839, V-B:TYR:531:CZ:9766, V-A:ILE:369:CG2:3236, V-A:ASP:366:CB:3211, V-B:PRO:540:C:9853, V-A:ILE:369:CD1:3238, V-B:TYR:539:CZ:9849, H-A:TYR:531:OH:4795, H-A:TYR:539:N:4870, V-A:ASP:366:CA:3209, V-A:ASP:366:C:3207, H-B:ASP:366:OD2:8186, V-A:LEU:363:CG:3187"]

$$$$
RR30_Rahimova_2017
     RDKit          3D

 29 30  0  0  0  0  0  0  0  0999 V2000
  126.3700  138.3850   59.6370 C   0  0  0  0  0  0  0  0  0  0  0  0
  125.4050  137.2340   59.9550 C   0  0  0  0  0  0  0  0  0  0  0  0
  126.1210  136.0250   60.5160 C   0  0  0  0  0  0  0  0  0  0  0  0
  127.2110  135.9930   61.2420 N   0  0  0  0  0  0  0  0  0  0  0  0
  127.4630  134.6460   61.4930 N   0  0  0  0  0  0  0  0  0  0  0  0
  126.5110  133.9810   60.8900 C   0  0  0  0  0  0  0  0  0  0  0  0
  126.2770  132.2330   60.8530 S   0  0  0  0  0  0  0  0  0  0  0  0
  127.9310  131.6850   61.3830 C   0  0  0  0  0  0  0  0  0  0  0  0
  128.9940  131.9330   60.3090 C   0  0  0  0  0  0  0  0  0  0  0  0
  130.1340  132.2520   60.6520 O   0  0  0  0  0  0  0  0  0  0  0  0
  128.5790  131.8120   59.0280 N   0  0  0  0  0  0  0  0  0  0  0  0
  129.3530  131.9900   57.8910 C   0  0  0  0  0  0  0  0  0  0  0  0
  129.0410  132.6300   56.7860 N   0  0  0  0  0  0  0  0  0  0  0  0
  130.0690  132.6030   55.8520 N   0  0  0  0  0  0  0  0  0  0  0  0
  131.1300  131.9490   56.2650 C   0  0  0  0  0  0  0  0  0  0  0  0
  132.3760  131.7790   55.4260 C   0  0  0  0  0  0  0  0  0  0  0  0
  130.9470  131.3030   57.8720 S   0  0  0  0  0  0  0  0  0  0  0  0
  125.6240  134.7890   60.2550 O   0  0  0  0  0  0  0  0  0  0  0  0
  126.7385  138.8245   60.5757 H   0  0  0  0  0  0  0  0  0  0  0  0
  127.2197  138.0005   59.0538 H   0  0  0  0  0  0  0  0  0  0  0  0
  125.8432  139.1546   59.0538 H   0  0  0  0  0  0  0  0  0  0  0  0
  124.6683  137.5834   60.6934 H   0  0  0  0  0  0  0  0  0  0  0  0
  124.9189  136.9322   59.0155 H   0  0  0  0  0  0  0  0  0  0  0  0
  128.2118  132.2353   62.2931 H   0  0  0  0  0  0  0  0  0  0  0  0
  127.8846  130.6018   61.5686 H   0  0  0  0  0  0  0  0  0  0  0  0
  127.6100  131.5740   58.8700 H   0  0  0  0  0  0  0  0  0  0  0  0
  133.2485  131.6600   56.0852 H   0  0  0  0  0  0  0  0  0  0  0  0
  132.2717  130.8868   54.7911 H   0  0  0  0  0  0  0  0  0  0  0  0
  132.5145  132.6666   54.7911 H   0  0  0  0  0  0  0  0  0  0  0  0
  1  2  1  0
  2  3  1  0
  3  4  2  0
  4  5  1  0
  5  6  2  0
  6  7  1  0
  7  8  1  0
  8  9  1  0
  9 10  2  0
  9 11  1  0
 11 12  1  0
 12 13  2  0
 13 14  1  0
 14 15  2  0
 15 16  1  0
 15 17  1  0
  6 18  1  0
 18  3  1  0
 17 12  1  0
  1 19  1  0
  1 20  1  0
  1 21  1  0
  2 22  1  0
  2 23  1  0
  8 24  1  0
  8 25  1  0
 11 26  1  0
 16 27  1  0
 16 28  1  0
 16 29  1  0
M  END
>  <Binding energies>  (1) 
[-6.92]

>  <Ligand effiencies>  (1) 
[-0.3642105263157895]

>  <Interactions>  (1) 
["V-A:TYR:539:CD1:4873, V-A:PRO:540:CB:4885, V-A:ILE:538:CB:4862, V-A:ILE:538:CG2:4863, V-A:LEU:363:CD1:3188, V-A:PRO:540:N:4884, V-A:TYR:531:CE2:4793, V-A:TYR:539:CE1:4875, V-A:PRO:540:CA:4883, V-A:TYR:531:CZ:4794, H-A:ALA:541:N:4891, V-A:TYR:539:C:4867, V-A:PRO:540:CD:4887, H-A:TYR:539:N:4870, V-A:TYR:539:CB:4871, V-B:PRO:482:CG:9298, V-B:LEU:373:CD1:8251, V-B:SER:385:CB:8380, V-A:VAL:344:CG1:3000"]

$$$$
RR31_Rahimova_2017
     RDKit          3D

 44 45  0  0  0  0  0  0  0  0999 V2000
  124.7710  135.4250   60.2330 C   0  0  0  0  0  0  0  0  0  0  0  0
  125.0340  134.3260   61.2540 C   0  0  0  0  0  0  0  0  0  0  0  0
  123.9780  133.5120   61.6650 C   0  0  0  0  0  0  0  0  0  0  0  0
  124.1860  132.4960   62.5950 C   0  0  0  0  0  0  0  0  0  0  0  0
  125.4590  132.2580   63.1370 C   0  0  0  0  0  0  0  0  0  0  0  0
  125.6820  131.2500   64.0780 N   0  0  0  0  0  0  0  0  0  0  0  0
  124.8320  130.0460   64.1500 C   0  0  0  0  0  0  0  0  0  0  0  0
  124.9600  129.2620   65.4780 C   0  0  0  0  0  0  0  0  0  0  0  0
  126.3540  128.8940   65.7370 N   0  0  0  0  0  0  0  0  0  0  0  0
  126.5020  128.1190   66.9720 C   0  0  0  0  0  0  0  0  0  0  0  0
  127.8880  128.2880   67.6270 C   0  0  0  0  0  0  0  0  0  0  0  0
  128.8940  127.2300   67.1440 C   0  0  0  0  0  0  0  0  0  0  0  0
  128.6420  126.9040   65.6680 N   0  0  0  0  0  0  0  0  0  0  0  0
  127.1220  130.1350   65.8390 C   0  0  0  0  0  0  0  0  0  0  0  0
  127.0560  130.9310   64.5160 C   0  0  0  0  0  0  0  0  0  0  0  0
  126.5100  133.0890   62.7220 C   0  0  0  0  0  0  0  0  0  0  0  0
  126.3140  134.1140   61.7890 C   0  0  0  0  0  0  0  0  0  0  0  0
  127.4970  134.9850   61.3820 C   0  0  0  0  0  0  0  0  0  0  0  0
  124.5459  136.3658   60.7567 H   0  0  0  0  0  0  0  0  0  0  0  0
  125.6621  135.5605   59.6024 H   0  0  0  0  0  0  0  0  0  0  0  0
  123.9151  135.1425   59.6024 H   0  0  0  0  0  0  0  0  0  0  0  0
  122.9719  133.6740   61.2508 H   0  0  0  0  0  0  0  0  0  0  0  0
  123.3385  131.8696   62.9101 H   0  0  0  0  0  0  0  0  0  0  0  0
  123.7832  130.3557   64.0312 H   0  0  0  0  0  0  0  0  0  0  0  0
  125.1685  129.3712   63.3491 H   0  0  0  0  0  0  0  0  0  0  0  0
  124.5943  129.8903   66.3035 H   0  0  0  0  0  0  0  0  0  0  0  0
  124.3626  128.3416   65.4010 H   0  0  0  0  0  0  0  0  0  0  0  0
  125.7338  128.4488   67.6870 H   0  0  0  0  0  0  0  0  0  0  0  0
  126.3895  127.0568   66.7094 H   0  0  0  0  0  0  0  0  0  0  0  0
  128.2775  129.2862   67.3783 H   0  0  0  0  0  0  0  0  0  0  0  0
  127.7646  128.1643   68.7130 H   0  0  0  0  0  0  0  0  0  0  0  0
  129.9163  127.6185   67.2621 H   0  0  0  0  0  0  0  0  0  0  0  0
  128.7717  126.3151   67.7423 H   0  0  0  0  0  0  0  0  0  0  0  0
  129.4040  127.2500   65.1010 H   0  0  0  0  0  0  0  0  0  0  0  0
  127.7840  127.3350   65.3570 H   0  0  0  0  0  0  0  0  0  0  0  0
  128.5700  125.9040   65.5390 H   0  0  0  0  0  0  0  0  0  0  0  0
  126.7073  130.7501   66.6512 H   0  0  0  0  0  0  0  0  0  0  0  0
  128.1724  129.8837   66.0475 H   0  0  0  0  0  0  0  0  0  0  0  0
  127.6042  131.8749   64.6519 H   0  0  0  0  0  0  0  0  0  0  0  0
  127.4998  130.2935   63.7371 H   0  0  0  0  0  0  0  0  0  0  0  0
  127.5148  132.9311   63.1408 H   0  0  0  0  0  0  0  0  0  0  0  0
  128.0045  135.3587   62.2835 H   0  0  0  0  0  0  0  0  0  0  0  0
  128.2026  134.3892   60.7844 H   0  0  0  0  0  0  0  0  0  0  0  0
  127.1376  135.8357   60.7844 H   0  0  0  0  0  0  0  0  0  0  0  0
  1  2  1  0
  2  3  2  0
  3  4  1  0
  4  5  2  0
  5  6  1  0
  6  7  1  0
  7  8  1  0
  8  9  1  0
  9 10  1  0
 10 11  1  0
 11 12  1  0
 12 13  1  0
  9 14  1  0
 14 15  1  0
  5 16  1  0
 16 17  2  0
 17 18  1  0
 17  2  1  0
 15  6  1  0
  1 19  1  0
  1 20  1  0
  1 21  1  0
  3 22  1  0
  4 23  1  0
  7 24  1  0
  7 25  1  0
  8 26  1  0
  8 27  1  0
 10 28  1  0
 10 29  1  0
 11 30  1  0
 11 31  1  0
 12 32  1  0
 12 33  1  0
 13 34  1  0
 13 35  1  0
 13 36  1  0
 14 37  1  0
 14 38  1  0
 15 39  1  0
 15 40  1  0
 16 41  1  0
 18 42  1  0
 18 43  1  0
 18 44  1  0
M  CHG  1  13   1
M  END
>  <Binding energies>  (1) 
[-7.05]

>  <Ligand effiencies>  (1) 
[-0.3357142857142857]

>  <Interactions>  (1) 
["V-B:GLU:543:CD:9880, H-B:GLU:543:OE2:9882, V-A:TYR:539:CD1:4873, V-B:ILE:369:CG2:8208, V-B:LEU:475:CD1:9229, V-A:ALA:541:CB:4892, V-B:ILE:369:CD1:8210, V-B:ILE:369:CG1:8209, V-A:TYR:539:C:4867, V-A:GLU:543:CD:4908, V-A:ALA:541:CA:4890, H-A:GLU:543:OE1:4909, V-A:GLU:543:CG:4907, V-B:HIS:456:CE1:9041, V-B:TYR:484:CZ:9318, V-B:GLY:454:CA:9020, V-B:TYR:484:CE2:9317, V-B:ARG:545:CZ:9898, V-B:PRO:482:CB:9297, V-B:PRO:482:CG:9298, V-B:LEU:373:CD1:8251, V-B:SER:385:CB:8380, H-B:TYR:484:OH:9319"]

$$$$
RR32_Rahimova_2017
     RDKit          3D

 37 39  0  0  0  0  0  0  0  0999 V2000
  130.2680  131.4120   56.7110 C   0  0  0  0  0  0  0  0  0  0  0  0
  130.2080  131.5590   58.2280 C   0  0  0  0  0  0  0  0  0  0  0  0
  128.9940  131.9310   58.8070 C   0  0  0  0  0  0  0  0  0  0  0  0
  128.9010  132.0710   60.1890 C   0  0  0  0  0  0  0  0  0  0  0  0
  127.6960  132.4400   60.7600 N   0  0  0  0  0  0  0  0  0  0  0  0
  127.4920  133.8720   61.0410 C   0  0  0  0  0  0  0  0  0  0  0  0
  126.1980  134.1600   61.8400 C   0  0  0  0  0  0  0  0  0  0  0  0
  125.0330  133.6560   61.1140 N   0  0  0  0  0  0  0  0  0  0  0  0
  123.8110  133.9560   61.8520 C   0  0  0  0  0  0  0  0  0  0  0  0
  125.1890  132.2120   60.9560 C   0  0  0  0  0  0  0  0  0  0  0  0
  126.4690  131.8940   60.1480 C   0  0  0  0  0  0  0  0  0  0  0  0
  129.9560  131.8620   61.0190 N   0  0  0  0  0  0  0  0  0  0  0  0
  131.1540  131.5010   60.4830 C   0  0  0  0  0  0  0  0  0  0  0  0
  132.2370  131.2920   61.3720 C   0  0  0  0  0  0  0  0  0  0  0  0
  133.4840  130.9230   60.8810 C   0  0  0  0  0  0  0  0  0  0  0  0
  133.6820  130.7530   59.5160 C   0  0  0  0  0  0  0  0  0  0  0  0
  132.6390  130.9500   58.6160 C   0  0  0  0  0  0  0  0  0  0  0  0
  131.3440  131.3310   59.0730 C   0  0  0  0  0  0  0  0  0  0  0  0
  130.6722  130.4217   56.4543 H   0  0  0  0  0  0  0  0  0  0  0  0
  129.2560  131.5147   56.2923 H   0  0  0  0  0  0  0  0  0  0  0  0
  130.9191  132.1936   56.2923 H   0  0  0  0  0  0  0  0  0  0  0  0
  128.1134  132.1130   58.1735 H   0  0  0  0  0  0  0  0  0  0  0  0
  128.3505  134.2397   61.6222 H   0  0  0  0  0  0  0  0  0  0  0  0
  127.3979  134.3843   60.0721 H   0  0  0  0  0  0  0  0  0  0  0  0
  126.2580  133.6637   62.8199 H   0  0  0  0  0  0  0  0  0  0  0  0
  126.0941  135.2467   61.9749 H   0  0  0  0  0  0  0  0  0  0  0  0
  124.0134  133.9063   62.9321 H   0  0  0  0  0  0  0  0  0  0  0  0
  123.4632  134.9662   61.5902 H   0  0  0  0  0  0  0  0  0  0  0  0
  123.0349  133.2217   61.5902 H   0  0  0  0  0  0  0  0  0  0  0  0
  125.2615  131.7443   61.9490 H   0  0  0  0  0  0  0  0  0  0  0  0
  124.3173  131.8157   60.4147 H   0  0  0  0  0  0  0  0  0  0  0  0
  126.5724  130.8014   60.0733 H   0  0  0  0  0  0  0  0  0  0  0  0
  126.3580  132.3680   59.1616 H   0  0  0  0  0  0  0  0  0  0  0  0
  132.0906  131.4221   62.4544 H   0  0  0  0  0  0  0  0  0  0  0  0
  134.3201  130.7644   61.5779 H   0  0  0  0  0  0  0  0  0  0  0  0
  134.6742  130.4594   59.1428 H   0  0  0  0  0  0  0  0  0  0  0  0
  132.8162  130.8100   57.5394 H   0  0  0  0  0  0  0  0  0  0  0  0
  1  2  1  0
  2  3  2  0
  3  4  1  0
  4  5  1  0
  5  6  1  0
  6  7  1  0
  7  8  1  0
  8  9  1  0
  8 10  1  0
 10 11  1  0
  4 12  2  0
 12 13  1  0
 13 14  2  0
 14 15  1  0
 15 16  2  0
 16 17  1  0
 17 18  2  0
 18  2  1  0
 11  5  1  0
 18 13  1  0
  1 19  1  0
  1 20  1  0
  1 21  1  0
  3 22  1  0
  6 23  1  0
  6 24  1  0
  7 25  1  0
  7 26  1  0
  9 27  1  0
  9 28  1  0
  9 29  1  0
 10 30  1  0
 10 31  1  0
 11 32  1  0
 11 33  1  0
 14 34  1  0
 15 35  1  0
 16 36  1  0
 17 37  1  0
M  END
>  <Binding energies>  (1) 
[-6.66]

>  <Ligand effiencies>  (1) 
[-0.37]

>  <Interactions>  (1) 
["V-A:ASP:366:CG:3212, V-A:TYR:539:CD1:4873, V-A:PRO:540:CB:4885, V-A:PRO:540:N:4884, V-A:TYR:539:CE1:4875, V-A:PRO:540:CA:4883, V-B:ILE:369:CG2:8208, V-B:LEU:475:CD1:9229, V-A:ALA:541:CB:4892, V-B:ILE:369:CD1:8210, H-A:ALA:541:N:4891, V-B:ILE:369:CG1:8209, V-A:TYR:539:C:4867, V-A:GLU:543:CD:4908, V-A:ASP:366:CB:3211, V-A:PRO:540:C:4881, V-A:LEU:363:CA:3184, V-A:ASN:362:CB:3175, V-A:ASN:362:C:3171, V-A:LEU:363:CB:3186"]

$$$$
RR32_Rahimova_2017-again1
     RDKit          3D

 38 40  0  0  0  0  0  0  0  0999 V2000
  128.9990  122.7770   57.9880 C   0  0  0  0  0  0  0  0  0  0  0  0
  128.4800  122.7900   59.4190 C   0  0  0  0  0  0  0  0  0  0  0  0
  129.3410  122.5190   60.4830 C   0  0  0  0  0  0  0  0  0  0  0  0
  128.8620  122.5360   61.7970 C   0  0  0  0  0  0  0  0  0  0  0  0
  129.7050  122.2570   62.8780 N   0  0  0  0  0  0  0  0  0  0  0  0
  131.1670  122.4140   62.7440 C   0  0  0  0  0  0  0  0  0  0  0  0
  131.6390  123.8580   63.0330 C   0  0  0  0  0  0  0  0  0  0  0  0
  131.2630  124.2170   64.4840 N   0  0  0  0  0  0  0  0  0  0  0  0
  131.6960  125.6560   64.8220 C   0  0  0  0  0  0  0  0  0  0  0  0
  129.7390  124.0510   64.6550 C   0  0  0  0  0  0  0  0  0  0  0  0
  129.3550  122.6020   64.2720 C   0  0  0  0  0  0  0  0  0  0  0  0
  127.5520  122.7870   62.0700 N   0  0  0  0  0  0  0  0  0  0  0  0
  126.6890  123.0570   61.0540 C   0  0  0  0  0  0  0  0  0  0  0  0
  125.3380  123.3290   61.3760 C   0  0  0  0  0  0  0  0  0  0  0  0
  124.4210  123.6130   60.3680 C   0  0  0  0  0  0  0  0  0  0  0  0
  124.8190  123.6330   59.0360 C   0  0  0  0  0  0  0  0  0  0  0  0
  126.1410  123.3680   58.6870 C   0  0  0  0  0  0  0  0  0  0  0  0
  127.1070  123.0740   59.6890 C   0  0  0  0  0  0  0  0  0  0  0  0
  130.0986  122.7495   57.9970 H   0  0  0  0  0  0  0  0  0  0  0  0
  128.6142  121.8882   57.4665 H   0  0  0  0  0  0  0  0  0  0  0  0
  128.6592  123.6839   57.4665 H   0  0  0  0  0  0  0  0  0  0  0  0
  130.3994  122.2914   60.2879 H   0  0  0  0  0  0  0  0  0  0  0  0
  131.6609  121.7334   63.4531 H   0  0  0  0  0  0  0  0  0  0  0  0
  131.4333  122.1785   61.7030 H   0  0  0  0  0  0  0  0  0  0  0  0
  132.7296  123.9239   62.9056 H   0  0  0  0  0  0  0  0  0  0  0  0
  131.1559  124.5580   62.3354 H   0  0  0  0  0  0  0  0  0  0  0  0
  131.7270  123.5690   65.1050 H   0  0  0  0  0  0  0  0  0  0  0  0
  131.7335  125.7806   65.9143 H   0  0  0  0  0  0  0  0  0  0  0  0
  132.6919  125.8487   64.3966 H   0  0  0  0  0  0  0  0  0  0  0  0
  130.9718  126.3663   64.3966 H   0  0  0  0  0  0  0  0  0  0  0  0
  129.4602  124.2441   65.7014 H   0  0  0  0  0  0  0  0  0  0  0  0
  129.2080  124.7644   64.0076 H   0  0  0  0  0  0  0  0  0  0  0  0
  129.8818  121.9107   64.9462 H   0  0  0  0  0  0  0  0  0  0  0  0
  128.2623  122.5173   64.3657 H   0  0  0  0  0  0  0  0  0  0  0  0
  125.0115  123.3159   62.4263 H   0  0  0  0  0  0  0  0  0  0  0  0
  123.3729  123.8233   60.6274 H   0  0  0  0  0  0  0  0  0  0  0  0
  124.0831  123.8602   58.2507 H   0  0  0  0  0  0  0  0  0  0  0  0
  126.4404  123.3862   57.6287 H   0  0  0  0  0  0  0  0  0  0  0  0
  1  2  1  0
  2  3  2  0
  3  4  1  0
  4  5  1  0
  5  6  1  0
  6  7  1  0
  7  8  1  0
  8  9  1  0
  8 10  1  0
 10 11  1  0
  4 12  2  0
 12 13  1  0
 13 14  2  0
 14 15  1  0
 15 16  2  0
 16 17  1  0
 17 18  2  0
 18  2  1  0
 11  5  1  0
 18 13  1  0
  1 19  1  0
  1 20  1  0
  1 21  1  0
  3 22  1  0
  6 23  1  0
  6 24  1  0
  7 25  1  0
  7 26  1  0
  8 27  1  0
  9 28  1  0
  9 29  1  0
  9 30  1  0
 10 31  1  0
 10 32  1  0
 11 33  1  0
 11 34  1  0
 14 35  1  0
 15 36  1  0
 16 37  1  0
 17 38  1  0
M  CHG  1   8   1
M  END
>  <Binding energies>  (1) 
[-6.66]

>  <Ligand effiencies>  (1) 
[-0.3505263157894737]

>  <Interactions>  (1) 
["V-B:GLU:543:CG:9879, H-B:ALA:541:N:9863, H-A:TYR:484:OH:4347, V-B:GLU:543:CD:9880, V-B:ALA:541:CB:9864, V-B:ASP:366:CG:8184, V-B:PRO:540:CB:9857, V-B:TYR:539:CE2:9848, V-B:PRO:540:CA:9855, V-B:TYR:539:CD2:9846, V-B:LEU:363:CD1:8160, V-A:LEU:475:CD1:4257, V-B:PRO:540:C:9853, V-B:TYR:539:CZ:9849, V-B:LEU:363:CA:8156"]

$$$$
RR32_Rahimova_2017-again2
     RDKit          3D

 39 41  0  0  0  0  0  0  0  0999 V2000
  133.1360  125.9340   67.3270 C   0  0  0  0  0  0  0  0  0  0  0  0
  131.7220  126.0540   66.7730 C   0  0  0  0  0  0  0  0  0  0  0  0
  130.7440  126.7490   67.4900 C   0  0  0  0  0  0  0  0  0  0  0  0
  129.4360  126.8640   67.0000 C   0  0  0  0  0  0  0  0  0  0  0  0
  128.3950  127.5820   67.6930 N   0  0  0  0  0  0  0  0  0  0  0  0
  128.5930  128.9950   68.1110 C   0  0  0  0  0  0  0  0  0  0  0  0
  128.2430  129.9650   66.9510 C   0  0  0  0  0  0  0  0  0  0  0  0
  126.7680  129.7560   66.5300 N   0  0  0  0  0  0  0  0  0  0  0  0
  126.4000  130.6630   65.3400 C   0  0  0  0  0  0  0  0  0  0  0  0
  126.5170  128.2670   66.1900 C   0  0  0  0  0  0  0  0  0  0  0  0
  126.9540  127.3880   67.3910 C   0  0  0  0  0  0  0  0  0  0  0  0
  129.1550  126.2910   65.8120 N   0  0  0  0  0  0  0  0  0  0  0  0
  130.0500  125.5900   65.0380 C   0  0  0  0  0  0  0  0  0  0  0  0
  129.6490  125.0270   63.8050 C   0  0  0  0  0  0  0  0  0  0  0  0
  130.5830  124.3270   63.0450 C   0  0  0  0  0  0  0  0  0  0  0  0
  131.8950  124.1820   63.4910 C   0  0  0  0  0  0  0  0  0  0  0  0
  132.3040  124.7320   64.7060 C   0  0  0  0  0  0  0  0  0  0  0  0
  131.3860  125.4570   65.5180 C   0  0  0  0  0  0  0  0  0  0  0  0
  133.1005  125.9370   68.4264 H   0  0  0  0  0  0  0  0  0  0  0  0
  133.5883  124.9942   66.9773 H   0  0  0  0  0  0  0  0  0  0  0  0
  133.7402  126.7841   66.9773 H   0  0  0  0  0  0  0  0  0  0  0  0
  131.0047  127.2125   68.4529 H   0  0  0  0  0  0  0  0  0  0  0  0
  127.9426  129.2115   68.9713 H   0  0  0  0  0  0  0  0  0  0  0  0
  129.6487  129.1379   68.3849 H   0  0  0  0  0  0  0  0  0  0  0  0
  128.3851  131.0031   67.2858 H   0  0  0  0  0  0  0  0  0  0  0  0
  128.9011  129.7628   66.0931 H   0  0  0  0  0  0  0  0  0  0  0  0
  126.1850  129.9940   67.3210 H   0  0  0  0  0  0  0  0  0  0  0  0
  126.0113  131.6210   65.7156 H   0  0  0  0  0  0  0  0  0  0  0  0
  127.2952  130.8454   64.7274 H   0  0  0  0  0  0  0  0  0  0  0  0
  125.6307  130.1701   64.7274 H   0  0  0  0  0  0  0  0  0  0  0  0
  125.4466  128.1108   65.9902 H   0  0  0  0  0  0  0  0  0  0  0  0
  127.0979  127.9889   65.2983 H   0  0  0  0  0  0  0  0  0  0  0  0
  126.3604  127.6648   68.2747 H   0  0  0  0  0  0  0  0  0  0  0  0
  126.7882  126.3318   67.1322 H   0  0  0  0  0  0  0  0  0  0  0  0
  128.2140  126.3900   65.4620 H   0  0  0  0  0  0  0  0  0  0  0  0
  128.6138  125.1401   63.4507 H   0  0  0  0  0  0  0  0  0  0  0  0
  130.2821  123.8846   62.0839 H   0  0  0  0  0  0  0  0  0  0  0  0
  132.6184  123.6261   62.8765 H   0  0  0  0  0  0  0  0  0  0  0  0
  133.3444  124.6046   65.0396 H   0  0  0  0  0  0  0  0  0  0  0  0
  1  2  1  0
  2  3  2  0
  3  4  1  0
  4  5  1  0
  5  6  1  0
  6  7  1  0
  7  8  1  0
  8  9  1  0
  8 10  1  0
 10 11  1  0
  4 12  2  0
 12 13  1  0
 13 14  2  0
 14 15  1  0
 15 16  2  0
 16 17  1  0
 17 18  2  0
 18  2  1  0
 11  5  1  0
 18 13  1  0
  1 19  1  0
  1 20  1  0
  1 21  1  0
  3 22  1  0
  6 23  1  0
  6 24  1  0
  7 25  1  0
  7 26  1  0
  8 27  1  0
  9 28  1  0
  9 29  1  0
  9 30  1  0
 10 31  1  0
 10 32  1  0
 11 33  1  0
 11 34  1  0
 12 35  1  0
 14 36  1  0
 15 37  1  0
 16 38  1  0
 17 39  1  0
M  CHG  2   8   1  12   1
M  END
>  <Binding energies>  (1) 
[-7.11]

>  <Ligand effiencies>  (1) 
[-0.35550000000000004]

>  <Interactions>  (1) 
["V-A:HIS:456:CE1:4069, V-A:TYR:484:CZ:4346, V-B:GLU:543:CG:9879, V-B:GLU:543:CD:9880, H-B:GLU:543:OE2:9882, V-A:ARG:545:CD:4923, V-A:ARG:545:CG:4922, V-A:GLU:543:CD:4908, H-A:GLU:543:OE1:4909, V-A:GLU:543:CG:4907, V-A:GLU:543:CA:4904, V-B:GLU:543:CB:9878, V-A:GLU:543:CB:4906, V-B:HIS:456:CE1:9041, V-B:TYR:484:CZ:9318, V-B:TYR:484:CE2:9317, V-B:ARG:545:CG:9894, H-B:TYR:484:OH:9319"]

$$$$
RR33_Rahimova_2017
     RDKit          3D

 36 37  0  0  0  0  0  0  0  0999 V2000
  125.9300  129.6250   56.6970 C   0  0  0  0  0  0  0  0  0  0  0  0
  124.5550  129.5290   57.3640 C   0  0  0  0  0  0  0  0  0  0  0  0
  124.3920  130.6420   58.2390 O   0  0  0  0  0  0  0  0  0  0  0  0
  124.4990  130.4540   59.6030 C   0  0  0  0  0  0  0  0  0  0  0  0
  125.5640  129.6670   60.0400 C   0  0  0  0  0  0  0  0  0  0  0  0
  125.7510  129.4180   61.3970 C   0  0  0  0  0  0  0  0  0  0  0  0
  124.8730  129.9580   62.3410 C   0  0  0  0  0  0  0  0  0  0  0  0
  125.0740  129.6910   63.7980 C   0  0  0  0  0  0  0  0  0  0  0  0
  126.2110  129.4980   64.4290 N   0  0  0  0  0  0  0  0  0  0  0  0
  125.8800  129.3040   65.6960 C   0  0  0  0  0  0  0  0  0  0  0  0
  126.9400  129.0570   66.7480 C   0  0  0  0  0  0  0  0  0  0  0  0
  127.0710  127.6330   67.0200 N   0  0  0  0  0  0  0  0  0  0  0  0
  128.3030  127.3610   67.7420 C   0  0  0  0  0  0  0  0  0  0  0  0
  124.5000  129.3800   65.8340 C   0  0  0  0  0  0  0  0  0  0  0  0
  123.5270  129.2580   66.9820 C   0  0  0  0  0  0  0  0  0  0  0  0
  123.9850  129.6290   64.6080 O   0  0  0  0  0  0  0  0  0  0  0  0
  123.8060  130.7520   61.9080 C   0  0  0  0  0  0  0  0  0  0  0  0
  123.6180  131.0000   60.5500 C   0  0  0  0  0  0  0  0  0  0  0  0
  126.7099  129.6795   57.4708 H   0  0  0  0  0  0  0  0  0  0  0  0
  126.0965  128.7363   56.0705 H   0  0  0  0  0  0  0  0  0  0  0  0
  125.9714  130.5282   56.0705 H   0  0  0  0  0  0  0  0  0  0  0  0
  123.7688  129.5448   56.5949 H   0  0  0  0  0  0  0  0  0  0  0  0
  124.4798  128.5909   57.9334 H   0  0  0  0  0  0  0  0  0  0  0  0
  126.2626  129.2391   59.3060 H   0  0  0  0  0  0  0  0  0  0  0  0
  126.5938  128.7933   61.7278 H   0  0  0  0  0  0  0  0  0  0  0  0
  127.9038  129.4463   66.3882 H   0  0  0  0  0  0  0  0  0  0  0  0
  126.6446  129.5692   67.6756 H   0  0  0  0  0  0  0  0  0  0  0  0
  127.0860  127.1270   66.1450 H   0  0  0  0  0  0  0  0  0  0  0  0
  128.1108  127.4034   68.8242 H   0  0  0  0  0  0  0  0  0  0  0  0
  128.6716  126.3598   67.4741 H   0  0  0  0  0  0  0  0  0  0  0  0
  129.0589  128.1139   67.4741 H   0  0  0  0  0  0  0  0  0  0  0  0
  124.0731  129.3265   67.9344 H   0  0  0  0  0  0  0  0  0  0  0  0
  122.7877  130.0705   66.9240 H   0  0  0  0  0  0  0  0  0  0  0  0
  123.0112  128.2882   66.9240 H   0  0  0  0  0  0  0  0  0  0  0  0
  123.1113  131.1831   62.6439 H   0  0  0  0  0  0  0  0  0  0  0  0
  122.7763  131.6258   60.2186 H   0  0  0  0  0  0  0  0  0  0  0  0
  1  2  1  0
  2  3  1  0
  3  4  1  0
  4  5  2  0
  5  6  1  0
  6  7  2  0
  7  8  1  0
  8  9  2  0
  9 10  1  0
 10 11  1  0
 11 12  1  0
 12 13  1  0
 10 14  2  0
 14 15  1  0
 14 16  1  0
  7 17  1  0
 17 18  2  0
 18  4  1  0
 16  8  1  0
  1 19  1  0
  1 20  1  0
  1 21  1  0
  2 22  1  0
  2 23  1  0
  5 24  1  0
  6 25  1  0
 11 26  1  0
 11 27  1  0
 12 28  1  0
 13 29  1  0
 13 30  1  0
 13 31  1  0
 15 32  1  0
 15 33  1  0
 15 34  1  0
 17 35  1  0
 18 36  1  0
M  END
>  <Binding energies>  (1) 
[-5.4]

>  <Ligand effiencies>  (1) 
[-0.28421052631578947]

>  <Interactions>  (1) 
["H-B:GLU:543:OE2:9882, H-A:TYR:539:OH:4878, V-A:TYR:539:CE1:4875, V-B:ILE:369:CG2:8208, V-B:ASP:366:CG:8184, V-B:ASP:366:CA:8181, V-B:ILE:369:CD1:8210, V-B:ILE:369:CB:8207, V-B:ASP:366:CB:8183, V-B:ILE:369:CG1:8209, V-A:TYR:539:CZ:4877, V-B:ASP:366:C:8179, H-B:ARG:545:NH2:9900, V-B:TYR:531:CZ:9766, V-B:TYR:531:CE1:9764, V-B:HIS:456:CE1:9041, V-B:ARG:545:CZ:9898, V-B:ARG:545:CG:9894, V-B:ARG:545:CD:9895, H-B:GLY:454:N:9021, H-B:ARG:545:NE:9896, H-B:ARG:545:NH1:9899"]

$$$$
RR33_Rahimova_2017-again1
     RDKit          3D

 37 38  0  0  0  0  0  0  0  0999 V2000
  126.3900  137.0650   60.2400 C   0  0  0  0  0  0  0  0  0  0  0  0
  124.9520  136.5530   60.1250 C   0  0  0  0  0  0  0  0  0  0  0  0
  124.9820  135.1680   59.7920 O   0  0  0  0  0  0  0  0  0  0  0  0
  125.2070  134.2360   60.7870 C   0  0  0  0  0  0  0  0  0  0  0  0
  124.1230  133.9290   61.6090 C   0  0  0  0  0  0  0  0  0  0  0  0
  124.2530  133.0010   62.6390 C   0  0  0  0  0  0  0  0  0  0  0  0
  125.4780  132.3630   62.8620 C   0  0  0  0  0  0  0  0  0  0  0  0
  125.6210  131.3650   63.9650 C   0  0  0  0  0  0  0  0  0  0  0  0
  126.7350  130.8880   64.4760 N   0  0  0  0  0  0  0  0  0  0  0  0
  126.3560  130.0420   65.4220 C   0  0  0  0  0  0  0  0  0  0  0  0
  127.3740  129.2730   66.2420 C   0  0  0  0  0  0  0  0  0  0  0  0
  127.8880  128.0820   65.4160 N   0  0  0  0  0  0  0  0  0  0  0  0
  127.5250  128.1640   63.9270 C   0  0  0  0  0  0  0  0  0  0  0  0
  124.9670  130.0020   65.4780 C   0  0  0  0  0  0  0  0  0  0  0  0
  123.9460  129.2600   66.3040 C   0  0  0  0  0  0  0  0  0  0  0  0
  124.5010  130.8580   64.5380 O   0  0  0  0  0  0  0  0  0  0  0  0
  126.5680  132.6680   62.0390 C   0  0  0  0  0  0  0  0  0  0  0  0
  126.4360  133.5960   61.0100 C   0  0  0  0  0  0  0  0  0  0  0  0
  126.6610  137.1615   61.3017 H   0  0  0  0  0  0  0  0  0  0  0  0
  127.0724  136.3546   59.7505 H   0  0  0  0  0  0  0  0  0  0  0  0
  126.4699  138.0468   59.7505 H   0  0  0  0  0  0  0  0  0  0  0  0
  124.4327  136.6911   61.0848 H   0  0  0  0  0  0  0  0  0  0  0  0
  124.4176  137.1133   59.3437 H   0  0  0  0  0  0  0  0  0  0  0  0
  123.1555  134.4250   61.4420 H   0  0  0  0  0  0  0  0  0  0  0  0
  123.3895  132.7687   63.2796 H   0  0  0  0  0  0  0  0  0  0  0  0
  128.2151  129.9337   66.4989 H   0  0  0  0  0  0  0  0  0  0  0  0
  126.9051  128.9077   67.1676 H   0  0  0  0  0  0  0  0  0  0  0  0
  128.8920  128.0310   65.5080 H   0  0  0  0  0  0  0  0  0  0  0  0
  127.4980  127.2320   65.8010 H   0  0  0  0  0  0  0  0  0  0  0  0
  126.4569  128.4053   63.8227 H   0  0  0  0  0  0  0  0  0  0  0  0
  128.1269  128.9488   63.4455 H   0  0  0  0  0  0  0  0  0  0  0  0
  127.7311  127.1967   63.4455 H   0  0  0  0  0  0  0  0  0  0  0  0
  124.1572  129.4135   67.3726 H   0  0  0  0  0  0  0  0  0  0  0  0
  122.9401  129.6392   66.0709 H   0  0  0  0  0  0  0  0  0  0  0  0
  123.9961  128.1862   66.0709 H   0  0  0  0  0  0  0  0  0  0  0  0
  127.5351  132.1713   62.2063 H   0  0  0  0  0  0  0  0  0  0  0  0
  127.2988  133.8288   60.3687 H   0  0  0  0  0  0  0  0  0  0  0  0
  1  2  1  0
  2  3  1  0
  3  4  1  0
  4  5  2  0
  5  6  1  0
  6  7  2  0
  7  8  1  0
  8  9  2  0
  9 10  1  0
 10 11  1  0
 11 12  1  0
 12 13  1  0
 10 14  2  0
 14 15  1  0
 14 16  1  0
  7 17  1  0
 17 18  2  0
 18  4  1  0
 16  8  1  0
  1 19  1  0
  1 20  1  0
  1 21  1  0
  2 22  1  0
  2 23  1  0
  5 24  1  0
  6 25  1  0
 11 26  1  0
 11 27  1  0
 12 28  1  0
 12 29  1  0
 13 30  1  0
 13 31  1  0
 13 32  1  0
 15 33  1  0
 15 34  1  0
 15 35  1  0
 17 36  1  0
 18 37  1  0
M  CHG  1  12   1
M  END
>  <Binding energies>  (1) 
[-6.77]

>  <Ligand effiencies>  (1) 
[-0.33849999999999997]

>  <Interactions>  (1) 
["H-B:GLU:543:OE2:9882, V-A:TYR:539:CD1:4873, V-B:ILE:369:CG2:8208, V-B:LEU:475:CD1:9229, V-B:ILE:369:CD1:8210, V-A:GLU:543:CD:4908, H-A:GLU:543:OE1:4909, V-B:HIS:456:CE1:9041, V-B:GLY:454:CA:9020, V-B:ARG:545:CZ:9898, V-B:ARG:545:CG:9894, V-B:ARG:545:CD:9895, V-A:TYR:539:CB:4871, V-B:PRO:482:CG:9298, V-B:LEU:373:CD1:8251, H-B:SER:385:OG:8381, V-B:SER:385:CB:8380, H-B:GLY:454:N:9021, H-B:TYR:484:OH:9319"]

$$$$
RR3_Rahimova_2017
     RDKit          3D

 63 69  0  0  0  0  0  0  0  0999 V2000
  126.2700  123.9400   57.2300 C   0  0  0  0  0  0  0  0  0  0  0  0
  127.4020  124.7270   57.4170 C   0  0  0  0  0  0  0  0  0  0  0  0
  127.2770  125.9900   57.9890 C   0  0  0  0  0  0  0  0  0  0  0  0
  126.0230  126.4820   58.3810 C   0  0  0  0  0  0  0  0  0  0  0  0
  125.8900  127.8400   58.9960 C   0  0  0  0  0  0  0  0  0  0  0  0
  125.3170  128.9010   58.2820 C   0  0  0  0  0  0  0  0  0  0  0  0
  125.1970  130.1650   58.8540 C   0  0  0  0  0  0  0  0  0  0  0  0
  125.6550  130.3980   60.1530 C   0  0  0  0  0  0  0  0  0  0  0  0
  125.5340  131.7560   60.7720 C   0  0  0  0  0  0  0  0  0  0  0  0
  125.1520  132.7910   60.0320 N   0  0  0  0  0  0  0  0  0  0  0  0
  125.0910  133.8250   60.8370 C   0  0  0  0  0  0  0  0  0  0  0  0
  124.7110  135.1780   60.4420 C   0  0  0  0  0  0  0  0  0  0  0  0
  123.4170  135.6360   60.2600 C   0  0  0  0  0  0  0  0  0  0  0  0
  123.4290  136.9580   59.8990 N   0  0  0  0  0  0  0  0  0  0  0  0
  124.7280  137.4130   59.8290 C   0  0  0  0  0  0  0  0  0  0  0  0
  125.2370  138.6750   59.5050 C   0  0  0  0  0  0  0  0  0  0  0  0
  126.6240  138.8220   59.5220 C   0  0  0  0  0  0  0  0  0  0  0  0
  127.4690  137.7650   59.8450 C   0  0  0  0  0  0  0  0  0  0  0  0
  126.9620  136.5080   60.1680 C   0  0  0  0  0  0  0  0  0  0  0  0
  125.5700  136.3070   60.1660 C   0  0  0  0  0  0  0  0  0  0  0  0
  125.4410  133.4730   62.1110 N   0  0  0  0  0  0  0  0  0  0  0  0
  125.7580  132.1390   62.1050 C   0  0  0  0  0  0  0  0  0  0  0  0
  126.2470  131.4160   63.3170 C   0  0  0  0  0  0  0  0  0  0  0  0
  127.4930  131.7260   63.8630 C   0  0  0  0  0  0  0  0  0  0  0  0
  127.9570  131.0460   64.9840 C   0  0  0  0  0  0  0  0  0  0  0  0
  127.1850  130.0430   65.5890 C   0  0  0  0  0  0  0  0  0  0  0  0
  127.6950  129.3000   66.7830 C   0  0  0  0  0  0  0  0  0  0  0  0
  128.4120  129.9630   67.7920 C   0  0  0  0  0  0  0  0  0  0  0  0
  128.8830  129.2720   68.9050 C   0  0  0  0  0  0  0  0  0  0  0  0
  128.6410  127.9070   69.0230 C   0  0  0  0  0  0  0  0  0  0  0  0
  127.9320  127.2300   68.0360 C   0  0  0  0  0  0  0  0  0  0  0  0
  127.4640  127.9230   66.9240 C   0  0  0  0  0  0  0  0  0  0  0  0
  125.9280  129.7530   65.0420 C   0  0  0  0  0  0  0  0  0  0  0  0
  125.4600  130.4320   63.9200 C   0  0  0  0  0  0  0  0  0  0  0  0
  126.2150  129.3440   60.8770 C   0  0  0  0  0  0  0  0  0  0  0  0
  126.3340  128.0820   60.3030 C   0  0  0  0  0  0  0  0  0  0  0  0
  124.8960  125.6710   58.1810 C   0  0  0  0  0  0  0  0  0  0  0  0
  125.0170  124.4070   57.6110 C   0  0  0  0  0  0  0  0  0  0  0  0
  126.3669  122.9419   56.7778 H   0  0  0  0  0  0  0  0  0  0  0  0
  128.3912  124.3530   57.1143 H   0  0  0  0  0  0  0  0  0  0  0  0
  128.1734  126.6105   58.1356 H   0  0  0  0  0  0  0  0  0  0  0  0
  124.9572  128.7332   57.2561 H   0  0  0  0  0  0  0  0  0  0  0  0
  124.7392  130.9841   58.2800 H   0  0  0  0  0  0  0  0  0  0  0  0
  122.5101  135.0266   60.3869 H   0  0  0  0  0  0  0  0  0  0  0  0
  122.5840  137.4800   59.7220 H   0  0  0  0  0  0  0  0  0  0  0  0
  124.5733  139.5138   59.2483 H   0  0  0  0  0  0  0  0  0  0  0  0
  127.0615  139.8001   59.2733 H   0  0  0  0  0  0  0  0  0  0  0  0
  128.5574  137.9246   59.8454 H   0  0  0  0  0  0  0  0  0  0  0  0
  127.6428  135.6821   60.4217 H   0  0  0  0  0  0  0  0  0  0  0  0
  125.4860  134.0920   62.9090 H   0  0  0  0  0  0  0  0  0  0  0  0
  128.1113  132.5119   63.4047 H   0  0  0  0  0  0  0  0  0  0  0  0
  128.9428  131.2981   65.4019 H   0  0  0  0  0  0  0  0  0  0  0  0
  128.6040  131.0424   67.7018 H   0  0  0  0  0  0  0  0  0  0  0  0
  129.4442  129.8031   69.6880 H   0  0  0  0  0  0  0  0  0  0  0  0
  129.0125  127.3599   69.9020 H   0  0  0  0  0  0  0  0  0  0  0  0
  127.7421  126.1510   68.1343 H   0  0  0  0  0  0  0  0  0  0  0  0
  126.9052  127.3841   66.1446 H   0  0  0  0  0  0  0  0  0  0  0  0
  125.3013  128.9771   65.5060 H   0  0  0  0  0  0  0  0  0  0  0  0
  124.4686  130.1930   63.5077 H   0  0  0  0  0  0  0  0  0  0  0  0
  126.5640  129.5119   61.9066 H   0  0  0  0  0  0  0  0  0  0  0  0
  126.7830  127.2626   60.8835 H   0  0  0  0  0  0  0  0  0  0  0  0
  123.9031  126.0390   58.4787 H   0  0  0  0  0  0  0  0  0  0  0  0
  124.1253  123.7803   57.4626 H   0  0  0  0  0  0  0  0  0  0  0  0
  1  2  2  0
  2  3  1  0
  3  4  2  0
  4  5  1  0
  5  6  2  0
  6  7  1  0
  7  8  2  0
  8  9  1  0
  9 10  1  0
 10 11  2  0
 11 12  1  0
 12 13  2  0
 13 14  1  0
 14 15  1  0
 15 16  2  0
 16 17  1  0
 17 18  2  0
 18 19  1  0
 19 20  2  0
 11 21  1  0
 21 22  1  0
 22 23  1  0
 23 24  2  0
 24 25  1  0
 25 26  2  0
 26 27  1  0
 27 28  2  0
 28 29  1  0
 29 30  2  0
 30 31  1  0
 31 32  2  0
 26 33  1  0
 33 34  2  0
  8 35  1  0
 35 36  2  0
  4 37  1  0
 37 38  2  0
 38  1  1  0
 36  5  1  0
 22  9  2  0
 34 23  1  0
 20 12  1  0
 32 27  1  0
 20 15  1  0
  1 39  1  0
  2 40  1  0
  3 41  1  0
  6 42  1  0
  7 43  1  0
 13 44  1  0
 14 45  1  0
 16 46  1  0
 17 47  1  0
 18 48  1  0
 19 49  1  0
 21 50  1  0
 24 51  1  0
 25 52  1  0
 28 53  1  0
 29 54  1  0
 30 55  1  0
 31 56  1  0
 32 57  1  0
 33 58  1  0
 34 59  1  0
 35 60  1  0
 36 61  1  0
 37 62  1  0
 38 63  1  0
M  END
>  <Binding energies>  (1) 
[-9.66]

>  <Ligand effiencies>  (1) 
[-0.2415]

>  <Interactions>  (1) 
["V-A:GLU:543:C:4902, V-A:TYR:539:CD1:4873, V-A:TYR:539:CE1:4875, V-B:ILE:369:CG2:8208, V-B:ASP:366:CG:8184, V-B:LEU:475:CD1:9229, V-A:ALA:541:CB:4892, V-B:ILE:369:CB:8207, V-B:ASP:366:CB:8183, V-A:TYR:539:C:4867, V-A:GLU:543:CD:4908, V-A:GLU:543:CG:4907, V-A:TYR:539:CG:4872, V-B:MET:535:CE:9807, V-B:TYR:531:CE2:9765, V-B:TYR:531:CZ:9766, V-B:LEU:363:CD1:8160, V-B:TYR:484:CD2:9315, V-A:GLU:543:CA:4904, V-B:GLU:543:CB:9878, V-A:GLU:543:CB:4906, V-B:HIS:456:CE1:9041, V-B:TYR:484:CZ:9318, V-B:TYR:484:CE2:9317, V-B:PRO:482:CB:9297, V-A:TYR:539:CB:4871, V-B:PRO:482:CG:9298, V-B:LEU:373:CD1:8251, H-B:SER:385:OG:8381, V-B:SER:385:CB:8380, V-A:ILE:343:CG2:2991, V-B:VAL:384:C:8368, V-A:VAL:344:CG1:3000, V-B:SER:385:CA:8378, V-A:TYR:539:CA:4869, H-B:VAL:384:O:8369, V-B:PRO:482:CD:9299"]

$$$$
RR4_Rahimova_2017
     RDKit          3D

 66 70  0  0  0  0  0  0  0  0999 V2000
  130.5500  126.4110   75.1260 C   0  0  0  0  0  0  0  0  0  0  0  0
  129.6120  127.2660   74.4820 O   0  0  0  0  0  0  0  0  0  0  0  0
  129.5440  127.2750   73.1020 C   0  0  0  0  0  0  0  0  0  0  0  0
  128.7670  126.2830   72.5080 C   0  0  0  0  0  0  0  0  0  0  0  0
  128.6400  126.2150   71.1240 C   0  0  0  0  0  0  0  0  0  0  0  0
  129.2910  127.1370   70.2910 C   0  0  0  0  0  0  0  0  0  0  0  0
  129.1520  127.0600   68.7970 C   0  0  0  0  0  0  0  0  0  0  0  0
  128.1250  127.7010   68.0970 C   0  0  0  0  0  0  0  0  0  0  0  0
  128.0410  127.6020   66.7030 C   0  0  0  0  0  0  0  0  0  0  0  0
  126.9330  128.3370   66.0210 C   0  0  0  0  0  0  0  0  0  0  0  0
  127.1260  128.8700   64.7430 C   0  0  0  0  0  0  0  0  0  0  0  0
  126.0950  129.5460   64.0960 C   0  0  0  0  0  0  0  0  0  0  0  0
  124.8510  129.6960   64.7100 C   0  0  0  0  0  0  0  0  0  0  0  0
  123.8890  130.3810   63.9920 O   0  0  0  0  0  0  0  0  0  0  0  0
  124.1190  130.6630   62.6160 C   0  0  0  0  0  0  0  0  0  0  0  0
  124.6510  129.1580   65.9900 C   0  0  0  0  0  0  0  0  0  0  0  0
  125.6840  128.4820   66.6350 C   0  0  0  0  0  0  0  0  0  0  0  0
  129.0030  126.8150   66.0230 C   0  0  0  0  0  0  0  0  0  0  0  0
  128.9620  126.6790   64.5640 C   0  0  0  0  0  0  0  0  0  0  0  0
  128.9300  126.5710   63.4120 N   0  0  0  0  0  0  0  0  0  0  0  0
  129.9960  126.1710   66.7950 C   0  0  0  0  0  0  0  0  0  0  0  0
  131.2740  125.1370   66.1130 S   0  0  0  0  0  0  0  0  0  0  0  0
  131.8620  125.9200   64.5740 C   0  0  0  0  0  0  0  0  0  0  0  0
  132.1300  124.9420   63.4230 C   0  0  0  0  0  0  0  0  0  0  0  0
  132.3940  125.3600   62.2930 O   0  0  0  0  0  0  0  0  0  0  0  0
  132.0360  123.6340   63.7580 N   0  0  0  0  0  0  0  0  0  0  0  0
  132.2240  122.5130   62.9450 C   0  0  0  0  0  0  0  0  0  0  0  0
  133.7960  121.8400   62.6050 S   0  0  0  0  0  0  0  0  0  0  0  0
  133.1100  120.5980   61.6030 C   0  0  0  0  0  0  0  0  0  0  0  0
  131.7120  120.7060   61.5330 C   0  0  0  0  0  0  0  0  0  0  0  0
  131.2110  121.7810   62.3060 C   0  0  0  0  0  0  0  0  0  0  0  0
  129.7900  122.0970   62.4180 C   0  0  0  0  0  0  0  0  0  0  0  0
  128.6640  122.3480   62.5050 N   0  0  0  0  0  0  0  0  0  0  0  0
  130.8690  119.7000   60.7390 C   0  0  0  0  0  0  0  0  0  0  0  0
  131.6910  118.4300   60.4220 C   0  0  0  0  0  0  0  0  0  0  0  0
  133.0990  118.7650   59.9000 C   0  0  0  0  0  0  0  0  0  0  0  0
  133.9480  119.5030   60.9570 C   0  0  0  0  0  0  0  0  0  0  0  0
  130.0730  126.3100   68.1400 N   0  0  0  0  0  0  0  0  0  0  0  0
  130.0690  128.1350   70.8990 C   0  0  0  0  0  0  0  0  0  0  0  0
  130.1980  128.2060   72.2830 C   0  0  0  0  0  0  0  0  0  0  0  0
  130.4448  126.5069   76.2168 H   0  0  0  0  0  0  0  0  0  0  0  0
  130.3600  125.3689   74.8295 H   0  0  0  0  0  0  0  0  0  0  0  0
  131.5701  126.6964   74.8295 H   0  0  0  0  0  0  0  0  0  0  0  0
  128.2487  125.5462   73.1393 H   0  0  0  0  0  0  0  0  0  0  0  0
  128.0190  125.4254   70.6758 H   0  0  0  0  0  0  0  0  0  0  0  0
  127.3756  128.2889   68.6472 H   0  0  0  0  0  0  0  0  0  0  0  0
  128.0999  128.7544   64.2448 H   0  0  0  0  0  0  0  0  0  0  0  0
  126.2625  129.9651   63.0929 H   0  0  0  0  0  0  0  0  0  0  0  0
  124.8119  131.5126   62.5267 H   0  0  0  0  0  0  0  0  0  0  0  0
  124.5574  129.7795   62.1289 H   0  0  0  0  0  0  0  0  0  0  0  0
  123.1654  130.9148   62.1289 H   0  0  0  0  0  0  0  0  0  0  0  0
  123.6755  129.2703   66.4858 H   0  0  0  0  0  0  0  0  0  0  0  0
  125.5164  128.0583   67.6362 H   0  0  0  0  0  0  0  0  0  0  0  0
  131.0995  126.6400   64.2421 H   0  0  0  0  0  0  0  0  0  0  0  0
  132.8261  126.3927   64.8129 H   0  0  0  0  0  0  0  0  0  0  0  0
  131.8120  123.4280   64.7200 H   0  0  0  0  0  0  0  0  0  0  0  0
  129.9863  119.4202   61.3327 H   0  0  0  0  0  0  0  0  0  0  0  0
  130.5592  120.1668   59.7923 H   0  0  0  0  0  0  0  0  0  0  0  0
  131.7865  117.8314   61.3399 H   0  0  0  0  0  0  0  0  0  0  0  0
  131.1623  117.8731   59.6344 H   0  0  0  0  0  0  0  0  0  0  0  0
  133.6080  117.8291   59.6261 H   0  0  0  0  0  0  0  0  0  0  0  0
  132.9893  119.4283   59.0293 H   0  0  0  0  0  0  0  0  0  0  0  0
  134.2767  118.7897   61.7271 H   0  0  0  0  0  0  0  0  0  0  0  0
  134.8289  119.9508   60.4738 H   0  0  0  0  0  0  0  0  0  0  0  0
  130.5862  128.8745   70.2700 H   0  0  0  0  0  0  0  0  0  0  0  0
  130.8155  128.9957   72.7359 H   0  0  0  0  0  0  0  0  0  0  0  0
  1  2  1  0
  2  3  1  0
  3  4  2  0
  4  5  1  0
  5  6  2  0
  6  7  1  0
  7  8  2  0
  8  9  1  0
  9 10  1  0
 10 11  2  0
 11 12  1  0
 12 13  2  0
 13 14  1  0
 14 15  1  0
 13 16  1  0
 16 17  2  0
  9 18  2  0
 18 19  1  0
 19 20  3  0
 18 21  1  0
 21 22  1  0
 22 23  1  0
 23 24  1  0
 24 25  2  0
 24 26  1  0
 26 27  1  0
 27 28  1  0
 28 29  1  0
 29 30  2  0
 30 31  1  0
 31 32  1  0
 32 33  3  0
 30 34  1  0
 34 35  1  0
 35 36  1  0
 36 37  1  0
 21 38  2  0
  6 39  1  0
 39 40  2  0
 40  3  1  0
 38  7  1  0
 17 10  1  0
 31 27  2  0
 37 29  1  0
  1 41  1  0
  1 42  1  0
  1 43  1  0
  4 44  1  0
  5 45  1  0
  8 46  1  0
 11 47  1  0
 12 48  1  0
 15 49  1  0
 15 50  1  0
 15 51  1  0
 16 52  1  0
 17 53  1  0
 23 54  1  0
 23 55  1  0
 26 56  1  0
 34 57  1  0
 34 58  1  0
 35 59  1  0
 35 60  1  0
 36 61  1  0
 36 62  1  0
 37 63  1  0
 37 64  1  0
 39 65  1  0
 40 66  1  0
M  END
>  <Binding energies>  (1) 
[-10.24]

>  <Ligand effiencies>  (1) 
[-0.2497560975609756]

>  <Interactions>  (1) 
["H-A:LYS:547:NZ:4951, V-B:HIS:456:CD2:9039, V-A:GLU:543:C:4902, V-A:HIS:456:CE1:4069, H-A:ARG:545:NH2:4928, H-B:ALA:541:N:9863, V-A:ARG:545:CZ:4926, H-A:TYR:484:OH:4347, V-B:GLU:543:CD:9880, V-B:ALA:541:CB:9864, V-B:ILE:369:CD1:8210, V-A:GLU:543:CD:4908, V-B:TYR:539:CD2:9846, V-A:GLY:454:CA:4048, V-A:ILE:369:CG2:3236, V-A:LEU:475:CD1:4257, V-A:SER:385:C:3404, V-A:SER:385:CA:3406, V-B:HIS:456:CE1:9041, V-B:ARG:545:CZ:9898, V-B:ARG:545:CG:9894, V-B:ARG:545:CD:9895, V-A:HIS:383:CD2:3391, H-B:GLY:454:N:9021"]

$$$$
RR5_Rahimova_2017
     RDKit          3D

 77 82  0  0  0  0  0  0  0  0999 V2000
  129.6130  124.1610   60.1570 O   0  0  0  0  0  0  0  0  0  0  0  0
  129.0740  125.2090   60.5100 C   0  0  0  0  0  0  0  0  0  0  0  0
  129.1090  125.6220   61.9940 C   0  0  0  0  0  0  0  0  0  0  0  0
  130.0500  126.8430   62.2950 C   0  0  2  0  0  0  0  0  0  0  0  0
  130.1310  127.8480   61.2160 N   0  0  0  0  0  0  0  0  0  0  0  0
  129.0340  128.6200   60.8570 C   0  0  0  0  0  0  0  0  0  0  0  0
  127.9210  128.6090   61.3880 O   0  0  0  0  0  0  0  0  0  0  0  0
  129.3800  129.3860   59.8080 O   0  0  0  0  0  0  0  0  0  0  0  0
  128.8060  130.6740   59.6060 C   0  0  0  0  0  0  0  0  0  0  0  0
  129.8720  131.6800   59.1190 C   0  0  0  0  0  0  0  0  0  0  0  0
  131.2700  131.3790   59.6270 C   0  0  0  0  0  0  0  0  0  0  0  0
  131.7350  131.2680   60.9410 C   0  0  0  0  0  0  0  0  0  0  0  0
  133.0740  130.9580   61.1810 C   0  0  0  0  0  0  0  0  0  0  0  0
  133.9510  130.7620   60.1130 C   0  0  0  0  0  0  0  0  0  0  0  0
  133.4900  130.8750   58.8000 C   0  0  0  0  0  0  0  0  0  0  0  0
  132.1500  131.1850   58.5620 C   0  0  0  0  0  0  0  0  0  0  0  0
  131.4080  131.3720   57.3050 C   0  0  0  0  0  0  0  0  0  0  0  0
  131.8230  131.3020   55.9730 C   0  0  0  0  0  0  0  0  0  0  0  0
  130.9060  131.5480   54.9510 C   0  0  0  0  0  0  0  0  0  0  0  0
  129.5790  131.8590   55.2590 C   0  0  0  0  0  0  0  0  0  0  0  0
  129.1680  131.9230   56.5900 C   0  0  0  0  0  0  0  0  0  0  0  0
  130.0820  131.6750   57.6170 C   0  0  0  0  0  0  0  0  0  0  0  0
  131.4740  126.3620   62.6670 C   0  0  0  0  0  0  0  0  0  0  0  0
  132.2660  125.8750   61.8850 O   0  0  0  0  0  0  0  0  0  0  0  0
  131.7030  126.5860   63.9940 O   0  0  0  0  0  0  0  0  0  0  0  0
  128.4590  126.0780   59.6780 N   0  0  0  0  0  0  0  0  0  0  0  0
  128.2000  126.0850   58.2070 C   0  0  0  0  0  0  0  0  0  0  0  0
  127.3640  127.3970   58.0280 C   0  0  0  0  0  0  0  0  0  0  0  0
  126.2330  127.6590   58.8190 C   0  0  0  0  0  0  0  0  0  0  0  0
  125.4980  128.8290   58.6520 C   0  0  0  0  0  0  0  0  0  0  0  0
  125.8750  129.7530   57.6830 C   0  0  0  0  0  0  0  0  0  0  0  0
  126.9900  129.5200   56.8870 C   0  0  0  0  0  0  0  0  0  0  0  0
  127.7310  128.3550   57.0620 C   0  0  0  0  0  0  0  0  0  0  0  0
  129.5900  126.1540   57.4890 C   0  0  0  0  0  0  0  0  0  0  0  0
  129.7370  125.8250   56.1320 C   0  0  0  0  0  0  0  0  0  0  0  0
  130.9860  125.8750   55.5190 C   0  0  0  0  0  0  0  0  0  0  0  0
  132.1050  126.2520   56.2550 C   0  0  0  0  0  0  0  0  0  0  0  0
  131.9840  126.5870   57.5990 C   0  0  0  0  0  0  0  0  0  0  0  0
  130.7330  126.5450   58.2080 C   0  0  0  0  0  0  0  0  0  0  0  0
  127.3730  124.7900   57.9050 C   0  0  0  0  0  0  0  0  0  0  0  0
  125.9700  124.7870   58.0070 C   0  0  0  0  0  0  0  0  0  0  0  0
  125.2300  123.6370   57.7470 C   0  0  0  0  0  0  0  0  0  0  0  0
  125.8810  122.4670   57.3740 C   0  0  0  0  0  0  0  0  0  0  0  0
  127.2660  122.4420   57.2510 C   0  0  0  0  0  0  0  0  0  0  0  0
  128.0020  123.5950   57.5120 C   0  0  0  0  0  0  0  0  0  0  0  0
  128.0874  125.8881   62.3032 H   0  0  0  0  0  0  0  0  0  0  0  0
  129.5111  124.7646   62.5537 H   0  0  0  0  0  0  0  0  0  0  0  0
  129.5801  127.3531   63.1488 H   0  0  0  0  0  0  0  0  0  0  0  0
  130.9480  127.8480   60.6220 H   0  0  0  0  0  0  0  0  0  0  0  0
  128.0093  130.5993   58.8512 H   0  0  0  0  0  0  0  0  0  0  0  0
  128.3957  131.0308   60.5622 H   0  0  0  0  0  0  0  0  0  0  0  0
  129.4614  132.6278   59.4972 H   0  0  0  0  0  0  0  0  0  0  0  0
  131.0462  131.4248   61.7842 H   0  0  0  0  0  0  0  0  0  0  0  0
  133.4395  130.8678   62.2146 H   0  0  0  0  0  0  0  0  0  0  0  0
  135.0062  130.5183   60.3059 H   0  0  0  0  0  0  0  0  0  0  0  0
  134.1796  130.7205   57.9570 H   0  0  0  0  0  0  0  0  0  0  0  0
  132.8671  131.0543   55.7314 H   0  0  0  0  0  0  0  0  0  0  0  0
  131.2282  131.4971   53.9005 H   0  0  0  0  0  0  0  0  0  0  0  0
  128.8582  132.0534   54.4511 H   0  0  0  0  0  0  0  0  0  0  0  0
  128.1234  132.1689   56.8314 H   0  0  0  0  0  0  0  0  0  0  0  0
  131.2150  127.3440   64.3240 H   0  0  0  0  0  0  0  0  0  0  0  0
  127.9870  126.8360   60.1500 H   0  0  0  0  0  0  0  0  0  0  0  0
  125.9238  126.9288   59.5814 H   0  0  0  0  0  0  0  0  0  0  0  0
  124.6199  129.0228   59.2856 H   0  0  0  0  0  0  0  0  0  0  0  0
  125.2875  130.6729   57.5461 H   0  0  0  0  0  0  0  0  0  0  0  0
  127.2856  130.2531   56.1220 H   0  0  0  0  0  0  0  0  0  0  0  0
  128.6180  128.1791   56.4357 H   0  0  0  0  0  0  0  0  0  0  0  0
  128.8555  125.5244   55.5467 H   0  0  0  0  0  0  0  0  0  0  0  0
  131.0880  125.6169   54.4546 H   0  0  0  0  0  0  0  0  0  0  0  0
  133.0919  126.2852   55.7704 H   0  0  0  0  0  0  0  0  0  0  0  0
  132.8714  126.8834   58.1775 H   0  0  0  0  0  0  0  0  0  0  0  0
  130.6373  126.8220   59.2682 H   0  0  0  0  0  0  0  0  0  0  0  0
  125.4480  125.7106   58.2976 H   0  0  0  0  0  0  0  0  0  0  0  0
  124.1338  123.6541   57.8364 H   0  0  0  0  0  0  0  0  0  0  0  0
  125.2976  121.5559   57.1750 H   0  0  0  0  0  0  0  0  0  0  0  0
  127.7775  121.5162   56.9491 H   0  0  0  0  0  0  0  0  0  0  0  0
  129.0969  123.5707   57.4088 H   0  0  0  0  0  0  0  0  0  0  0  0
  1  2  2  0
  2  3  1  0
  3  4  1  0
  4  5  1  0
  5  6  1  0
  6  7  2  0
  6  8  1  0
  8  9  1  0
  9 10  1  0
 10 11  1  0
 11 12  2  0
 12 13  1  0
 13 14  2  0
 14 15  1  0
 15 16  2  0
 16 17  1  0
 17 18  2  0
 18 19  1  0
 19 20  2  0
 20 21  1  0
 21 22  2  0
  4 23  1  0
 23 24  2  0
 23 25  1  0
  2 26  1  0
 26 27  1  0
 27 28  1  0
 28 29  2  0
 29 30  1  0
 30 31  2  0
 31 32  1  0
 32 33  2  0
 27 34  1  0
 34 35  2  0
 35 36  1  0
 36 37  2  0
 37 38  1  0
 38 39  2  0
 27 40  1  0
 40 41  2  0
 41 42  1  0
 42 43  2  0
 43 44  1  0
 44 45  2  0
 22 10  1  0
 33 28  1  0
 39 34  1  0
 45 40  1  0
 16 11  1  0
 22 17  1  0
  3 46  1  0
  3 47  1  0
  4 48  1  1
  5 49  1  0
  9 50  1  0
  9 51  1  0
 10 52  1  0
 12 53  1  0
 13 54  1  0
 14 55  1  0
 15 56  1  0
 18 57  1  0
 19 58  1  0
 20 59  1  0
 21 60  1  0
 25 61  1  0
 26 62  1  0
 29 63  1  0
 30 64  1  0
 31 65  1  0
 32 66  1  0
 33 67  1  0
 35 68  1  0
 36 69  1  0
 37 70  1  0
 38 71  1  0
 39 72  1  0
 41 73  1  0
 42 74  1  0
 43 75  1  0
 44 76  1  0
 45 77  1  0
M  END
>  <Binding energies>  (1) 
[-10.27]

>  <Ligand effiencies>  (1) 
[-0.21395833333333333]

>  <Interactions>  (1) 
["H-A:ARG:545:NH2:4928, V-A:ASP:366:CG:3212, V-A:TYR:539:CD1:4873, H-A:GLU:543:OE2:4910, V-A:PRO:540:CB:4885, V-A:ILE:538:CB:4862, V-A:ILE:538:CG2:4863, V-A:LEU:363:CD1:3188, H-A:ASP:366:OD2:3214, V-A:PRO:540:N:4884, V-A:TYR:531:CE2:4793, V-A:TYR:539:CE1:4875, V-A:PRO:540:CA:4883, V-B:ASP:366:CG:8184, V-A:TYR:531:CZ:4794, V-A:ILE:538:CA:4860, V-B:ASP:366:CB:8183, V-A:TYR:539:C:4867, H-A:GLU:543:OE1:4909, V-A:TYR:539:CG:4872, V-B:PRO:540:CB:9857, V-B:PRO:540:CD:9859, V-B:PRO:540:N:9856, V-B:PRO:540:CA:9855, V-B:MET:535:CE:9807, V-B:TYR:531:CE2:9765, V-B:TYR:539:C:9839, V-B:TYR:531:CZ:9766, V-B:LEU:363:CD1:8160, V-A:ASP:366:CB:3211, V-A:PRO:540:C:4881, V-A:LEU:363:CA:3184, V-A:ASN:362:CB:3175, V-A:ASN:362:C:3171, V-A:LEU:363:CB:3186, V-A:TYR:531:CE1:4792"]

$$$$
RR5_Rahimova_2017-again1
     RDKit          3D

 76 81  0  0  0  0  0  0  0  0999 V2000
  128.8100  124.3160   59.9890 O   0  0  0  0  0  0  0  0  0  0  0  0
  128.5760  123.1390   59.7170 C   0  0  0  0  0  0  0  0  0  0  0  0
  127.3530  122.8080   58.8370 C   0  0  0  0  0  0  0  0  0  0  0  0
  127.4300  123.2420   57.3360 C   0  0  2  0  0  0  0  0  0  0  0  0
  127.7870  124.6750   57.2650 N   0  0  0  0  0  0  0  0  0  0  0  0
  129.0360  125.0950   56.8220 C   0  0  0  0  0  0  0  0  0  0  0  0
  129.9730  124.3720   56.4710 O   0  0  0  0  0  0  0  0  0  0  0  0
  129.0690  126.4420   56.8360 O   0  0  0  0  0  0  0  0  0  0  0  0
  129.9970  127.1420   57.6560 C   0  0  0  0  0  0  0  0  0  0  0  0
  129.3940  128.4860   58.1110 C   0  0  0  0  0  0  0  0  0  0  0  0
  129.7840  129.6560   57.2250 C   0  0  0  0  0  0  0  0  0  0  0  0
  131.0510  130.1630   56.9250 C   0  0  0  0  0  0  0  0  0  0  0  0
  131.1790  131.2530   56.0620 C   0  0  0  0  0  0  0  0  0  0  0  0
  130.0430  131.8410   55.5020 C   0  0  0  0  0  0  0  0  0  0  0  0
  128.7760  131.3400   55.8040 C   0  0  0  0  0  0  0  0  0  0  0  0
  128.6510  130.2490   56.6660 C   0  0  0  0  0  0  0  0  0  0  0  0
  127.4620  129.5360   57.1580 C   0  0  0  0  0  0  0  0  0  0  0  0
  126.1020  129.7380   56.9120 C   0  0  0  0  0  0  0  0  0  0  0  0
  125.1590  128.9140   57.5280 C   0  0  0  0  0  0  0  0  0  0  0  0
  125.5740  127.8920   58.3840 C   0  0  0  0  0  0  0  0  0  0  0  0
  126.9340  127.6910   58.6270 C   0  0  0  0  0  0  0  0  0  0  0  0
  127.8820  128.5130   58.0100 C   0  0  0  0  0  0  0  0  0  0  0  0
  126.0890  122.9300   56.5590 C   0  0  0  0  0  0  0  0  0  0  0  0
  125.9950  121.7520   56.1430 O   0  0  0  0  0  0  0  0  0  0  0  0
  125.2540  123.8630   56.4720 O   0  0  0  0  0  0  0  0  0  0  0  0
  129.4090  122.1300   60.0500 N   0  0  0  0  0  0  0  0  0  0  0  0
  130.6530  122.1580   60.8610 C   0  0  0  0  0  0  0  0  0  0  0  0
  131.7720  122.9380   60.1000 C   0  0  0  0  0  0  0  0  0  0  0  0
  131.5290  123.4970   58.8320 C   0  0  0  0  0  0  0  0  0  0  0  0
  132.5200  124.2030   58.1570 C   0  0  0  0  0  0  0  0  0  0  0  0
  133.7710  124.3650   58.7430 C   0  0  0  0  0  0  0  0  0  0  0  0
  134.0370  123.8250   59.9970 C   0  0  0  0  0  0  0  0  0  0  0  0
  133.0450  123.1190   60.6710 C   0  0  0  0  0  0  0  0  0  0  0  0
  130.5420  122.9130   62.2240 C   0  0  0  0  0  0  0  0  0  0  0  0
  130.3490  122.2090   63.4250 C   0  0  0  0  0  0  0  0  0  0  0  0
  130.2480  122.8780   64.6420 C   0  0  0  0  0  0  0  0  0  0  0  0
  130.3450  124.2660   64.6750 C   0  0  0  0  0  0  0  0  0  0  0  0
  130.5470  124.9860   63.5010 C   0  0  0  0  0  0  0  0  0  0  0  0
  130.6470  124.3130   62.2870 C   0  0  0  0  0  0  0  0  0  0  0  0
  131.0430  120.6480   61.0200 C   0  0  0  0  0  0  0  0  0  0  0  0
  132.3640  120.2030   60.8400 C   0  0  0  0  0  0  0  0  0  0  0  0
  132.6980  118.8620   61.0030 C   0  0  0  0  0  0  0  0  0  0  0  0
  131.7160  117.9450   61.3620 C   0  0  0  0  0  0  0  0  0  0  0  0
  130.4050  118.3620   61.5690 C   0  0  0  0  0  0  0  0  0  0  0  0
  130.0740  119.7040   61.4040 C   0  0  0  0  0  0  0  0  0  0  0  0
  127.2097  121.7177   58.8619 H   0  0  0  0  0  0  0  0  0  0  0  0
  126.5232  123.3901   59.2642 H   0  0  0  0  0  0  0  0  0  0  0  0
  128.2121  122.6525   56.8353 H   0  0  0  0  0  0  0  0  0  0  0  0
  127.0780  125.3620   57.4820 H   0  0  0  0  0  0  0  0  0  0  0  0
  130.2338  126.5317   58.5400 H   0  0  0  0  0  0  0  0  0  0  0  0
  130.9129  127.3357   57.0784 H   0  0  0  0  0  0  0  0  0  0  0  0
  129.7744  128.5768   59.1391 H   0  0  0  0  0  0  0  0  0  0  0  0
  131.9468  129.7037   57.3684 H   0  0  0  0  0  0  0  0  0  0  0  0
  132.1768  131.6494   55.8227 H   0  0  0  0  0  0  0  0  0  0  0  0
  130.1469  132.6997   54.8224 H   0  0  0  0  0  0  0  0  0  0  0  0
  127.8798  131.8026   55.3648 H   0  0  0  0  0  0  0  0  0  0  0  0
  125.7759  130.5424   56.2362 H   0  0  0  0  0  0  0  0  0  0  0  0
  124.0867  129.0700   57.3388 H   0  0  0  0  0  0  0  0  0  0  0  0
  124.8282  127.2441   58.8677 H   0  0  0  0  0  0  0  0  0  0  0  0
  127.2595  126.8867   59.3032 H   0  0  0  0  0  0  0  0  0  0  0  0
  129.0850  121.1990   59.8310 H   0  0  0  0  0  0  0  0  0  0  0  0
  130.5398  123.3740   58.3668 H   0  0  0  0  0  0  0  0  0  0  0  0
  132.3150  124.6310   57.1646 H   0  0  0  0  0  0  0  0  0  0  0  0
  134.5552  124.9238   58.2113 H   0  0  0  0  0  0  0  0  0  0  0  0
  135.0287  123.9556   60.4547 H   0  0  0  0  0  0  0  0  0  0  0  0
  133.2592  122.6967   61.6639 H   0  0  0  0  0  0  0  0  0  0  0  0
  130.2766  121.1116   63.4032 H   0  0  0  0  0  0  0  0  0  0  0  0
  130.0924  122.3124   65.5725 H   0  0  0  0  0  0  0  0  0  0  0  0
  130.2615  124.7972   65.6346 H   0  0  0  0  0  0  0  0  0  0  0  0
  130.6273  126.0826   63.5327 H   0  0  0  0  0  0  0  0  0  0  0  0
  130.8108  124.8858   61.3623 H   0  0  0  0  0  0  0  0  0  0  0  0
  133.1462  120.9262   60.5659 H   0  0  0  0  0  0  0  0  0  0  0  0
  133.7348  118.5285   60.8485 H   0  0  0  0  0  0  0  0  0  0  0  0
  131.9775  116.8834   61.4830 H   0  0  0  0  0  0  0  0  0  0  0  0
  129.6335  117.6346   61.8617 H   0  0  0  0  0  0  0  0  0  0  0  0
  129.0381  120.0312   61.5767 H   0  0  0  0  0  0  0  0  0  0  0  0
  1  2  2  0
  2  3  1  0
  3  4  1  0
  4  5  1  0
  5  6  1  0
  6  7  2  0
  6  8  1  0
  8  9  1  0
  9 10  1  0
 10 11  1  0
 11 12  2  0
 12 13  1  0
 13 14  2  0
 14 15  1  0
 15 16  2  0
 16 17  1  0
 17 18  2  0
 18 19  1  0
 19 20  2  0
 20 21  1  0
 21 22  2  0
  4 23  1  0
 23 24  2  0
 23 25  1  0
  2 26  1  0
 26 27  1  0
 27 28  1  0
 28 29  2  0
 29 30  1  0
 30 31  2  0
 31 32  1  0
 32 33  2  0
 27 34  1  0
 34 35  2  0
 35 36  1  0
 36 37  2  0
 37 38  1  0
 38 39  2  0
 27 40  1  0
 40 41  2  0
 41 42  1  0
 42 43  2  0
 43 44  1  0
 44 45  2  0
 22 10  1  0
 33 28  1  0
 39 34  1  0
 45 40  1  0
 16 11  1  0
 22 17  1  0
  3 46  1  0
  3 47  1  0
  4 48  1  6
  5 49  1  0
  9 50  1  0
  9 51  1  0
 10 52  1  0
 12 53  1  0
 13 54  1  0
 14 55  1  0
 15 56  1  0
 18 57  1  0
 19 58  1  0
 20 59  1  0
 21 60  1  0
 26 61  1  0
 29 62  1  0
 30 63  1  0
 31 64  1  0
 32 65  1  0
 33 66  1  0
 35 67  1  0
 36 68  1  0
 37 69  1  0
 38 70  1  0
 39 71  1  0
 41 72  1  0
 42 73  1  0
 43 74  1  0
 44 75  1  0
 45 76  1  0
M  CHG  1  25  -1
M  END
>  <Binding energies>  (1) 
[-10.67]

>  <Ligand effiencies>  (1) 
[-0.22702127659574467]

>  <Interactions>  (1) 
["V-A:TYR:484:CZ:4346, V-B:GLU:543:CG:9879, V-A:ASP:366:CG:3212, V-B:ALA:541:CB:9864, V-A:TYR:539:CD1:4873, V-A:ILE:538:CB:4862, V-A:ILE:538:CG2:4863, V-A:TYR:539:CE1:4875, V-B:ASP:366:CG:8184, H-B:TYR:531:OH:9767, V-A:ILE:538:CA:4860, V-B:ASP:366:CB:8183, V-A:TYR:539:CZ:4877, V-A:PRO:482:CG:4326, V-B:PRO:540:CB:9857, V-B:TYR:539:CE2:9848, V-B:PRO:540:N:9856, V-B:PRO:540:CA:9855, V-B:MET:535:CE:9807, V-B:TYR:539:CD2:9846, V-A:PRO:482:CB:4325, V-B:TYR:539:C:9839, V-B:TYR:531:CZ:9766, V-B:LEU:363:CD1:8160, V-A:ILE:369:CG2:3236, V-A:ASP:366:CB:3211, V-A:ILE:369:CB:3235, V-A:LEU:475:CD1:4257, V-B:ALA:541:CA:9862, V-B:PRO:540:C:9853, V-A:ILE:369:CD1:3238, V-B:TYR:531:CE1:9764, V-A:TYR:484:CE2:4345, V-B:TYR:539:CZ:9849, H-B:TYR:539:OH:9850, V-A:ASP:366:CA:3209, V-A:ASP:366:C:3207, H-B:TYR:539:O:9840, H-B:TYR:539:N:9842"]

$$$$
RR6_Rahimova_2017
     RDKit          3D

 63 66  0  0  0  0  0  0  0  0999 V2000
  133.6050  125.5090   66.1310 C   0  0  0  0  0  0  0  0  0  0  0  0
  133.9680  125.3090   64.7730 O   0  0  0  0  0  0  0  0  0  0  0  0
  133.1150  124.7120   63.9020 C   0  0  0  0  0  0  0  0  0  0  0  0
  133.3550  123.6360   63.3440 O   0  0  0  0  0  0  0  0  0  0  0  0
  131.8480  125.4890   63.6840 C   0  0  0  0  0  0  0  0  0  0  0  0
  130.8030  125.4850   64.6200 C   0  0  0  0  0  0  0  0  0  0  0  0
  129.6370  126.2100   64.3850 C   0  0  0  0  0  0  0  0  0  0  0  0
  129.4960  126.9520   63.2030 C   0  0  0  0  0  0  0  0  0  0  0  0
  128.3530  127.6960   62.8540 N   0  0  0  0  0  0  0  0  0  0  0  0
  127.1150  127.2610   62.5320 C   0  0  0  0  0  0  0  0  0  0  0  0
  126.7580  126.0830   62.4990 O   0  0  0  0  0  0  0  0  0  0  0  0
  126.1180  128.3500   62.1220 C   0  0  0  0  0  0  0  0  0  0  0  0
  126.1510  129.8200   63.2010 S   0  0  0  0  0  0  0  0  0  0  0  0
  126.8280  131.1530   62.2330 C   0  0  0  0  0  0  0  0  0  0  0  0
  128.0640  130.9090   61.7360 N   0  0  0  0  0  0  0  0  0  0  0  0
  128.6720  131.8390   60.9580 C   0  0  0  0  0  0  0  0  0  0  0  0
  130.0130  131.4660   60.3970 C   0  0  0  0  0  0  0  0  0  0  0  0
  131.0790  131.1210   61.2420 C   0  0  0  0  0  0  0  0  0  0  0  0
  132.3270  130.7880   60.7210 C   0  0  0  0  0  0  0  0  0  0  0  0
  132.5310  130.7890   59.3420 C   0  0  0  0  0  0  0  0  0  0  0  0
  133.8950  130.4340   58.7800 C   0  0  0  0  0  0  0  0  0  0  0  0
  131.4850  131.1260   58.4860 C   0  0  0  0  0  0  0  0  0  0  0  0
  130.2400  131.4580   59.0110 C   0  0  0  0  0  0  0  0  0  0  0  0
  128.0420  133.0550   60.6730 C   0  0  0  0  0  0  0  0  0  0  0  0
  126.7650  133.3330   61.1790 C   0  0  0  0  0  0  0  0  0  0  0  0
  126.1440  134.6420   60.8210 C   0  0  0  0  0  0  0  0  0  0  0  0
  126.8500  135.8330   61.0190 C   0  0  0  0  0  0  0  0  0  0  0  0
  126.2840  137.0570   60.6720 C   0  0  0  0  0  0  0  0  0  0  0  0
  125.0070  137.1150   60.1170 C   0  0  0  0  0  0  0  0  0  0  0  0
  124.5280  138.3720   59.8020 O   0  0  0  0  0  0  0  0  0  0  0  0
  125.3750  139.2850   59.1130 C   0  0  0  0  0  0  0  0  0  0  0  0
  124.2960  135.9230   59.9110 C   0  0  0  0  0  0  0  0  0  0  0  0
  124.8650  134.7000   60.2580 C   0  0  0  0  0  0  0  0  0  0  0  0
  126.1360  132.3560   61.9910 C   0  0  0  0  0  0  0  0  0  0  0  0
  124.8130  132.5940   62.5770 C   0  0  0  0  0  0  0  0  0  0  0  0
  123.7680  132.7810   63.0370 N   0  0  0  0  0  0  0  0  0  0  0  0
  130.5410  126.9730   62.2780 C   0  0  0  0  0  0  0  0  0  0  0  0
  131.7040  126.2450   62.5130 C   0  0  0  0  0  0  0  0  0  0  0  0
  134.3800  125.0820   66.7844 H   0  0  0  0  0  0  0  0  0  0  0  0
  133.5103  126.5866   66.3303 H   0  0  0  0  0  0  0  0  0  0  0  0
  132.6434  125.0133   66.3303 H   0  0  0  0  0  0  0  0  0  0  0  0
  130.9054  124.9038   65.5483 H   0  0  0  0  0  0  0  0  0  0  0  0
  128.8255  126.2006   65.1276 H   0  0  0  0  0  0  0  0  0  0  0  0
  128.5170  128.6860   62.7530 H   0  0  0  0  0  0  0  0  0  0  0  0
  126.3536  128.6676   61.0955 H   0  0  0  0  0  0  0  0  0  0  0  0
  125.1123  127.9125   62.2063 H   0  0  0  0  0  0  0  0  0  0  0  0
  130.9267  131.1135   62.3314 H   0  0  0  0  0  0  0  0  0  0  0  0
  133.1525  130.5239   61.3984 H   0  0  0  0  0  0  0  0  0  0  0  0
  134.5963  130.2515   59.6075 H   0  0  0  0  0  0  0  0  0  0  0  0
  133.8125  129.5274   58.1625 H   0  0  0  0  0  0  0  0  0  0  0  0
  134.2650  131.2658   58.1625 H   0  0  0  0  0  0  0  0  0  0  0  0
  131.6429  131.1296   57.3974 H   0  0  0  0  0  0  0  0  0  0  0  0
  129.4183  131.7190   58.3279 H   0  0  0  0  0  0  0  0  0  0  0  0
  128.5537  133.7999   60.0459 H   0  0  0  0  0  0  0  0  0  0  0  0
  127.8606  135.8025   61.4524 H   0  0  0  0  0  0  0  0  0  0  0  0
  126.8496  137.9859   60.8373 H   0  0  0  0  0  0  0  0  0  0  0  0
  125.9347  139.8883   59.8430 H   0  0  0  0  0  0  0  0  0  0  0  0
  126.0809  138.7253   58.4818 H   0  0  0  0  0  0  0  0  0  0  0  0
  124.7640  139.9470   58.4818 H   0  0  0  0  0  0  0  0  0  0  0  0
  123.2868  135.9545   59.4744 H   0  0  0  0  0  0  0  0  0  0  0  0
  124.3027  133.7701   60.0875 H   0  0  0  0  0  0  0  0  0  0  0  0
  130.4450  127.5683   61.3580 H   0  0  0  0  0  0  0  0  0  0  0  0
  132.5174  126.2634   61.7727 H   0  0  0  0  0  0  0  0  0  0  0  0
  1  2  1  0
  2  3  1  0
  3  4  2  0
  3  5  1  0
  5  6  2  0
  6  7  1  0
  7  8  2  0
  8  9  1  0
  9 10  1  0
 10 11  2  0
 10 12  1  0
 12 13  1  0
 13 14  1  0
 14 15  2  0
 15 16  1  0
 16 17  1  0
 17 18  2  0
 18 19  1  0
 19 20  2  0
 20 21  1  0
 20 22  1  0
 22 23  2  0
 16 24  2  0
 24 25  1  0
 25 26  1  0
 26 27  2  0
 27 28  1  0
 28 29  2  0
 29 30  1  0
 30 31  1  0
 29 32  1  0
 32 33  2  0
 25 34  2  0
 34 35  1  0
 35 36  3  0
  8 37  1  0
 37 38  2  0
 38  5  1  0
 34 14  1  0
 23 17  1  0
 33 26  1  0
  1 39  1  0
  1 40  1  0
  1 41  1  0
  6 42  1  0
  7 43  1  0
  9 44  1  0
 12 45  1  0
 12 46  1  0
 18 47  1  0
 19 48  1  0
 21 49  1  0
 21 50  1  0
 21 51  1  0
 22 52  1  0
 23 53  1  0
 24 54  1  0
 27 55  1  0
 28 56  1  0
 31 57  1  0
 31 58  1  0
 31 59  1  0
 32 60  1  0
 33 61  1  0
 37 62  1  0
 38 63  1  0
M  END
>  <Binding energies>  (1) 
[-9.58]

>  <Ligand effiencies>  (1) 
[-0.24564102564102563]

>  <Interactions>  (1) 
["H-A:GLY:454:N:4049, H-A:ARG:545:NH2:4928, V-A:ARG:545:CZ:4926, V-A:ASP:366:CG:3212, H-A:TYR:484:OH:4347, V-B:GLU:543:CD:9880, H-A:ARG:545:NE:4924, V-A:ARG:545:CD:4923, V-A:ARG:545:CG:4922, V-A:TYR:539:CD1:4873, V-A:PRO:540:CB:4885, V-A:LEU:363:CD1:3188, V-A:PRO:540:N:4884, V-A:TYR:539:CE1:4875, V-A:PRO:540:CA:4883, V-B:ILE:369:CG2:8208, V-B:ASP:366:CG:8184, V-B:LEU:475:CD1:9229, V-A:ALA:541:CB:4892, V-B:ILE:369:CD1:8210, V-A:TYR:539:C:4867, V-A:GLU:543:CD:4908, H-A:GLU:543:OE1:4909, H-B:ARG:545:NH2:9900, V-A:ASP:366:CB:3211, V-A:LEU:363:CA:3184, V-A:ASN:362:C:3171, V-A:LEU:363:CB:3186, H-A:ARG:545:NH1:4927, V-B:PRO:482:CB:9297, V-A:TYR:539:CB:4871, V-B:PRO:482:CG:9298, V-B:LEU:373:CD1:8251, H-B:SER:385:OG:8381, V-B:SER:385:CB:8380, V-A:ILE:343:CG2:2991, V-B:HIS:383:CE1:8365, V-B:LEU:373:CD2:8252, H-B:GLY:454:N:9021"]

$$$$
RR7_Rahimova_2017
     RDKit          3D

 80 86  0  0  0  0  0  0  0  0999 V2000
  124.8680  122.1210   54.7990 C   0  0  0  0  0  0  0  0  0  0  0  0
  124.9310  121.8010   56.1850 O   0  0  0  0  0  0  0  0  0  0  0  0
  125.9280  122.3610   56.9600 C   0  0  0  0  0  0  0  0  0  0  0  0
  127.2060  121.8260   56.8130 C   0  0  0  0  0  0  0  0  0  0  0  0
  128.2750  122.3290   57.5480 C   0  0  0  0  0  0  0  0  0  0  0  0
  128.0870  123.3770   58.4610 C   0  0  0  0  0  0  0  0  0  0  0  0
  129.2740  123.9830   59.2740 C   0  0  0  0  0  0  0  0  0  0  0  0
  128.7260  125.0840   60.0330 O   0  0  0  0  0  0  0  0  0  0  0  0
  128.9300  126.4300   59.5920 C   0  0  0  0  0  0  0  0  0  0  0  0
  130.2240  126.9720   60.2200 C   0  0  1  0  0  0  0  0  0  0  0  0
  130.2840  128.3620   59.9080 O   0  0  0  0  0  0  0  0  0  0  0  0
  130.3380  129.1550   61.0580 C   0  0  1  0  0  0  0  0  0  0  0  0
  129.6500  130.4110   60.8310 N   0  0  0  0  0  0  0  0  0  0  0  0
  130.2030  131.6410   60.5200 C   0  0  0  0  0  0  0  0  0  0  0  0
  129.3490  132.6290   60.4130 N   0  0  0  0  0  0  0  0  0  0  0  0
  128.1440  132.0540   60.7130 C   0  0  0  0  0  0  0  0  0  0  0  0
  126.8400  132.5810   60.7890 C   0  0  0  0  0  0  0  0  0  0  0  0
  126.6460  133.9460   60.5050 N   0  0  0  0  0  0  0  0  0  0  0  0
  125.5220  134.6900   60.6270 C   0  0  0  0  0  0  0  0  0  0  0  0
  124.4350  134.2490   61.0100 O   0  0  0  0  0  0  0  0  0  0  0  0
  125.6520  136.1440   60.2250 C   0  0  0  0  0  0  0  0  0  0  0  0
  124.5040  136.8730   59.8780 C   0  0  0  0  0  0  0  0  0  0  0  0
  124.6000  138.2120   59.5110 C   0  0  0  0  0  0  0  0  0  0  0  0
  125.8430  138.8350   59.4920 C   0  0  0  0  0  0  0  0  0  0  0  0
  126.9940  138.1310   59.8370 C   0  0  0  0  0  0  0  0  0  0  0  0
  126.8990  136.7900   60.2040 C   0  0  0  0  0  0  0  0  0  0  0  0
  125.8060  131.7570   61.1370 N   0  0  0  0  0  0  0  0  0  0  0  0
  126.0930  130.4550   61.3980 C   0  0  0  0  0  0  0  0  0  0  0  0
  127.3070  129.8440   61.3510 N   0  0  0  0  0  0  0  0  0  0  0  0
  128.2990  130.6730   61.0010 C   0  0  0  0  0  0  0  0  0  0  0  0
  129.7490  128.2910   62.1680 C   0  0  0  0  0  0  0  0  0  0  0  0
  130.2710  126.9260   61.7540 C   0  0  2  0  0  0  0  0  0  0  0  0
  131.5770  126.6830   62.2480 O   0  0  0  0  0  0  0  0  0  0  0  0
  129.8630  122.9760   60.2970 C   0  0  0  0  0  0  0  0  0  0  0  0
  130.2860  121.7050   59.8770 C   0  0  0  0  0  0  0  0  0  0  0  0
  130.8030  120.7890   60.7880 C   0  0  0  0  0  0  0  0  0  0  0  0
  130.9020  121.1360   62.1320 C   0  0  0  0  0  0  0  0  0  0  0  0
  130.4890  122.3900   62.5710 C   0  0  0  0  0  0  0  0  0  0  0  0
  129.9710  123.3050   61.6590 C   0  0  0  0  0  0  0  0  0  0  0  0
  130.4840  124.4830   58.4350 C   0  0  0  0  0  0  0  0  0  0  0  0
  130.2790  125.1010   57.1910 C   0  0  0  0  0  0  0  0  0  0  0  0
  131.3560  125.5420   56.4290 C   0  0  0  0  0  0  0  0  0  0  0  0
  132.6540  125.3620   56.8990 C   0  0  0  0  0  0  0  0  0  0  0  0
  132.8810  124.7400   58.1230 C   0  0  0  0  0  0  0  0  0  0  0  0
  131.8020  124.2990   58.8840 C   0  0  0  0  0  0  0  0  0  0  0  0
  126.8020  123.9220   58.5950 C   0  0  0  0  0  0  0  0  0  0  0  0
  125.7330  123.4190   57.8590 C   0  0  0  0  0  0  0  0  0  0  0  0
  124.6568  123.1939   54.6796 H   0  0  0  0  0  0  0  0  0  0  0  0
  125.8305  121.8816   54.3233 H   0  0  0  0  0  0  0  0  0  0  0  0
  124.0680  121.5347   54.3233 H   0  0  0  0  0  0  0  0  0  0  0  0
  127.3716  120.9975   56.1087 H   0  0  0  0  0  0  0  0  0  0  0  0
  129.2787  121.9000   57.4115 H   0  0  0  0  0  0  0  0  0  0  0  0
  129.0158  126.4498   58.4955 H   0  0  0  0  0  0  0  0  0  0  0  0
  128.0781  127.0546   59.8989 H   0  0  0  0  0  0  0  0  0  0  0  0
  131.0379  126.3453   59.8267 H   0  0  0  0  0  0  0  0  0  0  0  0
  131.3564  129.4580   61.3426 H   0  0  0  0  0  0  0  0  0  0  0  0
  131.2843  131.7796   60.3729 H   0  0  0  0  0  0  0  0  0  0  0  0
  127.4670  134.4220   60.1610 H   0  0  0  0  0  0  0  0  0  0  0  0
  123.5199  136.3818   59.8963 H   0  0  0  0  0  0  0  0  0  0  0  0
  123.6959  138.7754   59.2370 H   0  0  0  0  0  0  0  0  0  0  0  0
  125.9178  139.8934   59.2019 H   0  0  0  0  0  0  0  0  0  0  0  0
  127.9736  138.6311   59.8199 H   0  0  0  0  0  0  0  0  0  0  0  0
  127.8070  136.2335   60.4792 H   0  0  0  0  0  0  0  0  0  0  0  0
  125.2415  129.8189   61.6813 H   0  0  0  0  0  0  0  0  0  0  0  0
  130.1254  128.5877   63.1581 H   0  0  0  0  0  0  0  0  0  0  0  0
  128.6556  128.3546   62.2704 H   0  0  0  0  0  0  0  0  0  0  0  0
  129.6737  126.0995   62.1666 H   0  0  0  0  0  0  0  0  0  0  0  0
  132.2000  127.2080   61.7380 H   0  0  0  0  0  0  0  0  0  0  0  0
  130.2078  121.4299   58.8148 H   0  0  0  0  0  0  0  0  0  0  0  0
  131.1317  119.7960   60.4476 H   0  0  0  0  0  0  0  0  0  0  0  0
  131.3102  120.4128   62.8534 H   0  0  0  0  0  0  0  0  0  0  0  0
  130.5715  122.6573   63.6348 H   0  0  0  0  0  0  0  0  0  0  0  0
  129.6429  124.2953   62.0077 H   0  0  0  0  0  0  0  0  0  0  0  0
  129.2546  125.2381   56.8145 H   0  0  0  0  0  0  0  0  0  0  0  0
  131.1828  126.0310   55.4590 H   0  0  0  0  0  0  0  0  0  0  0  0
  133.5060  125.7138   56.2987 H   0  0  0  0  0  0  0  0  0  0  0  0
  133.9089  124.5974   58.4877 H   0  0  0  0  0  0  0  0  0  0  0  0
  131.9837  123.8008   59.8478 H   0  0  0  0  0  0  0  0  0  0  0  0
  126.6366  124.7578   59.2907 H   0  0  0  0  0  0  0  0  0  0  0  0
  124.7302  123.8538   57.9833 H   0  0  0  0  0  0  0  0  0  0  0  0
  1  2  1  0
  2  3  1  0
  3  4  2  0
  4  5  1  0
  5  6  2  0
  6  7  1  0
  7  8  1  0
  8  9  1  0
  9 10  1  0
 10 11  1  0
 11 12  1  0
 12 13  1  0
 13 14  1  0
 14 15  2  0
 15 16  1  0
 16 17  2  0
 17 18  1  0
 18 19  1  0
 19 20  2  0
 19 21  1  0
 21 22  2  0
 22 23  1  0
 23 24  2  0
 24 25  1  0
 25 26  2  0
 17 27  1  0
 27 28  2  0
 28 29  1  0
 29 30  2  0
 12 31  1  0
 31 32  1  0
 32 33  1  0
  7 34  1  0
 34 35  2  0
 35 36  1  0
 36 37  2  0
 37 38  1  0
 38 39  2  0
  7 40  1  0
 40 41  2  0
 41 42  1  0
 42 43  2  0
 43 44  1  0
 44 45  2  0
  6 46  1  0
 46 47  2  0
 47  3  1  0
 32 10  1  0
 39 34  1  0
 45 40  1  0
 30 13  1  0
 30 16  1  0
 26 21  1  0
  1 48  1  0
  1 49  1  0
  1 50  1  0
  4 51  1  0
  5 52  1  0
  9 53  1  0
  9 54  1  0
 10 55  1  6
 12 56  1  1
 14 57  1  0
 18 58  1  0
 22 59  1  0
 23 60  1  0
 24 61  1  0
 25 62  1  0
 26 63  1  0
 28 64  1  0
 31 65  1  0
 31 66  1  0
 32 67  1  1
 33 68  1  0
 35 69  1  0
 36 70  1  0
 37 71  1  0
 38 72  1  0
 39 73  1  0
 41 74  1  0
 42 75  1  0
 43 76  1  0
 44 77  1  0
 45 78  1  0
 46 79  1  0
 47 80  1  0
M  END
>  <Binding energies>  (1) 
[-11.24]

>  <Ligand effiencies>  (1) 
[-0.22938775510204082]

>  <Interactions>  (1) 
["H-A:ARG:545:NH2:4928, V-A:ASP:366:CG:3212, V-B:ALA:541:CB:9864, V-A:TYR:539:CD1:4873, H-A:GLU:543:OE2:4910, H-A:ASP:366:OD2:3214, V-A:TYR:539:CE1:4875, V-A:PRO:540:CA:4883, V-B:ILE:369:CG2:8208, H-A:ALA:541:N:4891, V-A:TYR:539:C:4867, V-A:GLU:543:CD:4908, V-A:TYR:539:CG:4872, V-B:PRO:540:CB:9857, V-B:TYR:539:CE2:9848, V-B:PRO:540:CD:9859, V-B:PRO:540:N:9856, V-B:PRO:540:CA:9855, V-B:MET:535:CE:9807, V-B:TYR:539:CA:9841, V-B:TYR:539:CD2:9846, V-B:TYR:531:CE2:9765, V-B:TYR:539:C:9839, V-B:LEU:363:CD1:8160, V-A:ASP:366:CB:3211, V-A:LEU:475:CD1:4257, V-B:TYR:539:CG:9844, V-B:TYR:539:CZ:9849, V-A:PRO:540:C:4881, V-A:ASP:366:CA:3209, H-A:ASP:366:OD1:3213, V-A:ASP:366:C:3207, V-B:TYR:539:CE1:9847, V-B:TYR:539:CD1:9845, V-B:ILE:538:CG2:9835, V-B:ILE:538:CA:9832, H-A:TYR:539:O:4868, V-B:PRO:482:CB:9297, V-A:TYR:539:CB:4871, V-B:PRO:482:CG:9298, V-B:LEU:373:CD1:8251, H-B:SER:385:OG:8381, V-B:SER:385:CB:8380, V-A:ILE:343:CG2:2991, V-A:VAL:344:CG1:3000, V-B:SER:385:CA:8378, V-B:LEU:373:CD2:8252, V-B:MET:535:CG:9805, V-B:ILE:538:CB:9834, V-B:ILE:538:CG1:9836, V-B:MET:535:CB:9804"]

$$$$
RR8_A_Rahimova_2017
     RDKit          3D

 73 77  0  0  0  0  0  0  0  0999 V2000
  127.6750  126.3780   61.9840 O   0  0  0  0  0  0  0  0  0  0  0  0
  127.0080  127.4040   62.1540 C   0  0  0  0  0  0  0  0  0  0  0  0
  126.7930  127.9940   63.3710 O   0  0  0  0  0  0  0  0  0  0  0  0
  127.5470  129.1330   63.6810 C   0  0  1  0  0  0  0  0  0  0  0  0
  128.2570  129.6000   62.5710 O   0  0  0  0  0  0  0  0  0  0  0  0
  128.2870  131.0240   62.5210 C   0  0  2  0  0  0  0  0  0  0  0  0
  129.7540  131.4820   62.4610 C   0  0  0  0  0  0  0  0  0  0  0  0
  130.0410  131.9300   61.1430 O   0  0  0  0  0  0  0  0  0  0  0  0
  130.6380  130.9420   60.3140 C   0  0  0  0  0  0  0  0  0  0  0  0
  130.6180  131.4040   58.8650 C   0  0  0  0  0  0  0  0  0  0  0  0
  131.7920  131.3740   58.1070 C   0  0  0  0  0  0  0  0  0  0  0  0
  131.7750  131.7910   56.7780 C   0  0  0  0  0  0  0  0  0  0  0  0
  130.5820  132.2330   56.2090 C   0  0  0  0  0  0  0  0  0  0  0  0
  129.4060  132.2600   56.9550 C   0  0  0  0  0  0  0  0  0  0  0  0
  129.4230  131.8430   58.2830 C   0  0  0  0  0  0  0  0  0  0  0  0
  127.5120  131.4490   63.7750 C   0  0  1  0  0  0  0  0  0  0  0  0
  126.6830  132.5900   63.5620 O   0  0  0  0  0  0  0  0  0  0  0  0
  125.8530  132.5420   62.4070 C   0  0  0  0  0  0  0  0  0  0  0  0
  125.9130  133.8720   61.6690 C   0  0  0  0  0  0  0  0  0  0  0  0
  127.0480  134.6800   61.7870 C   0  0  0  0  0  0  0  0  0  0  0  0
  127.1060  135.9010   61.1230 C   0  0  0  0  0  0  0  0  0  0  0  0
  126.0270  136.3160   60.3430 C   0  0  0  0  0  0  0  0  0  0  0  0
  124.8900  135.5210   60.2260 C   0  0  0  0  0  0  0  0  0  0  0  0
  124.8310  134.2990   60.8920 C   0  0  0  0  0  0  0  0  0  0  0  0
  126.5970  130.2680   64.0390 C   0  0  2  0  0  0  0  0  0  0  0  0
  126.1740  130.2540   65.4000 O   0  0  0  0  0  0  0  0  0  0  0  0
  125.9670  128.9660   65.9680 C   0  0  0  0  0  0  0  0  0  0  0  0
  127.0940  128.6390   66.9360 C   0  0  0  0  0  0  0  0  0  0  0  0
  127.9590  129.6460   67.3750 C   0  0  0  0  0  0  0  0  0  0  0  0
  128.9830  129.3440   68.2690 C   0  0  0  0  0  0  0  0  0  0  0  0
  129.1380  128.0360   68.7250 C   0  0  0  0  0  0  0  0  0  0  0  0
  128.2770  127.0280   68.2970 C   0  0  0  0  0  0  0  0  0  0  0  0
  127.2520  127.3300   67.4020 C   0  0  0  0  0  0  0  0  0  0  0  0
  126.3510  128.1470   61.0270 C   0  0  0  0  0  0  0  0  0  0  0  0
  125.5210  129.2560   61.2540 C   0  0  0  0  0  0  0  0  0  0  0  0
  124.9250  129.9240   60.1870 C   0  0  0  0  0  0  0  0  0  0  0  0
  125.1410  129.5000   58.8690 C   0  0  0  0  0  0  0  0  0  0  0  0
  124.5060  130.2130   57.7340 N   0  0  0  0  0  0  0  0  0  0  0  0
  124.7270  129.8160   56.5930 O   0  0  0  0  0  0  0  0  0  0  0  0
  123.7820  131.1740   57.9740 O   0  0  0  0  0  0  0  0  0  0  0  0
  125.9660  128.3910   58.6450 C   0  0  0  0  0  0  0  0  0  0  0  0
  126.5630  127.7230   59.7090 C   0  0  0  0  0  0  0  0  0  0  0  0
  128.2308  128.8548   64.4965 H   0  0  0  0  0  0  0  0  0  0  0  0
  127.8223  131.4851   61.6370 H   0  0  0  0  0  0  0  0  0  0  0  0
  129.9139  132.3043   63.1739 H   0  0  0  0  0  0  0  0  0  0  0  0
  130.4176  130.6450   62.7238 H   0  0  0  0  0  0  0  0  0  0  0  0
  131.6787  130.7796   60.6311 H   0  0  0  0  0  0  0  0  0  0  0  0
  130.0722  130.0029   60.4034 H   0  0  0  0  0  0  0  0  0  0  0  0
  132.7300  131.0208   58.5603 H   0  0  0  0  0  0  0  0  0  0  0  0
  132.6985  131.7715   56.1807 H   0  0  0  0  0  0  0  0  0  0  0  0
  130.5690  132.5639   55.1600 H   0  0  0  0  0  0  0  0  0  0  0  0
  128.4687  132.6090   56.4971 H   0  0  0  0  0  0  0  0  0  0  0  0
  128.4964  131.8585   58.8757 H   0  0  0  0  0  0  0  0  0  0  0  0
  128.2072  131.7105   64.5864 H   0  0  0  0  0  0  0  0  0  0  0  0
  126.2017  131.7393   61.7406 H   0  0  0  0  0  0  0  0  0  0  0  0
  124.8154  132.3458   62.7151 H   0  0  0  0  0  0  0  0  0  0  0  0
  127.8957  134.3499   62.4054 H   0  0  0  0  0  0  0  0  0  0  0  0
  127.9993  136.5366   61.2128 H   0  0  0  0  0  0  0  0  0  0  0  0
  126.0747  137.2801   59.8155 H   0  0  0  0  0  0  0  0  0  0  0  0
  124.0422  135.8563   59.6105 H   0  0  0  0  0  0  0  0  0  0  0  0
  123.9330  133.6694   60.8069 H   0  0  0  0  0  0  0  0  0  0  0  0
  125.6485  130.2443   63.4825 H   0  0  0  0  0  0  0  0  0  0  0  0
  125.0084  128.9552   66.5074 H   0  0  0  0  0  0  0  0  0  0  0  0
  125.9506  128.2147   65.1647 H   0  0  0  0  0  0  0  0  0  0  0  0
  127.8306  130.6771   67.0140 H   0  0  0  0  0  0  0  0  0  0  0  0
  129.6664  130.1340   68.6137 H   0  0  0  0  0  0  0  0  0  0  0  0
  129.9482  127.7974   69.4298 H   0  0  0  0  0  0  0  0  0  0  0  0
  128.4054  125.9988   68.6635 H   0  0  0  0  0  0  0  0  0  0  0  0
  126.5675  126.5388   67.0623 H   0  0  0  0  0  0  0  0  0  0  0  0
  125.3398  129.6003   62.2829 H   0  0  0  0  0  0  0  0  0  0  0  0
  124.2786  130.7927   60.3808 H   0  0  0  0  0  0  0  0  0  0  0  0
  126.1439  128.0443   57.6163 H   0  0  0  0  0  0  0  0  0  0  0  0
  127.2077  126.8535   59.5135 H   0  0  0  0  0  0  0  0  0  0  0  0
  1  2  2  0
  2  3  1  0
  3  4  1  0
  4  5  1  0
  5  6  1  0
  6  7  1  0
  7  8  1  0
  8  9  1  0
  9 10  1  0
 10 11  2  0
 11 12  1  0
 12 13  2  0
 13 14  1  0
 14 15  2  0
  6 16  1  0
 16 17  1  0
 17 18  1  0
 18 19  1  0
 19 20  2  0
 20 21  1  0
 21 22  2  0
 22 23  1  0
 23 24  2  0
 16 25  1  0
 25 26  1  0
 26 27  1  0
 27 28  1  0
 28 29  2  0
 29 30  1  0
 30 31  2  0
 31 32  1  0
 32 33  2  0
  2 34  1  0
 34 35  2  0
 35 36  1  0
 36 37  2  0
 37 38  1  0
 38 39  2  0
 38 40  1  0
 37 41  1  0
 41 42  2  0
 25  4  1  0
 33 28  1  0
 42 34  1  0
 15 10  1  0
 24 19  1  0
  4 43  1  1
  6 44  1  6
  7 45  1  0
  7 46  1  0
  9 47  1  0
  9 48  1  0
 11 49  1  0
 12 50  1  0
 13 51  1  0
 14 52  1  0
 15 53  1  0
 16 54  1  1
 18 55  1  0
 18 56  1  0
 20 57  1  0
 21 58  1  0
 22 59  1  0
 23 60  1  0
 24 61  1  0
 25 62  1  6
 27 63  1  0
 27 64  1  0
 29 65  1  0
 30 66  1  0
 31 67  1  0
 32 68  1  0
 33 69  1  0
 35 70  1  0
 36 71  1  0
 41 72  1  0
 42 73  1  0
M  CHG  2  38   1  40  -1
M  END
>  <Binding energies>  (1) 
[-9.74]

>  <Ligand effiencies>  (1) 
[-0.23190476190476192]

>  <Interactions>  (1) 
["V-A:GLU:543:C:4902, V-B:GLU:543:CD:9880, V-A:TYR:539:CD1:4873, H-A:TYR:539:OH:4878, V-A:PRO:540:CB:4885, V-A:ILE:538:CB:4862, V-A:LEU:363:CD1:3188, V-A:PRO:540:N:4884, V-A:TYR:539:CE1:4875, V-A:PRO:540:CA:4883, V-B:ILE:369:CG2:8208, V-B:ASP:366:CG:8184, V-B:ASP:366:CA:8181, V-B:LEU:475:CD1:9229, V-A:ALA:541:CB:4892, H-B:TYR:531:OH:9767, V-B:ASP:366:CB:8183, H-A:ALA:541:N:4891, V-A:TYR:539:C:4867, V-A:PRO:540:CD:4887, V-A:GLU:543:CD:4908, V-A:ALA:541:CA:4890, V-A:TYR:539:CZ:4877, V-A:GLU:543:CG:4907, V-A:TYR:539:CG:4872, V-B:ASP:366:C:8179, H-B:ARG:545:NH2:9900, V-A:GLU:543:CA:4904, V-B:GLU:543:CB:9878, V-A:GLU:543:CB:4906, V-B:HIS:456:CE1:9041, V-B:TYR:484:CZ:9318, V-B:TYR:484:CE2:9317, V-B:ARG:545:CZ:9898, V-B:PRO:482:CB:9297, V-A:TYR:539:CB:4871, V-B:PRO:482:CG:9298, V-B:LEU:373:CD1:8251, V-B:SER:385:CB:8380, H-B:TYR:484:OH:9319, V-A:TYR:539:CA:4869"]

$$$$
RR8_B_Rahimova_2017
     RDKit          3D

 73 77  0  0  0  0  0  0  0  0999 V2000
  129.5140  132.6270   56.4270 O   0  0  0  0  0  0  0  0  0  0  0  0
  129.2510  131.6780   57.1730 C   0  0  0  0  0  0  0  0  0  0  0  0
  128.7090  131.8050   58.4220 O   0  0  0  0  0  0  0  0  0  0  0  0
  129.5520  132.2020   59.4750 C   0  0  2  0  0  0  0  0  0  0  0  0
  130.3960  131.1650   59.8880 O   0  0  0  0  0  0  0  0  0  0  0  0
  129.8120  130.4070   60.9470 C   0  0  2  0  0  0  0  0  0  0  0  0
  129.7000  128.9320   60.5220 C   0  0  0  0  0  0  0  0  0  0  0  0
  128.3280  128.5590   60.4850 O   0  0  0  0  0  0  0  0  0  0  0  0
  127.8020  128.3410   59.1840 C   0  0  0  0  0  0  0  0  0  0  0  0
  126.5040  129.1180   59.0320 C   0  0  0  0  0  0  0  0  0  0  0  0
  125.9230  129.2580   57.7680 C   0  0  0  0  0  0  0  0  0  0  0  0
  124.7470  129.9890   57.6180 C   0  0  0  0  0  0  0  0  0  0  0  0
  124.1540  130.5760   58.7350 C   0  0  0  0  0  0  0  0  0  0  0  0
  124.7230  130.4350   59.9980 C   0  0  0  0  0  0  0  0  0  0  0  0
  125.9010  129.7070   60.1480 C   0  0  0  0  0  0  0  0  0  0  0  0
  128.4810  131.1150   61.2310 C   0  0  1  0  0  0  0  0  0  0  0  0
  128.1950  131.0670   62.6310 O   0  0  0  0  0  0  0  0  0  0  0  0
  128.1150  129.7740   63.2350 C   0  0  0  0  0  0  0  0  0  0  0  0
  126.8830  129.6260   64.1230 C   0  0  0  0  0  0  0  0  0  0  0  0
  125.6300  130.0370   63.6580 C   0  0  0  0  0  0  0  0  0  0  0  0
  124.5030  129.8710   64.4590 C   0  0  0  0  0  0  0  0  0  0  0  0
  124.6330  129.2990   65.7230 C   0  0  0  0  0  0  0  0  0  0  0  0
  125.8790  128.8920   66.1950 C   0  0  0  0  0  0  0  0  0  0  0  0
  127.0070  129.0540   65.3930 C   0  0  0  0  0  0  0  0  0  0  0  0
  128.7100  132.5280   60.7080 C   0  0  2  0  0  0  0  0  0  0  0  0
  127.4650  133.1530   60.4050 O   0  0  0  0  0  0  0  0  0  0  0  0
  126.8460  133.8420   61.4800 C   0  0  0  0  0  0  0  0  0  0  0  0
  126.1110  135.0440   60.9150 C   0  0  0  0  0  0  0  0  0  0  0  0
  124.8040  134.9120   60.4360 C   0  0  0  0  0  0  0  0  0  0  0  0
  124.1460  136.0170   59.9020 C   0  0  0  0  0  0  0  0  0  0  0  0
  124.7960  137.2480   59.8470 C   0  0  0  0  0  0  0  0  0  0  0  0
  126.0980  137.3870   60.3240 C   0  0  0  0  0  0  0  0  0  0  0  0
  126.7560  136.2840   60.8590 C   0  0  0  0  0  0  0  0  0  0  0  0
  129.5300  130.2480   56.8120 C   0  0  0  0  0  0  0  0  0  0  0  0
  130.6030  129.5390   57.3740 C   0  0  0  0  0  0  0  0  0  0  0  0
  130.8430  128.2180   57.0140 C   0  0  0  0  0  0  0  0  0  0  0  0
  130.0260  127.5740   56.0770 C   0  0  0  0  0  0  0  0  0  0  0  0
  130.3000  126.1720   55.6750 N   0  0  0  0  0  0  0  0  0  0  0  0
  131.2640  125.9460   54.9490 O   0  0  0  0  0  0  0  0  0  0  0  0
  129.5550  125.2860   56.0870 O   0  0  0  0  0  0  0  0  0  0  0  0
  128.9510  128.2800   55.5210 C   0  0  0  0  0  0  0  0  0  0  0  0
  128.7050  129.5990   55.8860 C   0  0  0  0  0  0  0  0  0  0  0  0
  130.1313  133.0592   59.1014 H   0  0  0  0  0  0  0  0  0  0  0  0
  130.4031  130.3689   61.8739 H   0  0  0  0  0  0  0  0  0  0  0  0
  130.1437  128.8020   59.5239 H   0  0  0  0  0  0  0  0  0  0  0  0
  130.2361  128.2978   61.2433 H   0  0  0  0  0  0  0  0  0  0  0  0
  128.5270  128.6853   58.4318 H   0  0  0  0  0  0  0  0  0  0  0  0
  127.6091  127.2678   59.0388 H   0  0  0  0  0  0  0  0  0  0  0  0
  126.3951  128.7904   56.8913 H   0  0  0  0  0  0  0  0  0  0  0  0
  124.2889  130.1025   56.6244 H   0  0  0  0  0  0  0  0  0  0  0  0
  123.2271  131.1565   58.6173 H   0  0  0  0  0  0  0  0  0  0  0  0
  124.2440  130.8968   60.8740 H   0  0  0  0  0  0  0  0  0  0  0  0
  126.3565  129.5955   61.1430 H   0  0  0  0  0  0  0  0  0  0  0  0
  127.6068  130.6531   60.7490 H   0  0  0  0  0  0  0  0  0  0  0  0
  128.0720  129.0143   62.4406 H   0  0  0  0  0  0  0  0  0  0  0  0
  129.0047  129.6423   63.8684 H   0  0  0  0  0  0  0  0  0  0  0  0
  125.5346  130.4909   62.6606 H   0  0  0  0  0  0  0  0  0  0  0  0
  123.5149  130.1899   64.0957 H   0  0  0  0  0  0  0  0  0  0  0  0
  123.7423  129.1674   66.3549 H   0  0  0  0  0  0  0  0  0  0  0  0
  125.9719  128.4450   67.1958 H   0  0  0  0  0  0  0  0  0  0  0  0
  127.9935  128.7324   65.7584 H   0  0  0  0  0  0  0  0  0  0  0  0
  129.1899  133.2409   61.3946 H   0  0  0  0  0  0  0  0  0  0  0  0
  126.1336  133.1754   61.9881 H   0  0  0  0  0  0  0  0  0  0  0  0
  127.6037  134.1685   62.2075 H   0  0  0  0  0  0  0  0  0  0  0  0
  124.2965  133.9371   60.4809 H   0  0  0  0  0  0  0  0  0  0  0  0
  123.1173  135.9183   59.5252 H   0  0  0  0  0  0  0  0  0  0  0  0
  124.2760  138.1195   59.4226 H   0  0  0  0  0  0  0  0  0  0  0  0
  126.6027  138.3633   60.2778 H   0  0  0  0  0  0  0  0  0  0  0  0
  127.7835  136.3871   61.2380 H   0  0  0  0  0  0  0  0  0  0  0  0
  131.2596  130.0328   58.1055 H   0  0  0  0  0  0  0  0  0  0  0  0
  131.6830  127.6733   57.4697 H   0  0  0  0  0  0  0  0  0  0  0  0
  128.2954  127.7861   54.7887 H   0  0  0  0  0  0  0  0  0  0  0  0
  127.8542  130.1374   55.4430 H   0  0  0  0  0  0  0  0  0  0  0  0
  1  2  2  0
  2  3  1  0
  3  4  1  0
  4  5  1  0
  5  6  1  0
  6  7  1  0
  7  8  1  0
  8  9  1  0
  9 10  1  0
 10 11  2  0
 11 12  1  0
 12 13  2  0
 13 14  1  0
 14 15  2  0
  6 16  1  0
 16 17  1  0
 17 18  1  0
 18 19  1  0
 19 20  2  0
 20 21  1  0
 21 22  2  0
 22 23  1  0
 23 24  2  0
 16 25  1  0
 25 26  1  0
 26 27  1  0
 27 28  1  0
 28 29  2  0
 29 30  1  0
 30 31  2  0
 31 32  1  0
 32 33  2  0
  2 34  1  0
 34 35  2  0
 35 36  1  0
 36 37  2  0
 37 38  1  0
 38 39  2  0
 38 40  1  0
 37 41  1  0
 41 42  2  0
 25  4  1  0
 33 28  1  0
 42 34  1  0
 15 10  1  0
 24 19  1  0
  4 43  1  6
  6 44  1  1
  7 45  1  0
  7 46  1  0
  9 47  1  0
  9 48  1  0
 11 49  1  0
 12 50  1  0
 13 51  1  0
 14 52  1  0
 15 53  1  0
 16 54  1  6
 18 55  1  0
 18 56  1  0
 20 57  1  0
 21 58  1  0
 22 59  1  0
 23 60  1  0
 24 61  1  0
 25 62  1  1
 27 63  1  0
 27 64  1  0
 29 65  1  0
 30 66  1  0
 31 67  1  0
 32 68  1  0
 33 69  1  0
 35 70  1  0
 36 71  1  0
 41 72  1  0
 42 73  1  0
M  CHG  2  38   1  40  -1
M  END
>  <Binding energies>  (1) 
[-9.67]

>  <Ligand effiencies>  (1) 
[-0.23023809523809524]

>  <Interactions>  (1) 
["V-A:TYR:539:CD1:4873, V-A:PRO:540:N:4884, V-A:TYR:539:CE1:4875, V-A:PRO:540:CA:4883, V-B:ILE:369:CG2:8208, V-B:ASP:366:CG:8184, V-B:ASP:366:CA:8181, V-B:LEU:475:CD1:9229, V-A:ALA:541:CB:4892, V-B:ILE:369:CB:8207, V-B:ASP:366:CB:8183, V-A:TYR:539:C:4867, V-A:GLU:543:CD:4908, V-A:TYR:539:CZ:4877, V-B:ASP:366:C:8179, V-B:HIS:456:CE1:9041, H-B:TYR:539:OH:9850, H-A:TYR:531:OH:4795, V-A:PRO:540:C:4881, V-B:GLY:454:CA:9020, V-B:ARG:545:CZ:9898, V-B:ARG:545:CD:9895, H-A:TYR:539:N:4870, V-B:PRO:482:CB:9297, V-A:TYR:539:CB:4871, V-B:PRO:482:CG:9298, V-B:LEU:373:CD1:8251, V-B:SER:385:CB:8380, V-B:SER:385:CA:8378"]

$$$$
RR9_Rahimova_2017
     RDKit          3D

 64 68  0  0  0  0  0  0  0  0999 V2000
  130.8990  128.4390   72.6780 C   0  0  0  0  0  0  0  0  0  0  0  0
  129.6500  127.5580   72.5740 C   0  0  0  0  0  0  0  0  0  0  0  0
  129.7540  126.7530   71.4040 O   0  0  0  0  0  0  0  0  0  0  0  0
  129.2050  127.2050   70.2190 C   0  0  0  0  0  0  0  0  0  0  0  0
  128.4220  126.2960   69.5090 C   0  0  0  0  0  0  0  0  0  0  0  0
  127.8300  126.6610   68.3040 C   0  0  0  0  0  0  0  0  0  0  0  0
  128.0040  127.9480   67.7740 C   0  0  0  0  0  0  0  0  0  0  0  0
  127.3720  128.3460   66.4730 C   0  0  0  0  0  0  0  0  0  0  0  0
  127.8390  127.8490   65.2460 C   0  0  0  0  0  0  0  0  0  0  0  0
  127.2340  128.2150   64.0300 C   0  0  0  0  0  0  0  0  0  0  0  0
  127.7150  127.5710   62.7580 C   0  0  0  0  0  0  0  0  0  0  0  0
  128.4970  128.1650   62.0160 O   0  0  0  0  0  0  0  0  0  0  0  0
  127.2180  126.3450   62.4980 N   0  0  0  0  0  0  0  0  0  0  0  0
  127.4310  125.5740   61.2690 C   0  0  0  0  0  0  0  0  0  0  0  0
  126.3790  124.4610   61.0620 C   0  0  0  0  0  0  0  0  0  0  0  0
  126.3990  123.8130   59.6820 C   0  0  0  0  0  0  0  0  0  0  0  0
  127.5420  123.1400   59.2390 C   0  0  0  0  0  0  0  0  0  0  0  0
  127.5450  122.5210   57.9920 C   0  0  0  0  0  0  0  0  0  0  0  0
  126.4070  122.5810   57.1900 C   0  0  0  0  0  0  0  0  0  0  0  0
  125.2660  123.2540   57.6220 C   0  0  0  0  0  0  0  0  0  0  0  0
  125.2630  123.8720   58.8700 C   0  0  0  0  0  0  0  0  0  0  0  0
  126.1580  129.1330   64.1150 C   0  0  0  0  0  0  0  0  0  0  0  0
  125.2560  129.8340   63.2330 C   0  0  0  0  0  0  0  0  0  0  0  0
  125.2210  129.8650   61.7410 C   0  0  0  0  0  0  0  0  0  0  0  0
  125.6670  128.7650   61.0030 C   0  0  0  0  0  0  0  0  0  0  0  0
  125.6490  128.8020   59.6110 C   0  0  0  0  0  0  0  0  0  0  0  0
  125.1810  129.9390   58.9510 C   0  0  0  0  0  0  0  0  0  0  0  0
  125.1780  129.9880   57.4340 C   0  0  0  0  0  0  0  0  0  0  0  0
  124.7360  131.0410   59.6840 C   0  0  0  0  0  0  0  0  0  0  0  0
  124.7530  131.0010   61.0750 C   0  0  0  0  0  0  0  0  0  0  0  0
  124.3880  130.5380   63.9250 N   0  0  0  0  0  0  0  0  0  0  0  0
  124.6880  130.3990   65.2270 N   0  0  0  0  0  0  0  0  0  0  0  0
  125.7650  129.5630   65.4050 C   0  0  0  0  0  0  0  0  0  0  0  0
  126.3250  129.2140   66.5620 N   0  0  0  0  0  0  0  0  0  0  0  0
  128.7940  128.8560   68.4930 C   0  0  0  0  0  0  0  0  0  0  0  0
  129.3870  128.4940   69.7010 C   0  0  0  0  0  0  0  0  0  0  0  0
  131.1404  128.6093   73.7376 H   0  0  0  0  0  0  0  0  0  0  0  0
  131.7444  127.9362   72.1855 H   0  0  0  0  0  0  0  0  0  0  0  0
  130.7090  129.4041   72.1855 H   0  0  0  0  0  0  0  0  0  0  0  0
  129.5775  126.9126   73.4618 H   0  0  0  0  0  0  0  0  0  0  0  0
  128.7508  128.1888   72.5156 H   0  0  0  0  0  0  0  0  0  0  0  0
  128.2709  125.2810   69.9051 H   0  0  0  0  0  0  0  0  0  0  0  0
  127.2161  125.9291   67.7586 H   0  0  0  0  0  0  0  0  0  0  0  0
  128.6957  127.1591   65.2352 H   0  0  0  0  0  0  0  0  0  0  0  0
  126.6520  125.9010   63.2060 H   0  0  0  0  0  0  0  0  0  0  0  0
  127.3862  126.2620   60.4119 H   0  0  0  0  0  0  0  0  0  0  0  0
  128.4130  125.0857   61.3540 H   0  0  0  0  0  0  0  0  0  0  0  0
  126.5587  123.6762   61.8115 H   0  0  0  0  0  0  0  0  0  0  0  0
  125.3948  124.9413   61.1651 H   0  0  0  0  0  0  0  0  0  0  0  0
  128.4382  123.0997   59.8755 H   0  0  0  0  0  0  0  0  0  0  0  0
  128.4409  121.9874   57.6417 H   0  0  0  0  0  0  0  0  0  0  0  0
  126.4095  122.0916   56.2049 H   0  0  0  0  0  0  0  0  0  0  0  0
  124.3730  123.2969   56.9812 H   0  0  0  0  0  0  0  0  0  0  0  0
  124.3664  124.4067   59.2167 H   0  0  0  0  0  0  0  0  0  0  0  0
  126.0332  127.8676   61.5231 H   0  0  0  0  0  0  0  0  0  0  0  0
  126.0032  127.9361   59.0325 H   0  0  0  0  0  0  0  0  0  0  0  0
  125.1139  131.0344   57.1011 H   0  0  0  0  0  0  0  0  0  0  0  0
  126.1054  129.5374   57.0508 H   0  0  0  0  0  0  0  0  0  0  0  0
  124.3125  129.4276   57.0508 H   0  0  0  0  0  0  0  0  0  0  0  0
  124.3727  131.9391   59.1630 H   0  0  0  0  0  0  0  0  0  0  0  0
  124.3967  131.8668   61.6524 H   0  0  0  0  0  0  0  0  0  0  0  0
  124.1450  130.8740   65.9330 H   0  0  0  0  0  0  0  0  0  0  0  0
  128.9483  129.8707   68.0972 H   0  0  0  0  0  0  0  0  0  0  0  0
  130.0006  129.2233   70.2502 H   0  0  0  0  0  0  0  0  0  0  0  0
  1  2  1  0
  2  3  1  0
  3  4  1  0
  4  5  2  0
  5  6  1  0
  6  7  2  0
  7  8  1  0
  8  9  2  0
  9 10  1  0
 10 11  1  0
 11 12  2  0
 11 13  1  0
 13 14  1  0
 14 15  1  0
 15 16  1  0
 16 17  2  0
 17 18  1  0
 18 19  2  0
 19 20  1  0
 20 21  2  0
 10 22  2  0
 22 23  1  0
 23 24  1  0
 24 25  2  0
 25 26  1  0
 26 27  2  0
 27 28  1  0
 27 29  1  0
 29 30  2  0
 23 31  2  0
 31 32  1  0
 32 33  1  0
 33 34  2  0
  7 35  1  0
 35 36  2  0
 36  4  1  0
 34  8  1  0
 21 16  1  0
 33 22  1  0
 30 24  1  0
  1 37  1  0
  1 38  1  0
  1 39  1  0
  2 40  1  0
  2 41  1  0
  5 42  1  0
  6 43  1  0
  9 44  1  0
 13 45  1  0
 14 46  1  0
 14 47  1  0
 15 48  1  0
 15 49  1  0
 17 50  1  0
 18 51  1  0
 19 52  1  0
 20 53  1  0
 21 54  1  0
 25 55  1  0
 26 56  1  0
 28 57  1  0
 28 58  1  0
 28 59  1  0
 29 60  1  0
 30 61  1  0
 32 62  1  0
 35 63  1  0
 36 64  1  0
M  END
>  <Binding energies>  (1) 
[-9.15]

>  <Ligand effiencies>  (1) 
[-0.24078947368421053]

>  <Interactions>  (1) 
["V-A:GLY:544:CA:4914, V-A:LYS:547:CE:4950, V-A:GLU:543:C:4902, V-A:HIS:456:CE1:4069, H-A:HIS:456:ND1:4066, V-B:GLU:543:CD:9880, H-B:GLU:543:OE1:9881, H-B:GLU:543:OE2:9882, V-A:TYR:539:CE1:4875, V-B:ILE:369:CG2:8208, V-B:ASP:366:CG:8184, V-B:ASP:366:CB:8183, V-A:GLU:543:CD:4908, V-A:TYR:539:CZ:4877, V-B:PRO:540:CB:9857, V-B:PRO:540:CD:9859, V-B:PRO:540:N:9856, V-B:PRO:540:CA:9855, V-B:MET:535:CE:9807, V-B:TYR:539:C:9839, V-B:LEU:363:CD1:8160, V-B:GLU:543:CB:9878, V-B:GLU:543:C:9874, V-A:GLU:543:CB:4906, V-B:HIS:456:CE1:9041, V-B:GLY:454:CA:9020, V-B:ARG:545:CZ:9898, V-A:GLY:544:C:4912, H-B:GLY:454:N:9021, H-B:TYR:484:OH:9319"]

$$$$
