lig1.pdb
 OpenBabel06022622383D

 42 44  0  0  1  0  0  0  0  0999 V2000
  157.3600  134.2220   60.5570 C   0  0  0  0  0  0  0  0  0  0  0  0
  151.4930  128.9520   58.8360 N   0  0  0  0  0  0  0  0  0  0  0  0
  156.9430  135.4870   60.0420 O   0  0  0  0  0  0  0  0  0  0  0  0
  156.3100  133.7490   61.5760 C   0  0  1  0  0  0  0  0  0  0  0  0
  152.3130  130.2400   60.6890 N   0  0  0  0  0  0  0  0  0  0  0  0
  154.9940  133.8300   60.9740 O   0  0  0  0  0  0  0  0  0  0  0  0
  156.4640  132.2760   62.0560 C   0  0  1  0  0  0  0  0  0  0  0  0
  152.2790  129.2190   56.7940 N   0  3  0  0  0  0  0  0  0  0  0  0
  157.4180  132.1230   63.1190 O   0  0  0  0  0  0  0  0  0  0  0  0
  155.0020  131.9910   62.4980 C   0  0  1  0  0  0  0  0  0  0  0  0
  154.1750  131.3010   57.8470 N   0  3  0  0  0  0  0  0  0  0  0  0
  154.6940  132.6190   63.7530 O   0  0  0  0  0  0  0  0  0  0  0  0
  154.2340  132.6470   61.3050 C   0  0  2  0  0  0  0  0  0  0  0  0
  154.0790  131.8370   60.0960 N   0  0  1  0  0  0  0  0  0  0  0  0
  151.5070  129.3200   60.1190 C   0  0  0  0  0  0  0  0  0  0  0  0
  153.1700  130.8440   59.8580 C   0  0  2  0  0  0  0  0  0  0  0  0
  153.2290  130.5510   58.5340 C   0  0  1  0  0  0  0  0  0  0  0  0
  152.3510  129.5810   58.0700 C   0  0  1  0  0  0  0  0  0  0  0  0
  154.6580  132.0740   58.8320 C   0  0  0  0  0  0  0  0  0  0  0  0
  151.7090  127.9680   58.7650 H   0  0  0  0  0  0  0  0  0  0  0  0
  151.7510  130.9710   61.1010 H   0  0  0  0  0  0  0  0  0  0  0  0
  156.3410  134.4070   62.4440 H   0  0  0  0  0  0  0  0  0  0  0  0
  156.7330  131.6350   61.2160 H   0  0  0  0  0  0  0  0  0  0  0  0
  154.8110  130.9190   62.5420 H   0  0  0  0  0  0  0  0  0  0  0  0
  153.2460  132.9520   61.6510 H   0  0  0  0  0  0  0  0  0  0  0  0
  153.9250  130.0870   60.0700 H   0  0  0  0  0  0  0  0  0  0  0  0
  153.9770  129.7840   58.7330 H   0  0  0  0  0  0  0  0  0  0  0  0
  153.0960  128.8070   58.2560 H   0  0  0  0  0  0  0  0  0  0  0  0
  156.0880  135.3930   59.6150 H   0  0  0  0  0  0  0  0  0  0  0  0
  157.4700  131.1980   63.3720 H   0  0  0  0  0  0  0  0  0  0  0  0
  154.5380  131.9450   64.4190 H   0  0  0  0  0  0  0  0  0  0  0  0
  154.5260  133.1230   58.5650 H   0  0  0  0  0  0  0  0  0  0  0  0
  155.7380  131.9410   58.8990 H   0  0  0  0  0  0  0  0  0  0  0  0
  158.3240  134.3320   61.0540 H   0  0  0  0  0  0  0  0  0  0  0  0
  157.4250  133.5020   59.7420 H   0  0  0  0  0  0  0  0  0  0  0  0
  152.9610  129.7360   56.2580 H   0  0  0  0  0  0  0  0  0  0  0  0
  152.4670  128.2300   56.7130 H   0  0  0  0  0  0  0  0  0  0  0  0
  151.3540  129.4150   56.4400 H   0  0  0  0  0  0  0  0  0  0  0  0
  153.7060  131.8840   57.1680 H   0  0  0  0  0  0  0  0  0  0  0  0
  154.9070  130.6890   57.5170 H   0  0  0  0  0  0  0  0  0  0  0  0
  151.5390  128.4170   60.7290 H   0  0  0  0  0  0  0  0  0  0  0  0
  150.4820  129.5350   60.4200 H   0  0  0  0  0  0  0  0  0  0  0  0
  1 34  1  0  0  0  0
  1  4  1  0  0  0  0
  2 15  1  0  0  0  0
  3  1  1  0  0  0  0
  4  7  1  1  0  0  0
  4 22  1  0  0  0  0
  5 21  1  0  0  0  0
  6 13  1  0  0  0  0
  6  4  1  0  0  0  0
  7 10  1  1  0  0  0
  7  9  1  0  0  0  0
  8 18  1  0  0  0  0
  9 30  1  0  0  0  0
 10 13  1  6  0  0  0
 10 24  1  0  0  0  0
 10 12  1  0  0  0  0
 11 17  1  0  0  0  0
 11 19  1  0  0  0  0
 12 31  1  0  0  0  0
 13 25  1  1  0  0  0
 14 16  1  6  0  0  0
 14 13  1  0  0  0  0
 15 42  1  0  0  0  0
 15  5  1  0  0  0  0
 15 41  1  0  0  0  0
 16 17  1  6  0  0  0
 16 26  1  0  0  0  0
 16  5  1  0  0  0  0
 17 18  1  6  0  0  0
 17 27  1  0  0  0  0
 18 28  1  1  0  0  0
 18  2  1  0  0  0  0
 19 33  1  0  0  0  0
 19 14  1  0  0  0  0
 20  2  1  0  0  0  0
 23  7  1  0  0  0  0
 29  3  1  0  0  0  0
 32 19  1  0  0  0  0
 35  1  1  0  0  0  0
 36  8  1  0  0  0  0
 37  8  1  0  0  0  0
 38  8  1  0  0  0  0
 39 11  1  0  0  0  0
 40 11  1  0  0  0  0
M  CHG  2   8   1  11   1
M  END
$$$$
