lig2.pdb
 OpenBabel06022622383D

 42 44  0  0  1  0  0  0  0  0999 V2000
  100.1350  119.4880   63.2430 C   0  0  0  0  0  0  0  0  0  0  0  0
  104.4290  125.2990   59.0510 N   0  0  0  0  0  0  0  0  0  0  0  0
  100.5510  118.2190   62.7210 O   0  0  0  0  0  0  0  0  0  0  0  0
  101.3840  120.3130   63.6250 C   0  0  1  0  0  0  0  0  0  0  0  0
  104.4880  124.0130   61.0770 N   0  0  0  0  0  0  0  0  0  0  0  0
  102.2210  120.4610   62.4540 O   0  0  0  0  0  0  0  0  0  0  0  0
  101.1210  121.7790   64.0730 C   0  0  1  0  0  0  0  0  0  0  0  0
  102.7300  125.1770   57.6320 N   0  3  0  0  0  0  0  0  0  0  0  0
  100.6080  121.9000   65.4020 O   0  0  0  0  0  0  0  0  0  0  0  0
  102.5600  122.3470   63.9160 C   0  0  1  0  0  0  0  0  0  0  0  0
  101.3980  123.2110   59.4960 N   0  3  0  0  0  0  0  0  0  0  0  0
  103.4460  121.9070   64.9510 O   0  0  0  0  0  0  0  0  0  0  0  0
  102.9270  121.7320   62.5320 C   0  0  2  0  0  0  0  0  0  0  0  0
  102.5500  122.5500   61.3830 N   0  0  1  0  0  0  0  0  0  0  0  0
  105.0020  124.8940   60.1950 C   0  0  0  0  0  0  0  0  0  0  0  0
  103.2930  123.5100   60.7570 C   0  0  2  0  0  0  0  0  0  0  0  0
  102.6160  123.8720   59.6360 C   0  0  1  0  0  0  0  0  0  0  0  0
  103.2420  124.7930   58.8040 C   0  0  1  0  0  0  0  0  0  0  0  0
  101.3960  122.4370   60.5910 C   0  0  0  0  0  0  0  0  0  0  0  0
  104.3130  126.3020   59.0690 H   0  0  0  0  0  0  0  0  0  0  0  0
  105.1130  123.2250   61.1690 H   0  0  0  0  0  0  0  0  0  0  0  0
  101.9390  119.7900   64.4040 H   0  0  0  0  0  0  0  0  0  0  0  0
  100.4490  122.2690   63.3680 H   0  0  0  0  0  0  0  0  0  0  0  0
  102.5410  123.4350   63.8610 H   0  0  0  0  0  0  0  0  0  0  0  0
  104.0000  121.5450   62.4990 H   0  0  0  0  0  0  0  0  0  0  0  0
  102.7940  124.2920   61.3300 H   0  0  0  0  0  0  0  0  0  0  0  0
  102.1270  124.6800   60.1800 H   0  0  0  0  0  0  0  0  0  0  0  0
  102.7550  125.6230   59.3160 H   0  0  0  0  0  0  0  0  0  0  0  0
  101.0970  118.3560   61.9430 H   0  0  0  0  0  0  0  0  0  0  0  0
  100.9760  122.6830   65.8170 H   0  0  0  0  0  0  0  0  0  0  0  0
  103.6750  122.6500   65.5140 H   0  0  0  0  0  0  0  0  0  0  0  0
  101.2600  121.3960   60.2970 H   0  0  0  0  0  0  0  0  0  0  0  0
  100.5190  122.6690   61.1950 H   0  0  0  0  0  0  0  0  0  0  0  0
   99.5180  119.3320   64.1280 H   0  0  0  0  0  0  0  0  0  0  0  0
   99.5640  120.0230   62.4840 H   0  0  0  0  0  0  0  0  0  0  0  0
  101.8220  124.7540   57.5060 H   0  0  0  0  0  0  0  0  0  0  0  0
  102.6370  126.1830   57.6180 H   0  0  0  0  0  0  0  0  0  0  0  0
  103.3430  124.8850   56.8840 H   0  0  0  0  0  0  0  0  0  0  0  0
  101.4330  122.6230   58.6750 H   0  0  0  0  0  0  0  0  0  0  0  0
  100.6470  123.8830   59.5640 H   0  0  0  0  0  0  0  0  0  0  0  0
  105.3230  125.7780   60.7460 H   0  0  0  0  0  0  0  0  0  0  0  0
  106.0270  124.5960   59.9750 H   0  0  0  0  0  0  0  0  0  0  0  0
  1  4  1  0  0  0  0
  1 34  1  0  0  0  0
  2 20  1  0  0  0  0
  2 15  1  0  0  0  0
  3  1  1  0  0  0  0
  4  7  1  1  0  0  0
  4 22  1  0  0  0  0
  5 21  1  0  0  0  0
  6 13  1  0  0  0  0
  6  4  1  0  0  0  0
  7 10  1  6  0  0  0
  7  9  1  0  0  0  0
  8 18  1  0  0  0  0
  9 30  1  0  0  0  0
 10 13  1  6  0  0  0
 10 12  1  0  0  0  0
 11 40  1  0  0  0  0
 11 17  1  0  0  0  0
 11 19  1  0  0  0  0
 12 31  1  0  0  0  0
 13 25  1  6  0  0  0
 14 16  1  6  0  0  0
 14 13  1  0  0  0  0
 15 41  1  0  0  0  0
 15  5  1  0  0  0  0
 16 17  1  6  0  0  0
 16  5  1  0  0  0  0
 16 26  1  0  0  0  0
 17 18  1  6  0  0  0
 17 27  1  0  0  0  0
 18  2  1  0  0  0  0
 18 28  1  1  0  0  0
 19 33  1  0  0  0  0
 19 14  1  0  0  0  0
 23  7  1  0  0  0  0
 24 10  1  0  0  0  0
 29  3  1  0  0  0  0
 32 19  1  0  0  0  0
 35  1  1  0  0  0  0
 36  8  1  0  0  0  0
 37  8  1  0  0  0  0
 38  8  1  0  0  0  0
 39 11  1  0  0  0  0
 42 15  1  0  0  0  0
M  CHG  2   8   1  11   1
M  END
$$$$
