1a_Ghoteimi_2023
     RDKit          3D

 40 43  0  0  0  0  0  0  0  0999 V2000
  131.3300  131.8560   55.5290 C   0  0  0  0  0  0  0  0  0  0  0  0
  131.9630  132.3400   56.8370 C   0  0  0  0  0  0  0  0  0  0  0  0
  131.1650  133.3810   57.3890 O   0  0  0  0  0  0  0  0  0  0  0  0
  129.8460  133.1910   57.6460 C   0  0  0  0  0  0  0  0  0  0  0  0
  128.9550  133.3840   56.8130 O   0  0  0  0  0  0  0  0  0  0  0  0
  129.5770  132.7180   59.0460 C   0  0  0  0  0  0  0  0  0  0  0  0
  128.5520  133.2660   59.8310 C   0  0  0  0  0  0  0  0  0  0  0  0
  128.3290  132.8100   61.1270 C   0  0  0  0  0  0  0  0  0  0  0  0
  129.1290  131.7880   61.6620 C   0  0  0  0  0  0  0  0  0  0  0  0
  128.9960  131.2550   62.9580 N   0  0  0  0  0  0  0  0  0  0  0  0
  128.2260  131.6670   63.9890 C   0  0  0  0  0  0  0  0  0  0  0  0
  127.4530  132.6240   63.9670 O   0  0  0  0  0  0  0  0  0  0  0  0
  128.3490  130.8440   65.2710 C   0  0  0  0  0  0  0  0  0  0  0  0
  127.3270  129.3430   65.2070 S   0  0  0  0  0  0  0  0  0  0  0  0
  128.2910  128.0550   65.9640 C   0  0  0  0  0  0  0  0  0  0  0  0
  128.2460  128.0580   67.3170 N   0  0  0  0  0  0  0  0  0  0  0  0
  128.9360  127.1200   68.0180 C   0  0  0  0  0  0  0  0  0  0  0  0
  128.8180  127.1770   69.5140 C   0  0  0  0  0  0  0  0  0  0  0  0
  127.5830  126.9950   70.1560 C   0  0  0  0  0  0  0  0  0  0  0  0
  127.4770  127.0480   71.5430 C   0  0  0  0  0  0  0  0  0  0  0  0
  128.6000  127.2850   72.3310 C   0  0  0  0  0  0  0  0  0  0  0  0
  128.4020  127.3180   73.6990 O   0  0  0  0  0  0  0  0  0  0  0  0
  127.8610  128.4920   74.2930 C   0  0  0  0  0  0  0  0  0  0  0  0
  129.8400  127.4730   71.7050 C   0  0  0  0  0  0  0  0  0  0  0  0
  129.9420  127.4200   70.3190 C   0  0  0  0  0  0  0  0  0  0  0  0
  129.6970  126.1510   67.3530 C   0  0  0  0  0  0  0  0  0  0  0  0
  129.7790  126.1430   65.9540 C   0  0  0  0  0  0  0  0  0  0  0  0
  130.6350  125.0990   65.3140 C   0  0  0  0  0  0  0  0  0  0  0  0
  130.1130  123.8410   64.9930 C   0  0  0  0  0  0  0  0  0  0  0  0
  130.9130  122.8790   64.3830 C   0  0  0  0  0  0  0  0  0  0  0  0
  132.2460  123.1550   64.0760 C   0  0  0  0  0  0  0  0  0  0  0  0
  132.9610  122.1410   63.4720 O   0  0  0  0  0  0  0  0  0  0  0  0
  133.7720  122.4410   62.3410 C   0  0  0  0  0  0  0  0  0  0  0  0
  132.7700  124.4180   64.3900 C   0  0  0  0  0  0  0  0  0  0  0  0
  131.9680  125.3790   65.0010 C   0  0  0  0  0  0  0  0  0  0  0  0
  129.0530  127.1200   65.2310 C   0  0  0  0  0  0  0  0  0  0  0  0
  129.0880  127.1520   63.7650 C   0  0  0  0  0  0  0  0  0  0  0  0
  129.1160  127.1780   62.6090 N   0  0  0  0  0  0  0  0  0  0  0  0
  130.1520  131.2440   60.8850 C   0  0  0  0  0  0  0  0  0  0  0  0
  130.3740  131.7020   59.5890 C   0  0  0  0  0  0  0  0  0  0  0  0
  1  2  1  0
  2  3  1  0
  3  4  1  0
  4  5  2  0
  4  6  1  0
  6  7  2  0
  7  8  1  0
  8  9  2  0
  9 10  1  0
 10 11  1  0
 11 12  2  0
 11 13  1  0
 13 14  1  0
 14 15  1  0
 15 16  2  0
 16 17  1  0
 17 18  1  0
 18 19  2  0
 19 20  1  0
 20 21  2  0
 21 22  1  0
 22 23  1  0
 21 24  1  0
 24 25  2  0
 17 26  2  0
 26 27  1  0
 27 28  1  0
 28 29  2  0
 29 30  1  0
 30 31  2  0
 31 32  1  0
 32 33  1  0
 31 34  1  0
 34 35  2  0
 27 36  2  0
 36 37  1  0
 37 38  3  0
  9 39  1  0
 39 40  2  0
 40  6  1  0
 36 15  1  0
 25 18  1  0
 35 28  1  0
M  END
>  <Binding energies>  (1) 
[-10.43]

>  <Ligand effiencies>  (1) 
[-0.25439024390243903]

>  <Interactions>  (1) 
["V-B:GLU:543:C:9874, V-A:GLU:543:CD:4908, V-A:HIS:456:CE1:4070, V-B:GLY:544:C:9884, V-A:GLU:543:CB:4906, V-B:HIS:456:CE1:9041, V-B:HIS:456:CD2:9039, V-B:GLU:543:CB:9878, V-A:LEU:475:CD2:4259, H-B:LYS:547:NZ:9923, V-B:TYR:484:CE2:9317, V-B:GLY:544:CA:9886, V-B:TYR:484:CZ:9318, V-B:GLU:543:CG:9879, V-B:GLU:543:CD:9880, V-A:GLU:543:CG:4907, V-A:TYR:484:CE2:4346, V-A:TYR:484:CZ:4347, V-A:ILE:369:CD1:3239, V-A:TYR:539:CD1:4873, V-A:LEU:363:CD1:3189, V-A:ILE:538:CG2:4863, V-A:ILE:538:CB:4862, H-A:GLU:543:OE1:4909, V-A:PRO:540:CA:4883, V-A:PRO:540:CB:4885, V-A:TYR:539:C:4867, H-A:TYR:539:N:4870, V-A:PRO:540:N:4884, H-B:TYR:484:OH:9319, V-A:MET:535:CE:4835, V-A:ARG:545:CZ:4926, H-A:GLY:454:N:4050, H-A:TYR:484:OH:4348, V-A:GLY:454:CA:4049, V-A:PRO:540:CD:4887, V-A:TYR:539:CA:4869"]

$$$$
1b_Ghoteimi_2023
     RDKit          3D

 34 37  0  0  0  0  0  0  0  0999 V2000
  131.7690  132.5350   56.1090 C   0  0  0  0  0  0  0  0  0  0  0  0
  130.7300  133.3880   56.5750 O   0  0  0  0  0  0  0  0  0  0  0  0
  129.8300  132.9060   57.5050 C   0  0  0  0  0  0  0  0  0  0  0  0
  130.3380  132.5960   58.7650 C   0  0  0  0  0  0  0  0  0  0  0  0
  129.5060  132.1030   59.7650 C   0  0  0  0  0  0  0  0  0  0  0  0
  128.1350  131.9090   59.5370 C   0  0  0  0  0  0  0  0  0  0  0  0
  127.2390  131.3740   60.6190 C   0  0  0  0  0  0  0  0  0  0  0  0
  127.7200  130.6570   61.7200 C   0  0  0  0  0  0  0  0  0  0  0  0
  126.8430  130.1840   62.7040 C   0  0  0  0  0  0  0  0  0  0  0  0
  127.4250  129.4210   63.8480 C   0  0  0  0  0  0  0  0  0  0  0  0
  127.3140  129.9120   65.1520 C   0  0  0  0  0  0  0  0  0  0  0  0
  127.8630  129.2090   66.2210 C   0  0  0  0  0  0  0  0  0  0  0  0
  128.5370  128.0060   66.0080 C   0  0  0  0  0  0  0  0  0  0  0  0
  129.0490  127.3780   67.1270 O   0  0  0  0  0  0  0  0  0  0  0  0
  129.7340  126.1400   66.9760 C   0  0  0  0  0  0  0  0  0  0  0  0
  128.6580  127.5140   64.6990 C   0  0  0  0  0  0  0  0  0  0  0  0
  128.1090  128.2200   63.6330 C   0  0  0  0  0  0  0  0  0  0  0  0
  125.4600  130.4600   62.5640 C   0  0  0  0  0  0  0  0  0  0  0  0
  124.5130  130.0700   63.6130 C   0  0  0  0  0  0  0  0  0  0  0  0
  123.7670  129.7620   64.4420 N   0  0  0  0  0  0  0  0  0  0  0  0
  125.0390  131.1710   61.4180 C   0  0  0  0  0  0  0  0  0  0  0  0
  123.3450  131.5980   61.0720 S   0  0  0  0  0  0  0  0  0  0  0  0
  122.7910  132.7750   62.3520 C   0  0  0  0  0  0  0  0  0  0  0  0
  123.7030  133.9940   62.5520 C   0  0  0  0  0  0  0  0  0  0  0  0
  124.0360  134.3520   63.6840 O   0  0  0  0  0  0  0  0  0  0  0  0
  124.0820  134.6080   61.4090 N   0  0  0  0  0  0  0  0  0  0  0  0
  124.9010  135.7250   61.2860 C   0  0  0  0  0  0  0  0  0  0  0  0
  126.2910  135.6640   61.3760 C   0  0  0  0  0  0  0  0  0  0  0  0
  126.7180  136.9610   61.2020 C   0  0  0  0  0  0  0  0  0  0  0  0
  125.6400  137.7600   61.0140 O   0  0  0  0  0  0  0  0  0  0  0  0
  124.4950  136.9650   61.0690 N   0  0  0  0  0  0  0  0  0  0  0  0
  125.9110  131.6290   60.4880 N   0  0  0  0  0  0  0  0  0  0  0  0
  127.6340  132.2230   58.2640 C   0  0  0  0  0  0  0  0  0  0  0  0
  128.4630  132.7150   57.2610 C   0  0  0  0  0  0  0  0  0  0  0  0
  1  2  1  0
  2  3  1  0
  3  4  2  0
  4  5  1  0
  5  6  2  0
  6  7  1  0
  7  8  2  0
  8  9  1  0
  9 10  1  0
 10 11  2  0
 11 12  1  0
 12 13  2  0
 13 14  1  0
 14 15  1  0
 13 16  1  0
 16 17  2  0
  9 18  2  0
 18 19  1  0
 19 20  3  0
 18 21  1  0
 21 22  1  0
 22 23  1  0
 23 24  1  0
 24 25  2  0
 24 26  1  0
 26 27  1  0
 27 28  1  0
 28 29  2  0
 29 30  1  0
 30 31  1  0
 21 32  2  0
  6 33  1  0
 33 34  2  0
 34  3  1  0
 32  7  1  0
 17 10  1  0
 31 27  2  0
M  END
>  <Binding energies>  (2) 
[-8.89]

>  <Ligand effiencies>  (2) 
[-0.254]

>  <Interactions>  (2) 
["V-A:GLU:543:CD:4908, V-A:HIS:456:CE1:4070, V-A:GLU:543:CB:4906, V-B:GLU:543:CB:9878, V-B:TYR:484:CZ:9318, V-B:GLU:543:CG:9879, V-B:GLU:543:CD:9880, V-A:GLU:543:CG:4907, V-A:TYR:539:CD1:4873, V-B:GLY:454:CA:9020, V-A:LEU:363:CD1:3189, V-A:ILE:538:CG2:4863, V-A:ILE:538:CB:4862, V-B:LEU:475:CD2:9230, V-A:PRO:540:CA:4883, V-B:ILE:369:CG2:8208, V-A:PRO:540:CB:4885, H-B:ARG:545:NH2:9900, V-B:ILE:369:CG1:8209, V-A:TYR:539:CE1:4875, V-A:TYR:539:C:4867, H-A:TYR:539:N:4870, V-A:PRO:540:N:4884, H-B:GLY:454:N:9021, V-B:ARG:545:CZ:9898, H-B:ARG:545:NH1:9899, H-B:ARG:545:NE:9896, V-A:TYR:539:CZ:4877, V-A:TYR:539:CG:4872, V-A:TYR:539:CB:4871, V-B:GLY:453:C:9013, H-B:HIS:383:NE2:8365"]

$$$$
1c_Ghoteimi_2023
     RDKit          3D

 34 37  0  0  0  0  0  0  0  0999 V2000
  124.8670  124.1170   57.2960 C   0  0  0  0  0  0  0  0  0  0  0  0
  125.5950  122.9970   57.7890 O   0  0  0  0  0  0  0  0  0  0  0  0
  126.6190  123.2030   58.6930 C   0  0  0  0  0  0  0  0  0  0  0  0
  126.2590  123.7010   59.9430 C   0  0  0  0  0  0  0  0  0  0  0  0
  127.2260  123.9410   60.9150 C   0  0  0  0  0  0  0  0  0  0  0  0
  128.5840  123.6900   60.6660 C   0  0  0  0  0  0  0  0  0  0  0  0
  129.6310  123.9520   61.7100 C   0  0  0  0  0  0  0  0  0  0  0  0
  129.3330  124.5180   62.9540 C   0  0  0  0  0  0  0  0  0  0  0  0
  130.3400  124.7180   63.9060 C   0  0  0  0  0  0  0  0  0  0  0  0
  129.9390  125.2650   65.2370 C   0  0  0  0  0  0  0  0  0  0  0  0
  129.3620  126.5330   65.3410 C   0  0  0  0  0  0  0  0  0  0  0  0
  129.0090  127.0490   66.5830 C   0  0  0  0  0  0  0  0  0  0  0  0
  129.2310  126.3110   67.7460 C   0  0  0  0  0  0  0  0  0  0  0  0
  128.8490  126.9030   68.9350 O   0  0  0  0  0  0  0  0  0  0  0  0
  129.6320  127.9680   69.4630 C   0  0  0  0  0  0  0  0  0  0  0  0
  129.8170  125.0400   67.6460 C   0  0  0  0  0  0  0  0  0  0  0  0
  130.1690  124.5250   66.4020 C   0  0  0  0  0  0  0  0  0  0  0  0
  131.6670  124.3630   63.5690 C   0  0  0  0  0  0  0  0  0  0  0  0
  132.7710  124.5780   64.5100 C   0  0  0  0  0  0  0  0  0  0  0  0
  133.6410  124.7490   65.2540 N   0  0  0  0  0  0  0  0  0  0  0  0
  131.8940  123.7810   62.3050 C   0  0  0  0  0  0  0  0  0  0  0  0
  133.4770  123.1320   61.8140 S   0  0  0  0  0  0  0  0  0  0  0  0
  133.2040  122.4480   60.1470 C   0  0  0  0  0  0  0  0  0  0  0  0
  132.7260  120.9920   60.1900 C   0  0  0  0  0  0  0  0  0  0  0  0
  133.4990  120.0890   59.8660 O   0  0  0  0  0  0  0  0  0  0  0  0
  131.4640  120.8130   60.6380 N   0  0  0  0  0  0  0  0  0  0  0  0
  130.8480  119.6040   60.9180 C   0  0  0  0  0  0  0  0  0  0  0  0
  129.9460  119.3520   61.8420 N   0  0  0  0  0  0  0  0  0  0  0  0
  129.5470  118.0950   61.7980 C   0  0  0  0  0  0  0  0  0  0  0  0
  130.1290  117.2990   60.8170 C   0  0  0  0  0  0  0  0  0  0  0  0
  131.2630  118.2560   59.9100 S   0  0  0  0  0  0  0  0  0  0  0  0
  130.9010  123.5740   61.4060 N   0  0  0  0  0  0  0  0  0  0  0  0
  128.9350  123.1820   59.4060 C   0  0  0  0  0  0  0  0  0  0  0  0
  127.9710  122.9420   58.4310 C   0  0  0  0  0  0  0  0  0  0  0  0
  1  2  1  0
  2  3  1  0
  3  4  2  0
  4  5  1  0
  5  6  2  0
  6  7  1  0
  7  8  2  0
  8  9  1  0
  9 10  1  0
 10 11  2  0
 11 12  1  0
 12 13  2  0
 13 14  1  0
 14 15  1  0
 13 16  1  0
 16 17  2  0
  9 18  2  0
 18 19  1  0
 19 20  3  0
 18 21  1  0
 21 22  1  0
 22 23  1  0
 23 24  1  0
 24 25  2  0
 24 26  1  0
 26 27  1  0
 27 28  2  0
 28 29  1  0
 29 30  2  0
 30 31  1  0
 21 32  2  0
  6 33  1  0
 33 34  2  0
 34  3  1  0
 32  7  1  0
 17 10  1  0
 31 27  1  0
M  END
>  <Binding energies>  (3) 
[-8.76]

>  <Ligand effiencies>  (3) 
[-0.2502857142857143]

>  <Interactions>  (3) 
["V-A:GLU:543:CD:4908, V-A:HIS:456:CE1:4070, V-A:GLU:543:CB:4906, V-B:GLU:543:CB:9878, V-B:TYR:539:CE2:9848, V-B:LEU:363:CD1:8160, V-A:LEU:475:CD2:4259, V-B:MET:535:CE:9807, V-B:PRO:540:CB:9857, V-A:ILE:369:CG2:3237, V-B:TYR:539:CZ:9849, V-B:TYR:539:CD2:9846, V-B:TYR:539:CG:9844, V-B:PRO:540:C:9853, V-B:TYR:531:CE2:9765, V-B:PRO:540:CA:9855, V-B:GLU:543:CA:9876, V-B:GLU:543:CG:9879, V-B:GLU:543:CD:9880, V-A:TYR:484:CE2:4346, V-B:ALA:541:CB:9864, V-A:TYR:484:CZ:4347, H-A:ARG:545:NH2:4928, V-B:PRO:540:N:9856, V-B:TYR:539:C:9839, V-A:ARG:545:CZ:4926, H-A:SER:385:OG:3410, H-A:GLY:454:N:4050, H-A:ARG:545:NE:4924, H-A:TYR:484:OH:4348, V-B:TYR:539:CB:9843, V-A:LEU:475:CD1:4258, V-A:HIS:383:CD2:3392, V-A:HIS:383:CE1:3393, V-A:PRO:482:CG:4327, V-A:HIS:383:NE2:3394, V-A:PRO:482:CB:4326, V-A:LEU:475:CG:4257"]

$$$$
1d_Ghoteimi_2023
     RDKit          3D

 30 32  0  0  0  0  0  0  0  0999 V2000
  131.8460  126.2310   59.2290 C   0  0  0  0  0  0  0  0  0  0  0  0
  132.0700  124.9360   58.6930 O   0  0  0  0  0  0  0  0  0  0  0  0
  133.3170  124.4210   58.6460 C   0  0  0  0  0  0  0  0  0  0  0  0
  133.8930  123.9990   57.6420 O   0  0  0  0  0  0  0  0  0  0  0  0
  133.9880  124.3990   60.0160 C   0  0  0  0  0  0  0  0  0  0  0  0
  133.2950  122.9980   60.9440 S   0  0  0  0  0  0  0  0  0  0  0  0
  131.7470  123.5450   61.6320 C   0  0  0  0  0  0  0  0  0  0  0  0
  130.6970  123.4090   60.7880 N   0  0  0  0  0  0  0  0  0  0  0  0
  129.4560  123.7910   61.1840 C   0  0  0  0  0  0  0  0  0  0  0  0
  128.3450  123.6020   60.1910 C   0  0  0  0  0  0  0  0  0  0  0  0
  128.6000  123.1250   58.8950 C   0  0  0  0  0  0  0  0  0  0  0  0
  127.5700  122.9570   57.9750 C   0  0  0  0  0  0  0  0  0  0  0  0
  126.2550  123.2600   58.3180 C   0  0  0  0  0  0  0  0  0  0  0  0
  125.2990  123.0650   57.3400 O   0  0  0  0  0  0  0  0  0  0  0  0
  125.6530  122.3610   56.1540 C   0  0  0  0  0  0  0  0  0  0  0  0
  125.9850  123.7370   59.6080 C   0  0  0  0  0  0  0  0  0  0  0  0
  127.0170  123.9030   60.5270 C   0  0  0  0  0  0  0  0  0  0  0  0
  129.2470  124.3160   62.4650 C   0  0  0  0  0  0  0  0  0  0  0  0
  130.3170  124.4820   63.3520 C   0  0  0  0  0  0  0  0  0  0  0  0
  130.0240  125.0560   64.7010 C   0  0  0  0  0  0  0  0  0  0  0  0
  130.3920  124.3600   65.8570 C   0  0  0  0  0  0  0  0  0  0  0  0
  130.1220  124.8890   67.1160 C   0  0  0  0  0  0  0  0  0  0  0  0
  129.4860  126.1230   67.2460 C   0  0  0  0  0  0  0  0  0  0  0  0
  129.2520  126.5650   68.5340 O   0  0  0  0  0  0  0  0  0  0  0  0
  129.0070  127.9490   68.7600 C   0  0  0  0  0  0  0  0  0  0  0  0
  129.1260  126.8300   66.0890 C   0  0  0  0  0  0  0  0  0  0  0  0
  129.3980  126.3000   64.8310 C   0  0  0  0  0  0  0  0  0  0  0  0
  131.6140  124.1060   62.9220 C   0  0  0  0  0  0  0  0  0  0  0  0
  132.7840  124.3530   63.7700 C   0  0  0  0  0  0  0  0  0  0  0  0
  133.7070  124.5490   64.4390 N   0  0  0  0  0  0  0  0  0  0  0  0
  1  2  1  0
  2  3  1  0
  3  4  2  0
  3  5  1  0
  5  6  1  0
  6  7  1  0
  7  8  2  0
  8  9  1  0
  9 10  1  0
 10 11  2  0
 11 12  1  0
 12 13  2  0
 13 14  1  0
 14 15  1  0
 13 16  1  0
 16 17  2  0
  9 18  2  0
 18 19  1  0
 19 20  1  0
 20 21  2  0
 21 22  1  0
 22 23  2  0
 23 24  1  0
 24 25  1  0
 23 26  1  0
 26 27  2  0
 19 28  2  0
 28 29  1  0
 29 30  3  0
 28  7  1  0
 17 10  1  0
 27 20  1  0
M  END
>  <Binding energies>  (4) 
[-7.76]

>  <Ligand effiencies>  (4) 
[-0.25866666666666666]

>  <Interactions>  (4) 
["V-A:GLU:543:CD:4908, V-A:HIS:456:CE1:4070, V-A:GLU:543:CB:4906, V-B:HIS:456:CE1:9041, V-B:GLU:543:CB:9878, V-B:TYR:539:CE2:9848, H-B:TYR:539:OH:9850, V-B:LEU:363:CD1:8160, V-B:MET:535:CE:9807, V-B:PRO:540:CB:9857, V-A:ILE:369:CG2:3237, V-B:TYR:539:CZ:9849, V-B:TYR:539:CD2:9846, V-B:PRO:540:CA:9855, V-B:GLU:543:CA:9876, V-B:GLU:543:CG:9879, V-B:GLU:543:CD:9880, V-A:TYR:484:CE2:4346, V-A:TYR:484:CZ:4347, V-A:ILE:369:CD1:3239, H-A:ARG:545:NH2:4928, V-A:ASP:366:CB:3212, V-B:PRO:540:N:9856, V-B:TYR:539:C:9839, V-B:PRO:540:CD:9859, V-A:ASP:366:CG:3213, H-A:GLY:454:N:4050, H-A:ARG:545:NE:4924, H-A:TYR:484:OH:4348, V-A:ASP:366:CA:3210, V-B:ILE:538:CG2:9835, H-A:ASN:370:N:3244, V-A:ILE:369:CB:3236"]

$$$$
1j_Grossjean_2025
     RDKit          3D

 20 21  0  0  0  0  0  0  0  0999 V2000
  123.7040  132.3110   62.0980 C   0  0  0  0  0  0  0  0  0  0  0  0
  124.4430  133.6040   61.8060 C   0  0  0  0  0  0  0  0  0  0  0  0
  123.7730  134.7430   61.3670 C   0  0  0  0  0  0  0  0  0  0  0  0
  124.5050  135.9100   61.1270 C   0  0  0  0  0  0  0  0  0  0  0  0
  123.7460  137.1530   60.6630 C   0  0  0  0  0  0  0  0  0  0  0  0
  125.9040  135.9030   61.3260 C   0  0  0  0  0  0  0  0  0  0  0  0
  126.6820  137.1280   61.1310 C   0  0  0  0  0  0  0  0  0  0  0  0
  127.2940  138.0990   60.9770 N   0  0  0  0  0  0  0  0  0  0  0  0
  126.5040  134.6930   61.7480 C   0  0  0  0  0  0  0  0  0  0  0  0
  128.2480  134.5020   62.0450 S   0  0  0  0  0  0  0  0  0  0  0  0
  128.7470  132.8830   61.3880 C   0  0  0  0  0  0  0  0  0  0  0  0
  128.8450  132.8880   59.8610 C   0  0  0  0  0  0  0  0  0  0  0  0
  127.8230  133.0380   59.1900 O   0  0  0  0  0  0  0  0  0  0  0  0
  130.0880  132.7240   59.3570 N   0  0  0  0  0  0  0  0  0  0  0  0
  130.4390  132.6860   58.0150 C   0  0  0  0  0  0  0  0  0  0  0  0
  129.8070  133.2350   56.9990 N   0  0  0  0  0  0  0  0  0  0  0  0
  130.4250  132.9970   55.8590 C   0  0  0  0  0  0  0  0  0  0  0  0
  131.5890  132.2390   55.9360 C   0  0  0  0  0  0  0  0  0  0  0  0
  131.8820  131.8200   57.5980 S   0  0  0  0  0  0  0  0  0  0  0  0
  125.7830  133.5720   62.0000 N   0  0  0  0  0  0  0  0  0  0  0  0
  1  2  1  0
  2  3  2  0
  3  4  1  0
  4  5  1  0
  4  6  2  0
  6  7  1  0
  7  8  3  0
  6  9  1  0
  9 10  1  0
 10 11  1  0
 11 12  1  0
 12 13  2  0
 12 14  1  0
 14 15  1  0
 15 16  2  0
 16 17  1  0
 17 18  2  0
 18 19  1  0
  9 20  2  0
 20  2  1  0
 19 15  1  0
M  END
>  <Binding energies>  (5) 
[-7.19]

>  <Ligand effiencies>  (5) 
[-0.3423809523809524]

>  <Interactions>  (5) 
["V-A:TYR:539:CD1:4873, V-A:LEU:363:CD1:3189, V-A:ILE:538:CG2:4863, V-A:ILE:538:CB:4862, V-B:LEU:475:CD2:9230, V-A:PRO:540:CA:4883, V-B:ILE:369:CG2:8208, V-A:PRO:540:CB:4885, V-A:TYR:539:CE1:4875, V-A:TYR:539:C:4867, H-A:TYR:539:N:4870, V-A:PRO:540:N:4884, V-A:MET:535:CE:4835, H-A:ALA:541:N:4891, V-A:ILE:538:CA:4860, V-B:SER:385:CA:8378, V-B:HIS:383:CD2:8363, V-B:SER:385:CB:8380, V-A:ILE:538:C:4858, V-A:TYR:539:CB:4871, V-B:LEU:373:CD1:8251, H-B:HIS:383:NE2:8365, V-B:VAL:384:C:8368"]

$$$$
1o_Grossjean_2025
     RDKit          3D

 26 27  0  0  0  0  0  0  0  0999 V2000
  127.1440  122.1670   55.3410 C   0  0  0  0  0  0  0  0  0  0  0  0
  126.0420  122.1130   56.2360 O   0  0  0  0  0  0  0  0  0  0  0  0
  125.6740  123.2020   56.9580 C   0  0  0  0  0  0  0  0  0  0  0  0
  124.9190  124.0800   56.5290 O   0  0  0  0  0  0  0  0  0  0  0  0
  126.2730  123.2320   58.3350 C   0  0  0  0  0  0  0  0  0  0  0  0
  125.5850  123.7690   59.4330 C   0  0  0  0  0  0  0  0  0  0  0  0
  126.1680  123.7790   60.6970 C   0  0  0  0  0  0  0  0  0  0  0  0
  127.4490  123.2600   60.8900 C   0  0  0  0  0  0  0  0  0  0  0  0
  127.9380  123.3120   62.2100 N   0  0  0  0  0  0  0  0  0  0  0  0
  128.8920  122.5660   62.8090 C   0  0  0  0  0  0  0  0  0  0  0  0
  129.5630  121.6940   62.2570 O   0  0  0  0  0  0  0  0  0  0  0  0
  129.1490  122.8860   64.2890 C   0  0  0  0  0  0  0  0  0  0  0  0
  130.2670  123.9260   64.5050 C   0  0  0  0  0  0  0  0  0  0  0  0
  130.0860  125.4240   63.4930 S   0  0  0  0  0  0  0  0  0  0  0  0
  130.9560  125.1770   61.9580 C   0  0  0  0  0  0  0  0  0  0  0  0
  130.1620  125.2860   60.8630 N   0  0  0  0  0  0  0  0  0  0  0  0
  130.7160  125.1260   59.6380 C   0  0  0  0  0  0  0  0  0  0  0  0
  129.7700  125.2770   58.4620 C   0  0  0  0  0  0  0  0  0  0  0  0
  132.0680  124.8410   59.4560 C   0  0  0  0  0  0  0  0  0  0  0  0
  132.8900  124.7010   60.5790 C   0  0  0  0  0  0  0  0  0  0  0  0
  134.3660  124.3750   60.3530 C   0  0  0  0  0  0  0  0  0  0  0  0
  132.3330  124.8600   61.8680 C   0  0  0  0  0  0  0  0  0  0  0  0
  133.1660  124.6580   63.0560 C   0  0  0  0  0  0  0  0  0  0  0  0
  133.8260  124.5000   63.9940 N   0  0  0  0  0  0  0  0  0  0  0  0
  128.1410  122.7160   59.7970 C   0  0  0  0  0  0  0  0  0  0  0  0
  127.5560  122.7060   58.5340 C   0  0  0  0  0  0  0  0  0  0  0  0
  1  2  1  0
  2  3  1  0
  3  4  2  0
  3  5  1  0
  5  6  2  0
  6  7  1  0
  7  8  2  0
  8  9  1  0
  9 10  1  0
 10 11  2  0
 10 12  1  0
 12 13  1  0
 13 14  1  0
 14 15  1  0
 15 16  2  0
 16 17  1  0
 17 18  1  0
 17 19  2  0
 19 20  1  0
 20 21  1  0
 20 22  2  0
 22 23  1  0
 23 24  3  0
  8 25  1  0
 25 26  2  0
 26  5  1  0
 22 15  1  0
M  END
>  <Binding energies>  (6) 
[-7.31]

>  <Ligand effiencies>  (6) 
[-0.2707407407407407]

>  <Interactions>  (6) 
["V-B:TYR:539:CE2:9848, V-B:LEU:363:CD1:8160, V-B:MET:535:CE:9807, V-B:PRO:540:CB:9857, V-A:ILE:369:CG2:3237, V-B:TYR:539:CZ:9849, V-B:TYR:539:CD2:9846, V-B:TYR:539:CG:9844, V-B:TYR:539:CE1:9847, H-B:TYR:539:N:9842, V-B:PRO:540:CA:9855, V-B:GLU:543:CG:9879, V-B:GLU:543:CD:9880, V-B:ALA:541:CB:9864, H-B:GLU:543:OE1:9881, V-A:ILE:369:CD1:3239, H-A:ARG:545:NH2:4928, V-A:ASP:366:CB:3212, V-B:PRO:540:N:9856, V-B:TYR:539:CD1:9845, V-B:TYR:539:C:9839, V-A:ASP:366:CG:3213, V-A:ARG:545:CZ:4926, H-A:GLY:454:N:4050, H-A:TYR:484:OH:4348, V-B:ILE:538:CA:9832, V-A:ASP:366:CA:3210, V-B:ILE:538:C:9830, V-A:ILE:369:CB:3236"]

$$$$
1p_Grossjean_2025
     RDKit          3D

 21 22  0  0  0  0  0  0  0  0999 V2000
  125.6620  130.4710   57.9090 C   0  0  0  0  0  0  0  0  0  0  0  0
  125.2090  131.2230   59.1470 C   0  0  0  0  0  0  0  0  0  0  0  0
  124.0620  130.8500   59.8460 C   0  0  0  0  0  0  0  0  0  0  0  0
  123.6830  131.5880   60.9730 C   0  0  0  0  0  0  0  0  0  0  0  0
  122.4150  131.1720   61.7150 C   0  0  0  0  0  0  0  0  0  0  0  0
  124.4760  132.6850   61.3790 C   0  0  0  0  0  0  0  0  0  0  0  0
  124.0760  133.5020   62.5250 C   0  0  0  0  0  0  0  0  0  0  0  0
  123.7580  134.1470   63.4330 N   0  0  0  0  0  0  0  0  0  0  0  0
  125.6370  132.9770   60.6220 C   0  0  0  0  0  0  0  0  0  0  0  0
  126.7480  134.3130   61.0000 S   0  0  0  0  0  0  0  0  0  0  0  0
  127.7970  133.7520   62.3730 C   0  0  0  0  0  0  0  0  0  0  0  0
  128.5670  132.4520   62.0760 C   0  0  0  0  0  0  0  0  0  0  0  0
  129.6080  132.5970   60.9550 C   0  0  0  0  0  0  0  0  0  0  0  0
  130.8070  132.6150   61.2390 O   0  0  0  0  0  0  0  0  0  0  0  0
  129.1090  132.6830   59.7020 N   0  0  0  0  0  0  0  0  0  0  0  0
  129.8250  132.8180   58.5200 C   0  0  0  0  0  0  0  0  0  0  0  0
  131.0670  132.2190   58.3090 C   0  0  0  0  0  0  0  0  0  0  0  0
  131.4320  132.5910   57.0350 C   0  0  0  0  0  0  0  0  0  0  0  0
  130.4630  133.3740   56.5070 O   0  0  0  0  0  0  0  0  0  0  0  0
  129.4490  133.5120   57.4580 N   0  0  0  0  0  0  0  0  0  0  0  0
  125.9840  132.2680   59.5180 N   0  0  0  0  0  0  0  0  0  0  0  0
  1  2  1  0
  2  3  2  0
  3  4  1  0
  4  5  1  0
  4  6  2  0
  6  7  1  0
  7  8  3  0
  6  9  1  0
  9 10  1  0
 10 11  1  0
 11 12  1  0
 12 13  1  0
 13 14  2  0
 13 15  1  0
 15 16  1  0
 16 17  1  0
 17 18  2  0
 18 19  1  0
 19 20  1  0
  9 21  2  0
 21  2  1  0
 20 16  2  0
M  END
>  <Binding energies>  (7) 
[-6.86]

>  <Ligand effiencies>  (7) 
[-0.3118181818181818]

>  <Interactions>  (7) 
["V-B:ASP:366:CB:8183, V-B:ASP:366:CG:8184, V-A:TYR:539:CD1:4873, V-B:GLY:454:CA:9020, V-A:LEU:363:CD1:3189, V-A:ILE:538:CB:4862, V-B:LEU:475:CD2:9230, V-A:ALA:541:CB:4892, V-A:PRO:540:CA:4883, V-B:ILE:369:CG2:8208, V-A:PRO:540:CB:4885, V-B:ILE:369:CG1:8209, V-A:TYR:539:CE1:4875, V-A:TYR:539:C:4867, H-A:TYR:539:N:4870, V-B:ILE:369:CB:8207, V-A:PRO:540:N:4884, H-B:GLY:454:N:9021, V-A:PRO:540:C:4881, V-B:ASP:366:CA:8181, H-A:ALA:541:N:4891, V-A:PRO:540:CD:4887, V-B:GLY:453:CA:9015"]

$$$$
2a_Ghoteimi_2023
     RDKit          3D

 48 53  0  0  0  0  0  0  0  0999 V2000
  129.0350  125.2490   55.2750 C   0  0  0  0  0  0  0  0  0  0  0  0
  128.0790  124.7520   56.3640 C   0  0  0  0  0  0  0  0  0  0  0  0
  127.6690  123.4250   56.0620 O   0  0  0  0  0  0  0  0  0  0  0  0
  126.8770  122.7240   56.9140 C   0  0  0  0  0  0  0  0  0  0  0  0
  125.9820  121.9610   56.5370 O   0  0  0  0  0  0  0  0  0  0  0  0
  127.2030  122.9650   58.3600 C   0  0  0  0  0  0  0  0  0  0  0  0
  128.4260  122.5680   58.9210 C   0  0  0  0  0  0  0  0  0  0  0  0
  128.6970  122.8080   60.2650 C   0  0  0  0  0  0  0  0  0  0  0  0
  127.7580  123.4500   61.0740 C   0  0  0  0  0  0  0  0  0  0  0  0
  128.1350  123.6370   62.4180 N   0  0  0  0  0  0  0  0  0  0  0  0
  129.2270  123.1950   63.0790 C   0  0  0  0  0  0  0  0  0  0  0  0
  130.1030  122.4750   62.6000 O   0  0  0  0  0  0  0  0  0  0  0  0
  129.3140  123.6210   64.5510 C   0  0  0  0  0  0  0  0  0  0  0  0
  130.5750  124.8900   64.8950 S   0  0  0  0  0  0  0  0  0  0  0  0
  129.6900  126.2750   65.5720 C   0  0  0  0  0  0  0  0  0  0  0  0
  129.7410  126.3510   66.9230 N   0  0  0  0  0  0  0  0  0  0  0  0
  129.0950  127.3600   67.5590 C   0  0  0  0  0  0  0  0  0  0  0  0
  129.1870  127.3740   69.0510 C   0  0  0  0  0  0  0  0  0  0  0  0
  128.1040  126.9840   69.8490 C   0  0  0  0  0  0  0  0  0  0  0  0
  128.1910  127.0100   71.2380 C   0  0  0  0  0  0  0  0  0  0  0  0
  129.3670  127.4210   71.8820 C   0  0  0  0  0  0  0  0  0  0  0  0
  129.4300  127.4710   73.2790 N   0  0  0  0  0  0  0  0  0  0  0  0
  128.8640  128.6060   74.0350 C   0  0  0  0  0  0  0  0  0  0  0  0
  128.6980  128.3290   75.5440 C   0  0  0  0  0  0  0  0  0  0  0  0
  129.9350  127.9130   76.1010 O   0  0  0  0  0  0  0  0  0  0  0  0
  130.4020  126.7210   75.4910 C   0  0  0  0  0  0  0  0  0  0  0  0
  130.6210  126.9470   73.9810 C   0  0  0  0  0  0  0  0  0  0  0  0
  130.4460  127.8230   71.0780 C   0  0  0  0  0  0  0  0  0  0  0  0
  130.3590  127.7940   69.6900 C   0  0  0  0  0  0  0  0  0  0  0  0
  128.3890  128.3310   66.8440 C   0  0  0  0  0  0  0  0  0  0  0  0
  128.3220  128.2730   65.4450 C   0  0  0  0  0  0  0  0  0  0  0  0
  127.5450  129.3400   64.7430 C   0  0  0  0  0  0  0  0  0  0  0  0
  128.2070  130.4270   64.1660 C   0  0  0  0  0  0  0  0  0  0  0  0
  127.4910  131.4350   63.5280 C   0  0  0  0  0  0  0  0  0  0  0  0
  126.0910  131.3860   63.4450 C   0  0  0  0  0  0  0  0  0  0  0  0
  125.3520  132.3970   62.8250 N   0  0  0  0  0  0  0  0  0  0  0  0
  123.9230  132.1710   62.5290 C   0  0  0  0  0  0  0  0  0  0  0  0
  123.1520  133.4710   62.2170 C   0  0  0  0  0  0  0  0  0  0  0  0
  123.7830  134.1680   61.1540 O   0  0  0  0  0  0  0  0  0  0  0  0
  125.1200  134.5180   61.4760 C   0  0  0  0  0  0  0  0  0  0  0  0
  125.9430  133.2470   61.7730 C   0  0  0  0  0  0  0  0  0  0  0  0
  125.4340  130.2980   64.0380 C   0  0  0  0  0  0  0  0  0  0  0  0
  126.1500  129.2900   64.6770 C   0  0  0  0  0  0  0  0  0  0  0  0
  128.9960  127.2180   64.7820 C   0  0  0  0  0  0  0  0  0  0  0  0
  129.0090  127.1370   63.3180 C   0  0  0  0  0  0  0  0  0  0  0  0
  129.0170  127.0740   62.1620 N   0  0  0  0  0  0  0  0  0  0  0  0
  126.5300  123.8420   60.5220 C   0  0  0  0  0  0  0  0  0  0  0  0
  126.2600  123.6030   59.1770 C   0  0  0  0  0  0  0  0  0  0  0  0
  1  2  1  0
  2  3  1  0
  3  4  1  0
  4  5  2  0
  4  6  1  0
  6  7  2  0
  7  8  1  0
  8  9  2  0
  9 10  1  0
 10 11  1  0
 11 12  2  0
 11 13  1  0
 13 14  1  0
 14 15  1  0
 15 16  2  0
 16 17  1  0
 17 18  1  0
 18 19  2  0
 19 20  1  0
 20 21  2  0
 21 22  1  0
 22 23  1  0
 23 24  1  0
 24 25  1  0
 25 26  1  0
 26 27  1  0
 21 28  1  0
 28 29  2  0
 17 30  2  0
 30 31  1  0
 31 32  1  0
 32 33  2  0
 33 34  1  0
 34 35  2  0
 35 36  1  0
 36 37  1  0
 37 38  1  0
 38 39  1  0
 39 40  1  0
 40 41  1  0
 35 42  1  0
 42 43  2  0
 31 44  2  0
 44 45  1  0
 45 46  3  0
  9 47  1  0
 47 48  2  0
 48  6  1  0
 44 15  1  0
 29 18  1  0
 43 32  1  0
 27 22  1  0
 41 36  1  0
M  END
>  <Binding energies>  (8) 
[-11.64]

>  <Ligand effiencies>  (8) 
[-0.23755102040816328]

>  <Interactions>  (8) 
["H-A:LYS:547:NZ:4951, V-B:GLU:543:C:9874, V-A:GLU:543:CD:4908, V-A:GLU:543:C:4902, V-A:HIS:456:CE1:4070, V-A:GLU:543:CB:4906, V-B:HIS:456:CE1:9041, V-A:GLY:544:C:4912, V-B:HIS:456:CD2:9039, V-B:GLU:543:CB:9878, V-B:TYR:539:CE2:9848, V-B:PRO:540:CB:9857, V-B:TYR:539:CZ:9849, V-B:TYR:539:CD2:9846, V-B:TYR:539:CG:9844, V-B:TYR:539:CE1:9847, H-B:TYR:539:N:9842, V-B:PRO:540:CA:9855, V-A:HIS:456:CD2:4068, V-B:GLU:543:CG:9879, V-B:GLU:543:CD:9880, V-A:GLU:543:CG:4907, V-B:ALA:541:CB:9864, H-B:GLU:543:OE1:9881, V-A:TYR:539:CD1:4873, V-B:GLY:454:CA:9020, V-B:LEU:475:CD2:9230, V-B:ILE:369:CG2:8208, V-B:PRO:540:N:9856, V-B:ILE:369:CG1:8209, V-A:TYR:539:CE1:4875, V-B:TYR:539:C:9839, V-B:PRO:540:CD:9859, H-A:TYR:484:OH:4348"]

$$$$
2aa_Ghoteimi_2023
     RDKit          3D

 48 53  0  0  0  0  0  0  0  0999 V2000
  128.3090  138.3540   61.9750 C   0  0  0  0  0  0  0  0  0  0  0  0
  126.8160  138.0280   62.0760 C   0  0  0  0  0  0  0  0  0  0  0  0
  126.3600  137.5210   60.8280 O   0  0  0  0  0  0  0  0  0  0  0  0
  125.2930  136.6830   60.7580 C   0  0  0  0  0  0  0  0  0  0  0  0
  124.2220  136.9890   60.2220 O   0  0  0  0  0  0  0  0  0  0  0  0
  125.5490  135.3430   61.3840 C   0  0  0  0  0  0  0  0  0  0  0  0
  124.5230  134.5960   61.9820 C   0  0  0  0  0  0  0  0  0  0  0  0
  124.7910  133.3540   62.5500 C   0  0  0  0  0  0  0  0  0  0  0  0
  126.0880  132.8370   62.5400 C   0  0  0  0  0  0  0  0  0  0  0  0
  126.2460  131.5720   63.1390 N   0  0  0  0  0  0  0  0  0  0  0  0
  125.3410  130.7970   63.7740 C   0  0  0  0  0  0  0  0  0  0  0  0
  124.1480  131.0730   63.9180 O   0  0  0  0  0  0  0  0  0  0  0  0
  125.9000  129.4730   64.3130 C   0  0  0  0  0  0  0  0  0  0  0  0
  127.3010  129.6130   64.5730 O   0  0  0  0  0  0  0  0  0  0  0  0
  128.0120  128.5660   65.1450 C   0  0  0  0  0  0  0  0  0  0  0  0
  128.1390  128.5440   66.5010 N   0  0  0  0  0  0  0  0  0  0  0  0
  128.8240  127.5330   67.0920 C   0  0  0  0  0  0  0  0  0  0  0  0
  128.9270  127.5770   68.5840 C   0  0  0  0  0  0  0  0  0  0  0  0
  130.0680  128.0940   69.2070 C   0  0  0  0  0  0  0  0  0  0  0  0
  130.1660  128.1430   70.5950 C   0  0  0  0  0  0  0  0  0  0  0  0
  129.1190  127.6900   71.4130 C   0  0  0  0  0  0  0  0  0  0  0  0
  129.2060  127.7210   72.8090 N   0  0  0  0  0  0  0  0  0  0  0  0
  128.0860  128.2080   73.6400 C   0  0  0  0  0  0  0  0  0  0  0  0
  128.4790  128.5040   75.1030 C   0  0  0  0  0  0  0  0  0  0  0  0
  129.0820  127.3610   75.6850 O   0  0  0  0  0  0  0  0  0  0  0  0
  130.2590  126.9830   74.9880 C   0  0  0  0  0  0  0  0  0  0  0  0
  129.9190  126.6410   73.5220 C   0  0  0  0  0  0  0  0  0  0  0  0
  127.9860  127.1540   70.7840 C   0  0  0  0  0  0  0  0  0  0  0  0
  127.8900  127.1020   69.3960 C   0  0  0  0  0  0  0  0  0  0  0  0
  129.4170  126.5210   66.3320 C   0  0  0  0  0  0  0  0  0  0  0  0
  129.3100  126.5260   64.9350 C   0  0  0  0  0  0  0  0  0  0  0  0
  129.9870  125.4310   64.1750 C   0  0  0  0  0  0  0  0  0  0  0  0
  129.2330  124.5040   63.4520 C   0  0  0  0  0  0  0  0  0  0  0  0
  129.8550  123.4700   62.7580 C   0  0  0  0  0  0  0  0  0  0  0  0
  131.2510  123.3250   62.7790 C   0  0  0  0  0  0  0  0  0  0  0  0
  131.8970  122.2970   62.0870 N   0  0  0  0  0  0  0  0  0  0  0  0
  133.3120  122.4120   61.6860 C   0  0  0  0  0  0  0  0  0  0  0  0
  133.9420  121.0690   61.2600 C   0  0  0  0  0  0  0  0  0  0  0  0
  133.1690  120.4770   60.2270 O   0  0  0  0  0  0  0  0  0  0  0  0
  131.8380  120.2240   60.6490 C   0  0  0  0  0  0  0  0  0  0  0  0
  131.1530  121.5450   61.0570 C   0  0  0  0  0  0  0  0  0  0  0  0
  132.0000  124.2640   63.5020 C   0  0  0  0  0  0  0  0  0  0  0  0
  131.3780  125.2980   64.1950 C   0  0  0  0  0  0  0  0  0  0  0  0
  128.5750  127.5700   64.3270 C   0  0  0  0  0  0  0  0  0  0  0  0
  128.3700  127.6300   62.8780 C   0  0  0  0  0  0  0  0  0  0  0  0
  128.2070  127.6760   61.7330 N   0  0  0  0  0  0  0  0  0  0  0  0
  127.1180  133.5740   61.9380 C   0  0  0  0  0  0  0  0  0  0  0  0
  126.8460  134.8150   61.3670 C   0  0  0  0  0  0  0  0  0  0  0  0
  1  2  1  0
  2  3  1  0
  3  4  1  0
  4  5  2  0
  4  6  1  0
  6  7  2  0
  7  8  1  0
  8  9  2  0
  9 10  1  0
 10 11  1  0
 11 12  2  0
 11 13  1  0
 13 14  1  0
 14 15  1  0
 15 16  2  0
 16 17  1  0
 17 18  1  0
 18 19  2  0
 19 20  1  0
 20 21  2  0
 21 22  1  0
 22 23  1  0
 23 24  1  0
 24 25  1  0
 25 26  1  0
 26 27  1  0
 21 28  1  0
 28 29  2  0
 17 30  2  0
 30 31  1  0
 31 32  1  0
 32 33  2  0
 33 34  1  0
 34 35  2  0
 35 36  1  0
 36 37  1  0
 37 38  1  0
 38 39  1  0
 39 40  1  0
 40 41  1  0
 35 42  1  0
 42 43  2  0
 31 44  2  0
 44 45  1  0
 45 46  3  0
  9 47  1  0
 47 48  2  0
 48  6  1  0
 44 15  1  0
 29 18  1  0
 43 32  1  0
 27 22  1  0
 41 36  1  0
M  END
>  <Binding energies>  (9) 
[-11.52]

>  <Ligand effiencies>  (9) 
[-0.23510204081632652]

>  <Interactions>  (9) 
["H-A:LYS:547:NZ:4951, V-B:GLU:543:C:9874, V-A:GLU:543:CD:4908, V-A:GLU:543:C:4902, V-A:HIS:456:CE1:4070, V-A:GLU:543:CB:4906, V-B:HIS:456:CE1:9041, V-B:HIS:456:CD2:9039, V-B:GLU:543:CB:9878, V-B:TYR:539:CE2:9848, V-A:LEU:475:CD2:4259, V-A:ILE:369:CG2:3237, V-B:TYR:539:CD2:9846, H-B:LYS:547:NZ:9923, V-A:HIS:456:CD2:4068, V-B:GLU:543:CG:9879, V-B:GLU:543:CD:9880, V-A:GLU:543:CG:4907, V-A:GLU:543:CA:4904, V-A:ILE:369:CD1:3239, V-A:TYR:539:CD1:4873, V-B:LEU:475:CD2:9230, V-A:TYR:539:CE1:4875, V-A:TYR:539:C:4867, H-B:TYR:484:OH:9319, H-B:GLY:454:N:9021, H-A:SER:385:OG:3410, V-B:ARG:545:CZ:9898, V-B:LEU:475:CG:9228, V-B:PRO:482:CB:9297, V-B:HIS:383:CE1:8364, V-A:VAL:344:CG1:3001, V-A:SER:385:C:3405, V-A:SER:385:CB:3409, V-A:SER:385:CA:3407, H-B:HIS:383:NE2:8365"]

$$$$
2b_Ghoteimi_2023
     RDKit          3D

 42 47  0  0  0  0  0  0  0  0999 V2000
  128.2610  132.2580   65.1290 N   0  0  0  0  0  0  0  0  0  0  0  0
  128.0840  131.3820   64.3950 C   0  0  0  0  0  0  0  0  0  0  0  0
  127.8590  130.2680   63.4690 C   0  0  0  0  0  0  0  0  0  0  0  0
  127.9520  128.9270   63.9190 C   0  0  0  0  0  0  0  0  0  0  0  0
  128.2730  128.5450   65.3270 C   0  0  0  0  0  0  0  0  0  0  0  0
  128.9430  127.3500   65.5960 C   0  0  0  0  0  0  0  0  0  0  0  0
  129.2430  126.9880   66.9060 C   0  0  0  0  0  0  0  0  0  0  0  0
  128.8660  127.8040   67.9850 C   0  0  0  0  0  0  0  0  0  0  0  0
  129.1670  127.4680   69.3060 N   0  0  0  0  0  0  0  0  0  0  0  0
  130.1680  128.2680   70.0400 C   0  0  0  0  0  0  0  0  0  0  0  0
  130.6790  127.5790   71.3230 C   0  0  0  0  0  0  0  0  0  0  0  0
  129.5860  127.2340   72.1610 O   0  0  0  0  0  0  0  0  0  0  0  0
  128.6880  126.3460   71.5130 C   0  0  0  0  0  0  0  0  0  0  0  0
  128.1210  127.0090   70.2410 C   0  0  0  0  0  0  0  0  0  0  0  0
  128.1900  128.9990   67.7040 C   0  0  0  0  0  0  0  0  0  0  0  0
  127.8930  129.3630   66.3940 C   0  0  0  0  0  0  0  0  0  0  0  0
  127.7240  127.8970   62.9990 C   0  0  0  0  0  0  0  0  0  0  0  0
  127.3830  128.1930   61.6760 C   0  0  0  0  0  0  0  0  0  0  0  0
  127.1010  127.1300   60.6620 C   0  0  0  0  0  0  0  0  0  0  0  0
  126.6600  127.4670   59.3780 C   0  0  0  0  0  0  0  0  0  0  0  0
  126.4110  126.4850   58.4240 C   0  0  0  0  0  0  0  0  0  0  0  0
  126.5810  125.1230   58.7230 C   0  0  0  0  0  0  0  0  0  0  0  0
  126.3640  124.1260   57.7650 N   0  0  0  0  0  0  0  0  0  0  0  0
  127.4830  123.2630   57.3350 C   0  0  0  0  0  0  0  0  0  0  0  0
  127.2020  122.4940   56.0250 C   0  0  0  0  0  0  0  0  0  0  0  0
  126.0010  121.7480   56.1480 O   0  0  0  0  0  0  0  0  0  0  0  0
  124.8890  122.5910   56.4000 C   0  0  0  0  0  0  0  0  0  0  0  0
  125.1000  123.3650   57.7190 C   0  0  0  0  0  0  0  0  0  0  0  0
  127.0300  124.7900   60.0090 C   0  0  0  0  0  0  0  0  0  0  0  0
  127.2820  125.7740   60.9610 C   0  0  0  0  0  0  0  0  0  0  0  0
  127.2940  129.4770   61.2470 N   0  0  0  0  0  0  0  0  0  0  0  0
  127.5420  130.4900   62.1100 C   0  0  0  0  0  0  0  0  0  0  0  0
  127.3850  132.1050   61.3780 S   0  0  0  0  0  0  0  0  0  0  0  0
  129.0340  132.8690   61.3750 C   0  0  0  0  0  0  0  0  0  0  0  0
  129.7390  132.7130   60.0270 C   0  0  0  0  0  0  0  0  0  0  0  0
  130.8300  132.1420   59.9790 O   0  0  0  0  0  0  0  0  0  0  0  0
  129.0870  133.2350   58.9660 N   0  0  0  0  0  0  0  0  0  0  0  0
  129.4920  133.2220   57.6390 C   0  0  0  0  0  0  0  0  0  0  0  0
  128.6290  132.9380   56.5820 C   0  0  0  0  0  0  0  0  0  0  0  0
  129.4050  133.0270   55.4510 C   0  0  0  0  0  0  0  0  0  0  0  0
  130.6710  133.3490   55.8070 O   0  0  0  0  0  0  0  0  0  0  0  0
  130.7140  133.4720   57.1980 N   0  0  0  0  0  0  0  0  0  0  0  0
  1  2  3  0
  2  3  1  0
  3  4  2  0
  4  5  1  0
  5  6  2  0
  6  7  1  0
  7  8  2  0
  8  9  1  0
  9 10  1  0
 10 11  1  0
 11 12  1  0
 12 13  1  0
 13 14  1  0
  8 15  1  0
 15 16  2  0
  4 17  1  0
 17 18  2  0
 18 19  1  0
 19 20  2  0
 20 21  1  0
 21 22  2  0
 22 23  1  0
 23 24  1  0
 24 25  1  0
 25 26  1  0
 26 27  1  0
 27 28  1  0
 22 29  1  0
 29 30  2  0
 18 31  1  0
 31 32  2  0
 32 33  1  0
 33 34  1  0
 34 35  1  0
 35 36  2  0
 35 37  1  0
 37 38  1  0
 38 39  1  0
 39 40  2  0
 40 41  1  0
 41 42  1  0
 32  3  1  0
 42 38  2  0
 16  5  1  0
 30 19  1  0
 14  9  1  0
 28 23  1  0
M  END
>  <Binding energies>  (10) 
[-11.82]

>  <Ligand effiencies>  (10) 
[-0.27488372093023256]

>  <Interactions>  (10) 
["V-B:GLU:543:C:9874, V-A:GLU:543:CD:4908, V-A:GLU:543:C:4902, V-A:HIS:456:CE1:4070, V-A:GLU:543:CB:4906, V-B:HIS:456:CE1:9041, V-A:GLY:544:C:4912, V-B:GLU:543:CB:9878, V-B:TYR:539:CE2:9848, V-B:LEU:363:CD1:8160, V-B:MET:535:CE:9807, V-B:PRO:540:CB:9857, V-B:ASP:366:CG:8184, V-B:TYR:539:CZ:9849, V-B:TYR:539:CG:9844, V-B:TYR:539:CE1:9847, H-B:TYR:539:N:9842, V-B:PRO:540:CA:9855, V-B:TYR:484:CE2:9317, V-A:HIS:456:CD2:4068, V-B:TYR:484:CZ:9318, V-B:GLU:543:CG:9879, V-B:GLU:543:CD:9880, V-A:GLU:543:CG:4907, V-A:TYR:539:CD1:4873, V-A:ILE:538:CG2:4863, V-A:ILE:538:CB:4862, V-A:PRO:540:CA:4883, V-A:PRO:540:CB:4885, V-B:PRO:540:N:9856, V-A:TYR:539:CE1:4875, V-A:TYR:539:C:4867, H-A:TYR:539:N:4870, V-B:TYR:539:CD1:9845, V-A:PRO:540:N:4884, H-B:TYR:484:OH:9319, V-B:PRO:540:CD:9859, V-A:MET:535:CE:4835, V-A:PRO:540:C:4881, H-A:TYR:539:O:4868, V-A:ILE:538:CA:4860, V-A:TYR:539:CZ:4877, V-A:TYR:539:CG:4872, V-A:TYR:539:CE2:4876, V-A:ILE:538:C:4858, V-A:TYR:539:CA:4869, V-B:ILE:538:CG2:9835, V-A:TYR:539:CD2:4874, V-B:PRO:540:CG:9858"]

$$$$
2c_Ghoteimi_2023
     RDKit          3D

 42 47  0  0  0  0  0  0  0  0999 V2000
  128.0430  132.6010   64.7430 N   0  0  0  0  0  0  0  0  0  0  0  0
  127.8960  131.6960   64.0380 C   0  0  0  0  0  0  0  0  0  0  0  0
  127.7100  130.5450   63.1490 C   0  0  0  0  0  0  0  0  0  0  0  0
  127.8100  129.2230   63.6490 C   0  0  0  0  0  0  0  0  0  0  0  0
  128.1080  128.8930   65.0750 C   0  0  0  0  0  0  0  0  0  0  0  0
  127.8690  129.8350   66.0780 C   0  0  0  0  0  0  0  0  0  0  0  0
  128.1400  129.5340   67.4100 C   0  0  0  0  0  0  0  0  0  0  0  0
  128.6710  128.2870   67.7750 C   0  0  0  0  0  0  0  0  0  0  0  0
  128.9310  127.9560   69.1070 N   0  0  0  0  0  0  0  0  0  0  0  0
  128.0470  126.9980   69.8000 C   0  0  0  0  0  0  0  0  0  0  0  0
  128.2050  127.0230   71.3350 C   0  0  0  0  0  0  0  0  0  0  0  0
  129.5630  126.8040   71.6870 O   0  0  0  0  0  0  0  0  0  0  0  0
  130.4130  127.8030   71.1450 C   0  0  0  0  0  0  0  0  0  0  0  0
  130.3120  127.8000   69.6050 C   0  0  0  0  0  0  0  0  0  0  0  0
  128.9110  127.3500   66.7600 C   0  0  0  0  0  0  0  0  0  0  0  0
  128.6380  127.6500   65.4290 C   0  0  0  0  0  0  0  0  0  0  0  0
  127.6200  128.1570   62.7600 C   0  0  0  0  0  0  0  0  0  0  0  0
  127.3120  128.4010   61.4180 C   0  0  0  0  0  0  0  0  0  0  0  0
  127.0830  127.2990   60.4330 C   0  0  0  0  0  0  0  0  0  0  0  0
  127.1520  125.9600   60.8310 C   0  0  0  0  0  0  0  0  0  0  0  0
  126.9340  124.9300   59.9200 C   0  0  0  0  0  0  0  0  0  0  0  0
  126.6500  125.2010   58.5720 C   0  0  0  0  0  0  0  0  0  0  0  0
  126.4040  124.1780   57.6500 N   0  0  0  0  0  0  0  0  0  0  0  0
  127.5130  123.3140   57.1960 C   0  0  0  0  0  0  0  0  0  0  0  0
  127.1880  122.5060   55.9220 C   0  0  0  0  0  0  0  0  0  0  0  0
  126.0050  121.7490   56.1160 O   0  0  0  0  0  0  0  0  0  0  0  0
  124.8920  122.5840   56.3940 C   0  0  0  0  0  0  0  0  0  0  0  0
  125.1490  123.3990   57.6800 C   0  0  0  0  0  0  0  0  0  0  0  0
  126.5700  126.5450   58.1810 C   0  0  0  0  0  0  0  0  0  0  0  0
  126.7860  127.5750   59.0930 C   0  0  0  0  0  0  0  0  0  0  0  0
  127.2140  129.6690   60.9410 N   0  0  0  0  0  0  0  0  0  0  0  0
  127.4240  130.7150   61.7750 C   0  0  0  0  0  0  0  0  0  0  0  0
  127.2670  132.2990   60.9820 S   0  0  0  0  0  0  0  0  0  0  0  0
  128.0700  132.1770   59.3550 C   0  0  0  0  0  0  0  0  0  0  0  0
  129.5950  132.1950   59.4650 C   0  0  0  0  0  0  0  0  0  0  0  0
  130.2680  132.5150   58.4840 O   0  0  0  0  0  0  0  0  0  0  0  0
  130.0970  131.8410   60.6680 N   0  0  0  0  0  0  0  0  0  0  0  0
  131.4360  131.7920   61.0270 C   0  0  0  0  0  0  0  0  0  0  0  0
  131.9590  131.9750   62.2190 N   0  0  0  0  0  0  0  0  0  0  0  0
  133.2710  131.8500   62.1970 C   0  0  0  0  0  0  0  0  0  0  0  0
  133.8410  131.5590   60.9610 C   0  0  0  0  0  0  0  0  0  0  0  0
  132.5800  131.4440   59.7710 S   0  0  0  0  0  0  0  0  0  0  0  0
  1  2  3  0
  2  3  1  0
  3  4  2  0
  4  5  1  0
  5  6  2  0
  6  7  1  0
  7  8  2  0
  8  9  1  0
  9 10  1  0
 10 11  1  0
 11 12  1  0
 12 13  1  0
 13 14  1  0
  8 15  1  0
 15 16  2  0
  4 17  1  0
 17 18  2  0
 18 19  1  0
 19 20  2  0
 20 21  1  0
 21 22  2  0
 22 23  1  0
 23 24  1  0
 24 25  1  0
 25 26  1  0
 26 27  1  0
 27 28  1  0
 22 29  1  0
 29 30  2  0
 18 31  1  0
 31 32  2  0
 32 33  1  0
 33 34  1  0
 34 35  1  0
 35 36  2  0
 35 37  1  0
 37 38  1  0
 38 39  2  0
 39 40  1  0
 40 41  2  0
 41 42  1  0
 32  3  1  0
 42 38  1  0
 16  5  1  0
 30 19  1  0
 14  9  1  0
 28 23  1  0
M  END
>  <Binding energies>  (11) 
[-11.46]

>  <Ligand effiencies>  (11) 
[-0.26651162790697674]

>  <Interactions>  (11) 
["V-B:GLU:543:C:9874, V-A:GLU:543:CD:4908, V-A:GLU:543:C:4902, V-A:HIS:456:CE1:4070, V-A:GLU:543:CB:4906, V-B:HIS:456:CE1:9041, V-A:GLY:544:C:4912, V-B:GLU:543:CB:9878, V-B:TYR:539:CE2:9848, V-B:LEU:363:CD1:8160, V-B:MET:535:CE:9807, V-B:PRO:540:CB:9857, V-B:TYR:539:CZ:9849, V-B:TYR:539:CG:9844, V-B:TYR:539:CE1:9847, H-B:TYR:539:N:9842, V-B:PRO:540:CA:9855, V-B:TYR:484:CE2:9317, V-B:TYR:484:CZ:9318, V-B:GLU:543:CG:9879, V-B:GLU:543:CD:9880, V-A:GLU:543:CG:4907, V-A:TYR:539:CD1:4873, V-A:PRO:540:CA:4883, V-A:PRO:540:CB:4885, V-B:PRO:540:N:9856, V-A:TYR:539:CE1:4875, V-B:TYR:539:CD1:9845, H-B:TYR:484:OH:9319, V-B:PRO:540:CD:9859, V-A:ASP:366:CG:3213, H-A:ALA:541:N:4891, V-B:ILE:538:CA:9832, V-B:ILE:538:CG2:9835, V-A:ASN:362:CB:3176, V-A:ASN:362:C:3172, V-A:LEU:363:CA:3185, V-B:PRO:540:CG:9858"]

$$$$
2j_Grossjean_2025
     RDKit          3D

 23 24  0  0  0  0  0  0  0  0999 V2000
  125.5890  130.6560   57.8010 C   0  0  0  0  0  0  0  0  0  0  0  0
  125.2010  131.3560   59.0900 C   0  0  0  0  0  0  0  0  0  0  0  0
  124.0510  131.0060   59.7920 C   0  0  0  0  0  0  0  0  0  0  0  0
  123.7360  131.6800   60.9820 C   0  0  0  0  0  0  0  0  0  0  0  0
  122.4610  131.2790   61.7470 C   0  0  0  0  0  0  0  0  0  0  0  0
  121.5750  130.7430   60.9070 F   0  0  0  0  0  0  0  0  0  0  0  0
  122.7570  130.3860   62.6920 F   0  0  0  0  0  0  0  0  0  0  0  0
  121.8700  132.3160   62.3450 F   0  0  0  0  0  0  0  0  0  0  0  0
  124.6070  132.7050   61.4290 C   0  0  0  0  0  0  0  0  0  0  0  0
  124.3270  133.4440   62.6650 C   0  0  0  0  0  0  0  0  0  0  0  0
  124.1070  134.0250   63.6400 N   0  0  0  0  0  0  0  0  0  0  0  0
  125.7540  132.9960   60.6520 C   0  0  0  0  0  0  0  0  0  0  0  0
  126.9210  134.2660   61.1200 S   0  0  0  0  0  0  0  0  0  0  0  0
  128.4160  133.4550   61.7840 C   0  0  0  0  0  0  0  0  0  0  0  0
  129.4220  132.9870   60.7220 C   0  0  0  0  0  0  0  0  0  0  0  0
  130.5580  132.6320   61.0440 O   0  0  0  0  0  0  0  0  0  0  0  0
  128.9590  133.0150   59.4520 N   0  0  0  0  0  0  0  0  0  0  0  0
  129.6540  132.6460   58.3080 C   0  0  0  0  0  0  0  0  0  0  0  0
  129.8920  133.3740   57.2390 N   0  0  0  0  0  0  0  0  0  0  0  0
  130.5860  132.7040   56.3390 C   0  0  0  0  0  0  0  0  0  0  0  0
  130.9270  131.3970   56.6740 C   0  0  0  0  0  0  0  0  0  0  0  0
  130.2990  131.0370   58.2550 S   0  0  0  0  0  0  0  0  0  0  0  0
  126.0420  132.3300   59.5050 N   0  0  0  0  0  0  0  0  0  0  0  0
  1  2  1  0
  2  3  2  0
  3  4  1  0
  4  5  1  0
  5  6  1  0
  5  7  1  0
  5  8  1  0
  4  9  2  0
  9 10  1  0
 10 11  3  0
  9 12  1  0
 12 13  1  0
 13 14  1  0
 14 15  1  0
 15 16  2  0
 15 17  1  0
 17 18  1  0
 18 19  2  0
 19 20  1  0
 20 21  2  0
 21 22  1  0
 12 23  2  0
 23  2  1  0
 22 18  1  0
M  END
>  <Binding energies>  (12) 
[-5.89]

>  <Ligand effiencies>  (12) 
[-0.24541666666666664]

>  <Interactions>  (12) 
["V-B:ASP:366:CB:8183, V-B:ASP:366:CG:8184, V-A:TYR:539:CD1:4873, V-B:GLY:454:CA:9020, V-A:ILE:538:CG2:4863, V-A:ILE:538:CB:4862, V-B:LEU:475:CD2:9230, V-A:ALA:541:CB:4892, V-A:PRO:540:CA:4883, V-B:ILE:369:CG2:8208, V-B:ILE:369:CG1:8209, V-A:TYR:539:CE1:4875, V-A:TYR:539:C:4867, H-A:TYR:539:N:4870, V-B:ILE:369:CB:8207, V-A:PRO:540:N:4884, V-A:MET:535:CE:4835, H-B:GLY:454:N:9021, V-A:PRO:540:C:4881, V-B:ASP:366:CA:8181, H-A:ALA:541:N:4891, H-A:TYR:539:O:4868, V-B:ARG:545:CZ:9898, V-A:ILE:538:CA:4860, V-B:GLY:453:C:9013, V-B:ILE:369:CD1:8210, V-B:GLY:453:CA:9015, V-B:CYS:365:C:8175"]

$$$$
3ab_Grossjean_2025
     RDKit          3D

 33 35  0  0  0  0  0  0  0  0999 V2000
  131.1240  126.6270   73.8170 C   0  0  0  0  0  0  0  0  0  0  0  0
  129.9630  127.4020   73.5510 O   0  0  0  0  0  0  0  0  0  0  0  0
  129.9910  128.4120   72.6440 C   0  0  0  0  0  0  0  0  0  0  0  0
  130.0840  129.6030   72.9530 O   0  0  0  0  0  0  0  0  0  0  0  0
  129.8990  127.9350   71.2230 C   0  0  0  0  0  0  0  0  0  0  0  0
  128.7380  127.3290   70.7160 C   0  0  0  0  0  0  0  0  0  0  0  0
  128.6810  126.8970   69.3940 C   0  0  0  0  0  0  0  0  0  0  0  0
  129.7910  127.0630   68.5510 C   0  0  0  0  0  0  0  0  0  0  0  0
  129.8430  126.6710   67.1990 N   0  0  0  0  0  0  0  0  0  0  0  0
  129.8330  125.4360   66.6550 C   0  0  0  0  0  0  0  0  0  0  0  0
  129.7870  124.3780   67.2820 O   0  0  0  0  0  0  0  0  0  0  0  0
  129.8860  125.3930   65.1260 C   0  0  0  0  0  0  0  0  0  0  0  0
  129.7240  123.7010   64.4830 S   0  0  0  0  0  0  0  0  0  0  0  0
  130.1860  123.7360   62.7640 C   0  0  0  0  0  0  0  0  0  0  0  0
  129.1360  123.6150   61.9180 N   0  0  0  0  0  0  0  0  0  0  0  0
  129.3430  123.6310   60.5760 C   0  0  0  0  0  0  0  0  0  0  0  0
  128.1270  123.4950   59.7080 C   0  0  0  0  0  0  0  0  0  0  0  0
  126.8800  123.9760   60.1380 C   0  0  0  0  0  0  0  0  0  0  0  0
  125.7480  123.8530   59.3370 C   0  0  0  0  0  0  0  0  0  0  0  0
  125.8480  123.2430   58.0900 C   0  0  0  0  0  0  0  0  0  0  0  0
  127.0700  122.7550   57.6410 C   0  0  0  0  0  0  0  0  0  0  0  0
  128.1990  122.8800   58.4460 C   0  0  0  0  0  0  0  0  0  0  0  0
  130.6350  123.7500   60.0520 C   0  0  0  0  0  0  0  0  0  0  0  0
  131.7410  123.8570   60.9080 C   0  0  0  0  0  0  0  0  0  0  0  0
  133.1480  123.9800   60.2910 C   0  0  0  0  0  0  0  0  0  0  0  0
  133.1220  124.0790   58.9600 F   0  0  0  0  0  0  0  0  0  0  0  0
  133.7620  125.0680   60.7590 F   0  0  0  0  0  0  0  0  0  0  0  0
  133.8760  122.9060   60.6000 F   0  0  0  0  0  0  0  0  0  0  0  0
  131.5190  123.8420   62.3070 C   0  0  0  0  0  0  0  0  0  0  0  0
  132.6440  123.8940   63.2450 C   0  0  0  0  0  0  0  0  0  0  0  0
  133.5340  123.9340   63.9830 N   0  0  0  0  0  0  0  0  0  0  0  0
  130.9440  127.6700   69.0500 C   0  0  0  0  0  0  0  0  0  0  0  0
  131.0000  128.1000   70.3730 C   0  0  0  0  0  0  0  0  0  0  0  0
  1  2  1  0
  2  3  1  0
  3  4  2  0
  3  5  1  0
  5  6  2  0
  6  7  1  0
  7  8  2  0
  8  9  1  0
  9 10  1  0
 10 11  2  0
 10 12  1  0
 12 13  1  0
 13 14  1  0
 14 15  2  0
 15 16  1  0
 16 17  1  0
 17 18  2  0
 18 19  1  0
 19 20  2  0
 20 21  1  0
 21 22  2  0
 16 23  2  0
 23 24  1  0
 24 25  1  0
 25 26  1  0
 25 27  1  0
 25 28  1  0
 24 29  2  0
 29 30  1  0
 30 31  3  0
  8 32  1  0
 32 33  2  0
 33  5  1  0
 29 14  1  0
 22 17  1  0
M  END
>  <Binding energies>  (13) 
[-8.49]

>  <Ligand effiencies>  (13) 
[-0.2497058823529412]

>  <Interactions>  (13) 
["H-A:LYS:547:NZ:4951, V-B:GLU:543:C:9874, V-A:GLU:543:CD:4908, V-A:GLU:543:C:4902, V-A:HIS:456:CE1:4070, V-A:GLU:543:CB:4906, V-B:HIS:456:CE1:9041, V-A:GLY:544:C:4912, V-B:GLU:543:CB:9878, V-A:ARG:545:CG:4922, V-B:TYR:539:CE2:9848, V-B:PRO:540:CB:9857, V-A:ILE:369:CG2:3237, V-B:TYR:539:CZ:9849, V-B:TYR:539:CD2:9846, V-B:TYR:539:CG:9844, V-B:PRO:540:CA:9855, V-A:HIS:456:CG:4066, V-A:HIS:456:CD2:4068, V-B:GLU:543:CG:9879, V-B:GLU:543:CD:9880, V-A:ILE:369:CD1:3239, H-A:GLU:543:OE2:4910, H-A:GLU:543:OE1:4909, V-A:ASP:366:CB:3212, V-B:PRO:540:N:9856, V-B:TYR:539:C:9839, V-B:PRO:540:CD:9859, V-A:ASP:366:CG:3213, H-A:GLY:454:N:4050, H-A:TYR:484:OH:4348, V-A:ASP:366:CA:3210, V-A:ILE:369:CB:3236"]

$$$$
3ac_Grossjean_2025
     RDKit          3D

 31 33  0  0  0  0  0  0  0  0999 V2000
  124.1400  130.7550   56.8860 C   0  0  0  0  0  0  0  0  0  0  0  0
  123.7520  131.5730   57.9850 O   0  0  0  0  0  0  0  0  0  0  0  0
  124.0530  131.1640   59.2700 C   0  0  0  0  0  0  0  0  0  0  0  0
  125.3570  130.7210   59.4920 C   0  0  0  0  0  0  0  0  0  0  0  0
  125.7540  130.2930   60.7560 C   0  0  0  0  0  0  0  0  0  0  0  0
  124.8470  130.2940   61.8170 C   0  0  0  0  0  0  0  0  0  0  0  0
  125.3470  129.8640   63.0600 N   0  0  0  0  0  0  0  0  0  0  0  0
  124.6940  129.7110   64.2330 C   0  0  0  0  0  0  0  0  0  0  0  0
  123.4880  129.8900   64.4050 O   0  0  0  0  0  0  0  0  0  0  0  0
  125.5590  129.2740   65.4160 C   0  0  0  0  0  0  0  0  0  0  0  0
  127.3290  129.5780   65.1240 S   0  0  0  0  0  0  0  0  0  0  0  0
  128.2620  128.2210   65.8060 C   0  0  0  0  0  0  0  0  0  0  0  0
  128.3460  128.2580   67.1580 N   0  0  0  0  0  0  0  0  0  0  0  0
  129.0210  127.2850   67.8210 C   0  0  0  0  0  0  0  0  0  0  0  0
  129.0730  127.4030   69.3150 C   0  0  0  0  0  0  0  0  0  0  0  0
  130.2040  127.9360   69.9550 C   0  0  0  0  0  0  0  0  0  0  0  0
  130.2560  128.0550   71.3410 C   0  0  0  0  0  0  0  0  0  0  0  0
  129.1740  127.6380   72.1090 C   0  0  0  0  0  0  0  0  0  0  0  0
  128.0440  127.1020   71.5020 C   0  0  0  0  0  0  0  0  0  0  0  0
  127.9960  126.9860   70.1160 C   0  0  0  0  0  0  0  0  0  0  0  0
  129.6510  126.2480   67.1250 C   0  0  0  0  0  0  0  0  0  0  0  0
  129.5980  126.1990   65.7240 C   0  0  0  0  0  0  0  0  0  0  0  0
  130.3110  125.0410   64.9970 C   0  0  0  0  0  0  0  0  0  0  0  0
  131.3400  125.4530   64.2530 F   0  0  0  0  0  0  0  0  0  0  0  0
  130.7870  124.1630   65.8810 F   0  0  0  0  0  0  0  0  0  0  0  0
  129.4520  124.4180   64.1880 F   0  0  0  0  0  0  0  0  0  0  0  0
  128.8970  127.2200   65.0360 C   0  0  0  0  0  0  0  0  0  0  0  0
  128.8800  127.2530   63.5720 C   0  0  0  0  0  0  0  0  0  0  0  0
  128.8670  127.2790   62.4150 N   0  0  0  0  0  0  0  0  0  0  0  0
  123.5350  130.7460   61.6030 C   0  0  0  0  0  0  0  0  0  0  0  0
  123.1420  131.1740   60.3380 C   0  0  0  0  0  0  0  0  0  0  0  0
  1  2  1  0
  2  3  1  0
  3  4  2  0
  4  5  1  0
  5  6  2  0
  6  7  1  0
  7  8  1  0
  8  9  2  0
  8 10  1  0
 10 11  1  0
 11 12  1  0
 12 13  2  0
 13 14  1  0
 14 15  1  0
 15 16  2  0
 16 17  1  0
 17 18  2  0
 18 19  1  0
 19 20  2  0
 14 21  2  0
 21 22  1  0
 22 23  1  0
 23 24  1  0
 23 25  1  0
 23 26  1  0
 22 27  2  0
 27 28  1  0
 28 29  3  0
  6 30  1  0
 30 31  2  0
 31  3  1  0
 27 12  1  0
 20 15  1  0
M  END
>  <Binding energies>  (14) 
[-8.02]

>  <Ligand effiencies>  (14) 
[-0.250625]

>  <Interactions>  (14) 
["V-B:GLU:543:C:9874, V-A:GLU:543:CD:4908, V-A:GLU:543:C:4902, V-A:HIS:456:CE1:4070, V-A:GLU:543:CB:4906, V-B:HIS:456:CE1:9041, V-A:GLY:544:C:4912, V-B:HIS:456:CD2:9039, V-B:GLU:543:CB:9878, V-B:ASP:366:CB:8183, V-B:ASP:366:CG:8184, V-B:GLU:543:CG:9879, V-B:GLU:543:CD:9880, V-A:GLU:543:CG:4907, V-A:TYR:484:CE2:4346, V-A:TYR:484:CZ:4347, V-B:ILE:369:CG2:8208, H-B:ARG:545:NH2:9900, V-B:ILE:369:CG1:8209, V-B:ILE:369:CB:8207, H-B:TYR:484:OH:9319, H-B:GLY:454:N:9021, V-B:ASP:366:CA:8181, V-B:TYR:531:CZ:9766, V-B:ARG:545:CZ:9898, H-B:ARG:545:NH1:9899, H-B:ARG:545:NE:9896, V-A:TYR:539:CZ:4877, V-B:ASP:366:C:8179, H-A:TYR:539:OH:4878, V-B:TYR:531:CE1:9764"]

$$$$
3af_Grossjean_2025
     RDKit          3D

 29 31  0  0  0  0  0  0  0  0999 V2000
  124.4660  130.4000   64.8240 N   0  0  0  0  0  0  0  0  0  0  0  0
  124.6070  130.5560   63.6860 C   0  0  0  0  0  0  0  0  0  0  0  0
  124.7840  130.7540   62.2450 C   0  0  0  0  0  0  0  0  0  0  0  0
  123.6640  130.9250   61.3960 C   0  0  0  0  0  0  0  0  0  0  0  0
  122.2170  130.9640   61.9260 C   0  0  0  0  0  0  0  0  0  0  0  0
  121.8970  132.1390   62.4740 F   0  0  0  0  0  0  0  0  0  0  0  0
  121.3610  130.7400   60.9270 F   0  0  0  0  0  0  0  0  0  0  0  0
  122.0460  130.0290   62.8610 F   0  0  0  0  0  0  0  0  0  0  0  0
  123.8820  131.0560   60.0160 C   0  0  0  0  0  0  0  0  0  0  0  0
  125.1800  131.0150   59.4980 C   0  0  0  0  0  0  0  0  0  0  0  0
  125.4690  131.1310   58.0310 C   0  0  0  0  0  0  0  0  0  0  0  0
  126.7720  131.3830   57.5740 C   0  0  0  0  0  0  0  0  0  0  0  0
  127.0460  131.4890   56.2130 C   0  0  0  0  0  0  0  0  0  0  0  0
  126.0170  131.3430   55.2890 C   0  0  0  0  0  0  0  0  0  0  0  0
  124.7180  131.0900   55.7150 C   0  0  0  0  0  0  0  0  0  0  0  0
  124.4480  130.9840   57.0770 C   0  0  0  0  0  0  0  0  0  0  0  0
  126.2510  130.8470   60.3150 N   0  0  0  0  0  0  0  0  0  0  0  0
  126.0680  130.7410   61.6540 C   0  0  0  0  0  0  0  0  0  0  0  0
  127.5890  130.5420   62.5600 S   0  0  0  0  0  0  0  0  0  0  0  0
  128.4380  132.1500   62.5930 C   0  0  0  0  0  0  0  0  0  0  0  0
  129.5130  132.2470   61.5120 C   0  0  0  0  0  0  0  0  0  0  0  0
  130.6890  132.3870   61.8480 O   0  0  0  0  0  0  0  0  0  0  0  0
  129.0630  132.1770   60.2400 N   0  0  0  0  0  0  0  0  0  0  0  0
  129.7800  132.2410   59.0290 C   0  0  0  0  0  0  0  0  0  0  0  0
  130.8850  131.4420   58.6850 C   0  0  0  0  0  0  0  0  0  0  0  0
  131.5040  131.6150   57.4450 C   0  0  0  0  0  0  0  0  0  0  0  0
  131.0020  132.5860   56.5780 C   0  0  0  0  0  0  0  0  0  0  0  0
  129.9390  133.3690   56.8850 N   0  0  0  0  0  0  0  0  0  0  0  0
  129.3480  133.1880   58.0940 C   0  0  0  0  0  0  0  0  0  0  0  0
  1  2  3  0
  2  3  1  0
  3  4  2  0
  4  5  1  0
  5  6  1  0
  5  7  1  0
  5  8  1  0
  4  9  1  0
  9 10  2  0
 10 11  1  0
 11 12  2  0
 12 13  1  0
 13 14  2  0
 14 15  1  0
 15 16  2  0
 10 17  1  0
 17 18  2  0
 18 19  1  0
 19 20  1  0
 20 21  1  0
 21 22  2  0
 21 23  1  0
 23 24  1  0
 24 25  2  0
 25 26  1  0
 26 27  2  0
 27 28  1  0
 28 29  2  0
 18  3  1  0
 29 24  1  0
 16 11  1  0
M  END
>  <Binding energies>  (15) 
[-8.0]

>  <Ligand effiencies>  (15) 
[-0.26666666666666666]

>  <Interactions>  (15) 
["V-B:ASP:366:CB:8183, V-B:ASP:366:CG:8184, V-A:TYR:539:CD1:4873, V-B:GLY:454:CA:9020, V-A:LEU:363:CD1:3189, V-A:ILE:538:CG2:4863, V-A:ILE:538:CB:4862, V-A:PRO:540:CA:4883, V-B:ILE:369:CG2:8208, V-B:ILE:369:CG1:8209, V-A:TYR:539:CE1:4875, V-A:TYR:539:C:4867, H-A:TYR:539:N:4870, V-B:ILE:369:CB:8207, V-A:PRO:540:N:4884, H-B:TYR:484:OH:9319, V-A:MET:535:CE:4835, H-B:GLY:454:N:9021, V-B:ASP:366:CA:8181, H-A:ALA:541:N:4891, V-B:TYR:531:CZ:9766, V-B:ARG:545:CZ:9898, V-A:TYR:539:CZ:4877, V-B:GLY:453:C:9013, V-B:ILE:369:CD1:8210, V-A:TYR:539:CA:4869, V-B:TYR:531:CE1:9764, V-B:GLY:453:CA:9015, V-B:CYS:365:C:8175"]

$$$$
3ag_Grossjean_2025
     RDKit          3D

 30 32  0  0  0  0  0  0  0  0999 V2000
  133.3640  131.8760   59.1410 N   0  0  0  0  0  0  0  0  0  0  0  0
  132.2240  131.7730   58.9650 C   0  0  0  0  0  0  0  0  0  0  0  0
  130.7820  131.6430   58.7390 C   0  0  0  0  0  0  0  0  0  0  0  0
  130.2160  131.9600   57.4790 C   0  0  0  0  0  0  0  0  0  0  0  0
  131.0670  132.3960   56.2700 C   0  0  0  0  0  0  0  0  0  0  0  0
  131.8380  133.4520   56.5340 F   0  0  0  0  0  0  0  0  0  0  0  0
  131.8670  131.3970   55.8960 F   0  0  0  0  0  0  0  0  0  0  0  0
  130.2770  132.7240   55.2470 F   0  0  0  0  0  0  0  0  0  0  0  0
  128.8240  131.8720   57.3280 C   0  0  0  0  0  0  0  0  0  0  0  0
  128.0180  131.4900   58.4070 C   0  0  0  0  0  0  0  0  0  0  0  0
  126.5280  131.3820   58.3020 C   0  0  0  0  0  0  0  0  0  0  0  0
  125.7170  131.5310   59.4390 C   0  0  0  0  0  0  0  0  0  0  0  0
  124.3310  131.4320   59.3490 C   0  0  0  0  0  0  0  0  0  0  0  0
  123.7350  131.1800   58.1170 C   0  0  0  0  0  0  0  0  0  0  0  0
  124.5160  131.0250   56.9760 C   0  0  0  0  0  0  0  0  0  0  0  0
  125.9010  131.1250   57.0700 C   0  0  0  0  0  0  0  0  0  0  0  0
  128.5660  131.1750   59.6090 N   0  0  0  0  0  0  0  0  0  0  0  0
  129.9100  131.2340   59.7720 C   0  0  0  0  0  0  0  0  0  0  0  0
  130.4480  130.7860   61.4070 S   0  0  0  0  0  0  0  0  0  0  0  0
  128.9770  130.7620   62.4740 C   0  0  0  0  0  0  0  0  0  0  0  0
  128.5460  132.1680   62.8960 C   0  0  0  0  0  0  0  0  0  0  0  0
  128.2500  132.3930   64.0710 O   0  0  0  0  0  0  0  0  0  0  0  0
  128.5240  133.1010   61.9290 N   0  0  0  0  0  0  0  0  0  0  0  0
  128.1790  134.5100   62.1160 C   0  0  0  0  0  0  0  0  0  0  0  0
  126.7490  134.8590   61.7180 C   0  0  0  0  0  0  0  0  0  0  0  0
  125.7590  133.8740   61.7520 C   0  0  0  0  0  0  0  0  0  0  0  0
  124.4460  134.1960   61.4180 C   0  0  0  0  0  0  0  0  0  0  0  0
  124.1260  135.5040   61.0590 C   0  0  0  0  0  0  0  0  0  0  0  0
  125.1060  136.4940   61.0370 C   0  0  0  0  0  0  0  0  0  0  0  0
  126.4190  136.1730   61.3720 C   0  0  0  0  0  0  0  0  0  0  0  0
  1  2  3  0
  2  3  1  0
  3  4  2  0
  4  5  1  0
  5  6  1  0
  5  7  1  0
  5  8  1  0
  4  9  1  0
  9 10  2  0
 10 11  1  0
 11 12  2  0
 12 13  1  0
 13 14  2  0
 14 15  1  0
 15 16  2  0
 10 17  1  0
 17 18  2  0
 18 19  1  0
 19 20  1  0
 20 21  1  0
 21 22  2  0
 21 23  1  0
 23 24  1  0
 24 25  1  0
 25 26  2  0
 26 27  1  0
 27 28  2  0
 28 29  1  0
 29 30  2  0
 18  3  1  0
 30 25  1  0
 16 11  1  0
M  END
>  <Binding energies>  (16) 
[-7.33]

>  <Ligand effiencies>  (16) 
[-0.2364516129032258]

>  <Interactions>  (16) 
["V-A:GLU:543:CD:4908, V-B:ASP:366:CB:8183, V-A:TYR:539:CD1:4873, V-A:LEU:363:CD1:3189, V-A:TYR:531:CE2:4793, V-A:ILE:538:CG2:4863, V-A:ILE:538:CB:4862, V-A:TYR:531:CZ:4794, V-B:LEU:475:CD2:9230, V-A:ALA:541:CB:4892, V-A:PRO:540:CA:4883, V-B:ILE:369:CG2:8208, V-A:PRO:540:CB:4885, V-A:TYR:539:CE1:4875, V-B:ILE:369:CB:8207, V-A:PRO:540:N:4884, H-B:TYR:484:OH:9319, V-A:MET:535:CE:4835, V-A:PRO:540:C:4881, V-B:ASP:366:CA:8181, V-B:TYR:531:CZ:9766, H-A:TYR:539:O:4868, V-A:PRO:540:CD:4887, V-A:ILE:538:CA:4860, V-A:TYR:539:CZ:4877, V-A:PRO:540:CG:4886, V-B:SER:385:CA:8378, V-B:ASP:366:C:8179, V-B:SER:385:CB:8380, V-A:ILE:538:C:4858"]

$$$$
3bc_Grossjean_2025
     RDKit          3D

 28 30  0  0  0  0  0  0  0  0999 V2000
  131.8440  132.4080   55.7680 C   0  0  0  0  0  0  0  0  0  0  0  0
  131.0380  133.3590   56.4550 O   0  0  0  0  0  0  0  0  0  0  0  0
  130.3340  132.9590   57.5760 C   0  0  0  0  0  0  0  0  0  0  0  0
  130.9890  132.0850   58.4420 C   0  0  0  0  0  0  0  0  0  0  0  0
  130.3600  131.6270   59.5970 C   0  0  0  0  0  0  0  0  0  0  0  0
  129.0580  132.0330   59.8970 C   0  0  0  0  0  0  0  0  0  0  0  0
  128.5100  131.5290   61.0910 N   0  0  0  0  0  0  0  0  0  0  0  0
  128.9570  131.6640   62.3580 C   0  0  0  0  0  0  0  0  0  0  0  0
  129.9490  132.3180   62.6860 O   0  0  0  0  0  0  0  0  0  0  0  0
  128.1000  130.9590   63.4190 C   0  0  0  0  0  0  0  0  0  0  0  0
  127.2000  129.4840   62.8350 S   0  0  0  0  0  0  0  0  0  0  0  0
  125.7830  130.0400   61.9140 C   0  0  0  0  0  0  0  0  0  0  0  0
  126.0060  130.1440   60.5810 N   0  0  0  0  0  0  0  0  0  0  0  0
  125.0070  130.5570   59.7580 C   0  0  0  0  0  0  0  0  0  0  0  0
  125.3410  130.6660   58.3000 C   0  0  0  0  0  0  0  0  0  0  0  0
  124.3290  130.8400   57.3440 C   0  0  0  0  0  0  0  0  0  0  0  0
  124.6310  130.9430   55.9890 C   0  0  0  0  0  0  0  0  0  0  0  0
  125.9550  130.8700   55.5710 C   0  0  0  0  0  0  0  0  0  0  0  0
  126.9780  130.6940   56.4970 C   0  0  0  0  0  0  0  0  0  0  0  0
  126.6700  130.5920   57.8520 C   0  0  0  0  0  0  0  0  0  0  0  0
  123.7440  130.8780   60.2670 C   0  0  0  0  0  0  0  0  0  0  0  0
  123.4910  130.7540   61.6370 C   0  0  0  0  0  0  0  0  0  0  0  0
  122.0920  131.0990   62.1460 C   0  0  0  0  0  0  0  0  0  0  0  0
  124.5240  130.3150   62.4940 C   0  0  0  0  0  0  0  0  0  0  0  0
  124.2680  130.1300   63.9230 C   0  0  0  0  0  0  0  0  0  0  0  0
  124.0630  129.9860   65.0530 N   0  0  0  0  0  0  0  0  0  0  0  0
  128.3970  132.9230   59.0380 C   0  0  0  0  0  0  0  0  0  0  0  0
  129.0300  133.3790   57.8840 C   0  0  0  0  0  0  0  0  0  0  0  0
  1  2  1  0
  2  3  1  0
  3  4  2  0
  4  5  1  0
  5  6  2  0
  6  7  1  0
  7  8  1  0
  8  9  2  0
  8 10  1  0
 10 11  1  0
 11 12  1  0
 12 13  2  0
 13 14  1  0
 14 15  1  0
 15 16  2  0
 16 17  1  0
 17 18  2  0
 18 19  1  0
 19 20  2  0
 14 21  2  0
 21 22  1  0
 22 23  1  0
 22 24  2  0
 24 25  1  0
 25 26  3  0
  6 27  1  0
 27 28  2  0
 28  3  1  0
 24 12  1  0
 20 15  1  0
M  END
>  <Binding energies>  (17) 
[-8.14]

>  <Ligand effiencies>  (17) 
[-0.2806896551724138]

>  <Interactions>  (17) 
["V-B:ASP:366:CB:8183, V-B:ASP:366:CG:8184, V-A:TYR:539:CD1:4873, V-B:GLY:454:CA:9020, V-A:LEU:363:CD1:3189, V-A:ILE:538:CG2:4863, V-A:ILE:538:CB:4862, V-A:PRO:540:CA:4883, V-B:ILE:369:CG2:8208, V-A:PRO:540:CB:4885, H-B:ARG:545:NH2:9900, V-B:ILE:369:CG1:8209, V-A:TYR:539:CE1:4875, V-A:TYR:539:C:4867, H-A:TYR:539:N:4870, V-B:ILE:369:CB:8207, V-A:PRO:540:N:4884, H-B:TYR:484:OH:9319, V-A:MET:535:CE:4835, H-B:GLY:454:N:9021, V-B:ASP:366:CA:8181, H-A:ALA:541:N:4891, V-B:TYR:531:CZ:9766, V-B:ARG:545:CZ:9898, H-B:ARG:545:NE:9896, V-A:PRO:540:CD:4887, V-A:ILE:538:CA:4860, V-A:TYR:539:CZ:4877, V-A:TYR:539:CG:4872, V-B:GLY:453:C:9013, V-A:TYR:539:CA:4869, V-B:TYR:531:CE1:9764, V-B:GLY:453:CA:9015"]

$$$$
3bd_Grossjean_2025
     RDKit          3D

 26 28  0  0  0  0  0  0  0  0999 V2000
  122.9640  131.0880   60.7390 C   0  0  0  0  0  0  0  0  0  0  0  0
  124.4780  131.1970   60.9070 C   0  0  0  0  0  0  0  0  0  0  0  0
  125.2390  131.5980   59.8040 C   0  0  0  0  0  0  0  0  0  0  0  0
  126.6300  131.7070   59.9160 C   0  0  0  0  0  0  0  0  0  0  0  0
  127.5050  132.1340   58.7750 C   0  0  0  0  0  0  0  0  0  0  0  0
  128.6760  132.8730   59.0060 C   0  0  0  0  0  0  0  0  0  0  0  0
  129.4910  133.2750   57.9510 C   0  0  0  0  0  0  0  0  0  0  0  0
  129.1450  132.9420   56.6460 C   0  0  0  0  0  0  0  0  0  0  0  0
  127.9880  132.2140   56.3890 C   0  0  0  0  0  0  0  0  0  0  0  0
  127.1750  131.8150   57.4470 C   0  0  0  0  0  0  0  0  0  0  0  0
  127.2550  131.4410   61.0930 N   0  0  0  0  0  0  0  0  0  0  0  0
  126.5330  131.0510   62.1740 C   0  0  0  0  0  0  0  0  0  0  0  0
  127.4730  130.7210   63.6550 S   0  0  0  0  0  0  0  0  0  0  0  0
  128.5460  132.1530   63.9720 C   0  0  0  0  0  0  0  0  0  0  0  0
  129.4960  132.4270   62.8050 C   0  0  0  0  0  0  0  0  0  0  0  0
  129.2740  133.3860   62.0650 O   0  0  0  0  0  0  0  0  0  0  0  0
  130.5230  131.5600   62.6700 N   0  0  0  0  0  0  0  0  0  0  0  0
  131.5650  131.5620   61.7240 C   0  0  0  0  0  0  0  0  0  0  0  0
  131.1980  131.2880   60.4040 C   0  0  0  0  0  0  0  0  0  0  0  0
  132.1620  131.2600   59.4000 C   0  0  0  0  0  0  0  0  0  0  0  0
  133.4970  131.4960   59.7170 C   0  0  0  0  0  0  0  0  0  0  0  0
  133.8770  131.7560   61.0310 C   0  0  0  0  0  0  0  0  0  0  0  0
  132.9160  131.7870   62.0380 C   0  0  0  0  0  0  0  0  0  0  0  0
  125.1290  130.9120   62.1270 C   0  0  0  0  0  0  0  0  0  0  0  0
  124.3590  130.4920   63.3020 C   0  0  0  0  0  0  0  0  0  0  0  0
  123.7500  130.1610   64.2280 N   0  0  0  0  0  0  0  0  0  0  0  0
  1  2  1  0
  2  3  2  0
  3  4  1  0
  4  5  1  0
  5  6  2  0
  6  7  1  0
  7  8  2  0
  8  9  1  0
  9 10  2  0
  4 11  2  0
 11 12  1  0
 12 13  1  0
 13 14  1  0
 14 15  1  0
 15 16  2  0
 15 17  1  0
 17 18  1  0
 18 19  2  0
 19 20  1  0
 20 21  2  0
 21 22  1  0
 22 23  2  0
 12 24  2  0
 24 25  1  0
 25 26  3  0
 24  2  1  0
 10  5  1  0
 23 18  1  0
M  END
>  <Binding energies>  (18) 
[-8.42]

>  <Ligand effiencies>  (18) 
[-0.3118518518518518]

>  <Interactions>  (18) 
["V-A:GLU:543:CD:4908, V-B:ASP:366:CB:8183, V-B:ASP:366:CG:8184, V-A:GLU:543:CG:4907, V-A:TYR:539:CD1:4873, V-A:LEU:363:CD1:3189, H-A:GLU:543:OE1:4909, V-A:ALA:541:CB:4892, V-A:PRO:540:CA:4883, V-B:ILE:369:CG2:8208, V-A:PRO:540:CB:4885, H-B:ARG:545:NH2:9900, V-B:ILE:369:CG1:8209, V-A:TYR:539:CE1:4875, V-A:TYR:539:C:4867, V-A:ALA:541:CA:4890, V-B:ILE:369:CB:8207, V-A:PRO:540:N:4884, H-B:TYR:484:OH:9319, V-A:MET:535:CE:4835, H-B:GLY:454:N:9021, V-A:ASP:366:CG:3213, V-B:ASP:366:CA:8181, H-A:ALA:541:N:4891, V-B:ARG:545:CZ:9898, H-B:ARG:545:NH1:9899, H-B:ARG:545:NE:9896, V-A:ILE:538:CA:4860, V-A:TYR:539:CZ:4877, V-A:TYR:539:CA:4869, V-A:ASN:362:CB:3176, V-A:ASN:362:C:3172, V-A:LEU:363:CA:3185, V-A:LEU:363:CB:3187"]

$$$$
3be_Grossjean_2025
     RDKit          3D

 27 29  0  0  0  0  0  0  0  0999 V2000
  126.7460  137.3900   61.0100 C   0  0  0  0  0  0  0  0  0  0  0  0
  125.9890  136.1130   61.3160 C   0  0  0  0  0  0  0  0  0  0  0  0
  124.5950  136.0920   61.4030 C   0  0  0  0  0  0  0  0  0  0  0  0
  123.9650  134.8800   61.6910 C   0  0  0  0  0  0  0  0  0  0  0  0
  124.7370  133.7310   61.8820 C   0  0  0  0  0  0  0  0  0  0  0  0
  126.1290  133.8210   61.7770 C   0  0  0  0  0  0  0  0  0  0  0  0
  126.8490  132.6310   61.9900 N   0  0  0  0  0  0  0  0  0  0  0  0
  127.5010  132.2240   63.1020 C   0  0  0  0  0  0  0  0  0  0  0  0
  127.5700  132.8720   64.1480 O   0  0  0  0  0  0  0  0  0  0  0  0
  128.1780  130.8500   62.9830 C   0  0  0  0  0  0  0  0  0  0  0  0
  127.0430  129.4470   62.7070 S   0  0  0  0  0  0  0  0  0  0  0  0
  125.6220  130.0520   61.8230 C   0  0  0  0  0  0  0  0  0  0  0  0
  125.8370  130.2150   60.4950 N   0  0  0  0  0  0  0  0  0  0  0  0
  124.8340  130.6680   59.6960 C   0  0  0  0  0  0  0  0  0  0  0  0
  125.1590  130.8340   58.2410 C   0  0  0  0  0  0  0  0  0  0  0  0
  124.1620  130.6930   57.2620 C   0  0  0  0  0  0  0  0  0  0  0  0
  124.4570  130.8430   55.9110 C   0  0  0  0  0  0  0  0  0  0  0  0
  125.7580  131.1370   55.5170 C   0  0  0  0  0  0  0  0  0  0  0  0
  126.7650  131.2790   56.4650 C   0  0  0  0  0  0  0  0  0  0  0  0
  126.4660  131.1270   57.8160 C   0  0  0  0  0  0  0  0  0  0  0  0
  123.5770  130.9730   60.2280 C   0  0  0  0  0  0  0  0  0  0  0  0
  123.3310  130.7880   61.5920 C   0  0  0  0  0  0  0  0  0  0  0  0
  121.9380  131.1180   62.1240 C   0  0  0  0  0  0  0  0  0  0  0  0
  124.3660  130.3040   62.4210 C   0  0  0  0  0  0  0  0  0  0  0  0
  124.1150  130.0510   63.8410 C   0  0  0  0  0  0  0  0  0  0  0  0
  123.9130  129.8510   64.9630 N   0  0  0  0  0  0  0  0  0  0  0  0
  126.7510  135.0040   61.4990 N   0  0  0  0  0  0  0  0  0  0  0  0
  1  2  1  0
  2  3  2  0
  3  4  1  0
  4  5  2  0
  5  6  1  0
  6  7  1  0
  7  8  1  0
  8  9  2  0
  8 10  1  0
 10 11  1  0
 11 12  1  0
 12 13  2  0
 13 14  1  0
 14 15  1  0
 15 16  2  0
 16 17  1  0
 17 18  2  0
 18 19  1  0
 19 20  2  0
 14 21  2  0
 21 22  1  0
 22 23  1  0
 22 24  2  0
 24 25  1  0
 25 26  3  0
  6 27  2  0
 27  2  1  0
 24 12  1  0
 20 15  1  0
M  END
>  <Binding energies>  (19) 
[-8.07]

>  <Ligand effiencies>  (19) 
[-0.2882142857142857]

>  <Interactions>  (19) 
["V-B:ASP:366:CB:8183, V-B:ASP:366:CG:8184, V-A:TYR:539:CD1:4873, V-B:GLY:454:CA:9020, V-B:LEU:475:CD2:9230, V-B:ILE:369:CG2:8208, H-B:ARG:545:NH2:9900, V-B:ILE:369:CG1:8209, V-A:TYR:539:CE1:4875, V-A:TYR:539:C:4867, V-B:ILE:369:CB:8207, H-B:TYR:484:OH:9319, V-A:MET:535:CE:4835, H-B:GLY:454:N:9021, V-B:ASP:366:CA:8181, V-B:TYR:531:CZ:9766, V-B:ARG:545:CZ:9898, H-B:ARG:545:NE:9896, V-A:TYR:539:CZ:4877, V-B:SER:385:CA:8378, V-B:ASP:366:C:8179, V-B:SER:385:CB:8380, V-A:TYR:539:CB:4871, V-B:GLY:453:C:9013, V-B:TYR:531:CE1:9764, V-B:GLY:453:CA:9015, V-B:ASN:370:CB:8216"]

$$$$
3bf_Grossjean_2025
     RDKit          3D

 26 28  0  0  0  0  0  0  0  0999 V2000
  122.1100  131.0040   61.7590 C   0  0  0  0  0  0  0  0  0  0  0  0
  123.5480  130.8670   61.2620 C   0  0  0  0  0  0  0  0  0  0  0  0
  123.7910  131.0280   59.8950 C   0  0  0  0  0  0  0  0  0  0  0  0
  125.0960  130.9250   59.3990 C   0  0  0  0  0  0  0  0  0  0  0  0
  125.4260  131.1100   57.9490 C   0  0  0  0  0  0  0  0  0  0  0  0
  126.7250  131.4570   57.5480 C   0  0  0  0  0  0  0  0  0  0  0  0
  127.0400  131.6300   56.2030 C   0  0  0  0  0  0  0  0  0  0  0  0
  126.0530  131.4600   55.2370 C   0  0  0  0  0  0  0  0  0  0  0  0
  124.7570  131.1180   55.6070 C   0  0  0  0  0  0  0  0  0  0  0  0
  124.4470  130.9460   56.9540 C   0  0  0  0  0  0  0  0  0  0  0  0
  126.1390  130.6690   60.2320 N   0  0  0  0  0  0  0  0  0  0  0  0
  125.9160  130.4850   61.5570 C   0  0  0  0  0  0  0  0  0  0  0  0
  127.3960  130.1530   62.4890 S   0  0  0  0  0  0  0  0  0  0  0  0
  128.2640  131.7360   62.7560 C   0  0  0  0  0  0  0  0  0  0  0  0
  129.3700  132.0530   61.7390 C   0  0  0  0  0  0  0  0  0  0  0  0
  130.5220  132.2820   62.1130 O   0  0  0  0  0  0  0  0  0  0  0  0
  128.9730  132.0240   60.4480 N   0  0  0  0  0  0  0  0  0  0  0  0
  129.7270  132.2760   59.2870 C   0  0  0  0  0  0  0  0  0  0  0  0
  130.9200  131.5620   59.1330 C   0  0  0  0  0  0  0  0  0  0  0  0
  131.7060  131.7580   57.9950 C   0  0  0  0  0  0  0  0  0  0  0  0
  131.2690  132.6670   57.0310 C   0  0  0  0  0  0  0  0  0  0  0  0
  130.1110  133.3650   57.1490 N   0  0  0  0  0  0  0  0  0  0  0  0
  129.3570  133.1640   58.2610 C   0  0  0  0  0  0  0  0  0  0  0  0
  124.6290  130.5930   62.1280 C   0  0  0  0  0  0  0  0  0  0  0  0
  124.4040  130.4700   63.5710 C   0  0  0  0  0  0  0  0  0  0  0  0
  124.2240  130.3710   64.7100 N   0  0  0  0  0  0  0  0  0  0  0  0
  1  2  1  0
  2  3  2  0
  3  4  1  0
  4  5  1  0
  5  6  2  0
  6  7  1  0
  7  8  2  0
  8  9  1  0
  9 10  2  0
  4 11  2  0
 11 12  1  0
 12 13  1  0
 13 14  1  0
 14 15  1  0
 15 16  2  0
 15 17  1  0
 17 18  1  0
 18 19  2  0
 19 20  1  0
 20 21  2  0
 21 22  1  0
 22 23  2  0
 12 24  2  0
 24 25  1  0
 25 26  3  0
 24  2  1  0
 10  5  1  0
 23 18  1  0
M  END
>  <Binding energies>  (20) 
[-8.29]

>  <Ligand effiencies>  (20) 
[-0.307037037037037]

>  <Interactions>  (20) 
["V-B:ASP:366:CB:8183, V-B:ASP:366:CG:8184, V-A:TYR:539:CD1:4873, V-B:GLY:454:CA:9020, V-A:LEU:363:CD1:3189, V-A:ILE:538:CB:4862, V-A:PRO:540:CA:4883, V-B:ILE:369:CG2:8208, V-A:PRO:540:CB:4885, V-B:ILE:369:CG1:8209, V-A:TYR:539:CE1:4875, V-A:TYR:539:C:4867, H-A:TYR:539:N:4870, V-B:ILE:369:CB:8207, V-A:PRO:540:N:4884, H-B:TYR:484:OH:9319, V-A:MET:535:CE:4835, H-B:GLY:454:N:9021, V-B:ASP:366:CA:8181, H-A:ALA:541:N:4891, V-B:TYR:531:CZ:9766, V-B:ARG:545:CZ:9898, V-A:PRO:540:CD:4887, V-A:TYR:539:CZ:4877, V-A:TYR:539:CE2:4876, V-B:GLY:453:C:9013, V-A:TYR:539:CA:4869, V-B:TYR:531:CE1:9764, V-B:GLY:453:CA:9015"]

$$$$
3bg_Grossjean_2025
     RDKit          3D

 27 29  0  0  0  0  0  0  0  0999 V2000
  121.8980  131.2190   62.1120 C   0  0  0  0  0  0  0  0  0  0  0  0
  123.2740  130.8070   61.5910 C   0  0  0  0  0  0  0  0  0  0  0  0
  123.5620  131.0230   60.2400 C   0  0  0  0  0  0  0  0  0  0  0  0
  124.8150  130.6670   59.7230 C   0  0  0  0  0  0  0  0  0  0  0  0
  125.1920  130.8830   58.2830 C   0  0  0  0  0  0  0  0  0  0  0  0
  124.2400  130.7580   57.2580 C   0  0  0  0  0  0  0  0  0  0  0  0
  124.5810  130.9740   55.9270 C   0  0  0  0  0  0  0  0  0  0  0  0
  125.8870  131.3180   55.5960 C   0  0  0  0  0  0  0  0  0  0  0  0
  126.8540  131.4370   56.5870 C   0  0  0  0  0  0  0  0  0  0  0  0
  126.5080  131.2180   57.9180 C   0  0  0  0  0  0  0  0  0  0  0  0
  125.7660  130.1260   60.5300 N   0  0  0  0  0  0  0  0  0  0  0  0
  125.5040  129.9130   61.8450 C   0  0  0  0  0  0  0  0  0  0  0  0
  126.8500  129.2300   62.8010 S   0  0  0  0  0  0  0  0  0  0  0  0
  127.2250  130.3820   64.1630 C   0  0  0  0  0  0  0  0  0  0  0  0
  127.6280  131.7650   63.6450 C   0  0  0  0  0  0  0  0  0  0  0  0
  127.9450  132.6500   64.4410 O   0  0  0  0  0  0  0  0  0  0  0  0
  127.5850  131.9410   62.3130 N   0  0  0  0  0  0  0  0  0  0  0  0
  127.7500  133.2190   61.6190 C   0  0  0  0  0  0  0  0  0  0  0  0
  126.4690  134.0440   61.6400 C   0  0  0  0  0  0  0  0  0  0  0  0
  125.2490  133.4350   61.9550 C   0  0  0  0  0  0  0  0  0  0  0  0
  124.0780  134.1860   61.9650 C   0  0  0  0  0  0  0  0  0  0  0  0
  124.1290  135.5480   61.6710 C   0  0  0  0  0  0  0  0  0  0  0  0
  125.3420  136.1660   61.3760 C   0  0  0  0  0  0  0  0  0  0  0  0
  126.5140  135.4130   61.3660 C   0  0  0  0  0  0  0  0  0  0  0  0
  124.2580  130.2320   62.4230 C   0  0  0  0  0  0  0  0  0  0  0  0
  123.9890  130.0010   63.8440 C   0  0  0  0  0  0  0  0  0  0  0  0
  123.7750  129.8180   64.9670 N   0  0  0  0  0  0  0  0  0  0  0  0
  1  2  1  0
  2  3  2  0
  3  4  1  0
  4  5  1  0
  5  6  2  0
  6  7  1  0
  7  8  2  0
  8  9  1  0
  9 10  2  0
  4 11  2  0
 11 12  1  0
 12 13  1  0
 13 14  1  0
 14 15  1  0
 15 16  2  0
 15 17  1  0
 17 18  1  0
 18 19  1  0
 19 20  2  0
 20 21  1  0
 21 22  2  0
 22 23  1  0
 23 24  2  0
 12 25  2  0
 25 26  1  0
 26 27  3  0
 25  2  1  0
 10  5  1  0
 24 19  1  0
M  END
>  <Binding energies>  (21) 
[-7.96]

>  <Ligand effiencies>  (21) 
[-0.2842857142857143]

>  <Interactions>  (21) 
["V-B:ASP:366:CB:8183, V-B:ASP:366:CG:8184, V-A:TYR:539:CD1:4873, V-B:GLY:454:CA:9020, V-B:LEU:475:CD2:9230, V-B:ILE:369:CG2:8208, H-B:ARG:545:NH2:9900, V-B:ILE:369:CG1:8209, V-A:TYR:539:CE1:4875, V-B:ILE:369:CB:8207, H-B:TYR:484:OH:9319, V-A:MET:535:CE:4835, H-B:GLY:454:N:9021, V-B:ASP:366:CA:8181, V-B:TYR:531:CZ:9766, V-B:ARG:545:CZ:9898, H-B:ARG:545:NH1:9899, H-B:ARG:545:NE:9896, V-A:TYR:539:CZ:4877, V-B:SER:385:CA:8378, V-B:ASP:366:C:8179, V-B:SER:385:CB:8380, V-B:GLY:453:C:9013, V-B:TYR:531:CE1:9764, V-B:GLY:453:CA:9015"]

$$$$
3ca_Grossjean_2025
     RDKit          3D

 31 33  0  0  0  0  0  0  0  0999 V2000
  127.1230  128.3820   74.1820 C   0  0  0  0  0  0  0  0  0  0  0  0
  127.3300  127.3920   73.0320 C   0  0  0  0  0  0  0  0  0  0  0  0
  128.7180  127.1160   72.8900 O   0  0  0  0  0  0  0  0  0  0  0  0
  129.5290  127.9470   72.1870 C   0  0  0  0  0  0  0  0  0  0  0  0
  130.1530  128.8830   72.6990 O   0  0  0  0  0  0  0  0  0  0  0  0
  129.6000  127.6110   70.7250 C   0  0  0  0  0  0  0  0  0  0  0  0
  128.4510  127.1470   70.0730 C   0  0  0  0  0  0  0  0  0  0  0  0
  128.4850  126.8280   68.7180 C   0  0  0  0  0  0  0  0  0  0  0  0
  129.6690  126.9580   67.9900 C   0  0  0  0  0  0  0  0  0  0  0  0
  129.5930  126.6090   66.6280 N   0  0  0  0  0  0  0  0  0  0  0  0
  129.7480  125.4050   66.0370 C   0  0  0  0  0  0  0  0  0  0  0  0
  129.9760  124.3470   66.6240 O   0  0  0  0  0  0  0  0  0  0  0  0
  129.5980  125.4000   64.5120 C   0  0  0  0  0  0  0  0  0  0  0  0
  130.1770  123.8540   63.7380 S   0  0  0  0  0  0  0  0  0  0  0  0
  130.0880  123.9950   61.9580 C   0  0  0  0  0  0  0  0  0  0  0  0
  131.2310  124.3870   61.3420 N   0  0  0  0  0  0  0  0  0  0  0  0
  131.2420  124.4960   59.9950 C   0  0  0  0  0  0  0  0  0  0  0  0
  132.5600  124.9210   59.3800 C   0  0  0  0  0  0  0  0  0  0  0  0
  130.1190  124.2350   59.2130 C   0  0  0  0  0  0  0  0  0  0  0  0
  128.9220  123.8460   59.8270 C   0  0  0  0  0  0  0  0  0  0  0  0
  127.7400  123.5910   58.9490 C   0  0  0  0  0  0  0  0  0  0  0  0
  126.5280  124.2460   59.1950 C   0  0  0  0  0  0  0  0  0  0  0  0
  125.4180  124.0070   58.3880 C   0  0  0  0  0  0  0  0  0  0  0  0
  125.5170  123.1050   57.3310 C   0  0  0  0  0  0  0  0  0  0  0  0
  126.7140  122.4400   57.0770 C   0  0  0  0  0  0  0  0  0  0  0  0
  127.8210  122.6810   57.8870 C   0  0  0  0  0  0  0  0  0  0  0  0
  128.9020  123.7120   61.2390 C   0  0  0  0  0  0  0  0  0  0  0  0
  127.6920  123.2590   61.9340 C   0  0  0  0  0  0  0  0  0  0  0  0
  126.7360  122.9010   62.4810 N   0  0  0  0  0  0  0  0  0  0  0  0
  130.8230  127.4300   68.6340 C   0  0  0  0  0  0  0  0  0  0  0  0
  130.7860  127.7510   69.9880 C   0  0  0  0  0  0  0  0  0  0  0  0
  1  2  1  0
  2  3  1  0
  3  4  1  0
  4  5  2  0
  4  6  1  0
  6  7  2  0
  7  8  1  0
  8  9  2  0
  9 10  1  0
 10 11  1  0
 11 12  2  0
 11 13  1  0
 13 14  1  0
 14 15  1  0
 15 16  2  0
 16 17  1  0
 17 18  1  0
 17 19  2  0
 19 20  1  0
 20 21  1  0
 21 22  2  0
 22 23  1  0
 23 24  2  0
 24 25  1  0
 25 26  2  0
 20 27  2  0
 27 28  1  0
 28 29  3  0
  9 30  1  0
 30 31  2  0
 31  6  1  0
 27 15  1  0
 26 21  1  0
M  END
>  <Binding energies>  (22) 
[-8.75]

>  <Ligand effiencies>  (22) 
[-0.2734375]

>  <Interactions>  (22) 
["V-B:HIS:456:CG:9037, H-A:LYS:547:NZ:4951, V-B:GLU:543:C:9874, V-A:GLU:543:CD:4908, V-A:GLU:543:C:4902, V-B:HIS:456:CB:9036, V-B:LYS:547:CE:9922, V-A:HIS:456:CE1:4070, V-B:GLY:544:C:9884, V-A:GLU:543:CB:4906, V-B:HIS:456:CE1:9041, V-A:GLY:544:C:4912, V-B:HIS:456:CD2:9039, V-B:GLU:543:CB:9878, V-B:TYR:539:CE2:9848, V-B:LEU:363:CD1:8160, V-B:PRO:540:CB:9857, H-B:ALA:541:N:9863, V-B:TYR:539:CZ:9849, V-B:TYR:539:CD2:9846, V-B:TYR:539:CG:9844, V-B:TYR:539:CE1:9847, V-B:PRO:540:CA:9855, H-B:LYS:547:NZ:9923, V-B:GLU:543:CG:9879, V-B:GLU:543:CD:9880, H-A:GLU:543:OE2:4910, H-A:GLU:543:OE1:4909, H-B:GLU:543:OE2:9882, V-A:ASP:366:CB:3212, V-B:PRO:540:N:9856, V-B:TYR:539:CD1:9845, V-B:TYR:539:C:9839, V-B:PRO:540:CD:9859, V-A:ASP:366:CG:3213, H-A:TYR:484:OH:4348"]

$$$$
3ce_Grossjean_2025
     RDKit          3D

 27 29  0  0  0  0  0  0  0  0999 V2000
  123.8160  131.0090   58.4990 C   0  0  0  0  0  0  0  0  0  0  0  0
  123.7840  131.1040   60.0120 C   0  0  0  0  0  0  0  0  0  0  0  0
  122.5800  131.0920   60.7210 C   0  0  0  0  0  0  0  0  0  0  0  0
  122.6270  131.1740   62.1120 C   0  0  0  0  0  0  0  0  0  0  0  0
  123.8630  131.2650   62.7570 C   0  0  0  0  0  0  0  0  0  0  0  0
  125.0310  131.2820   61.9860 C   0  0  0  0  0  0  0  0  0  0  0  0
  126.2460  131.3550   62.6890 N   0  0  0  0  0  0  0  0  0  0  0  0
  126.6800  130.5620   63.6940 C   0  0  0  0  0  0  0  0  0  0  0  0
  126.0530  129.6100   64.1630 O   0  0  0  0  0  0  0  0  0  0  0  0
  128.0600  130.9000   64.2560 C   0  0  0  0  0  0  0  0  0  0  0  0
  128.6170  132.5510   63.7420 S   0  0  0  0  0  0  0  0  0  0  0  0
  129.6900  132.2870   62.3490 C   0  0  0  0  0  0  0  0  0  0  0  0
  130.9390  131.8830   62.6850 N   0  0  0  0  0  0  0  0  0  0  0  0
  131.8280  131.6380   61.6950 C   0  0  0  0  0  0  0  0  0  0  0  0
  133.2020  131.1760   62.1400 C   0  0  0  0  0  0  0  0  0  0  0  0
  131.5130  131.7990   60.3480 C   0  0  0  0  0  0  0  0  0  0  0  0
  130.2350  132.2420   59.9820 C   0  0  0  0  0  0  0  0  0  0  0  0
  129.9520  132.4230   58.5270 C   0  0  0  0  0  0  0  0  0  0  0  0
  128.6720  132.1660   58.0220 C   0  0  0  0  0  0  0  0  0  0  0  0
  128.4020  132.3280   56.6650 C   0  0  0  0  0  0  0  0  0  0  0  0
  129.4150  132.7410   55.8050 C   0  0  0  0  0  0  0  0  0  0  0  0
  130.6970  132.9910   56.2900 C   0  0  0  0  0  0  0  0  0  0  0  0
  130.9630  132.8300   57.6460 C   0  0  0  0  0  0  0  0  0  0  0  0
  129.2880  132.4910   61.0080 C   0  0  0  0  0  0  0  0  0  0  0  0
  127.9300  132.9410   60.6850 C   0  0  0  0  0  0  0  0  0  0  0  0
  126.8600  133.2960   60.4290 N   0  0  0  0  0  0  0  0  0  0  0  0
  124.9930  131.1950   60.6240 N   0  0  0  0  0  0  0  0  0  0  0  0
  1  2  1  0
  2  3  2  0
  3  4  1  0
  4  5  2  0
  5  6  1  0
  6  7  1  0
  7  8  1  0
  8  9  2  0
  8 10  1  0
 10 11  1  0
 11 12  1  0
 12 13  2  0
 13 14  1  0
 14 15  1  0
 14 16  2  0
 16 17  1  0
 17 18  1  0
 18 19  2  0
 19 20  1  0
 20 21  2  0
 21 22  1  0
 22 23  2  0
 17 24  2  0
 24 25  1  0
 25 26  3  0
  6 27  2  0
 27  2  1  0
 24 12  1  0
 23 18  1  0
M  END
>  <Binding energies>  (23) 
[-8.17]

>  <Ligand effiencies>  (23) 
[-0.29178571428571426]

>  <Interactions>  (23) 
["V-A:GLU:543:CD:4908, V-B:ASP:366:CB:8183, V-B:ASP:366:CG:8184, V-A:GLU:543:CG:4907, V-A:TYR:539:CD1:4873, V-B:GLY:454:CA:9020, V-A:ILE:538:CG2:4863, V-A:ILE:538:CB:4862, V-A:ALA:541:CB:4892, V-A:PRO:540:CA:4883, V-B:ILE:369:CG2:8208, V-A:PRO:540:CB:4885, V-B:ILE:369:CG1:8209, V-A:TYR:539:CE1:4875, V-A:TYR:539:C:4867, V-B:ILE:369:CB:8207, V-A:PRO:540:N:4884, H-B:TYR:484:OH:9319, V-A:MET:535:CE:4835, V-B:ASP:366:CA:8181, H-A:ALA:541:N:4891, V-A:PRO:540:CD:4887, V-A:ILE:538:CA:4860, V-B:ASP:366:C:8179, V-A:ILE:538:C:4858, V-B:GLY:453:C:9013, V-A:ASN:362:CB:3176, V-B:GLY:453:CA:9015"]

$$$$
3cj_Grossjean_2025
     RDKit          3D

 25 27  0  0  0  0  0  0  0  0999 V2000
  131.9140  126.5340   58.0410 C   0  0  0  0  0  0  0  0  0  0  0  0
  131.1200  125.4120   58.6800 C   0  0  0  0  0  0  0  0  0  0  0  0
  129.8560  125.0560   58.2140 C   0  0  0  0  0  0  0  0  0  0  0  0
  129.1670  123.9970   58.8210 C   0  0  0  0  0  0  0  0  0  0  0  0
  127.8450  123.6090   58.2480 C   0  0  0  0  0  0  0  0  0  0  0  0
  127.7740  122.8630   57.0660 C   0  0  0  0  0  0  0  0  0  0  0  0
  126.5390  122.5130   56.5250 C   0  0  0  0  0  0  0  0  0  0  0  0
  125.3690  122.9140   57.1630 C   0  0  0  0  0  0  0  0  0  0  0  0
  125.4240  123.6650   58.3340 C   0  0  0  0  0  0  0  0  0  0  0  0
  126.6600  124.0130   58.8740 C   0  0  0  0  0  0  0  0  0  0  0  0
  129.7740  123.3390   59.9190 C   0  0  0  0  0  0  0  0  0  0  0  0
  129.0910  122.2430   60.6140 C   0  0  0  0  0  0  0  0  0  0  0  0
  128.5520  121.3760   61.1610 N   0  0  0  0  0  0  0  0  0  0  0  0
  131.0600  123.7630   60.3220 C   0  0  0  0  0  0  0  0  0  0  0  0
  131.9890  122.9380   61.5970 S   0  0  0  0  0  0  0  0  0  0  0  0
  133.2630  121.9880   60.7060 C   0  0  0  0  0  0  0  0  0  0  0  0
  132.7470  120.6140   60.2660 C   0  0  0  0  0  0  0  0  0  0  0  0
  133.4570  119.8960   59.5600 O   0  0  0  0  0  0  0  0  0  0  0  0
  131.5270  120.2770   60.7370 N   0  0  0  0  0  0  0  0  0  0  0  0
  130.8970  119.0500   60.5990 C   0  0  0  0  0  0  0  0  0  0  0  0
  131.0760  118.1520   59.6560 N   0  0  0  0  0  0  0  0  0  0  0  0
  130.3290  117.0850   59.8570 C   0  0  0  0  0  0  0  0  0  0  0  0
  129.5170  117.1040   60.9870 C   0  0  0  0  0  0  0  0  0  0  0  0
  129.7520  118.6090   61.8260 S   0  0  0  0  0  0  0  0  0  0  0  0
  131.7240  124.7740   59.7070 N   0  0  0  0  0  0  0  0  0  0  0  0
  1  2  1  0
  2  3  2  0
  3  4  1  0
  4  5  1  0
  5  6  2  0
  6  7  1  0
  7  8  2  0
  8  9  1  0
  9 10  2  0
  4 11  2  0
 11 12  1  0
 12 13  3  0
 11 14  1  0
 14 15  1  0
 15 16  1  0
 16 17  1  0
 17 18  2  0
 17 19  1  0
 19 20  1  0
 20 21  2  0
 21 22  1  0
 22 23  2  0
 23 24  1  0
 14 25  2  0
 25  2  1  0
 10  5  1  0
 24 20  1  0
M  END
>  <Binding energies>  (24) 
[-7.61]

>  <Ligand effiencies>  (24) 
[-0.2926923076923077]

>  <Interactions>  (24) 
["V-B:TYR:539:CE2:9848, V-B:LEU:363:CD1:8160, V-A:LEU:475:CD2:4259, V-B:MET:535:CE:9807, V-B:PRO:540:CB:9857, V-A:ILE:369:CG2:3237, H-B:ALA:541:N:9863, V-B:TYR:539:CZ:9849, V-B:TYR:539:CD2:9846, V-B:TYR:539:CG:9844, V-B:TYR:539:CE1:9847, V-B:PRO:540:CA:9855, V-B:ALA:541:CB:9864, V-A:ASP:366:CB:3212, V-B:PRO:540:N:9856, V-B:TYR:539:CD1:9845, V-B:TYR:539:C:9839, V-B:PRO:540:CD:9859, V-A:ASP:366:CG:3213, H-A:SER:385:OG:3410, V-B:TYR:539:CB:9843, V-A:LEU:475:CD1:4258, V-A:HIS:383:CD2:3392, V-A:HIS:383:CE1:3393, V-B:VAL:344:CG1:7972, V-A:PRO:482:CG:4327, V-A:HIS:383:NE2:3394, V-A:PRO:482:CB:4326, V-A:LEU:475:CG:4257, H-A:HIS:383:HE2:3395, V-A:SER:385:CB:3409, V-B:PRO:540:CG:9858"]

$$$$
4ba_Grossjean_2025
     RDKit          3D

 28 30  0  0  0  0  0  0  0  0999 V2000
  127.6740  126.9750   70.8700 C   0  0  0  0  0  0  0  0  0  0  0  0
  129.1940  126.9430   71.1160 C   0  0  0  0  0  0  0  0  0  0  0  0
  130.0490  127.5940   70.0100 C   0  0  0  0  0  0  0  0  0  0  0  0
  131.2440  127.8200   70.2190 O   0  0  0  0  0  0  0  0  0  0  0  0
  129.3760  127.9230   68.7090 C   0  0  0  0  0  0  0  0  0  0  0  0
  128.8000  129.1870   68.5320 C   0  0  0  0  0  0  0  0  0  0  0  0
  128.1680  129.5180   67.3370 C   0  0  0  0  0  0  0  0  0  0  0  0
  128.1010  128.5940   66.2930 C   0  0  0  0  0  0  0  0  0  0  0  0
  127.4320  129.0300   65.1330 N   0  0  0  0  0  0  0  0  0  0  0  0
  127.5390  130.1960   64.4510 C   0  0  0  0  0  0  0  0  0  0  0  0
  128.2610  131.1340   64.7920 O   0  0  0  0  0  0  0  0  0  0  0  0
  126.7020  130.2990   63.2530 C   0  0  0  0  0  0  0  0  0  0  0  0
  127.4360  130.2510   61.6520 S   0  0  0  0  0  0  0  0  0  0  0  0
  125.8820  130.4710   60.8830 C   0  0  0  0  0  0  0  0  0  0  0  0
  125.7660  130.5270   59.5560 N   0  0  0  0  0  0  0  0  0  0  0  0
  124.5130  130.7000   59.0770 C   0  0  0  0  0  0  0  0  0  0  0  0
  124.4050  130.7700   57.5640 C   0  0  0  0  0  0  0  0  0  0  0  0
  123.3840  130.8140   59.8830 C   0  0  0  0  0  0  0  0  0  0  0  0
  123.5000  130.7560   61.2820 C   0  0  0  0  0  0  0  0  0  0  0  0
  122.2290  130.8840   62.1280 C   0  0  0  0  0  0  0  0  0  0  0  0
  122.0740  132.0990   62.6580 F   0  0  0  0  0  0  0  0  0  0  0  0
  121.1570  130.6370   61.3740 F   0  0  0  0  0  0  0  0  0  0  0  0
  122.2690  130.0110   63.1350 F   0  0  0  0  0  0  0  0  0  0  0  0
  124.8100  130.5790   61.8200 C   0  0  0  0  0  0  0  0  0  0  0  0
  125.3120  130.4860   63.1690 C   0  0  0  0  0  0  0  0  0  0  0  0
  124.4970  130.5720   64.2700 N   0  0  0  0  0  0  0  0  0  0  0  0
  128.6690  127.3230   66.4640 C   0  0  0  0  0  0  0  0  0  0  0  0
  129.3010  126.9940   67.6610 C   0  0  0  0  0  0  0  0  0  0  0  0
  1  2  1  0
  2  3  1  0
  3  4  2  0
  3  5  1  0
  5  6  2  0
  6  7  1  0
  7  8  2  0
  8  9  1  0
  9 10  1  0
 10 11  2  0
 10 12  1  0
 12 13  1  0
 13 14  1  0
 14 15  2  0
 15 16  1  0
 16 17  1  0
 16 18  2  0
 18 19  1  0
 19 20  1  0
 20 21  1  0
 20 22  1  0
 20 23  1  0
 19 24  2  0
 24 25  1  0
 25 26  1  0
  8 27  1  0
 27 28  2  0
 28  5  1  0
 25 12  2  0
 24 14  1  0
M  END
>  <Binding energies>  (25) 
[-7.12]

>  <Ligand effiencies>  (25) 
[-0.2296774193548387]

>  <Interactions>  (25) 
["V-B:GLU:543:C:9874, V-A:GLU:543:CD:4908, V-A:GLU:543:C:4902, V-A:HIS:456:CE1:4070, V-B:GLY:544:C:9884, V-A:GLU:543:CB:4906, V-B:HIS:456:CE1:9041, V-B:GLU:543:CB:9878, V-B:ASP:366:CB:8183, V-B:ASP:366:CG:8184, V-B:TYR:484:CE2:9317, V-B:TYR:484:CZ:9318, V-B:GLU:543:CG:9879, V-B:GLU:543:CD:9880, V-A:GLU:543:CG:4907, V-A:GLU:543:CA:4904, H-B:GLU:543:OE1:9881, V-B:GLY:454:CA:9020, V-B:ILE:369:CG2:8208, H-B:GLU:543:OE2:9882, V-B:ILE:369:CG1:8209, V-A:TYR:539:CE1:4875, V-B:ILE:369:CB:8207, H-B:TYR:484:OH:9319, V-B:ASP:366:CA:8181, V-B:ARG:545:CZ:9898, V-B:GLY:453:C:9013, V-B:ILE:369:CD1:8210, V-B:GLY:453:CA:9015, H-A:ARG:545:N:4920, V-B:CYS:365:C:8175"]

$$$$
4bb_Grossjean_2025
     RDKit          3D

 27 29  0  0  0  0  0  0  0  0999 V2000
  129.1630  127.0390   71.1150 C   0  0  0  0  0  0  0  0  0  0  0  0
  130.0190  127.6230   69.9890 C   0  0  0  0  0  0  0  0  0  0  0  0
  131.2170  127.8100   70.2070 O   0  0  0  0  0  0  0  0  0  0  0  0
  129.3530  127.9460   68.6850 C   0  0  0  0  0  0  0  0  0  0  0  0
  128.7720  129.2080   68.5030 C   0  0  0  0  0  0  0  0  0  0  0  0
  128.1480  129.5330   67.3030 C   0  0  0  0  0  0  0  0  0  0  0  0
  128.0970  128.6080   66.2590 C   0  0  0  0  0  0  0  0  0  0  0  0
  127.4390  129.0390   65.0900 N   0  0  0  0  0  0  0  0  0  0  0  0
  127.5380  130.2120   64.4170 C   0  0  0  0  0  0  0  0  0  0  0  0
  128.2490  131.1530   64.7680 O   0  0  0  0  0  0  0  0  0  0  0  0
  126.6990  130.3170   63.2200 C   0  0  0  0  0  0  0  0  0  0  0  0
  127.4310  130.2870   61.6180 S   0  0  0  0  0  0  0  0  0  0  0  0
  125.8740  130.4920   60.8500 C   0  0  0  0  0  0  0  0  0  0  0  0
  125.7540  130.5450   59.5250 N   0  0  0  0  0  0  0  0  0  0  0  0
  124.4980  130.7070   59.0490 C   0  0  0  0  0  0  0  0  0  0  0  0
  124.3830  130.7640   57.5360 C   0  0  0  0  0  0  0  0  0  0  0  0
  123.3710  130.8160   59.8580 C   0  0  0  0  0  0  0  0  0  0  0  0
  123.4910  130.7590   61.2550 C   0  0  0  0  0  0  0  0  0  0  0  0
  122.2220  130.8840   62.1040 C   0  0  0  0  0  0  0  0  0  0  0  0
  121.1050  130.6490   61.4110 F   0  0  0  0  0  0  0  0  0  0  0  0
  122.2620  130.0050   63.1060 F   0  0  0  0  0  0  0  0  0  0  0  0
  122.1300  132.1160   62.6030 F   0  0  0  0  0  0  0  0  0  0  0  0
  124.8030  130.5900   61.7910 C   0  0  0  0  0  0  0  0  0  0  0  0
  125.3070  130.4910   63.1380 C   0  0  0  0  0  0  0  0  0  0  0  0
  124.4930  130.5550   64.2400 N   0  0  0  0  0  0  0  0  0  0  0  0
  128.6700  127.3390   66.4360 C   0  0  0  0  0  0  0  0  0  0  0  0
  129.2930  127.0150   67.6380 C   0  0  0  0  0  0  0  0  0  0  0  0
  1  2  1  0
  2  3  2  0
  2  4  1  0
  4  5  2  0
  5  6  1  0
  6  7  2  0
  7  8  1  0
  8  9  1  0
  9 10  2  0
  9 11  1  0
 11 12  1  0
 12 13  1  0
 13 14  2  0
 14 15  1  0
 15 16  1  0
 15 17  2  0
 17 18  1  0
 18 19  1  0
 19 20  1  0
 19 21  1  0
 19 22  1  0
 18 23  2  0
 23 24  1  0
 24 25  1  0
  7 26  1  0
 26 27  2  0
 27  4  1  0
 24 11  2  0
 23 13  1  0
M  END
>  <Binding energies>  (26) 
[-6.93]

>  <Ligand effiencies>  (26) 
[-0.23099999999999998]

>  <Interactions>  (26) 
["V-A:GLU:543:CD:4908, V-A:GLU:543:C:4902, V-A:HIS:456:CE1:4070, V-A:GLU:543:CB:4906, V-B:HIS:456:CE1:9041, V-B:GLU:543:CB:9878, V-B:ASP:366:CB:8183, V-B:ASP:366:CG:8184, V-B:TYR:484:CE2:9317, V-B:TYR:484:CZ:9318, V-B:GLU:543:CG:9879, V-B:GLU:543:CD:9880, V-A:GLU:543:CG:4907, V-A:GLU:543:CA:4904, H-B:GLU:543:OE1:9881, V-B:GLY:454:CA:9020, V-B:ILE:369:CG2:8208, H-B:GLU:543:OE2:9882, V-B:ILE:369:CG1:8209, V-B:ILE:369:CB:8207, H-B:TYR:484:OH:9319, V-B:ASP:366:CA:8181, V-B:TYR:531:CZ:9766, V-B:ARG:545:CZ:9898, V-B:GLY:453:C:9013, V-B:ILE:369:CD1:8210, V-B:GLY:453:CA:9015, H-A:ARG:545:N:4920, V-B:CYS:365:C:8175"]

$$$$
4bd_Grossjean_2025
     RDKit          3D

 24 26  0  0  0  0  0  0  0  0999 V2000
  127.1750  122.1210   54.8730 C   0  0  0  0  0  0  0  0  0  0  0  0
  126.9140  122.6150   56.2840 C   0  0  0  0  0  0  0  0  0  0  0  0
  125.8190  123.4250   56.5710 C   0  0  0  0  0  0  0  0  0  0  0  0
  125.5910  123.8770   57.8800 C   0  0  0  0  0  0  0  0  0  0  0  0
  124.3740  124.7700   58.1460 C   0  0  0  0  0  0  0  0  0  0  0  0
  123.6570  124.3740   59.2000 F   0  0  0  0  0  0  0  0  0  0  0  0
  124.7730  126.0190   58.3810 F   0  0  0  0  0  0  0  0  0  0  0  0
  123.5650  124.7560   57.0870 F   0  0  0  0  0  0  0  0  0  0  0  0
  126.5200  123.4690   58.8820 C   0  0  0  0  0  0  0  0  0  0  0  0
  126.6130  123.7250   60.2990 C   0  0  0  0  0  0  0  0  0  0  0  0
  125.6980  124.4920   60.9720 N   0  0  0  0  0  0  0  0  0  0  0  0
  127.7180  123.1220   60.9210 C   0  0  0  0  0  0  0  0  0  0  0  0
  128.1230  123.1870   62.3290 C   0  0  0  0  0  0  0  0  0  0  0  0
  127.4810  122.5910   63.1950 O   0  0  0  0  0  0  0  0  0  0  0  0
  129.2330  123.9240   62.5810 N   0  0  0  0  0  0  0  0  0  0  0  0
  129.8510  124.2180   63.8100 C   0  0  0  0  0  0  0  0  0  0  0  0
  130.8890  125.1540   63.7660 C   0  0  0  0  0  0  0  0  0  0  0  0
  131.5560  125.5190   64.9310 C   0  0  0  0  0  0  0  0  0  0  0  0
  131.1810  124.9540   66.1470 C   0  0  0  0  0  0  0  0  0  0  0  0
  130.1400  124.0310   66.2080 C   0  0  0  0  0  0  0  0  0  0  0  0
  129.4700  123.6630   65.0440 C   0  0  0  0  0  0  0  0  0  0  0  0
  128.6800  122.2060   59.7630 S   0  0  0  0  0  0  0  0  0  0  0  0
  127.6020  122.6380   58.4560 C   0  0  0  0  0  0  0  0  0  0  0  0
  127.8130  122.2110   57.2120 N   0  0  0  0  0  0  0  0  0  0  0  0
  1  2  1  0
  2  3  2  0
  3  4  1  0
  4  5  1  0
  5  6  1  0
  5  7  1  0
  5  8  1  0
  4  9  2  0
  9 10  1  0
 10 11  1  0
 10 12  2  0
 12 13  1  0
 13 14  2  0
 13 15  1  0
 15 16  1  0
 16 17  2  0
 17 18  1  0
 18 19  2  0
 19 20  1  0
 20 21  2  0
 12 22  1  0
 22 23  1  0
 23 24  2  0
 24  2  1  0
 23  9  1  0
 21 16  1  0
M  END
>  <Binding energies>  (27) 
[-6.72]

>  <Ligand effiencies>  (27) 
[-0.24888888888888888]

>  <Interactions>  (27) 
["V-A:GLU:543:CD:4908, V-A:HIS:456:CE1:4070, V-B:GLU:543:CB:9878, V-B:TYR:539:CE2:9848, V-B:LEU:363:CA:8156, V-B:LEU:363:CD1:8160, V-B:ASN:362:C:8143, V-B:MET:535:CE:9807, V-B:ASP:366:CB:8183, V-B:PRO:540:CB:9857, V-B:LEU:363:CB:8158, H-B:ALA:541:N:9863, V-B:ASP:366:CG:8184, V-B:TYR:539:CD2:9846, V-B:TYR:539:CG:9844, V-B:TYR:539:CE1:9847, H-B:TYR:539:N:9842, V-B:TYR:531:CE2:9765, V-B:PRO:540:CA:9855, V-B:GLU:543:CG:9879, V-B:GLU:543:CD:9880, V-A:TYR:484:CE2:4346, V-B:ALA:541:CB:9864, H-B:GLU:543:OE1:9881, V-A:TYR:484:CZ:4347, V-B:PRO:540:N:9856, V-B:TYR:539:CD1:9845, V-B:TYR:539:C:9839, V-B:TYR:531:CZ:9766, H-B:ASP:366:OD1:8185, V-B:ILE:538:CA:9832, V-B:ILE:538:C:9830, V-B:ILE:538:CG2:9835, V-B:ILE:538:CB:9834, V-B:LEU:363:CG:8159, V-B:TYR:531:CD2:9763"]

$$$$
4be_Grossjean_2025
     RDKit          3D

 25 27  0  0  0  0  0  0  0  0999 V2000
  129.4200  125.8460   67.0910 C   0  0  0  0  0  0  0  0  0  0  0  0
  130.1990  125.3370   65.8940 C   0  0  0  0  0  0  0  0  0  0  0  0
  131.5860  125.1750   65.9410 C   0  0  0  0  0  0  0  0  0  0  0  0
  132.2380  124.7040   64.8000 C   0  0  0  0  0  0  0  0  0  0  0  0
  131.4960  124.4100   63.6540 C   0  0  0  0  0  0  0  0  0  0  0  0
  130.1090  124.5890   63.6770 C   0  0  0  0  0  0  0  0  0  0  0  0
  129.4210  124.2820   62.4890 N   0  0  0  0  0  0  0  0  0  0  0  0
  128.3320  123.4930   62.3150 C   0  0  0  0  0  0  0  0  0  0  0  0
  127.7560  122.9060   63.2330 O   0  0  0  0  0  0  0  0  0  0  0  0
  127.8720  123.3520   60.9310 C   0  0  0  0  0  0  0  0  0  0  0  0
  128.8160  122.4130   59.7760 S   0  0  0  0  0  0  0  0  0  0  0  0
  127.6800  122.7640   58.4940 C   0  0  0  0  0  0  0  0  0  0  0  0
  127.8550  122.2890   57.2620 N   0  0  0  0  0  0  0  0  0  0  0  0
  126.9080  122.6260   56.3550 C   0  0  0  0  0  0  0  0  0  0  0  0
  127.1270  122.0780   54.9570 C   0  0  0  0  0  0  0  0  0  0  0  0
  125.8020  123.4180   56.6500 C   0  0  0  0  0  0  0  0  0  0  0  0
  125.6120  123.9210   57.9470 C   0  0  0  0  0  0  0  0  0  0  0  0
  124.3770  124.7850   58.2240 C   0  0  0  0  0  0  0  0  0  0  0  0
  123.4720  124.7320   57.2430 F   0  0  0  0  0  0  0  0  0  0  0  0
  123.7780  124.3700   59.3400 F   0  0  0  0  0  0  0  0  0  0  0  0
  124.7400  126.0590   58.3660 F   0  0  0  0  0  0  0  0  0  0  0  0
  126.5940  123.5870   58.9260 C   0  0  0  0  0  0  0  0  0  0  0  0
  126.7390  123.9150   60.3230 C   0  0  0  0  0  0  0  0  0  0  0  0
  125.8400  124.7040   60.9950 N   0  0  0  0  0  0  0  0  0  0  0  0
  129.4650  125.0550   64.7880 N   0  0  0  0  0  0  0  0  0  0  0  0
  1  2  1  0
  2  3  2  0
  3  4  1  0
  4  5  2  0
  5  6  1  0
  6  7  1  0
  7  8  1  0
  8  9  2  0
  8 10  1  0
 10 11  1  0
 11 12  1  0
 12 13  2  0
 13 14  1  0
 14 15  1  0
 14 16  2  0
 16 17  1  0
 17 18  1  0
 18 19  1  0
 18 20  1  0
 18 21  1  0
 17 22  2  0
 22 23  1  0
 23 24  1  0
  6 25  2  0
 25  2  1  0
 23 10  2  0
 22 12  1  0
M  END
>  <Binding energies>  (28) 
[-6.94]

>  <Ligand effiencies>  (28) 
[-0.24785714285714286]

>  <Interactions>  (28) 
["V-B:GLU:543:CB:9878, V-B:TYR:539:CE2:9848, V-B:LEU:363:CA:8156, V-B:LEU:363:CD1:8160, V-B:ASN:362:C:8143, V-B:MET:535:CE:9807, V-B:ASP:366:CB:8183, V-B:PRO:540:CB:9857, V-B:LEU:363:CB:8158, H-B:ALA:541:N:9863, V-B:ASP:366:CG:8184, V-B:TYR:539:CD2:9846, V-B:TYR:539:CG:9844, V-B:TYR:539:CE1:9847, H-B:TYR:539:N:9842, V-B:TYR:531:CE2:9765, V-B:PRO:540:CA:9855, V-B:GLU:543:CA:9876, V-B:GLU:543:CG:9879, V-B:GLU:543:CD:9880, H-B:GLU:543:OE1:9881, V-A:TYR:484:CZ:4347, V-B:PRO:540:N:9856, V-B:TYR:539:CD1:9845, V-B:TYR:539:C:9839, V-B:TYR:531:CZ:9766, H-B:ASP:366:OD1:8185, V-B:ILE:538:CA:9832, V-B:ILE:538:C:9830, V-B:ILE:538:CG2:9835, V-B:ILE:538:CB:9834, V-B:LEU:363:CG:8159, V-B:TYR:531:CD2:9763"]

$$$$
4bg_Grossjean_2025
     RDKit          3D

 25 27  0  0  0  0  0  0  0  0999 V2000
  127.1960  122.1130   54.9120 C   0  0  0  0  0  0  0  0  0  0  0  0
  126.9020  122.6090   56.3160 C   0  0  0  0  0  0  0  0  0  0  0  0
  125.8030  123.4250   56.5730 C   0  0  0  0  0  0  0  0  0  0  0  0
  125.5450  123.8810   57.8760 C   0  0  0  0  0  0  0  0  0  0  0  0
  124.3250  124.7770   58.1100 C   0  0  0  0  0  0  0  0  0  0  0  0
  123.5730  124.3760   59.1380 F   0  0  0  0  0  0  0  0  0  0  0  0
  124.7220  126.0230   58.3680 F   0  0  0  0  0  0  0  0  0  0  0  0
  123.5500  124.7770   57.0260 F   0  0  0  0  0  0  0  0  0  0  0  0
  126.4500  123.4730   58.9000 C   0  0  0  0  0  0  0  0  0  0  0  0
  126.5150  123.7390   60.3160 C   0  0  0  0  0  0  0  0  0  0  0  0
  125.6040  124.5350   60.9650 N   0  0  0  0  0  0  0  0  0  0  0  0
  127.5830  123.1060   60.9690 C   0  0  0  0  0  0  0  0  0  0  0  0
  127.9630  123.1800   62.3800 C   0  0  0  0  0  0  0  0  0  0  0  0
  127.3720  122.5260   63.2400 O   0  0  0  0  0  0  0  0  0  0  0  0
  129.0170  123.9720   62.6670 N   0  0  0  0  0  0  0  0  0  0  0  0
  129.5610  124.2100   64.0030 C   0  0  0  0  0  0  0  0  0  0  0  0
  131.0750  124.3720   64.0250 C   0  0  0  0  0  0  0  0  0  0  0  0
  131.8350  124.0180   62.9060 C   0  0  0  0  0  0  0  0  0  0  0  0
  133.2150  124.2040   62.9150 C   0  0  0  0  0  0  0  0  0  0  0  0
  133.8300  124.7560   64.0370 C   0  0  0  0  0  0  0  0  0  0  0  0
  133.0780  125.1270   65.1490 C   0  0  0  0  0  0  0  0  0  0  0  0
  131.6970  124.9400   65.1410 C   0  0  0  0  0  0  0  0  0  0  0  0
  128.5710  122.1850   59.8380 S   0  0  0  0  0  0  0  0  0  0  0  0
  127.5340  122.6290   58.5040 C   0  0  0  0  0  0  0  0  0  0  0  0
  127.7750  122.2010   57.2650 N   0  0  0  0  0  0  0  0  0  0  0  0
  1  2  1  0
  2  3  2  0
  3  4  1  0
  4  5  1  0
  5  6  1  0
  5  7  1  0
  5  8  1  0
  4  9  2  0
  9 10  1  0
 10 11  1  0
 10 12  2  0
 12 13  1  0
 13 14  2  0
 13 15  1  0
 15 16  1  0
 16 17  1  0
 17 18  2  0
 18 19  1  0
 19 20  2  0
 20 21  1  0
 21 22  2  0
 12 23  1  0
 23 24  1  0
 24 25  2  0
 25  2  1  0
 24  9  1  0
 22 17  1  0
M  END
>  <Binding energies>  (29) 
[-7.07]

>  <Ligand effiencies>  (29) 
[-0.2525]

>  <Interactions>  (29) 
["V-B:TYR:539:CE2:9848, V-B:LEU:363:CA:8156, V-B:LEU:363:CD1:8160, V-B:ASN:362:C:8143, V-B:MET:535:CE:9807, V-B:ASP:366:CB:8183, V-B:PRO:540:CB:9857, V-B:LEU:363:CB:8158, H-B:ALA:541:N:9863, V-B:ASP:366:CG:8184, V-B:TYR:539:CD2:9846, V-B:TYR:539:CG:9844, V-B:TYR:539:CE1:9847, H-B:TYR:539:N:9842, V-B:TYR:531:CE2:9765, V-B:PRO:540:CA:9855, V-B:GLU:543:CG:9879, V-B:GLU:543:CD:9880, V-B:ALA:541:CB:9864, H-B:GLU:543:OE1:9881, V-B:PRO:540:N:9856, V-B:TYR:539:CD1:9845, V-B:TYR:539:C:9839, V-A:ARG:545:CZ:4926, V-B:TYR:531:CZ:9766, H-B:ASP:366:OD1:8185, V-A:GLY:453:C:4042, V-A:GLY:454:CA:4049, V-B:ILE:538:CA:9832, V-A:GLY:453:CA:4044, V-B:ILE:538:C:9830, V-B:ILE:538:CG2:9835, V-A:ARG:545:CD:4923, V-B:ILE:538:CB:9834, V-B:LEU:363:CG:8159, V-B:TYR:531:CD2:9763"]

$$$$
4ca_Grossjean_2025
     RDKit          3D

 34 37  0  0  0  0  0  0  0  0999 V2000
  131.2680  131.8740   55.4330 C   0  0  0  0  0  0  0  0  0  0  0  0
  131.8550  132.4960   56.7040 C   0  0  0  0  0  0  0  0  0  0  0  0
  130.9270  133.4270   57.2470 O   0  0  0  0  0  0  0  0  0  0  0  0
  129.6280  133.0850   57.4490 C   0  0  0  0  0  0  0  0  0  0  0  0
  128.7160  133.3910   56.6740 O   0  0  0  0  0  0  0  0  0  0  0  0
  129.4120  132.2960   58.7070 C   0  0  0  0  0  0  0  0  0  0  0  0
  130.4900  132.0870   59.5780 C   0  0  0  0  0  0  0  0  0  0  0  0
  130.3200  131.3620   60.7540 C   0  0  0  0  0  0  0  0  0  0  0  0
  129.0750  130.8270   61.0820 C   0  0  0  0  0  0  0  0  0  0  0  0
  129.0140  130.1210   62.2990 N   0  0  0  0  0  0  0  0  0  0  0  0
  127.9480  129.5880   62.9460 C   0  0  0  0  0  0  0  0  0  0  0  0
  126.7960  129.6030   62.5110 O   0  0  0  0  0  0  0  0  0  0  0  0
  128.2510  128.9520   64.2300 C   0  0  0  0  0  0  0  0  0  0  0  0
  127.7910  129.7380   65.7390 S   0  0  0  0  0  0  0  0  0  0  0  0
  128.4210  128.4060   66.6780 C   0  0  0  0  0  0  0  0  0  0  0  0
  128.3600  128.4040   68.0070 N   0  0  0  0  0  0  0  0  0  0  0  0
  128.8620  127.3190   68.6510 C   0  0  0  0  0  0  0  0  0  0  0  0
  128.7700  127.3420   70.1490 C   0  0  0  0  0  0  0  0  0  0  0  0
  129.8700  127.7310   70.9310 C   0  0  0  0  0  0  0  0  0  0  0  0
  129.7930  127.7500   72.3210 C   0  0  0  0  0  0  0  0  0  0  0  0
  128.6100  127.3770   72.9520 C   0  0  0  0  0  0  0  0  0  0  0  0
  127.5070  126.9850   72.2020 C   0  0  0  0  0  0  0  0  0  0  0  0
  127.5880  126.9680   70.8120 C   0  0  0  0  0  0  0  0  0  0  0  0
  129.4430  126.2510   67.9570 C   0  0  0  0  0  0  0  0  0  0  0  0
  129.5160  126.2450   66.5560 C   0  0  0  0  0  0  0  0  0  0  0  0
  130.1620  125.0420   65.8600 C   0  0  0  0  0  0  0  0  0  0  0  0
  131.3910  125.2960   65.4080 F   0  0  0  0  0  0  0  0  0  0  0  0
  130.2540  124.0220   66.7130 F   0  0  0  0  0  0  0  0  0  0  0  0
  129.4220  124.6750   64.8140 F   0  0  0  0  0  0  0  0  0  0  0  0
  128.9760  127.3710   65.8700 C   0  0  0  0  0  0  0  0  0  0  0  0
  128.8630  127.7100   64.4720 C   0  0  0  0  0  0  0  0  0  0  0  0
  129.3160  126.8890   63.4720 N   0  0  0  0  0  0  0  0  0  0  0  0
  127.9880  131.0350   60.2200 C   0  0  0  0  0  0  0  0  0  0  0  0
  128.1590  131.7620   59.0450 C   0  0  0  0  0  0  0  0  0  0  0  0
  1  2  1  0
  2  3  1  0
  3  4  1  0
  4  5  2  0
  4  6  1  0
  6  7  2  0
  7  8  1  0
  8  9  2  0
  9 10  1  0
 10 11  1  0
 11 12  2  0
 11 13  1  0
 13 14  1  0
 14 15  1  0
 15 16  2  0
 16 17  1  0
 17 18  1  0
 18 19  2  0
 19 20  1  0
 20 21  2  0
 21 22  1  0
 22 23  2  0
 17 24  2  0
 24 25  1  0
 25 26  1  0
 26 27  1  0
 26 28  1  0
 26 29  1  0
 25 30  2  0
 30 31  1  0
 31 32  1  0
  9 33  1  0
 33 34  2  0
 34  6  1  0
 31 13  2  0
 30 15  1  0
 23 18  1  0
M  END
>  <Binding energies>  (30) 
[-8.51]

>  <Ligand effiencies>  (30) 
[-0.22999999999999998]

>  <Interactions>  (30) 
["V-B:GLU:543:C:9874, V-A:GLU:543:CD:4908, V-B:LYS:547:CE:9922, V-A:HIS:456:CE1:4070, V-B:GLY:544:C:9884, V-A:GLU:543:CB:4906, V-B:HIS:456:CE1:9041, V-B:HIS:456:CD2:9039, V-B:GLU:543:CB:9878, V-B:GLU:543:CA:9876, V-B:GLY:544:CA:9886, V-B:TYR:484:CZ:9318, V-B:GLU:543:CG:9879, V-B:GLU:543:CD:9880, V-A:GLU:543:CG:4907, V-A:TYR:484:CE2:4346, H-B:GLU:543:OE1:9881, V-A:TYR:484:CZ:4347, H-A:GLU:543:OE2:4910, V-A:LEU:363:CD1:3189, V-A:ILE:538:CG2:4863, V-A:ILE:538:CB:4862, H-A:GLU:543:OE1:4909, V-A:PRO:540:CA:4883, V-A:PRO:540:CB:4885, H-B:GLU:543:OE2:9882, V-A:TYR:539:C:4867, H-A:TYR:539:N:4870, V-A:PRO:540:N:4884, V-A:MET:535:CE:4835, V-A:TYR:539:CA:4869, V-A:MET:535:CG:4833"]

$$$$
4cb_Grossjean_2025
     RDKit          3D

 33 36  0  0  0  0  0  0  0  0999 V2000
  131.6620  132.5490   56.3420 C   0  0  0  0  0  0  0  0  0  0  0  0
  130.8980  133.3760   57.2080 O   0  0  0  0  0  0  0  0  0  0  0  0
  129.5960  133.0960   57.4740 C   0  0  0  0  0  0  0  0  0  0  0  0
  128.6670  133.3890   56.7160 O   0  0  0  0  0  0  0  0  0  0  0  0
  129.3970  132.3900   58.7860 C   0  0  0  0  0  0  0  0  0  0  0  0
  130.1870  131.2720   59.0880 C   0  0  0  0  0  0  0  0  0  0  0  0
  130.0320  130.6020   60.2980 C   0  0  0  0  0  0  0  0  0  0  0  0
  129.0830  131.0290   61.2270 C   0  0  0  0  0  0  0  0  0  0  0  0
  129.0210  130.2880   62.4220 N   0  0  0  0  0  0  0  0  0  0  0  0
  127.9640  129.6910   63.0260 C   0  0  0  0  0  0  0  0  0  0  0  0
  126.8240  129.6680   62.5610 O   0  0  0  0  0  0  0  0  0  0  0  0
  128.2620  129.0320   64.3010 C   0  0  0  0  0  0  0  0  0  0  0  0
  127.8340  129.8110   65.8220 S   0  0  0  0  0  0  0  0  0  0  0  0
  128.4400  128.4530   66.7410 C   0  0  0  0  0  0  0  0  0  0  0  0
  128.3920  128.4360   68.0700 N   0  0  0  0  0  0  0  0  0  0  0  0
  128.8780  127.3320   68.6960 C   0  0  0  0  0  0  0  0  0  0  0  0
  128.8060  127.3400   70.1960 C   0  0  0  0  0  0  0  0  0  0  0  0
  127.6200  126.9870   70.8590 C   0  0  0  0  0  0  0  0  0  0  0  0
  127.5440  126.9950   72.2490 C   0  0  0  0  0  0  0  0  0  0  0  0
  128.6580  127.3600   72.9990 C   0  0  0  0  0  0  0  0  0  0  0  0
  129.8450  127.7170   72.3670 C   0  0  0  0  0  0  0  0  0  0  0  0
  129.9150  127.7090   70.9770 C   0  0  0  0  0  0  0  0  0  0  0  0
  129.4290  126.2610   67.9840 C   0  0  0  0  0  0  0  0  0  0  0  0
  129.4870  126.2710   66.5820 C   0  0  0  0  0  0  0  0  0  0  0  0
  130.1010  125.0620   65.8640 C   0  0  0  0  0  0  0  0  0  0  0  0
  129.4200  124.6990   64.7750 F   0  0  0  0  0  0  0  0  0  0  0  0
  131.3440  125.3520   65.4780 F   0  0  0  0  0  0  0  0  0  0  0  0
  130.1280  124.0140   66.6860 F   0  0  0  0  0  0  0  0  0  0  0  0
  128.9650  127.4160   65.9150 C   0  0  0  0  0  0  0  0  0  0  0  0
  128.8450  127.7730   64.5220 C   0  0  0  0  0  0  0  0  0  0  0  0
  129.2670  126.9520   63.5080 N   0  0  0  0  0  0  0  0  0  0  0  0
  128.2900  132.1490   60.9340 C   0  0  0  0  0  0  0  0  0  0  0  0
  128.4470  132.8190   59.7240 C   0  0  0  0  0  0  0  0  0  0  0  0
  1  2  1  0
  2  3  1  0
  3  4  2  0
  3  5  1  0
  5  6  2  0
  6  7  1  0
  7  8  2  0
  8  9  1  0
  9 10  1  0
 10 11  2  0
 10 12  1  0
 12 13  1  0
 13 14  1  0
 14 15  2  0
 15 16  1  0
 16 17  1  0
 17 18  2  0
 18 19  1  0
 19 20  2  0
 20 21  1  0
 21 22  2  0
 16 23  2  0
 23 24  1  0
 24 25  1  0
 25 26  1  0
 25 27  1  0
 25 28  1  0
 24 29  2  0
 29 30  1  0
 30 31  1  0
  8 32  1  0
 32 33  2  0
 33  5  1  0
 30 12  2  0
 29 14  1  0
 22 17  1  0
M  END
>  <Binding energies>  (31) 
[-8.33]

>  <Ligand effiencies>  (31) 
[-0.2313888888888889]

>  <Interactions>  (31) 
["V-B:GLU:543:C:9874, V-A:GLU:543:CD:4908, V-B:LYS:547:CE:9922, V-A:HIS:456:CE1:4070, V-B:GLY:544:C:9884, V-A:GLU:543:CB:4906, V-B:HIS:456:CE1:9041, V-B:HIS:456:CD2:9039, V-B:GLU:543:CB:9878, V-B:GLU:543:CA:9876, V-B:TYR:484:CZ:9318, V-B:GLU:543:CG:9879, V-B:GLU:543:CD:9880, V-A:GLU:543:CG:4907, V-A:TYR:484:CE2:4346, H-B:GLU:543:OE1:9881, V-A:TYR:484:CZ:4347, V-A:TYR:539:CD1:4873, H-A:GLU:543:OE2:4910, V-A:LEU:363:CD1:3189, V-A:ILE:538:CG2:4863, V-A:ILE:538:CB:4862, H-A:GLU:543:OE1:4909, V-A:PRO:540:CA:4883, H-B:GLU:543:OE2:9882, V-A:TYR:539:C:4867, H-A:TYR:539:N:4870, V-A:PRO:540:N:4884, V-A:TYR:539:CA:4869"]

$$$$
4cc_Grossjean_2025
     RDKit          3D

 31 34  0  0  0  0  0  0  0  0999 V2000
  129.9800  132.6800   56.4100 C   0  0  0  0  0  0  0  0  0  0  0  0
  129.7640  133.3970   57.6210 O   0  0  0  0  0  0  0  0  0  0  0  0
  129.5130  132.6960   58.7840 C   0  0  0  0  0  0  0  0  0  0  0  0
  130.5190  131.8360   59.2220 C   0  0  0  0  0  0  0  0  0  0  0  0
  130.3580  131.0900   60.3860 C   0  0  0  0  0  0  0  0  0  0  0  0
  129.1770  131.1860   61.1250 C   0  0  0  0  0  0  0  0  0  0  0  0
  129.1100  130.4060   62.2950 N   0  0  0  0  0  0  0  0  0  0  0  0
  128.0730  129.6880   62.7880 C   0  0  0  0  0  0  0  0  0  0  0  0
  126.9820  129.5800   62.2260 O   0  0  0  0  0  0  0  0  0  0  0  0
  128.3220  129.0210   64.0700 C   0  0  0  0  0  0  0  0  0  0  0  0
  127.8810  129.8120   65.5820 S   0  0  0  0  0  0  0  0  0  0  0  0
  128.4600  128.4500   66.5130 C   0  0  0  0  0  0  0  0  0  0  0  0
  128.3960  128.4410   67.8430 N   0  0  0  0  0  0  0  0  0  0  0  0
  128.8610  127.3350   68.4790 C   0  0  0  0  0  0  0  0  0  0  0  0
  128.7780  127.3530   69.9780 C   0  0  0  0  0  0  0  0  0  0  0  0
  127.5960  126.9770   70.6370 C   0  0  0  0  0  0  0  0  0  0  0  0
  127.5110  126.9940   72.0260 C   0  0  0  0  0  0  0  0  0  0  0  0
  128.6110  127.3890   72.7800 C   0  0  0  0  0  0  0  0  0  0  0  0
  129.7930  127.7700   72.1530 C   0  0  0  0  0  0  0  0  0  0  0  0
  129.8730  127.7530   70.7630 C   0  0  0  0  0  0  0  0  0  0  0  0
  129.4040  126.2530   67.7790 C   0  0  0  0  0  0  0  0  0  0  0  0
  129.4780  126.2530   66.3770 C   0  0  0  0  0  0  0  0  0  0  0  0
  130.0800  125.0310   65.6740 C   0  0  0  0  0  0  0  0  0  0  0  0
  129.3830  124.6470   64.6020 F   0  0  0  0  0  0  0  0  0  0  0  0
  131.3180  125.3090   65.2660 F   0  0  0  0  0  0  0  0  0  0  0  0
  130.1170  123.9990   66.5170 F   0  0  0  0  0  0  0  0  0  0  0  0
  128.9850  127.4040   65.6990 C   0  0  0  0  0  0  0  0  0  0  0  0
  128.8960  127.7620   64.3040 C   0  0  0  0  0  0  0  0  0  0  0  0
  129.3340  126.9370   63.2990 N   0  0  0  0  0  0  0  0  0  0  0  0
  128.1640  132.0590   60.6980 C   0  0  0  0  0  0  0  0  0  0  0  0
  128.3310  132.8040   59.5340 C   0  0  0  0  0  0  0  0  0  0  0  0
  1  2  1  0
  2  3  1  0
  3  4  2  0
  4  5  1  0
  5  6  2  0
  6  7  1  0
  7  8  1  0
  8  9  2  0
  8 10  1  0
 10 11  1  0
 11 12  1  0
 12 13  2  0
 13 14  1  0
 14 15  1  0
 15 16  2  0
 16 17  1  0
 17 18  2  0
 18 19  1  0
 19 20  2  0
 14 21  2  0
 21 22  1  0
 22 23  1  0
 23 24  1  0
 23 25  1  0
 23 26  1  0
 22 27  2  0
 27 28  1  0
 28 29  1  0
  6 30  1  0
 30 31  2  0
 31  3  1  0
 28 10  2  0
 27 12  1  0
 20 15  1  0
M  END
>  <Binding energies>  (32) 
[-7.52]

>  <Ligand effiencies>  (32) 
[-0.22117647058823528]

>  <Interactions>  (32) 
["V-B:GLU:543:C:9874, V-A:GLU:543:CD:4908, V-A:HIS:456:CE1:4070, V-B:GLY:544:C:9884, V-A:GLU:543:CB:4906, V-B:HIS:456:CE1:9041, V-B:HIS:456:CD2:9039, V-B:GLU:543:CB:9878, V-B:GLU:543:CA:9876, V-B:GLY:544:CA:9886, V-B:TYR:484:CZ:9318, V-B:GLU:543:CG:9879, V-B:GLU:543:CD:9880, V-A:GLU:543:CG:4907, V-A:TYR:484:CE2:4346, H-B:GLU:543:OE1:9881, V-A:TYR:484:CZ:4347, V-A:TYR:539:CD1:4873, H-A:GLU:543:OE2:4910, V-A:ILE:538:CB:4862, H-A:GLU:543:OE1:4909, V-A:PRO:540:CA:4883, V-A:PRO:540:CB:4885, V-A:TYR:539:CE1:4875, V-A:TYR:539:C:4867, H-A:TYR:539:N:4870, V-A:PRO:540:N:4884, V-A:MET:535:CE:4835, V-A:ILE:538:CA:4860"]

$$$$
4ce_Grossjean_2025
     RDKit          3D

 30 33  0  0  0  0  0  0  0  0999 V2000
  123.0680  130.7060   76.7510 C   0  0  0  0  0  0  0  0  0  0  0  0
  124.3250  130.1780   76.0850 C   0  0  0  0  0  0  0  0  0  0  0  0
  124.4260  128.8490   75.6660 C   0  0  0  0  0  0  0  0  0  0  0  0
  125.6090  128.4350   75.0530 C   0  0  0  0  0  0  0  0  0  0  0  0
  126.6500  129.3480   74.8740 C   0  0  0  0  0  0  0  0  0  0  0  0
  126.4840  130.6640   75.3220 C   0  0  0  0  0  0  0  0  0  0  0  0
  127.5570  131.5430   75.0910 N   0  0  0  0  0  0  0  0  0  0  0  0
  127.6100  132.6220   74.2700 C   0  0  0  0  0  0  0  0  0  0  0  0
  126.6600  133.0090   73.5880 O   0  0  0  0  0  0  0  0  0  0  0  0
  128.8940  133.3260   74.2380 C   0  0  0  0  0  0  0  0  0  0  0  0
  130.3110  132.5540   73.5310 S   0  0  0  0  0  0  0  0  0  0  0  0
  131.2900  133.9680   73.8370 C   0  0  0  0  0  0  0  0  0  0  0  0
  132.5740  134.0100   73.4920 N   0  0  0  0  0  0  0  0  0  0  0  0
  133.2510  135.1590   73.7570 C   0  0  0  0  0  0  0  0  0  0  0  0
  134.6950  135.1770   73.3520 C   0  0  0  0  0  0  0  0  0  0  0  0
  135.5430  134.1050   73.6750 C   0  0  0  0  0  0  0  0  0  0  0  0
  136.8860  134.1170   73.3090 C   0  0  0  0  0  0  0  0  0  0  0  0
  137.4010  135.2040   72.6100 C   0  0  0  0  0  0  0  0  0  0  0  0
  136.5830  136.2780   72.2780 C   0  0  0  0  0  0  0  0  0  0  0  0
  135.2410  136.2640   72.6490 C   0  0  0  0  0  0  0  0  0  0  0  0
  132.6390  136.2500   74.3840 C   0  0  0  0  0  0  0  0  0  0  0  0
  131.2860  136.2140   74.7560 C   0  0  0  0  0  0  0  0  0  0  0  0
  130.6790  137.4440   75.4380 C   0  0  0  0  0  0  0  0  0  0  0  0
  131.5940  138.2340   76.0040 F   0  0  0  0  0  0  0  0  0  0  0  0
  130.0210  138.1780   74.5400 F   0  0  0  0  0  0  0  0  0  0  0  0
  129.8360  137.0600   76.3950 F   0  0  0  0  0  0  0  0  0  0  0  0
  130.5630  135.0200   74.4690 C   0  0  0  0  0  0  0  0  0  0  0  0
  129.1940  134.6230   74.6880 C   0  0  0  0  0  0  0  0  0  0  0  0
  128.2700  135.4430   75.2830 N   0  0  0  0  0  0  0  0  0  0  0  0
  125.3280  131.0780   75.9190 N   0  0  0  0  0  0  0  0  0  0  0  0
  1  2  1  0
  2  3  2  0
  3  4  1  0
  4  5  2  0
  5  6  1  0
  6  7  1  0
  7  8  1  0
  8  9  2  0
  8 10  1  0
 10 11  1  0
 11 12  1  0
 12 13  2  0
 13 14  1  0
 14 15  1  0
 15 16  2  0
 16 17  1  0
 17 18  2  0
 18 19  1  0
 19 20  2  0
 14 21  2  0
 21 22  1  0
 22 23  1  0
 23 24  1  0
 23 25  1  0
 23 26  1  0
 22 27  2  0
 27 28  1  0
 28 29  1  0
  6 30  2  0
 30  2  1  0
 28 10  2  0
 27 12  1  0
 20 15  1  0
M  END
>  <Binding energies>  (33) 
[-7.64]

>  <Ligand effiencies>  (33) 
[-0.2315151515151515]

>  <Interactions>  (33) 
["V-B:HIS:456:CG:9037, V-B:VAL:458:CG2:9058, V-A:GLU:543:C:4902, V-B:HIS:456:CB:9036, V-B:LYS:547:CE:9922, V-B:HIS:456:CD2:9039, V-B:LYS:471:CD:9190, V-A:GLY:544:CA:4914, V-B:ASP:473:CG:9211, V-B:HIS:456:C:9032, V-B:HIS:456:CA:9034, V-A:LYS:547:CE:4950, V-A:VAL:542:CG1:4899, V-B:TYR:484:CB:9312, H-B:LYS:471:NZ:9192, V-A:GLU:357:CB:3134, V-A:ILE:546:C:4934, V-B:TYR:484:C:9308, V-B:VAL:457:C:9044, V-B:LYS:471:CG:9189, V-B:VAL:457:CA:9046, V-B:LYS:471:CB:9188, V-B:ASP:485:CA:9324, V-B:ASP:485:CB:9326, V-B:LYS:471:C:9184, V-A:ARG:356:CB:3117, H-B:ASP:473:OD2:9213, V-A:GLU:357:CA:3132, H-B:TYR:484:O:9309"]

$$$$
4cf_Grossjean_2025
     RDKit          3D

 29 32  0  0  0  0  0  0  0  0999 V2000
  126.0160  127.6080   61.3330 N   0  0  0  0  0  0  0  0  0  0  0  0
  126.1020  128.6830   60.4870 C   0  0  0  0  0  0  0  0  0  0  0  0
  126.4370  128.5680   59.1280 C   0  0  0  0  0  0  0  0  0  0  0  0
  126.7820  127.3620   58.3700 C   0  0  0  0  0  0  0  0  0  0  0  0
  127.7550  127.3540   57.6140 O   0  0  0  0  0  0  0  0  0  0  0  0
  125.9750  126.2940   58.5790 N   0  0  0  0  0  0  0  0  0  0  0  0
  125.9990  125.0200   57.9810 C   0  0  0  0  0  0  0  0  0  0  0  0
  124.8810  124.3420   57.4580 C   0  0  0  0  0  0  0  0  0  0  0  0
  125.0430  123.0700   56.9040 C   0  0  0  0  0  0  0  0  0  0  0  0
  126.3180  122.5040   56.8880 C   0  0  0  0  0  0  0  0  0  0  0  0
  127.4100  123.1330   57.3920 N   0  0  0  0  0  0  0  0  0  0  0  0
  127.2370  124.3690   57.9290 C   0  0  0  0  0  0  0  0  0  0  0  0
  126.4490  130.1450   58.3400 S   0  0  0  0  0  0  0  0  0  0  0  0
  126.0150  130.9440   59.8330 C   0  0  0  0  0  0  0  0  0  0  0  0
  125.8650  132.2660   59.8960 N   0  0  0  0  0  0  0  0  0  0  0  0
  125.5430  132.7970   61.1040 C   0  0  0  0  0  0  0  0  0  0  0  0
  125.3880  134.2890   61.1460 C   0  0  0  0  0  0  0  0  0  0  0  0
  126.5010  135.1210   61.3410 C   0  0  0  0  0  0  0  0  0  0  0  0
  126.3670  136.5060   61.3800 C   0  0  0  0  0  0  0  0  0  0  0  0
  125.1100  137.0810   61.2220 C   0  0  0  0  0  0  0  0  0  0  0  0
  123.9890  136.2810   61.0240 C   0  0  0  0  0  0  0  0  0  0  0  0
  124.1290  134.8960   60.9860 C   0  0  0  0  0  0  0  0  0  0  0  0
  125.3490  131.9980   62.2350 C   0  0  0  0  0  0  0  0  0  0  0  0
  125.5000  130.6040   62.1780 C   0  0  0  0  0  0  0  0  0  0  0  0
  125.2780  129.7890   63.4580 C   0  0  0  0  0  0  0  0  0  0  0  0
  126.1390  128.7770   63.5910 F   0  0  0  0  0  0  0  0  0  0  0  0
  125.4200  130.5760   64.5240 F   0  0  0  0  0  0  0  0  0  0  0  0
  124.0510  129.2690   63.4550 F   0  0  0  0  0  0  0  0  0  0  0  0
  125.8560  130.0370   60.9210 C   0  0  0  0  0  0  0  0  0  0  0  0
  1  2  1  0
  2  3  2  0
  3  4  1  0
  4  5  2  0
  4  6  1  0
  6  7  1  0
  7  8  2  0
  8  9  1  0
  9 10  2  0
 10 11  1  0
 11 12  2  0
  3 13  1  0
 13 14  1  0
 14 15  2  0
 15 16  1  0
 16 17  1  0
 17 18  2  0
 18 19  1  0
 19 20  2  0
 20 21  1  0
 21 22  2  0
 16 23  2  0
 23 24  1  0
 24 25  1  0
 25 26  1  0
 25 27  1  0
 25 28  1  0
 24 29  2  0
 29  2  1  0
 12  7  1  0
 29 14  1  0
 22 17  1  0
M  END
>  <Binding energies>  (34) 
[-7.17]

>  <Ligand effiencies>  (34) 
[-0.2240625]

>  <Interactions>  (34) 
["V-B:LEU:363:CD1:8160, V-B:MET:535:CE:9807, V-B:ASP:366:CB:8183, V-B:PRO:540:CB:9857, V-B:ASP:366:CG:8184, V-B:TYR:531:CE2:9765, V-B:PRO:540:CA:9855, V-B:TYR:484:CZ:9318, V-B:GLU:543:CD:9880, H-B:GLU:543:OE1:9881, V-A:TYR:539:CD1:4873, V-B:LEU:475:CD2:9230, V-B:ILE:369:CG2:8208, H-B:GLU:543:OE2:9882, V-B:PRO:540:N:9856, V-A:TYR:539:CE1:4875, V-B:TYR:539:C:9839, V-B:PRO:540:CD:9859, H-B:TYR:531:OH:9767, H-B:ASP:366:OD1:8185, V-B:ARG:545:CZ:9898, V-B:SER:385:CA:8378, V-B:HIS:383:CD2:8363, V-B:SER:385:CB:8380, H-B:ASP:366:OD2:8186, V-B:LEU:373:CD1:8251"]

$$$$
4ci_Grossjean_2025
     RDKit          3D

 28 31  0  0  0  0  0  0  0  0999 V2000
  128.7110  127.3980   63.7100 N   0  0  0  0  0  0  0  0  0  0  0  0
  129.1000  126.6330   64.7780 C   0  0  0  0  0  0  0  0  0  0  0  0
  129.5980  125.3260   64.6490 C   0  0  0  0  0  0  0  0  0  0  0  0
  129.8100  124.5470   63.4260 C   0  0  0  0  0  0  0  0  0  0  0  0
  130.9510  124.3170   63.0170 O   0  0  0  0  0  0  0  0  0  0  0  0
  128.6840  124.1280   62.7970 N   0  0  0  0  0  0  0  0  0  0  0  0
  128.5940  123.3830   61.6280 C   0  0  0  0  0  0  0  0  0  0  0  0
  128.2540  123.9370   60.3950 C   0  0  0  0  0  0  0  0  0  0  0  0
  128.2750  122.8840   59.5110 C   0  0  0  0  0  0  0  0  0  0  0  0
  128.6110  121.7530   60.1770 O   0  0  0  0  0  0  0  0  0  0  0  0
  128.8100  122.0820   61.5190 N   0  0  0  0  0  0  0  0  0  0  0  0
  130.0090  124.6420   66.2190 S   0  0  0  0  0  0  0  0  0  0  0  0
  129.5040  126.1020   67.0380 C   0  0  0  0  0  0  0  0  0  0  0  0
  129.5770  126.2180   68.3620 N   0  0  0  0  0  0  0  0  0  0  0  0
  129.1650  127.3920   68.9070 C   0  0  0  0  0  0  0  0  0  0  0  0
  129.2540  127.4900   70.4030 C   0  0  0  0  0  0  0  0  0  0  0  0
  130.3950  128.0270   71.0230 C   0  0  0  0  0  0  0  0  0  0  0  0
  130.4820  128.1220   72.4100 C   0  0  0  0  0  0  0  0  0  0  0  0
  129.4270  127.6780   73.2000 C   0  0  0  0  0  0  0  0  0  0  0  0
  128.2880  127.1390   72.6130 C   0  0  0  0  0  0  0  0  0  0  0  0
  128.2050  127.0450   71.2270 C   0  0  0  0  0  0  0  0  0  0  0  0
  128.6660  128.4360   68.1210 C   0  0  0  0  0  0  0  0  0  0  0  0
  128.5860  128.3250   66.7240 C   0  0  0  0  0  0  0  0  0  0  0  0
  128.0290  129.5090   65.9240 C   0  0  0  0  0  0  0  0  0  0  0  0
  128.5840  129.6330   64.7170 F   0  0  0  0  0  0  0  0  0  0  0  0
  126.7180  129.3540   65.7470 F   0  0  0  0  0  0  0  0  0  0  0  0
  128.2530  130.6450   66.5860 F   0  0  0  0  0  0  0  0  0  0  0  0
  129.0270  127.1030   66.1410 C   0  0  0  0  0  0  0  0  0  0  0  0
  1  2  1  0
  2  3  2  0
  3  4  1  0
  4  5  2  0
  4  6  1  0
  6  7  1  0
  7  8  1  0
  8  9  2  0
  9 10  1  0
 10 11  1  0
  3 12  1  0
 12 13  1  0
 13 14  2  0
 14 15  1  0
 15 16  1  0
 16 17  2  0
 17 18  1  0
 18 19  2  0
 19 20  1  0
 20 21  2  0
 15 22  2  0
 22 23  1  0
 23 24  1  0
 24 25  1  0
 24 26  1  0
 24 27  1  0
 23 28  2  0
 28  2  1  0
 11  7  2  0
 28 13  1  0
 21 16  1  0
M  END
>  <Binding energies>  (35) 
[-6.73]

>  <Ligand effiencies>  (35) 
[-0.2170967741935484]

>  <Interactions>  (35) 
["V-A:GLU:543:CD:4908, V-A:GLU:543:C:4902, V-A:HIS:456:CE1:4070, V-A:GLU:543:CB:4906, V-B:HIS:456:CE1:9041, V-A:GLY:544:C:4912, V-B:GLU:543:CB:9878, V-B:TYR:539:CE2:9848, H-B:ALA:541:N:9863, V-B:TYR:539:CD2:9846, V-B:PRO:540:CA:9855, V-B:TYR:484:CE2:9317, V-B:TYR:484:CZ:9318, V-B:GLU:543:CG:9879, V-B:GLU:543:CD:9880, V-A:GLU:543:CG:4907, V-A:TYR:484:CE2:4346, V-A:GLU:543:CA:4904, H-B:GLU:543:OE1:9881, V-A:TYR:484:CZ:4347, H-A:GLU:543:OE2:4910, H-A:GLU:543:OE1:4909, H-B:GLU:543:OE2:9882, V-B:PRO:540:N:9856, V-B:TYR:539:C:9839"]

$$$$
8a_Ghoteimi_2023
     RDKit          3D

 40 44  0  0  0  0  0  0  0  0999 V2000
  131.2060  131.8580   55.3650 C   0  0  0  0  0  0  0  0  0  0  0  0
  131.8030  132.6280   56.5460 C   0  0  0  0  0  0  0  0  0  0  0  0
  130.8230  133.5100   57.0790 O   0  0  0  0  0  0  0  0  0  0  0  0
  129.5340  133.1120   57.2400 C   0  0  0  0  0  0  0  0  0  0  0  0
  128.6420  133.3480   56.4190 O   0  0  0  0  0  0  0  0  0  0  0  0
  129.3010  132.3600   58.5190 C   0  0  0  0  0  0  0  0  0  0  0  0
  130.4020  131.9550   59.2840 C   0  0  0  0  0  0  0  0  0  0  0  0
  130.2190  131.2560   60.4730 C   0  0  0  0  0  0  0  0  0  0  0  0
  128.9340  130.9460   60.9230 C   0  0  0  0  0  0  0  0  0  0  0  0
  128.8710  130.2310   62.1360 N   0  0  0  0  0  0  0  0  0  0  0  0
  127.8240  129.6150   62.7370 C   0  0  0  0  0  0  0  0  0  0  0  0
  126.6810  129.5860   62.2810 O   0  0  0  0  0  0  0  0  0  0  0  0
  128.1340  128.9520   64.0070 C   0  0  0  0  0  0  0  0  0  0  0  0
  127.5140  129.5990   65.5260 S   0  0  0  0  0  0  0  0  0  0  0  0
  128.2990  128.3330   66.4410 C   0  0  0  0  0  0  0  0  0  0  0  0
  128.2210  128.2780   67.7700 N   0  0  0  0  0  0  0  0  0  0  0  0
  128.8730  127.2560   68.3840 C   0  0  0  0  0  0  0  0  0  0  0  0
  128.7890  127.2250   69.8770 C   0  0  0  0  0  0  0  0  0  0  0  0
  129.9280  127.4190   70.6700 C   0  0  0  0  0  0  0  0  0  0  0  0
  129.8450  127.3770   72.0590 C   0  0  0  0  0  0  0  0  0  0  0  0
  128.6240  127.1460   72.6890 C   0  0  0  0  0  0  0  0  0  0  0  0
  128.6370  127.1200   74.0710 O   0  0  0  0  0  0  0  0  0  0  0  0
  128.5800  128.3480   74.7880 C   0  0  0  0  0  0  0  0  0  0  0  0
  127.4770  126.9570   71.9050 C   0  0  0  0  0  0  0  0  0  0  0  0
  127.5640  126.9960   70.5160 C   0  0  0  0  0  0  0  0  0  0  0  0
  129.5910  126.2940   67.6710 C   0  0  0  0  0  0  0  0  0  0  0  0
  129.6630  126.3380   66.2750 C   0  0  0  0  0  0  0  0  0  0  0  0
  130.4130  125.2710   65.5640 C   0  0  0  0  0  0  0  0  0  0  0  0
  129.8060  124.0420   65.2990 C   0  0  0  0  0  0  0  0  0  0  0  0
  130.4980  123.0470   64.6150 C   0  0  0  0  0  0  0  0  0  0  0  0
  131.8060  123.2640   64.1800 C   0  0  0  0  0  0  0  0  0  0  0  0
  132.4150  122.2200   63.5100 O   0  0  0  0  0  0  0  0  0  0  0  0
  133.4460  122.5050   62.5720 C   0  0  0  0  0  0  0  0  0  0  0  0
  132.4160  124.5020   64.4390 C   0  0  0  0  0  0  0  0  0  0  0  0
  131.7200  125.4960   65.1220 C   0  0  0  0  0  0  0  0  0  0  0  0
  129.0060  127.4130   65.6120 C   0  0  0  0  0  0  0  0  0  0  0  0
  128.9090  127.8020   64.2260 C   0  0  0  0  0  0  0  0  0  0  0  0
  129.5390  127.1110   63.2210 N   0  0  0  0  0  0  0  0  0  0  0  0
  127.8250  131.3520   60.1660 C   0  0  0  0  0  0  0  0  0  0  0  0
  128.0100  132.0520   58.9760 C   0  0  0  0  0  0  0  0  0  0  0  0
  1  2  1  0
  2  3  1  0
  3  4  1  0
  4  5  2  0
  4  6  1  0
  6  7  2  0
  7  8  1  0
  8  9  2  0
  9 10  1  0
 10 11  1  0
 11 12  2  0
 11 13  1  0
 13 14  1  0
 14 15  1  0
 15 16  2  0
 16 17  1  0
 17 18  1  0
 18 19  2  0
 19 20  1  0
 20 21  2  0
 21 22  1  0
 22 23  1  0
 21 24  1  0
 24 25  2  0
 17 26  2  0
 26 27  1  0
 27 28  1  0
 28 29  2  0
 29 30  1  0
 30 31  2  0
 31 32  1  0
 32 33  1  0
 31 34  1  0
 34 35  2  0
 27 36  2  0
 36 37  1  0
 37 38  1  0
  9 39  1  0
 39 40  2  0
 40  6  1  0
 37 13  2  0
 36 15  1  0
 25 18  1  0
 35 28  1  0
M  END
>  <Binding energies>  (36) 
[-9.71]

>  <Ligand effiencies>  (36) 
[-0.2258139534883721]

>  <Interactions>  (36) 
["V-B:GLU:543:C:9874, V-A:GLU:543:CD:4908, V-A:HIS:456:CE1:4070, V-B:GLY:544:C:9884, V-A:GLU:543:CB:4906, V-B:HIS:456:CE1:9041, V-B:HIS:456:CD2:9039, V-B:GLU:543:CB:9878, V-A:LEU:475:CD2:4259, H-B:LYS:547:NZ:9923, V-B:GLY:544:CA:9886, V-A:HIS:456:CD2:4068, V-B:TYR:484:CZ:9318, V-B:GLU:543:CG:9879, V-B:GLU:543:CD:9880, V-A:GLU:543:CG:4907, V-A:TYR:484:CE2:4346, H-B:GLU:543:OE1:9881, V-A:TYR:484:CZ:4347, V-A:TYR:539:CD1:4873, H-A:GLU:543:OE2:4910, V-A:LEU:363:CD1:3189, V-A:ILE:538:CG2:4863, V-A:ILE:538:CB:4862, H-A:GLU:543:OE1:4909, V-A:PRO:540:CA:4883, V-A:PRO:540:CB:4885, V-A:TYR:539:CE1:4875, V-A:TYR:539:C:4867, H-A:TYR:539:N:4870, V-A:PRO:540:N:4884, V-A:MET:535:CE:4835, V-A:ARG:545:CZ:4926, H-A:TYR:484:OH:4348, V-A:GLY:454:CA:4049, V-A:TYR:539:CA:4869, V-A:MET:535:CG:4833"]

$$$$
8c_Ghoteimi_2023
     RDKit          3D

 34 38  0  0  0  0  0  0  0  0999 V2000
  130.5490  126.5800   74.9500 C   0  0  0  0  0  0  0  0  0  0  0  0
  129.3790  127.0090   74.2630 O   0  0  0  0  0  0  0  0  0  0  0  0
  129.3910  127.0660   72.8820 C   0  0  0  0  0  0  0  0  0  0  0  0
  128.2290  126.6590   72.2310 C   0  0  0  0  0  0  0  0  0  0  0  0
  128.1520  126.6800   70.8420 C   0  0  0  0  0  0  0  0  0  0  0  0
  129.2380  127.1110   70.0660 C   0  0  0  0  0  0  0  0  0  0  0  0
  129.1620  127.1330   68.5720 C   0  0  0  0  0  0  0  0  0  0  0  0
  129.8510  126.2050   67.7860 C   0  0  0  0  0  0  0  0  0  0  0  0
  129.7610  126.2460   66.3900 C   0  0  0  0  0  0  0  0  0  0  0  0
  130.5100  125.2530   65.5860 C   0  0  0  0  0  0  0  0  0  0  0  0
  131.8330  125.5030   65.2140 C   0  0  0  0  0  0  0  0  0  0  0  0
  132.5380  124.5650   64.4660 C   0  0  0  0  0  0  0  0  0  0  0  0
  131.9350  123.3680   64.0770 C   0  0  0  0  0  0  0  0  0  0  0  0
  132.7110  122.4960   63.3390 O   0  0  0  0  0  0  0  0  0  0  0  0
  133.6930  123.0200   62.4530 C   0  0  0  0  0  0  0  0  0  0  0  0
  130.6040  123.1210   64.4490 C   0  0  0  0  0  0  0  0  0  0  0  0
  129.8990  124.0590   65.1980 C   0  0  0  0  0  0  0  0  0  0  0  0
  128.9490  127.2510   65.8020 C   0  0  0  0  0  0  0  0  0  0  0  0
  128.6350  127.5760   64.4360 C   0  0  0  0  0  0  0  0  0  0  0  0
  129.1420  126.8670   63.3760 N   0  0  0  0  0  0  0  0  0  0  0  0
  127.7700  128.6740   64.2970 C   0  0  0  0  0  0  0  0  0  0  0  0
  127.2440  129.2700   63.0670 C   0  0  0  0  0  0  0  0  0  0  0  0
  128.0050  129.6390   62.1700 O   0  0  0  0  0  0  0  0  0  0  0  0
  125.8940  129.3800   63.0050 N   0  0  0  0  0  0  0  0  0  0  0  0
  125.1460  129.9020   61.9600 C   0  0  0  0  0  0  0  0  0  0  0  0
  125.4030  129.8370   60.6710 N   0  0  0  0  0  0  0  0  0  0  0  0
  124.4730  130.4420   59.9600 C   0  0  0  0  0  0  0  0  0  0  0  0
  123.4290  131.0190   60.6750 C   0  0  0  0  0  0  0  0  0  0  0  0
  123.6900  130.7480   62.3730 S   0  0  0  0  0  0  0  0  0  0  0  0
  127.3190  129.3330   65.8700 S   0  0  0  0  0  0  0  0  0  0  0  0
  128.2900  128.1400   66.7010 C   0  0  0  0  0  0  0  0  0  0  0  0
  128.3760  128.1020   68.0300 N   0  0  0  0  0  0  0  0  0  0  0  0
  130.4030  127.5220   70.7280 C   0  0  0  0  0  0  0  0  0  0  0  0
  130.4830  127.5010   72.1180 C   0  0  0  0  0  0  0  0  0  0  0  0
  1  2  1  0
  2  3  1  0
  3  4  2  0
  4  5  1  0
  5  6  2  0
  6  7  1  0
  7  8  2  0
  8  9  1  0
  9 10  1  0
 10 11  2  0
 11 12  1  0
 12 13  2  0
 13 14  1  0
 14 15  1  0
 13 16  1  0
 16 17  2  0
  9 18  2  0
 18 19  1  0
 19 20  1  0
 19 21  2  0
 21 22  1  0
 22 23  2  0
 22 24  1  0
 24 25  1  0
 25 26  2  0
 26 27  1  0
 27 28  2  0
 28 29  1  0
 21 30  1  0
 30 31  1  0
 31 32  2  0
  6 33  1  0
 33 34  2  0
 34  3  1  0
 32  7  1  0
 17 10  1  0
 31 18  1  0
 29 25  1  0
M  END
>  <Binding energies>  (37) 
[-7.58]

>  <Ligand effiencies>  (37) 
[-0.20486486486486485]

>  <Interactions>  (37) 
["V-B:GLU:543:C:9874, V-A:GLU:543:CD:4908, V-A:HIS:456:CE1:4070, V-A:GLU:543:CB:4906, V-B:HIS:456:CE1:9041, V-A:GLY:544:C:4912, V-B:GLU:543:CB:9878, V-A:LEU:475:CD2:4259, V-B:ASP:366:CB:8183, V-B:ASP:366:CG:8184, H-B:LYS:547:NZ:9923, V-A:HIS:456:CD2:4068, V-B:TYR:484:CZ:9318, V-B:GLU:543:CG:9879, V-B:GLU:543:CD:9880, V-A:GLU:543:CG:4907, V-A:TYR:484:CE2:4346, H-B:GLU:543:OE1:9881, H-A:GLU:543:OE2:4910, H-A:GLU:543:OE1:4909, V-B:ILE:369:CG2:8208, H-B:GLU:543:OE2:9882, V-B:ILE:369:CG1:8209, V-B:ILE:369:CB:8207, V-A:ARG:545:CZ:4926, V-B:ASP:366:CA:8181, H-A:TYR:484:OH:4348, V-A:GLY:454:CA:4049"]

$$$$
8d_Ghoteimi_2023
     RDKit          3D

 30 33  0  0  0  0  0  0  0  0999 V2000
  129.1260  132.8340   55.8760 C   0  0  0  0  0  0  0  0  0  0  0  0
  130.4050  133.4110   56.0970 O   0  0  0  0  0  0  0  0  0  0  0  0
  131.1860  132.9990   57.1290 C   0  0  0  0  0  0  0  0  0  0  0  0
  132.3810  133.2800   57.2450 O   0  0  0  0  0  0  0  0  0  0  0  0
  130.4520  132.1720   58.1120 C   0  0  0  0  0  0  0  0  0  0  0  0
  129.1860  132.9000   59.1030 S   0  0  0  0  0  0  0  0  0  0  0  0
  128.8810  131.3740   59.9020 C   0  0  0  0  0  0  0  0  0  0  0  0
  127.9500  131.2490   60.8480 N   0  0  0  0  0  0  0  0  0  0  0  0
  127.7930  130.0170   61.4030 C   0  0  0  0  0  0  0  0  0  0  0  0
  126.7460  129.9060   62.4650 C   0  0  0  0  0  0  0  0  0  0  0  0
  125.4060  130.2220   62.1980 C   0  0  0  0  0  0  0  0  0  0  0  0
  124.4360  130.1170   63.1900 C   0  0  0  0  0  0  0  0  0  0  0  0
  124.7770  129.6940   64.4740 C   0  0  0  0  0  0  0  0  0  0  0  0
  123.7500  129.6190   65.3940 O   0  0  0  0  0  0  0  0  0  0  0  0
  124.0600  129.6270   66.7840 C   0  0  0  0  0  0  0  0  0  0  0  0
  126.1140  129.3730   64.7520 C   0  0  0  0  0  0  0  0  0  0  0  0
  127.0820  129.4790   63.7560 C   0  0  0  0  0  0  0  0  0  0  0  0
  128.5690  128.9210   61.0170 C   0  0  0  0  0  0  0  0  0  0  0  0
  129.5430  129.0510   60.0220 C   0  0  0  0  0  0  0  0  0  0  0  0
  130.3440  127.8680   59.6290 C   0  0  0  0  0  0  0  0  0  0  0  0
  131.2190  127.2780   60.5430 C   0  0  0  0  0  0  0  0  0  0  0  0
  131.9780  126.1710   60.1700 C   0  0  0  0  0  0  0  0  0  0  0  0
  131.8700  125.6380   58.8860 C   0  0  0  0  0  0  0  0  0  0  0  0
  132.6620  124.5410   58.6050 O   0  0  0  0  0  0  0  0  0  0  0  0
  133.8560  124.3380   59.3510 C   0  0  0  0  0  0  0  0  0  0  0  0
  130.9860  126.2310   57.9700 C   0  0  0  0  0  0  0  0  0  0  0  0
  130.2290  127.3380   58.3440 C   0  0  0  0  0  0  0  0  0  0  0  0
  129.7220  130.3280   59.4270 C   0  0  0  0  0  0  0  0  0  0  0  0
  130.6090  130.8130   58.4060 C   0  0  0  0  0  0  0  0  0  0  0  0
  131.5300  130.0080   57.7830 N   0  0  0  0  0  0  0  0  0  0  0  0
  1  2  1  0
  2  3  1  0
  3  4  2  0
  3  5  1  0
  5  6  1  0
  6  7  1  0
  7  8  2  0
  8  9  1  0
  9 10  1  0
 10 11  2  0
 11 12  1  0
 12 13  2  0
 13 14  1  0
 14 15  1  0
 13 16  1  0
 16 17  2  0
  9 18  2  0
 18 19  1  0
 19 20  1  0
 20 21  2  0
 21 22  1  0
 22 23  2  0
 23 24  1  0
 24 25  1  0
 23 26  1  0
 26 27  2  0
 19 28  2  0
 28 29  1  0
 29 30  1  0
 29  5  2  0
 28  7  1  0
 17 10  1  0
 27 20  1  0
M  END
>  <Binding energies>  (38) 
[-6.86]

>  <Ligand effiencies>  (38) 
[-0.214375]

>  <Interactions>  (38) 
["V-B:HIS:456:CE1:9041, H-B:TYR:539:OH:9850, V-A:ILE:369:CG2:3237, V-B:ARG:545:CG:9894, V-B:TYR:484:CZ:9318, V-B:GLU:543:CD:9880, V-A:ILE:369:CD1:3239, V-A:TYR:539:CD1:4873, V-B:GLY:454:CA:9020, V-A:LEU:363:CD1:3189, V-A:ILE:538:CB:4862, V-A:TYR:531:CZ:4794, V-A:PRO:540:CA:4883, V-A:PRO:540:CB:4885, H-A:ASP:366:OD2:3215, V-A:ASP:366:CB:3212, H-B:ARG:545:NH2:9900, H-A:TYR:531:OH:4795, V-A:TYR:539:C:4867, H-A:TYR:539:N:4870, V-A:PRO:540:N:4884, H-B:TYR:484:OH:9319, V-A:MET:535:CE:4835, H-B:GLY:454:N:9021, V-A:ASP:366:CG:3213, V-B:ARG:545:CZ:9898, H-B:ARG:545:NH1:9899, H-B:ARG:545:NE:9896, V-A:PRO:540:CD:4887, V-A:ILE:538:CA:4860, V-A:ASP:366:CA:3210, V-B:ARG:545:CD:9895, V-A:ILE:369:CB:3236, V-B:TYR:484:CE1:9316"]

$$$$
9a_Ghoteimi_2023
     RDKit          3D

 48 54  0  0  0  0  0  0  0  0999 V2000
  127.1510  138.6230   62.6030 C   0  0  0  0  0  0  0  0  0  0  0  0
  125.6760  138.2190   62.5150 C   0  0  0  0  0  0  0  0  0  0  0  0
  125.3740  137.8190   61.1830 O   0  0  0  0  0  0  0  0  0  0  0  0
  124.6430  136.7020   60.9360 C   0  0  0  0  0  0  0  0  0  0  0  0
  123.5310  136.7210   60.3980 O   0  0  0  0  0  0  0  0  0  0  0  0
  125.3170  135.4390   61.3890 C   0  0  0  0  0  0  0  0  0  0  0  0
  124.5350  134.3740   61.8560 C   0  0  0  0  0  0  0  0  0  0  0  0
  125.1300  133.1920   62.2840 C   0  0  0  0  0  0  0  0  0  0  0  0
  126.5170  133.0460   62.2540 C   0  0  0  0  0  0  0  0  0  0  0  0
  127.0080  131.8080   62.7110 N   0  0  0  0  0  0  0  0  0  0  0  0
  127.6830  131.4950   63.8460 C   0  0  0  0  0  0  0  0  0  0  0  0
  127.9900  132.3100   64.7150 O   0  0  0  0  0  0  0  0  0  0  0  0
  128.0350  130.0790   63.9940 C   0  0  0  0  0  0  0  0  0  0  0  0
  128.1340  129.0330   62.5770 S   0  0  0  0  0  0  0  0  0  0  0  0
  128.5800  127.6610   63.5650 C   0  0  0  0  0  0  0  0  0  0  0  0
  128.8350  126.4690   63.0290 N   0  0  0  0  0  0  0  0  0  0  0  0
  129.1850  125.4710   63.8830 C   0  0  0  0  0  0  0  0  0  0  0  0
  129.4770  124.1450   63.2590 C   0  0  0  0  0  0  0  0  0  0  0  0
  128.4500  123.3860   62.6870 C   0  0  0  0  0  0  0  0  0  0  0  0
  128.7140  122.1500   62.1030 C   0  0  0  0  0  0  0  0  0  0  0  0
  130.0180  121.6320   62.0570 C   0  0  0  0  0  0  0  0  0  0  0  0
  130.2950  120.3840   61.4910 N   0  0  0  0  0  0  0  0  0  0  0  0
  131.6000  120.0930   60.8640 C   0  0  0  0  0  0  0  0  0  0  0  0
  131.6010  118.8230   59.9880 C   0  0  0  0  0  0  0  0  0  0  0  0
  131.1380  117.7130   60.7380 O   0  0  0  0  0  0  0  0  0  0  0  0
  129.8150  117.9180   61.2070 C   0  0  0  0  0  0  0  0  0  0  0  0
  129.7660  119.1570   62.1240 C   0  0  0  0  0  0  0  0  0  0  0  0
  131.0410  122.3900   62.6450 C   0  0  0  0  0  0  0  0  0  0  0  0
  130.7760  123.6240   63.2310 C   0  0  0  0  0  0  0  0  0  0  0  0
  129.2500  125.6610   65.2650 C   0  0  0  0  0  0  0  0  0  0  0  0
  128.9640  126.9070   65.8330 C   0  0  0  0  0  0  0  0  0  0  0  0
  129.0130  127.0460   67.3120 C   0  0  0  0  0  0  0  0  0  0  0  0
  130.2320  127.2290   67.9690 C   0  0  0  0  0  0  0  0  0  0  0  0
  130.2750  127.3720   69.3520 C   0  0  0  0  0  0  0  0  0  0  0  0
  129.0970  127.3550   70.1150 C   0  0  0  0  0  0  0  0  0  0  0  0
  129.1160  127.4860   71.5060 N   0  0  0  0  0  0  0  0  0  0  0  0
  130.2490  126.9210   72.2670 C   0  0  0  0  0  0  0  0  0  0  0  0
  130.3410  127.4550   73.7120 C   0  0  0  0  0  0  0  0  0  0  0  0
  129.1150  127.2340   74.3910 O   0  0  0  0  0  0  0  0  0  0  0  0
  128.0340  127.8930   73.7500 C   0  0  0  0  0  0  0  0  0  0  0  0
  127.8800  127.3710   72.3060 C   0  0  0  0  0  0  0  0  0  0  0  0
  127.8780  127.1740   69.4450 C   0  0  0  0  0  0  0  0  0  0  0  0
  127.8360  127.0260   68.0620 C   0  0  0  0  0  0  0  0  0  0  0  0
  128.6300  127.9770   64.9540 C   0  0  0  0  0  0  0  0  0  0  0  0
  128.3380  129.3730   65.1680 C   0  0  0  0  0  0  0  0  0  0  0  0
  128.3700  129.9510   66.4110 N   0  0  0  0  0  0  0  0  0  0  0  0
  127.3100  134.1060   61.7850 C   0  0  0  0  0  0  0  0  0  0  0  0
  126.7120  135.2890   61.3570 C   0  0  0  0  0  0  0  0  0  0  0  0
  1  2  1  0
  2  3  1  0
  3  4  1  0
  4  5  2  0
  4  6  1  0
  6  7  2  0
  7  8  1  0
  8  9  2  0
  9 10  1  0
 10 11  1  0
 11 12  2  0
 11 13  1  0
 13 14  1  0
 14 15  1  0
 15 16  2  0
 16 17  1  0
 17 18  1  0
 18 19  2  0
 19 20  1  0
 20 21  2  0
 21 22  1  0
 22 23  1  0
 23 24  1  0
 24 25  1  0
 25 26  1  0
 26 27  1  0
 21 28  1  0
 28 29  2  0
 17 30  2  0
 30 31  1  0
 31 32  1  0
 32 33  2  0
 33 34  1  0
 34 35  2  0
 35 36  1  0
 36 37  1  0
 37 38  1  0
 38 39  1  0
 39 40  1  0
 40 41  1  0
 35 42  1  0
 42 43  2  0
 31 44  2  0
 44 45  1  0
 45 46  1  0
  9 47  1  0
 47 48  2  0
 48  6  1  0
 45 13  2  0
 44 15  1  0
 29 18  1  0
 43 32  1  0
 27 22  1  0
 41 36  1  0
M  END
>  <Binding energies>  (39) 
[-10.49]

>  <Ligand effiencies>  (39) 
[-0.20568627450980392]

>  <Interactions>  (39) 
["V-B:GLU:543:C:9874, V-A:GLU:543:CD:4908, V-A:HIS:456:CE1:4070, V-A:GLU:543:CB:4906, V-B:HIS:456:CE1:9041, V-B:HIS:456:CD2:9039, V-B:GLU:543:CB:9878, V-B:TYR:539:CE2:9848, V-A:LEU:475:CD2:4259, V-B:TYR:539:CD2:9846, V-B:TYR:539:CG:9844, H-B:LYS:547:NZ:9923, V-B:TYR:484:CE2:9317, V-A:HIS:456:CD2:4068, V-B:TYR:484:CZ:9318, V-B:GLU:543:CG:9879, V-B:GLU:543:CD:9880, V-A:GLU:543:CG:4907, V-A:GLU:543:CA:4904, V-B:ALA:541:CB:9864, V-A:TYR:539:CD1:4873, H-A:GLU:543:OE2:4910, V-B:LEU:475:CD2:9230, V-B:ILE:369:CG2:8208, V-B:ALA:541:CA:9862, V-A:TYR:539:CE1:4875, V-B:TYR:539:C:9839, H-B:TYR:484:OH:9319, H-A:SER:385:OG:3410, V-B:LEU:475:CG:9228, V-B:PRO:482:CB:9297, V-B:LEU:475:CD1:9229, V-B:SER:385:CA:8378, V-B:HIS:383:CD2:8363, V-B:HIS:383:CE1:8364, V-B:SER:385:CB:8380, V-B:TYR:539:CB:9843, V-A:LEU:475:CD1:4258, V-A:PRO:482:CG:4327, V-A:HIS:383:NE2:3394, V-A:PRO:482:CB:4326, V-A:LEU:475:CG:4257, H-A:HIS:383:HE2:3395, H-B:HIS:383:NE2:8365, V-B:THR:477:CG2:9244"]

$$$$
9b_Ghoteimi_2023
     RDKit          3D

 42 48  0  0  0  0  0  0  0  0999 V2000
  128.7220  125.9310   59.1690 N   0  0  0  0  0  0  0  0  0  0  0  0
  128.6300  125.2190   60.3380 C   0  0  0  0  0  0  0  0  0  0  0  0
  128.2410  123.8720   60.3940 C   0  0  0  0  0  0  0  0  0  0  0  0
  127.8930  122.9740   59.2900 C   0  0  0  0  0  0  0  0  0  0  0  0
  128.3820  121.8440   59.2200 O   0  0  0  0  0  0  0  0  0  0  0  0
  127.0230  123.4790   58.3800 N   0  0  0  0  0  0  0  0  0  0  0  0
  126.5350  122.8570   57.2380 C   0  0  0  0  0  0  0  0  0  0  0  0
  125.1800  122.8180   56.9130 C   0  0  0  0  0  0  0  0  0  0  0  0
  125.1160  122.1240   55.7270 C   0  0  0  0  0  0  0  0  0  0  0  0
  126.3690  121.7640   55.3570 O   0  0  0  0  0  0  0  0  0  0  0  0
  127.2590  122.2340   56.3230 N   0  0  0  0  0  0  0  0  0  0  0  0
  128.2020  123.2880   62.0580 S   0  0  0  0  0  0  0  0  0  0  0  0
  128.6880  124.8530   62.6660 C   0  0  0  0  0  0  0  0  0  0  0  0
  128.8210  125.0840   63.9710 N   0  0  0  0  0  0  0  0  0  0  0  0
  129.1860  126.3400   64.3400 C   0  0  0  0  0  0  0  0  0  0  0  0
  129.3080  126.5780   65.8110 C   0  0  0  0  0  0  0  0  0  0  0  0
  130.0090  125.6870   66.6320 C   0  0  0  0  0  0  0  0  0  0  0  0
  130.1070  125.9060   68.0030 C   0  0  0  0  0  0  0  0  0  0  0  0
  129.4960  127.0170   68.6050 C   0  0  0  0  0  0  0  0  0  0  0  0
  129.5890  127.2520   69.9810 N   0  0  0  0  0  0  0  0  0  0  0  0
  128.3820  127.3840   70.8220 C   0  0  0  0  0  0  0  0  0  0  0  0
  128.6640  127.2920   72.3360 C   0  0  0  0  0  0  0  0  0  0  0  0
  129.6460  128.2460   72.7050 O   0  0  0  0  0  0  0  0  0  0  0  0
  130.8710  128.0220   72.0250 C   0  0  0  0  0  0  0  0  0  0  0  0
  130.6580  128.1320   70.5000 C   0  0  0  0  0  0  0  0  0  0  0  0
  128.8130  127.9160   67.7740 C   0  0  0  0  0  0  0  0  0  0  0  0
  128.7180  127.7000   66.4030 C   0  0  0  0  0  0  0  0  0  0  0  0
  129.4410  127.3480   63.4080 C   0  0  0  0  0  0  0  0  0  0  0  0
  129.3220  127.1040   62.0340 C   0  0  0  0  0  0  0  0  0  0  0  0
  129.6330  128.2010   61.0830 C   0  0  0  0  0  0  0  0  0  0  0  0
  130.6640  128.0560   60.1540 C   0  0  0  0  0  0  0  0  0  0  0  0
  130.9460  129.0740   59.2490 C   0  0  0  0  0  0  0  0  0  0  0  0
  130.2040  130.2660   59.2470 C   0  0  0  0  0  0  0  0  0  0  0  0
  130.4600  131.2940   58.3370 N   0  0  0  0  0  0  0  0  0  0  0  0
  129.3610  132.1940   57.9360 C   0  0  0  0  0  0  0  0  0  0  0  0
  129.6720  133.0030   56.6590 C   0  0  0  0  0  0  0  0  0  0  0  0
  130.8800  133.7300   56.8270 O   0  0  0  0  0  0  0  0  0  0  0  0
  131.9800  132.8690   57.0820 C   0  0  0  0  0  0  0  0  0  0  0  0
  131.7260  132.0530   58.3670 C   0  0  0  0  0  0  0  0  0  0  0  0
  129.1580  130.3920   60.1730 C   0  0  0  0  0  0  0  0  0  0  0  0
  128.8760  129.3730   61.0790 C   0  0  0  0  0  0  0  0  0  0  0  0
  128.9070  125.8050   61.6260 C   0  0  0  0  0  0  0  0  0  0  0  0
  1  2  1  0
  2  3  2  0
  3  4  1  0
  4  5  2  0
  4  6  1  0
  6  7  1  0
  7  8  1  0
  8  9  2  0
  9 10  1  0
 10 11  1  0
  3 12  1  0
 12 13  1  0
 13 14  2  0
 14 15  1  0
 15 16  1  0
 16 17  2  0
 17 18  1  0
 18 19  2  0
 19 20  1  0
 20 21  1  0
 21 22  1  0
 22 23  1  0
 23 24  1  0
 24 25  1  0
 19 26  1  0
 26 27  2  0
 15 28  2  0
 28 29  1  0
 29 30  1  0
 30 31  2  0
 31 32  1  0
 32 33  2  0
 33 34  1  0
 34 35  1  0
 35 36  1  0
 36 37  1  0
 37 38  1  0
 38 39  1  0
 33 40  1  0
 40 41  2  0
 29 42  2  0
 42  2  1  0
 11  7  2  0
 42 13  1  0
 27 16  1  0
 41 30  1  0
 25 20  1  0
 39 34  1  0
M  END
>  <Binding energies>  (40) 
[-9.97]

>  <Ligand effiencies>  (40) 
[-0.22155555555555556]

>  <Interactions>  (40) 
["H-A:LYS:547:NZ:4951, V-A:GLU:543:CD:4908, V-A:GLU:543:C:4902, V-A:HIS:456:CE1:4070, V-A:GLU:543:CB:4906, V-B:HIS:456:CE1:9041, V-A:GLY:544:C:4912, V-B:HIS:456:CD2:9039, V-B:GLU:543:CB:9878, V-B:TYR:539:CE2:9848, V-B:LEU:363:CD1:8160, V-B:MET:535:CE:9807, V-B:PRO:540:CB:9857, V-B:TYR:539:CD2:9846, H-B:TYR:539:N:9842, V-B:PRO:540:CA:9855, V-B:GLU:543:CG:9879, V-B:GLU:543:CD:9880, V-A:GLU:543:CG:4907, V-A:LEU:363:CD1:3189, V-A:ILE:538:CB:4862, V-A:PRO:540:CA:4883, V-A:PRO:540:CB:4885, V-B:PRO:540:N:9856, H-A:TYR:539:N:4870, V-B:TYR:539:C:9839, V-A:PRO:540:N:4884, V-B:PRO:540:CD:9859, V-A:PRO:540:CD:4887, V-A:ILE:538:CA:4860, V-B:ILE:538:CA:9832, V-A:PRO:540:CG:4886, V-B:ILE:538:CG2:9835, V-B:PRO:540:CG:9858, V-B:ILE:538:CB:9834, V-B:ILE:538:CG1:9836"]

$$$$
9c_Ghoteimi_2023
     RDKit          3D

 42 48  0  0  0  0  0  0  0  0999 V2000
  128.0920  127.7110   62.6390 N   0  0  0  0  0  0  0  0  0  0  0  0
  128.6670  126.9600   63.6330 C   0  0  0  0  0  0  0  0  0  0  0  0
  129.2850  125.7210   63.4060 C   0  0  0  0  0  0  0  0  0  0  0  0
  129.4630  125.0070   62.1370 C   0  0  0  0  0  0  0  0  0  0  0  0
  130.5880  124.8320   61.6650 O   0  0  0  0  0  0  0  0  0  0  0  0
  128.3210  124.5780   61.5470 N   0  0  0  0  0  0  0  0  0  0  0  0
  128.2090  123.8960   60.3430 C   0  0  0  0  0  0  0  0  0  0  0  0
  128.4060  122.6140   60.1190 N   0  0  0  0  0  0  0  0  0  0  0  0
  128.2150  122.3100   58.8490 C   0  0  0  0  0  0  0  0  0  0  0  0
  127.8560  123.3620   58.0110 C   0  0  0  0  0  0  0  0  0  0  0  0
  127.7650  124.8240   58.9460 S   0  0  0  0  0  0  0  0  0  0  0  0
  129.8870  125.0230   64.9090 S   0  0  0  0  0  0  0  0  0  0  0  0
  129.2910  126.3820   65.8320 C   0  0  0  0  0  0  0  0  0  0  0  0
  129.4270  126.4410   67.1550 N   0  0  0  0  0  0  0  0  0  0  0  0
  128.9140  127.5330   67.7800 C   0  0  0  0  0  0  0  0  0  0  0  0
  129.0600  127.5630   69.2670 C   0  0  0  0  0  0  0  0  0  0  0  0
  130.1970  128.1110   69.8720 C   0  0  0  0  0  0  0  0  0  0  0  0
  130.3330  128.1280   71.2560 C   0  0  0  0  0  0  0  0  0  0  0  0
  129.3410  127.5840   72.0890 C   0  0  0  0  0  0  0  0  0  0  0  0
  129.4600  127.6000   73.4830 N   0  0  0  0  0  0  0  0  0  0  0  0
  128.9690  128.7400   74.2840 C   0  0  0  0  0  0  0  0  0  0  0  0
  128.8600  128.4410   75.7940 C   0  0  0  0  0  0  0  0  0  0  0  0
  130.1070  127.9760   76.2850 O   0  0  0  0  0  0  0  0  0  0  0  0
  130.5070  126.7800   75.6370 C   0  0  0  0  0  0  0  0  0  0  0  0
  130.6620  127.0240   74.1200 C   0  0  0  0  0  0  0  0  0  0  0  0
  128.1960  127.0530   71.4780 C   0  0  0  0  0  0  0  0  0  0  0  0
  128.0590  127.0410   70.0920 C   0  0  0  0  0  0  0  0  0  0  0  0
  128.2950  128.5710   67.0800 C   0  0  0  0  0  0  0  0  0  0  0  0
  128.1700  128.5240   65.6870 C   0  0  0  0  0  0  0  0  0  0  0  0
  127.5330  129.6670   64.9860 C   0  0  0  0  0  0  0  0  0  0  0  0
  128.2910  130.7810   64.6220 C   0  0  0  0  0  0  0  0  0  0  0  0
  127.7000  131.8480   63.9490 C   0  0  0  0  0  0  0  0  0  0  0  0
  126.3350  131.8280   63.6240 C   0  0  0  0  0  0  0  0  0  0  0  0
  125.7230  132.8820   62.9390 N   0  0  0  0  0  0  0  0  0  0  0  0
  126.4140  133.4850   61.7810 C   0  0  0  0  0  0  0  0  0  0  0  0
  125.8340  134.8570   61.3740 C   0  0  0  0  0  0  0  0  0  0  0  0
  124.4420  134.7420   61.1240 O   0  0  0  0  0  0  0  0  0  0  0  0
  123.7380  134.2910   62.2710 C   0  0  0  0  0  0  0  0  0  0  0  0
  124.2660  132.9060   62.7060 C   0  0  0  0  0  0  0  0  0  0  0  0
  125.5880  130.6940   63.9770 C   0  0  0  0  0  0  0  0  0  0  0  0
  126.1790  129.6280   64.6490 C   0  0  0  0  0  0  0  0  0  0  0  0
  128.6690  127.3720   65.0140 C   0  0  0  0  0  0  0  0  0  0  0  0
  1  2  1  0
  2  3  2  0
  3  4  1  0
  4  5  2  0
  4  6  1  0
  6  7  1  0
  7  8  2  0
  8  9  1  0
  9 10  2  0
 10 11  1  0
  3 12  1  0
 12 13  1  0
 13 14  2  0
 14 15  1  0
 15 16  1  0
 16 17  2  0
 17 18  1  0
 18 19  2  0
 19 20  1  0
 20 21  1  0
 21 22  1  0
 22 23  1  0
 23 24  1  0
 24 25  1  0
 19 26  1  0
 26 27  2  0
 15 28  2  0
 28 29  1  0
 29 30  1  0
 30 31  2  0
 31 32  1  0
 32 33  2  0
 33 34  1  0
 34 35  1  0
 35 36  1  0
 36 37  1  0
 37 38  1  0
 38 39  1  0
 33 40  1  0
 40 41  2  0
 29 42  2  0
 42  2  1  0
 11  7  1  0
 42 13  1  0
 27 16  1  0
 41 30  1  0
 25 20  1  0
 39 34  1  0
M  END
>  <Binding energies>  (41) 
[-9.11]

>  <Ligand effiencies>  (41) 
[-0.20244444444444443]

>  <Interactions>  (41) 
["H-A:LYS:547:NZ:4951, V-B:GLU:543:C:9874, V-A:GLU:543:CD:4908, V-A:GLU:543:C:4902, V-A:HIS:456:CE1:4070, V-A:GLU:543:CB:4906, V-B:HIS:456:CE1:9041, V-A:GLY:544:C:4912, V-B:GLU:543:CB:9878, V-B:TYR:539:CE2:9848, V-B:TYR:539:CZ:9849, V-B:TYR:539:CD2:9846, V-B:TYR:539:CG:9844, V-B:PRO:540:CA:9855, V-A:HIS:456:CD2:4068, V-B:GLU:543:CG:9879, V-B:GLU:543:CD:9880, V-A:GLU:543:CG:4907, H-B:GLU:543:OE1:9881, V-A:TYR:539:CD1:4873, V-B:GLY:454:CA:9020, H-A:GLU:543:OE1:4909, V-B:LEU:475:CD2:9230, V-B:ILE:369:CG2:8208, H-B:GLU:543:OE2:9882, V-B:PRO:540:N:9856, V-A:TYR:539:CE1:4875, V-B:TYR:539:C:9839"]

$$$$
RR11_Rahimova_2017
     RDKit          3D

 33 38  0  0  0  0  0  0  0  0999 V2000
  133.8310  121.2580   61.0400 N   0  0  0  0  0  0  0  0  0  0  0  0
  133.1290  122.0920   61.9090 C   0  0  0  0  0  0  0  0  0  0  0  0
  131.7360  122.1030   61.8860 C   0  0  0  0  0  0  0  0  0  0  0  0
  131.0360  122.9340   62.7560 C   0  0  0  0  0  0  0  0  0  0  0  0
  131.7210  123.7610   63.6560 C   0  0  0  0  0  0  0  0  0  0  0  0
  130.9650  124.6520   64.5970 C   0  0  0  0  0  0  0  0  0  0  0  0
  130.3390  125.7510   64.2380 N   0  0  0  0  0  0  0  0  0  0  0  0
  129.7790  126.2410   65.3890 C   0  0  0  0  0  0  0  0  0  0  0  0
  128.9970  127.3890   65.5740 C   0  0  0  0  0  0  0  0  0  0  0  0
  128.5210  127.6700   66.8600 C   0  0  0  0  0  0  0  0  0  0  0  0
  127.6730  128.9140   67.0930 C   0  0  0  0  0  0  0  0  0  0  0  0
  126.6990  129.1890   65.9560 C   0  0  0  0  0  0  0  0  0  0  0  0
  125.3270  129.2500   66.2250 C   0  0  0  0  0  0  0  0  0  0  0  0
  124.3950  129.5090   65.2180 C   0  0  0  0  0  0  0  0  0  0  0  0
  124.8690  129.7150   63.9160 C   0  0  0  0  0  0  0  0  0  0  0  0
  124.1680  129.9740   62.7680 N   0  0  0  0  0  0  0  0  0  0  0  0
  125.0770  130.0790   61.8220 C   0  0  0  0  0  0  0  0  0  0  0  0
  124.7710  130.3480   60.3760 C   0  0  0  0  0  0  0  0  0  0  0  0
  123.6870  131.1600   60.0180 C   0  0  0  0  0  0  0  0  0  0  0  0
  123.3970  131.4000   58.6780 C   0  0  0  0  0  0  0  0  0  0  0  0
  124.1900  130.8290   57.6850 C   0  0  0  0  0  0  0  0  0  0  0  0
  123.8970  131.0660   56.3420 N   0  0  0  0  0  0  0  0  0  0  0  0
  125.2730  130.0230   58.0260 C   0  0  0  0  0  0  0  0  0  0  0  0
  125.5620  129.7840   59.3670 C   0  0  0  0  0  0  0  0  0  0  0  0
  126.3540  129.9040   62.3120 N   0  0  0  0  0  0  0  0  0  0  0  0
  126.2600  129.6630   63.6620 C   0  0  0  0  0  0  0  0  0  0  0  0
  127.1980  129.4100   64.6660 C   0  0  0  0  0  0  0  0  0  0  0  0
  128.8430  126.8370   67.9370 C   0  0  0  0  0  0  0  0  0  0  0  0
  129.6250  125.6890   67.7860 C   0  0  0  0  0  0  0  0  0  0  0  0
  130.0790  125.4120   66.4950 C   0  0  0  0  0  0  0  0  0  0  0  0
  130.8420  124.4060   65.9490 N   0  0  0  0  0  0  0  0  0  0  0  0
  133.1220  123.7410   63.6670 C   0  0  0  0  0  0  0  0  0  0  0  0
  133.8250  122.9100   62.7980 C   0  0  0  0  0  0  0  0  0  0  0  0
  1  2  1  0
  2  3  2  0
  3  4  1  0
  4  5  2  0
  5  6  1  0
  6  7  2  0
  7  8  1  0
  8  9  2  0
  9 10  1  0
 10 11  1  0
 11 12  1  0
 12 13  2  0
 13 14  1  0
 14 15  2  0
 15 16  1  0
 16 17  2  0
 17 18  1  0
 18 19  2  0
 19 20  1  0
 20 21  2  0
 21 22  1  0
 21 23  1  0
 23 24  2  0
 17 25  1  0
 25 26  1  0
 26 27  2  0
 10 28  2  0
 28 29  1  0
 29 30  2  0
 30 31  1  0
  5 32  1  0
 32 33  2  0
 33  2  1  0
 31  6  1  0
 30  8  1  0
 27 12  1  0
 26 15  1  0
 24 18  1  0
M  END
>  <Binding energies>  (42) 
[-8.99]

>  <Ligand effiencies>  (42) 
[-0.23051282051282052]

>  <Interactions>  (42) 
["V-A:GLU:543:CD:4908, V-A:HIS:456:CE1:4070, V-B:HIS:456:CE1:9041, V-B:GLU:543:CB:9878, V-A:LEU:475:CD2:4259, V-B:ASP:366:CB:8183, V-A:ILE:369:CG2:3237, V-B:ASP:366:CG:8184, V-B:GLU:543:CA:9876, V-B:ARG:545:CG:9894, V-B:TYR:484:CZ:9318, V-B:GLU:543:CG:9879, V-B:GLU:543:CD:9880, V-A:TYR:484:CE2:4346, V-A:TYR:484:CZ:4347, V-A:ILE:369:CD1:3239, V-B:ILE:369:CG2:8208, H-B:ARG:545:NH2:9900, V-A:TYR:539:CE1:4875, V-B:ILE:369:CB:8207, H-B:TYR:531:OH:9767, H-A:SER:385:OG:3410, V-B:ASP:366:CA:8181, V-B:TYR:531:CZ:9766, H-A:TYR:484:OH:4348, V-B:ARG:545:CZ:9898, V-A:GLY:454:CA:4049, V-A:TYR:539:CZ:4877, V-B:ASP:366:C:8179, V-B:ARG:545:CD:9895, H-B:ASP:366:O:8180, H-A:TYR:539:OH:4878, V-A:SER:385:C:3405, V-A:SER:385:CB:3409, V-A:SER:385:CA:3407, V-B:TYR:531:CE1:9764, V-B:ASN:370:CB:8216, H-A:SER:385:O:3406"]

$$$$
RR16_Rahimova_2017
     RDKit          3D

 44 49  0  0  0  0  0  0  0  0999 V2000
  121.8700  131.0500   61.1220 O   0  0  0  0  0  0  0  0  0  0  0  0
  123.2270  131.4140   61.5480 S   0  0  0  0  0  0  0  0  0  0  0  0
  123.9120  130.6590   62.6040 O   0  0  0  0  0  0  0  0  0  0  0  0
  123.1970  133.1140   62.0200 N   0  0  0  0  0  0  0  0  0  0  0  0
  124.1180  134.0930   61.3960 C   0  0  0  0  0  0  0  0  0  0  0  0
  123.4150  135.4730   61.3130 C   0  0  0  0  0  0  0  0  0  0  0  0
  124.2280  136.7090   61.7450 C   0  0  0  0  0  0  0  0  0  0  0  0
  125.4870  136.9550   60.8960 C   0  0  0  0  0  0  0  0  0  0  0  0
  126.7520  136.1910   61.3330 C   0  0  0  0  0  0  0  0  0  0  0  0
  126.6580  134.6540   61.4010 C   0  0  0  0  0  0  0  0  0  0  0  0
  125.4570  134.0690   62.1700 C   0  0  0  0  0  0  0  0  0  0  0  0
  124.2570  131.3750   60.0860 C   0  0  0  0  0  0  0  0  0  0  0  0
  123.7160  131.0130   58.8510 C   0  0  0  0  0  0  0  0  0  0  0  0
  124.5520  130.8680   57.7480 C   0  0  0  0  0  0  0  0  0  0  0  0
  125.9250  131.0860   57.8840 C   0  0  0  0  0  0  0  0  0  0  0  0
  127.0200  130.7640   56.5040 S   0  0  0  0  0  0  0  0  0  0  0  0
  127.8900  131.9380   56.3500 O   0  0  0  0  0  0  0  0  0  0  0  0
  126.1910  130.3040   55.3830 O   0  0  0  0  0  0  0  0  0  0  0  0
  128.0170  129.4010   57.0500 N   0  0  0  0  0  0  0  0  0  0  0  0
  127.8920  128.1760   56.2190 C   0  0  0  0  0  0  0  0  0  0  0  0
  128.5350  126.9710   56.9350 C   0  0  0  0  0  0  0  0  0  0  0  0
  129.9950  127.2670   57.3610 C   0  0  0  0  0  0  0  0  0  0  0  0
  130.6360  126.0990   58.1150 C   0  0  0  0  0  0  0  0  0  0  0  0
  132.0140  125.8660   57.9950 C   0  0  0  0  0  0  0  0  0  0  0  0
  132.6410  124.8180   58.6710 C   0  0  0  0  0  0  0  0  0  0  0  0
  133.9900  124.6090   58.5450 O   0  0  0  0  0  0  0  0  0  0  0  0
  131.8550  123.9910   59.4860 C   0  0  0  0  0  0  0  0  0  0  0  0
  132.1890  122.9210   60.2650 N   0  0  0  0  0  0  0  0  0  0  0  0
  131.0390  122.4840   60.8850 N   0  0  0  0  0  0  0  0  0  0  0  0
  130.0110  123.2440   60.4600 N   0  0  0  0  0  0  0  0  0  0  0  0
  128.6800  123.0580   61.0220 C   0  0  0  0  0  0  0  0  0  0  0  0
  127.5750  123.2470   59.9910 C   0  0  0  0  0  0  0  0  0  0  0  0
  126.3840  123.8870   60.3490 C   0  0  0  0  0  0  0  0  0  0  0  0
  125.3790  124.0810   59.4000 C   0  0  0  0  0  0  0  0  0  0  0  0
  125.5600  123.6370   58.0900 C   0  0  0  0  0  0  0  0  0  0  0  0
  126.7470  123.0000   57.7270 C   0  0  0  0  0  0  0  0  0  0  0  0
  126.9790  122.4590   56.1040 Cl  0  0  0  0  0  0  0  0  0  0  0  0
  127.7510  122.8020   58.6770 C   0  0  0  0  0  0  0  0  0  0  0  0
  130.4640  124.2270   59.5950 C   0  0  0  0  0  0  0  0  0  0  0  0
  129.8330  125.2740   58.9150 C   0  0  0  0  0  0  0  0  0  0  0  0
  130.1250  128.6140   58.1180 C   0  0  0  0  0  0  0  0  0  0  0  0
  129.4220  129.7650   57.3700 C   0  0  0  0  0  0  0  0  0  0  0  0
  126.4580  131.4890   59.1110 C   0  0  0  0  0  0  0  0  0  0  0  0
  125.6240  131.6310   60.2140 C   0  0  0  0  0  0  0  0  0  0  0  0
  1  2  2  0
  2  3  2  0
  2  4  1  0
  4  5  1  0
  5  6  1  0
  6  7  1  0
  7  8  1  0
  8  9  1  0
  9 10  1  0
 10 11  1  0
  2 12  1  0
 12 13  2  0
 13 14  1  0
 14 15  2  0
 15 16  1  0
 16 17  2  0
 16 18  2  0
 16 19  1  0
 19 20  1  0
 20 21  1  0
 21 22  1  0
 22 23  1  0
 23 24  2  0
 24 25  1  0
 25 26  1  0
 25 27  2  0
 27 28  1  0
 28 29  2  0
 29 30  1  0
 30 31  1  0
 31 32  1  0
 32 33  2  0
 33 34  1  0
 34 35  2  0
 35 36  1  0
 36 37  1  0
 36 38  2  0
 30 39  1  0
 39 40  2  0
 22 41  1  0
 41 42  1  0
 15 43  1  0
 43 44  2  0
 11  5  1  0
 44 12  1  0
 42 19  1  0
 40 23  1  0
 39 27  1  0
 38 32  1  0
M  END
>  <Binding energies>  (43) 
[-10.03]

>  <Ligand effiencies>  (43) 
[-0.20895833333333333]

>  <Interactions>  (43) 
["V-B:TYR:539:CE2:9848, H-B:TYR:539:OH:9850, V-B:ASP:366:CB:8183, V-B:PRO:540:CB:9857, V-B:ASP:366:CG:8184, V-B:TYR:539:CZ:9849, V-B:TYR:539:CD2:9846, V-B:TYR:539:CG:9844, V-B:TYR:539:CE1:9847, V-B:PRO:540:CA:9855, V-A:TYR:539:CD1:4873, V-B:LEU:475:CD2:9230, V-B:ILE:369:CG2:8208, V-A:ASP:366:CB:3212, V-B:PRO:540:N:9856, V-B:ILE:369:CG1:8209, V-A:TYR:539:CE1:4875, V-A:TYR:539:C:4867, V-B:ILE:369:CB:8207, V-B:TYR:539:CD1:9845, V-B:TYR:539:C:9839, V-A:MET:535:CE:4835, H-B:TYR:531:OH:9767, H-B:GLY:454:N:9021, V-B:ASP:366:CA:8181, V-A:TYR:539:CZ:4877, V-B:SER:385:CA:8378, V-B:HIS:383:CD2:8363, V-B:ASP:366:C:8179, V-B:SER:385:CB:8380, H-B:SER:385:O:8377, H-A:ASP:366:O:3209, V-B:SER:385:C:8376"]

$$$$
RR18_Rahimova_2017
     RDKit          3D

 36 41  0  0  0  0  0  0  0  0999 V2000
  133.7130  125.1140   65.4910 C   0  0  0  0  0  0  0  0  0  0  0  0
  132.6120  125.1480   64.4610 C   0  0  0  0  0  0  0  0  0  0  0  0
  132.5470  124.8610   63.1080 C   0  0  0  0  0  0  0  0  0  0  0  0
  131.2300  125.0880   62.7100 C   0  0  0  0  0  0  0  0  0  0  0  0
  130.5370  125.5060   63.8350 C   0  0  0  0  0  0  0  0  0  0  0  0
  129.0870  125.9050   64.0980 C   0  0  1  0  0  0  0  0  0  0  0  0
  128.9810  126.9430   65.2540 C   0  0  0  0  0  0  0  0  0  0  0  0
  129.3610  126.5760   66.6150 C   0  0  0  0  0  0  0  0  0  0  0  0
  129.6280  125.4130   66.9240 O   0  0  0  0  0  0  0  0  0  0  0  0
  129.4080  127.6180   67.4780 N   0  0  0  0  0  0  0  0  0  0  0  0
  129.7110  127.6480   68.8560 C   0  0  0  0  0  0  0  0  0  0  0  0
  130.9890  127.9440   69.3620 C   0  0  0  0  0  0  0  0  0  0  0  0
  131.2240  127.9510   70.7360 C   0  0  0  0  0  0  0  0  0  0  0  0
  130.1930  127.6570   71.6220 C   0  0  0  0  0  0  0  0  0  0  0  0
  128.9240  127.3510   71.1350 C   0  0  0  0  0  0  0  0  0  0  0  0
  128.6730  127.3410   69.7590 C   0  0  0  0  0  0  0  0  0  0  0  0
  127.2670  126.9950   69.2770 C   0  0  0  0  0  0  0  0  0  0  0  0
  128.6270  128.2190   64.9470 C   0  0  0  0  0  0  0  0  0  0  0  0
  128.2380  128.6420   63.7130 N   0  0  0  0  0  0  0  0  0  0  0  0
  128.1100  127.7880   62.7650 C   0  0  0  0  0  0  0  0  0  0  0  0
  127.4790  128.1550   61.1770 S   0  0  0  0  0  0  0  0  0  0  0  0
  127.6510  126.4490   60.6570 C   0  0  0  0  0  0  0  0  0  0  0  0
  127.3280  125.9170   59.4270 C   0  0  0  0  0  0  0  0  0  0  0  0
  126.6980  126.7570   58.3970 C   0  0  0  0  0  0  0  0  0  0  0  0
  126.4020  127.9510   58.4210 O   0  0  0  0  0  0  0  0  0  0  0  0
  126.4510  125.9750   57.3420 N   0  0  0  0  0  0  0  0  0  0  0  0
  126.8740  124.6920   57.5200 C   0  0  0  0  0  0  0  0  0  0  0  0
  126.7850  123.6300   56.6200 C   0  0  0  0  0  0  0  0  0  0  0  0
  127.3110  122.3940   56.9860 C   0  0  0  0  0  0  0  0  0  0  0  0
  127.9200  122.2450   58.2300 C   0  0  0  0  0  0  0  0  0  0  0  0
  127.9960  123.3240   59.1150 C   0  0  0  0  0  0  0  0  0  0  0  0
  127.4490  124.5760   58.7730 C   0  0  0  0  0  0  0  0  0  0  0  0
  128.1910  125.6860   61.7820 C   0  0  0  0  0  0  0  0  0  0  0  0
  128.3940  124.4760   61.8130 O   0  0  0  0  0  0  0  0  0  0  0  0
  128.4430  126.4750   62.8620 N   0  0  0  0  0  0  0  0  0  0  0  0
  131.3860  125.5400   64.8970 O   0  0  0  0  0  0  0  0  0  0  0  0
  1  2  1  0
  2  3  2  0
  3  4  1  0
  4  5  2  0
  6  5  1  6
  6  7  1  0
  7  8  1  0
  8  9  2  0
  8 10  1  0
 10 11  1  0
 11 12  2  0
 12 13  1  0
 13 14  2  0
 14 15  1  0
 15 16  2  0
 16 17  1  0
  7 18  2  0
 18 19  1  0
 19 20  2  0
 20 21  1  0
 21 22  1  0
 22 23  2  0
 23 24  1  0
 24 25  2  0
 24 26  1  0
 26 27  1  0
 27 28  2  0
 28 29  1  0
 29 30  2  0
 30 31  1  0
 31 32  2  0
 22 33  1  0
 33 34  2  0
 33 35  1  0
  5 36  1  0
 36  2  1  0
 35  6  1  0
 16 11  1  0
 35 20  1  0
 32 23  1  0
 32 27  1  0
M  END
>  <Binding energies>  (44) 
[-8.42]

>  <Ligand effiencies>  (44) 
[-0.22157894736842104]

>  <Interactions>  (44) 
["V-B:GLU:543:C:9874, V-A:GLU:543:CD:4908, V-A:GLU:543:C:4902, V-A:HIS:456:CE1:4070, V-A:GLU:543:CB:4906, V-B:HIS:456:CE1:9041, V-A:GLY:544:C:4912, V-B:GLU:543:CB:9878, V-A:GLY:544:CA:4914, V-B:TYR:539:CE2:9848, V-B:MET:535:CE:9807, V-B:TYR:539:CZ:9849, V-B:TYR:539:CD2:9846, V-B:TYR:539:CG:9844, V-B:TYR:539:CE1:9847, V-B:PRO:540:CA:9855, V-B:GLU:543:CG:9879, V-B:GLU:543:CD:9880, V-A:GLU:543:CG:4907, V-A:GLU:543:CA:4904, V-A:ARG:545:CA:4919, H-A:GLU:543:OE2:4910, V-B:PRO:540:N:9856, H-B:MET:535:SD:9806, V-B:TYR:539:CD1:9845, V-B:TYR:539:C:9839, V-B:PRO:540:CD:9859, H-B:TYR:531:OH:9767, V-A:ARG:545:CZ:4926, V-B:TYR:531:CZ:9766, V-A:GLY:454:CA:4049, V-B:TYR:539:CA:9841, V-A:ARG:545:CD:4923"]

$$$$
RR20_Rahimova_2017
     RDKit          3D

 38 43  0  0  0  0  0  0  0  0999 V2000
  133.0630  124.2210   76.2920 C   0  0  0  0  0  0  0  0  0  0  0  0
  132.3130  125.2060   75.4140 C   0  0  0  0  0  0  0  0  0  0  0  0
  133.0210  126.0730   74.5810 C   0  0  0  0  0  0  0  0  0  0  0  0
  132.3360  126.9710   73.7680 C   0  0  0  0  0  0  0  0  0  0  0  0
  130.9370  127.0190   73.7900 C   0  0  0  0  0  0  0  0  0  0  0  0
  130.2100  127.9880   72.8840 C   0  0  0  0  0  0  0  0  0  0  0  0
  130.4990  129.1830   72.9780 O   0  0  0  0  0  0  0  0  0  0  0  0
  129.2860  127.5120   71.9990 N   0  0  0  0  0  0  0  0  0  0  0  0
  127.8810  127.3040   72.3880 C   0  0  0  0  0  0  0  0  0  0  0  0
  127.1380  126.9220   71.1190 C   0  0  0  0  0  0  0  0  0  0  0  0
  128.1020  127.3080   70.0380 C   0  0  0  0  0  0  0  0  0  0  0  0
  127.9320  127.2700   68.6540 C   0  0  0  0  0  0  0  0  0  0  0  0
  129.0110  127.5170   67.7960 C   0  0  0  0  0  0  0  0  0  0  0  0
  128.8260  127.4850   66.3040 C   0  0  0  0  0  0  0  0  0  0  0  0
  128.0010  128.3620   65.7540 N   0  0  0  0  0  0  0  0  0  0  0  0
  127.9330  128.2560   64.4510 C   0  0  0  0  0  0  0  0  0  0  0  0
  127.1770  129.0150   63.5710 N   0  0  0  0  0  0  0  0  0  0  0  0
  127.0460  130.3640   63.5630 C   0  0  0  0  0  0  0  0  0  0  0  0
  127.6190  131.1170   64.3520 O   0  0  0  0  0  0  0  0  0  0  0  0
  126.1410  131.0000   62.4810 C   0  0  0  0  0  0  0  0  0  0  0  0
  126.3230  132.4590   62.3630 N   0  0  0  0  0  0  0  0  0  0  0  0
  127.5820  132.8150   61.6910 C   0  0  0  0  0  0  0  0  0  0  0  0
  127.8490  134.3310   61.8310 C   0  0  0  0  0  0  0  0  0  0  0  0
  126.6160  135.1850   61.5350 C   0  0  0  0  0  0  0  0  0  0  0  0
  126.7240  136.5670   61.3470 C   0  0  0  0  0  0  0  0  0  0  0  0
  125.5960  137.3510   61.1160 C   0  0  0  0  0  0  0  0  0  0  0  0
  124.3390  136.7560   61.0650 C   0  0  0  0  0  0  0  0  0  0  0  0
  124.2180  135.3790   61.2410 C   0  0  0  0  0  0  0  0  0  0  0  0
  125.3430  134.5810   61.4760 C   0  0  0  0  0  0  0  0  0  0  0  0
  125.2160  133.0630   61.6110 C   0  0  0  0  0  0  0  0  0  0  0  0
  128.9130  127.0080   63.7860 S   0  0  0  0  0  0  0  0  0  0  0  0
  129.4460  126.5970   65.3990 C   0  0  0  0  0  0  0  0  0  0  0  0
  130.3930  125.4380   65.6210 C   0  0  0  0  0  0  0  0  0  0  0  0
  130.2750  127.7480   68.3590 C   0  0  0  0  0  0  0  0  0  0  0  0
  130.4520  127.7680   69.7430 C   0  0  0  0  0  0  0  0  0  0  0  0
  129.3480  127.6040   70.5900 C   0  0  0  0  0  0  0  0  0  0  0  0
  130.2320  126.1250   74.6070 C   0  0  0  0  0  0  0  0  0  0  0  0
  130.9170  125.2260   75.4200 C   0  0  0  0  0  0  0  0  0  0  0  0
  1  2  1  0
  2  3  2  0
  3  4  1  0
  4  5  2  0
  5  6  1  0
  6  7  2  0
  6  8  1  0
  8  9  1  0
  9 10  1  0
 10 11  1  0
 11 12  2  0
 12 13  1  0
 13 14  1  0
 14 15  1  0
 15 16  2  0
 16 17  1  0
 17 18  1  0
 18 19  2  0
 18 20  1  0
 20 21  1  0
 21 22  1  0
 22 23  1  0
 23 24  1  0
 24 25  2  0
 25 26  1  0
 26 27  2  0
 27 28  1  0
 28 29  2  0
 29 30  1  0
 16 31  1  0
 31 32  1  0
 32 33  1  0
 13 34  2  0
 34 35  1  0
 35 36  2  0
  5 37  1  0
 37 38  2  0
 38  2  1  0
 36  8  1  0
 36 11  1  0
 32 14  2  0
 30 21  1  0
 29 24  1  0
M  END
>  <Binding energies>  (45) 
[-10.29]

>  <Ligand effiencies>  (45) 
[-0.26384615384615384]

>  <Interactions>  (45) 
["V-B:HIS:456:CG:9037, H-A:LYS:547:NZ:4951, V-B:GLU:543:C:9874, V-A:GLU:543:CD:4908, V-A:GLU:543:C:4902, V-A:HIS:456:CE1:4070, V-B:GLY:544:C:9884, V-A:GLU:543:CB:4906, V-B:HIS:456:CE1:9041, V-A:GLY:544:C:4912, V-B:HIS:456:CD2:9039, V-B:GLU:543:CB:9878, V-A:HIS:456:CG:4066, V-B:GLY:544:CA:9886, V-A:HIS:456:CD2:4068, V-A:HIS:456:CB:4065, V-B:GLU:543:CG:9879, V-B:GLU:543:CD:9880, V-A:GLU:543:CG:4907, H-B:GLU:543:OE1:9881, V-A:TYR:539:CD1:4873, V-B:LEU:475:CD2:9230, V-A:ALA:541:CB:4892, V-B:ILE:369:CG2:8208, H-B:GLU:543:OE2:9882, V-A:TYR:539:CE1:4875, H-B:TYR:484:OH:9319, V-B:SER:385:CA:8378, V-B:HIS:383:CD2:8363, V-B:SER:385:CB:8380"]

$$$$
RR21_Rahimova_2017
     RDKit          3D

 40 45  0  0  0  0  0  0  0  0999 V2000
  129.2750  122.9670   61.7920 C   0  0  0  0  0  0  0  0  0  0  0  0
  130.2820  123.8270   62.3190 O   0  0  0  0  0  0  0  0  0  0  0  0
  129.9660  124.6790   63.3600 C   0  0  0  0  0  0  0  0  0  0  0  0
  129.4650  125.9810   63.1910 C   0  0  0  0  0  0  0  0  0  0  0  0
  129.1680  126.7770   64.2960 C   0  0  0  0  0  0  0  0  0  0  0  0
  129.3600  126.2940   65.5960 C   0  0  0  0  0  0  0  0  0  0  0  0
  129.0350  127.1490   66.7820 C   0  0  0  0  0  0  0  0  0  0  0  0
  129.1400  126.6500   67.9990 N   0  0  0  0  0  0  0  0  0  0  0  0
  128.7930  127.6290   68.8480 N   0  0  0  0  0  0  0  0  0  0  0  0
  128.8140  127.4330   70.2530 C   0  0  0  0  0  0  0  0  0  0  0  0
  129.9770  127.6900   70.9950 C   0  0  0  0  0  0  0  0  0  0  0  0
  129.9850  127.4990   72.3750 C   0  0  0  0  0  0  0  0  0  0  0  0
  128.8330  127.0500   73.0160 C   0  0  0  0  0  0  0  0  0  0  0  0
  127.6730  126.7890   72.2900 C   0  0  0  0  0  0  0  0  0  0  0  0
  127.6630  126.9790   70.9110 C   0  0  0  0  0  0  0  0  0  0  0  0
  128.4790  128.7700   68.1530 C   0  0  0  0  0  0  0  0  0  0  0  0
  128.6100  128.4970   66.7990 C   0  0  0  0  0  0  0  0  0  0  0  0
  128.4290  129.4060   65.6780 C   0  0  0  0  0  0  0  0  0  0  0  0
  127.2750  129.7750   65.0760 C   0  0  0  0  0  0  0  0  0  0  0  0
  125.6230  129.2500   65.4690 S   0  0  0  0  0  0  0  0  0  0  0  0
  125.0050  130.2880   64.1930 C   0  0  0  0  0  0  0  0  0  0  0  0
  123.7680  130.4750   63.8480 N   0  0  0  0  0  0  0  0  0  0  0  0
  123.3990  131.3600   62.7970 C   0  0  0  0  0  0  0  0  0  0  0  0
  122.2530  131.6070   62.4250 O   0  0  0  0  0  0  0  0  0  0  0  0
  124.5690  132.0290   62.1280 C   0  0  0  0  0  0  0  0  0  0  0  0
  124.2950  132.9910   60.9650 C   0  0  0  0  0  0  0  0  0  0  0  0
  125.0400  134.3210   61.0590 C   0  0  0  0  0  0  0  0  0  0  0  0
  124.3400  135.5250   60.9390 C   0  0  0  0  0  0  0  0  0  0  0  0
  125.0180  136.7370   61.0430 C   0  0  0  0  0  0  0  0  0  0  0  0
  126.3950  136.7490   61.2690 C   0  0  0  0  0  0  0  0  0  0  0  0
  127.1270  138.0730   61.3920 C   0  0  0  0  0  0  0  0  0  0  0  0
  127.0950  135.5470   61.4000 C   0  0  0  0  0  0  0  0  0  0  0  0
  126.4180  134.3350   61.2960 C   0  0  0  0  0  0  0  0  0  0  0  0
  125.7970  131.8280   62.4780 N   0  0  0  0  0  0  0  0  0  0  0  0
  126.0170  130.9390   63.5380 N   0  0  0  0  0  0  0  0  0  0  0  0
  127.2850  130.7080   63.9580 C   0  0  0  0  0  0  0  0  0  0  0  0
  128.2960  131.2210   63.4630 O   0  0  0  0  0  0  0  0  0  0  0  0
  129.8640  125.0000   65.7650 C   0  0  0  0  0  0  0  0  0  0  0  0
  130.1620  124.2020   64.6600 C   0  0  0  0  0  0  0  0  0  0  0  0
  130.6480  122.9550   64.8580 F   0  0  0  0  0  0  0  0  0  0  0  0
  1  2  1  0
  2  3  1  0
  3  4  2  0
  4  5  1  0
  5  6  2  0
  6  7  1  0
  7  8  2  0
  8  9  1  0
  9 10  1  0
 10 11  2  0
 11 12  1  0
 12 13  2  0
 13 14  1  0
 14 15  2  0
  9 16  1  0
 16 17  2  0
 17 18  1  0
 18 19  2  0
 19 20  1  0
 20 21  1  0
 21 22  2  0
 22 23  1  0
 23 24  2  0
 23 25  1  0
 25 26  1  0
 26 27  1  0
 27 28  2  0
 28 29  1  0
 29 30  2  0
 30 31  1  0
 30 32  1  0
 32 33  2  0
 25 34  2  0
 34 35  1  0
 35 36  1  0
 36 37  2  0
  6 38  1  0
 38 39  2  0
 39 40  1  0
 39  3  1  0
 17  7  1  0
 36 19  1  0
 15 10  1  0
 35 21  1  0
 33 27  1  0
M  END
>  <Binding energies>  (46) 
[-10.04]

>  <Ligand effiencies>  (46) 
[-0.251]

>  <Interactions>  (46) 
["V-B:GLU:543:C:9874, V-A:GLU:543:CD:4908, V-B:LYS:547:CE:9922, V-A:HIS:456:CE1:4070, V-B:GLY:544:C:9884, V-A:GLU:543:CB:4906, V-B:HIS:456:CE1:9041, V-B:HIS:456:CD2:9039, V-B:GLU:543:CB:9878, V-A:LEU:475:CD2:4259, V-B:GLY:544:CA:9886, V-A:HIS:456:CD2:4068, V-B:GLU:543:CG:9879, V-B:GLU:543:CD:9880, V-A:GLU:543:CG:4907, V-A:TYR:484:CE2:4346, V-A:TYR:484:CZ:4347, V-A:TYR:539:CD1:4873, V-B:GLY:454:CA:9020, V-B:LEU:475:CD2:9230, V-B:ILE:369:CG2:8208, V-A:TYR:539:CE1:4875, V-A:TYR:539:C:4867, H-B:GLY:454:N:9021, V-B:ARG:545:CZ:9898, V-B:HIS:383:CE1:8364, V-B:SER:385:CB:8380, V-A:TYR:539:CB:4871, V-B:GLY:453:C:9013"]

$$$$
RR23_Rahimova_2017
     RDKit          3D

 39 44  0  0  0  0  0  0  0  0999 V2000
  124.3090  124.0000   61.7160 C   0  0  0  0  0  0  0  0  0  0  0  0
  125.0880  123.7900   60.4300 C   0  0  0  0  0  0  0  0  0  0  0  0
  124.4670  123.9910   59.1970 C   0  0  0  0  0  0  0  0  0  0  0  0
  125.1850  123.8060   58.0180 C   0  0  0  0  0  0  0  0  0  0  0  0
  126.5260  123.4090   58.0630 C   0  0  0  0  0  0  0  0  0  0  0  0
  127.2940  123.2340   56.7730 C   0  0  0  0  0  0  0  0  0  0  0  0
  127.1510  122.1720   56.1620 O   0  0  0  0  0  0  0  0  0  0  0  0
  128.0950  124.2470   56.3270 N   0  0  0  0  0  0  0  0  0  0  0  0
  128.6240  124.2640   54.9530 C   0  0  0  0  0  0  0  0  0  0  0  0
  129.3350  125.5960   54.7850 C   0  0  0  0  0  0  0  0  0  0  0  0
  128.8340  126.3920   55.9510 C   0  0  0  0  0  0  0  0  0  0  0  0
  129.0750  127.7280   56.2720 C   0  0  0  0  0  0  0  0  0  0  0  0
  128.6440  128.2510   57.5010 C   0  0  0  0  0  0  0  0  0  0  0  0
  128.8880  129.7160   57.8930 C   0  0  2  0  0  0  0  0  0  0  0  0
  128.6230  129.9570   59.2960 N   0  0  0  0  0  0  0  0  0  0  0  0
  128.1870  131.1350   59.5000 C   0  0  0  0  0  0  0  0  0  0  0  0
  127.8100  131.6970   60.6800 N   0  0  0  0  0  0  0  0  0  0  0  0
  127.6770  131.1030   61.8900 C   0  0  0  0  0  0  0  0  0  0  0  0
  127.9210  129.9210   62.1400 O   0  0  0  0  0  0  0  0  0  0  0  0
  127.1700  132.0130   63.0220 C   0  0  0  0  0  0  0  0  0  0  0  0
  126.6930  133.2880   62.4420 N   0  0  0  0  0  0  0  0  0  0  0  0
  127.6790  134.2320   62.1850 N   0  0  0  0  0  0  0  0  0  0  0  0
  127.3930  135.3890   61.6780 N   0  0  0  0  0  0  0  0  0  0  0  0
  126.0660  135.7060   61.3780 C   0  0  0  0  0  0  0  0  0  0  0  0
  125.7900  136.9630   60.8350 C   0  0  0  0  0  0  0  0  0  0  0  0
  124.4740  137.3090   60.5250 C   0  0  0  0  0  0  0  0  0  0  0  0
  123.4360  136.4040   60.7570 C   0  0  0  0  0  0  0  0  0  0  0  0
  123.7090  135.1480   61.3010 C   0  0  0  0  0  0  0  0  0  0  0  0
  125.0300  134.8000   61.6100 C   0  0  0  0  0  0  0  0  0  0  0  0
  125.3460  133.4460   62.2020 C   0  0  0  0  0  0  0  0  0  0  0  0
  124.4920  132.5900   62.4520 O   0  0  0  0  0  0  0  0  0  0  0  0
  128.0240  132.1980   58.0720 S   0  0  0  0  0  0  0  0  0  0  0  0
  128.1400  130.7450   57.0130 C   0  0  2  0  0  0  0  0  0  0  0  0
  126.7240  130.3530   56.5410 C   0  0  0  0  0  0  0  0  0  0  0  0
  128.0130  127.3990   58.4140 C   0  0  0  0  0  0  0  0  0  0  0  0
  127.7910  126.0570   58.1020 C   0  0  0  0  0  0  0  0  0  0  0  0
  128.1520  125.5620   56.8420 C   0  0  0  0  0  0  0  0  0  0  0  0
  127.1510  123.2360   59.3060 C   0  0  0  0  0  0  0  0  0  0  0  0
  126.4330  123.4210   60.4840 C   0  0  0  0  0  0  0  0  0  0  0  0
  1  2  1  0
  2  3  2  0
  3  4  1  0
  4  5  2  0
  5  6  1  0
  6  7  2  0
  6  8  1  0
  8  9  1  0
  9 10  1  0
 10 11  1  0
 11 12  2  0
 12 13  1  0
 14 13  1  6
 14 15  1  0
 15 16  2  0
 16 17  1  0
 17 18  1  0
 18 19  2  0
 18 20  1  0
 20 21  1  0
 21 22  1  0
 22 23  2  0
 23 24  1  0
 24 25  2  0
 25 26  1  0
 26 27  2  0
 27 28  1  0
 28 29  2  0
 29 30  1  0
 30 31  2  0
 16 32  1  0
 32 33  1  0
 33 34  1  1
 13 35  2  0
 35 36  1  0
 36 37  2  0
  5 38  1  0
 38 39  2  0
 39  2  1  0
 37  8  1  0
 37 11  1  0
 33 14  1  0
 30 21  1  0
 29 24  1  0
M  END
>  <Binding energies>  (47) 
[-10.02]

>  <Ligand effiencies>  (47) 
[-0.2505]

>  <Interactions>  (47) 
["V-B:LEU:363:CA:8156, V-B:LEU:363:CD1:8160, V-B:ASN:362:C:8143, V-B:PRO:540:CB:9857, V-B:TYR:539:CZ:9849, V-B:TYR:539:CE1:9847, H-B:TYR:539:N:9842, V-B:PRO:540:CA:9855, V-B:ASN:362:CB:8147, V-A:TYR:539:CD1:4873, V-B:LEU:475:CD2:9230, V-B:ILE:369:CG2:8208, V-B:PRO:540:N:9856, V-A:TYR:539:CE1:4875, V-A:MET:535:CE:4835, V-A:TYR:539:CG:4872, V-B:SER:385:CA:8378, V-B:HIS:383:CD2:8363, V-B:SER:385:CB:8380, V-A:TYR:539:CB:4871, V-B:LEU:373:CD1:8251, V-B:MET:535:CG:9805"]

$$$$
RR26_Rahimova_2017
     RDKit          3D

 38 44  0  0  0  0  0  0  0  0999 V2000
  124.3620  123.9430   58.4960 C   0  0  0  0  0  0  0  0  0  0  0  0
  125.4850  123.3200   57.6760 C   0  0  0  0  0  0  0  0  0  0  0  0
  125.1530  122.6750   56.4790 C   0  0  0  0  0  0  0  0  0  0  0  0
  126.1430  122.1230   55.6700 C   0  0  0  0  0  0  0  0  0  0  0  0
  127.4790  122.2170   56.0470 C   0  0  0  0  0  0  0  0  0  0  0  0
  127.8230  122.8570   57.2360 C   0  0  0  0  0  0  0  0  0  0  0  0
  126.8390  123.4120   58.0690 C   0  0  0  0  0  0  0  0  0  0  0  0
  127.2940  124.0700   59.3390 C   0  0  0  0  0  0  0  0  0  0  0  0
  127.5600  123.3780   60.4430 N   0  0  0  0  0  0  0  0  0  0  0  0
  127.9230  124.3190   61.2720 C   0  0  0  0  0  0  0  0  0  0  0  0
  128.4350  124.3890   62.9170 S   0  0  0  0  0  0  0  0  0  0  0  0
  128.6000  126.1790   62.7660 C   0  0  0  0  0  0  0  0  0  0  0  0
  128.9880  127.0580   63.7160 C   0  0  0  0  0  0  0  0  0  0  0  0
  129.3740  126.7790   65.0910 C   0  0  0  0  0  0  0  0  0  0  0  0
  128.9060  127.3790   66.2500 C   0  0  0  0  0  0  0  0  0  0  0  0
  129.5170  126.7710   67.3160 N   0  0  0  0  0  0  0  0  0  0  0  0
  129.3480  127.0440   68.6980 C   0  0  0  0  0  0  0  0  0  0  0  0
  128.1490  126.7230   69.3520 C   0  0  0  0  0  0  0  0  0  0  0  0
  127.9950  127.0000   70.7080 C   0  0  0  0  0  0  0  0  0  0  0  0
  129.0380  127.5940   71.4140 C   0  0  0  0  0  0  0  0  0  0  0  0
  130.2350  127.9140   70.7780 C   0  0  0  0  0  0  0  0  0  0  0  0
  130.3910  127.6410   69.4220 C   0  0  0  0  0  0  0  0  0  0  0  0
  130.3320  125.7930   66.8900 N   0  0  0  0  0  0  0  0  0  0  0  0
  130.2610  125.7900   65.5740 C   0  0  0  0  0  0  0  0  0  0  0  0
  131.0710  124.8090   64.7850 C   0  0  0  0  0  0  0  0  0  0  0  0
  130.6930  123.4580   64.7290 C   0  0  0  0  0  0  0  0  0  0  0  0
  131.4440  122.5350   63.9990 C   0  0  0  0  0  0  0  0  0  0  0  0
  132.5840  122.9570   63.3190 C   0  0  0  0  0  0  0  0  0  0  0  0
  132.9620  124.3080   63.3520 C   0  0  0  0  0  0  0  0  0  0  0  0
  132.2140  125.2260   64.0860 C   0  0  0  0  0  0  0  0  0  0  0  0
  134.1080  124.7630   62.7300 O   0  0  0  0  0  0  0  0  0  0  0  0
  134.6130  123.8850   61.7180 C   0  0  0  0  0  0  0  0  0  0  0  0
  134.5990  122.4190   62.2150 C   0  0  0  0  0  0  0  0  0  0  0  0
  133.2700  122.0210   62.5710 O   0  0  0  0  0  0  0  0  0  0  0  0
  128.2430  126.6580   61.4340 C   0  0  0  0  0  0  0  0  0  0  0  0
  128.2390  127.8110   60.9970 O   0  0  0  0  0  0  0  0  0  0  0  0
  127.8810  125.5280   60.6840 N   0  0  0  0  0  0  0  0  0  0  0  0
  127.4770  125.3790   59.4190 N   0  0  0  0  0  0  0  0  0  0  0  0
  1  2  1  0
  2  3  2  0
  3  4  1  0
  4  5  2  0
  5  6  1  0
  6  7  2  0
  7  8  1  0
  8  9  1  0
  9 10  2  0
 10 11  1  0
 11 12  1  0
 12 13  2  0
 13 14  1  0
 14 15  2  0
 15 16  1  0
 16 17  1  0
 17 18  2  0
 18 19  1  0
 19 20  2  0
 20 21  1  0
 21 22  2  0
 16 23  1  0
 23 24  2  0
 24 25  1  0
 25 26  2  0
 26 27  1  0
 27 28  2  0
 28 29  1  0
 29 30  2  0
 29 31  1  0
 31 32  1  0
 32 33  1  0
 33 34  1  0
 12 35  1  0
 35 36  2  0
 35 37  1  0
 37 38  1  0
  7  2  1  0
 38  8  2  0
 37 10  1  0
 24 14  1  0
 30 25  1  0
 22 17  1  0
 34 28  1  0
M  END
>  <Binding energies>  (48) 
[-9.64]

>  <Ligand effiencies>  (48) 
[-0.2536842105263158]

>  <Interactions>  (48) 
["V-B:GLU:543:C:9874, V-A:GLU:543:CD:4908, V-A:GLU:543:C:4902, V-A:HIS:456:CE1:4070, V-A:GLU:543:CB:4906, V-B:HIS:456:CE1:9041, V-B:GLU:543:CB:9878, V-B:TYR:539:CE2:9848, V-B:LEU:363:CA:8156, V-B:LEU:363:CD1:8160, V-A:LEU:475:CD2:4259, V-B:MET:535:CE:9807, V-B:PRO:540:CB:9857, V-B:LEU:363:CB:8158, V-B:TYR:539:CZ:9849, V-B:TYR:539:CD2:9846, V-B:TYR:539:CG:9844, V-B:TYR:539:CE1:9847, V-B:PRO:540:CA:9855, V-B:GLU:543:CG:9879, V-B:GLU:543:CD:9880, V-A:TYR:484:CE2:4346, V-A:TYR:484:CZ:4347, V-A:ILE:369:CD1:3239, H-A:ARG:545:NH2:4928, V-B:PRO:540:N:9856, V-B:TYR:539:CD1:9845, V-B:TYR:539:C:9839, V-B:PRO:540:CD:9859, V-A:ARG:545:CZ:4926, H-A:GLY:454:N:4050, H-A:ARG:545:NH1:4927, V-A:GLY:453:C:4042, V-A:GLY:454:CA:4049, V-B:ILE:538:CA:9832, V-B:TYR:539:CA:9841, V-B:ILE:538:C:9830, V-B:ILE:538:CG2:9835, V-A:SER:385:C:3405, V-B:ILE:538:CB:9834"]

$$$$
RR2_Rahimova_2017
     RDKit          3D

 46 50  0  0  0  0  0  0  0  0999 V2000
  122.8390  131.9390   62.1630 C   0  0  0  0  0  0  0  0  0  0  0  0
  124.1160  132.0700   61.5480 O   0  0  0  0  0  0  0  0  0  0  0  0
  124.6350  131.0040   60.8360 C   0  0  0  0  0  0  0  0  0  0  0  0
  125.3800  129.9610   61.4030 C   0  0  0  0  0  0  0  0  0  0  0  0
  125.8660  128.9300   60.6050 C   0  0  0  0  0  0  0  0  0  0  0  0
  125.6220  128.9170   59.2240 C   0  0  0  0  0  0  0  0  0  0  0  0
  126.1680  127.7850   58.3760 C   0  0  0  0  0  0  0  0  0  0  0  0
  127.1290  127.9790   57.6230 O   0  0  0  0  0  0  0  0  0  0  0  0
  125.5310  126.5970   58.4960 N   0  0  0  0  0  0  0  0  0  0  0  0
  125.9330  125.5510   57.6720 N   0  0  0  0  0  0  0  0  0  0  0  0
  125.2280  124.4020   57.7120 C   0  0  0  0  0  0  0  0  0  0  0  0
  124.3610  124.1340   58.5490 O   0  0  0  0  0  0  0  0  0  0  0  0
  125.5470  123.3920   56.6010 C   0  0  0  0  0  0  0  0  0  0  0  0
  127.3010  122.8790   56.5000 S   0  0  0  0  0  0  0  0  0  0  0  0
  128.1090  124.4270   56.7770 C   0  0  0  0  0  0  0  0  0  0  0  0
  128.4550  125.2340   55.8060 N   0  0  0  0  0  0  0  0  0  0  0  0
  129.1250  126.3080   56.3760 N   0  0  0  0  0  0  0  0  0  0  0  0
  129.1320  126.1240   57.6750 C   0  0  0  0  0  0  0  0  0  0  0  0
  129.7510  127.0850   58.6380 C   0  0  0  0  0  0  0  0  0  0  0  0
  130.9190  127.7650   58.2850 C   0  0  0  0  0  0  0  0  0  0  0  0
  131.5070  128.6560   59.1770 C   0  0  0  0  0  0  0  0  0  0  0  0
  130.9220  128.8880   60.4270 C   0  0  0  0  0  0  0  0  0  0  0  0
  131.4760  129.7660   61.3710 N   0  0  0  0  0  0  0  0  0  0  0  0
  131.8020  131.4900   61.0800 S   0  0  0  0  0  0  0  0  0  0  0  0
  133.2170  131.5740   60.6990 O   0  0  0  0  0  0  0  0  0  0  0  0
  131.2850  132.2500   62.2240 O   0  0  0  0  0  0  0  0  0  0  0  0
  130.8490  131.9080   59.6220 C   0  0  0  0  0  0  0  0  0  0  0  0
  131.4580  131.9660   58.3670 C   0  0  0  0  0  0  0  0  0  0  0  0
  130.7030  132.3080   57.2480 C   0  0  0  0  0  0  0  0  0  0  0  0
  129.3410  132.5850   57.3840 C   0  0  0  0  0  0  0  0  0  0  0  0
  128.5220  132.9730   56.1660 C   0  0  0  0  0  0  0  0  0  0  0  0
  128.7360  132.5300   58.6420 C   0  0  0  0  0  0  0  0  0  0  0  0
  129.4900  132.1890   59.7610 C   0  0  0  0  0  0  0  0  0  0  0  0
  129.7540  128.2100   60.7770 C   0  0  0  0  0  0  0  0  0  0  0  0
  129.1680  127.3140   59.8870 C   0  0  0  0  0  0  0  0  0  0  0  0
  128.5010  124.9350   58.0010 N   0  0  0  0  0  0  0  0  0  0  0  0
  128.3350  124.3510   59.2750 C   0  0  0  0  0  0  0  0  0  0  0  0
  129.2000  123.3400   59.6960 C   0  0  0  0  0  0  0  0  0  0  0  0
  129.0330  122.7720   60.9560 C   0  0  0  0  0  0  0  0  0  0  0  0
  128.0090  123.2030   61.8000 C   0  0  0  0  0  0  0  0  0  0  0  0
  127.9220  122.5790   63.0290 O   0  0  0  0  0  0  0  0  0  0  0  0
  129.0010  122.7040   63.9500 C   0  0  0  0  0  0  0  0  0  0  0  0
  127.1430  124.2210   61.3670 C   0  0  0  0  0  0  0  0  0  0  0  0
  127.3070  124.7940   60.1100 C   0  0  0  0  0  0  0  0  0  0  0  0
  124.8700  129.9610   58.6650 C   0  0  0  0  0  0  0  0  0  0  0  0
  124.3840  130.9910   59.4660 C   0  0  0  0  0  0  0  0  0  0  0  0
  1  2  1  0
  2  3  1  0
  3  4  2  0
  4  5  1  0
  5  6  2  0
  6  7  1  0
  7  8  2  0
  7  9  1  0
  9 10  1  0
 10 11  1  0
 11 12  2  0
 11 13  1  0
 13 14  1  0
 14 15  1  0
 15 16  2  0
 16 17  1  0
 17 18  2  0
 18 19  1  0
 19 20  2  0
 20 21  1  0
 21 22  2  0
 22 23  1  0
 23 24  1  0
 24 25  2  0
 24 26  2  0
 24 27  1  0
 27 28  2  0
 28 29  1  0
 29 30  2  0
 30 31  1  0
 30 32  1  0
 32 33  2  0
 22 34  1  0
 34 35  2  0
 18 36  1  0
 36 37  1  0
 37 38  2  0
 38 39  1  0
 39 40  2  0
 40 41  1  0
 41 42  1  0
 40 43  1  0
 43 44  2  0
  6 45  1  0
 45 46  2  0
 46  3  1  0
 36 15  1  0
 44 37  1  0
 35 19  1  0
 33 27  1  0
M  END
>  <Binding energies>  (49) 
[-10.09]

>  <Ligand effiencies>  (49) 
[-0.20591836734693877]

>  <Interactions>  (49) 
["V-A:GLU:543:CD:4908, V-B:TYR:539:CE2:9848, H-B:TYR:539:OH:9850, V-B:LEU:363:CD1:8160, V-B:MET:535:CE:9807, V-B:ASP:366:CB:8183, H-B:ALA:541:N:9863, V-B:ASP:366:CG:8184, V-B:TYR:539:CZ:9849, V-B:TYR:539:CD2:9846, V-B:TYR:539:CE1:9847, V-B:TYR:531:CE2:9765, V-B:GLU:543:CG:9879, V-B:GLU:543:CD:9880, V-B:ALA:541:CB:9864, V-A:TYR:539:CD1:4873, V-B:GLY:454:CA:9020, H-A:GLU:543:OE1:4909, V-A:PRO:540:CA:4883, V-B:ILE:369:CG2:8208, V-A:PRO:540:CB:4885, H-A:ASP:366:OD2:3215, V-A:ASP:366:CB:3212, V-B:ILE:369:CG1:8209, V-A:TYR:539:CE1:4875, H-A:TYR:531:OH:4795, H-B:MET:535:SD:9806, V-A:MET:535:CE:4835, H-B:TYR:531:OH:9767, V-A:ASP:366:CG:3213, V-B:ASP:366:CA:8181, H-A:ALA:541:N:4891, V-B:TYR:531:CZ:9766, H-B:ASP:366:OD1:8185, V-A:ILE:538:CA:4860, V-A:TYR:539:CZ:4877, V-A:TYR:539:CG:4872, V-A:TYR:539:CE2:4876, H-B:ASP:366:OD2:8186, V-B:GLY:453:C:9013, V-A:TYR:539:CD2:4874"]

$$$$
RR33_Rahimova_2017
     RDKit          3D

 18 19  0  0  0  0  0  0  0  0999 V2000
  129.1450  138.6220   61.7350 C   0  0  0  0  0  0  0  0  0  0  0  0
  127.9320  138.8000   62.6540 C   0  0  0  0  0  0  0  0  0  0  0  0
  126.7470  138.7280   61.8660 O   0  0  0  0  0  0  0  0  0  0  0  0
  126.1460  137.5020   61.6540 C   0  0  0  0  0  0  0  0  0  0  0  0
  126.9930  136.3970   61.5930 C   0  0  0  0  0  0  0  0  0  0  0  0
  126.4790  135.1210   61.3800 C   0  0  0  0  0  0  0  0  0  0  0  0
  125.1020  134.9320   61.2240 C   0  0  0  0  0  0  0  0  0  0  0  0
  124.5510  133.5610   60.9950 C   0  0  0  0  0  0  0  0  0  0  0  0
  124.5080  132.8930   59.8640 N   0  0  0  0  0  0  0  0  0  0  0  0
  123.9350  131.7370   60.1620 C   0  0  0  0  0  0  0  0  0  0  0  0
  123.7190  130.6790   59.1020 C   0  0  0  0  0  0  0  0  0  0  0  0
  123.6710  131.2810   57.7780 N   0  0  0  0  0  0  0  0  0  0  0  0
  124.7300  130.7510   56.9340 C   0  0  0  0  0  0  0  0  0  0  0  0
  123.6230  131.7070   61.5160 C   0  0  0  0  0  0  0  0  0  0  0  0
  122.9830  130.7070   62.4480 C   0  0  0  0  0  0  0  0  0  0  0  0
  124.0210  132.8860   62.0470 O   0  0  0  0  0  0  0  0  0  0  0  0
  124.2480  136.0370   61.2890 C   0  0  0  0  0  0  0  0  0  0  0  0
  124.7630  137.3140   61.5020 C   0  0  0  0  0  0  0  0  0  0  0  0
  1  2  1  0
  2  3  1  0
  3  4  1  0
  4  5  2  0
  5  6  1  0
  6  7  2  0
  7  8  1  0
  8  9  2  0
  9 10  1  0
 10 11  1  0
 11 12  1  0
 12 13  1  0
 10 14  2  0
 14 15  1  0
 14 16  1  0
  7 17  1  0
 17 18  2  0
 18  4  1  0
 16  8  1  0
M  END
>  <Binding energies>  (50) 
[-5.01]

>  <Ligand effiencies>  (50) 
[-0.2636842105263158]

>  <Interactions>  (50) 
["V-B:ASP:366:CB:8183, V-B:ASP:366:CG:8184, V-A:TYR:539:CD1:4873, V-B:LEU:475:CD2:9230, V-B:ILE:369:CG2:8208, V-B:ILE:369:CG1:8209, V-A:TYR:539:CE1:4875, V-A:TYR:539:C:4867, V-B:ILE:369:CB:8207, V-A:PRO:540:C:4881, V-B:ASP:366:CA:8181, V-B:TYR:531:CZ:9766, V-A:TYR:539:CZ:4877, V-B:LEU:475:CG:9228, V-B:PRO:482:CB:9297, V-B:LEU:475:CD1:9229, V-B:SER:385:CA:8378, V-B:HIS:383:CD2:8363, V-A:VAL:344:CG1:3001, V-B:ASP:366:C:8179, V-B:SER:385:CB:8380, V-B:GLY:453:C:9013, H-B:ASP:366:O:8180, H-A:TYR:539:OH:4878, H-B:HIS:383:NE2:8365, V-B:TYR:531:CE1:9764, V-B:GLY:453:CA:9015, V-A:VAL:344:CB:3000, V-A:VAL:344:CG2:3002, V-B:PRO:482:CG:9298"]

$$$$
RR3_Rahimova_2017
     RDKit          3D

 38 44  0  0  0  0  0  0  0  0999 V2000
  129.4970  126.8210   72.2080 C   0  0  0  0  0  0  0  0  0  0  0  0
  128.2610  126.5870   71.6130 C   0  0  0  0  0  0  0  0  0  0  0  0
  127.9920  127.1120   70.3530 C   0  0  0  0  0  0  0  0  0  0  0  0
  128.9510  127.8750   69.6710 C   0  0  0  0  0  0  0  0  0  0  0  0
  128.6610  128.4390   68.3150 C   0  0  0  0  0  0  0  0  0  0  0  0
  128.5180  127.5990   67.2010 C   0  0  0  0  0  0  0  0  0  0  0  0
  128.2510  128.1240   65.9400 C   0  0  0  0  0  0  0  0  0  0  0  0
  128.1280  129.5040   65.7610 C   0  0  0  0  0  0  0  0  0  0  0  0
  127.8470  130.0750   64.4070 C   0  0  0  0  0  0  0  0  0  0  0  0
  127.4990  131.3510   64.2820 N   0  0  0  0  0  0  0  0  0  0  0  0
  127.3620  131.5790   62.9990 C   0  0  0  0  0  0  0  0  0  0  0  0
  126.9840  132.8600   62.4070 C   0  0  0  0  0  0  0  0  0  0  0  0
  127.8530  133.7790   61.8430 C   0  0  0  0  0  0  0  0  0  0  0  0
  127.1570  134.8640   61.3770 N   0  0  0  0  0  0  0  0  0  0  0  0
  125.8110  134.6970   61.6200 C   0  0  0  0  0  0  0  0  0  0  0  0
  124.7210  135.5250   61.3320 C   0  0  0  0  0  0  0  0  0  0  0  0
  123.4600  135.0680   61.7130 C   0  0  0  0  0  0  0  0  0  0  0  0
  123.2850  133.8450   62.3520 C   0  0  0  0  0  0  0  0  0  0  0  0
  124.3710  133.0190   62.6390 C   0  0  0  0  0  0  0  0  0  0  0  0
  125.6650  133.4340   62.2760 C   0  0  0  0  0  0  0  0  0  0  0  0
  127.6130  130.4490   62.2720 N   0  0  0  0  0  0  0  0  0  0  0  0
  127.9100  129.4420   63.1540 C   0  0  0  0  0  0  0  0  0  0  0  0
  128.1830  128.0390   62.7210 C   0  0  0  0  0  0  0  0  0  0  0  0
  127.3390  127.4120   61.8030 C   0  0  0  0  0  0  0  0  0  0  0  0
  127.5820  126.1010   61.4070 C   0  0  0  0  0  0  0  0  0  0  0  0
  128.6760  125.3860   61.9150 C   0  0  0  0  0  0  0  0  0  0  0  0
  128.9240  123.9700   61.5020 C   0  0  0  0  0  0  0  0  0  0  0  0
  129.6740  123.1040   62.3130 C   0  0  0  0  0  0  0  0  0  0  0  0
  129.9000  121.7840   61.9300 C   0  0  0  0  0  0  0  0  0  0  0  0
  129.3770  121.3150   60.7300 C   0  0  0  0  0  0  0  0  0  0  0  0
  128.6300  122.1550   59.9110 C   0  0  0  0  0  0  0  0  0  0  0  0
  128.4070  123.4740   60.2960 C   0  0  0  0  0  0  0  0  0  0  0  0
  129.5270  126.0330   62.8230 C   0  0  0  0  0  0  0  0  0  0  0  0
  129.2860  127.3440   63.2220 C   0  0  0  0  0  0  0  0  0  0  0  0
  128.2560  130.3480   66.8660 C   0  0  0  0  0  0  0  0  0  0  0  0
  128.5230  129.8200   68.1270 C   0  0  0  0  0  0  0  0  0  0  0  0
  130.1900  128.0990   70.2900 C   0  0  0  0  0  0  0  0  0  0  0  0
  130.4640  127.5750   71.5500 C   0  0  0  0  0  0  0  0  0  0  0  0
  1  2  2  0
  2  3  1  0
  3  4  2  0
  4  5  1  0
  5  6  2  0
  6  7  1  0
  7  8  2  0
  8  9  1  0
  9 10  1  0
 10 11  2  0
 11 12  1  0
 12 13  2  0
 13 14  1  0
 14 15  1  0
 15 16  2  0
 16 17  1  0
 17 18  2  0
 18 19  1  0
 19 20  2  0
 11 21  1  0
 21 22  1  0
 22 23  1  0
 23 24  2  0
 24 25  1  0
 25 26  2  0
 26 27  1  0
 27 28  2  0
 28 29  1  0
 29 30  2  0
 30 31  1  0
 31 32  2  0
 26 33  1  0
 33 34  2  0
  8 35  1  0
 35 36  2  0
  4 37  1  0
 37 38  2  0
 38  1  1  0
 36  5  1  0
 22  9  2  0
 34 23  1  0
 20 12  1  0
 32 27  1  0
 20 15  1  0
M  END
>  <Binding energies>  (51) 
[-9.87]

>  <Ligand effiencies>  (51) 
[-0.24674999999999997]

>  <Interactions>  (51) 
["V-B:GLU:543:C:9874, V-A:GLU:543:CD:4908, V-A:GLU:543:C:4902, V-A:HIS:456:CE1:4070, V-A:GLU:543:CB:4906, V-B:HIS:456:CE1:9041, V-A:GLY:544:C:4912, V-B:GLU:543:CB:9878, V-B:TYR:539:CE2:9848, V-A:LEU:475:CD2:4259, V-B:TYR:539:CD2:9846, V-B:PRO:540:CA:9855, V-B:TYR:484:CE2:9317, V-A:HIS:456:CD2:4068, V-B:TYR:484:CZ:9318, V-B:GLU:543:CD:9880, V-A:GLU:543:CG:4907, V-A:GLU:543:CA:4904, V-B:ALA:541:CB:9864, V-A:TYR:539:CD1:4873, V-B:GLY:454:CA:9020, V-B:LEU:475:CD2:9230, V-A:ALA:541:CB:4892, V-B:ILE:369:CG2:8208, V-B:PRO:540:N:9856, V-B:ILE:369:CG1:8209, V-A:TYR:539:CE1:4875, V-A:TYR:539:C:4867, V-B:TYR:539:C:9839, H-B:TYR:484:OH:9319, H-A:TYR:539:O:4868, V-B:SER:385:CA:8378, V-B:SER:385:CB:8380, V-B:SER:385:C:8376"]

$$$$
RR4_Rahimova_2017
     RDKit          3D

 40 44  0  0  0  0  0  0  0  0999 V2000
  128.3200  128.7090   74.0180 C   0  0  0  0  0  0  0  0  0  0  0  0
  128.2810  127.4420   73.3730 O   0  0  0  0  0  0  0  0  0  0  0  0
  128.5160  127.3700   72.0130 C   0  0  0  0  0  0  0  0  0  0  0  0
  127.4330  127.0250   71.2080 C   0  0  0  0  0  0  0  0  0  0  0  0
  127.5760  126.9300   69.8270 C   0  0  0  0  0  0  0  0  0  0  0  0
  128.8120  127.1740   69.2090 C   0  0  0  0  0  0  0  0  0  0  0  0
  128.9630  127.0700   67.7190 C   0  0  0  0  0  0  0  0  0  0  0  0
  129.8420  126.1690   67.1080 C   0  0  0  0  0  0  0  0  0  0  0  0
  129.9440  126.1060   65.7120 C   0  0  0  0  0  0  0  0  0  0  0  0
  130.8830  125.1000   65.1310 C   0  0  0  0  0  0  0  0  0  0  0  0
  130.4150  123.8360   64.7590 C   0  0  0  0  0  0  0  0  0  0  0  0
  131.2810  122.8960   64.2060 C   0  0  0  0  0  0  0  0  0  0  0  0
  132.6260  123.2030   64.0070 C   0  0  0  0  0  0  0  0  0  0  0  0
  133.4090  122.2090   63.4520 O   0  0  0  0  0  0  0  0  0  0  0  0
  133.7930  122.3090   62.0840 C   0  0  0  0  0  0  0  0  0  0  0  0
  133.0990  124.4720   64.3740 C   0  0  0  0  0  0  0  0  0  0  0  0
  132.2320  125.4100   64.9270 C   0  0  0  0  0  0  0  0  0  0  0  0
  129.1600  126.9960   64.9370 C   0  0  0  0  0  0  0  0  0  0  0  0
  129.2270  126.9710   63.4730 C   0  0  0  0  0  0  0  0  0  0  0  0
  129.2810  126.9530   62.3180 N   0  0  0  0  0  0  0  0  0  0  0  0
  128.3150  127.9000   65.6210 C   0  0  0  0  0  0  0  0  0  0  0  0
  127.2710  129.0930   64.8120 S   0  0  0  0  0  0  0  0  0  0  0  0
  128.3500  130.2760   63.9390 C   0  0  0  0  0  0  0  0  0  0  0  0
  127.7770  131.6950   63.8210 C   0  0  0  0  0  0  0  0  0  0  0  0
  127.9090  132.5020   64.7440 O   0  0  0  0  0  0  0  0  0  0  0  0
  127.1310  131.9500   62.6600 N   0  0  0  0  0  0  0  0  0  0  0  0
  126.5090  133.1330   62.2540 C   0  0  0  0  0  0  0  0  0  0  0  0
  127.3970  134.5410   61.7340 S   0  0  0  0  0  0  0  0  0  0  0  0
  125.9320  135.4320   61.4590 C   0  0  0  0  0  0  0  0  0  0  0  0
  124.7960  134.6650   61.7630 C   0  0  0  0  0  0  0  0  0  0  0  0
  125.1250  133.3590   62.1980 C   0  0  0  0  0  0  0  0  0  0  0  0
  124.1270  132.3560   62.5580 C   0  0  0  0  0  0  0  0  0  0  0  0
  123.3350  131.5620   62.8440 N   0  0  0  0  0  0  0  0  0  0  0  0
  123.3790  135.2170   61.5660 C   0  0  0  0  0  0  0  0  0  0  0  0
  123.4020  136.4690   60.6600 C   0  0  0  0  0  0  0  0  0  0  0  0
  124.5130  137.4550   61.0620 C   0  0  0  0  0  0  0  0  0  0  0  0
  125.9200  136.8450   60.8880 C   0  0  0  0  0  0  0  0  0  0  0  0
  128.2110  127.9170   66.9710 N   0  0  0  0  0  0  0  0  0  0  0  0
  129.8960  127.5250   70.0290 C   0  0  0  0  0  0  0  0  0  0  0  0
  129.7560  127.6210   71.4100 C   0  0  0  0  0  0  0  0  0  0  0  0
  1  2  1  0
  2  3  1  0
  3  4  2  0
  4  5  1  0
  5  6  2  0
  6  7  1  0
  7  8  2  0
  8  9  1  0
  9 10  1  0
 10 11  2  0
 11 12  1  0
 12 13  2  0
 13 14  1  0
 14 15  1  0
 13 16  1  0
 16 17  2  0
  9 18  2  0
 18 19  1  0
 19 20  3  0
 18 21  1  0
 21 22  1  0
 22 23  1  0
 23 24  1  0
 24 25  2  0
 24 26  1  0
 26 27  1  0
 27 28  1  0
 28 29  1  0
 29 30  2  0
 30 31  1  0
 31 32  1  0
 32 33  3  0
 30 34  1  0
 34 35  1  0
 35 36  1  0
 36 37  1  0
 21 38  2  0
  6 39  1  0
 39 40  2  0
 40  3  1  0
 38  7  1  0
 17 10  1  0
 31 27  2  0
 37 29  1  0
M  END
>  <Binding energies>  (52) 
[-11.03]

>  <Ligand effiencies>  (52) 
[-0.2690243902439024]

>  <Interactions>  (52) 
["V-B:GLU:543:C:9874, V-A:GLU:543:CD:4908, V-A:HIS:456:CE1:4070, V-B:GLY:544:C:9884, V-B:HIS:456:CE1:9041, V-B:HIS:456:CD2:9039, V-B:GLU:543:CB:9878, V-A:LEU:475:CD2:4259, H-B:LYS:547:NZ:9923, V-B:GLY:544:CA:9886, V-B:GLU:543:CG:9879, V-B:GLU:543:CD:9880, V-A:GLU:543:CG:4907, V-A:TYR:484:CE2:4346, V-A:TYR:484:CZ:4347, V-A:ILE:369:CD1:3239, V-A:TYR:539:CD1:4873, V-B:GLY:454:CA:9020, V-B:LEU:475:CD2:9230, V-B:ILE:369:CG2:8208, V-A:TYR:539:CE1:4875, H-B:TYR:484:OH:9319, H-B:GLY:454:N:9021, V-A:ARG:545:CZ:4926, H-A:GLY:454:N:4050, H-A:TYR:484:OH:4348, V-A:GLY:454:CA:4049, V-A:TYR:539:CG:4872, V-B:SER:385:CA:8378, V-B:HIS:383:CD2:8363, V-B:SER:385:CB:8380, V-A:TYR:539:CB:4871, V-B:LEU:373:CD1:8251, V-B:SER:385:C:8376"]

$$$$
RR6_Rahimova_2017
     RDKit          3D

 38 41  0  0  0  0  0  0  0  0999 V2000
  123.7400  129.8700   66.1870 C   0  0  0  0  0  0  0  0  0  0  0  0
  123.8860  129.9760   64.7780 O   0  0  0  0  0  0  0  0  0  0  0  0
  125.0770  129.7170   64.1780 C   0  0  0  0  0  0  0  0  0  0  0  0
  126.0810  129.3460   64.7930 O   0  0  0  0  0  0  0  0  0  0  0  0
  125.0500  129.9270   62.6910 C   0  0  0  0  0  0  0  0  0  0  0  0
  124.0810  130.7280   62.0710 C   0  0  0  0  0  0  0  0  0  0  0  0
  124.0780  130.8960   60.6880 C   0  0  0  0  0  0  0  0  0  0  0  0
  125.0480  130.2590   59.9000 C   0  0  0  0  0  0  0  0  0  0  0  0
  125.1210  130.3380   58.4970 N   0  0  0  0  0  0  0  0  0  0  0  0
  124.3850  131.0820   57.6420 C   0  0  0  0  0  0  0  0  0  0  0  0
  123.4900  131.8640   57.9640 O   0  0  0  0  0  0  0  0  0  0  0  0
  124.6770  130.8630   56.1540 C   0  0  0  0  0  0  0  0  0  0  0  0
  126.3370  131.4190   55.6420 S   0  0  0  0  0  0  0  0  0  0  0  0
  127.5100  130.4700   56.5870 C   0  0  0  0  0  0  0  0  0  0  0  0
  127.2610  129.1390   56.6100 N   0  0  0  0  0  0  0  0  0  0  0  0
  128.1030  128.3080   57.2750 C   0  0  0  0  0  0  0  0  0  0  0  0
  127.7910  126.8420   57.2000 C   0  0  0  0  0  0  0  0  0  0  0  0
  126.7430  126.2870   57.9520 C   0  0  0  0  0  0  0  0  0  0  0  0
  126.4610  124.9250   57.8930 C   0  0  0  0  0  0  0  0  0  0  0  0
  127.2210  124.0910   57.0740 C   0  0  0  0  0  0  0  0  0  0  0  0
  126.9170  122.6050   57.0200 C   0  0  0  0  0  0  0  0  0  0  0  0
  128.2640  124.6220   56.3190 C   0  0  0  0  0  0  0  0  0  0  0  0
  128.5410  125.9840   56.3810 C   0  0  0  0  0  0  0  0  0  0  0  0
  129.2210  128.8110   57.9490 C   0  0  0  0  0  0  0  0  0  0  0  0
  129.4970  130.1860   57.9430 C   0  0  0  0  0  0  0  0  0  0  0  0
  130.7170  130.6530   58.6670 C   0  0  0  0  0  0  0  0  0  0  0  0
  130.6400  131.0060   60.0180 C   0  0  0  0  0  0  0  0  0  0  0  0
  131.7760  131.4280   60.7050 C   0  0  0  0  0  0  0  0  0  0  0  0
  133.0090  131.4990   60.0580 C   0  0  0  0  0  0  0  0  0  0  0  0
  134.0800  131.9250   60.8190 O   0  0  0  0  0  0  0  0  0  0  0  0
  133.8340  132.5880   62.0540 C   0  0  0  0  0  0  0  0  0  0  0  0
  133.0920  131.1400   58.7040 C   0  0  0  0  0  0  0  0  0  0  0  0
  131.9550  130.7190   58.0210 C   0  0  0  0  0  0  0  0  0  0  0  0
  128.6140  131.0470   57.2470 C   0  0  0  0  0  0  0  0  0  0  0  0
  128.8290  132.4980   57.2250 C   0  0  0  0  0  0  0  0  0  0  0  0
  128.9990  133.6420   57.2070 N   0  0  0  0  0  0  0  0  0  0  0  0
  126.0250  129.4750   60.5150 C   0  0  0  0  0  0  0  0  0  0  0  0
  126.0230  129.3060   61.8980 C   0  0  0  0  0  0  0  0  0  0  0  0
  1  2  1  0
  2  3  1  0
  3  4  2  0
  3  5  1  0
  5  6  2  0
  6  7  1  0
  7  8  2  0
  8  9  1  0
  9 10  1  0
 10 11  2  0
 10 12  1  0
 12 13  1  0
 13 14  1  0
 14 15  2  0
 15 16  1  0
 16 17  1  0
 17 18  2  0
 18 19  1  0
 19 20  2  0
 20 21  1  0
 20 22  1  0
 22 23  2  0
 16 24  2  0
 24 25  1  0
 25 26  1  0
 26 27  2  0
 27 28  1  0
 28 29  2  0
 29 30  1  0
 30 31  1  0
 29 32  1  0
 32 33  2  0
 25 34  2  0
 34 35  1  0
 35 36  3  0
  8 37  1  0
 37 38  2  0
 38  5  1  0
 34 14  1  0
 23 17  1  0
 33 26  1  0
M  END
>  <Binding energies>  (53) 
[-9.71]

>  <Ligand effiencies>  (53) 
[-0.248974358974359]

>  <Interactions>  (53) 
["V-B:ASP:366:CB:8183, V-B:ASP:366:CG:8184, V-B:TYR:539:CZ:9849, V-B:TYR:539:CE1:9847, V-B:PRO:540:CA:9855, V-B:ARG:545:CG:9894, V-A:TYR:539:CD1:4873, V-B:GLY:454:CA:9020, V-A:LEU:363:CD1:3189, V-A:PRO:540:CA:4883, V-A:PRO:540:CB:4885, V-A:ASP:366:CB:3212, H-B:ARG:545:NH2:9900, V-B:PRO:540:N:9856, V-A:TYR:539:CE1:4875, H-A:TYR:539:N:4870, V-B:TYR:539:C:9839, H-B:TYR:484:OH:9319, V-B:PRO:540:CD:9859, V-A:MET:535:CE:4835, H-B:TYR:531:OH:9767, H-B:GLY:454:N:9021, V-A:ASP:366:CG:3213, V-A:PRO:540:C:4881, V-B:TYR:531:CZ:9766, V-B:ARG:545:CZ:9898, H-B:ARG:545:NE:9896, V-A:TYR:539:CZ:4877, H-A:LEU:363:N:3186, V-A:ALA:541:C:4888, V-B:ARG:545:CD:9895, V-B:GLY:453:C:9013, H-A:TYR:539:OH:4878, V-A:ASN:362:CB:3176, V-A:ASN:362:C:3172, V-A:LEU:363:CA:3185, V-B:TYR:531:CE1:9764, V-B:GLY:454:C:9018"]

$$$$
RR7_Rahimova_2017
     RDKit          3D

 47 53  0  0  0  0  0  0  0  0999 V2000
  125.1820  129.9090   62.4750 C   0  0  0  0  0  0  0  0  0  0  0  0
  126.0750  129.8660   61.3660 O   0  0  0  0  0  0  0  0  0  0  0  0
  126.5190  128.6410   60.9060 C   0  0  0  0  0  0  0  0  0  0  0  0
  126.1010  128.2650   59.6310 C   0  0  0  0  0  0  0  0  0  0  0  0
  126.5010  127.0520   59.0820 C   0  0  0  0  0  0  0  0  0  0  0  0
  127.3250  126.1750   59.8040 C   0  0  0  0  0  0  0  0  0  0  0  0
  127.8160  124.8230   59.2000 C   0  0  0  0  0  0  0  0  0  0  0  0
  128.9670  125.1360   58.3840 O   0  0  0  0  0  0  0  0  0  0  0  0
  128.8790  126.1530   57.3800 C   0  0  0  0  0  0  0  0  0  0  0  0
  130.2450  126.8450   57.2480 C   0  0  1  0  0  0  0  0  0  0  0  0
  130.0010  128.2490   57.2700 O   0  0  0  0  0  0  0  0  0  0  0  0
  130.6760  128.8810   58.3190 C   0  0  1  0  0  0  0  0  0  0  0  0
  129.8980  130.0020   58.8100 N   0  0  0  0  0  0  0  0  0  0  0  0
  128.8090  130.6120   58.2110 C   0  0  0  0  0  0  0  0  0  0  0  0
  128.3200  131.6430   58.8540 N   0  0  0  0  0  0  0  0  0  0  0  0
  129.1490  131.7780   59.9350 C   0  0  0  0  0  0  0  0  0  0  0  0
  129.1690  132.7010   60.9980 C   0  0  0  0  0  0  0  0  0  0  0  0
  128.1790  133.7010   61.0430 N   0  0  0  0  0  0  0  0  0  0  0  0
  126.8670  133.5870   61.3570 C   0  0  0  0  0  0  0  0  0  0  0  0
  126.3120  132.5250   61.6490 O   0  0  0  0  0  0  0  0  0  0  0  0
  126.0670  134.8710   61.3010 C   0  0  0  0  0  0  0  0  0  0  0  0
  126.7320  136.1060   61.3330 C   0  0  0  0  0  0  0  0  0  0  0  0
  126.0160  137.2980   61.2770 C   0  0  0  0  0  0  0  0  0  0  0  0
  124.6290  137.2660   61.1840 C   0  0  0  0  0  0  0  0  0  0  0  0
  123.9490  136.0520   61.1470 C   0  0  0  0  0  0  0  0  0  0  0  0
  124.6650  134.8580   61.2040 C   0  0  0  0  0  0  0  0  0  0  0  0
  130.1470  132.6040   61.9480 N   0  0  0  0  0  0  0  0  0  0  0  0
  131.0620  131.6080   61.8160 C   0  0  0  0  0  0  0  0  0  0  0  0
  131.1330  130.6660   60.8380 N   0  0  0  0  0  0  0  0  0  0  0  0
  130.1590  130.7820   59.9260 C   0  0  0  0  0  0  0  0  0  0  0  0
  130.9410  127.7840   59.3440 C   0  0  0  0  0  0  0  0  0  0  0  0
  131.2090  126.6090   58.4200 C   0  0  2  0  0  0  0  0  0  0  0  0
  132.5640  126.5580   58.0040 O   0  0  0  0  0  0  0  0  0  0  0  0
  128.2930  123.8270   60.2920 C   0  0  0  0  0  0  0  0  0  0  0  0
  129.5740  123.2580   60.2200 C   0  0  0  0  0  0  0  0  0  0  0  0
  130.0060  122.3540   61.1850 C   0  0  0  0  0  0  0  0  0  0  0  0
  129.1600  122.0080   62.2340 C   0  0  0  0  0  0  0  0  0  0  0  0
  127.8850  122.5600   62.3250 C   0  0  0  0  0  0  0  0  0  0  0  0
  127.4530  123.4640   61.3580 C   0  0  0  0  0  0  0  0  0  0  0  0
  126.7740  124.0420   58.3500 C   0  0  0  0  0  0  0  0  0  0  0  0
  127.1940  123.2050   57.3040 C   0  0  0  0  0  0  0  0  0  0  0  0
  126.2690  122.5100   56.5310 C   0  0  0  0  0  0  0  0  0  0  0  0
  124.9090  122.6530   56.7910 C   0  0  0  0  0  0  0  0  0  0  0  0
  124.4690  123.4880   57.8130 C   0  0  0  0  0  0  0  0  0  0  0  0
  125.3960  124.1820   58.5850 C   0  0  0  0  0  0  0  0  0  0  0  0
  127.7550  126.5650   61.0810 C   0  0  0  0  0  0  0  0  0  0  0  0
  127.3550  127.7790   61.6300 C   0  0  0  0  0  0  0  0  0  0  0  0
  1  2  1  0
  2  3  1  0
  3  4  2  0
  4  5  1  0
  5  6  2  0
  6  7  1  0
  7  8  1  0
  8  9  1  0
 10  9  1  1
 10 11  1  0
 11 12  1  0
 12 13  1  1
 13 14  1  0
 14 15  2  0
 15 16  1  0
 16 17  2  0
 17 18  1  0
 18 19  1  0
 19 20  2  0
 19 21  1  0
 21 22  2  0
 22 23  1  0
 23 24  2  0
 24 25  1  0
 25 26  2  0
 17 27  1  0
 27 28  2  0
 28 29  1  0
 29 30  2  0
 12 31  1  0
 31 32  1  0
 32 33  1  6
  7 34  1  0
 34 35  2  0
 35 36  1  0
 36 37  2  0
 37 38  1  0
 38 39  2  0
  7 40  1  0
 40 41  2  0
 41 42  1  0
 42 43  2  0
 43 44  1  0
 44 45  2  0
  6 46  1  0
 46 47  2  0
 47  3  1  0
 32 10  1  0
 39 34  1  0
 45 40  1  0
 30 13  1  0
 30 16  1  0
 26 21  1  0
M  END
>  <Binding energies>  (54) 
[-10.03]

>  <Ligand effiencies>  (54) 
[-0.2046938775510204]

>  <Interactions>  (54) 
["V-B:TYR:539:CE2:9848, V-B:LEU:363:CA:8156, V-B:LEU:363:CD1:8160, V-B:MET:535:CE:9807, V-B:ASP:366:CB:8183, V-B:PRO:540:CB:9857, V-B:LEU:363:CB:8158, V-B:ASP:366:CG:8184, V-B:TYR:539:CD2:9846, V-B:PRO:540:C:9853, V-B:PRO:540:CA:9855, V-B:ALA:541:CB:9864, V-A:TYR:539:CD1:4873, V-B:LEU:475:CD2:9230, V-A:PRO:540:CA:4883, V-B:ILE:369:CG2:8208, V-B:ALA:541:CA:9862, V-B:PRO:540:N:9856, V-A:TYR:539:CE1:4875, H-A:TYR:531:OH:4795, V-A:TYR:539:C:4867, V-B:PRO:540:CD:9859, V-A:ASP:366:CG:3213, H-A:ALA:541:N:4891, H-A:TYR:539:O:4868, V-B:SER:385:CA:8378, V-B:HIS:383:CD2:8363, V-B:SER:385:CB:8380, V-B:ILE:538:CG2:9835, H-A:ASP:366:O:3209, V-B:PRO:540:CG:9858"]

$$$$
RR8_A_Rahimova_2017
     RDKit          3D

 42 46  0  0  0  0  0  0  0  0999 V2000
  128.2690  126.0910   61.2160 O   0  0  0  0  0  0  0  0  0  0  0  0
  127.3850  126.2210   60.3620 C   0  0  0  0  0  0  0  0  0  0  0  0
  126.5390  127.2940   60.2820 O   0  0  0  0  0  0  0  0  0  0  0  0
  126.8620  128.3090   59.3730 C   0  0  1  0  0  0  0  0  0  0  0  0
  125.7820  129.1690   59.1530 O   0  0  0  0  0  0  0  0  0  0  0  0
  126.2020  130.5250   59.0250 C   0  0  2  0  0  0  0  0  0  0  0  0
  125.6870  131.0720   57.6830 C   0  0  0  0  0  0  0  0  0  0  0  0
  124.4740  131.7770   57.9110 O   0  0  0  0  0  0  0  0  0  0  0  0
  123.5660  131.1020   58.7710 C   0  0  0  0  0  0  0  0  0  0  0  0
  123.6520  131.6850   60.1730 C   0  0  0  0  0  0  0  0  0  0  0  0
  124.5050  132.7620   60.4290 C   0  0  0  0  0  0  0  0  0  0  0  0
  124.5810  133.3020   61.7110 C   0  0  0  0  0  0  0  0  0  0  0  0
  123.8010  132.7650   62.7330 C   0  0  0  0  0  0  0  0  0  0  0  0
  122.9440  131.6950   62.4860 C   0  0  0  0  0  0  0  0  0  0  0  0
  122.8670  131.1560   61.2040 C   0  0  0  0  0  0  0  0  0  0  0  0
  127.7280  130.4490   59.1650 C   0  0  1  0  0  0  0  0  0  0  0  0
  128.2780  131.5360   59.9050 O   0  0  0  0  0  0  0  0  0  0  0  0
  128.1340  132.8220   59.3130 C   0  0  0  0  0  0  0  0  0  0  0  0
  128.9330  132.8890   58.0190 C   0  0  0  0  0  0  0  0  0  0  0  0
  128.2670  132.8510   56.7900 C   0  0  0  0  0  0  0  0  0  0  0  0
  128.9920  132.9030   55.6020 C   0  0  0  0  0  0  0  0  0  0  0  0
  130.3830  132.9900   55.6460 C   0  0  0  0  0  0  0  0  0  0  0  0
  131.0540  133.0220   56.8650 C   0  0  0  0  0  0  0  0  0  0  0  0
  130.3300  132.9680   58.0530 C   0  0  0  0  0  0  0  0  0  0  0  0
  127.9420  129.1900   59.9850 C   0  0  2  0  0  0  0  0  0  0  0  0
  129.2640  128.6890   59.8000 O   0  0  0  0  0  0  0  0  0  0  0  0
  129.9140  129.0920   58.5990 C   0  0  0  0  0  0  0  0  0  0  0  0
  131.1230  129.9540   58.9290 C   0  0  0  0  0  0  0  0  0  0  0  0
  131.1880  130.6390   60.1470 C   0  0  0  0  0  0  0  0  0  0  0  0
  132.3010  131.4190   60.4480 C   0  0  0  0  0  0  0  0  0  0  0  0
  133.3480  131.5110   59.5340 C   0  0  0  0  0  0  0  0  0  0  0  0
  133.2930  130.8280   58.3210 C   0  0  0  0  0  0  0  0  0  0  0  0
  132.1800  130.0470   58.0190 C   0  0  0  0  0  0  0  0  0  0  0  0
  127.1370  125.2060   59.2840 C   0  0  0  0  0  0  0  0  0  0  0  0
  125.9590  124.4440   59.2400 C   0  0  0  0  0  0  0  0  0  0  0  0
  125.7580  123.5100   58.2270 C   0  0  0  0  0  0  0  0  0  0  0  0
  126.7270  123.3120   57.2350 C   0  0  0  0  0  0  0  0  0  0  0  0
  126.5120  122.3180   56.1560 N   0  0  0  0  0  0  0  0  0  0  0  0
  127.4260  122.0980   55.3670 O   0  0  0  0  0  0  0  0  0  0  0  0
  125.4260  121.7480   56.0900 O   0  0  0  0  0  0  0  0  0  0  0  0
  127.9030  124.0720   57.2810 C   0  0  0  0  0  0  0  0  0  0  0  0
  128.1060  125.0060   58.2930 C   0  0  0  0  0  0  0  0  0  0  0  0
  1  2  2  0
  2  3  1  0
  4  3  1  1
  4  5  1  0
  5  6  1  0
  6  7  1  6
  7  8  1  0
  8  9  1  0
  9 10  1  0
 10 11  2  0
 11 12  1  0
 12 13  2  0
 13 14  1  0
 14 15  2  0
  6 16  1  0
 16 17  1  1
 17 18  1  0
 18 19  1  0
 19 20  2  0
 20 21  1  0
 21 22  2  0
 22 23  1  0
 23 24  2  0
 16 25  1  0
 25 26  1  6
 26 27  1  0
 27 28  1  0
 28 29  2  0
 29 30  1  0
 30 31  2  0
 31 32  1  0
 32 33  2  0
  2 34  1  0
 34 35  2  0
 35 36  1  0
 36 37  2  0
 37 38  1  0
 38 39  2  0
 38 40  1  0
 37 41  1  0
 41 42  2  0
 25  4  1  0
 33 28  1  0
 42 34  1  0
 15 10  1  0
 24 19  1  0
M  CHG  2  38   1  40  -1
M  END
>  <Binding energies>  (55) 
[-9.4]

>  <Ligand effiencies>  (55) 
[-0.22380952380952382]

>  <Interactions>  (55) 
["V-B:TYR:539:CE2:9848, V-B:MET:535:CE:9807, V-B:ASP:366:CB:8183, V-B:PRO:540:CB:9857, V-B:ASP:366:CG:8184, V-B:TYR:539:CZ:9849, H-B:TYR:539:N:9842, V-B:PRO:540:CA:9855, V-A:TYR:539:CD1:4873, V-B:GLY:454:CA:9020, V-A:LEU:363:CD1:3189, V-A:TYR:531:CE2:4793, V-A:ILE:538:CG2:4863, V-A:ILE:538:CB:4862, V-A:PRO:540:CA:4883, V-B:ILE:369:CG2:8208, V-A:PRO:540:CB:4885, V-A:ASP:366:CB:3212, V-B:PRO:540:N:9856, V-B:ILE:369:CG1:8209, V-A:TYR:539:CE1:4875, V-A:TYR:539:C:4867, V-B:ILE:369:CB:8207, V-B:TYR:539:CD1:9845, V-A:PRO:540:N:4884, V-B:PRO:540:CD:9859, V-A:MET:535:CE:4835, H-B:TYR:531:OH:9767, V-A:ASP:366:CG:3213, V-B:ASP:366:CA:8181, V-A:PRO:540:CD:4887, V-A:ILE:538:CA:4860, V-B:ILE:538:CA:9832, V-A:TYR:539:CZ:4877, V-A:TYR:539:CG:4872, V-B:ASP:366:C:8179, V-A:TYR:539:CE2:4876, V-A:ILE:538:C:4858, V-B:GLY:453:C:9013, H-A:TYR:539:OH:4878, V-A:TYR:539:CD2:4874, V-A:LEU:363:CA:3185, V-A:LEU:363:CB:3187, V-B:GLY:453:CA:9015"]

$$$$
RR8_B_Rahimova_2017
     RDKit          3D

 42 46  0  0  0  0  0  0  0  0999 V2000
  131.4760  132.1950   62.9340 O   0  0  0  0  0  0  0  0  0  0  0  0
  130.4770  131.8200   62.3120 C   0  0  0  0  0  0  0  0  0  0  0  0
  129.5230  130.9800   62.8170 O   0  0  0  0  0  0  0  0  0  0  0  0
  128.3870  131.5500   63.4200 C   0  0  2  0  0  0  0  0  0  0  0  0
  128.2690  131.1800   64.7650 O   0  0  0  0  0  0  0  0  0  0  0  0
  127.4750  130.0030   64.9140 C   0  0  2  0  0  0  0  0  0  0  0  0
  128.2990  128.9140   65.6240 C   0  0  0  0  0  0  0  0  0  0  0  0
  127.9010  128.8420   66.9880 O   0  0  0  0  0  0  0  0  0  0  0  0
  127.9130  127.5360   67.5450 C   0  0  0  0  0  0  0  0  0  0  0  0
  128.5820  127.5800   68.9110 C   0  0  0  0  0  0  0  0  0  0  0  0
  129.8730  128.1010   69.0340 C   0  0  0  0  0  0  0  0  0  0  0  0
  130.5010  128.1220   70.2770 C   0  0  0  0  0  0  0  0  0  0  0  0
  129.8330  127.6230   71.3940 C   0  0  0  0  0  0  0  0  0  0  0  0
  128.5440  127.1080   71.2800 C   0  0  0  0  0  0  0  0  0  0  0  0
  127.9170  127.0840   70.0360 C   0  0  0  0  0  0  0  0  0  0  0  0
  127.0260  129.6650   63.4880 C   0  0  1  0  0  0  0  0  0  0  0  0
  125.7000  129.1290   63.5100 O   0  0  0  0  0  0  0  0  0  0  0  0
  124.7110  129.8720   64.2280 C   0  0  0  0  0  0  0  0  0  0  0  0
  124.1320  131.0150   63.3990 C   0  0  0  0  0  0  0  0  0  0  0  0
  124.5670  132.3260   63.6120 C   0  0  0  0  0  0  0  0  0  0  0  0
  124.0610  133.3620   62.8320 C   0  0  0  0  0  0  0  0  0  0  0  0
  123.1180  133.0840   61.8440 C   0  0  0  0  0  0  0  0  0  0  0  0
  122.6760  131.7810   61.6290 C   0  0  0  0  0  0  0  0  0  0  0  0
  123.1850  130.7430   62.4070 C   0  0  0  0  0  0  0  0  0  0  0  0
  127.1270  130.9990   62.7560 C   0  0  2  0  0  0  0  0  0  0  0  0
  127.2620  130.7870   61.3530 O   0  0  0  0  0  0  0  0  0  0  0  0
  126.4420  129.7660   60.8040 C   0  0  0  0  0  0  0  0  0  0  0  0
  125.9620  130.2250   59.4380 C   0  0  0  0  0  0  0  0  0  0  0  0
  126.8780  130.4470   58.4060 C   0  0  0  0  0  0  0  0  0  0  0  0
  126.4280  130.8860   57.1630 C   0  0  0  0  0  0  0  0  0  0  0  0
  125.0680  131.1010   56.9570 C   0  0  0  0  0  0  0  0  0  0  0  0
  124.1490  130.8800   57.9820 C   0  0  0  0  0  0  0  0  0  0  0  0
  124.5980  130.4410   59.2240 C   0  0  0  0  0  0  0  0  0  0  0  0
  130.1970  132.2160   60.8910 C   0  0  0  0  0  0  0  0  0  0  0  0
  129.0780  132.9880   60.5450 C   0  0  0  0  0  0  0  0  0  0  0  0
  128.8390  133.3320   59.2200 C   0  0  0  0  0  0  0  0  0  0  0  0
  129.7050  132.9070   58.2050 C   0  0  0  0  0  0  0  0  0  0  0  0
  129.4340  133.2530   56.7880 N   0  0  0  0  0  0  0  0  0  0  0  0
  130.3850  133.3840   56.0220 O   0  0  0  0  0  0  0  0  0  0  0  0
  128.2670  133.3930   56.4290 O   0  0  0  0  0  0  0  0  0  0  0  0
  130.8260  132.1410   58.5510 C   0  0  0  0  0  0  0  0  0  0  0  0
  131.0700  131.8020   59.8780 C   0  0  0  0  0  0  0  0  0  0  0  0
  1  2  2  0
  2  3  1  0
  4  3  1  6
  4  5  1  0
  5  6  1  0
  6  7  1  6
  7  8  1  0
  8  9  1  0
  9 10  1  0
 10 11  2  0
 11 12  1  0
 12 13  2  0
 13 14  1  0
 14 15  2  0
  6 16  1  0
 16 17  1  1
 17 18  1  0
 18 19  1  0
 19 20  2  0
 20 21  1  0
 21 22  2  0
 22 23  1  0
 23 24  2  0
 16 25  1  0
 25 26  1  6
 26 27  1  0
 27 28  1  0
 28 29  2  0
 29 30  1  0
 30 31  2  0
 31 32  1  0
 32 33  2  0
  2 34  1  0
 34 35  2  0
 35 36  1  0
 36 37  2  0
 37 38  1  0
 38 39  2  0
 38 40  1  0
 37 41  1  0
 41 42  2  0
 25  4  1  0
 33 28  1  0
 42 34  1  0
 15 10  1  0
 24 19  1  0
M  CHG  2  38   1  40  -1
M  END
>  <Binding energies>  (56) 
[-10.65]

>  <Ligand effiencies>  (56) 
[-0.25357142857142856]

>  <Interactions>  (56) 
["V-B:GLU:543:C:9874, V-A:GLU:543:CD:4908, V-A:GLU:543:C:4902, V-A:HIS:456:CE1:4070, V-A:GLU:543:CB:4906, V-B:HIS:456:CE1:9041, V-A:GLY:544:C:4912, V-B:GLU:543:CB:9878, V-B:ASP:366:CB:8183, V-B:ASP:366:CG:8184, V-B:GLU:543:CG:9879, V-B:GLU:543:CD:9880, V-A:GLU:543:CG:4907, V-A:TYR:539:CD1:4873, V-B:GLY:454:CA:9020, V-B:LEU:475:CD2:9230, V-A:PRO:540:CA:4883, V-B:ILE:369:CG2:8208, V-A:PRO:540:CB:4885, H-B:ARG:545:NH2:9900, V-B:ILE:369:CG1:8209, V-A:TYR:539:CE1:4875, V-A:TYR:539:C:4867, H-A:TYR:539:N:4870, V-B:ILE:369:CB:8207, V-A:PRO:540:N:4884, H-B:TYR:484:OH:9319, V-A:PRO:540:C:4881, V-B:ASP:366:CA:8181, H-A:ALA:541:N:4891, V-B:ARG:545:CZ:9898, V-A:ILE:538:CA:4860, V-A:TYR:539:CZ:4877, V-A:TYR:539:CG:4872, V-B:ASP:366:C:8179, V-A:ILE:538:C:4858, V-A:TYR:539:CA:4869, V-B:GLY:453:CA:9015"]

$$$$
RR9_Rahimova_2017
     RDKit          3D

 36 40  0  0  0  0  0  0  0  0999 V2000
  128.7630  126.7960   71.7510 C   0  0  0  0  0  0  0  0  0  0  0  0
  130.0860  127.5680   71.7160 C   0  0  0  0  0  0  0  0  0  0  0  0
  130.6990  127.3690   70.4460 O   0  0  0  0  0  0  0  0  0  0  0  0
  129.9760  127.6220   69.2970 C   0  0  0  0  0  0  0  0  0  0  0  0
  129.3820  128.8780   69.1980 C   0  0  0  0  0  0  0  0  0  0  0  0
  128.6310  129.2220   68.0770 C   0  0  0  0  0  0  0  0  0  0  0  0
  128.4540  128.3150   67.0220 C   0  0  0  0  0  0  0  0  0  0  0  0
  127.6420  128.6780   65.8130 C   0  0  0  0  0  0  0  0  0  0  0  0
  128.0880  128.3910   64.5140 C   0  0  0  0  0  0  0  0  0  0  0  0
  127.3180  128.7220   63.3850 C   0  0  0  0  0  0  0  0  0  0  0  0
  127.8030  128.2970   62.0250 C   0  0  0  0  0  0  0  0  0  0  0  0
  128.4540  129.0730   61.3260 O   0  0  0  0  0  0  0  0  0  0  0  0
  127.4560  127.0520   61.6430 N   0  0  0  0  0  0  0  0  0  0  0  0
  127.6960  126.4610   60.3220 C   0  0  0  0  0  0  0  0  0  0  0  0
  126.3930  126.1830   59.5380 C   0  0  0  0  0  0  0  0  0  0  0  0
  126.4170  124.9150   58.6910 C   0  0  0  0  0  0  0  0  0  0  0  0
  127.5070  124.0420   58.7660 C   0  0  0  0  0  0  0  0  0  0  0  0
  127.5110  122.8680   58.0170 C   0  0  0  0  0  0  0  0  0  0  0  0
  126.4270  122.5730   57.1930 C   0  0  0  0  0  0  0  0  0  0  0  0
  125.3400  123.4400   57.1090 C   0  0  0  0  0  0  0  0  0  0  0  0
  125.3350  124.6140   57.8590 C   0  0  0  0  0  0  0  0  0  0  0  0
  126.0920  129.3870   63.6350 C   0  0  0  0  0  0  0  0  0  0  0  0
  124.9930  129.9560   62.8910 C   0  0  0  0  0  0  0  0  0  0  0  0
  124.8210  130.1010   61.4150 C   0  0  0  0  0  0  0  0  0  0  0  0
  125.5050  129.2530   60.5400 C   0  0  0  0  0  0  0  0  0  0  0  0
  125.3560  129.4000   59.1630 C   0  0  0  0  0  0  0  0  0  0  0  0
  124.5170  130.3950   58.6570 C   0  0  0  0  0  0  0  0  0  0  0  0
  124.3680  130.5680   57.1560 C   0  0  0  0  0  0  0  0  0  0  0  0
  123.8340  131.2450   59.5270 C   0  0  0  0  0  0  0  0  0  0  0  0
  123.9830  131.0950   60.9030 C   0  0  0  0  0  0  0  0  0  0  0  0
  124.0680  130.4070   63.7080 N   0  0  0  0  0  0  0  0  0  0  0  0
  124.5030  130.2270   64.9650 N   0  0  0  0  0  0  0  0  0  0  0  0
  125.7370  129.6200   64.9850 C   0  0  0  0  0  0  0  0  0  0  0  0
  126.4560  129.3010   66.0600 N   0  0  0  0  0  0  0  0  0  0  0  0
  129.0530  127.0520   67.1290 C   0  0  0  0  0  0  0  0  0  0  0  0
  129.8050  126.7060   68.2490 C   0  0  0  0  0  0  0  0  0  0  0  0
  1  2  1  0
  2  3  1  0
  3  4  1  0
  4  5  2  0
  5  6  1  0
  6  7  2  0
  7  8  1  0
  8  9  2  0
  9 10  1  0
 10 11  1  0
 11 12  2  0
 11 13  1  0
 13 14  1  0
 14 15  1  0
 15 16  1  0
 16 17  2  0
 17 18  1  0
 18 19  2  0
 19 20  1  0
 20 21  2  0
 10 22  2  0
 22 23  1  0
 23 24  1  0
 24 25  2  0
 25 26  1  0
 26 27  2  0
 27 28  1  0
 27 29  1  0
 29 30  2  0
 23 31  2  0
 31 32  1  0
 32 33  1  0
 33 34  2  0
  7 35  1  0
 35 36  2  0
 36  4  1  0
 34  8  1  0
 21 16  1  0
 33 22  1  0
 30 24  1  0
M  END
>  <Binding energies>  (57) 
[-9.24]

>  <Ligand effiencies>  (57) 
[-0.2431578947368421]

>  <Interactions>  (57) 
["V-A:GLU:543:CD:4908, V-A:GLU:543:C:4902, V-A:HIS:456:CE1:4070, V-A:GLU:543:CB:4906, V-B:HIS:456:CE1:9041, V-B:GLU:543:CB:9878, V-B:TYR:539:CE2:9848, V-B:LEU:363:CD1:8160, V-B:MET:535:CE:9807, V-B:ASP:366:CB:8183, V-B:PRO:540:CB:9857, V-B:ASP:366:CG:8184, V-B:TYR:539:CD2:9846, V-B:PRO:540:CA:9855, V-A:HIS:456:CD2:4068, V-B:GLU:543:CG:9879, V-B:GLU:543:CD:9880, V-A:GLU:543:CG:4907, V-A:GLU:543:CA:4904, H-B:GLU:543:OE1:9881, V-B:GLY:454:CA:9020, V-B:ILE:369:CG2:8208, H-B:GLU:543:OE2:9882, H-B:ARG:545:NH2:9900, V-B:PRO:540:N:9856, V-B:ILE:369:CB:8207, V-B:TYR:539:C:9839, H-B:TYR:484:OH:9319, V-B:PRO:540:CD:9859, H-B:GLY:454:N:9021, V-B:ASP:366:CA:8181, V-B:TYR:531:CZ:9766, V-B:ARG:545:CZ:9898, V-B:ASP:366:C:8179, V-B:TYR:531:CE1:9764"]

$$$$
