1a_Ghoteimi_2023
     RDKit          3D

 67 70  0  0  0  0  0  0  0  0999 V2000
  131.3300  131.8560   55.5290 C   0  0  0  0  0  0  0  0  0  0  0  0
  131.9630  132.3400   56.8370 C   0  0  0  0  0  0  0  0  0  0  0  0
  131.1650  133.3810   57.3890 O   0  0  0  0  0  0  0  0  0  0  0  0
  129.8460  133.1910   57.6460 C   0  0  0  0  0  0  0  0  0  0  0  0
  128.9550  133.3840   56.8130 O   0  0  0  0  0  0  0  0  0  0  0  0
  129.5770  132.7180   59.0460 C   0  0  0  0  0  0  0  0  0  0  0  0
  128.5520  133.2660   59.8310 C   0  0  0  0  0  0  0  0  0  0  0  0
  128.3290  132.8100   61.1270 C   0  0  0  0  0  0  0  0  0  0  0  0
  129.1290  131.7880   61.6620 C   0  0  0  0  0  0  0  0  0  0  0  0
  128.9960  131.2550   62.9580 N   0  0  0  0  0  0  0  0  0  0  0  0
  128.2260  131.6670   63.9890 C   0  0  0  0  0  0  0  0  0  0  0  0
  127.4530  132.6240   63.9670 O   0  0  0  0  0  0  0  0  0  0  0  0
  128.3490  130.8440   65.2710 C   0  0  0  0  0  0  0  0  0  0  0  0
  127.3270  129.3430   65.2070 S   0  0  0  0  0  0  0  0  0  0  0  0
  128.2910  128.0550   65.9640 C   0  0  0  0  0  0  0  0  0  0  0  0
  128.2460  128.0580   67.3170 N   0  0  0  0  0  0  0  0  0  0  0  0
  128.9360  127.1200   68.0180 C   0  0  0  0  0  0  0  0  0  0  0  0
  128.8180  127.1770   69.5140 C   0  0  0  0  0  0  0  0  0  0  0  0
  127.5830  126.9950   70.1560 C   0  0  0  0  0  0  0  0  0  0  0  0
  127.4770  127.0480   71.5430 C   0  0  0  0  0  0  0  0  0  0  0  0
  128.6000  127.2850   72.3310 C   0  0  0  0  0  0  0  0  0  0  0  0
  128.4020  127.3180   73.6990 O   0  0  0  0  0  0  0  0  0  0  0  0
  127.8610  128.4920   74.2930 C   0  0  0  0  0  0  0  0  0  0  0  0
  129.8400  127.4730   71.7050 C   0  0  0  0  0  0  0  0  0  0  0  0
  129.9420  127.4200   70.3190 C   0  0  0  0  0  0  0  0  0  0  0  0
  129.6970  126.1510   67.3530 C   0  0  0  0  0  0  0  0  0  0  0  0
  129.7790  126.1430   65.9540 C   0  0  0  0  0  0  0  0  0  0  0  0
  130.6350  125.0990   65.3140 C   0  0  0  0  0  0  0  0  0  0  0  0
  130.1130  123.8410   64.9930 C   0  0  0  0  0  0  0  0  0  0  0  0
  130.9130  122.8790   64.3830 C   0  0  0  0  0  0  0  0  0  0  0  0
  132.2460  123.1550   64.0760 C   0  0  0  0  0  0  0  0  0  0  0  0
  132.9610  122.1410   63.4720 O   0  0  0  0  0  0  0  0  0  0  0  0
  133.7720  122.4410   62.3410 C   0  0  0  0  0  0  0  0  0  0  0  0
  132.7700  124.4180   64.3900 C   0  0  0  0  0  0  0  0  0  0  0  0
  131.9680  125.3790   65.0010 C   0  0  0  0  0  0  0  0  0  0  0  0
  129.0530  127.1200   65.2310 C   0  0  0  0  0  0  0  0  0  0  0  0
  129.0880  127.1520   63.7650 C   0  0  0  0  0  0  0  0  0  0  0  0
  129.1160  127.1780   62.6090 N   0  0  0  0  0  0  0  0  0  0  0  0
  130.1520  131.2440   60.8850 C   0  0  0  0  0  0  0  0  0  0  0  0
  130.3740  131.7020   59.5890 C   0  0  0  0  0  0  0  0  0  0  0  0
  130.4749  131.2022   55.7554 H   0  0  0  0  0  0  0  0  0  0  0  0
  130.9847  132.7226   54.9461 H   0  0  0  0  0  0  0  0  0  0  0  0
  132.0758  131.2956   54.9461 H   0  0  0  0  0  0  0  0  0  0  0  0
  132.0198  131.5036   57.5492 H   0  0  0  0  0  0  0  0  0  0  0  0
  132.9763  132.7188   56.6378 H   0  0  0  0  0  0  0  0  0  0  0  0
  127.9178  134.0644   59.4182 H   0  0  0  0  0  0  0  0  0  0  0  0
  127.5242  133.2513   61.7333 H   0  0  0  0  0  0  0  0  0  0  0  0
  129.5410  130.4200   63.1170 H   0  0  0  0  0  0  0  0  0  0  0  0
  129.4010  130.5534   65.4084 H   0  0  0  0  0  0  0  0  0  0  0  0
  127.9979  131.4623   66.1103 H   0  0  0  0  0  0  0  0  0  0  0  0
  126.6829  126.8071   69.5523 H   0  0  0  0  0  0  0  0  0  0  0  0
  126.4971  126.9013   72.0207 H   0  0  0  0  0  0  0  0  0  0  0  0
  127.9028  128.4013   75.3885 H   0  0  0  0  0  0  0  0  0  0  0  0
  128.4466  129.3671   73.9749 H   0  0  0  0  0  0  0  0  0  0  0  0
  126.8152  128.6153   73.9749 H   0  0  0  0  0  0  0  0  0  0  0  0
  130.7368  127.6634   72.3129 H   0  0  0  0  0  0  0  0  0  0  0  0
  130.9227  127.5715   69.8443 H   0  0  0  0  0  0  0  0  0  0  0  0
  130.2359  125.3884   67.9344 H   0  0  0  0  0  0  0  0  0  0  0  0
  129.0626  123.6106   65.2244 H   0  0  0  0  0  0  0  0  0  0  0  0
  130.4907  121.8926   64.1408 H   0  0  0  0  0  0  0  0  0  0  0  0
  134.7536  122.8041   62.6796 H   0  0  0  0  0  0  0  0  0  0  0  0
  133.9061  121.5330   61.7348 H   0  0  0  0  0  0  0  0  0  0  0  0
  133.2829  123.2177   61.7348 H   0  0  0  0  0  0  0  0  0  0  0  0
  133.8187  124.6503   64.1526 H   0  0  0  0  0  0  0  0  0  0  0  0
  132.3877  126.3675   65.2394 H   0  0  0  0  0  0  0  0  0  0  0  0
  130.7878  130.4476   61.2992 H   0  0  0  0  0  0  0  0  0  0  0  0
  131.1823  131.2622   58.9863 H   0  0  0  0  0  0  0  0  0  0  0  0
  1  2  1  0
  2  3  1  0
  3  4  1  0
  4  5  2  0
  4  6  1  0
  6  7  2  0
  7  8  1  0
  8  9  2  0
  9 10  1  0
 10 11  1  0
 11 12  2  0
 11 13  1  0
 13 14  1  0
 14 15  1  0
 15 16  2  0
 16 17  1  0
 17 18  1  0
 18 19  2  0
 19 20  1  0
 20 21  2  0
 21 22  1  0
 22 23  1  0
 21 24  1  0
 24 25  2  0
 17 26  2  0
 26 27  1  0
 27 28  1  0
 28 29  2  0
 29 30  1  0
 30 31  2  0
 31 32  1  0
 32 33  1  0
 31 34  1  0
 34 35  2  0
 27 36  2  0
 36 37  1  0
 37 38  3  0
  9 39  1  0
 39 40  2  0
 40  6  1  0
 36 15  1  0
 25 18  1  0
 35 28  1  0
  1 41  1  0
  1 42  1  0
  1 43  1  0
  2 44  1  0
  2 45  1  0
  7 46  1  0
  8 47  1  0
 10 48  1  0
 13 49  1  0
 13 50  1  0
 19 51  1  0
 20 52  1  0
 23 53  1  0
 23 54  1  0
 23 55  1  0
 24 56  1  0
 25 57  1  0
 26 58  1  0
 29 59  1  0
 30 60  1  0
 33 61  1  0
 33 62  1  0
 33 63  1  0
 34 64  1  0
 35 65  1  0
 39 66  1  0
 40 67  1  0
M  END
>  <Binding energies>  (1) 
[-10.43]

>  <Ligand effiencies>  (1) 
[-0.25439024390243903]

>  <Interactions>  (1) 
["V-B:GLU:543:C:9874, V-A:GLU:543:CD:4908, V-A:HIS:456:CE1:4070, V-B:GLY:544:C:9884, V-A:GLU:543:CB:4906, V-B:HIS:456:CE1:9041, V-B:HIS:456:CD2:9039, V-B:GLU:543:CB:9878, V-A:LEU:475:CD2:4259, H-B:LYS:547:NZ:9923, V-B:TYR:484:CE2:9317, V-B:GLY:544:CA:9886, V-B:TYR:484:CZ:9318, V-B:GLU:543:CG:9879, V-B:GLU:543:CD:9880, V-A:GLU:543:CG:4907, V-A:TYR:484:CE2:4346, V-A:TYR:484:CZ:4347, V-A:ILE:369:CD1:3239, V-A:TYR:539:CD1:4873, V-A:LEU:363:CD1:3189, V-A:ILE:538:CG2:4863, V-A:ILE:538:CB:4862, H-A:GLU:543:OE1:4909, V-A:PRO:540:CA:4883, V-A:PRO:540:CB:4885, V-A:TYR:539:C:4867, H-A:TYR:539:N:4870, V-A:PRO:540:N:4884, H-B:TYR:484:OH:9319, V-A:MET:535:CE:4835, V-A:ARG:545:CZ:4926, H-A:GLY:454:N:4050, H-A:TYR:484:OH:4348, V-A:GLY:454:CA:4049, V-A:PRO:540:CD:4887, V-A:TYR:539:CA:4869"]

$$$$
1a_Grossjean_2025
     RDKit          3D

 45 46  0  0  0  0  0  0  0  0999 V2000
  128.5490  138.5140   61.8730 C   0  0  0  0  0  0  0  0  0  0  0  0
  127.0630  138.3090   62.1820 C   0  0  0  0  0  0  0  0  0  0  0  0
  126.3890  137.8810   61.0050 O   0  0  0  0  0  0  0  0  0  0  0  0
  125.3370  137.0240   61.0720 C   0  0  0  0  0  0  0  0  0  0  0  0
  124.1630  137.3760   60.9180 O   0  0  0  0  0  0  0  0  0  0  0  0
  125.7420  135.6090   61.3680 C   0  0  0  0  0  0  0  0  0  0  0  0
  127.1020  135.2740   61.3680 C   0  0  0  0  0  0  0  0  0  0  0  0
  127.5090  133.9700   61.6350 C   0  0  0  0  0  0  0  0  0  0  0  0
  126.5690  132.9750   61.9050 C   0  0  0  0  0  0  0  0  0  0  0  0
  127.0920  131.6920   62.1580 N   0  0  0  0  0  0  0  0  0  0  0  0
  127.6580  131.1910   63.2760 C   0  0  0  0  0  0  0  0  0  0  0  0
  127.8230  131.8030   64.3310 O   0  0  0  0  0  0  0  0  0  0  0  0
  128.1200  129.7350   63.1810 C   0  0  0  0  0  0  0  0  0  0  0  0
  126.7340  128.5940   62.8940 S   0  0  0  0  0  0  0  0  0  0  0  0
  125.5090  129.4680   61.9460 C   0  0  0  0  0  0  0  0  0  0  0  0
  125.7510  129.4730   60.6110 N   0  0  0  0  0  0  0  0  0  0  0  0
  124.8820  130.1160   59.7950 C   0  0  0  0  0  0  0  0  0  0  0  0
  125.2240  130.0910   58.3170 C   0  0  0  0  0  0  0  0  0  0  0  0
  123.7440  130.7650   60.2690 C   0  0  0  0  0  0  0  0  0  0  0  0
  123.4740  130.7480   61.6420 C   0  0  0  0  0  0  0  0  0  0  0  0
  122.2130  131.4520   62.1370 C   0  0  0  0  0  0  0  0  0  0  0  0
  124.3650  130.0800   62.5130 C   0  0  0  0  0  0  0  0  0  0  0  0
  124.0780  130.0070   63.9480 C   0  0  0  0  0  0  0  0  0  0  0  0
  123.8490  129.9510   65.0810 N   0  0  0  0  0  0  0  0  0  0  0  0
  125.2050  133.3040   61.9150 C   0  0  0  0  0  0  0  0  0  0  0  0
  124.7990  134.6080   61.6480 C   0  0  0  0  0  0  0  0  0  0  0  0
  129.1120  138.5917   62.8148 H   0  0  0  0  0  0  0  0  0  0  0  0
  128.9239  137.6591   61.2911 H   0  0  0  0  0  0  0  0  0  0  0  0
  128.6784  139.4385   61.2911 H   0  0  0  0  0  0  0  0  0  0  0  0
  126.9534  137.5450   62.9657 H   0  0  0  0  0  0  0  0  0  0  0  0
  126.6267  139.2567   62.5305 H   0  0  0  0  0  0  0  0  0  0  0  0
  127.8545  136.0477   61.1553 H   0  0  0  0  0  0  0  0  0  0  0  0
  128.5807  133.7219   61.6331 H   0  0  0  0  0  0  0  0  0  0  0  0
  126.9960  131.0510   61.3840 H   0  0  0  0  0  0  0  0  0  0  0  0
  128.8332  129.6429   62.3486 H   0  0  0  0  0  0  0  0  0  0  0  0
  128.5875  129.4651   64.1394 H   0  0  0  0  0  0  0  0  0  0  0  0
  126.3142  130.0113   58.1942 H   0  0  0  0  0  0  0  0  0  0  0  0
  124.7374  129.2260   57.8426 H   0  0  0  0  0  0  0  0  0  0  0  0
  124.8683  131.0175   57.8426 H   0  0  0  0  0  0  0  0  0  0  0  0
  123.0673  131.2835   59.5738 H   0  0  0  0  0  0  0  0  0  0  0  0
  122.2037  131.4572   63.2369 H   0  0  0  0  0  0  0  0  0  0  0  0
  122.2012  132.4872   61.7654 H   0  0  0  0  0  0  0  0  0  0  0  0
  121.3255  130.9188   61.7654 H   0  0  0  0  0  0  0  0  0  0  0  0
  124.4552  132.5296   62.1343 H   0  0  0  0  0  0  0  0  0  0  0  0
  123.7275  134.8568   61.6565 H   0  0  0  0  0  0  0  0  0  0  0  0
  1  2  1  0
  2  3  1  0
  3  4  1  0
  4  5  2  0
  4  6  1  0
  6  7  2  0
  7  8  1  0
  8  9  2  0
  9 10  1  0
 10 11  1  0
 11 12  2  0
 11 13  1  0
 13 14  1  0
 14 15  1  0
 15 16  2  0
 16 17  1  0
 17 18  1  0
 17 19  2  0
 19 20  1  0
 20 21  1  0
 20 22  2  0
 22 23  1  0
 23 24  3  0
  9 25  1  0
 25 26  2  0
 26  6  1  0
 22 15  1  0
  1 27  1  0
  1 28  1  0
  1 29  1  0
  2 30  1  0
  2 31  1  0
  7 32  1  0
  8 33  1  0
 10 34  1  0
 13 35  1  0
 13 36  1  0
 18 37  1  0
 18 38  1  0
 18 39  1  0
 19 40  1  0
 21 41  1  0
 21 42  1  0
 21 43  1  0
 25 44  1  0
 26 45  1  0
M  END
>  <Binding energies>  (1) 
[-7.76]

>  <Ligand effiencies>  (1) 
[-0.2874074074074074]

>  <Interactions>  (1) 
["V-A:GLU:543:CD:4908, V-B:ASP:366:CB:8183, V-B:ASP:366:CG:8184, V-A:TYR:539:CD1:4873, V-B:GLY:454:CA:9020, V-B:LEU:475:CD2:9230, V-B:ILE:369:CG2:8208, H-B:ARG:545:NH2:9900, V-B:ILE:369:CG1:8209, V-A:TYR:539:CE1:4875, V-A:TYR:539:C:4867, V-B:ILE:369:CB:8207, H-B:TYR:484:OH:9319, H-B:GLY:454:N:9021, V-B:ASP:366:CA:8181, V-B:ARG:545:CZ:9898, H-B:ARG:545:NE:9896, V-B:LEU:475:CG:9228, V-B:PRO:482:CB:9297, V-B:HIS:383:CD2:8363, V-B:HIS:383:CE1:8364, V-A:VAL:344:CG1:3001, V-B:SER:385:CB:8380, V-B:GLY:453:C:9013, H-B:HIS:383:NE2:8365, V-B:GLY:453:CA:9015, V-B:PRO:482:CG:9298"]

$$$$
1aa_Ghoteimi_2023
     RDKit          3D

 67 70  0  0  0  0  0  0  0  0999 V2000
  127.9630  138.2510   61.9050 C   0  0  0  0  0  0  0  0  0  0  0  0
  126.4850  137.9070   62.1110 C   0  0  0  0  0  0  0  0  0  0  0  0
  125.9480  137.3790   60.9040 O   0  0  0  0  0  0  0  0  0  0  0  0
  124.9360  136.4740   60.9240 C   0  0  0  0  0  0  0  0  0  0  0  0
  123.8100  136.7030   60.4710 O   0  0  0  0  0  0  0  0  0  0  0  0
  125.3200  135.1660   61.5530 C   0  0  0  0  0  0  0  0  0  0  0  0
  126.6100  134.6300   61.4220 C   0  0  0  0  0  0  0  0  0  0  0  0
  126.9380  133.4140   62.0170 C   0  0  0  0  0  0  0  0  0  0  0  0
  125.9770  132.7120   62.7600 C   0  0  0  0  0  0  0  0  0  0  0  0
  126.1930  131.4790   63.4030 N   0  0  0  0  0  0  0  0  0  0  0  0
  125.3140  130.6210   63.9720 C   0  0  0  0  0  0  0  0  0  0  0  0
  124.0960  130.7890   64.0170 O   0  0  0  0  0  0  0  0  0  0  0  0
  125.8870  129.3430   64.6040 C   0  0  0  0  0  0  0  0  0  0  0  0
  127.2590  129.5370   64.9720 O   0  0  0  0  0  0  0  0  0  0  0  0
  127.9740  128.5130   65.5770 C   0  0  0  0  0  0  0  0  0  0  0  0
  127.9790  128.4530   66.9380 N   0  0  0  0  0  0  0  0  0  0  0  0
  128.6800  127.4730   67.5680 C   0  0  0  0  0  0  0  0  0  0  0  0
  128.6330  127.4750   69.0690 C   0  0  0  0  0  0  0  0  0  0  0  0
  129.7020  127.9790   69.8250 C   0  0  0  0  0  0  0  0  0  0  0  0
  129.6610  127.9790   71.2160 C   0  0  0  0  0  0  0  0  0  0  0  0
  128.5520  127.4780   71.8950 C   0  0  0  0  0  0  0  0  0  0  0  0
  128.6010  127.5180   73.2750 O   0  0  0  0  0  0  0  0  0  0  0  0
  127.8140  128.4800   73.9700 C   0  0  0  0  0  0  0  0  0  0  0  0
  127.4740  126.9760   71.1540 C   0  0  0  0  0  0  0  0  0  0  0  0
  127.5170  126.9770   69.7630 C   0  0  0  0  0  0  0  0  0  0  0  0
  129.3830  126.5120   66.8320 C   0  0  0  0  0  0  0  0  0  0  0  0
  129.3850  126.5450   65.4310 C   0  0  0  0  0  0  0  0  0  0  0  0
  130.1450  125.4850   64.7030 C   0  0  0  0  0  0  0  0  0  0  0  0
  131.5430  125.4730   64.7380 C   0  0  0  0  0  0  0  0  0  0  0  0
  132.2580  124.4830   64.0700 C   0  0  0  0  0  0  0  0  0  0  0  0
  131.5930  123.4830   63.3610 C   0  0  0  0  0  0  0  0  0  0  0  0
  132.3850  122.5430   62.7300 O   0  0  0  0  0  0  0  0  0  0  0  0
  133.7480  122.8500   62.4620 C   0  0  0  0  0  0  0  0  0  0  0  0
  130.1910  123.4860   63.3310 C   0  0  0  0  0  0  0  0  0  0  0  0
  129.4770  124.4780   63.9990 C   0  0  0  0  0  0  0  0  0  0  0  0
  128.6680  127.5800   64.7870 C   0  0  0  0  0  0  0  0  0  0  0  0
  128.6480  127.7220   63.3310 C   0  0  0  0  0  0  0  0  0  0  0  0
  128.6320  127.8350   62.1790 N   0  0  0  0  0  0  0  0  0  0  0  0
  124.6930  133.2420   62.8910 C   0  0  0  0  0  0  0  0  0  0  0  0
  124.3660  134.4560   62.2950 C   0  0  0  0  0  0  0  0  0  0  0  0
  128.4527  138.3650   62.8833 H   0  0  0  0  0  0  0  0  0  0  0  0
  128.4525  137.4428   61.3418 H   0  0  0  0  0  0  0  0  0  0  0  0
  128.0453  139.1923   61.3418 H   0  0  0  0  0  0  0  0  0  0  0  0
  126.3909  137.1591   62.9122 H   0  0  0  0  0  0  0  0  0  0  0  0
  125.9327  138.8161   62.3911 H   0  0  0  0  0  0  0  0  0  0  0  0
  127.3701  135.1756   60.8435 H   0  0  0  0  0  0  0  0  0  0  0  0
  127.9522  133.0034   61.9041 H   0  0  0  0  0  0  0  0  0  0  0  0
  127.1620  131.1960   63.4350 H   0  0  0  0  0  0  0  0  0  0  0  0
  125.3037  129.0900   65.5016 H   0  0  0  0  0  0  0  0  0  0  0  0
  125.8274  128.5255   63.8704 H   0  0  0  0  0  0  0  0  0  0  0  0
  130.5870  128.3807   69.3098 H   0  0  0  0  0  0  0  0  0  0  0  0
  130.5130  128.3787   71.7855 H   0  0  0  0  0  0  0  0  0  0  0  0
  127.9319  128.3359   75.0541 H   0  0  0  0  0  0  0  0  0  0  0  0
  128.1463  129.4923   73.6964 H   0  0  0  0  0  0  0  0  0  0  0  0
  126.7560  128.3549   73.6964 H   0  0  0  0  0  0  0  0  0  0  0  0
  126.5896  126.5793   71.6741 H   0  0  0  0  0  0  0  0  0  0  0  0
  126.6616  126.5807   69.1962 H   0  0  0  0  0  0  0  0  0  0  0  0
  129.9396  125.7228   67.3587 H   0  0  0  0  0  0  0  0  0  0  0  0
  132.0817  126.2518   65.2977 H   0  0  0  0  0  0  0  0  0  0  0  0
  133.3575  124.4895   64.1016 H   0  0  0  0  0  0  0  0  0  0  0  0
  134.2899  122.9721   63.4114 H   0  0  0  0  0  0  0  0  0  0  0  0
  134.2014  122.0315   61.8837 H   0  0  0  0  0  0  0  0  0  0  0  0
  133.8067  123.7839   61.8837 H   0  0  0  0  0  0  0  0  0  0  0  0
  129.6531  122.7020   62.7778 H   0  0  0  0  0  0  0  0  0  0  0  0
  128.3774  124.4693   63.9726 H   0  0  0  0  0  0  0  0  0  0  0  0
  123.9335  132.6960   63.4698 H   0  0  0  0  0  0  0  0  0  0  0  0
  123.3499  134.8622   62.4071 H   0  0  0  0  0  0  0  0  0  0  0  0
  1  2  1  0
  2  3  1  0
  3  4  1  0
  4  5  2  0
  4  6  1  0
  6  7  2  0
  7  8  1  0
  8  9  2  0
  9 10  1  0
 10 11  1  0
 11 12  2  0
 11 13  1  0
 13 14  1  0
 14 15  1  0
 15 16  2  0
 16 17  1  0
 17 18  1  0
 18 19  2  0
 19 20  1  0
 20 21  2  0
 21 22  1  0
 22 23  1  0
 21 24  1  0
 24 25  2  0
 17 26  2  0
 26 27  1  0
 27 28  1  0
 28 29  2  0
 29 30  1  0
 30 31  2  0
 31 32  1  0
 32 33  1  0
 31 34  1  0
 34 35  2  0
 27 36  2  0
 36 37  1  0
 37 38  3  0
  9 39  1  0
 39 40  2  0
 40  6  1  0
 36 15  1  0
 25 18  1  0
 35 28  1  0
  1 41  1  0
  1 42  1  0
  1 43  1  0
  2 44  1  0
  2 45  1  0
  7 46  1  0
  8 47  1  0
 10 48  1  0
 13 49  1  0
 13 50  1  0
 19 51  1  0
 20 52  1  0
 23 53  1  0
 23 54  1  0
 23 55  1  0
 24 56  1  0
 25 57  1  0
 26 58  1  0
 29 59  1  0
 30 60  1  0
 33 61  1  0
 33 62  1  0
 33 63  1  0
 34 64  1  0
 35 65  1  0
 39 66  1  0
 40 67  1  0
M  END
>  <Binding energies>  (1) 
[-9.48]

>  <Ligand effiencies>  (1) 
[-0.23121951219512196]

>  <Interactions>  (1) 
["V-B:GLU:543:C:9874, V-A:GLU:543:CD:4908, V-A:GLU:543:C:4902, V-A:HIS:456:CE1:4070, V-B:GLY:544:C:9884, V-A:GLU:543:CB:4906, V-B:HIS:456:CE1:9041, V-B:HIS:456:CD2:9039, V-B:GLU:543:CB:9878, V-A:LEU:475:CD2:4259, H-B:LYS:547:NZ:9923, V-B:GLY:544:CA:9886, V-B:GLU:543:CG:9879, V-B:GLU:543:CD:9880, V-A:GLU:543:CG:4907, V-A:ILE:369:CD1:3239, V-A:TYR:539:CD1:4873, V-B:GLY:454:CA:9020, V-B:LEU:475:CD2:9230, V-A:TYR:539:CE1:4875, H-B:TYR:484:OH:9319, H-B:GLY:454:N:9021, V-B:ARG:545:CZ:9898, V-A:GLY:454:CA:4049, V-B:LEU:475:CG:9228, V-B:PRO:482:CB:9297, V-A:VAL:344:CG1:3001, V-B:SER:385:CB:8380, H-B:HIS:383:NE2:8365"]

$$$$
1b_Ghoteimi_2023
     RDKit          3D

 54 57  0  0  0  0  0  0  0  0999 V2000
  131.7690  132.5350   56.1090 C   0  0  0  0  0  0  0  0  0  0  0  0
  130.7300  133.3880   56.5750 O   0  0  0  0  0  0  0  0  0  0  0  0
  129.8300  132.9060   57.5050 C   0  0  0  0  0  0  0  0  0  0  0  0
  130.3380  132.5960   58.7650 C   0  0  0  0  0  0  0  0  0  0  0  0
  129.5060  132.1030   59.7650 C   0  0  0  0  0  0  0  0  0  0  0  0
  128.1350  131.9090   59.5370 C   0  0  0  0  0  0  0  0  0  0  0  0
  127.2390  131.3740   60.6190 C   0  0  0  0  0  0  0  0  0  0  0  0
  127.7200  130.6570   61.7200 C   0  0  0  0  0  0  0  0  0  0  0  0
  126.8430  130.1840   62.7040 C   0  0  0  0  0  0  0  0  0  0  0  0
  127.4250  129.4210   63.8480 C   0  0  0  0  0  0  0  0  0  0  0  0
  127.3140  129.9120   65.1520 C   0  0  0  0  0  0  0  0  0  0  0  0
  127.8630  129.2090   66.2210 C   0  0  0  0  0  0  0  0  0  0  0  0
  128.5370  128.0060   66.0080 C   0  0  0  0  0  0  0  0  0  0  0  0
  129.0490  127.3780   67.1270 O   0  0  0  0  0  0  0  0  0  0  0  0
  129.7340  126.1400   66.9760 C   0  0  0  0  0  0  0  0  0  0  0  0
  128.6580  127.5140   64.6990 C   0  0  0  0  0  0  0  0  0  0  0  0
  128.1090  128.2200   63.6330 C   0  0  0  0  0  0  0  0  0  0  0  0
  125.4600  130.4600   62.5640 C   0  0  0  0  0  0  0  0  0  0  0  0
  124.5130  130.0700   63.6130 C   0  0  0  0  0  0  0  0  0  0  0  0
  123.7670  129.7620   64.4420 N   0  0  0  0  0  0  0  0  0  0  0  0
  125.0390  131.1710   61.4180 C   0  0  0  0  0  0  0  0  0  0  0  0
  123.3450  131.5980   61.0720 S   0  0  0  0  0  0  0  0  0  0  0  0
  122.7910  132.7750   62.3520 C   0  0  0  0  0  0  0  0  0  0  0  0
  123.7030  133.9940   62.5520 C   0  0  0  0  0  0  0  0  0  0  0  0
  124.0360  134.3520   63.6840 O   0  0  0  0  0  0  0  0  0  0  0  0
  124.0820  134.6080   61.4090 N   0  0  0  0  0  0  0  0  0  0  0  0
  124.9010  135.7250   61.2860 C   0  0  0  0  0  0  0  0  0  0  0  0
  126.2910  135.6640   61.3760 C   0  0  0  0  0  0  0  0  0  0  0  0
  126.7180  136.9610   61.2020 C   0  0  0  0  0  0  0  0  0  0  0  0
  125.6400  137.7600   61.0140 O   0  0  0  0  0  0  0  0  0  0  0  0
  124.4950  136.9650   61.0690 N   0  0  0  0  0  0  0  0  0  0  0  0
  125.9110  131.6290   60.4880 N   0  0  0  0  0  0  0  0  0  0  0  0
  127.6340  132.2230   58.2640 C   0  0  0  0  0  0  0  0  0  0  0  0
  128.4630  132.7150   57.2610 C   0  0  0  0  0  0  0  0  0  0  0  0
  132.2993  132.0996   56.9688 H   0  0  0  0  0  0  0  0  0  0  0  0
  131.3356  131.7288   55.4990 H   0  0  0  0  0  0  0  0  0  0  0  0
  132.4754  133.1171   55.4990 H   0  0  0  0  0  0  0  0  0  0  0  0
  131.4085  132.7427   58.9712 H   0  0  0  0  0  0  0  0  0  0  0  0
  129.9299  131.8612   60.7508 H   0  0  0  0  0  0  0  0  0  0  0  0
  128.7987  130.4627   61.8137 H   0  0  0  0  0  0  0  0  0  0  0  0
  126.7889  130.8611   65.3350 H   0  0  0  0  0  0  0  0  0  0  0  0
  127.7645  129.6054   67.2424 H   0  0  0  0  0  0  0  0  0  0  0  0
  129.9638  125.7247   67.9683 H   0  0  0  0  0  0  0  0  0  0  0  0
  129.0980  125.4343   66.4215 H   0  0  0  0  0  0  0  0  0  0  0  0
  130.6697  126.3040   66.4215 H   0  0  0  0  0  0  0  0  0  0  0  0
  129.1882  126.5679   64.5154 H   0  0  0  0  0  0  0  0  0  0  0  0
  128.2141  127.8294   62.6101 H   0  0  0  0  0  0  0  0  0  0  0  0
  121.7917  133.1390   62.0711 H   0  0  0  0  0  0  0  0  0  0  0  0
  122.8036  132.2227   63.3032 H   0  0  0  0  0  0  0  0  0  0  0  0
  123.7520  134.2140   60.5410 H   0  0  0  0  0  0  0  0  0  0  0  0
  126.9119  134.7726   61.5486 H   0  0  0  0  0  0  0  0  0  0  0  0
  127.7660  137.2951   61.2137 H   0  0  0  0  0  0  0  0  0  0  0  0
  126.5639  132.0771   58.0552 H   0  0  0  0  0  0  0  0  0  0  0  0
  128.0441  132.9551   56.2726 H   0  0  0  0  0  0  0  0  0  0  0  0
  1  2  1  0
  2  3  1  0
  3  4  2  0
  4  5  1  0
  5  6  2  0
  6  7  1  0
  7  8  2  0
  8  9  1  0
  9 10  1  0
 10 11  2  0
 11 12  1  0
 12 13  2  0
 13 14  1  0
 14 15  1  0
 13 16  1  0
 16 17  2  0
  9 18  2  0
 18 19  1  0
 19 20  3  0
 18 21  1  0
 21 22  1  0
 22 23  1  0
 23 24  1  0
 24 25  2  0
 24 26  1  0
 26 27  1  0
 27 28  1  0
 28 29  2  0
 29 30  1  0
 30 31  1  0
 21 32  2  0
  6 33  1  0
 33 34  2  0
 34  3  1  0
 32  7  1  0
 17 10  1  0
 31 27  2  0
  1 35  1  0
  1 36  1  0
  1 37  1  0
  4 38  1  0
  5 39  1  0
  8 40  1  0
 11 41  1  0
 12 42  1  0
 15 43  1  0
 15 44  1  0
 15 45  1  0
 16 46  1  0
 17 47  1  0
 23 48  1  0
 23 49  1  0
 26 50  1  0
 28 51  1  0
 29 52  1  0
 33 53  1  0
 34 54  1  0
M  END
>  <Binding energies>  (1) 
[-8.89]

>  <Ligand effiencies>  (1) 
[-0.254]

>  <Interactions>  (1) 
["V-A:GLU:543:CD:4908, V-A:HIS:456:CE1:4070, V-A:GLU:543:CB:4906, V-B:GLU:543:CB:9878, V-B:TYR:484:CZ:9318, V-B:GLU:543:CG:9879, V-B:GLU:543:CD:9880, V-A:GLU:543:CG:4907, V-A:TYR:539:CD1:4873, V-B:GLY:454:CA:9020, V-A:LEU:363:CD1:3189, V-A:ILE:538:CG2:4863, V-A:ILE:538:CB:4862, V-B:LEU:475:CD2:9230, V-A:PRO:540:CA:4883, V-B:ILE:369:CG2:8208, V-A:PRO:540:CB:4885, H-B:ARG:545:NH2:9900, V-B:ILE:369:CG1:8209, V-A:TYR:539:CE1:4875, V-A:TYR:539:C:4867, H-A:TYR:539:N:4870, V-A:PRO:540:N:4884, H-B:GLY:454:N:9021, V-B:ARG:545:CZ:9898, H-B:ARG:545:NH1:9899, H-B:ARG:545:NE:9896, V-A:TYR:539:CZ:4877, V-A:TYR:539:CG:4872, V-A:TYR:539:CB:4871, V-B:GLY:453:C:9013, H-B:HIS:383:NE2:8365"]

$$$$
1b_Grossjean_2025
     RDKit          3D

 42 43  0  0  0  0  0  0  0  0999 V2000
  132.0010  132.4900   57.4840 C   0  0  0  0  0  0  0  0  0  0  0  0
  131.1370  133.3890   56.8010 O   0  0  0  0  0  0  0  0  0  0  0  0
  130.0610  132.9340   56.1110 C   0  0  0  0  0  0  0  0  0  0  0  0
  130.0390  132.8220   54.8810 O   0  0  0  0  0  0  0  0  0  0  0  0
  128.9000  132.5720   56.9920 C   0  0  0  0  0  0  0  0  0  0  0  0
  128.8410  132.9590   58.3390 C   0  0  0  0  0  0  0  0  0  0  0  0
  127.7520  132.6060   59.1290 C   0  0  0  0  0  0  0  0  0  0  0  0
  126.7000  131.8620   58.5940 C   0  0  0  0  0  0  0  0  0  0  0  0
  125.6520  131.5620   59.4850 N   0  0  0  0  0  0  0  0  0  0  0  0
  124.3140  131.5810   59.2930 C   0  0  0  0  0  0  0  0  0  0  0  0
  123.7460  131.8770   58.2430 O   0  0  0  0  0  0  0  0  0  0  0  0
  123.4730  131.1840   60.5080 C   0  0  0  0  0  0  0  0  0  0  0  0
  123.3620  132.5240   61.7320 S   0  0  0  0  0  0  0  0  0  0  0  0
  124.9200  133.3850   61.7200 C   0  0  0  0  0  0  0  0  0  0  0  0
  125.9630  132.6320   62.1490 N   0  0  0  0  0  0  0  0  0  0  0  0
  127.1970  133.1880   62.1790 C   0  0  0  0  0  0  0  0  0  0  0  0
  128.3180  132.2820   62.6560 C   0  0  0  0  0  0  0  0  0  0  0  0
  127.4370  134.5060   61.7970 C   0  0  0  0  0  0  0  0  0  0  0  0
  126.3640  135.2970   61.3740 C   0  0  0  0  0  0  0  0  0  0  0  0
  126.6490  136.7440   60.9760 C   0  0  0  0  0  0  0  0  0  0  0  0
  125.0670  134.7380   61.3350 C   0  0  0  0  0  0  0  0  0  0  0  0
  123.9210  135.5600   60.9370 C   0  0  0  0  0  0  0  0  0  0  0  0
  123.0180  136.2120   60.6230 N   0  0  0  0  0  0  0  0  0  0  0  0
  126.7500  131.4710   57.2480 C   0  0  0  0  0  0  0  0  0  0  0  0
  127.8410  131.8250   56.4580 C   0  0  0  0  0  0  0  0  0  0  0  0
  131.8786  132.6174   58.5697 H   0  0  0  0  0  0  0  0  0  0  0  0
  131.7489  131.4562   57.2054 H   0  0  0  0  0  0  0  0  0  0  0  0
  133.0440  132.7009   57.2054 H   0  0  0  0  0  0  0  0  0  0  0  0
  129.6628  133.5466   58.7742 H   0  0  0  0  0  0  0  0  0  0  0  0
  127.7200  132.9159   60.1840 H   0  0  0  0  0  0  0  0  0  0  0  0
  125.9620  131.3050   60.4100 H   0  0  0  0  0  0  0  0  0  0  0  0
  122.4582  130.9289   60.1687 H   0  0  0  0  0  0  0  0  0  0  0  0
  123.9609  130.3244   60.9908 H   0  0  0  0  0  0  0  0  0  0  0  0
  128.3353  132.2680   63.7558 H   0  0  0  0  0  0  0  0  0  0  0  0
  128.1509  131.2623   62.2789 H   0  0  0  0  0  0  0  0  0  0  0  0
  129.2800  132.6593   62.2789 H   0  0  0  0  0  0  0  0  0  0  0  0
  128.4562  134.9188   61.8276 H   0  0  0  0  0  0  0  0  0  0  0  0
  126.7696  137.3564   61.8817 H   0  0  0  0  0  0  0  0  0  0  0  0
  127.5725  136.7852   60.3798 H   0  0  0  0  0  0  0  0  0  0  0  0
  125.8101  137.1323   60.3798 H   0  0  0  0  0  0  0  0  0  0  0  0
  125.9263  130.8839   56.8157 H   0  0  0  0  0  0  0  0  0  0  0  0
  127.8720  131.5149   55.4031 H   0  0  0  0  0  0  0  0  0  0  0  0
  1  2  1  0
  2  3  1  0
  3  4  2  0
  3  5  1  0
  5  6  2  0
  6  7  1  0
  7  8  2  0
  8  9  1  0
  9 10  1  0
 10 11  2  0
 10 12  1  0
 12 13  1  0
 13 14  1  0
 14 15  2  0
 15 16  1  0
 16 17  1  0
 16 18  2  0
 18 19  1  0
 19 20  1  0
 19 21  2  0
 21 22  1  0
 22 23  3  0
  8 24  1  0
 24 25  2  0
 25  5  1  0
 21 14  1  0
  1 26  1  0
  1 27  1  0
  1 28  1  0
  6 29  1  0
  7 30  1  0
  9 31  1  0
 12 32  1  0
 12 33  1  0
 17 34  1  0
 17 35  1  0
 17 36  1  0
 18 37  1  0
 20 38  1  0
 20 39  1  0
 20 40  1  0
 24 41  1  0
 25 42  1  0
M  END
>  <Binding energies>  (1) 
[-7.39]

>  <Ligand effiencies>  (1) 
[-0.28423076923076923]

>  <Interactions>  (1) 
["V-B:ASP:366:CG:8184, V-A:TYR:539:CD1:4873, V-A:LEU:363:CD1:3189, V-A:ILE:538:CG2:4863, V-A:ILE:538:CB:4862, V-B:LEU:475:CD2:9230, V-A:ALA:541:CB:4892, V-A:PRO:540:CA:4883, V-B:ILE:369:CG2:8208, V-A:PRO:540:CB:4885, V-B:ILE:369:CG1:8209, V-A:TYR:539:CE1:4875, V-A:TYR:539:C:4867, H-A:TYR:539:N:4870, V-B:ILE:369:CB:8207, V-A:PRO:540:N:4884, V-A:MET:535:CE:4835, V-B:ASP:366:CA:8181, V-A:PRO:540:CD:4887, V-A:ILE:538:CA:4860, V-A:TYR:539:CZ:4877, V-A:TYR:539:CG:4872, V-B:SER:385:CA:8378, V-B:SER:385:CB:8380, V-A:ILE:538:C:4858, V-A:TYR:539:CB:4871, H-A:TYR:539:OH:4878"]

$$$$
1c_Ghoteimi_2023
     RDKit          3D

 54 57  0  0  0  0  0  0  0  0999 V2000
  124.8670  124.1170   57.2960 C   0  0  0  0  0  0  0  0  0  0  0  0
  125.5950  122.9970   57.7890 O   0  0  0  0  0  0  0  0  0  0  0  0
  126.6190  123.2030   58.6930 C   0  0  0  0  0  0  0  0  0  0  0  0
  126.2590  123.7010   59.9430 C   0  0  0  0  0  0  0  0  0  0  0  0
  127.2260  123.9410   60.9150 C   0  0  0  0  0  0  0  0  0  0  0  0
  128.5840  123.6900   60.6660 C   0  0  0  0  0  0  0  0  0  0  0  0
  129.6310  123.9520   61.7100 C   0  0  0  0  0  0  0  0  0  0  0  0
  129.3330  124.5180   62.9540 C   0  0  0  0  0  0  0  0  0  0  0  0
  130.3400  124.7180   63.9060 C   0  0  0  0  0  0  0  0  0  0  0  0
  129.9390  125.2650   65.2370 C   0  0  0  0  0  0  0  0  0  0  0  0
  129.3620  126.5330   65.3410 C   0  0  0  0  0  0  0  0  0  0  0  0
  129.0090  127.0490   66.5830 C   0  0  0  0  0  0  0  0  0  0  0  0
  129.2310  126.3110   67.7460 C   0  0  0  0  0  0  0  0  0  0  0  0
  128.8490  126.9030   68.9350 O   0  0  0  0  0  0  0  0  0  0  0  0
  129.6320  127.9680   69.4630 C   0  0  0  0  0  0  0  0  0  0  0  0
  129.8170  125.0400   67.6460 C   0  0  0  0  0  0  0  0  0  0  0  0
  130.1690  124.5250   66.4020 C   0  0  0  0  0  0  0  0  0  0  0  0
  131.6670  124.3630   63.5690 C   0  0  0  0  0  0  0  0  0  0  0  0
  132.7710  124.5780   64.5100 C   0  0  0  0  0  0  0  0  0  0  0  0
  133.6410  124.7490   65.2540 N   0  0  0  0  0  0  0  0  0  0  0  0
  131.8940  123.7810   62.3050 C   0  0  0  0  0  0  0  0  0  0  0  0
  133.4770  123.1320   61.8140 S   0  0  0  0  0  0  0  0  0  0  0  0
  133.2040  122.4480   60.1470 C   0  0  0  0  0  0  0  0  0  0  0  0
  132.7260  120.9920   60.1900 C   0  0  0  0  0  0  0  0  0  0  0  0
  133.4990  120.0890   59.8660 O   0  0  0  0  0  0  0  0  0  0  0  0
  131.4640  120.8130   60.6380 N   0  0  0  0  0  0  0  0  0  0  0  0
  130.8480  119.6040   60.9180 C   0  0  0  0  0  0  0  0  0  0  0  0
  129.9460  119.3520   61.8420 N   0  0  0  0  0  0  0  0  0  0  0  0
  129.5470  118.0950   61.7980 C   0  0  0  0  0  0  0  0  0  0  0  0
  130.1290  117.2990   60.8170 C   0  0  0  0  0  0  0  0  0  0  0  0
  131.2630  118.2560   59.9100 S   0  0  0  0  0  0  0  0  0  0  0  0
  130.9010  123.5740   61.4060 N   0  0  0  0  0  0  0  0  0  0  0  0
  128.9350  123.1820   59.4060 C   0  0  0  0  0  0  0  0  0  0  0  0
  127.9710  122.9420   58.4310 C   0  0  0  0  0  0  0  0  0  0  0  0
  124.4838  124.7065   58.1420 H   0  0  0  0  0  0  0  0  0  0  0  0
  125.5304  124.7444   56.6826 H   0  0  0  0  0  0  0  0  0  0  0  0
  124.0243  123.7654   56.6826 H   0  0  0  0  0  0  0  0  0  0  0  0
  125.2012  123.9064   60.1640 H   0  0  0  0  0  0  0  0  0  0  0  0
  126.9203  124.3344   61.8957 H   0  0  0  0  0  0  0  0  0  0  0  0
  128.2979  124.8087   63.1865 H   0  0  0  0  0  0  0  0  0  0  0  0
  129.1855  127.1281   64.4329 H   0  0  0  0  0  0  0  0  0  0  0  0
  128.5511  128.0470   66.6491 H   0  0  0  0  0  0  0  0  0  0  0  0
  129.6058  127.9324   70.5621 H   0  0  0  0  0  0  0  0  0  0  0  0
  130.6713  127.8653   69.1175 H   0  0  0  0  0  0  0  0  0  0  0  0
  129.2240  128.9293   69.1175 H   0  0  0  0  0  0  0  0  0  0  0  0
  129.9990  124.4480   68.5551 H   0  0  0  0  0  0  0  0  0  0  0  0
  130.6313  123.5292   66.3341 H   0  0  0  0  0  0  0  0  0  0  0  0
  132.4434  123.0556   59.6349 H   0  0  0  0  0  0  0  0  0  0  0  0
  134.1639  122.4728   59.6103 H   0  0  0  0  0  0  0  0  0  0  0  0
  130.9310  121.6390   60.8650 H   0  0  0  0  0  0  0  0  0  0  0  0
  128.7964  117.6989   62.4978 H   0  0  0  0  0  0  0  0  0  0  0  0
  129.9077  116.2356   60.6429 H   0  0  0  0  0  0  0  0  0  0  0  0
  129.9913  122.9695   59.1847 H   0  0  0  0  0  0  0  0  0  0  0  0
  128.2717  122.5455   57.4500 H   0  0  0  0  0  0  0  0  0  0  0  0
  1  2  1  0
  2  3  1  0
  3  4  2  0
  4  5  1  0
  5  6  2  0
  6  7  1  0
  7  8  2  0
  8  9  1  0
  9 10  1  0
 10 11  2  0
 11 12  1  0
 12 13  2  0
 13 14  1  0
 14 15  1  0
 13 16  1  0
 16 17  2  0
  9 18  2  0
 18 19  1  0
 19 20  3  0
 18 21  1  0
 21 22  1  0
 22 23  1  0
 23 24  1  0
 24 25  2  0
 24 26  1  0
 26 27  1  0
 27 28  2  0
 28 29  1  0
 29 30  2  0
 30 31  1  0
 21 32  2  0
  6 33  1  0
 33 34  2  0
 34  3  1  0
 32  7  1  0
 17 10  1  0
 31 27  1  0
  1 35  1  0
  1 36  1  0
  1 37  1  0
  4 38  1  0
  5 39  1  0
  8 40  1  0
 11 41  1  0
 12 42  1  0
 15 43  1  0
 15 44  1  0
 15 45  1  0
 16 46  1  0
 17 47  1  0
 23 48  1  0
 23 49  1  0
 26 50  1  0
 29 51  1  0
 30 52  1  0
 33 53  1  0
 34 54  1  0
M  END
>  <Binding energies>  (1) 
[-8.76]

>  <Ligand effiencies>  (1) 
[-0.2502857142857143]

>  <Interactions>  (1) 
["V-A:GLU:543:CD:4908, V-A:HIS:456:CE1:4070, V-A:GLU:543:CB:4906, V-B:GLU:543:CB:9878, V-B:TYR:539:CE2:9848, V-B:LEU:363:CD1:8160, V-A:LEU:475:CD2:4259, V-B:MET:535:CE:9807, V-B:PRO:540:CB:9857, V-A:ILE:369:CG2:3237, V-B:TYR:539:CZ:9849, V-B:TYR:539:CD2:9846, V-B:TYR:539:CG:9844, V-B:PRO:540:C:9853, V-B:TYR:531:CE2:9765, V-B:PRO:540:CA:9855, V-B:GLU:543:CA:9876, V-B:GLU:543:CG:9879, V-B:GLU:543:CD:9880, V-A:TYR:484:CE2:4346, V-B:ALA:541:CB:9864, V-A:TYR:484:CZ:4347, H-A:ARG:545:NH2:4928, V-B:PRO:540:N:9856, V-B:TYR:539:C:9839, V-A:ARG:545:CZ:4926, H-A:SER:385:OG:3410, H-A:GLY:454:N:4050, H-A:ARG:545:NE:4924, H-A:TYR:484:OH:4348, V-B:TYR:539:CB:9843, V-A:LEU:475:CD1:4258, V-A:HIS:383:CD2:3392, V-A:HIS:383:CE1:3393, V-A:PRO:482:CG:4327, V-A:HIS:383:NE2:3394, V-A:PRO:482:CB:4326, V-A:LEU:475:CG:4257"]

$$$$
1c_Grossjean_2025
     RDKit          3D

 40 41  0  0  0  0  0  0  0  0999 V2000
  131.5730  132.6170   56.2500 C   0  0  0  0  0  0  0  0  0  0  0  0
  130.3530  133.3490   56.1990 O   0  0  0  0  0  0  0  0  0  0  0  0
  129.3110  132.9790   57.0280 C   0  0  0  0  0  0  0  0  0  0  0  0
  128.2490  132.3030   56.4280 C   0  0  0  0  0  0  0  0  0  0  0  0
  127.1530  131.8880   57.1800 C   0  0  0  0  0  0  0  0  0  0  0  0
  127.1120  132.1440   58.5590 C   0  0  0  0  0  0  0  0  0  0  0  0
  126.0510  131.7800   59.4100 N   0  0  0  0  0  0  0  0  0  0  0  0
  124.7320  131.6750   59.1390 C   0  0  0  0  0  0  0  0  0  0  0  0
  124.2100  131.8740   58.0420 O   0  0  0  0  0  0  0  0  0  0  0  0
  123.8510  131.2660   60.3210 C   0  0  0  0  0  0  0  0  0  0  0  0
  123.5810  132.6450   61.4740 S   0  0  0  0  0  0  0  0  0  0  0  0
  125.0790  133.6050   61.5620 C   0  0  0  0  0  0  0  0  0  0  0  0
  126.1500  132.8960   62.0000 N   0  0  0  0  0  0  0  0  0  0  0  0
  127.3450  133.5210   62.1080 C   0  0  0  0  0  0  0  0  0  0  0  0
  128.4970  132.6610   62.5940 C   0  0  0  0  0  0  0  0  0  0  0  0
  127.5200  134.8670   61.7990 C   0  0  0  0  0  0  0  0  0  0  0  0
  126.4180  135.6150   61.3710 C   0  0  0  0  0  0  0  0  0  0  0  0
  126.6310  137.0940   61.0540 C   0  0  0  0  0  0  0  0  0  0  0  0
  125.1590  134.9830   61.2520 C   0  0  0  0  0  0  0  0  0  0  0  0
  123.9820  135.7630   60.8570 C   0  0  0  0  0  0  0  0  0  0  0  0
  123.0540  136.3780   60.5450 N   0  0  0  0  0  0  0  0  0  0  0  0
  128.1680  132.8320   59.1600 C   0  0  0  0  0  0  0  0  0  0  0  0
  129.2610  133.2450   58.4050 C   0  0  0  0  0  0  0  0  0  0  0  0
  131.8554  132.4476   57.2996 H   0  0  0  0  0  0  0  0  0  0  0  0
  131.4411  131.6488   55.7449 H   0  0  0  0  0  0  0  0  0  0  0  0
  132.3652  133.1891   55.7449 H   0  0  0  0  0  0  0  0  0  0  0  0
  128.2775  132.0952   55.3482 H   0  0  0  0  0  0  0  0  0  0  0  0
  126.3199  131.3598   56.6933 H   0  0  0  0  0  0  0  0  0  0  0  0
  126.3360  131.5160   60.3410 H   0  0  0  0  0  0  0  0  0  0  0  0
  122.8772  130.9267   59.9381 H   0  0  0  0  0  0  0  0  0  0  0  0
  124.3648  130.4609   60.8667 H   0  0  0  0  0  0  0  0  0  0  0  0
  128.5092  132.6519   63.6939 H   0  0  0  0  0  0  0  0  0  0  0  0
  128.3711  131.6341   62.2202 H   0  0  0  0  0  0  0  0  0  0  0  0
  129.4457  133.0736   62.2202 H   0  0  0  0  0  0  0  0  0  0  0  0
  128.5109  135.3359   61.8901 H   0  0  0  0  0  0  0  0  0  0  0  0
  126.7128  137.6620   61.9924 H   0  0  0  0  0  0  0  0  0  0  0  0
  127.5558  137.2145   60.4706 H   0  0  0  0  0  0  0  0  0  0  0  0
  125.7778  137.4705   60.4706 H   0  0  0  0  0  0  0  0  0  0  0  0
  128.1354  133.0489   60.2379 H   0  0  0  0  0  0  0  0  0  0  0  0
  130.0896  133.7824   58.8894 H   0  0  0  0  0  0  0  0  0  0  0  0
  1  2  1  0
  2  3  1  0
  3  4  2  0
  4  5  1  0
  5  6  2  0
  6  7  1  0
  7  8  1  0
  8  9  2  0
  8 10  1  0
 10 11  1  0
 11 12  1  0
 12 13  2  0
 13 14  1  0
 14 15  1  0
 14 16  2  0
 16 17  1  0
 17 18  1  0
 17 19  2  0
 19 20  1  0
 20 21  3  0
  6 22  1  0
 22 23  2  0
 23  3  1  0
 19 12  1  0
  1 24  1  0
  1 25  1  0
  1 26  1  0
  4 27  1  0
  5 28  1  0
  7 29  1  0
 10 30  1  0
 10 31  1  0
 15 32  1  0
 15 33  1  0
 15 34  1  0
 16 35  1  0
 18 36  1  0
 18 37  1  0
 18 38  1  0
 22 39  1  0
 23 40  1  0
M  END
>  <Binding energies>  (1) 
[-7.0]

>  <Ligand effiencies>  (1) 
[-0.2916666666666667]

>  <Interactions>  (1) 
["V-B:ASP:366:CG:8184, V-A:TYR:539:CD1:4873, V-A:LEU:363:CD1:3189, V-A:ILE:538:CG2:4863, V-A:ILE:538:CB:4862, V-B:LEU:475:CD2:9230, V-A:ALA:541:CB:4892, V-A:PRO:540:CA:4883, V-B:ILE:369:CG2:8208, V-A:TYR:539:CE1:4875, V-A:TYR:539:C:4867, H-A:TYR:539:N:4870, V-B:ILE:369:CB:8207, V-A:PRO:540:N:4884, V-A:MET:535:CE:4835, V-A:ILE:538:CA:4860, V-A:TYR:539:CZ:4877, V-B:SER:385:CA:8378, V-B:SER:385:CB:8380, V-A:TYR:539:CB:4871, V-B:LEU:373:CD1:8251, V-A:TYR:539:CA:4869, H-A:TYR:539:OH:4878"]

$$$$
1d_Ghoteimi_2023
     RDKit          3D

 50 52  0  0  0  0  0  0  0  0999 V2000
  131.8460  126.2310   59.2290 C   0  0  0  0  0  0  0  0  0  0  0  0
  132.0700  124.9360   58.6930 O   0  0  0  0  0  0  0  0  0  0  0  0
  133.3170  124.4210   58.6460 C   0  0  0  0  0  0  0  0  0  0  0  0
  133.8930  123.9990   57.6420 O   0  0  0  0  0  0  0  0  0  0  0  0
  133.9880  124.3990   60.0160 C   0  0  0  0  0  0  0  0  0  0  0  0
  133.2950  122.9980   60.9440 S   0  0  0  0  0  0  0  0  0  0  0  0
  131.7470  123.5450   61.6320 C   0  0  0  0  0  0  0  0  0  0  0  0
  130.6970  123.4090   60.7880 N   0  0  0  0  0  0  0  0  0  0  0  0
  129.4560  123.7910   61.1840 C   0  0  0  0  0  0  0  0  0  0  0  0
  128.3450  123.6020   60.1910 C   0  0  0  0  0  0  0  0  0  0  0  0
  128.6000  123.1250   58.8950 C   0  0  0  0  0  0  0  0  0  0  0  0
  127.5700  122.9570   57.9750 C   0  0  0  0  0  0  0  0  0  0  0  0
  126.2550  123.2600   58.3180 C   0  0  0  0  0  0  0  0  0  0  0  0
  125.2990  123.0650   57.3400 O   0  0  0  0  0  0  0  0  0  0  0  0
  125.6530  122.3610   56.1540 C   0  0  0  0  0  0  0  0  0  0  0  0
  125.9850  123.7370   59.6080 C   0  0  0  0  0  0  0  0  0  0  0  0
  127.0170  123.9030   60.5270 C   0  0  0  0  0  0  0  0  0  0  0  0
  129.2470  124.3160   62.4650 C   0  0  0  0  0  0  0  0  0  0  0  0
  130.3170  124.4820   63.3520 C   0  0  0  0  0  0  0  0  0  0  0  0
  130.0240  125.0560   64.7010 C   0  0  0  0  0  0  0  0  0  0  0  0
  130.3920  124.3600   65.8570 C   0  0  0  0  0  0  0  0  0  0  0  0
  130.1220  124.8890   67.1160 C   0  0  0  0  0  0  0  0  0  0  0  0
  129.4860  126.1230   67.2460 C   0  0  0  0  0  0  0  0  0  0  0  0
  129.2520  126.5650   68.5340 O   0  0  0  0  0  0  0  0  0  0  0  0
  129.0070  127.9490   68.7600 C   0  0  0  0  0  0  0  0  0  0  0  0
  129.1260  126.8300   66.0890 C   0  0  0  0  0  0  0  0  0  0  0  0
  129.3980  126.3000   64.8310 C   0  0  0  0  0  0  0  0  0  0  0  0
  131.6140  124.1060   62.9220 C   0  0  0  0  0  0  0  0  0  0  0  0
  132.7840  124.3530   63.7700 C   0  0  0  0  0  0  0  0  0  0  0  0
  133.7070  124.5490   64.4390 N   0  0  0  0  0  0  0  0  0  0  0  0
  131.8549  126.1796   60.3278 H   0  0  0  0  0  0  0  0  0  0  0  0
  132.6398  126.9116   58.8873 H   0  0  0  0  0  0  0  0  0  0  0  0
  130.8698  126.6054   58.8873 H   0  0  0  0  0  0  0  0  0  0  0  0
  135.0744  124.2714   59.8997 H   0  0  0  0  0  0  0  0  0  0  0  0
  133.8076  125.3436   60.5501 H   0  0  0  0  0  0  0  0  0  0  0  0
  129.6317  122.8800   58.6023 H   0  0  0  0  0  0  0  0  0  0  0  0
  127.7968  122.5810   56.9664 H   0  0  0  0  0  0  0  0  0  0  0  0
  126.1322  121.4080   56.4225 H   0  0  0  0  0  0  0  0  0  0  0  0
  124.7477  122.1621   55.5616 H   0  0  0  0  0  0  0  0  0  0  0  0
  126.3525  122.9691   55.5616 H   0  0  0  0  0  0  0  0  0  0  0  0
  124.9518  123.9815   59.8957 H   0  0  0  0  0  0  0  0  0  0  0  0
  126.7868  124.2772   61.5355 H   0  0  0  0  0  0  0  0  0  0  0  0
  128.2316  124.6009   62.7776 H   0  0  0  0  0  0  0  0  0  0  0  0
  130.8985  123.3874   65.7707 H   0  0  0  0  0  0  0  0  0  0  0  0
  130.4131  124.3284   68.0165 H   0  0  0  0  0  0  0  0  0  0  0  0
  128.9726  128.1433   69.8421 H   0  0  0  0  0  0  0  0  0  0  0  0
  129.8139  128.5431   68.3062 H   0  0  0  0  0  0  0  0  0  0  0  0
  128.0452  128.2300   68.3062 H   0  0  0  0  0  0  0  0  0  0  0  0
  128.6271  127.8065   66.1763 H   0  0  0  0  0  0  0  0  0  0  0  0
  129.1178  126.8653   63.9299 H   0  0  0  0  0  0  0  0  0  0  0  0
  1  2  1  0
  2  3  1  0
  3  4  2  0
  3  5  1  0
  5  6  1  0
  6  7  1  0
  7  8  2  0
  8  9  1  0
  9 10  1  0
 10 11  2  0
 11 12  1  0
 12 13  2  0
 13 14  1  0
 14 15  1  0
 13 16  1  0
 16 17  2  0
  9 18  2  0
 18 19  1  0
 19 20  1  0
 20 21  2  0
 21 22  1  0
 22 23  2  0
 23 24  1  0
 24 25  1  0
 23 26  1  0
 26 27  2  0
 19 28  2  0
 28 29  1  0
 29 30  3  0
 28  7  1  0
 17 10  1  0
 27 20  1  0
  1 31  1  0
  1 32  1  0
  1 33  1  0
  5 34  1  0
  5 35  1  0
 11 36  1  0
 12 37  1  0
 15 38  1  0
 15 39  1  0
 15 40  1  0
 16 41  1  0
 17 42  1  0
 18 43  1  0
 21 44  1  0
 22 45  1  0
 25 46  1  0
 25 47  1  0
 25 48  1  0
 26 49  1  0
 27 50  1  0
M  END
>  <Binding energies>  (1) 
[-7.76]

>  <Ligand effiencies>  (1) 
[-0.25866666666666666]

>  <Interactions>  (1) 
["V-A:GLU:543:CD:4908, V-A:HIS:456:CE1:4070, V-A:GLU:543:CB:4906, V-B:HIS:456:CE1:9041, V-B:GLU:543:CB:9878, V-B:TYR:539:CE2:9848, H-B:TYR:539:OH:9850, V-B:LEU:363:CD1:8160, V-B:MET:535:CE:9807, V-B:PRO:540:CB:9857, V-A:ILE:369:CG2:3237, V-B:TYR:539:CZ:9849, V-B:TYR:539:CD2:9846, V-B:PRO:540:CA:9855, V-B:GLU:543:CA:9876, V-B:GLU:543:CG:9879, V-B:GLU:543:CD:9880, V-A:TYR:484:CE2:4346, V-A:TYR:484:CZ:4347, V-A:ILE:369:CD1:3239, H-A:ARG:545:NH2:4928, V-A:ASP:366:CB:3212, V-B:PRO:540:N:9856, V-B:TYR:539:C:9839, V-B:PRO:540:CD:9859, V-A:ASP:366:CG:3213, H-A:GLY:454:N:4050, H-A:ARG:545:NE:4924, H-A:TYR:484:OH:4348, V-A:ASP:366:CA:3210, V-B:ILE:538:CG2:9835, H-A:ASN:370:N:3244, V-A:ILE:369:CB:3236"]

$$$$
1d_Grossjean_2025
     RDKit          3D

 36 37  0  0  0  0  0  0  0  0999 V2000
  124.1390  131.6450   62.1560 C   0  0  0  0  0  0  0  0  0  0  0  0
  124.6600  133.0360   61.8530 C   0  0  0  0  0  0  0  0  0  0  0  0
  123.8190  134.0440   61.3840 C   0  0  0  0  0  0  0  0  0  0  0  0
  124.3530  135.3120   61.1310 C   0  0  0  0  0  0  0  0  0  0  0  0
  123.4090  136.4040   60.6320 C   0  0  0  0  0  0  0  0  0  0  0  0
  125.7320  135.5380   61.3490 C   0  0  0  0  0  0  0  0  0  0  0  0
  126.3030  136.8690   61.1370 C   0  0  0  0  0  0  0  0  0  0  0  0
  126.7510  137.9230   60.9680 N   0  0  0  0  0  0  0  0  0  0  0  0
  126.5140  134.4500   61.8030 C   0  0  0  0  0  0  0  0  0  0  0  0
  128.2600  134.5550   62.1270 S   0  0  0  0  0  0  0  0  0  0  0  0
  128.8840  132.8550   62.2980 C   0  0  0  0  0  0  0  0  0  0  0  0
  129.9730  132.5350   61.2730 C   0  0  0  0  0  0  0  0  0  0  0  0
  131.1000  132.2380   61.6680 O   0  0  0  0  0  0  0  0  0  0  0  0
  129.5830  132.5840   59.9810 N   0  0  0  0  0  0  0  0  0  0  0  0
  130.3250  132.3650   58.8060 C   0  0  0  0  0  0  0  0  0  0  0  0
  129.8240  132.9720   57.6510 C   0  0  0  0  0  0  0  0  0  0  0  0
  130.4860  132.8240   56.4350 C   0  0  0  0  0  0  0  0  0  0  0  0
  131.6560  132.0720   56.3740 C   0  0  0  0  0  0  0  0  0  0  0  0
  132.1710  131.4680   57.5180 C   0  0  0  0  0  0  0  0  0  0  0  0
  131.5110  131.6140   58.7360 C   0  0  0  0  0  0  0  0  0  0  0  0
  125.9820  133.2290   62.0650 N   0  0  0  0  0  0  0  0  0  0  0  0
  124.0857  131.5027   63.2455 H   0  0  0  0  0  0  0  0  0  0  0  0
  123.1355  131.5265   61.7212 H   0  0  0  0  0  0  0  0  0  0  0  0
  124.8177  130.8965   61.7212 H   0  0  0  0  0  0  0  0  0  0  0  0
  122.7504  133.8451   61.2152 H   0  0  0  0  0  0  0  0  0  0  0  0
  122.9608  136.9225   61.4924 H   0  0  0  0  0  0  0  0  0  0  0  0
  123.9726  137.1254   60.0221 H   0  0  0  0  0  0  0  0  0  0  0  0
  122.6137  135.9506   60.0221 H   0  0  0  0  0  0  0  0  0  0  0  0
  129.3005  132.7302   63.3084 H   0  0  0  0  0  0  0  0  0  0  0  0
  128.0434  132.1670   62.1245 H   0  0  0  0  0  0  0  0  0  0  0  0
  128.6090  132.7960   59.8190 H   0  0  0  0  0  0  0  0  0  0  0  0
  128.9020  133.5697   57.7029 H   0  0  0  0  0  0  0  0  0  0  0  0
  130.0864  133.2990   55.5269 H   0  0  0  0  0  0  0  0  0  0  0  0
  132.1784  131.9539   55.4132 H   0  0  0  0  0  0  0  0  0  0  0  0
  133.0969  130.8769   57.4601 H   0  0  0  0  0  0  0  0  0  0  0  0
  131.9178  131.1418   59.6424 H   0  0  0  0  0  0  0  0  0  0  0  0
  1  2  1  0
  2  3  2  0
  3  4  1  0
  4  5  1  0
  4  6  2  0
  6  7  1  0
  7  8  3  0
  6  9  1  0
  9 10  1  0
 10 11  1  0
 11 12  1  0
 12 13  2  0
 12 14  1  0
 14 15  1  0
 15 16  2  0
 16 17  1  0
 17 18  2  0
 18 19  1  0
 19 20  2  0
  9 21  2  0
 21  2  1  0
 20 15  1  0
  1 22  1  0
  1 23  1  0
  1 24  1  0
  3 25  1  0
  5 26  1  0
  5 27  1  0
  5 28  1  0
 11 29  1  0
 11 30  1  0
 14 31  1  0
 16 32  1  0
 17 33  1  0
 18 34  1  0
 19 35  1  0
 20 36  1  0
M  END
>  <Binding energies>  (1) 
[-7.64]

>  <Ligand effiencies>  (1) 
[-0.34727272727272723]

>  <Interactions>  (1) 
["V-A:TYR:539:CD1:4873, V-A:LEU:363:CD1:3189, V-A:ILE:538:CG2:4863, V-A:ILE:538:CB:4862, V-B:LEU:475:CD2:9230, V-A:ALA:541:CB:4892, V-A:PRO:540:CA:4883, V-B:ILE:369:CG2:8208, V-A:PRO:540:CB:4885, V-A:TYR:539:CE1:4875, V-A:TYR:539:C:4867, V-A:PRO:540:N:4884, V-A:PRO:540:C:4881, H-A:ALA:541:N:4891, H-A:TYR:539:O:4868, V-A:ILE:538:CA:4860, V-B:SER:385:CA:8378, V-B:SER:385:CB:8380, V-A:TYR:539:CB:4871, V-B:LEU:373:CD1:8251, H-B:HIS:383:NE2:8365"]

$$$$
1e_Grossjean_2025
     RDKit          3D

 38 39  0  0  0  0  0  0  0  0999 V2000
  128.5740  133.3780   55.4560 C   0  0  0  0  0  0  0  0  0  0  0  0
  129.3530  132.9630   56.6900 C   0  0  0  0  0  0  0  0  0  0  0  0
  130.7310  132.7360   56.6430 C   0  0  0  0  0  0  0  0  0  0  0  0
  131.3800  132.3550   57.8180 C   0  0  0  0  0  0  0  0  0  0  0  0
  130.6470  132.2100   58.9970 C   0  0  0  0  0  0  0  0  0  0  0  0
  129.2690  132.4590   58.9760 C   0  0  0  0  0  0  0  0  0  0  0  0
  128.5820  132.2860   60.1900 N   0  0  0  0  0  0  0  0  0  0  0  0
  129.0630  132.3800   61.4490 C   0  0  0  0  0  0  0  0  0  0  0  0
  130.2330  132.6330   61.7420 O   0  0  0  0  0  0  0  0  0  0  0  0
  128.0540  132.1170   62.5690 C   0  0  0  0  0  0  0  0  0  0  0  0
  127.2490  130.4960   62.3930 S   0  0  0  0  0  0  0  0  0  0  0  0
  125.7200  130.7130   61.5030 C   0  0  0  0  0  0  0  0  0  0  0  0
  125.8960  130.9960   60.1870 N   0  0  0  0  0  0  0  0  0  0  0  0
  124.8060  131.1840   59.4080 C   0  0  0  0  0  0  0  0  0  0  0  0
  125.0810  131.4880   57.9480 C   0  0  0  0  0  0  0  0  0  0  0  0
  123.5060  131.1110   59.9050 C   0  0  0  0  0  0  0  0  0  0  0  0
  123.3120  130.8450   61.2640 C   0  0  0  0  0  0  0  0  0  0  0  0
  121.8780  130.7890   61.7870 C   0  0  0  0  0  0  0  0  0  0  0  0
  124.4370  130.6480   62.0980 C   0  0  0  0  0  0  0  0  0  0  0  0
  124.2530  130.4270   63.5340 C   0  0  0  0  0  0  0  0  0  0  0  0
  124.1050  130.2520   64.6690 N   0  0  0  0  0  0  0  0  0  0  0  0
  128.6260  132.8280   57.8280 N   0  0  0  0  0  0  0  0  0  0  0  0
  127.6413  133.8749   55.7611 H   0  0  0  0  0  0  0  0  0  0  0  0
  129.1803  134.0727   54.8561 H   0  0  0  0  0  0  0  0  0  0  0  0
  128.3357  132.4873   54.8561 H   0  0  0  0  0  0  0  0  0  0  0  0
  131.2902  132.8547   55.7032 H   0  0  0  0  0  0  0  0  0  0  0  0
  132.4643  132.1698   57.8152 H   0  0  0  0  0  0  0  0  0  0  0  0
  131.1446  131.9045   59.9293 H   0  0  0  0  0  0  0  0  0  0  0  0
  127.6170  132.0040   60.0940 H   0  0  0  0  0  0  0  0  0  0  0  0
  128.5790  132.1499   63.5351 H   0  0  0  0  0  0  0  0  0  0  0  0
  127.2748  132.8914   62.5134 H   0  0  0  0  0  0  0  0  0  0  0  0
  125.8173  132.3020   57.8753 H   0  0  0  0  0  0  0  0  0  0  0  0
  125.4786  130.5888   57.4548 H   0  0  0  0  0  0  0  0  0  0  0  0
  124.1465  131.7938   57.4548 H   0  0  0  0  0  0  0  0  0  0  0  0
  122.6446  131.2606   59.2375 H   0  0  0  0  0  0  0  0  0  0  0  0
  121.8886  130.7894   62.8869 H   0  0  0  0  0  0  0  0  0  0  0  0
  121.3213  131.6661   61.4253 H   0  0  0  0  0  0  0  0  0  0  0  0
  121.3914  129.8712   61.4253 H   0  0  0  0  0  0  0  0  0  0  0  0
  1  2  1  0
  2  3  2  0
  3  4  1  0
  4  5  2  0
  5  6  1  0
  6  7  1  0
  7  8  1  0
  8  9  2  0
  8 10  1  0
 10 11  1  0
 11 12  1  0
 12 13  2  0
 13 14  1  0
 14 15  1  0
 14 16  2  0
 16 17  1  0
 17 18  1  0
 17 19  2  0
 19 20  1  0
 20 21  3  0
  6 22  2  0
 22  2  1  0
 19 12  1  0
  1 23  1  0
  1 24  1  0
  1 25  1  0
  3 26  1  0
  4 27  1  0
  5 28  1  0
  7 29  1  0
 10 30  1  0
 10 31  1  0
 15 32  1  0
 15 33  1  0
 15 34  1  0
 16 35  1  0
 18 36  1  0
 18 37  1  0
 18 38  1  0
M  END
>  <Binding energies>  (1) 
[-6.85]

>  <Ligand effiencies>  (1) 
[-0.29782608695652174]

>  <Interactions>  (1) 
["V-B:ASP:366:CB:8183, V-B:ASP:366:CG:8184, V-A:TYR:539:CD1:4873, V-B:GLY:454:CA:9020, V-A:LEU:363:CD1:3189, V-A:ILE:538:CB:4862, V-A:PRO:540:CA:4883, V-B:ILE:369:CG2:8208, V-A:PRO:540:CB:4885, V-B:ILE:369:CG1:8209, V-A:TYR:539:CE1:4875, V-A:TYR:539:C:4867, V-B:ILE:369:CB:8207, V-A:PRO:540:N:4884, H-B:TYR:484:OH:9319, V-A:MET:535:CE:4835, H-B:GLY:454:N:9021, V-B:ASP:366:CA:8181, H-A:ALA:541:N:4891, V-B:ARG:545:CZ:9898, H-B:ARG:545:NE:9896, V-A:ILE:538:CA:4860, V-A:TYR:539:CZ:4877, V-A:TYR:539:CG:4872, V-A:TYR:539:CE2:4876, V-A:ILE:538:C:4858, V-B:GLY:453:C:9013, V-A:TYR:539:CD2:4874, V-B:GLY:453:CA:9015"]

$$$$
1f_Grossjean_2025
     RDKit          3D

 35 36  0  0  0  0  0  0  0  0999 V2000
  123.6850  132.4640   61.7680 C   0  0  0  0  0  0  0  0  0  0  0  0
  124.4320  133.7750   61.6040 C   0  0  0  0  0  0  0  0  0  0  0  0
  123.7800  134.9420   61.2180 C   0  0  0  0  0  0  0  0  0  0  0  0
  124.5230  136.1180   61.0720 C   0  0  0  0  0  0  0  0  0  0  0  0
  123.7880  137.3830   60.6290 C   0  0  0  0  0  0  0  0  0  0  0  0
  125.9130  136.0950   61.3270 C   0  0  0  0  0  0  0  0  0  0  0  0
  126.7170  137.3030   61.1250 C   0  0  0  0  0  0  0  0  0  0  0  0
  127.3510  138.2580   60.9660 N   0  0  0  0  0  0  0  0  0  0  0  0
  126.4870  134.8710   61.7430 C   0  0  0  0  0  0  0  0  0  0  0  0
  128.2170  134.6490   62.1090 S   0  0  0  0  0  0  0  0  0  0  0  0
  128.5570  132.8590   62.2230 C   0  0  0  0  0  0  0  0  0  0  0  0
  129.2960  132.2640   61.0150 C   0  0  0  0  0  0  0  0  0  0  0  0
  129.7820  131.1340   61.0760 O   0  0  0  0  0  0  0  0  0  0  0  0
  129.3730  133.0820   59.9450 N   0  0  0  0  0  0  0  0  0  0  0  0
  129.9620  132.8620   58.6850 C   0  0  0  0  0  0  0  0  0  0  0  0
  131.1670  132.1720   58.4540 C   0  0  0  0  0  0  0  0  0  0  0  0
  131.6370  132.0220   57.1470 C   0  0  0  0  0  0  0  0  0  0  0  0
  130.8900  132.5640   56.1010 C   0  0  0  0  0  0  0  0  0  0  0  0
  129.7240  133.2290   56.2970 N   0  0  0  0  0  0  0  0  0  0  0  0
  129.2800  133.3660   57.5730 C   0  0  0  0  0  0  0  0  0  0  0  0
  125.7610  133.7300   61.8580 N   0  0  0  0  0  0  0  0  0  0  0  0
  123.5600  132.2447   62.8386 H   0  0  0  0  0  0  0  0  0  0  0  0
  122.6964  132.5432   61.2921 H   0  0  0  0  0  0  0  0  0  0  0  0
  124.2572  131.6540   61.2921 H   0  0  0  0  0  0  0  0  0  0  0  0
  122.6961  134.9398   61.0304 H   0  0  0  0  0  0  0  0  0  0  0  0
  123.4607  137.9463   61.5153 H   0  0  0  0  0  0  0  0  0  0  0  0
  124.4638  138.0077   60.0264 H   0  0  0  0  0  0  0  0  0  0  0  0
  122.9106  137.1053   60.0264 H   0  0  0  0  0  0  0  0  0  0  0  0
  129.1703  132.6839   63.1192 H   0  0  0  0  0  0  0  0  0  0  0  0
  127.5773  132.3603   62.2622 H   0  0  0  0  0  0  0  0  0  0  0  0
  128.9630  133.9990   60.0560 H   0  0  0  0  0  0  0  0  0  0  0  0
  131.7353  131.7534   59.2977 H   0  0  0  0  0  0  0  0  0  0  0  0
  132.5772  131.4873   56.9467 H   0  0  0  0  0  0  0  0  0  0  0  0
  131.2626  132.4471   55.0726 H   0  0  0  0  0  0  0  0  0  0  0  0
  128.3340  133.9017   57.7408 H   0  0  0  0  0  0  0  0  0  0  0  0
  1  2  1  0
  2  3  2  0
  3  4  1  0
  4  5  1  0
  4  6  2  0
  6  7  1  0
  7  8  3  0
  6  9  1  0
  9 10  1  0
 10 11  1  0
 11 12  1  0
 12 13  2  0
 12 14  1  0
 14 15  1  0
 15 16  2  0
 16 17  1  0
 17 18  2  0
 18 19  1  0
 19 20  2  0
  9 21  2  0
 21  2  1  0
 20 15  1  0
  1 22  1  0
  1 23  1  0
  1 24  1  0
  3 25  1  0
  5 26  1  0
  5 27  1  0
  5 28  1  0
 11 29  1  0
 11 30  1  0
 14 31  1  0
 16 32  1  0
 17 33  1  0
 18 34  1  0
 20 35  1  0
M  END
>  <Binding energies>  (1) 
[-7.35]

>  <Ligand effiencies>  (1) 
[-0.33409090909090905]

>  <Interactions>  (1) 
["V-A:TYR:539:CD1:4873, V-A:LEU:363:CD1:3189, V-A:ILE:538:CG2:4863, V-A:ILE:538:CB:4862, V-B:LEU:475:CD2:9230, V-A:ALA:541:CB:4892, V-A:PRO:540:CA:4883, V-B:ILE:369:CG2:8208, V-A:PRO:540:CB:4885, V-B:ILE:369:CG1:8209, V-A:TYR:539:CE1:4875, V-A:TYR:539:C:4867, H-A:TYR:539:N:4870, V-A:PRO:540:N:4884, V-A:MET:535:CE:4835, V-A:PRO:540:C:4881, H-A:ALA:541:N:4891, H-A:TYR:539:O:4868, V-A:ILE:538:CA:4860, V-A:TYR:539:CG:4872, V-B:SER:385:CA:8378, V-B:HIS:383:CD2:8363, V-B:SER:385:CB:8380, V-A:TYR:539:CB:4871, V-B:LEU:373:CD1:8251, V-A:TYR:539:CA:4869, H-B:HIS:383:NE2:8365, V-B:VAL:384:C:8368"]

$$$$
1g_Grossjean_2025
     RDKit          3D

 39 40  0  0  0  0  0  0  0  0999 V2000
  132.6710  131.2540   62.5090 C   0  0  0  0  0  0  0  0  0  0  0  0
  131.8910  131.6610   61.2730 C   0  0  0  0  0  0  0  0  0  0  0  0
  132.4130  131.4900   59.9920 C   0  0  0  0  0  0  0  0  0  0  0  0
  131.6540  131.8990   58.8900 C   0  0  0  0  0  0  0  0  0  0  0  0
  132.2530  131.7160   57.4960 C   0  0  0  0  0  0  0  0  0  0  0  0
  130.3770  132.4660   59.1010 C   0  0  0  0  0  0  0  0  0  0  0  0
  129.5870  132.9490   57.9650 C   0  0  0  0  0  0  0  0  0  0  0  0
  128.9660  133.3310   57.0670 N   0  0  0  0  0  0  0  0  0  0  0  0
  129.9170  132.5770   60.4340 C   0  0  0  0  0  0  0  0  0  0  0  0
  128.3340  133.2560   60.8800 S   0  0  0  0  0  0  0  0  0  0  0  0
  128.3920  133.6390   62.6560 C   0  0  0  0  0  0  0  0  0  0  0  0
  128.3820  132.3730   63.5150 C   0  0  0  0  0  0  0  0  0  0  0  0
  128.2370  132.4570   64.7350 O   0  0  0  0  0  0  0  0  0  0  0  0
  128.5450  131.2090   62.8620 N   0  0  0  0  0  0  0  0  0  0  0  0
  128.5110  129.8810   63.4750 C   0  0  0  0  0  0  0  0  0  0  0  0
  127.3330  129.6540   64.4170 C   0  0  0  0  0  0  0  0  0  0  0  0
  127.5640  129.3230   65.7560 C   0  0  0  0  0  0  0  0  0  0  0  0
  126.4890  129.1160   66.6160 C   0  0  0  0  0  0  0  0  0  0  0  0
  125.1870  129.2470   66.1360 C   0  0  0  0  0  0  0  0  0  0  0  0
  124.9500  129.5810   64.8050 C   0  0  0  0  0  0  0  0  0  0  0  0
  126.0240  129.7860   63.9440 C   0  0  0  0  0  0  0  0  0  0  0  0
  130.6690  132.1990   61.4990 N   0  0  0  0  0  0  0  0  0  0  0  0
  132.1104  131.5465   63.4091 H   0  0  0  0  0  0  0  0  0  0  0  0
  132.8186  130.1639   62.5070 H   0  0  0  0  0  0  0  0  0  0  0  0
  133.6495  131.7565   62.5070 H   0  0  0  0  0  0  0  0  0  0  0  0
  133.4067  131.0403   59.8495 H   0  0  0  0  0  0  0  0  0  0  0  0
  133.3014  131.3957   57.5866 H   0  0  0  0  0  0  0  0  0  0  0  0
  131.6819  130.9513   56.9490 H   0  0  0  0  0  0  0  0  0  0  0  0
  132.2068  132.6692   56.9490 H   0  0  0  0  0  0  0  0  0  0  0  0
  129.3113  134.2047   62.8676 H   0  0  0  0  0  0  0  0  0  0  0  0
  127.4969  134.2272   62.9066 H   0  0  0  0  0  0  0  0  0  0  0  0
  128.6370  131.2320   61.8570 H   0  0  0  0  0  0  0  0  0  0  0  0
  128.4586  129.1319   62.6712 H   0  0  0  0  0  0  0  0  0  0  0  0
  129.4227  129.7919   64.0839 H   0  0  0  0  0  0  0  0  0  0  0  0
  128.5942  129.2263   66.1293 H   0  0  0  0  0  0  0  0  0  0  0  0
  126.6662  128.8505   67.6687 H   0  0  0  0  0  0  0  0  0  0  0  0
  124.3376  129.0848   66.8158 H   0  0  0  0  0  0  0  0  0  0  0  0
  123.9187  129.6823   64.4359 H   0  0  0  0  0  0  0  0  0  0  0  0
  125.8431  130.0517   62.8920 H   0  0  0  0  0  0  0  0  0  0  0  0
  1  2  1  0
  2  3  2  0
  3  4  1  0
  4  5  1  0
  4  6  2  0
  6  7  1  0
  7  8  3  0
  6  9  1  0
  9 10  1  0
 10 11  1  0
 11 12  1  0
 12 13  2  0
 12 14  1  0
 14 15  1  0
 15 16  1  0
 16 17  2  0
 17 18  1  0
 18 19  2  0
 19 20  1  0
 20 21  2  0
  9 22  2  0
 22  2  1  0
 21 16  1  0
  1 23  1  0
  1 24  1  0
  1 25  1  0
  3 26  1  0
  5 27  1  0
  5 28  1  0
  5 29  1  0
 11 30  1  0
 11 31  1  0
 14 32  1  0
 15 33  1  0
 15 34  1  0
 17 35  1  0
 18 36  1  0
 19 37  1  0
 20 38  1  0
 21 39  1  0
M  END
>  <Binding energies>  (1) 
[-7.07]

>  <Ligand effiencies>  (1) 
[-0.3073913043478261]

>  <Interactions>  (1) 
["V-A:GLU:543:CD:4908, V-B:HIS:456:CE1:9041, V-B:ARG:545:CG:9894, V-B:TYR:484:CZ:9318, V-A:GLU:543:CG:4907, V-A:LEU:363:CD1:3189, V-B:LEU:475:CD2:9230, V-A:ALA:541:CB:4892, V-A:PRO:540:CA:4883, V-A:PRO:540:CB:4885, V-A:TYR:539:C:4867, V-A:ALA:541:CA:4890, H-A:TYR:539:N:4870, V-A:PRO:540:N:4884, H-B:TYR:484:OH:9319, V-A:PRO:540:C:4881, H-A:ALA:541:N:4891, V-B:ARG:545:CZ:9898, V-B:ARG:545:CD:9895, V-A:ASN:362:CB:3176"]

$$$$
1h_Grossjean_2025
     RDKit          3D

 51 52  0  0  0  0  0  0  0  0999 V2000
  128.0380  127.7300   67.8460 C   0  0  0  0  0  0  0  0  0  0  0  0
  126.8540  128.4610   67.5450 O   0  0  0  0  0  0  0  0  0  0  0  0
  126.6960  129.0060   66.2840 C   0  0  0  0  0  0  0  0  0  0  0  0
  127.7610  129.3040   65.4190 C   0  0  0  0  0  0  0  0  0  0  0  0
  127.5270  129.8670   64.1640 C   0  0  0  0  0  0  0  0  0  0  0  0
  128.6930  130.1640   63.2250 C   0  0  0  0  0  0  0  0  0  0  0  0
  128.5720  131.4350   62.5110 N   0  0  0  0  0  0  0  0  0  0  0  0
  128.4070  132.6390   63.0900 C   0  0  0  0  0  0  0  0  0  0  0  0
  128.3630  132.8110   64.3070 O   0  0  0  0  0  0  0  0  0  0  0  0
  128.2620  133.8330   62.1470 C   0  0  0  0  0  0  0  0  0  0  0  0
  128.2500  133.3250   60.4010 S   0  0  0  0  0  0  0  0  0  0  0  0
  129.8440  132.6170   60.0190 C   0  0  0  0  0  0  0  0  0  0  0  0
  130.5800  132.2110   61.0870 N   0  0  0  0  0  0  0  0  0  0  0  0
  131.7970  131.6610   60.8680 C   0  0  0  0  0  0  0  0  0  0  0  0
  132.5560  131.2280   62.1090 C   0  0  0  0  0  0  0  0  0  0  0  0
  132.3300  131.4960   59.5920 C   0  0  0  0  0  0  0  0  0  0  0  0
  131.5840  131.9130   58.4850 C   0  0  0  0  0  0  0  0  0  0  0  0
  132.1850  131.7210   57.0940 C   0  0  0  0  0  0  0  0  0  0  0  0
  130.3090  132.4890   58.6900 C   0  0  0  0  0  0  0  0  0  0  0  0
  129.5060  132.9370   57.5490 C   0  0  0  0  0  0  0  0  0  0  0  0
  128.8720  133.2920   56.6480 N   0  0  0  0  0  0  0  0  0  0  0  0
  126.2160  130.1040   63.7490 C   0  0  0  0  0  0  0  0  0  0  0  0
  125.1320  129.8110   64.5910 C   0  0  0  0  0  0  0  0  0  0  0  0
  123.8090  130.0210   64.2460 O   0  0  0  0  0  0  0  0  0  0  0  0
  123.4820  130.3700   62.9050 C   0  0  0  0  0  0  0  0  0  0  0  0
  125.3850  129.2720   65.8600 C   0  0  0  0  0  0  0  0  0  0  0  0
  124.3340  128.9750   66.6920 O   0  0  0  0  0  0  0  0  0  0  0  0
  123.7510  130.1110   67.3160 C   0  0  0  0  0  0  0  0  0  0  0  0
  128.1564  127.6569   68.9372 H   0  0  0  0  0  0  0  0  0  0  0  0
  127.9644  126.7199   67.4167 H   0  0  0  0  0  0  0  0  0  0  0  0
  128.9081  128.2484   67.4167 H   0  0  0  0  0  0  0  0  0  0  0  0
  128.7929  129.0909   65.7347 H   0  0  0  0  0  0  0  0  0  0  0  0
  129.6184  130.1876   63.8191 H   0  0  0  0  0  0  0  0  0  0  0  0
  128.6991  129.3701   62.4636 H   0  0  0  0  0  0  0  0  0  0  0  0
  128.5830  131.3820   61.5030 H   0  0  0  0  0  0  0  0  0  0  0  0
  127.3182  134.3511   62.3726 H   0  0  0  0  0  0  0  0  0  0  0  0
  129.1265  134.4952   62.3021 H   0  0  0  0  0  0  0  0  0  0  0  0
  132.0028  131.5436   63.0059 H   0  0  0  0  0  0  0  0  0  0  0  0
  132.6626  130.1332   62.1103 H   0  0  0  0  0  0  0  0  0  0  0  0
  133.5527  131.6934   62.1103 H   0  0  0  0  0  0  0  0  0  0  0  0
  133.3237  131.0441   59.4568 H   0  0  0  0  0  0  0  0  0  0  0  0
  133.2290  131.3875   57.1885 H   0  0  0  0  0  0  0  0  0  0  0  0
  131.6061  130.9631   56.5459 H   0  0  0  0  0  0  0  0  0  0  0  0
  132.1528  132.6742   56.5459 H   0  0  0  0  0  0  0  0  0  0  0  0
  126.0299  130.5255   62.7501 H   0  0  0  0  0  0  0  0  0  0  0  0
  122.7299  131.1727   62.9080 H   0  0  0  0  0  0  0  0  0  0  0  0
  124.3871  130.7176   62.3854 H   0  0  0  0  0  0  0  0  0  0  0  0
  123.0763  129.4894   62.3854 H   0  0  0  0  0  0  0  0  0  0  0  0
  123.8085  129.9990   68.4088 H   0  0  0  0  0  0  0  0  0  0  0  0
  124.2957  131.0167   67.0111 H   0  0  0  0  0  0  0  0  0  0  0  0
  122.6976  130.1966   67.0111 H   0  0  0  0  0  0  0  0  0  0  0  0
  1  2  1  0
  2  3  1  0
  3  4  2  0
  4  5  1  0
  5  6  1  0
  6  7  1  0
  7  8  1  0
  8  9  2  0
  8 10  1  0
 10 11  1  0
 11 12  1  0
 12 13  2  0
 13 14  1  0
 14 15  1  0
 14 16  2  0
 16 17  1  0
 17 18  1  0
 17 19  2  0
 19 20  1  0
 20 21  3  0
  5 22  2  0
 22 23  1  0
 23 24  1  0
 24 25  1  0
 23 26  2  0
 26 27  1  0
 27 28  1  0
 26  3  1  0
 19 12  1  0
  1 29  1  0
  1 30  1  0
  1 31  1  0
  4 32  1  0
  6 33  1  0
  6 34  1  0
  7 35  1  0
 10 36  1  0
 10 37  1  0
 15 38  1  0
 15 39  1  0
 15 40  1  0
 16 41  1  0
 18 42  1  0
 18 43  1  0
 18 44  1  0
 22 45  1  0
 25 46  1  0
 25 47  1  0
 25 48  1  0
 28 49  1  0
 28 50  1  0
 28 51  1  0
M  END
>  <Binding energies>  (1) 
[-7.09]

>  <Ligand effiencies>  (1) 
[-0.24448275862068966]

>  <Interactions>  (1) 
["V-A:GLU:543:CD:4908, V-B:HIS:456:CE1:9041, V-B:GLU:543:CB:9878, V-B:ARG:545:CG:9894, V-B:TYR:484:CZ:9318, V-B:GLU:543:CD:9880, V-A:GLU:543:CG:4907, V-A:TYR:539:CD1:4873, V-B:GLY:454:CA:9020, V-A:LEU:363:CD1:3189, V-B:LEU:475:CD2:9230, V-A:ALA:541:CB:4892, V-A:PRO:540:CA:4883, V-A:PRO:540:CB:4885, H-B:ARG:545:NH2:9900, V-A:TYR:539:C:4867, H-A:TYR:539:N:4870, V-A:PRO:540:N:4884, H-B:TYR:484:OH:9319, H-B:GLY:454:N:9021, H-A:ALA:541:N:4891, V-B:ARG:545:CZ:9898, H-B:ARG:545:NH1:9899, H-B:ARG:545:NE:9896, V-B:ARG:545:CD:9895, V-A:ASN:362:CB:3176, V-B:GLY:453:CA:9015, V-B:TYR:484:CE1:9316, V-B:GLY:454:C:9018, V-B:ILE:455:C:9023"]

$$$$
1i_Grossjean_2025
     RDKit          3D

 32 33  0  0  0  0  0  0  0  0999 V2000
  123.6770  132.0400   62.4170 C   0  0  0  0  0  0  0  0  0  0  0  0
  124.3340  133.3470   62.0130 C   0  0  0  0  0  0  0  0  0  0  0  0
  123.5920  134.4090   61.5020 C   0  0  0  0  0  0  0  0  0  0  0  0
  124.2500  135.5940   61.1560 C   0  0  0  0  0  0  0  0  0  0  0  0
  123.4130  136.7510   60.6140 C   0  0  0  0  0  0  0  0  0  0  0  0
  125.6510  135.6820   61.3270 C   0  0  0  0  0  0  0  0  0  0  0  0
  126.3530  136.9300   61.0190 C   0  0  0  0  0  0  0  0  0  0  0  0
  126.9060  137.9180   60.7750 N   0  0  0  0  0  0  0  0  0  0  0  0
  126.3270  134.5450   61.8300 C   0  0  0  0  0  0  0  0  0  0  0  0
  128.0830  134.4800   62.1060 S   0  0  0  0  0  0  0  0  0  0  0  0
  128.6180  132.7620   61.8440 C   0  0  0  0  0  0  0  0  0  0  0  0
  129.6050  132.6380   60.6810 C   0  0  0  0  0  0  0  0  0  0  0  0
  130.7370  132.2000   60.8940 O   0  0  0  0  0  0  0  0  0  0  0  0
  129.1360  133.0280   59.4750 N   0  0  0  0  0  0  0  0  0  0  0  0
  129.8180  133.0230   58.2670 C   0  0  0  0  0  0  0  0  0  0  0  0
  131.0850  132.4640   58.1100 C   0  0  0  0  0  0  0  0  0  0  0  0
  131.4030  132.6620   56.7860 C   0  0  0  0  0  0  0  0  0  0  0  0
  130.3810  133.3100   56.1780 O   0  0  0  0  0  0  0  0  0  0  0  0
  129.3820  133.5340   57.1270 N   0  0  0  0  0  0  0  0  0  0  0  0
  125.6760  133.4070   62.1810 N   0  0  0  0  0  0  0  0  0  0  0  0
  123.6423  131.9709   63.5143 H   0  0  0  0  0  0  0  0  0  0  0  0
  122.6538  132.0043   62.0148 H   0  0  0  0  0  0  0  0  0  0  0  0
  124.2587  131.1975   62.0148 H   0  0  0  0  0  0  0  0  0  0  0  0
  122.5035  134.3173   61.3722 H   0  0  0  0  0  0  0  0  0  0  0  0
  122.9964  137.3269   61.4535 H   0  0  0  0  0  0  0  0  0  0  0  0
  124.0476  137.4061   59.9991 H   0  0  0  0  0  0  0  0  0  0  0  0
  122.5922  136.3532   59.9991 H   0  0  0  0  0  0  0  0  0  0  0  0
  129.1032  132.3977   62.7615 H   0  0  0  0  0  0  0  0  0  0  0  0
  127.7282  132.1635   61.5987 H   0  0  0  0  0  0  0  0  0  0  0  0
  128.1960  133.3970   59.4410 H   0  0  0  0  0  0  0  0  0  0  0  0
  131.6983  131.9710   58.8786 H   0  0  0  0  0  0  0  0  0  0  0  0
  132.3372  132.3449   56.2995 H   0  0  0  0  0  0  0  0  0  0  0  0
  1  2  1  0
  2  3  2  0
  3  4  1  0
  4  5  1  0
  4  6  2  0
  6  7  1  0
  7  8  3  0
  6  9  1  0
  9 10  1  0
 10 11  1  0
 11 12  1  0
 12 13  2  0
 12 14  1  0
 14 15  1  0
 15 16  1  0
 16 17  2  0
 17 18  1  0
 18 19  1  0
  9 20  2  0
 20  2  1  0
 19 15  2  0
  1 21  1  0
  1 22  1  0
  1 23  1  0
  3 24  1  0
  5 25  1  0
  5 26  1  0
  5 27  1  0
 11 28  1  0
 11 29  1  0
 14 30  1  0
 16 31  1  0
 17 32  1  0
M  END
>  <Binding energies>  (1) 
[-7.58]

>  <Ligand effiencies>  (1) 
[-0.36095238095238097]

>  <Interactions>  (1) 
["V-A:TYR:539:CD1:4873, V-B:GLY:454:CA:9020, V-A:LEU:363:CD1:3189, V-A:ILE:538:CB:4862, V-B:LEU:475:CD2:9230, V-A:PRO:540:CA:4883, V-B:ILE:369:CG2:8208, V-A:PRO:540:CB:4885, V-B:ILE:369:CG1:8209, V-A:TYR:539:CE1:4875, V-A:TYR:539:C:4867, H-A:TYR:539:N:4870, V-A:PRO:540:N:4884, V-A:PRO:540:C:4881, H-A:ALA:541:N:4891, H-A:TYR:539:O:4868, V-A:PRO:540:CD:4887, V-B:SER:385:CA:8378, V-B:HIS:383:CD2:8363, V-B:SER:385:CB:8380, V-A:TYR:539:CB:4871, V-B:LEU:373:CD1:8251, H-B:HIS:383:NE2:8365, V-B:VAL:384:C:8368"]

$$$$
1j_Grossjean_2025
     RDKit          3D

 32 33  0  0  0  0  0  0  0  0999 V2000
  123.7040  132.3110   62.0980 C   0  0  0  0  0  0  0  0  0  0  0  0
  124.4430  133.6040   61.8060 C   0  0  0  0  0  0  0  0  0  0  0  0
  123.7730  134.7430   61.3670 C   0  0  0  0  0  0  0  0  0  0  0  0
  124.5050  135.9100   61.1270 C   0  0  0  0  0  0  0  0  0  0  0  0
  123.7460  137.1530   60.6630 C   0  0  0  0  0  0  0  0  0  0  0  0
  125.9040  135.9030   61.3260 C   0  0  0  0  0  0  0  0  0  0  0  0
  126.6820  137.1280   61.1310 C   0  0  0  0  0  0  0  0  0  0  0  0
  127.2940  138.0990   60.9770 N   0  0  0  0  0  0  0  0  0  0  0  0
  126.5040  134.6930   61.7480 C   0  0  0  0  0  0  0  0  0  0  0  0
  128.2480  134.5020   62.0450 S   0  0  0  0  0  0  0  0  0  0  0  0
  128.7470  132.8830   61.3880 C   0  0  0  0  0  0  0  0  0  0  0  0
  128.8450  132.8880   59.8610 C   0  0  0  0  0  0  0  0  0  0  0  0
  127.8230  133.0380   59.1900 O   0  0  0  0  0  0  0  0  0  0  0  0
  130.0880  132.7240   59.3570 N   0  0  0  0  0  0  0  0  0  0  0  0
  130.4390  132.6860   58.0150 C   0  0  0  0  0  0  0  0  0  0  0  0
  129.8070  133.2350   56.9990 N   0  0  0  0  0  0  0  0  0  0  0  0
  130.4250  132.9970   55.8590 C   0  0  0  0  0  0  0  0  0  0  0  0
  131.5890  132.2390   55.9360 C   0  0  0  0  0  0  0  0  0  0  0  0
  131.8820  131.8200   57.5980 S   0  0  0  0  0  0  0  0  0  0  0  0
  125.7830  133.5720   62.0000 N   0  0  0  0  0  0  0  0  0  0  0  0
  123.6245  132.1719   63.1863 H   0  0  0  0  0  0  0  0  0  0  0  0
  122.6962  132.3577   61.6597 H   0  0  0  0  0  0  0  0  0  0  0  0
  124.2557  131.4663   61.6597 H   0  0  0  0  0  0  0  0  0  0  0  0
  122.6842  134.7250   61.2113 H   0  0  0  0  0  0  0  0  0  0  0  0
  123.3999  137.7199   61.5399 H   0  0  0  0  0  0  0  0  0  0  0  0
  124.4125  137.7849   60.0576 H   0  0  0  0  0  0  0  0  0  0  0  0
  122.8794  136.8488   60.0576 H   0  0  0  0  0  0  0  0  0  0  0  0
  129.7294  132.6180   61.8058 H   0  0  0  0  0  0  0  0  0  0  0  0
  127.9801  132.1490   61.6763 H   0  0  0  0  0  0  0  0  0  0  0  0
  130.8440  132.5850   60.0110 H   0  0  0  0  0  0  0  0  0  0  0  0
  130.0416  133.3766   54.9004 H   0  0  0  0  0  0  0  0  0  0  0  0
  132.2217  131.9513   55.0834 H   0  0  0  0  0  0  0  0  0  0  0  0
  1  2  1  0
  2  3  2  0
  3  4  1  0
  4  5  1  0
  4  6  2  0
  6  7  1  0
  7  8  3  0
  6  9  1  0
  9 10  1  0
 10 11  1  0
 11 12  1  0
 12 13  2  0
 12 14  1  0
 14 15  1  0
 15 16  2  0
 16 17  1  0
 17 18  2  0
 18 19  1  0
  9 20  2  0
 20  2  1  0
 19 15  1  0
  1 21  1  0
  1 22  1  0
  1 23  1  0
  3 24  1  0
  5 25  1  0
  5 26  1  0
  5 27  1  0
 11 28  1  0
 11 29  1  0
 14 30  1  0
 17 31  1  0
 18 32  1  0
M  END
>  <Binding energies>  (1) 
[-7.19]

>  <Ligand effiencies>  (1) 
[-0.3423809523809524]

>  <Interactions>  (1) 
["V-A:TYR:539:CD1:4873, V-A:LEU:363:CD1:3189, V-A:ILE:538:CG2:4863, V-A:ILE:538:CB:4862, V-B:LEU:475:CD2:9230, V-A:PRO:540:CA:4883, V-B:ILE:369:CG2:8208, V-A:PRO:540:CB:4885, V-A:TYR:539:CE1:4875, V-A:TYR:539:C:4867, H-A:TYR:539:N:4870, V-A:PRO:540:N:4884, V-A:MET:535:CE:4835, H-A:ALA:541:N:4891, V-A:ILE:538:CA:4860, V-B:SER:385:CA:8378, V-B:HIS:383:CD2:8363, V-B:SER:385:CB:8380, V-A:ILE:538:C:4858, V-A:TYR:539:CB:4871, V-B:LEU:373:CD1:8251, H-B:HIS:383:NE2:8365, V-B:VAL:384:C:8368"]

$$$$
1k_Grossjean_2025
     RDKit          3D

 50 50  0  0  0  0  0  0  0  0999 V2000
  130.9510  131.8360   62.6390 C   0  0  0  0  0  0  0  0  0  0  0  0
  132.2060  132.2610   62.1330 O   0  0  0  0  0  0  0  0  0  0  0  0
  132.6110  131.5630   60.9630 C   0  0  0  0  0  0  0  0  0  0  0  0
  131.3850  131.2820   60.0840 C   0  0  0  0  0  0  0  0  0  0  0  0
  131.3600  132.2010   58.9990 O   0  0  0  0  0  0  0  0  0  0  0  0
  132.2250  131.8460   57.9290 C   0  0  0  0  0  0  0  0  0  0  0  0
  131.5930  132.2770   56.5990 C   0  0  0  0  0  0  0  0  0  0  0  0
  130.6060  133.2710   56.8430 O   0  0  0  0  0  0  0  0  0  0  0  0
  129.3950  133.0610   56.1290 C   0  0  0  0  0  0  0  0  0  0  0  0
  128.2420  132.8330   57.1240 C   0  0  0  0  0  0  0  0  0  0  0  0
  128.6340  132.9620   58.5290 N   0  0  0  0  0  0  0  0  0  0  0  0
  127.8320  132.7250   59.5820 C   0  0  0  0  0  0  0  0  0  0  0  0
  126.6600  132.3610   59.4660 O   0  0  0  0  0  0  0  0  0  0  0  0
  128.4700  132.9420   60.9630 C   0  0  0  0  0  0  0  0  0  0  0  0
  127.9090  134.4260   61.8680 S   0  0  0  0  0  0  0  0  0  0  0  0
  126.1420  134.6030   61.6670 C   0  0  0  0  0  0  0  0  0  0  0  0
  125.3980  133.5060   61.9650 N   0  0  0  0  0  0  0  0  0  0  0  0
  124.0540  133.5690   61.8250 C   0  0  0  0  0  0  0  0  0  0  0  0
  123.2950  132.3020   62.1680 C   0  0  0  0  0  0  0  0  0  0  0  0
  123.3970  134.7190   61.3940 C   0  0  0  0  0  0  0  0  0  0  0  0
  124.1500  135.8580   61.0920 C   0  0  0  0  0  0  0  0  0  0  0  0
  123.4100  137.1090   60.6210 C   0  0  0  0  0  0  0  0  0  0  0  0
  125.5550  135.8120   61.2270 C   0  0  0  0  0  0  0  0  0  0  0  0
  126.3700  136.9890   60.9130 C   0  0  0  0  0  0  0  0  0  0  0  0
  127.0130  137.9200   60.6650 N   0  0  0  0  0  0  0  0  0  0  0  0
  130.9770  131.8448   63.7387 H   0  0  0  0  0  0  0  0  0  0  0  0
  130.1633  132.5175   62.2854 H   0  0  0  0  0  0  0  0  0  0  0  0
  130.7394  130.8161   62.2854 H   0  0  0  0  0  0  0  0  0  0  0  0
  133.3318  132.1757   60.4017 H   0  0  0  0  0  0  0  0  0  0  0  0
  133.0826  130.6113   61.2490 H   0  0  0  0  0  0  0  0  0  0  0  0
  131.4411  130.2551   59.6937 H   0  0  0  0  0  0  0  0  0  0  0  0
  130.4697  131.3966   60.6832 H   0  0  0  0  0  0  0  0  0  0  0  0
  133.1933  132.3521   58.0564 H   0  0  0  0  0  0  0  0  0  0  0  0
  132.3793  130.7569   57.9269 H   0  0  0  0  0  0  0  0  0  0  0  0
  132.3715  132.6876   55.9392 H   0  0  0  0  0  0  0  0  0  0  0  0
  131.1249  131.4063   56.1165 H   0  0  0  0  0  0  0  0  0  0  0  0
  129.1762  133.9445   55.5113 H   0  0  0  0  0  0  0  0  0  0  0  0
  129.5003  132.1770   55.4828 H   0  0  0  0  0  0  0  0  0  0  0  0
  127.4539  133.5716   56.9155 H   0  0  0  0  0  0  0  0  0  0  0  0
  127.8996  131.7972   56.9827 H   0  0  0  0  0  0  0  0  0  0  0  0
  129.5830  133.2590   58.7020 H   0  0  0  0  0  0  0  0  0  0  0  0
  128.2429  132.0619   61.5826 H   0  0  0  0  0  0  0  0  0  0  0  0
  129.5440  133.0909   60.7779 H   0  0  0  0  0  0  0  0  0  0  0  0
  123.2320  132.1969   63.2612 H   0  0  0  0  0  0  0  0  0  0  0  0
  122.2807  132.3565   61.7458 H   0  0  0  0  0  0  0  0  0  0  0  0
  123.8216  131.4334   61.7458 H   0  0  0  0  0  0  0  0  0  0  0  0
  122.3017  134.7311   61.2926 H   0  0  0  0  0  0  0  0  0  0  0  0
  123.0696  137.6844   61.4946 H   0  0  0  0  0  0  0  0  0  0  0  0
  124.0868  137.7289   60.0147 H   0  0  0  0  0  0  0  0  0  0  0  0
  122.5408  136.8144   60.0147 H   0  0  0  0  0  0  0  0  0  0  0  0
  1  2  1  0
  2  3  1  0
  3  4  1  0
  4  5  1  0
  5  6  1  0
  6  7  1  0
  7  8  1  0
  8  9  1  0
  9 10  1  0
 10 11  1  0
 11 12  1  0
 12 13  2  0
 12 14  1  0
 14 15  1  0
 15 16  1  0
 16 17  2  0
 17 18  1  0
 18 19  1  0
 18 20  2  0
 20 21  1  0
 21 22  1  0
 21 23  2  0
 23 24  1  0
 24 25  3  0
 23 16  1  0
  1 26  1  0
  1 27  1  0
  1 28  1  0
  3 29  1  0
  3 30  1  0
  4 31  1  0
  4 32  1  0
  6 33  1  0
  6 34  1  0
  7 35  1  0
  7 36  1  0
  9 37  1  0
  9 38  1  0
 10 39  1  0
 10 40  1  0
 11 41  1  0
 14 42  1  0
 14 43  1  0
 19 44  1  0
 19 45  1  0
 19 46  1  0
 20 47  1  0
 22 48  1  0
 22 49  1  0
 22 50  1  0
M  END
>  <Binding energies>  (1) 
[-6.59]

>  <Ligand effiencies>  (1) 
[-0.25346153846153846]

>  <Interactions>  (1) 
["V-A:GLU:543:CD:4908, V-A:GLU:543:CG:4907, V-A:TYR:539:CD1:4873, V-B:GLY:454:CA:9020, V-A:LEU:363:CD1:3189, V-A:ILE:538:CG2:4863, V-A:ILE:538:CB:4862, V-B:LEU:475:CD2:9230, V-A:ALA:541:CB:4892, V-A:PRO:540:CA:4883, V-B:ILE:369:CG2:8208, V-A:PRO:540:CB:4885, V-B:ILE:369:CG1:8209, V-A:TYR:539:CE1:4875, V-A:TYR:539:C:4867, V-A:ALA:541:CA:4890, H-A:TYR:539:N:4870, V-A:PRO:540:N:4884, V-A:MET:535:CE:4835, H-A:ALA:541:N:4891, H-A:TYR:539:O:4868, V-A:ILE:538:CA:4860, V-A:TYR:539:CZ:4877, V-A:TYR:539:CG:4872, V-B:SER:385:CA:8378, V-B:HIS:383:CD2:8363, V-B:SER:385:CB:8380, V-A:ILE:538:C:4858, V-A:TYR:539:CB:4871, V-B:LEU:373:CD1:8251, H-B:HIS:383:NE2:8365, V-B:SER:385:C:8376, V-B:VAL:384:C:8368"]

$$$$
1l_Grossjean_2025
     RDKit          3D

 30 30  0  0  0  0  0  0  0  0999 V2000
  128.2560  138.1960   62.0990 C   0  0  0  0  0  0  0  0  0  0  0  0
  127.2630  138.2500   61.0850 O   0  0  0  0  0  0  0  0  0  0  0  0
  126.7470  136.9750   60.8580 N   0  0  0  0  0  0  0  0  0  0  0  0
  125.4340  136.7550   61.0620 C   0  0  0  0  0  0  0  0  0  0  0  0
  124.6070  137.6570   61.2200 O   0  0  0  0  0  0  0  0  0  0  0  0
  125.0140  135.2790   61.0720 C   0  0  0  0  0  0  0  0  0  0  0  0
  126.2560  134.1270   61.7530 S   0  0  0  0  0  0  0  0  0  0  0  0
  125.4130  132.6380   62.2610 C   0  0  0  0  0  0  0  0  0  0  0  0
  124.2250  132.3950   61.6480 N   0  0  0  0  0  0  0  0  0  0  0  0
  123.5310  131.2820   61.9870 C   0  0  0  0  0  0  0  0  0  0  0  0
  122.2150  131.0790   61.2600 C   0  0  0  0  0  0  0  0  0  0  0  0
  123.9870  130.3730   62.9390 C   0  0  0  0  0  0  0  0  0  0  0  0
  125.2090  130.6120   63.5760 C   0  0  0  0  0  0  0  0  0  0  0  0
  125.6900  129.6020   64.6160 C   0  0  0  0  0  0  0  0  0  0  0  0
  125.9480  131.7670   63.2380 C   0  0  0  0  0  0  0  0  0  0  0  0
  127.2330  132.0430   63.8890 C   0  0  0  0  0  0  0  0  0  0  0  0
  128.2460  132.2590   64.4040 N   0  0  0  0  0  0  0  0  0  0  0  0
  127.7730  138.2223   63.0869 H   0  0  0  0  0  0  0  0  0  0  0  0
  128.8333  137.2651   61.9977 H   0  0  0  0  0  0  0  0  0  0  0  0
  128.9308  139.0588   61.9977 H   0  0  0  0  0  0  0  0  0  0  0  0
  127.4550  136.2580   60.9320 H   0  0  0  0  0  0  0  0  0  0  0  0
  124.0984  135.1890   61.6750 H   0  0  0  0  0  0  0  0  0  0  0  0
  124.8740  134.9924   60.0193 H   0  0  0  0  0  0  0  0  0  0  0  0
  121.4058  130.9542   61.9946 H   0  0  0  0  0  0  0  0  0  0  0  0
  122.0056  131.9555   60.6292 H   0  0  0  0  0  0  0  0  0  0  0  0
  122.2794  130.1802   60.6292 H   0  0  0  0  0  0  0  0  0  0  0  0
  123.3944  129.4799   63.1863 H   0  0  0  0  0  0  0  0  0  0  0  0
  125.5018  129.9971   65.6252 H   0  0  0  0  0  0  0  0  0  0  0  0
  125.1464  128.6546   64.4859 H   0  0  0  0  0  0  0  0  0  0  0  0
  126.7682  129.4270   64.4859 H   0  0  0  0  0  0  0  0  0  0  0  0
  1  2  1  0
  2  3  1  0
  3  4  1  0
  4  5  2  0
  4  6  1  0
  6  7  1  0
  7  8  1  0
  8  9  2  0
  9 10  1  0
 10 11  1  0
 10 12  2  0
 12 13  1  0
 13 14  1  0
 13 15  2  0
 15 16  1  0
 16 17  3  0
 15  8  1  0
  1 18  1  0
  1 19  1  0
  1 20  1  0
  3 21  1  0
  6 22  1  0
  6 23  1  0
 11 24  1  0
 11 25  1  0
 11 26  1  0
 12 27  1  0
 14 28  1  0
 14 29  1  0
 14 30  1  0
M  END
>  <Binding energies>  (1) 
[-6.31]

>  <Ligand effiencies>  (1) 
[-0.3505555555555555]

>  <Interactions>  (1) 
["V-B:ASP:366:CG:8184, V-B:TYR:484:CZ:9318, V-A:TYR:539:CD1:4873, V-B:LEU:475:CD2:9230, V-B:ILE:369:CG2:8208, V-B:ILE:369:CG1:8209, V-A:TYR:539:CE1:4875, V-A:TYR:539:C:4867, V-B:ILE:369:CB:8207, H-B:TYR:484:OH:9319, V-B:ASP:366:CA:8181, H-A:TYR:539:O:4868, V-B:ARG:545:CZ:9898, V-B:PRO:482:CB:9297, V-A:TYR:539:CG:4872, V-A:VAL:344:CG1:3001, V-A:TYR:539:CB:4871, H-B:HIS:383:NE2:8365"]

$$$$
1m_Grossjean_2025
     RDKit          3D

 35 35  0  0  0  0  0  0  0  0999 V2000
  127.5120  138.1840   61.7450 C   0  0  0  0  0  0  0  0  0  0  0  0
  126.6880  137.5890   60.7530 O   0  0  0  0  0  0  0  0  0  0  0  0
  125.4640  137.1200   61.0700 C   0  0  0  0  0  0  0  0  0  0  0  0
  124.4690  137.8130   61.3040 O   0  0  0  0  0  0  0  0  0  0  0  0
  125.4380  135.5780   61.0980 C   0  0  0  0  0  0  0  0  0  0  0  0
  126.7820  134.9840   61.0230 N   0  0  0  0  0  0  0  0  0  0  0  0
  127.0650  133.6700   61.0940 C   0  0  0  0  0  0  0  0  0  0  0  0
  126.2020  132.8040   61.2510 O   0  0  0  0  0  0  0  0  0  0  0  0
  128.5510  133.3060   60.9760 C   0  0  0  0  0  0  0  0  0  0  0  0
  128.8880  131.7620   60.0620 S   0  0  0  0  0  0  0  0  0  0  0  0
  127.9880  131.8240   58.5270 C   0  0  0  0  0  0  0  0  0  0  0  0
  126.7770  131.2130   58.5830 N   0  0  0  0  0  0  0  0  0  0  0  0
  126.0010  131.2020   57.4750 C   0  0  0  0  0  0  0  0  0  0  0  0
  124.6550  130.5190   57.6190 C   0  0  0  0  0  0  0  0  0  0  0  0
  126.3990  131.7840   56.2730 C   0  0  0  0  0  0  0  0  0  0  0  0
  127.6570  132.3930   56.1960 C   0  0  0  0  0  0  0  0  0  0  0  0
  128.0780  133.0090   54.8640 C   0  0  0  0  0  0  0  0  0  0  0  0
  128.4850  132.4150   57.3410 C   0  0  0  0  0  0  0  0  0  0  0  0
  129.8250  133.0040   57.2690 C   0  0  0  0  0  0  0  0  0  0  0  0
  130.8820  133.4690   57.2110 N   0  0  0  0  0  0  0  0  0  0  0  0
  127.1375  137.9135   62.7433 H   0  0  0  0  0  0  0  0  0  0  0  0
  128.5442  137.8215   61.6300 H   0  0  0  0  0  0  0  0  0  0  0  0
  127.4926  139.2778   61.6300 H   0  0  0  0  0  0  0  0  0  0  0  0
  124.9611  135.2514   62.0339 H   0  0  0  0  0  0  0  0  0  0  0  0
  124.8766  135.2400   60.2145 H   0  0  0  0  0  0  0  0  0  0  0  0
  127.5480  135.6340   60.9210 H   0  0  0  0  0  0  0  0  0  0  0  0
  129.0655  134.1294   60.4590 H   0  0  0  0  0  0  0  0  0  0  0  0
  128.9139  133.1452   62.0019 H   0  0  0  0  0  0  0  0  0  0  0  0
  124.4173  130.3984   58.6862 H   0  0  0  0  0  0  0  0  0  0  0  0
  123.8792  131.1325   57.1376 H   0  0  0  0  0  0  0  0  0  0  0  0
  124.6920  129.5306   57.1376 H   0  0  0  0  0  0  0  0  0  0  0  0
  125.7339  131.7651   55.3970 H   0  0  0  0  0  0  0  0  0  0  0  0
  128.6896  133.9040   55.0509 H   0  0  0  0  0  0  0  0  0  0  0  0
  128.6654  132.2767   54.2907 H   0  0  0  0  0  0  0  0  0  0  0  0
  127.1823  133.2902   54.2907 H   0  0  0  0  0  0  0  0  0  0  0  0
  1  2  1  0
  2  3  1  0
  3  4  2  0
  3  5  1  0
  5  6  1  0
  6  7  1  0
  7  8  2  0
  7  9  1  0
  9 10  1  0
 10 11  1  0
 11 12  2  0
 12 13  1  0
 13 14  1  0
 13 15  2  0
 15 16  1  0
 16 17  1  0
 16 18  2  0
 18 19  1  0
 19 20  3  0
 18 11  1  0
  1 21  1  0
  1 22  1  0
  1 23  1  0
  5 24  1  0
  5 25  1  0
  6 26  1  0
  9 27  1  0
  9 28  1  0
 14 29  1  0
 14 30  1  0
 14 31  1  0
 15 32  1  0
 17 33  1  0
 17 34  1  0
 17 35  1  0
M  END
>  <Binding energies>  (1) 
[-6.32]

>  <Ligand effiencies>  (1) 
[-0.30095238095238097]

>  <Interactions>  (1) 
["V-B:ASP:366:CB:8183, V-A:TYR:539:CD1:4873, V-B:LEU:475:CD2:9230, V-A:PRO:540:CA:4883, V-A:TYR:539:CE1:4875, V-A:TYR:539:C:4867, H-A:TYR:539:N:4870, V-A:PRO:540:N:4884, V-A:MET:535:CE:4835, V-B:TYR:531:CZ:9766, H-A:TYR:539:O:4868, V-A:ILE:538:CA:4860, V-A:TYR:539:CZ:4877, V-B:HIS:383:CD2:8363, V-B:HIS:383:CE1:8364, V-A:TYR:539:CE2:4876, V-A:TYR:539:CD2:4874, H-B:HIS:383:NE2:8365"]

$$$$
1n_Grossjean_2025
     RDKit          3D

 48 49  0  0  0  0  0  0  0  0999 V2000
  127.5130  139.3270   63.1980 C   0  0  0  0  0  0  0  0  0  0  0  0
  126.2490  138.6300   62.6840 C   0  0  0  0  0  0  0  0  0  0  0  0
  126.5070  138.0700   61.4020 O   0  0  0  0  0  0  0  0  0  0  0  0
  125.6830  137.1320   60.8680 C   0  0  0  0  0  0  0  0  0  0  0  0
  124.7940  137.3920   60.0530 O   0  0  0  0  0  0  0  0  0  0  0  0
  125.9700  135.7420   61.3600 C   0  0  0  0  0  0  0  0  0  0  0  0
  127.2740  135.3110   61.6490 C   0  0  0  0  0  0  0  0  0  0  0  0
  127.5060  134.0150   62.1000 C   0  0  0  0  0  0  0  0  0  0  0  0
  126.4470  133.1220   62.2640 C   0  0  0  0  0  0  0  0  0  0  0  0
  126.7950  131.8360   62.7200 N   0  0  0  0  0  0  0  0  0  0  0  0
  127.5230  131.4690   63.7960 C   0  0  0  0  0  0  0  0  0  0  0  0
  128.0290  132.2400   64.6120 O   0  0  0  0  0  0  0  0  0  0  0  0
  127.7110  129.9580   63.9860 C   0  0  0  0  0  0  0  0  0  0  0  0
  127.8700  129.1950   62.6540 C   0  0  0  0  0  0  0  0  0  0  0  0
  126.4010  128.2550   62.1430 S   0  0  0  0  0  0  0  0  0  0  0  0
  125.2500  129.4040   61.4200 C   0  0  0  0  0  0  0  0  0  0  0  0
  125.4010  129.5530   60.0800 N   0  0  0  0  0  0  0  0  0  0  0  0
  124.5670  130.3910   59.4200 C   0  0  0  0  0  0  0  0  0  0  0  0
  124.7890  130.4990   57.9240 C   0  0  0  0  0  0  0  0  0  0  0  0
  123.5630  131.1130   60.0620 C   0  0  0  0  0  0  0  0  0  0  0  0
  123.4130  130.9820   61.4470 C   0  0  0  0  0  0  0  0  0  0  0  0
  122.3140  131.7930   62.1320 C   0  0  0  0  0  0  0  0  0  0  0  0
  124.2750  130.1160   62.1580 C   0  0  0  0  0  0  0  0  0  0  0  0
  124.1690  130.0030   63.6130 C   0  0  0  0  0  0  0  0  0  0  0  0
  124.0840  129.9160   64.7640 N   0  0  0  0  0  0  0  0  0  0  0  0
  125.1400  133.5480   61.9860 C   0  0  0  0  0  0  0  0  0  0  0  0
  124.9090  134.8460   61.5380 C   0  0  0  0  0  0  0  0  0  0  0  0
  127.5108  139.3258   64.2980 H   0  0  0  0  0  0  0  0  0  0  0  0
  128.4015  138.7913   62.8325 H   0  0  0  0  0  0  0  0  0  0  0  0
  127.5341  140.3643   62.8325 H   0  0  0  0  0  0  0  0  0  0  0  0
  125.9607  137.8306   63.3825 H   0  0  0  0  0  0  0  0  0  0  0  0
  125.4310  139.3614   62.6078 H   0  0  0  0  0  0  0  0  0  0  0  0
  128.1191  136.0028   61.5180 H   0  0  0  0  0  0  0  0  0  0  0  0
  128.5324  133.6923   62.3289 H   0  0  0  0  0  0  0  0  0  0  0  0
  126.4040  131.0840   62.1710 H   0  0  0  0  0  0  0  0  0  0  0  0
  128.6120  129.7912   64.5946 H   0  0  0  0  0  0  0  0  0  0  0  0
  126.8048  129.5742   64.4775 H   0  0  0  0  0  0  0  0  0  0  0  0
  128.1017  129.9258   61.8651 H   0  0  0  0  0  0  0  0  0  0  0  0
  128.6733  128.4597   62.8090 H   0  0  0  0  0  0  0  0  0  0  0  0
  125.7628  130.9728   57.7311 H   0  0  0  0  0  0  0  0  0  0  0  0
  124.7755  129.4937   57.4778 H   0  0  0  0  0  0  0  0  0  0  0  0
  123.9897  131.1089   57.4778 H   0  0  0  0  0  0  0  0  0  0  0  0
  122.8983  131.7760   59.4887 H   0  0  0  0  0  0  0  0  0  0  0  0
  122.4244  131.7115   63.2234 H   0  0  0  0  0  0  0  0  0  0  0  0
  122.3965  132.8483   61.8329 H   0  0  0  0  0  0  0  0  0  0  0  0
  121.3299  131.4030   61.8329 H   0  0  0  0  0  0  0  0  0  0  0  0
  124.2961  132.8557   62.1221 H   0  0  0  0  0  0  0  0  0  0  0  0
  123.8808  135.1713   61.3214 H   0  0  0  0  0  0  0  0  0  0  0  0
  1  2  1  0
  2  3  1  0
  3  4  1  0
  4  5  2  0
  4  6  1  0
  6  7  2  0
  7  8  1  0
  8  9  2  0
  9 10  1  0
 10 11  1  0
 11 12  2  0
 11 13  1  0
 13 14  1  0
 14 15  1  0
 15 16  1  0
 16 17  2  0
 17 18  1  0
 18 19  1  0
 18 20  2  0
 20 21  1  0
 21 22  1  0
 21 23  2  0
 23 24  1  0
 24 25  3  0
  9 26  1  0
 26 27  2  0
 27  6  1  0
 23 16  1  0
  1 28  1  0
  1 29  1  0
  1 30  1  0
  2 31  1  0
  2 32  1  0
  7 33  1  0
  8 34  1  0
 10 35  1  0
 13 36  1  0
 13 37  1  0
 14 38  1  0
 14 39  1  0
 19 40  1  0
 19 41  1  0
 19 42  1  0
 20 43  1  0
 22 44  1  0
 22 45  1  0
 22 46  1  0
 26 47  1  0
 27 48  1  0
M  END
>  <Binding energies>  (1) 
[-7.74]

>  <Ligand effiencies>  (1) 
[-0.2764285714285714]

>  <Interactions>  (1) 
["V-A:GLU:543:CD:4908, V-B:ASP:366:CB:8183, V-B:ASP:366:CG:8184, V-A:TYR:539:CD1:4873, V-B:GLY:454:CA:9020, V-B:LEU:475:CD2:9230, V-A:ALA:541:CB:4892, V-B:ILE:369:CG2:8208, H-B:ARG:545:NH2:9900, V-B:ILE:369:CG1:8209, V-A:TYR:539:CE1:4875, V-A:TYR:539:C:4867, V-B:ILE:369:CB:8207, H-B:TYR:484:OH:9319, H-B:GLY:454:N:9021, V-B:ASP:366:CA:8181, V-B:ARG:545:CZ:9898, H-B:ARG:545:NE:9896, V-B:LEU:475:CG:9228, V-B:PRO:482:CB:9297, V-B:LEU:475:CD1:9229, V-B:HIS:383:CD2:8363, V-B:HIS:383:CE1:8364, V-B:GLY:453:C:9013, H-B:HIS:383:NE2:8365, V-B:GLY:453:CA:9015, V-B:THR:477:CG2:9244"]

$$$$
1o_Grossjean_2025
     RDKit          3D

 45 46  0  0  0  0  0  0  0  0999 V2000
  127.1440  122.1670   55.3410 C   0  0  0  0  0  0  0  0  0  0  0  0
  126.0420  122.1130   56.2360 O   0  0  0  0  0  0  0  0  0  0  0  0
  125.6740  123.2020   56.9580 C   0  0  0  0  0  0  0  0  0  0  0  0
  124.9190  124.0800   56.5290 O   0  0  0  0  0  0  0  0  0  0  0  0
  126.2730  123.2320   58.3350 C   0  0  0  0  0  0  0  0  0  0  0  0
  125.5850  123.7690   59.4330 C   0  0  0  0  0  0  0  0  0  0  0  0
  126.1680  123.7790   60.6970 C   0  0  0  0  0  0  0  0  0  0  0  0
  127.4490  123.2600   60.8900 C   0  0  0  0  0  0  0  0  0  0  0  0
  127.9380  123.3120   62.2100 N   0  0  0  0  0  0  0  0  0  0  0  0
  128.8920  122.5660   62.8090 C   0  0  0  0  0  0  0  0  0  0  0  0
  129.5630  121.6940   62.2570 O   0  0  0  0  0  0  0  0  0  0  0  0
  129.1490  122.8860   64.2890 C   0  0  0  0  0  0  0  0  0  0  0  0
  130.2670  123.9260   64.5050 C   0  0  0  0  0  0  0  0  0  0  0  0
  130.0860  125.4240   63.4930 S   0  0  0  0  0  0  0  0  0  0  0  0
  130.9560  125.1770   61.9580 C   0  0  0  0  0  0  0  0  0  0  0  0
  130.1620  125.2860   60.8630 N   0  0  0  0  0  0  0  0  0  0  0  0
  130.7160  125.1260   59.6380 C   0  0  0  0  0  0  0  0  0  0  0  0
  129.7700  125.2770   58.4620 C   0  0  0  0  0  0  0  0  0  0  0  0
  132.0680  124.8410   59.4560 C   0  0  0  0  0  0  0  0  0  0  0  0
  132.8900  124.7010   60.5790 C   0  0  0  0  0  0  0  0  0  0  0  0
  134.3660  124.3750   60.3530 C   0  0  0  0  0  0  0  0  0  0  0  0
  132.3330  124.8600   61.8680 C   0  0  0  0  0  0  0  0  0  0  0  0
  133.1660  124.6580   63.0560 C   0  0  0  0  0  0  0  0  0  0  0  0
  133.8260  124.5000   63.9940 N   0  0  0  0  0  0  0  0  0  0  0  0
  128.1410  122.7160   59.7970 C   0  0  0  0  0  0  0  0  0  0  0  0
  127.5560  122.7060   58.5340 C   0  0  0  0  0  0  0  0  0  0  0  0
  128.0810  122.2129   55.9154 H   0  0  0  0  0  0  0  0  0  0  0  0
  127.1461  121.2679   54.7073 H   0  0  0  0  0  0  0  0  0  0  0  0
  127.0582  123.0620   54.7073 H   0  0  0  0  0  0  0  0  0  0  0  0
  124.5765  124.1857   59.2941 H   0  0  0  0  0  0  0  0  0  0  0  0
  125.6149  124.1991   61.5500 H   0  0  0  0  0  0  0  0  0  0  0  0
  127.5210  124.0360   62.7760 H   0  0  0  0  0  0  0  0  0  0  0  0
  128.2193  123.2772   64.7278 H   0  0  0  0  0  0  0  0  0  0  0  0
  129.4756  121.9529   64.7713 H   0  0  0  0  0  0  0  0  0  0  0  0
  130.2648  124.2217   65.5645 H   0  0  0  0  0  0  0  0  0  0  0  0
  131.2101  123.4481   64.2014 H   0  0  0  0  0  0  0  0  0  0  0  0
  128.7473  125.4402   58.8327 H   0  0  0  0  0  0  0  0  0  0  0  0
  130.0799  126.1370   57.8502 H   0  0  0  0  0  0  0  0  0  0  0  0
  129.7968  124.3632   57.8502 H   0  0  0  0  0  0  0  0  0  0  0  0
  132.4828  124.7278   58.4435 H   0  0  0  0  0  0  0  0  0  0  0  0
  134.8698  124.2637   61.3245 H   0  0  0  0  0  0  0  0  0  0  0  0
  134.4515  123.4363   59.7859 H   0  0  0  0  0  0  0  0  0  0  0  0
  134.8389  125.1903   59.7859 H   0  0  0  0  0  0  0  0  0  0  0  0
  129.1480  122.2966   59.9387 H   0  0  0  0  0  0  0  0  0  0  0  0
  128.1073  122.2803   57.6826 H   0  0  0  0  0  0  0  0  0  0  0  0
  1  2  1  0
  2  3  1  0
  3  4  2  0
  3  5  1  0
  5  6  2  0
  6  7  1  0
  7  8  2  0
  8  9  1  0
  9 10  1  0
 10 11  2  0
 10 12  1  0
 12 13  1  0
 13 14  1  0
 14 15  1  0
 15 16  2  0
 16 17  1  0
 17 18  1  0
 17 19  2  0
 19 20  1  0
 20 21  1  0
 20 22  2  0
 22 23  1  0
 23 24  3  0
  8 25  1  0
 25 26  2  0
 26  5  1  0
 22 15  1  0
  1 27  1  0
  1 28  1  0
  1 29  1  0
  6 30  1  0
  7 31  1  0
  9 32  1  0
 12 33  1  0
 12 34  1  0
 13 35  1  0
 13 36  1  0
 18 37  1  0
 18 38  1  0
 18 39  1  0
 19 40  1  0
 21 41  1  0
 21 42  1  0
 21 43  1  0
 25 44  1  0
 26 45  1  0
M  END
>  <Binding energies>  (1) 
[-7.31]

>  <Ligand effiencies>  (1) 
[-0.2707407407407407]

>  <Interactions>  (1) 
["V-B:TYR:539:CE2:9848, V-B:LEU:363:CD1:8160, V-B:MET:535:CE:9807, V-B:PRO:540:CB:9857, V-A:ILE:369:CG2:3237, V-B:TYR:539:CZ:9849, V-B:TYR:539:CD2:9846, V-B:TYR:539:CG:9844, V-B:TYR:539:CE1:9847, H-B:TYR:539:N:9842, V-B:PRO:540:CA:9855, V-B:GLU:543:CG:9879, V-B:GLU:543:CD:9880, V-B:ALA:541:CB:9864, H-B:GLU:543:OE1:9881, V-A:ILE:369:CD1:3239, H-A:ARG:545:NH2:4928, V-A:ASP:366:CB:3212, V-B:PRO:540:N:9856, V-B:TYR:539:CD1:9845, V-B:TYR:539:C:9839, V-A:ASP:366:CG:3213, V-A:ARG:545:CZ:4926, H-A:GLY:454:N:4050, H-A:TYR:484:OH:4348, V-B:ILE:538:CA:9832, V-A:ASP:366:CA:3210, V-B:ILE:538:C:9830, V-A:ILE:369:CB:3236"]

$$$$
1p_Grossjean_2025
     RDKit          3D

 35 36  0  0  0  0  0  0  0  0999 V2000
  125.6620  130.4710   57.9090 C   0  0  0  0  0  0  0  0  0  0  0  0
  125.2090  131.2230   59.1470 C   0  0  0  0  0  0  0  0  0  0  0  0
  124.0620  130.8500   59.8460 C   0  0  0  0  0  0  0  0  0  0  0  0
  123.6830  131.5880   60.9730 C   0  0  0  0  0  0  0  0  0  0  0  0
  122.4150  131.1720   61.7150 C   0  0  0  0  0  0  0  0  0  0  0  0
  124.4760  132.6850   61.3790 C   0  0  0  0  0  0  0  0  0  0  0  0
  124.0760  133.5020   62.5250 C   0  0  0  0  0  0  0  0  0  0  0  0
  123.7580  134.1470   63.4330 N   0  0  0  0  0  0  0  0  0  0  0  0
  125.6370  132.9770   60.6220 C   0  0  0  0  0  0  0  0  0  0  0  0
  126.7480  134.3130   61.0000 S   0  0  0  0  0  0  0  0  0  0  0  0
  127.7970  133.7520   62.3730 C   0  0  0  0  0  0  0  0  0  0  0  0
  128.5670  132.4520   62.0760 C   0  0  0  0  0  0  0  0  0  0  0  0
  129.6080  132.5970   60.9550 C   0  0  0  0  0  0  0  0  0  0  0  0
  130.8070  132.6150   61.2390 O   0  0  0  0  0  0  0  0  0  0  0  0
  129.1090  132.6830   59.7020 N   0  0  0  0  0  0  0  0  0  0  0  0
  129.8250  132.8180   58.5200 C   0  0  0  0  0  0  0  0  0  0  0  0
  131.0670  132.2190   58.3090 C   0  0  0  0  0  0  0  0  0  0  0  0
  131.4320  132.5910   57.0350 C   0  0  0  0  0  0  0  0  0  0  0  0
  130.4630  133.3740   56.5070 O   0  0  0  0  0  0  0  0  0  0  0  0
  129.4490  133.5120   57.4580 N   0  0  0  0  0  0  0  0  0  0  0  0
  125.9840  132.2680   59.5180 N   0  0  0  0  0  0  0  0  0  0  0  0
  126.2080  129.5647   58.2098 H   0  0  0  0  0  0  0  0  0  0  0  0
  124.7838  130.1882   57.3099 H   0  0  0  0  0  0  0  0  0  0  0  0
  126.3225  131.1151   57.3099 H   0  0  0  0  0  0  0  0  0  0  0  0
  123.4634  129.9880   59.5164 H   0  0  0  0  0  0  0  0  0  0  0  0
  122.5894  131.2292   62.7996 H   0  0  0  0  0  0  0  0  0  0  0  0
  121.5911  131.8469   61.4400 H   0  0  0  0  0  0  0  0  0  0  0  0
  122.1511  130.1402   61.4400 H   0  0  0  0  0  0  0  0  0  0  0  0
  128.5269  134.5437   62.5977 H   0  0  0  0  0  0  0  0  0  0  0  0
  127.1290  133.5419   63.2213 H   0  0  0  0  0  0  0  0  0  0  0  0
  129.0855  132.1373   62.9937 H   0  0  0  0  0  0  0  0  0  0  0  0
  127.8291  131.7098   61.7374 H   0  0  0  0  0  0  0  0  0  0  0  0
  128.1050  132.6570   59.6010 H   0  0  0  0  0  0  0  0  0  0  0  0
  131.6323  131.5864   59.0091 H   0  0  0  0  0  0  0  0  0  0  0  0
  132.3629  132.2984   56.5272 H   0  0  0  0  0  0  0  0  0  0  0  0
  1  2  1  0
  2  3  2  0
  3  4  1  0
  4  5  1  0
  4  6  2  0
  6  7  1  0
  7  8  3  0
  6  9  1  0
  9 10  1  0
 10 11  1  0
 11 12  1  0
 12 13  1  0
 13 14  2  0
 13 15  1  0
 15 16  1  0
 16 17  1  0
 17 18  2  0
 18 19  1  0
 19 20  1  0
  9 21  2  0
 21  2  1  0
 20 16  2  0
  1 22  1  0
  1 23  1  0
  1 24  1  0
  3 25  1  0
  5 26  1  0
  5 27  1  0
  5 28  1  0
 11 29  1  0
 11 30  1  0
 12 31  1  0
 12 32  1  0
 15 33  1  0
 17 34  1  0
 18 35  1  0
M  END
>  <Binding energies>  (1) 
[-6.86]

>  <Ligand effiencies>  (1) 
[-0.3118181818181818]

>  <Interactions>  (1) 
["V-B:ASP:366:CB:8183, V-B:ASP:366:CG:8184, V-A:TYR:539:CD1:4873, V-B:GLY:454:CA:9020, V-A:LEU:363:CD1:3189, V-A:ILE:538:CB:4862, V-B:LEU:475:CD2:9230, V-A:ALA:541:CB:4892, V-A:PRO:540:CA:4883, V-B:ILE:369:CG2:8208, V-A:PRO:540:CB:4885, V-B:ILE:369:CG1:8209, V-A:TYR:539:CE1:4875, V-A:TYR:539:C:4867, H-A:TYR:539:N:4870, V-B:ILE:369:CB:8207, V-A:PRO:540:N:4884, H-B:GLY:454:N:9021, V-A:PRO:540:C:4881, V-B:ASP:366:CA:8181, H-A:ALA:541:N:4891, V-A:PRO:540:CD:4887, V-B:GLY:453:CA:9015"]

$$$$
1q_Grossjean_2025
     RDKit          3D

 38 38  0  0  0  0  0  0  0  0999 V2000
  128.3680  133.1150   56.0650 C   0  0  0  0  0  0  0  0  0  0  0  0
  129.1550  133.3510   57.2230 O   0  0  0  0  0  0  0  0  0  0  0  0
  130.4920  133.1290   57.2050 C   0  0  0  0  0  0  0  0  0  0  0  0
  131.2500  133.4010   56.2720 O   0  0  0  0  0  0  0  0  0  0  0  0
  131.0340  132.4490   58.4800 C   0  0  0  0  0  0  0  0  0  0  0  0
  129.9880  132.1850   59.4790 N   0  0  0  0  0  0  0  0  0  0  0  0
  130.1720  132.1020   60.8110 C   0  0  0  0  0  0  0  0  0  0  0  0
  131.2710  132.2440   61.3490 O   0  0  0  0  0  0  0  0  0  0  0  0
  128.9130  131.8310   61.6480 C   0  0  0  0  0  0  0  0  0  0  0  0
  128.6560  132.8670   62.7600 C   0  0  0  0  0  0  0  0  0  0  0  0
  128.2270  134.5180   62.1310 S   0  0  0  0  0  0  0  0  0  0  0  0
  126.4780  134.5610   61.7980 C   0  0  0  0  0  0  0  0  0  0  0  0
  125.8470  133.3930   62.0790 N   0  0  0  0  0  0  0  0  0  0  0  0
  124.5140  133.3030   61.8640 C   0  0  0  0  0  0  0  0  0  0  0  0
  123.8830  131.9610   62.1850 C   0  0  0  0  0  0  0  0  0  0  0  0
  123.7580  134.3670   61.3770 C   0  0  0  0  0  0  0  0  0  0  0  0
  124.3920  135.5840   61.1080 C   0  0  0  0  0  0  0  0  0  0  0  0
  123.5380  136.7410   60.5910 C   0  0  0  0  0  0  0  0  0  0  0  0
  125.7830  135.7030   61.3260 C   0  0  0  0  0  0  0  0  0  0  0  0
  126.4540  136.9850   61.1050 C   0  0  0  0  0  0  0  0  0  0  0  0
  126.9800  138.0010   60.9290 N   0  0  0  0  0  0  0  0  0  0  0  0
  127.3546  132.8111   56.3661 H   0  0  0  0  0  0  0  0  0  0  0  0
  128.3119  134.0358   55.4659 H   0  0  0  0  0  0  0  0  0  0  0  0
  128.8278  132.3152   55.4659 H   0  0  0  0  0  0  0  0  0  0  0  0
  131.4979  131.4926   58.1970 H   0  0  0  0  0  0  0  0  0  0  0  0
  131.7595  133.1378   58.9373 H   0  0  0  0  0  0  0  0  0  0  0  0
  129.0580  132.0310   59.1160 H   0  0  0  0  0  0  0  0  0  0  0  0
  128.0445  131.8275   60.9729 H   0  0  0  0  0  0  0  0  0  0  0  0
  129.0692  130.8639   62.1482 H   0  0  0  0  0  0  0  0  0  0  0  0
  127.8262  132.5068   63.3859 H   0  0  0  0  0  0  0  0  0  0  0  0
  129.5929  132.9710   63.3270 H   0  0  0  0  0  0  0  0  0  0  0  0
  123.8239  131.8353   63.2762 H   0  0  0  0  0  0  0  0  0  0  0  0
  122.8711  131.9196   61.7558 H   0  0  0  0  0  0  0  0  0  0  0  0
  124.4966  131.1552   61.7558 H   0  0  0  0  0  0  0  0  0  0  0  0
  122.6775  134.2514   61.2065 H   0  0  0  0  0  0  0  0  0  0  0  0
  123.1247  137.3009   61.4429 H   0  0  0  0  0  0  0  0  0  0  0  0
  124.1599  137.4108   59.9790 H   0  0  0  0  0  0  0  0  0  0  0  0
  122.7147  136.3441   59.9790 H   0  0  0  0  0  0  0  0  0  0  0  0
  1  2  1  0
  2  3  1  0
  3  4  2  0
  3  5  1  0
  5  6  1  0
  6  7  1  0
  7  8  2  0
  7  9  1  0
  9 10  1  0
 10 11  1  0
 11 12  1  0
 12 13  2  0
 13 14  1  0
 14 15  1  0
 14 16  2  0
 16 17  1  0
 17 18  1  0
 17 19  2  0
 19 20  1  0
 20 21  3  0
 19 12  1  0
  1 22  1  0
  1 23  1  0
  1 24  1  0
  5 25  1  0
  5 26  1  0
  6 27  1  0
  9 28  1  0
  9 29  1  0
 10 30  1  0
 10 31  1  0
 15 32  1  0
 15 33  1  0
 15 34  1  0
 16 35  1  0
 18 36  1  0
 18 37  1  0
 18 38  1  0
M  END
>  <Binding energies>  (1) 
[-6.68]

>  <Ligand effiencies>  (1) 
[-0.30363636363636365]

>  <Interactions>  (1) 
["V-A:TYR:539:CD1:4873, V-A:ILE:538:CB:4862, V-B:LEU:475:CD2:9230, V-A:ALA:541:CB:4892, V-A:PRO:540:CA:4883, V-B:ILE:369:CG2:8208, V-A:PRO:540:CB:4885, V-A:TYR:539:CE1:4875, V-A:TYR:539:C:4867, H-A:TYR:539:N:4870, V-A:PRO:540:N:4884, V-A:MET:535:CE:4835, H-A:ALA:541:N:4891, V-A:PRO:540:CD:4887, V-A:ILE:538:CA:4860, V-A:TYR:539:CZ:4877, V-A:TYR:539:CG:4872, V-B:SER:385:CA:8378, V-B:HIS:383:CD2:8363, V-B:SER:385:CB:8380, V-A:TYR:539:CE2:4876, V-A:TYR:539:CB:4871, V-B:LEU:373:CD1:8251, V-A:TYR:539:CD2:4874, H-B:HIS:383:NE2:8365, V-B:VAL:384:C:8368"]

$$$$
2a_Ghoteimi_2023
     RDKit          3D

 85 90  0  0  0  0  0  0  0  0999 V2000
  129.0350  125.2490   55.2750 C   0  0  0  0  0  0  0  0  0  0  0  0
  128.0790  124.7520   56.3640 C   0  0  0  0  0  0  0  0  0  0  0  0
  127.6690  123.4250   56.0620 O   0  0  0  0  0  0  0  0  0  0  0  0
  126.8770  122.7240   56.9140 C   0  0  0  0  0  0  0  0  0  0  0  0
  125.9820  121.9610   56.5370 O   0  0  0  0  0  0  0  0  0  0  0  0
  127.2030  122.9650   58.3600 C   0  0  0  0  0  0  0  0  0  0  0  0
  128.4260  122.5680   58.9210 C   0  0  0  0  0  0  0  0  0  0  0  0
  128.6970  122.8080   60.2650 C   0  0  0  0  0  0  0  0  0  0  0  0
  127.7580  123.4500   61.0740 C   0  0  0  0  0  0  0  0  0  0  0  0
  128.1350  123.6370   62.4180 N   0  0  0  0  0  0  0  0  0  0  0  0
  129.2270  123.1950   63.0790 C   0  0  0  0  0  0  0  0  0  0  0  0
  130.1030  122.4750   62.6000 O   0  0  0  0  0  0  0  0  0  0  0  0
  129.3140  123.6210   64.5510 C   0  0  0  0  0  0  0  0  0  0  0  0
  130.5750  124.8900   64.8950 S   0  0  0  0  0  0  0  0  0  0  0  0
  129.6900  126.2750   65.5720 C   0  0  0  0  0  0  0  0  0  0  0  0
  129.7410  126.3510   66.9230 N   0  0  0  0  0  0  0  0  0  0  0  0
  129.0950  127.3600   67.5590 C   0  0  0  0  0  0  0  0  0  0  0  0
  129.1870  127.3740   69.0510 C   0  0  0  0  0  0  0  0  0  0  0  0
  128.1040  126.9840   69.8490 C   0  0  0  0  0  0  0  0  0  0  0  0
  128.1910  127.0100   71.2380 C   0  0  0  0  0  0  0  0  0  0  0  0
  129.3670  127.4210   71.8820 C   0  0  0  0  0  0  0  0  0  0  0  0
  129.4300  127.4710   73.2790 N   0  0  0  0  0  0  0  0  0  0  0  0
  128.8640  128.6060   74.0350 C   0  0  0  0  0  0  0  0  0  0  0  0
  128.6980  128.3290   75.5440 C   0  0  0  0  0  0  0  0  0  0  0  0
  129.9350  127.9130   76.1010 O   0  0  0  0  0  0  0  0  0  0  0  0
  130.4020  126.7210   75.4910 C   0  0  0  0  0  0  0  0  0  0  0  0
  130.6210  126.9470   73.9810 C   0  0  0  0  0  0  0  0  0  0  0  0
  130.4460  127.8230   71.0780 C   0  0  0  0  0  0  0  0  0  0  0  0
  130.3590  127.7940   69.6900 C   0  0  0  0  0  0  0  0  0  0  0  0
  128.3890  128.3310   66.8440 C   0  0  0  0  0  0  0  0  0  0  0  0
  128.3220  128.2730   65.4450 C   0  0  0  0  0  0  0  0  0  0  0  0
  127.5450  129.3400   64.7430 C   0  0  0  0  0  0  0  0  0  0  0  0
  128.2070  130.4270   64.1660 C   0  0  0  0  0  0  0  0  0  0  0  0
  127.4910  131.4350   63.5280 C   0  0  0  0  0  0  0  0  0  0  0  0
  126.0910  131.3860   63.4450 C   0  0  0  0  0  0  0  0  0  0  0  0
  125.3520  132.3970   62.8250 N   0  0  0  0  0  0  0  0  0  0  0  0
  123.9230  132.1710   62.5290 C   0  0  0  0  0  0  0  0  0  0  0  0
  123.1520  133.4710   62.2170 C   0  0  0  0  0  0  0  0  0  0  0  0
  123.7830  134.1680   61.1540 O   0  0  0  0  0  0  0  0  0  0  0  0
  125.1200  134.5180   61.4760 C   0  0  0  0  0  0  0  0  0  0  0  0
  125.9430  133.2470   61.7730 C   0  0  0  0  0  0  0  0  0  0  0  0
  125.4340  130.2980   64.0380 C   0  0  0  0  0  0  0  0  0  0  0  0
  126.1500  129.2900   64.6770 C   0  0  0  0  0  0  0  0  0  0  0  0
  128.9960  127.2180   64.7820 C   0  0  0  0  0  0  0  0  0  0  0  0
  129.0090  127.1370   63.3180 C   0  0  0  0  0  0  0  0  0  0  0  0
  129.0170  127.0740   62.1620 N   0  0  0  0  0  0  0  0  0  0  0  0
  126.5300  123.8420   60.5220 C   0  0  0  0  0  0  0  0  0  0  0  0
  126.2600  123.6030   59.1770 C   0  0  0  0  0  0  0  0  0  0  0  0
  129.9179  125.7080   55.7438 H   0  0  0  0  0  0  0  0  0  0  0  0
  129.3510  124.4010   54.6496 H   0  0  0  0  0  0  0  0  0  0  0  0
  128.5225  125.9948   54.6496 H   0  0  0  0  0  0  0  0  0  0  0  0
  128.5921  124.7652   57.3369 H   0  0  0  0  0  0  0  0  0  0  0  0
  127.1974  125.4084   56.4067 H   0  0  0  0  0  0  0  0  0  0  0  0
  129.1761  122.0635   58.2943 H   0  0  0  0  0  0  0  0  0  0  0  0
  129.6588  122.4892   60.6930 H   0  0  0  0  0  0  0  0  0  0  0  0
  127.4680  124.1610   62.9640 H   0  0  0  0  0  0  0  0  0  0  0  0
  128.3340  124.0196   64.8521 H   0  0  0  0  0  0  0  0  0  0  0  0
  129.6066  122.7260   65.1197 H   0  0  0  0  0  0  0  0  0  0  0  0
  127.1706  126.6522   69.3708 H   0  0  0  0  0  0  0  0  0  0  0  0
  127.3232  126.7032   71.8403 H   0  0  0  0  0  0  0  0  0  0  0  0
  129.5318  129.4715   73.9128 H   0  0  0  0  0  0  0  0  0  0  0  0
  127.8577  128.7900   73.6307 H   0  0  0  0  0  0  0  0  0  0  0  0
  128.3623  129.2473   76.0480 H   0  0  0  0  0  0  0  0  0  0  0  0
  127.9530  127.5320   75.6845 H   0  0  0  0  0  0  0  0  0  0  0  0
  131.3535  126.4234   75.9558 H   0  0  0  0  0  0  0  0  0  0  0  0
  129.6523  125.9283   75.6307 H   0  0  0  0  0  0  0  0  0  0  0  0
  131.4436  127.6661   73.8533 H   0  0  0  0  0  0  0  0  0  0  0  0
  130.8485  125.9657   73.5390 H   0  0  0  0  0  0  0  0  0  0  0  0
  131.3761  128.1668   71.5541 H   0  0  0  0  0  0  0  0  0  0  0  0
  131.2239  128.1057   69.0860 H   0  0  0  0  0  0  0  0  0  0  0  0
  127.8827  129.1459   67.3822 H   0  0  0  0  0  0  0  0  0  0  0  0
  129.3042  130.4863   64.2167 H   0  0  0  0  0  0  0  0  0  0  0  0
  128.0306  132.2834   63.0818 H   0  0  0  0  0  0  0  0  0  0  0  0
  123.8481  131.5029   61.6583 H   0  0  0  0  0  0  0  0  0  0  0  0
  123.4692  131.7307   63.4291 H   0  0  0  0  0  0  0  0  0  0  0  0
  122.1205  133.2218   61.9273 H   0  0  0  0  0  0  0  0  0  0  0  0
  123.1448  134.1096   63.1126 H   0  0  0  0  0  0  0  0  0  0  0  0
  125.5706  135.0533   60.6273 H   0  0  0  0  0  0  0  0  0  0  0  0
  125.1191  135.1632   62.3669 H   0  0  0  0  0  0  0  0  0  0  0  0
  126.0172  132.6559   60.8483 H   0  0  0  0  0  0  0  0  0  0  0  0
  126.9275  133.5760   62.1371 H   0  0  0  0  0  0  0  0  0  0  0  0
  124.3363  130.2405   63.9974 H   0  0  0  0  0  0  0  0  0  0  0  0
  125.6128  128.4461   65.1344 H   0  0  0  0  0  0  0  0  0  0  0  0
  125.7785  124.3393   61.1528 H   0  0  0  0  0  0  0  0  0  0  0  0
  125.2960  123.9184   58.7512 H   0  0  0  0  0  0  0  0  0  0  0  0
  1  2  1  0
  2  3  1  0
  3  4  1  0
  4  5  2  0
  4  6  1  0
  6  7  2  0
  7  8  1  0
  8  9  2  0
  9 10  1  0
 10 11  1  0
 11 12  2  0
 11 13  1  0
 13 14  1  0
 14 15  1  0
 15 16  2  0
 16 17  1  0
 17 18  1  0
 18 19  2  0
 19 20  1  0
 20 21  2  0
 21 22  1  0
 22 23  1  0
 23 24  1  0
 24 25  1  0
 25 26  1  0
 26 27  1  0
 21 28  1  0
 28 29  2  0
 17 30  2  0
 30 31  1  0
 31 32  1  0
 32 33  2  0
 33 34  1  0
 34 35  2  0
 35 36  1  0
 36 37  1  0
 37 38  1  0
 38 39  1  0
 39 40  1  0
 40 41  1  0
 35 42  1  0
 42 43  2  0
 31 44  2  0
 44 45  1  0
 45 46  3  0
  9 47  1  0
 47 48  2  0
 48  6  1  0
 44 15  1  0
 29 18  1  0
 43 32  1  0
 27 22  1  0
 41 36  1  0
  1 49  1  0
  1 50  1  0
  1 51  1  0
  2 52  1  0
  2 53  1  0
  7 54  1  0
  8 55  1  0
 10 56  1  0
 13 57  1  0
 13 58  1  0
 19 59  1  0
 20 60  1  0
 23 61  1  0
 23 62  1  0
 24 63  1  0
 24 64  1  0
 26 65  1  0
 26 66  1  0
 27 67  1  0
 27 68  1  0
 28 69  1  0
 29 70  1  0
 30 71  1  0
 33 72  1  0
 34 73  1  0
 37 74  1  0
 37 75  1  0
 38 76  1  0
 38 77  1  0
 40 78  1  0
 40 79  1  0
 41 80  1  0
 41 81  1  0
 42 82  1  0
 43 83  1  0
 47 84  1  0
 48 85  1  0
M  END
>  <Binding energies>  (1) 
[-11.64]

>  <Ligand effiencies>  (1) 
[-0.23755102040816328]

>  <Interactions>  (1) 
["H-A:LYS:547:NZ:4951, V-B:GLU:543:C:9874, V-A:GLU:543:CD:4908, V-A:GLU:543:C:4902, V-A:HIS:456:CE1:4070, V-A:GLU:543:CB:4906, V-B:HIS:456:CE1:9041, V-A:GLY:544:C:4912, V-B:HIS:456:CD2:9039, V-B:GLU:543:CB:9878, V-B:TYR:539:CE2:9848, V-B:PRO:540:CB:9857, V-B:TYR:539:CZ:9849, V-B:TYR:539:CD2:9846, V-B:TYR:539:CG:9844, V-B:TYR:539:CE1:9847, H-B:TYR:539:N:9842, V-B:PRO:540:CA:9855, V-A:HIS:456:CD2:4068, V-B:GLU:543:CG:9879, V-B:GLU:543:CD:9880, V-A:GLU:543:CG:4907, V-B:ALA:541:CB:9864, H-B:GLU:543:OE1:9881, V-A:TYR:539:CD1:4873, V-B:GLY:454:CA:9020, V-B:LEU:475:CD2:9230, V-B:ILE:369:CG2:8208, V-B:PRO:540:N:9856, V-B:ILE:369:CG1:8209, V-A:TYR:539:CE1:4875, V-B:TYR:539:C:9839, V-B:PRO:540:CD:9859, H-A:TYR:484:OH:4348"]

$$$$
2a_Grossjean_2025
     RDKit          3D

 45 46  0  0  0  0  0  0  0  0999 V2000
  131.8900  131.4140   55.9190 C   0  0  0  0  0  0  0  0  0  0  0  0
  131.9790  132.6180   56.8620 C   0  0  0  0  0  0  0  0  0  0  0  0
  130.8620  133.4720   56.6410 O   0  0  0  0  0  0  0  0  0  0  0  0
  129.7700  133.0350   55.9610 C   0  0  0  0  0  0  0  0  0  0  0  0
  129.7140  132.9770   54.7300 O   0  0  0  0  0  0  0  0  0  0  0  0
  128.6460  132.6090   56.8610 C   0  0  0  0  0  0  0  0  0  0  0  0
  127.5290  131.9140   56.3740 C   0  0  0  0  0  0  0  0  0  0  0  0
  126.5030  131.5350   57.2350 C   0  0  0  0  0  0  0  0  0  0  0  0
  126.5660  131.8470   58.5930 C   0  0  0  0  0  0  0  0  0  0  0  0
  125.4670  131.4270   59.3660 N   0  0  0  0  0  0  0  0  0  0  0  0
  124.1480  131.4410   59.0780 C   0  0  0  0  0  0  0  0  0  0  0  0
  123.6480  131.8710   58.0390 O   0  0  0  0  0  0  0  0  0  0  0  0
  123.2290  130.8670   60.1630 C   0  0  0  0  0  0  0  0  0  0  0  0
  123.0050  131.9870   61.5840 S   0  0  0  0  0  0  0  0  0  0  0  0
  124.2410  133.2800   61.5360 C   0  0  0  0  0  0  0  0  0  0  0  0
  123.8100  134.4910   61.0990 N   0  0  0  0  0  0  0  0  0  0  0  0
  124.6930  135.5120   61.0240 C   0  0  0  0  0  0  0  0  0  0  0  0
  124.1430  136.8250   60.5010 C   0  0  0  0  0  0  0  0  0  0  0  0
  126.0300  135.3750   61.3860 C   0  0  0  0  0  0  0  0  0  0  0  0
  126.4970  134.1350   61.8490 C   0  0  0  0  0  0  0  0  0  0  0  0
  127.9790  134.0010   62.2470 C   0  0  0  0  0  0  0  0  0  0  0  0
  128.5910  135.1800   62.1340 F   0  0  0  0  0  0  0  0  0  0  0  0
  128.0750  133.5800   63.5090 F   0  0  0  0  0  0  0  0  0  0  0  0
  128.6410  133.1290   61.4810 F   0  0  0  0  0  0  0  0  0  0  0  0
  125.5810  133.0550   61.9290 C   0  0  0  0  0  0  0  0  0  0  0  0
  126.0150  131.7370   62.4020 C   0  0  0  0  0  0  0  0  0  0  0  0
  126.3570  130.6960   62.7760 N   0  0  0  0  0  0  0  0  0  0  0  0
  127.6830  132.5340   59.0890 C   0  0  0  0  0  0  0  0  0  0  0  0
  128.7110  132.9090   58.2280 C   0  0  0  0  0  0  0  0  0  0  0  0
  131.8216  130.4892   56.5106 H   0  0  0  0  0  0  0  0  0  0  0  0
  130.9965  131.5104   55.2846 H   0  0  0  0  0  0  0  0  0  0  0  0
  132.7879  131.3779   55.2846 H   0  0  0  0  0  0  0  0  0  0  0  0
  131.9740  132.2689   57.9051 H   0  0  0  0  0  0  0  0  0  0  0  0
  132.9098  133.1708   56.6671 H   0  0  0  0  0  0  0  0  0  0  0  0
  127.4634  131.6668   55.3042 H   0  0  0  0  0  0  0  0  0  0  0  0
  125.6355  130.9850   56.8412 H   0  0  0  0  0  0  0  0  0  0  0  0
  125.7210  131.0150   60.2510 H   0  0  0  0  0  0  0  0  0  0  0  0
  122.2436  130.6678   59.7166 H   0  0  0  0  0  0  0  0  0  0  0  0
  123.7049  129.9506   60.5420 H   0  0  0  0  0  0  0  0  0  0  0  0
  123.8718  137.4723   61.3480 H   0  0  0  0  0  0  0  0  0  0  0  0
  124.9075  137.3245   59.8878 H   0  0  0  0  0  0  0  0  0  0  0  0
  123.2507  136.6305   59.8878 H   0  0  0  0  0  0  0  0  0  0  0  0
  126.7154  136.2320   61.3098 H   0  0  0  0  0  0  0  0  0  0  0  0
  127.7473  132.7771   60.1599 H   0  0  0  0  0  0  0  0  0  0  0  0
  129.5842  133.4470   58.6256 H   0  0  0  0  0  0  0  0  0  0  0  0
  1  2  1  0
  2  3  1  0
  3  4  1  0
  4  5  2  0
  4  6  1  0
  6  7  2  0
  7  8  1  0
  8  9  2  0
  9 10  1  0
 10 11  1  0
 11 12  2  0
 11 13  1  0
 13 14  1  0
 14 15  1  0
 15 16  2  0
 16 17  1  0
 17 18  1  0
 17 19  2  0
 19 20  1  0
 20 21  1  0
 21 22  1  0
 21 23  1  0
 21 24  1  0
 20 25  2  0
 25 26  1  0
 26 27  3  0
  9 28  1  0
 28 29  2  0
 29  6  1  0
 25 15  1  0
  1 30  1  0
  1 31  1  0
  1 32  1  0
  2 33  1  0
  2 34  1  0
  7 35  1  0
  8 36  1  0
 10 37  1  0
 13 38  1  0
 13 39  1  0
 18 40  1  0
 18 41  1  0
 18 42  1  0
 19 43  1  0
 28 44  1  0
 29 45  1  0
M  END
>  <Binding energies>  (1) 
[-7.34]

>  <Ligand effiencies>  (1) 
[-0.24466666666666667]

>  <Interactions>  (1) 
["V-B:ASP:366:CB:8183, V-B:ASP:366:CG:8184, V-A:TYR:539:CD1:4873, V-A:LEU:363:CD1:3189, V-A:TYR:531:CE2:4793, V-A:ILE:538:CG2:4863, V-A:ILE:538:CB:4862, V-A:TYR:531:CZ:4794, V-B:LEU:475:CD2:9230, V-A:ALA:541:CB:4892, V-A:PRO:540:CA:4883, V-B:ILE:369:CG2:8208, V-A:PRO:540:CB:4885, V-B:ILE:369:CG1:8209, V-A:TYR:539:CE1:4875, V-A:TYR:539:C:4867, V-A:ALA:541:CA:4890, H-A:TYR:539:N:4870, V-B:ILE:369:CB:8207, V-A:MET:535:CE:4835, V-A:PRO:540:C:4881, V-B:ASP:366:CA:8181, V-A:PRO:540:CD:4887, V-A:ILE:538:CA:4860, V-A:TYR:539:CZ:4877, V-A:TYR:539:CG:4872, V-B:SER:385:CA:8378, V-B:HIS:383:CD2:8363, V-B:SER:385:CB:8380, V-A:ILE:538:C:4858, V-B:LEU:373:CD1:8251, H-A:TYR:539:OH:4878"]

$$$$
2aa_Ghoteimi_2023
     RDKit          3D

 85 90  0  0  0  0  0  0  0  0999 V2000
  128.3090  138.3540   61.9750 C   0  0  0  0  0  0  0  0  0  0  0  0
  126.8160  138.0280   62.0760 C   0  0  0  0  0  0  0  0  0  0  0  0
  126.3600  137.5210   60.8280 O   0  0  0  0  0  0  0  0  0  0  0  0
  125.2930  136.6830   60.7580 C   0  0  0  0  0  0  0  0  0  0  0  0
  124.2220  136.9890   60.2220 O   0  0  0  0  0  0  0  0  0  0  0  0
  125.5490  135.3430   61.3840 C   0  0  0  0  0  0  0  0  0  0  0  0
  124.5230  134.5960   61.9820 C   0  0  0  0  0  0  0  0  0  0  0  0
  124.7910  133.3540   62.5500 C   0  0  0  0  0  0  0  0  0  0  0  0
  126.0880  132.8370   62.5400 C   0  0  0  0  0  0  0  0  0  0  0  0
  126.2460  131.5720   63.1390 N   0  0  0  0  0  0  0  0  0  0  0  0
  125.3410  130.7970   63.7740 C   0  0  0  0  0  0  0  0  0  0  0  0
  124.1480  131.0730   63.9180 O   0  0  0  0  0  0  0  0  0  0  0  0
  125.9000  129.4730   64.3130 C   0  0  0  0  0  0  0  0  0  0  0  0
  127.3010  129.6130   64.5730 O   0  0  0  0  0  0  0  0  0  0  0  0
  128.0120  128.5660   65.1450 C   0  0  0  0  0  0  0  0  0  0  0  0
  128.1390  128.5440   66.5010 N   0  0  0  0  0  0  0  0  0  0  0  0
  128.8240  127.5330   67.0920 C   0  0  0  0  0  0  0  0  0  0  0  0
  128.9270  127.5770   68.5840 C   0  0  0  0  0  0  0  0  0  0  0  0
  130.0680  128.0940   69.2070 C   0  0  0  0  0  0  0  0  0  0  0  0
  130.1660  128.1430   70.5950 C   0  0  0  0  0  0  0  0  0  0  0  0
  129.1190  127.6900   71.4130 C   0  0  0  0  0  0  0  0  0  0  0  0
  129.2060  127.7210   72.8090 N   0  0  0  0  0  0  0  0  0  0  0  0
  128.0860  128.2080   73.6400 C   0  0  0  0  0  0  0  0  0  0  0  0
  128.4790  128.5040   75.1030 C   0  0  0  0  0  0  0  0  0  0  0  0
  129.0820  127.3610   75.6850 O   0  0  0  0  0  0  0  0  0  0  0  0
  130.2590  126.9830   74.9880 C   0  0  0  0  0  0  0  0  0  0  0  0
  129.9190  126.6410   73.5220 C   0  0  0  0  0  0  0  0  0  0  0  0
  127.9860  127.1540   70.7840 C   0  0  0  0  0  0  0  0  0  0  0  0
  127.8900  127.1020   69.3960 C   0  0  0  0  0  0  0  0  0  0  0  0
  129.4170  126.5210   66.3320 C   0  0  0  0  0  0  0  0  0  0  0  0
  129.3100  126.5260   64.9350 C   0  0  0  0  0  0  0  0  0  0  0  0
  129.9870  125.4310   64.1750 C   0  0  0  0  0  0  0  0  0  0  0  0
  129.2330  124.5040   63.4520 C   0  0  0  0  0  0  0  0  0  0  0  0
  129.8550  123.4700   62.7580 C   0  0  0  0  0  0  0  0  0  0  0  0
  131.2510  123.3250   62.7790 C   0  0  0  0  0  0  0  0  0  0  0  0
  131.8970  122.2970   62.0870 N   0  0  0  0  0  0  0  0  0  0  0  0
  133.3120  122.4120   61.6860 C   0  0  0  0  0  0  0  0  0  0  0  0
  133.9420  121.0690   61.2600 C   0  0  0  0  0  0  0  0  0  0  0  0
  133.1690  120.4770   60.2270 O   0  0  0  0  0  0  0  0  0  0  0  0
  131.8380  120.2240   60.6490 C   0  0  0  0  0  0  0  0  0  0  0  0
  131.1530  121.5450   61.0570 C   0  0  0  0  0  0  0  0  0  0  0  0
  132.0000  124.2640   63.5020 C   0  0  0  0  0  0  0  0  0  0  0  0
  131.3780  125.2980   64.1950 C   0  0  0  0  0  0  0  0  0  0  0  0
  128.5750  127.5700   64.3270 C   0  0  0  0  0  0  0  0  0  0  0  0
  128.3700  127.6300   62.8780 C   0  0  0  0  0  0  0  0  0  0  0  0
  128.2070  127.6760   61.7330 N   0  0  0  0  0  0  0  0  0  0  0  0
  127.1180  133.5740   61.9380 C   0  0  0  0  0  0  0  0  0  0  0  0
  126.8460  134.8150   61.3670 C   0  0  0  0  0  0  0  0  0  0  0  0
  128.7333  138.4466   62.9857 H   0  0  0  0  0  0  0  0  0  0  0  0
  128.8246  137.5473   61.4334 H   0  0  0  0  0  0  0  0  0  0  0  0
  128.4414  139.3022   61.4334 H   0  0  0  0  0  0  0  0  0  0  0  0
  126.6571  137.2726   62.8596 H   0  0  0  0  0  0  0  0  0  0  0  0
  126.2561  138.9402   62.3299 H   0  0  0  0  0  0  0  0  0  0  0  0
  123.4982  134.9953   62.0021 H   0  0  0  0  0  0  0  0  0  0  0  0
  123.9758  132.7760   63.0097 H   0  0  0  0  0  0  0  0  0  0  0  0
  127.1710  131.1810   63.0380 H   0  0  0  0  0  0  0  0  0  0  0  0
  125.3794  129.2084   65.2452 H   0  0  0  0  0  0  0  0  0  0  0  0
  125.7447  128.6802   63.5664 H   0  0  0  0  0  0  0  0  0  0  0  0
  130.8997  128.4672   68.5914 H   0  0  0  0  0  0  0  0  0  0  0  0
  131.0796  128.5436   71.0586 H   0  0  0  0  0  0  0  0  0  0  0  0
  127.6980  129.1341   73.1909 H   0  0  0  0  0  0  0  0  0  0  0  0
  127.3339  127.4057   73.6662 H   0  0  0  0  0  0  0  0  0  0  0  0
  129.1905  129.3426   75.1263 H   0  0  0  0  0  0  0  0  0  0  0  0
  127.5753  128.7647   75.6734 H   0  0  0  0  0  0  0  0  0  0  0  0
  130.9783  127.8149   75.0103 H   0  0  0  0  0  0  0  0  0  0  0  0
  130.6964  126.0977   75.4726 H   0  0  0  0  0  0  0  0  0  0  0  0
  130.8576  126.4330   72.9875 H   0  0  0  0  0  0  0  0  0  0  0  0
  129.2457  125.7714   73.5431 H   0  0  0  0  0  0  0  0  0  0  0  0
  127.1588  126.7680   71.3978 H   0  0  0  0  0  0  0  0  0  0  0  0
  126.9863  126.6816   68.9306 H   0  0  0  0  0  0  0  0  0  0  0  0
  129.9717  125.7148   66.8343 H   0  0  0  0  0  0  0  0  0  0  0  0
  128.1367  124.5919   63.4308 H   0  0  0  0  0  0  0  0  0  0  0  0
  129.2441  122.7567   62.1852 H   0  0  0  0  0  0  0  0  0  0  0  0
  133.3784  123.1117   60.8398 H   0  0  0  0  0  0  0  0  0  0  0  0
  133.8698  122.7667   62.5652 H   0  0  0  0  0  0  0  0  0  0  0  0
  134.9643  121.2457   60.8945 H   0  0  0  0  0  0  0  0  0  0  0  0
  133.9678  120.3911   62.1259 H   0  0  0  0  0  0  0  0  0  0  0  0
  131.2760  119.7620   59.8239 H   0  0  0  0  0  0  0  0  0  0  0  0
  131.8567  119.5450   61.5142 H   0  0  0  0  0  0  0  0  0  0  0  0
  131.0576  122.1790   60.1631 H   0  0  0  0  0  0  0  0  0  0  0  0
  130.1751  121.2843   61.4879 H   0  0  0  0  0  0  0  0  0  0  0  0
  133.0968  124.1821   63.5218 H   0  0  0  0  0  0  0  0  0  0  0  0
  131.9864  126.0168   64.7634 H   0  0  0  0  0  0  0  0  0  0  0  0
  128.1416  133.1717   61.9167 H   0  0  0  0  0  0  0  0  0  0  0  0
  127.6596  135.3871   60.8971 H   0  0  0  0  0  0  0  0  0  0  0  0
  1  2  1  0
  2  3  1  0
  3  4  1  0
  4  5  2  0
  4  6  1  0
  6  7  2  0
  7  8  1  0
  8  9  2  0
  9 10  1  0
 10 11  1  0
 11 12  2  0
 11 13  1  0
 13 14  1  0
 14 15  1  0
 15 16  2  0
 16 17  1  0
 17 18  1  0
 18 19  2  0
 19 20  1  0
 20 21  2  0
 21 22  1  0
 22 23  1  0
 23 24  1  0
 24 25  1  0
 25 26  1  0
 26 27  1  0
 21 28  1  0
 28 29  2  0
 17 30  2  0
 30 31  1  0
 31 32  1  0
 32 33  2  0
 33 34  1  0
 34 35  2  0
 35 36  1  0
 36 37  1  0
 37 38  1  0
 38 39  1  0
 39 40  1  0
 40 41  1  0
 35 42  1  0
 42 43  2  0
 31 44  2  0
 44 45  1  0
 45 46  3  0
  9 47  1  0
 47 48  2  0
 48  6  1  0
 44 15  1  0
 29 18  1  0
 43 32  1  0
 27 22  1  0
 41 36  1  0
  1 49  1  0
  1 50  1  0
  1 51  1  0
  2 52  1  0
  2 53  1  0
  7 54  1  0
  8 55  1  0
 10 56  1  0
 13 57  1  0
 13 58  1  0
 19 59  1  0
 20 60  1  0
 23 61  1  0
 23 62  1  0
 24 63  1  0
 24 64  1  0
 26 65  1  0
 26 66  1  0
 27 67  1  0
 27 68  1  0
 28 69  1  0
 29 70  1  0
 30 71  1  0
 33 72  1  0
 34 73  1  0
 37 74  1  0
 37 75  1  0
 38 76  1  0
 38 77  1  0
 40 78  1  0
 40 79  1  0
 41 80  1  0
 41 81  1  0
 42 82  1  0
 43 83  1  0
 47 84  1  0
 48 85  1  0
M  END
>  <Binding energies>  (1) 
[-11.52]

>  <Ligand effiencies>  (1) 
[-0.23510204081632652]

>  <Interactions>  (1) 
["H-A:LYS:547:NZ:4951, V-B:GLU:543:C:9874, V-A:GLU:543:CD:4908, V-A:GLU:543:C:4902, V-A:HIS:456:CE1:4070, V-A:GLU:543:CB:4906, V-B:HIS:456:CE1:9041, V-B:HIS:456:CD2:9039, V-B:GLU:543:CB:9878, V-B:TYR:539:CE2:9848, V-A:LEU:475:CD2:4259, V-A:ILE:369:CG2:3237, V-B:TYR:539:CD2:9846, H-B:LYS:547:NZ:9923, V-A:HIS:456:CD2:4068, V-B:GLU:543:CG:9879, V-B:GLU:543:CD:9880, V-A:GLU:543:CG:4907, V-A:GLU:543:CA:4904, V-A:ILE:369:CD1:3239, V-A:TYR:539:CD1:4873, V-B:LEU:475:CD2:9230, V-A:TYR:539:CE1:4875, V-A:TYR:539:C:4867, H-B:TYR:484:OH:9319, H-B:GLY:454:N:9021, H-A:SER:385:OG:3410, V-B:ARG:545:CZ:9898, V-B:LEU:475:CG:9228, V-B:PRO:482:CB:9297, V-B:HIS:383:CE1:8364, V-A:VAL:344:CG1:3001, V-A:SER:385:C:3405, V-A:SER:385:CB:3409, V-A:SER:385:CA:3407, H-B:HIS:383:NE2:8365"]

$$$$
2b_Ghoteimi_2023
     RDKit          3D

 72 77  0  0  0  0  0  0  0  0999 V2000
  128.2610  132.2580   65.1290 N   0  0  0  0  0  0  0  0  0  0  0  0
  128.0840  131.3820   64.3950 C   0  0  0  0  0  0  0  0  0  0  0  0
  127.8590  130.2680   63.4690 C   0  0  0  0  0  0  0  0  0  0  0  0
  127.9520  128.9270   63.9190 C   0  0  0  0  0  0  0  0  0  0  0  0
  128.2730  128.5450   65.3270 C   0  0  0  0  0  0  0  0  0  0  0  0
  128.9430  127.3500   65.5960 C   0  0  0  0  0  0  0  0  0  0  0  0
  129.2430  126.9880   66.9060 C   0  0  0  0  0  0  0  0  0  0  0  0
  128.8660  127.8040   67.9850 C   0  0  0  0  0  0  0  0  0  0  0  0
  129.1670  127.4680   69.3060 N   0  0  0  0  0  0  0  0  0  0  0  0
  130.1680  128.2680   70.0400 C   0  0  0  0  0  0  0  0  0  0  0  0
  130.6790  127.5790   71.3230 C   0  0  0  0  0  0  0  0  0  0  0  0
  129.5860  127.2340   72.1610 O   0  0  0  0  0  0  0  0  0  0  0  0
  128.6880  126.3460   71.5130 C   0  0  0  0  0  0  0  0  0  0  0  0
  128.1210  127.0090   70.2410 C   0  0  0  0  0  0  0  0  0  0  0  0
  128.1900  128.9990   67.7040 C   0  0  0  0  0  0  0  0  0  0  0  0
  127.8930  129.3630   66.3940 C   0  0  0  0  0  0  0  0  0  0  0  0
  127.7240  127.8970   62.9990 C   0  0  0  0  0  0  0  0  0  0  0  0
  127.3830  128.1930   61.6760 C   0  0  0  0  0  0  0  0  0  0  0  0
  127.1010  127.1300   60.6620 C   0  0  0  0  0  0  0  0  0  0  0  0
  126.6600  127.4670   59.3780 C   0  0  0  0  0  0  0  0  0  0  0  0
  126.4110  126.4850   58.4240 C   0  0  0  0  0  0  0  0  0  0  0  0
  126.5810  125.1230   58.7230 C   0  0  0  0  0  0  0  0  0  0  0  0
  126.3640  124.1260   57.7650 N   0  0  0  0  0  0  0  0  0  0  0  0
  127.4830  123.2630   57.3350 C   0  0  0  0  0  0  0  0  0  0  0  0
  127.2020  122.4940   56.0250 C   0  0  0  0  0  0  0  0  0  0  0  0
  126.0010  121.7480   56.1480 O   0  0  0  0  0  0  0  0  0  0  0  0
  124.8890  122.5910   56.4000 C   0  0  0  0  0  0  0  0  0  0  0  0
  125.1000  123.3650   57.7190 C   0  0  0  0  0  0  0  0  0  0  0  0
  127.0300  124.7900   60.0090 C   0  0  0  0  0  0  0  0  0  0  0  0
  127.2820  125.7740   60.9610 C   0  0  0  0  0  0  0  0  0  0  0  0
  127.2940  129.4770   61.2470 N   0  0  0  0  0  0  0  0  0  0  0  0
  127.5420  130.4900   62.1100 C   0  0  0  0  0  0  0  0  0  0  0  0
  127.3850  132.1050   61.3780 S   0  0  0  0  0  0  0  0  0  0  0  0
  129.0340  132.8690   61.3750 C   0  0  0  0  0  0  0  0  0  0  0  0
  129.7390  132.7130   60.0270 C   0  0  0  0  0  0  0  0  0  0  0  0
  130.8300  132.1420   59.9790 O   0  0  0  0  0  0  0  0  0  0  0  0
  129.0870  133.2350   58.9660 N   0  0  0  0  0  0  0  0  0  0  0  0
  129.4920  133.2220   57.6390 C   0  0  0  0  0  0  0  0  0  0  0  0
  128.6290  132.9380   56.5820 C   0  0  0  0  0  0  0  0  0  0  0  0
  129.4050  133.0270   55.4510 C   0  0  0  0  0  0  0  0  0  0  0  0
  130.6710  133.3490   55.8070 O   0  0  0  0  0  0  0  0  0  0  0  0
  130.7140  133.4720   57.1980 N   0  0  0  0  0  0  0  0  0  0  0  0
  129.2359  126.6897   64.7664 H   0  0  0  0  0  0  0  0  0  0  0  0
  129.7831  126.0494   67.0989 H   0  0  0  0  0  0  0  0  0  0  0  0
  131.0258  128.4487   69.3755 H   0  0  0  0  0  0  0  0  0  0  0  0
  129.6764  129.2032   70.3463 H   0  0  0  0  0  0  0  0  0  0  0  0
  131.2307  126.6671   71.0510 H   0  0  0  0  0  0  0  0  0  0  0  0
  131.3419  128.2709   71.8632 H   0  0  0  0  0  0  0  0  0  0  0  0
  129.2216  125.4245   71.2372 H   0  0  0  0  0  0  0  0  0  0  0  0
  127.8600  126.1057   72.1961 H   0  0  0  0  0  0  0  0  0  0  0  0
  127.4839  126.2785   69.7209 H   0  0  0  0  0  0  0  0  0  0  0  0
  127.5569  127.8976   70.5606 H   0  0  0  0  0  0  0  0  0  0  0  0
  127.8897  129.6591   68.5311 H   0  0  0  0  0  0  0  0  0  0  0  0
  127.3549  130.3020   66.1971 H   0  0  0  0  0  0  0  0  0  0  0  0
  127.8137  126.8484   63.3190 H   0  0  0  0  0  0  0  0  0  0  0  0
  126.5076  128.5250   59.1183 H   0  0  0  0  0  0  0  0  0  0  0  0
  126.0754  126.7802   57.4189 H   0  0  0  0  0  0  0  0  0  0  0  0
  128.3711  123.8943   57.1842 H   0  0  0  0  0  0  0  0  0  0  0  0
  127.6333  122.5119   58.1244 H   0  0  0  0  0  0  0  0  0  0  0  0
  127.1025  123.2104   55.1962 H   0  0  0  0  0  0  0  0  0  0  0  0
  128.0359  121.8052   55.8247 H   0  0  0  0  0  0  0  0  0  0  0  0
  124.7793  123.3064   55.5716 H   0  0  0  0  0  0  0  0  0  0  0  0
  123.9814  121.9752   56.4844 H   0  0  0  0  0  0  0  0  0  0  0  0
  124.2653  124.0703   57.8451 H   0  0  0  0  0  0  0  0  0  0  0  0
  125.1446  122.6187   58.5259 H   0  0  0  0  0  0  0  0  0  0  0  0
  127.1858  123.7329   60.2701 H   0  0  0  0  0  0  0  0  0  0  0  0
  127.6286  125.4819   61.9633 H   0  0  0  0  0  0  0  0  0  0  0  0
  128.9284  133.9410   61.5979 H   0  0  0  0  0  0  0  0  0  0  0  0
  129.6437  132.3606   62.1364 H   0  0  0  0  0  0  0  0  0  0  0  0
  128.1900  133.6640   59.1400 H   0  0  0  0  0  0  0  0  0  0  0  0
  127.5578  132.6950   56.6404 H   0  0  0  0  0  0  0  0  0  0  0  0
  129.0538  132.8629   54.4216 H   0  0  0  0  0  0  0  0  0  0  0  0
  1  2  3  0
  2  3  1  0
  3  4  2  0
  4  5  1  0
  5  6  2  0
  6  7  1  0
  7  8  2  0
  8  9  1  0
  9 10  1  0
 10 11  1  0
 11 12  1  0
 12 13  1  0
 13 14  1  0
  8 15  1  0
 15 16  2  0
  4 17  1  0
 17 18  2  0
 18 19  1  0
 19 20  2  0
 20 21  1  0
 21 22  2  0
 22 23  1  0
 23 24  1  0
 24 25  1  0
 25 26  1  0
 26 27  1  0
 27 28  1  0
 22 29  1  0
 29 30  2  0
 18 31  1  0
 31 32  2  0
 32 33  1  0
 33 34  1  0
 34 35  1  0
 35 36  2  0
 35 37  1  0
 37 38  1  0
 38 39  1  0
 39 40  2  0
 40 41  1  0
 41 42  1  0
 32  3  1  0
 42 38  2  0
 16  5  1  0
 30 19  1  0
 14  9  1  0
 28 23  1  0
  6 43  1  0
  7 44  1  0
 10 45  1  0
 10 46  1  0
 11 47  1  0
 11 48  1  0
 13 49  1  0
 13 50  1  0
 14 51  1  0
 14 52  1  0
 15 53  1  0
 16 54  1  0
 17 55  1  0
 20 56  1  0
 21 57  1  0
 24 58  1  0
 24 59  1  0
 25 60  1  0
 25 61  1  0
 27 62  1  0
 27 63  1  0
 28 64  1  0
 28 65  1  0
 29 66  1  0
 30 67  1  0
 34 68  1  0
 34 69  1  0
 37 70  1  0
 39 71  1  0
 40 72  1  0
M  END
>  <Binding energies>  (1) 
[-11.82]

>  <Ligand effiencies>  (1) 
[-0.27488372093023256]

>  <Interactions>  (1) 
["V-B:GLU:543:C:9874, V-A:GLU:543:CD:4908, V-A:GLU:543:C:4902, V-A:HIS:456:CE1:4070, V-A:GLU:543:CB:4906, V-B:HIS:456:CE1:9041, V-A:GLY:544:C:4912, V-B:GLU:543:CB:9878, V-B:TYR:539:CE2:9848, V-B:LEU:363:CD1:8160, V-B:MET:535:CE:9807, V-B:PRO:540:CB:9857, V-B:ASP:366:CG:8184, V-B:TYR:539:CZ:9849, V-B:TYR:539:CG:9844, V-B:TYR:539:CE1:9847, H-B:TYR:539:N:9842, V-B:PRO:540:CA:9855, V-B:TYR:484:CE2:9317, V-A:HIS:456:CD2:4068, V-B:TYR:484:CZ:9318, V-B:GLU:543:CG:9879, V-B:GLU:543:CD:9880, V-A:GLU:543:CG:4907, V-A:TYR:539:CD1:4873, V-A:ILE:538:CG2:4863, V-A:ILE:538:CB:4862, V-A:PRO:540:CA:4883, V-A:PRO:540:CB:4885, V-B:PRO:540:N:9856, V-A:TYR:539:CE1:4875, V-A:TYR:539:C:4867, H-A:TYR:539:N:4870, V-B:TYR:539:CD1:9845, V-A:PRO:540:N:4884, H-B:TYR:484:OH:9319, V-B:PRO:540:CD:9859, V-A:MET:535:CE:4835, V-A:PRO:540:C:4881, H-A:TYR:539:O:4868, V-A:ILE:538:CA:4860, V-A:TYR:539:CZ:4877, V-A:TYR:539:CG:4872, V-A:TYR:539:CE2:4876, V-A:ILE:538:C:4858, V-A:TYR:539:CA:4869, V-B:ILE:538:CG2:9835, V-A:TYR:539:CD2:4874, V-B:PRO:540:CG:9858"]

$$$$
2b_Grossjean_2025
     RDKit          3D

 42 43  0  0  0  0  0  0  0  0999 V2000
  131.8820  132.5320   57.1070 C   0  0  0  0  0  0  0  0  0  0  0  0
  130.8620  133.4340   56.7010 O   0  0  0  0  0  0  0  0  0  0  0  0
  129.7890  133.0030   55.9900 C   0  0  0  0  0  0  0  0  0  0  0  0
  129.7530  132.9850   54.7550 O   0  0  0  0  0  0  0  0  0  0  0  0
  128.6470  132.5530   56.8540 C   0  0  0  0  0  0  0  0  0  0  0  0
  128.6500  132.7380   58.2450 C   0  0  0  0  0  0  0  0  0  0  0  0
  127.5760  132.3080   59.0180 C   0  0  0  0  0  0  0  0  0  0  0  0
  126.4770  131.6910   58.4210 C   0  0  0  0  0  0  0  0  0  0  0  0
  125.4490  131.2900   59.2960 N   0  0  0  0  0  0  0  0  0  0  0  0
  124.1100  131.3720   59.1480 C   0  0  0  0  0  0  0  0  0  0  0  0
  123.5290  131.8630   58.1790 O   0  0  0  0  0  0  0  0  0  0  0  0
  123.2880  130.8130   60.3130 C   0  0  0  0  0  0  0  0  0  0  0  0
  123.0210  132.0250   61.6490 S   0  0  0  0  0  0  0  0  0  0  0  0
  124.2430  133.3260   61.5460 C   0  0  0  0  0  0  0  0  0  0  0  0
  123.7790  134.5400   61.1560 N   0  0  0  0  0  0  0  0  0  0  0  0
  124.6490  135.5700   61.0510 C   0  0  0  0  0  0  0  0  0  0  0  0
  124.0530  136.8890   60.5980 C   0  0  0  0  0  0  0  0  0  0  0  0
  126.0050  135.4390   61.3350 C   0  0  0  0  0  0  0  0  0  0  0  0
  126.5060  134.1940   61.7470 C   0  0  0  0  0  0  0  0  0  0  0  0
  128.0080  134.0670   62.0620 C   0  0  0  0  0  0  0  0  0  0  0  0
  128.5590  135.2790   62.1560 F   0  0  0  0  0  0  0  0  0  0  0  0
  128.1820  133.4230   63.2170 F   0  0  0  0  0  0  0  0  0  0  0  0
  128.6780  133.3940   61.1230 F   0  0  0  0  0  0  0  0  0  0  0  0
  125.6060  133.1040   61.8550 C   0  0  0  0  0  0  0  0  0  0  0  0
  126.0750  131.7800   62.2740 C   0  0  0  0  0  0  0  0  0  0  0  0
  126.4460  130.7350   62.6060 N   0  0  0  0  0  0  0  0  0  0  0  0
  126.4680  131.4950   57.0320 C   0  0  0  0  0  0  0  0  0  0  0  0
  127.5440  131.9250   56.2600 C   0  0  0  0  0  0  0  0  0  0  0  0
  131.9232  132.4955   58.2056 H   0  0  0  0  0  0  0  0  0  0  0  0
  131.6612  131.5283   56.7148 H   0  0  0  0  0  0  0  0  0  0  0  0
  132.8512  132.8739   56.7148 H   0  0  0  0  0  0  0  0  0  0  0  0
  129.5086  133.2271   58.7283 H   0  0  0  0  0  0  0  0  0  0  0  0
  127.5939  132.4558   60.1079 H   0  0  0  0  0  0  0  0  0  0  0  0
  125.7760  130.9320   60.1810 H   0  0  0  0  0  0  0  0  0  0  0  0
  122.3078  130.4947   59.9285 H   0  0  0  0  0  0  0  0  0  0  0  0
  123.8557  129.9737   60.7411 H   0  0  0  0  0  0  0  0  0  0  0  0
  123.7814  137.4902   61.4782 H   0  0  0  0  0  0  0  0  0  0  0  0
  124.7912  137.4366   59.9936 H   0  0  0  0  0  0  0  0  0  0  0  0
  123.1542  136.6969   59.9936 H   0  0  0  0  0  0  0  0  0  0  0  0
  126.6783  136.3034   61.2375 H   0  0  0  0  0  0  0  0  0  0  0  0
  125.6101  131.0012   56.5523 H   0  0  0  0  0  0  0  0  0  0  0  0
  127.5281  131.7699   55.1711 H   0  0  0  0  0  0  0  0  0  0  0  0
  1  2  1  0
  2  3  1  0
  3  4  2  0
  3  5  1  0
  5  6  2  0
  6  7  1  0
  7  8  2  0
  8  9  1  0
  9 10  1  0
 10 11  2  0
 10 12  1  0
 12 13  1  0
 13 14  1  0
 14 15  2  0
 15 16  1  0
 16 17  1  0
 16 18  2  0
 18 19  1  0
 19 20  1  0
 20 21  1  0
 20 22  1  0
 20 23  1  0
 19 24  2  0
 24 25  1  0
 25 26  3  0
  8 27  1  0
 27 28  2  0
 28  5  1  0
 24 14  1  0
  1 29  1  0
  1 30  1  0
  1 31  1  0
  6 32  1  0
  7 33  1  0
  9 34  1  0
 12 35  1  0
 12 36  1  0
 17 37  1  0
 17 38  1  0
 17 39  1  0
 18 40  1  0
 27 41  1  0
 28 42  1  0
M  END
>  <Binding energies>  (1) 
[-7.23]

>  <Ligand effiencies>  (1) 
[-0.2493103448275862]

>  <Interactions>  (1) 
["V-B:ASP:366:CB:8183, V-B:ASP:366:CG:8184, V-A:TYR:539:CD1:4873, V-A:LEU:363:CD1:3189, V-A:ILE:538:CG2:4863, V-A:ILE:538:CB:4862, V-B:LEU:475:CD2:9230, V-A:ALA:541:CB:4892, V-A:PRO:540:CA:4883, V-B:ILE:369:CG2:8208, V-A:PRO:540:CB:4885, V-B:ILE:369:CG1:8209, V-A:TYR:539:CE1:4875, V-A:TYR:539:C:4867, V-A:ALA:541:CA:4890, H-A:TYR:539:N:4870, V-B:ILE:369:CB:8207, V-A:PRO:540:N:4884, V-A:MET:535:CE:4835, V-A:PRO:540:C:4881, V-B:ASP:366:CA:8181, V-A:PRO:540:CD:4887, V-A:ILE:538:CA:4860, V-A:TYR:539:CZ:4877, V-B:SER:385:CA:8378, V-B:HIS:383:CD2:8363, V-B:SER:385:CB:8380, V-A:ILE:538:C:4858, V-B:LEU:373:CD1:8251, H-A:TYR:539:OH:4878"]

$$$$
2c_Ghoteimi_2023
     RDKit          3D

 72 77  0  0  0  0  0  0  0  0999 V2000
  128.0430  132.6010   64.7430 N   0  0  0  0  0  0  0  0  0  0  0  0
  127.8960  131.6960   64.0380 C   0  0  0  0  0  0  0  0  0  0  0  0
  127.7100  130.5450   63.1490 C   0  0  0  0  0  0  0  0  0  0  0  0
  127.8100  129.2230   63.6490 C   0  0  0  0  0  0  0  0  0  0  0  0
  128.1080  128.8930   65.0750 C   0  0  0  0  0  0  0  0  0  0  0  0
  127.8690  129.8350   66.0780 C   0  0  0  0  0  0  0  0  0  0  0  0
  128.1400  129.5340   67.4100 C   0  0  0  0  0  0  0  0  0  0  0  0
  128.6710  128.2870   67.7750 C   0  0  0  0  0  0  0  0  0  0  0  0
  128.9310  127.9560   69.1070 N   0  0  0  0  0  0  0  0  0  0  0  0
  128.0470  126.9980   69.8000 C   0  0  0  0  0  0  0  0  0  0  0  0
  128.2050  127.0230   71.3350 C   0  0  0  0  0  0  0  0  0  0  0  0
  129.5630  126.8040   71.6870 O   0  0  0  0  0  0  0  0  0  0  0  0
  130.4130  127.8030   71.1450 C   0  0  0  0  0  0  0  0  0  0  0  0
  130.3120  127.8000   69.6050 C   0  0  0  0  0  0  0  0  0  0  0  0
  128.9110  127.3500   66.7600 C   0  0  0  0  0  0  0  0  0  0  0  0
  128.6380  127.6500   65.4290 C   0  0  0  0  0  0  0  0  0  0  0  0
  127.6200  128.1570   62.7600 C   0  0  0  0  0  0  0  0  0  0  0  0
  127.3120  128.4010   61.4180 C   0  0  0  0  0  0  0  0  0  0  0  0
  127.0830  127.2990   60.4330 C   0  0  0  0  0  0  0  0  0  0  0  0
  127.1520  125.9600   60.8310 C   0  0  0  0  0  0  0  0  0  0  0  0
  126.9340  124.9300   59.9200 C   0  0  0  0  0  0  0  0  0  0  0  0
  126.6500  125.2010   58.5720 C   0  0  0  0  0  0  0  0  0  0  0  0
  126.4040  124.1780   57.6500 N   0  0  0  0  0  0  0  0  0  0  0  0
  127.5130  123.3140   57.1960 C   0  0  0  0  0  0  0  0  0  0  0  0
  127.1880  122.5060   55.9220 C   0  0  0  0  0  0  0  0  0  0  0  0
  126.0050  121.7490   56.1160 O   0  0  0  0  0  0  0  0  0  0  0  0
  124.8920  122.5840   56.3940 C   0  0  0  0  0  0  0  0  0  0  0  0
  125.1490  123.3990   57.6800 C   0  0  0  0  0  0  0  0  0  0  0  0
  126.5700  126.5450   58.1810 C   0  0  0  0  0  0  0  0  0  0  0  0
  126.7860  127.5750   59.0930 C   0  0  0  0  0  0  0  0  0  0  0  0
  127.2140  129.6690   60.9410 N   0  0  0  0  0  0  0  0  0  0  0  0
  127.4240  130.7150   61.7750 C   0  0  0  0  0  0  0  0  0  0  0  0
  127.2670  132.2990   60.9820 S   0  0  0  0  0  0  0  0  0  0  0  0
  128.0700  132.1770   59.3550 C   0  0  0  0  0  0  0  0  0  0  0  0
  129.5950  132.1950   59.4650 C   0  0  0  0  0  0  0  0  0  0  0  0
  130.2680  132.5150   58.4840 O   0  0  0  0  0  0  0  0  0  0  0  0
  130.0970  131.8410   60.6680 N   0  0  0  0  0  0  0  0  0  0  0  0
  131.4360  131.7920   61.0270 C   0  0  0  0  0  0  0  0  0  0  0  0
  131.9590  131.9750   62.2190 N   0  0  0  0  0  0  0  0  0  0  0  0
  133.2710  131.8500   62.1970 C   0  0  0  0  0  0  0  0  0  0  0  0
  133.8410  131.5590   60.9610 C   0  0  0  0  0  0  0  0  0  0  0  0
  132.5800  131.4440   59.7710 S   0  0  0  0  0  0  0  0  0  0  0  0
  127.4634  130.8227   65.8134 H   0  0  0  0  0  0  0  0  0  0  0  0
  127.9350  130.2844   68.1877 H   0  0  0  0  0  0  0  0  0  0  0  0
  127.0037  127.2432   69.5522 H   0  0  0  0  0  0  0  0  0  0  0  0
  128.3276  125.9903   69.4596 H   0  0  0  0  0  0  0  0  0  0  0  0
  127.8827  128.0023   71.7185 H   0  0  0  0  0  0  0  0  0  0  0  0
  127.5852  126.2277   71.7748 H   0  0  0  0  0  0  0  0  0  0  0  0
  130.1087  128.7881   71.5285 H   0  0  0  0  0  0  0  0  0  0  0  0
  131.4518  127.5936   71.4401 H   0  0  0  0  0  0  0  0  0  0  0  0
  130.9192  128.6298   69.2143 H   0  0  0  0  0  0  0  0  0  0  0  0
  130.6733  126.8206   69.2581 H   0  0  0  0  0  0  0  0  0  0  0  0
  129.3212  126.3630   67.0198 H   0  0  0  0  0  0  0  0  0  0  0  0
  128.8413  126.9018   64.6487 H   0  0  0  0  0  0  0  0  0  0  0  0
  127.7137  127.1218   63.1199 H   0  0  0  0  0  0  0  0  0  0  0  0
  127.3818  125.7172   61.8790 H   0  0  0  0  0  0  0  0  0  0  0  0
  126.9852  123.8859   60.2623 H   0  0  0  0  0  0  0  0  0  0  0  0
  128.3869  123.9497   56.9906 H   0  0  0  0  0  0  0  0  0  0  0  0
  127.7030  122.5862   57.9986 H   0  0  0  0  0  0  0  0  0  0  0  0
  127.0436  123.1977   55.0790 H   0  0  0  0  0  0  0  0  0  0  0  0
  128.0223  121.8226   55.7054 H   0  0  0  0  0  0  0  0  0  0  0  0
  124.7349  123.2735   55.5515 H   0  0  0  0  0  0  0  0  0  0  0  0
  123.9987  121.9581   56.5366 H   0  0  0  0  0  0  0  0  0  0  0  0
  124.3107  124.0969   57.8219 H   0  0  0  0  0  0  0  0  0  0  0  0
  125.2391  122.6769   58.5049 H   0  0  0  0  0  0  0  0  0  0  0  0
  126.3324  126.7902   57.1353 H   0  0  0  0  0  0  0  0  0  0  0  0
  126.7224  128.6201   58.7558 H   0  0  0  0  0  0  0  0  0  0  0  0
  127.7598  131.2368   58.8757 H   0  0  0  0  0  0  0  0  0  0  0  0
  127.7625  133.0486   58.7586 H   0  0  0  0  0  0  0  0  0  0  0  0
  129.4390  131.6070   61.3980 H   0  0  0  0  0  0  0  0  0  0  0  0
  133.8812  131.9690   63.1045 H   0  0  0  0  0  0  0  0  0  0  0  0
  134.9156  131.4237   60.7687 H   0  0  0  0  0  0  0  0  0  0  0  0
  1  2  3  0
  2  3  1  0
  3  4  2  0
  4  5  1  0
  5  6  2  0
  6  7  1  0
  7  8  2  0
  8  9  1  0
  9 10  1  0
 10 11  1  0
 11 12  1  0
 12 13  1  0
 13 14  1  0
  8 15  1  0
 15 16  2  0
  4 17  1  0
 17 18  2  0
 18 19  1  0
 19 20  2  0
 20 21  1  0
 21 22  2  0
 22 23  1  0
 23 24  1  0
 24 25  1  0
 25 26  1  0
 26 27  1  0
 27 28  1  0
 22 29  1  0
 29 30  2  0
 18 31  1  0
 31 32  2  0
 32 33  1  0
 33 34  1  0
 34 35  1  0
 35 36  2  0
 35 37  1  0
 37 38  1  0
 38 39  2  0
 39 40  1  0
 40 41  2  0
 41 42  1  0
 32  3  1  0
 42 38  1  0
 16  5  1  0
 30 19  1  0
 14  9  1  0
 28 23  1  0
  6 43  1  0
  7 44  1  0
 10 45  1  0
 10 46  1  0
 11 47  1  0
 11 48  1  0
 13 49  1  0
 13 50  1  0
 14 51  1  0
 14 52  1  0
 15 53  1  0
 16 54  1  0
 17 55  1  0
 20 56  1  0
 21 57  1  0
 24 58  1  0
 24 59  1  0
 25 60  1  0
 25 61  1  0
 27 62  1  0
 27 63  1  0
 28 64  1  0
 28 65  1  0
 29 66  1  0
 30 67  1  0
 34 68  1  0
 34 69  1  0
 37 70  1  0
 40 71  1  0
 41 72  1  0
M  END
>  <Binding energies>  (1) 
[-11.46]

>  <Ligand effiencies>  (1) 
[-0.26651162790697674]

>  <Interactions>  (1) 
["V-B:GLU:543:C:9874, V-A:GLU:543:CD:4908, V-A:GLU:543:C:4902, V-A:HIS:456:CE1:4070, V-A:GLU:543:CB:4906, V-B:HIS:456:CE1:9041, V-A:GLY:544:C:4912, V-B:GLU:543:CB:9878, V-B:TYR:539:CE2:9848, V-B:LEU:363:CD1:8160, V-B:MET:535:CE:9807, V-B:PRO:540:CB:9857, V-B:TYR:539:CZ:9849, V-B:TYR:539:CG:9844, V-B:TYR:539:CE1:9847, H-B:TYR:539:N:9842, V-B:PRO:540:CA:9855, V-B:TYR:484:CE2:9317, V-B:TYR:484:CZ:9318, V-B:GLU:543:CG:9879, V-B:GLU:543:CD:9880, V-A:GLU:543:CG:4907, V-A:TYR:539:CD1:4873, V-A:PRO:540:CA:4883, V-A:PRO:540:CB:4885, V-B:PRO:540:N:9856, V-A:TYR:539:CE1:4875, V-B:TYR:539:CD1:9845, H-B:TYR:484:OH:9319, V-B:PRO:540:CD:9859, V-A:ASP:366:CG:3213, H-A:ALA:541:N:4891, V-B:ILE:538:CA:9832, V-B:ILE:538:CG2:9835, V-A:ASN:362:CB:3176, V-A:ASN:362:C:3172, V-A:LEU:363:CA:3185, V-B:PRO:540:CG:9858"]

$$$$
2c_Grossjean_2025
     RDKit          3D

 40 41  0  0  0  0  0  0  0  0999 V2000
  131.8290  132.4320   55.7560 C   0  0  0  0  0  0  0  0  0  0  0  0
  131.0420  133.3740   56.4780 O   0  0  0  0  0  0  0  0  0  0  0  0
  130.4630  132.9930   57.6730 C   0  0  0  0  0  0  0  0  0  0  0  0
  131.2340  132.1850   58.5080 C   0  0  0  0  0  0  0  0  0  0  0  0
  130.7370  131.7490   59.7330 C   0  0  0  0  0  0  0  0  0  0  0  0
  129.4430  132.1140   60.1330 C   0  0  0  0  0  0  0  0  0  0  0  0
  128.8620  131.7380   61.3580 N   0  0  0  0  0  0  0  0  0  0  0  0
  129.3710  131.8550   62.6030 C   0  0  0  0  0  0  0  0  0  0  0  0
  130.4990  132.2810   62.8620 O   0  0  0  0  0  0  0  0  0  0  0  0
  128.4450  131.3710   63.7290 C   0  0  0  0  0  0  0  0  0  0  0  0
  127.4770  129.8670   63.3570 S   0  0  0  0  0  0  0  0  0  0  0  0
  126.1710  130.2710   62.2040 C   0  0  0  0  0  0  0  0  0  0  0  0
  126.5590  130.4440   60.9140 N   0  0  0  0  0  0  0  0  0  0  0  0
  125.6270  130.7600   59.9890 C   0  0  0  0  0  0  0  0  0  0  0  0
  126.1420  130.9540   58.5750 C   0  0  0  0  0  0  0  0  0  0  0  0
  124.2770  130.9080   60.3010 C   0  0  0  0  0  0  0  0  0  0  0  0
  123.8530  130.7260   61.6250 C   0  0  0  0  0  0  0  0  0  0  0  0
  122.3560  130.8910   61.9550 C   0  0  0  0  0  0  0  0  0  0  0  0
  122.1310  132.1070   62.4550 F   0  0  0  0  0  0  0  0  0  0  0  0
  121.6240  130.7340   60.8520 F   0  0  0  0  0  0  0  0  0  0  0  0
  121.9260  130.0020   62.8530 F   0  0  0  0  0  0  0  0  0  0  0  0
  124.8210  130.3990   62.6080 C   0  0  0  0  0  0  0  0  0  0  0  0
  124.4340  130.2000   64.0090 C   0  0  0  0  0  0  0  0  0  0  0  0
  124.1280  130.0420   65.1140 N   0  0  0  0  0  0  0  0  0  0  0  0
  128.6730  132.9350   59.3080 C   0  0  0  0  0  0  0  0  0  0  0  0
  129.1740  133.3690   58.0840 C   0  0  0  0  0  0  0  0  0  0  0  0
  132.3687  131.7860   56.4640 H   0  0  0  0  0  0  0  0  0  0  0  0
  131.1738  131.8154   55.1231 H   0  0  0  0  0  0  0  0  0  0  0  0
  132.5523  132.9671   55.1231 H   0  0  0  0  0  0  0  0  0  0  0  0
  132.2462  131.8889   58.1952 H   0  0  0  0  0  0  0  0  0  0  0  0
  131.3583  131.1190   60.3866 H   0  0  0  0  0  0  0  0  0  0  0  0
  127.9740  131.2640   61.2760 H   0  0  0  0  0  0  0  0  0  0  0  0
  129.0656  131.1648   64.6135 H   0  0  0  0  0  0  0  0  0  0  0  0
  127.7093  132.1743   63.8821 H   0  0  0  0  0  0  0  0  0  0  0  0
  127.1709  131.3416   58.6095 H   0  0  0  0  0  0  0  0  0  0  0  0
  126.1308  129.9900   58.0452 H   0  0  0  0  0  0  0  0  0  0  0  0
  125.4976  131.6710   58.0452 H   0  0  0  0  0  0  0  0  0  0  0  0
  123.5507  131.1652   59.5159 H   0  0  0  0  0  0  0  0  0  0  0  0
  127.6654  133.2406   59.6265 H   0  0  0  0  0  0  0  0  0  0  0  0
  128.5575  134.0093   57.4359 H   0  0  0  0  0  0  0  0  0  0  0  0
  1  2  1  0
  2  3  1  0
  3  4  2  0
  4  5  1  0
  5  6  2  0
  6  7  1  0
  7  8  1  0
  8  9  2  0
  8 10  1  0
 10 11  1  0
 11 12  1  0
 12 13  2  0
 13 14  1  0
 14 15  1  0
 14 16  2  0
 16 17  1  0
 17 18  1  0
 18 19  1  0
 18 20  1  0
 18 21  1  0
 17 22  2  0
 22 23  1  0
 23 24  3  0
  6 25  1  0
 25 26  2  0
 26  3  1  0
 22 12  1  0
  1 27  1  0
  1 28  1  0
  1 29  1  0
  4 30  1  0
  5 31  1  0
  7 32  1  0
 10 33  1  0
 10 34  1  0
 15 35  1  0
 15 36  1  0
 15 37  1  0
 16 38  1  0
 25 39  1  0
 26 40  1  0
M  END
>  <Binding energies>  (1) 
[-6.55]

>  <Ligand effiencies>  (1) 
[-0.24259259259259258]

>  <Interactions>  (1) 
["V-A:GLU:543:CD:4908, V-B:ASP:366:CB:8183, V-B:ASP:366:CG:8184, V-A:GLU:543:CG:4907, V-A:TYR:539:CD1:4873, V-B:GLY:454:CA:9020, V-A:LEU:363:CD1:3189, V-A:ILE:538:CG2:4863, V-A:ILE:538:CB:4862, V-A:PRO:540:CA:4883, V-B:ILE:369:CG2:8208, V-A:PRO:540:CB:4885, V-B:ILE:369:CG1:8209, V-A:TYR:539:CE1:4875, V-A:TYR:539:C:4867, H-A:TYR:539:N:4870, V-B:ILE:369:CB:8207, V-A:PRO:540:N:4884, H-B:TYR:484:OH:9319, H-B:GLY:454:N:9021, V-B:ASP:366:CA:8181, H-A:ALA:541:N:4891, V-B:ARG:545:CZ:9898, H-B:ARG:545:NE:9896, V-A:PRO:540:CD:4887, V-A:ILE:538:CA:4860, V-A:TYR:539:CG:4872, V-B:GLY:453:C:9013, V-B:ILE:369:CD1:8210, V-A:TYR:539:CA:4869, V-B:GLY:453:CA:9015, V-B:CYS:365:C:8175"]

$$$$
2d_Ghoteimi_2023
     RDKit          3D

 68 72  0  0  0  0  0  0  0  0999 V2000
  132.5570  131.4910   62.3850 C   0  0  0  0  0  0  0  0  0  0  0  0
  131.3140  132.1700   62.4830 O   0  0  0  0  0  0  0  0  0  0  0  0
  130.4540  132.1800   61.4440 C   0  0  0  0  0  0  0  0  0  0  0  0
  130.6220  131.5960   60.3700 O   0  0  0  0  0  0  0  0  0  0  0  0
  129.2060  133.0170   61.7620 C   0  0  0  0  0  0  0  0  0  0  0  0
  127.6790  132.1210   61.3160 S   0  0  0  0  0  0  0  0  0  0  0  0
  127.7290  130.5140   62.0820 C   0  0  0  0  0  0  0  0  0  0  0  0
  127.5110  129.4990   61.2100 N   0  0  0  0  0  0  0  0  0  0  0  0
  127.5140  128.2180   61.6580 C   0  0  0  0  0  0  0  0  0  0  0  0
  127.2490  127.1530   60.6420 C   0  0  0  0  0  0  0  0  0  0  0  0
  126.7730  127.4860   59.3690 C   0  0  0  0  0  0  0  0  0  0  0  0
  126.5240  126.5000   58.4180 C   0  0  0  0  0  0  0  0  0  0  0  0
  126.7530  125.1450   58.7030 C   0  0  0  0  0  0  0  0  0  0  0  0
  126.4910  124.1400   57.7650 N   0  0  0  0  0  0  0  0  0  0  0  0
  127.5650  123.2740   57.2400 C   0  0  0  0  0  0  0  0  0  0  0  0
  127.1670  122.4970   55.9680 C   0  0  0  0  0  0  0  0  0  0  0  0
  125.9860  121.7480   56.2090 O   0  0  0  0  0  0  0  0  0  0  0  0
  124.8990  122.5870   56.5620 C   0  0  0  0  0  0  0  0  0  0  0  0
  125.2320  123.3720   57.8490 C   0  0  0  0  0  0  0  0  0  0  0  0
  127.2170  124.8150   59.9840 C   0  0  0  0  0  0  0  0  0  0  0  0
  127.4640  125.8010   60.9350 C   0  0  0  0  0  0  0  0  0  0  0  0
  127.7430  127.9250   63.0050 C   0  0  0  0  0  0  0  0  0  0  0  0
  128.0040  128.9530   63.9200 C   0  0  0  0  0  0  0  0  0  0  0  0
  128.2670  128.5640   65.3380 C   0  0  0  0  0  0  0  0  0  0  0  0
  127.8580  129.3960   66.3810 C   0  0  0  0  0  0  0  0  0  0  0  0
  128.0880  129.0370   67.7060 C   0  0  0  0  0  0  0  0  0  0  0  0
  128.7380  127.8340   68.0260 C   0  0  0  0  0  0  0  0  0  0  0  0
  128.9670  127.4470   69.3490 N   0  0  0  0  0  0  0  0  0  0  0  0
  127.8560  127.0690   70.2440 C   0  0  0  0  0  0  0  0  0  0  0  0
  128.3170  126.3390   71.5230 C   0  0  0  0  0  0  0  0  0  0  0  0
  129.2780  127.1250   72.2110 O   0  0  0  0  0  0  0  0  0  0  0  0
  130.4220  127.3760   71.4100 C   0  0  0  0  0  0  0  0  0  0  0  0
  130.0140  128.1360   70.1290 C   0  0  0  0  0  0  0  0  0  0  0  0
  129.1290  126.9970   66.9720 C   0  0  0  0  0  0  0  0  0  0  0  0
  128.8980  127.3550   65.6470 C   0  0  0  0  0  0  0  0  0  0  0  0
  128.0040  130.2900   63.4510 C   0  0  0  0  0  0  0  0  0  0  0  0
  128.2910  131.3990   64.3660 C   0  0  0  0  0  0  0  0  0  0  0  0
  128.5180  132.2720   65.0920 N   0  0  0  0  0  0  0  0  0  0  0  0
  132.9408  131.2813   63.3943 H   0  0  0  0  0  0  0  0  0  0  0  0
  132.4160  130.5446   61.8424 H   0  0  0  0  0  0  0  0  0  0  0  0
  133.2772  132.1210   61.8424 H   0  0  0  0  0  0  0  0  0  0  0  0
  129.1890  133.2411   62.8388 H   0  0  0  0  0  0  0  0  0  0  0  0
  129.2498  133.9452   61.1734 H   0  0  0  0  0  0  0  0  0  0  0  0
  126.5930  128.5413   59.1161 H   0  0  0  0  0  0  0  0  0  0  0  0
  126.1417  126.7876   57.4275 H   0  0  0  0  0  0  0  0  0  0  0  0
  128.4355  123.9039   57.0044 H   0  0  0  0  0  0  0  0  0  0  0  0
  127.7860  122.5278   58.0174 H   0  0  0  0  0  0  0  0  0  0  0  0
  126.9872  123.2076   55.1479 H   0  0  0  0  0  0  0  0  0  0  0  0
  127.9814  121.8105   55.6934 H   0  0  0  0  0  0  0  0  0  0  0  0
  124.7053  123.2956   55.7433 H   0  0  0  0  0  0  0  0  0  0  0  0
  124.0077  121.9670   56.7385 H   0  0  0  0  0  0  0  0  0  0  0  0
  124.4094  124.0739   58.0507 H   0  0  0  0  0  0  0  0  0  0  0  0
  125.3585  122.6328   58.6537 H   0  0  0  0  0  0  0  0  0  0  0  0
  127.3887  123.7595   60.2419 H   0  0  0  0  0  0  0  0  0  0  0  0
  127.8333  125.5139   61.9306 H   0  0  0  0  0  0  0  0  0  0  0  0
  127.7181  126.8805   63.3490 H   0  0  0  0  0  0  0  0  0  0  0  0
  127.3491  130.3444   66.1539 H   0  0  0  0  0  0  0  0  0  0  0  0
  127.7558  129.7053   68.5141 H   0  0  0  0  0  0  0  0  0  0  0  0
  127.3200  127.9832   70.5389 H   0  0  0  0  0  0  0  0  0  0  0  0
  127.2145  126.3708   69.6863 H   0  0  0  0  0  0  0  0  0  0  0  0
  127.4497  126.1685   72.1778 H   0  0  0  0  0  0  0  0  0  0  0  0
  128.7701  125.3758   71.2456 H   0  0  0  0  0  0  0  0  0  0  0  0
  131.1400  127.9833   71.9807 H   0  0  0  0  0  0  0  0  0  0  0  0
  130.8835  126.4177   71.1295 H   0  0  0  0  0  0  0  0  0  0  0  0
  129.6382  129.1289   70.4170 H   0  0  0  0  0  0  0  0  0  0  0  0
  130.9071  128.1998   69.4900 H   0  0  0  0  0  0  0  0  0  0  0  0
  129.6265  126.0417   67.1956 H   0  0  0  0  0  0  0  0  0  0  0  0
  129.2142  126.6817   64.8367 H   0  0  0  0  0  0  0  0  0  0  0  0
  1  2  1  0
  2  3  1  0
  3  4  2  0
  3  5  1  0
  5  6  1  0
  6  7  1  0
  7  8  2  0
  8  9  1  0
  9 10  1  0
 10 11  2  0
 11 12  1  0
 12 13  2  0
 13 14  1  0
 14 15  1  0
 15 16  1  0
 16 17  1  0
 17 18  1  0
 18 19  1  0
 13 20  1  0
 20 21  2  0
  9 22  2  0
 22 23  1  0
 23 24  1  0
 24 25  2  0
 25 26  1  0
 26 27  2  0
 27 28  1  0
 28 29  1  0
 29 30  1  0
 30 31  1  0
 31 32  1  0
 32 33  1  0
 27 34  1  0
 34 35  2  0
 23 36  2  0
 36 37  1  0
 37 38  3  0
 36  7  1  0
 21 10  1  0
 35 24  1  0
 19 14  1  0
 33 28  1  0
  1 39  1  0
  1 40  1  0
  1 41  1  0
  5 42  1  0
  5 43  1  0
 11 44  1  0
 12 45  1  0
 15 46  1  0
 15 47  1  0
 16 48  1  0
 16 49  1  0
 18 50  1  0
 18 51  1  0
 19 52  1  0
 19 53  1  0
 20 54  1  0
 21 55  1  0
 22 56  1  0
 25 57  1  0
 26 58  1  0
 29 59  1  0
 29 60  1  0
 30 61  1  0
 30 62  1  0
 32 63  1  0
 32 64  1  0
 33 65  1  0
 33 66  1  0
 34 67  1  0
 35 68  1  0
M  END
>  <Binding energies>  (1) 
[-9.97]

>  <Ligand effiencies>  (1) 
[-0.2623684210526316]

>  <Interactions>  (1) 
["V-B:GLU:543:C:9874, V-A:GLU:543:CD:4908, V-A:GLU:543:C:4902, V-A:HIS:456:CE1:4070, V-A:GLU:543:CB:4906, V-B:HIS:456:CE1:9041, V-B:GLU:543:CB:9878, V-B:TYR:539:CE2:9848, V-B:LEU:363:CD1:8160, V-B:MET:535:CE:9807, V-B:PRO:540:CB:9857, V-B:TYR:539:CZ:9849, V-B:TYR:539:CG:9844, V-B:TYR:539:CE1:9847, H-B:TYR:539:N:9842, V-B:PRO:540:CA:9855, V-A:HIS:456:CD2:4068, V-B:TYR:484:CZ:9318, V-B:GLU:543:CG:9879, V-B:GLU:543:CD:9880, V-A:GLU:543:CG:4907, V-A:ALA:541:CB:4892, V-A:PRO:540:CA:4883, V-A:PRO:540:CB:4885, V-B:PRO:540:N:9856, V-B:TYR:539:CD1:9845, H-B:TYR:484:OH:9319, V-B:PRO:540:CD:9859, V-A:PRO:540:C:4881, H-A:ALA:541:N:4891, V-B:ILE:538:CA:9832, V-B:ILE:538:CG2:9835, V-A:ASN:362:CB:3176, V-B:PRO:540:CG:9858"]

$$$$
2d_Grossjean_2025
     RDKit          3D

 36 37  0  0  0  0  0  0  0  0999 V2000
  129.2190  122.7380   61.2770 C   0  0  0  0  0  0  0  0  0  0  0  0
  129.0810  123.3900   59.9150 C   0  0  0  0  0  0  0  0  0  0  0  0
  128.2100  122.8880   58.9510 C   0  0  0  0  0  0  0  0  0  0  0  0
  128.1140  123.5300   57.7070 C   0  0  0  0  0  0  0  0  0  0  0  0
  127.1380  122.9660   56.6570 C   0  0  0  0  0  0  0  0  0  0  0  0
  127.7500  122.8570   55.4770 F   0  0  0  0  0  0  0  0  0  0  0  0
  126.7070  121.7610   57.0330 F   0  0  0  0  0  0  0  0  0  0  0  0
  126.0640  123.7390   56.4820 F   0  0  0  0  0  0  0  0  0  0  0  0
  128.9200  124.6730   57.4700 C   0  0  0  0  0  0  0  0  0  0  0  0
  128.8230  125.4060   56.2040 C   0  0  0  0  0  0  0  0  0  0  0  0
  128.7450  125.9850   55.2060 N   0  0  0  0  0  0  0  0  0  0  0  0
  129.7940  125.0960   58.4990 C   0  0  0  0  0  0  0  0  0  0  0  0
  130.8970  126.4900   58.3580 S   0  0  0  0  0  0  0  0  0  0  0  0
  132.4580  125.9280   57.6030 C   0  0  0  0  0  0  0  0  0  0  0  0
  133.0870  124.7410   58.3400 C   0  0  0  0  0  0  0  0  0  0  0  0
  133.9030  124.0340   57.7480 O   0  0  0  0  0  0  0  0  0  0  0  0
  132.6590  124.5470   59.6050 N   0  0  0  0  0  0  0  0  0  0  0  0
  133.0430  123.5590   60.5310 C   0  0  0  0  0  0  0  0  0  0  0  0
  133.4740  124.0220   61.7770 C   0  0  0  0  0  0  0  0  0  0  0  0
  133.8810  123.1220   62.7580 C   0  0  0  0  0  0  0  0  0  0  0  0
  133.8650  121.7550   62.4890 C   0  0  0  0  0  0  0  0  0  0  0  0
  133.4510  121.2820   61.2460 C   0  0  0  0  0  0  0  0  0  0  0  0
  133.0430  122.1790   60.2640 C   0  0  0  0  0  0  0  0  0  0  0  0
  129.8580  124.4770   59.7020 N   0  0  0  0  0  0  0  0  0  0  0  0
  129.0595  123.4917   62.0622 H   0  0  0  0  0  0  0  0  0  0  0  0
  128.4701  121.9387   61.3784 H   0  0  0  0  0  0  0  0  0  0  0  0
  130.2275  122.3106   61.3784 H   0  0  0  0  0  0  0  0  0  0  0  0
  127.6025  121.9958   59.1631 H   0  0  0  0  0  0  0  0  0  0  0  0
  132.2567  125.6285   56.5639 H   0  0  0  0  0  0  0  0  0  0  0  0
  133.1701  126.7645   57.6590 H   0  0  0  0  0  0  0  0  0  0  0  0
  131.9190  125.1540   59.9250 H   0  0  0  0  0  0  0  0  0  0  0  0
  133.4918  125.1023   61.9836 H   0  0  0  0  0  0  0  0  0  0  0  0
  134.2135  123.4882   63.7405 H   0  0  0  0  0  0  0  0  0  0  0  0
  134.1821  121.0430   63.2652 H   0  0  0  0  0  0  0  0  0  0  0  0
  133.4467  120.2012   61.0412 H   0  0  0  0  0  0  0  0  0  0  0  0
  132.7207  121.8087   59.2796 H   0  0  0  0  0  0  0  0  0  0  0  0
  1  2  1  0
  2  3  2  0
  3  4  1  0
  4  5  1  0
  5  6  1  0
  5  7  1  0
  5  8  1  0
  4  9  2  0
  9 10  1  0
 10 11  3  0
  9 12  1  0
 12 13  1  0
 13 14  1  0
 14 15  1  0
 15 16  2  0
 15 17  1  0
 17 18  1  0
 18 19  2  0
 19 20  1  0
 20 21  2  0
 21 22  1  0
 22 23  2  0
 12 24  2  0
 24  2  1  0
 23 18  1  0
  1 25  1  0
  1 26  1  0
  1 27  1  0
  3 28  1  0
 14 29  1  0
 14 30  1  0
 17 31  1  0
 19 32  1  0
 20 33  1  0
 21 34  1  0
 22 35  1  0
 23 36  1  0
M  END
>  <Binding energies>  (1) 
[-6.35]

>  <Ligand effiencies>  (1) 
[-0.254]

>  <Interactions>  (1) 
["V-B:TYR:539:CE2:9848, H-B:TYR:539:OH:9850, V-A:LEU:475:CD2:4259, V-B:MET:535:CE:9807, V-B:PRO:540:CB:9857, V-A:ILE:369:CG2:3237, V-B:TYR:539:CZ:9849, V-B:TYR:539:CD2:9846, V-B:TYR:539:CG:9844, V-B:TYR:539:CE1:9847, V-B:PRO:540:CA:9855, V-A:TYR:531:CZ:4794, V-A:ASP:366:CB:3212, V-B:PRO:540:N:9856, H-A:TYR:531:OH:4795, V-B:TYR:539:CD1:9845, V-B:TYR:539:C:9839, V-B:PRO:540:CD:9859, V-A:GLY:454:CA:4049, V-A:ASP:366:CA:3210, V-B:TYR:539:CA:9841, V-A:ASP:366:C:3208, V-B:ILE:538:C:9830, V-A:SER:385:CB:3409, H-A:ASN:370:N:3244"]

$$$$
2e_Grossjean_2025
     RDKit          3D

 38 39  0  0  0  0  0  0  0  0999 V2000
  132.5220  131.7030   62.7970 C   0  0  0  0  0  0  0  0  0  0  0  0
  132.4290  131.6670   61.2840 C   0  0  0  0  0  0  0  0  0  0  0  0
  133.5630  131.5040   60.4840 C   0  0  0  0  0  0  0  0  0  0  0  0
  133.3990  131.4680   59.0990 C   0  0  0  0  0  0  0  0  0  0  0  0
  132.1200  131.5950   58.5510 C   0  0  0  0  0  0  0  0  0  0  0  0
  131.0280  131.7640   59.4100 C   0  0  0  0  0  0  0  0  0  0  0  0
  129.7600  131.8420   58.8090 N   0  0  0  0  0  0  0  0  0  0  0  0
  129.3700  132.6340   57.7850 C   0  0  0  0  0  0  0  0  0  0  0  0
  130.1120  133.3850   57.1510 O   0  0  0  0  0  0  0  0  0  0  0  0
  127.8760  132.5990   57.4470 C   0  0  0  0  0  0  0  0  0  0  0  0
  127.1520  130.9500   57.7190 S   0  0  0  0  0  0  0  0  0  0  0  0
  126.4680  130.9970   59.3610 C   0  0  0  0  0  0  0  0  0  0  0  0
  127.3630  130.7660   60.3530 N   0  0  0  0  0  0  0  0  0  0  0  0
  126.9190  130.7380   61.6300 C   0  0  0  0  0  0  0  0  0  0  0  0
  127.9720  130.4750   62.6890 C   0  0  0  0  0  0  0  0  0  0  0  0
  125.5800  130.9320   61.9650 C   0  0  0  0  0  0  0  0  0  0  0  0
  124.6400  131.1630   60.9500 C   0  0  0  0  0  0  0  0  0  0  0  0
  123.1610  131.3540   61.3350 C   0  0  0  0  0  0  0  0  0  0  0  0
  122.8670  132.6530   61.3930 F   0  0  0  0  0  0  0  0  0  0  0  0
  122.3760  130.7720   60.4270 F   0  0  0  0  0  0  0  0  0  0  0  0
  122.8650  130.8220   62.5230 F   0  0  0  0  0  0  0  0  0  0  0  0
  125.0910  131.2000   59.6070 C   0  0  0  0  0  0  0  0  0  0  0  0
  124.1540  131.4080   58.4990 C   0  0  0  0  0  0  0  0  0  0  0  0
  123.4130  131.5710   57.6240 N   0  0  0  0  0  0  0  0  0  0  0  0
  131.1790  131.7920   60.7660 N   0  0  0  0  0  0  0  0  0  0  0  0
  131.5794  131.3381   63.2311 H   0  0  0  0  0  0  0  0  0  0  0  0
  133.3512  131.0609   63.1288 H   0  0  0  0  0  0  0  0  0  0  0  0
  132.7028  132.7361   63.1288 H   0  0  0  0  0  0  0  0  0  0  0  0
  134.5613  131.4064   60.9355 H   0  0  0  0  0  0  0  0  0  0  0  0
  134.2719  131.3403   58.4420 H   0  0  0  0  0  0  0  0  0  0  0  0
  131.9736  131.5627   57.4613 H   0  0  0  0  0  0  0  0  0  0  0  0
  129.0760  131.1950   59.1720 H   0  0  0  0  0  0  0  0  0  0  0  0
  127.3510  133.3265   58.0834 H   0  0  0  0  0  0  0  0  0  0  0  0
  127.7633  132.8474   56.3814 H   0  0  0  0  0  0  0  0  0  0  0  0
  127.5239  130.5869   63.6874 H   0  0  0  0  0  0  0  0  0  0  0  0
  128.3603  129.4523   62.5739 H   0  0  0  0  0  0  0  0  0  0  0  0
  128.7956  131.1950   62.5739 H   0  0  0  0  0  0  0  0  0  0  0  0
  125.2628  130.9041   63.0179 H   0  0  0  0  0  0  0  0  0  0  0  0
  1  2  1  0
  2  3  2  0
  3  4  1  0
  4  5  2  0
  5  6  1  0
  6  7  1  0
  7  8  1  0
  8  9  2  0
  8 10  1  0
 10 11  1  0
 11 12  1  0
 12 13  2  0
 13 14  1  0
 14 15  1  0
 14 16  2  0
 16 17  1  0
 17 18  1  0
 18 19  1  0
 18 20  1  0
 18 21  1  0
 17 22  2  0
 22 23  1  0
 23 24  3  0
  6 25  2  0
 25  2  1  0
 22 12  1  0
  1 26  1  0
  1 27  1  0
  1 28  1  0
  3 29  1  0
  4 30  1  0
  5 31  1  0
  7 32  1  0
 10 33  1  0
 10 34  1  0
 15 35  1  0
 15 36  1  0
 15 37  1  0
 16 38  1  0
M  END
>  <Binding energies>  (1) 
[-6.39]

>  <Ligand effiencies>  (1) 
[-0.24576923076923077]

>  <Interactions>  (1) 
["V-A:GLU:543:CD:4908, V-B:ASP:366:CB:8183, V-B:ASP:366:CG:8184, V-A:GLU:543:CG:4907, V-A:TYR:539:CD1:4873, V-A:LEU:363:CD1:3189, V-A:PRO:540:CA:4883, V-B:ILE:369:CG2:8208, V-A:PRO:540:CB:4885, V-B:ILE:369:CG1:8209, V-A:TYR:539:CE1:4875, V-A:TYR:539:C:4867, H-A:TYR:539:N:4870, V-B:ILE:369:CB:8207, V-A:ASP:366:CG:3213, V-B:ASP:366:CA:8181, V-A:TYR:539:CZ:4877, V-A:ALA:541:C:4888, V-A:TYR:539:CG:4872, V-B:GLY:453:C:9013, V-B:ILE:369:CD1:8210, H-A:TYR:539:OH:4878, V-A:ASN:362:CB:3176, V-A:ASN:362:C:3172, V-A:LEU:363:CA:3185, V-A:LEU:363:CB:3187, V-B:GLY:453:CA:9015"]

$$$$
2f_Grossjean_2025
     RDKit          3D

 35 36  0  0  0  0  0  0  0  0999 V2000
  128.3350  133.2340   60.8840 C   0  0  0  0  0  0  0  0  0  0  0  0
  127.7440  132.6830   59.6000 C   0  0  0  0  0  0  0  0  0  0  0  0
  126.5520  131.9640   59.5950 C   0  0  0  0  0  0  0  0  0  0  0  0
  126.0490  131.4670   58.3830 C   0  0  0  0  0  0  0  0  0  0  0  0
  124.7350  130.6630   58.4000 C   0  0  0  0  0  0  0  0  0  0  0  0
  124.2180  130.6570   59.6300 F   0  0  0  0  0  0  0  0  0  0  0  0
  123.8540  131.2140   57.5640 F   0  0  0  0  0  0  0  0  0  0  0  0
  124.9010  129.3920   58.0300 F   0  0  0  0  0  0  0  0  0  0  0  0
  126.7770  131.7240   57.1920 C   0  0  0  0  0  0  0  0  0  0  0  0
  126.3240  131.1790   55.9090 C   0  0  0  0  0  0  0  0  0  0  0  0
  125.9650  130.7490   54.8960 N   0  0  0  0  0  0  0  0  0  0  0  0
  127.9650  132.4870   57.2890 C   0  0  0  0  0  0  0  0  0  0  0  0
  128.9950  132.9140   55.8990 S   0  0  0  0  0  0  0  0  0  0  0  0
  130.5650  131.9970   56.0560 C   0  0  0  0  0  0  0  0  0  0  0  0
  131.4260  132.3830   57.2680 C   0  0  0  0  0  0  0  0  0  0  0  0
  132.1700  133.3640   57.2230 O   0  0  0  0  0  0  0  0  0  0  0  0
  131.3010  131.5580   58.3290 N   0  0  0  0  0  0  0  0  0  0  0  0
  131.9250  131.6200   59.5890 C   0  0  0  0  0  0  0  0  0  0  0  0
  133.3100  131.5230   59.8200 C   0  0  0  0  0  0  0  0  0  0  0  0
  133.8010  131.6060   61.1240 C   0  0  0  0  0  0  0  0  0  0  0  0
  132.8940  131.7870   62.1690 C   0  0  0  0  0  0  0  0  0  0  0  0
  131.5550  131.8910   61.9730 N   0  0  0  0  0  0  0  0  0  0  0  0
  131.0940  131.8100   60.6990 C   0  0  0  0  0  0  0  0  0  0  0  0
  128.4460  132.9390   58.4730 N   0  0  0  0  0  0  0  0  0  0  0  0
  127.8358  132.7686   61.7467 H   0  0  0  0  0  0  0  0  0  0  0  0
  129.4113  133.0095   60.9182 H   0  0  0  0  0  0  0  0  0  0  0  0
  128.1864  134.3234   60.9182 H   0  0  0  0  0  0  0  0  0  0  0  0
  126.0082  131.7867   60.5346 H   0  0  0  0  0  0  0  0  0  0  0  0
  130.3277  130.9257   56.1338 H   0  0  0  0  0  0  0  0  0  0  0  0
  131.1585  132.2504   55.1652 H   0  0  0  0  0  0  0  0  0  0  0  0
  130.6980  130.7570   58.2040 H   0  0  0  0  0  0  0  0  0  0  0  0
  134.0023  131.3824   58.9768 H   0  0  0  0  0  0  0  0  0  0  0  0
  134.8801  131.5303   61.3237 H   0  0  0  0  0  0  0  0  0  0  0  0
  133.2813  131.8481   63.1968 H   0  0  0  0  0  0  0  0  0  0  0  0
  130.0106  131.8983   60.5301 H   0  0  0  0  0  0  0  0  0  0  0  0
  1  2  1  0
  2  3  2  0
  3  4  1  0
  4  5  1  0
  5  6  1  0
  5  7  1  0
  5  8  1  0
  4  9  2  0
  9 10  1  0
 10 11  3  0
  9 12  1  0
 12 13  1  0
 13 14  1  0
 14 15  1  0
 15 16  2  0
 15 17  1  0
 17 18  1  0
 18 19  2  0
 19 20  1  0
 20 21  2  0
 21 22  1  0
 22 23  2  0
 12 24  2  0
 24  2  1  0
 23 18  1  0
  1 25  1  0
  1 26  1  0
  1 27  1  0
  3 28  1  0
 14 29  1  0
 14 30  1  0
 17 31  1  0
 19 32  1  0
 20 33  1  0
 21 34  1  0
 23 35  1  0
M  END
>  <Binding energies>  (1) 
[-6.53]

>  <Ligand effiencies>  (1) 
[-0.2612]

>  <Interactions>  (1) 
["V-B:ASP:366:CB:8183, V-B:ASP:366:CG:8184, V-A:TYR:539:CD1:4873, V-A:LEU:363:CD1:3189, V-A:ILE:538:CG2:4863, V-A:PRO:540:CA:4883, V-B:ILE:369:CG2:8208, V-A:PRO:540:CB:4885, V-A:TYR:539:CE1:4875, H-A:TYR:539:N:4870, V-B:ILE:369:CB:8207, V-A:PRO:540:N:4884, V-A:MET:535:CE:4835, H-B:TYR:531:OH:9767, V-A:ASP:366:CG:3213, V-B:ASP:366:CA:8181, H-A:ALA:541:N:4891, V-B:TYR:531:CZ:9766, V-A:TYR:539:CZ:4877, V-A:TYR:539:CG:4872, V-B:ASP:366:C:8179, H-A:TYR:539:OH:4878, V-A:ASN:362:CB:3176, V-A:ASN:362:C:3172, V-A:LEU:363:CA:3185, V-A:LEU:363:CB:3187"]

$$$$
2g_Grossjean_2025
     RDKit          3D

 39 40  0  0  0  0  0  0  0  0999 V2000
  128.4430  129.5640   61.7060 C   0  0  0  0  0  0  0  0  0  0  0  0
  127.2930  130.0980   60.8740 C   0  0  0  0  0  0  0  0  0  0  0  0
  126.0480  130.3660   61.4370 C   0  0  0  0  0  0  0  0  0  0  0  0
  125.0130  130.8510   60.6240 C   0  0  0  0  0  0  0  0  0  0  0  0
  123.6390  131.1340   61.2630 C   0  0  0  0  0  0  0  0  0  0  0  0
  123.5150  132.4340   61.5360 F   0  0  0  0  0  0  0  0  0  0  0  0
  122.6670  130.7740   60.4240 F   0  0  0  0  0  0  0  0  0  0  0  0
  123.4540  130.4680   62.4050 F   0  0  0  0  0  0  0  0  0  0  0  0
  125.2750  131.0620   59.2460 C   0  0  0  0  0  0  0  0  0  0  0  0
  124.2130  131.5140   58.3420 C   0  0  0  0  0  0  0  0  0  0  0  0
  123.3750  131.8700   57.6290 N   0  0  0  0  0  0  0  0  0  0  0  0
  126.5800  130.7910   58.7670 C   0  0  0  0  0  0  0  0  0  0  0  0
  127.0860  131.0220   57.0770 S   0  0  0  0  0  0  0  0  0  0  0  0
  127.9560  132.6240   56.9800 C   0  0  0  0  0  0  0  0  0  0  0  0
  129.4790  132.5380   57.1500 C   0  0  0  0  0  0  0  0  0  0  0  0
  130.2310  133.3670   56.6330 O   0  0  0  0  0  0  0  0  0  0  0  0
  129.9210  131.5030   57.8880 N   0  0  0  0  0  0  0  0  0  0  0  0
  131.3220  131.2170   58.1970 C   0  0  0  0  0  0  0  0  0  0  0  0
  131.7000  131.4290   59.6590 C   0  0  0  0  0  0  0  0  0  0  0  0
  133.0480  131.4990   60.0260 C   0  0  0  0  0  0  0  0  0  0  0  0
  133.3950  131.7310   61.3550 C   0  0  0  0  0  0  0  0  0  0  0  0
  132.3950  131.9020   62.3100 C   0  0  0  0  0  0  0  0  0  0  0  0
  131.0500  131.8470   61.9470 C   0  0  0  0  0  0  0  0  0  0  0  0
  130.7030  131.6150   60.6200 C   0  0  0  0  0  0  0  0  0  0  0  0
  127.5610  130.3000   59.5640 N   0  0  0  0  0  0  0  0  0  0  0  0
  128.2050  129.6745   62.7742 H   0  0  0  0  0  0  0  0  0  0  0  0
  128.6008  128.5005   61.4736 H   0  0  0  0  0  0  0  0  0  0  0  0
  129.3573  130.1297   61.4736 H   0  0  0  0  0  0  0  0  0  0  0  0
  125.8775  130.1987   62.5108 H   0  0  0  0  0  0  0  0  0  0  0  0
  127.7456  133.0692   55.9963 H   0  0  0  0  0  0  0  0  0  0  0  0
  127.5836  133.2311   57.8183 H   0  0  0  0  0  0  0  0  0  0  0  0
  129.2400  130.8810   58.2990 H   0  0  0  0  0  0  0  0  0  0  0  0
  131.5242  130.1672   57.9380 H   0  0  0  0  0  0  0  0  0  0  0  0
  131.9242  131.9266   57.6107 H   0  0  0  0  0  0  0  0  0  0  0  0
  133.8330  131.3710   59.2661 H   0  0  0  0  0  0  0  0  0  0  0  0
  134.4538  131.7790   61.6492 H   0  0  0  0  0  0  0  0  0  0  0  0
  132.6692  132.0820   63.3600 H   0  0  0  0  0  0  0  0  0  0  0  0
  130.2667  131.9864   62.7066 H   0  0  0  0  0  0  0  0  0  0  0  0
  129.6433  131.5780   60.3272 H   0  0  0  0  0  0  0  0  0  0  0  0
  1  2  1  0
  2  3  2  0
  3  4  1  0
  4  5  1  0
  5  6  1  0
  5  7  1  0
  5  8  1  0
  4  9  2  0
  9 10  1  0
 10 11  3  0
  9 12  1  0
 12 13  1  0
 13 14  1  0
 14 15  1  0
 15 16  2  0
 15 17  1  0
 17 18  1  0
 18 19  1  0
 19 20  2  0
 20 21  1  0
 21 22  2  0
 22 23  1  0
 23 24  2  0
 12 25  2  0
 25  2  1  0
 24 19  1  0
  1 26  1  0
  1 27  1  0
  1 28  1  0
  3 29  1  0
 14 30  1  0
 14 31  1  0
 17 32  1  0
 18 33  1  0
 18 34  1  0
 20 35  1  0
 21 36  1  0
 22 37  1  0
 23 38  1  0
 24 39  1  0
M  END
>  <Binding energies>  (1) 
[-6.18]

>  <Ligand effiencies>  (1) 
[-0.23769230769230767]

>  <Interactions>  (1) 
["V-B:ASP:366:CB:8183, V-B:ASP:366:CG:8184, V-A:TYR:539:CD1:4873, V-A:PRO:540:CA:4883, V-B:ILE:369:CG2:8208, V-A:PRO:540:CB:4885, V-B:ILE:369:CG1:8209, V-A:TYR:539:CE1:4875, H-A:TYR:539:N:4870, V-B:ILE:369:CB:8207, V-A:ASP:366:CG:3213, V-B:ASP:366:CA:8181, V-B:ARG:545:CZ:9898, V-A:TYR:539:CZ:4877, V-A:ALA:541:C:4888, V-A:TYR:539:CG:4872, V-A:TYR:539:CE2:4876, H-A:TYR:539:OH:4878, V-A:ASN:362:CB:3176, H-B:ASN:370:N:8215, V-A:ASN:362:C:3172, V-A:LEU:363:CA:3185"]

$$$$
2h_Grossjean_2025
     RDKit          3D

 51 52  0  0  0  0  0  0  0  0999 V2000
  128.2180  132.9920   55.6550 C   0  0  0  0  0  0  0  0  0  0  0  0
  129.3650  133.5280   56.3050 O   0  0  0  0  0  0  0  0  0  0  0  0
  129.7960  132.9680   57.4940 C   0  0  0  0  0  0  0  0  0  0  0  0
  128.9800  132.8030   58.6240 C   0  0  0  0  0  0  0  0  0  0  0  0
  129.4830  132.2220   59.7850 C   0  0  0  0  0  0  0  0  0  0  0  0
  130.8100  131.7920   59.8450 C   0  0  0  0  0  0  0  0  0  0  0  0
  131.3330  131.1390   61.1220 C   0  0  0  0  0  0  0  0  0  0  0  0
  130.2880  130.8500   62.1050 N   0  0  0  0  0  0  0  0  0  0  0  0
  129.5630  131.7790   62.7540 C   0  0  0  0  0  0  0  0  0  0  0  0
  129.7640  132.9900   62.6450 O   0  0  0  0  0  0  0  0  0  0  0  0
  128.4410  131.2360   63.6500 C   0  0  0  0  0  0  0  0  0  0  0  0
  127.6600  129.6960   63.0600 S   0  0  0  0  0  0  0  0  0  0  0  0
  126.3600  130.1750   61.9430 C   0  0  0  0  0  0  0  0  0  0  0  0
  126.7580  130.2670   60.6500 N   0  0  0  0  0  0  0  0  0  0  0  0
  125.8540  130.6420   59.7190 C   0  0  0  0  0  0  0  0  0  0  0  0
  126.3710  130.7320   58.2950 C   0  0  0  0  0  0  0  0  0  0  0  0
  124.5270  130.9320   60.0320 C   0  0  0  0  0  0  0  0  0  0  0  0
  124.0910  130.8220   61.3610 C   0  0  0  0  0  0  0  0  0  0  0  0
  122.6190  131.1370   61.6870 C   0  0  0  0  0  0  0  0  0  0  0  0
  122.1920  130.3490   62.6740 F   0  0  0  0  0  0  0  0  0  0  0  0
  122.4360  132.4010   62.0770 F   0  0  0  0  0  0  0  0  0  0  0  0
  121.8580  130.9350   60.6110 F   0  0  0  0  0  0  0  0  0  0  0  0
  125.0270  130.4220   62.3490 C   0  0  0  0  0  0  0  0  0  0  0  0
  124.6090  130.2350   63.7410 C   0  0  0  0  0  0  0  0  0  0  0  0
  124.2760  130.0850   64.8390 N   0  0  0  0  0  0  0  0  0  0  0  0
  131.6440  131.9720   58.7310 C   0  0  0  0  0  0  0  0  0  0  0  0
  132.9530  131.5550   58.7830 O   0  0  0  0  0  0  0  0  0  0  0  0
  133.2220  130.3740   58.0370 C   0  0  0  0  0  0  0  0  0  0  0  0
  131.1290  132.5410   57.5540 C   0  0  0  0  0  0  0  0  0  0  0  0
  131.9390  132.7020   56.4550 O   0  0  0  0  0  0  0  0  0  0  0  0
  131.6750  131.7870   55.4000 C   0  0  0  0  0  0  0  0  0  0  0  0
  127.4934  132.6534   56.4101 H   0  0  0  0  0  0  0  0  0  0  0  0
  127.7568  133.7679   55.0262 H   0  0  0  0  0  0  0  0  0  0  0  0
  128.5173  132.1405   55.0262 H   0  0  0  0  0  0  0  0  0  0  0  0
  127.9322  133.1362   58.5920 H   0  0  0  0  0  0  0  0  0  0  0  0
  128.8299  132.1008   60.6618 H   0  0  0  0  0  0  0  0  0  0  0  0
  131.8267  130.1939   60.8518 H   0  0  0  0  0  0  0  0  0  0  0  0
  132.0250  131.8551   61.5893 H   0  0  0  0  0  0  0  0  0  0  0  0
  130.0420  129.8780   62.2210 H   0  0  0  0  0  0  0  0  0  0  0  0
  128.8635  131.0440   64.6473 H   0  0  0  0  0  0  0  0  0  0  0  0
  127.6505  132.0010   63.6504 H   0  0  0  0  0  0  0  0  0  0  0  0
  127.4546  130.9206   58.3096 H   0  0  0  0  0  0  0  0  0  0  0  0
  126.1706  129.7855   57.7716 H   0  0  0  0  0  0  0  0  0  0  0  0
  125.8625  131.5551   57.7716 H   0  0  0  0  0  0  0  0  0  0  0  0
  123.8271  131.2447   59.2431 H   0  0  0  0  0  0  0  0  0  0  0  0
  133.4121  129.5393   58.7278 H   0  0  0  0  0  0  0  0  0  0  0  0
  132.3552  130.1353   57.4032 H   0  0  0  0  0  0  0  0  0  0  0  0
  134.1067  130.5342   57.4032 H   0  0  0  0  0  0  0  0  0  0  0  0
  131.3935  130.8113   55.8227 H   0  0  0  0  0  0  0  0  0  0  0  0
  130.8507  132.1698   54.7804 H   0  0  0  0  0  0  0  0  0  0  0  0
  132.5765  131.6718   54.7804 H   0  0  0  0  0  0  0  0  0  0  0  0
  1  2  1  0
  2  3  1  0
  3  4  2  0
  4  5  1  0
  5  6  2  0
  6  7  1  0
  7  8  1  0
  8  9  1  0
  9 10  2  0
  9 11  1  0
 11 12  1  0
 12 13  1  0
 13 14  2  0
 14 15  1  0
 15 16  1  0
 15 17  2  0
 17 18  1  0
 18 19  1  0
 19 20  1  0
 19 21  1  0
 19 22  1  0
 18 23  2  0
 23 24  1  0
 24 25  3  0
  6 26  1  0
 26 27  1  0
 27 28  1  0
 26 29  2  0
 29 30  1  0
 30 31  1  0
 29  3  1  0
 23 13  1  0
  1 32  1  0
  1 33  1  0
  1 34  1  0
  4 35  1  0
  5 36  1  0
  7 37  1  0
  7 38  1  0
  8 39  1  0
 11 40  1  0
 11 41  1  0
 16 42  1  0
 16 43  1  0
 16 44  1  0
 17 45  1  0
 28 46  1  0
 28 47  1  0
 28 48  1  0
 31 49  1  0
 31 50  1  0
 31 51  1  0
M  END
>  <Binding energies>  (1) 
[-7.0]

>  <Ligand effiencies>  (1) 
[-0.21875]

>  <Interactions>  (1) 
["V-A:GLU:543:CD:4908, V-B:ASP:366:CB:8183, V-B:ASP:366:CG:8184, V-A:GLU:543:CG:4907, V-A:TYR:539:CD1:4873, V-B:GLY:454:CA:9020, V-A:LEU:363:CD1:3189, V-A:TYR:531:CE2:4793, V-A:ILE:538:CG2:4863, V-A:ILE:538:CB:4862, V-A:TYR:531:CZ:4794, H-A:GLU:543:OE1:4909, V-A:ALA:541:CB:4892, V-A:PRO:540:CA:4883, V-B:ILE:369:CG2:8208, V-A:PRO:540:CB:4885, V-A:ASP:366:CB:3212, H-B:ARG:545:NH2:9900, V-B:ILE:369:CG1:8209, V-A:TYR:539:CE1:4875, V-A:TYR:539:C:4867, H-A:TYR:539:N:4870, V-B:ILE:369:CB:8207, V-A:PRO:540:N:4884, H-B:TYR:484:OH:9319, V-A:MET:535:CE:4835, H-B:GLY:454:N:9021, V-A:ASP:366:CG:3213, V-B:ASP:366:CA:8181, H-A:ALA:541:N:4891, V-B:ARG:545:CZ:9898, H-B:ARG:545:NE:9896, V-A:PRO:540:CD:4887, V-A:ILE:538:CA:4860, V-A:TYR:539:CZ:4877, V-A:TYR:539:CG:4872, V-A:TYR:539:CE2:4876, V-B:GLY:453:C:9013, V-B:ILE:369:CD1:8210, V-A:MET:535:CG:4833, V-A:TYR:539:CD2:4874, V-A:LEU:363:CA:3185, V-B:GLY:453:CA:9015, V-B:CYS:365:C:8175"]

$$$$
2i_Grossjean_2025
     RDKit          3D

 32 33  0  0  0  0  0  0  0  0999 V2000
  125.3800  130.9790   57.6290 C   0  0  0  0  0  0  0  0  0  0  0  0
  125.1210  131.4780   59.0390 C   0  0  0  0  0  0  0  0  0  0  0  0
  123.9630  131.1380   59.7320 C   0  0  0  0  0  0  0  0  0  0  0  0
  123.7710  131.6230   61.0340 C   0  0  0  0  0  0  0  0  0  0  0  0
  122.4830  131.2380   61.7860 C   0  0  0  0  0  0  0  0  0  0  0  0
  121.5870  130.7400   60.9320 F   0  0  0  0  0  0  0  0  0  0  0  0
  122.7520  130.3200   62.7150 F   0  0  0  0  0  0  0  0  0  0  0  0
  121.9140  132.2770   62.4030 F   0  0  0  0  0  0  0  0  0  0  0  0
  124.7730  132.4490   61.6040 C   0  0  0  0  0  0  0  0  0  0  0  0
  124.6250  132.9820   62.9620 C   0  0  0  0  0  0  0  0  0  0  0  0
  124.5080  133.4030   64.0330 N   0  0  0  0  0  0  0  0  0  0  0  0
  125.9170  132.7460   60.8280 C   0  0  0  0  0  0  0  0  0  0  0  0
  127.2390  133.7810   61.4370 S   0  0  0  0  0  0  0  0  0  0  0  0
  128.6390  132.7090   61.8770 C   0  0  0  0  0  0  0  0  0  0  0  0
  129.6880  132.6390   60.7650 C   0  0  0  0  0  0  0  0  0  0  0  0
  130.8800  132.5600   61.0700 O   0  0  0  0  0  0  0  0  0  0  0  0
  129.2120  132.6980   59.5030 N   0  0  0  0  0  0  0  0  0  0  0  0
  129.9560  132.6710   58.3360 C   0  0  0  0  0  0  0  0  0  0  0  0
  130.9310  131.7580   57.9070 C   0  0  0  0  0  0  0  0  0  0  0  0
  131.3280  132.2240   56.6750 C   0  0  0  0  0  0  0  0  0  0  0  0
  130.6290  133.3450   56.3780 O   0  0  0  0  0  0  0  0  0  0  0  0
  129.7590  133.6110   57.4380 N   0  0  0  0  0  0  0  0  0  0  0  0
  126.0840  132.2650   59.5690 N   0  0  0  0  0  0  0  0  0  0  0  0
  125.8864  130.0034   57.6725 H   0  0  0  0  0  0  0  0  0  0  0  0
  124.4235  130.8722   57.0964 H   0  0  0  0  0  0  0  0  0  0  0  0
  126.0178  131.6997   57.0964 H   0  0  0  0  0  0  0  0  0  0  0  0
  123.2046  130.4942   59.2625 H   0  0  0  0  0  0  0  0  0  0  0  0
  129.1141  133.1033   62.7874 H   0  0  0  0  0  0  0  0  0  0  0  0
  128.2483  131.6931   62.0359 H   0  0  0  0  0  0  0  0  0  0  0  0
  128.2150  132.8030   59.3830 H   0  0  0  0  0  0  0  0  0  0  0  0
  131.2970  130.8669   58.4381 H   0  0  0  0  0  0  0  0  0  0  0  0
  132.0916  131.7599   56.0335 H   0  0  0  0  0  0  0  0  0  0  0  0
  1  2  1  0
  2  3  2  0
  3  4  1  0
  4  5  1  0
  5  6  1  0
  5  7  1  0
  5  8  1  0
  4  9  2  0
  9 10  1  0
 10 11  3  0
  9 12  1  0
 12 13  1  0
 13 14  1  0
 14 15  1  0
 15 16  2  0
 15 17  1  0
 17 18  1  0
 18 19  1  0
 19 20  2  0
 20 21  1  0
 21 22  1  0
 12 23  2  0
 23  2  1  0
 22 18  2  0
  1 24  1  0
  1 25  1  0
  1 26  1  0
  3 27  1  0
 14 28  1  0
 14 29  1  0
 17 30  1  0
 19 31  1  0
 20 32  1  0
M  END
>  <Binding energies>  (1) 
[-6.33]

>  <Ligand effiencies>  (1) 
[-0.26375]

>  <Interactions>  (1) 
["V-B:ASP:366:CB:8183, V-B:ASP:366:CG:8184, V-A:TYR:539:CD1:4873, V-B:GLY:454:CA:9020, V-A:LEU:363:CD1:3189, V-B:LEU:475:CD2:9230, V-A:PRO:540:CA:4883, V-B:ILE:369:CG2:8208, V-B:ILE:369:CG1:8209, V-A:TYR:539:CE1:4875, V-A:TYR:539:C:4867, H-A:TYR:539:N:4870, V-B:ILE:369:CB:8207, V-A:PRO:540:N:4884, H-B:TYR:484:OH:9319, H-B:GLY:454:N:9021, V-A:PRO:540:C:4881, V-B:ASP:366:CA:8181, H-A:ALA:541:N:4891, H-A:TYR:539:O:4868, V-B:ARG:545:CZ:9898, V-A:TYR:539:CZ:4877, V-B:GLY:453:C:9013, V-B:ILE:369:CD1:8210, V-B:GLY:453:CA:9015, V-B:CYS:365:C:8175"]

$$$$
2j_Grossjean_2025
     RDKit          3D

 32 33  0  0  0  0  0  0  0  0999 V2000
  125.5890  130.6560   57.8010 C   0  0  0  0  0  0  0  0  0  0  0  0
  125.2010  131.3560   59.0900 C   0  0  0  0  0  0  0  0  0  0  0  0
  124.0510  131.0060   59.7920 C   0  0  0  0  0  0  0  0  0  0  0  0
  123.7360  131.6800   60.9820 C   0  0  0  0  0  0  0  0  0  0  0  0
  122.4610  131.2790   61.7470 C   0  0  0  0  0  0  0  0  0  0  0  0
  121.5750  130.7430   60.9070 F   0  0  0  0  0  0  0  0  0  0  0  0
  122.7570  130.3860   62.6920 F   0  0  0  0  0  0  0  0  0  0  0  0
  121.8700  132.3160   62.3450 F   0  0  0  0  0  0  0  0  0  0  0  0
  124.6070  132.7050   61.4290 C   0  0  0  0  0  0  0  0  0  0  0  0
  124.3270  133.4440   62.6650 C   0  0  0  0  0  0  0  0  0  0  0  0
  124.1070  134.0250   63.6400 N   0  0  0  0  0  0  0  0  0  0  0  0
  125.7540  132.9960   60.6520 C   0  0  0  0  0  0  0  0  0  0  0  0
  126.9210  134.2660   61.1200 S   0  0  0  0  0  0  0  0  0  0  0  0
  128.4160  133.4550   61.7840 C   0  0  0  0  0  0  0  0  0  0  0  0
  129.4220  132.9870   60.7220 C   0  0  0  0  0  0  0  0  0  0  0  0
  130.5580  132.6320   61.0440 O   0  0  0  0  0  0  0  0  0  0  0  0
  128.9590  133.0150   59.4520 N   0  0  0  0  0  0  0  0  0  0  0  0
  129.6540  132.6460   58.3080 C   0  0  0  0  0  0  0  0  0  0  0  0
  129.8920  133.3740   57.2390 N   0  0  0  0  0  0  0  0  0  0  0  0
  130.5860  132.7040   56.3390 C   0  0  0  0  0  0  0  0  0  0  0  0
  130.9270  131.3970   56.6740 C   0  0  0  0  0  0  0  0  0  0  0  0
  130.2990  131.0370   58.2550 S   0  0  0  0  0  0  0  0  0  0  0  0
  126.0420  132.3300   59.5050 N   0  0  0  0  0  0  0  0  0  0  0  0
  126.1099  129.7162   58.0366 H   0  0  0  0  0  0  0  0  0  0  0  0
  124.6837  130.4367   57.2160 H   0  0  0  0  0  0  0  0  0  0  0  0
  126.2547  131.3076   57.2160 H   0  0  0  0  0  0  0  0  0  0  0  0
  123.3942  130.2073   59.4169 H   0  0  0  0  0  0  0  0  0  0  0  0
  128.9263  134.1689   62.4473 H   0  0  0  0  0  0  0  0  0  0  0  0
  128.0711  132.5489   62.3036 H   0  0  0  0  0  0  0  0  0  0  0  0
  128.0130  133.3350   59.3070 H   0  0  0  0  0  0  0  0  0  0  0  0
  130.8785  133.1530   55.3783 H   0  0  0  0  0  0  0  0  0  0  0  0
  131.5008  130.7040   56.0412 H   0  0  0  0  0  0  0  0  0  0  0  0
  1  2  1  0
  2  3  2  0
  3  4  1  0
  4  5  1  0
  5  6  1  0
  5  7  1  0
  5  8  1  0
  4  9  2  0
  9 10  1  0
 10 11  3  0
  9 12  1  0
 12 13  1  0
 13 14  1  0
 14 15  1  0
 15 16  2  0
 15 17  1  0
 17 18  1  0
 18 19  2  0
 19 20  1  0
 20 21  2  0
 21 22  1  0
 12 23  2  0
 23  2  1  0
 22 18  1  0
  1 24  1  0
  1 25  1  0
  1 26  1  0
  3 27  1  0
 14 28  1  0
 14 29  1  0
 17 30  1  0
 20 31  1  0
 21 32  1  0
M  END
>  <Binding energies>  (1) 
[-5.89]

>  <Ligand effiencies>  (1) 
[-0.24541666666666664]

>  <Interactions>  (1) 
["V-B:ASP:366:CB:8183, V-B:ASP:366:CG:8184, V-A:TYR:539:CD1:4873, V-B:GLY:454:CA:9020, V-A:ILE:538:CG2:4863, V-A:ILE:538:CB:4862, V-B:LEU:475:CD2:9230, V-A:ALA:541:CB:4892, V-A:PRO:540:CA:4883, V-B:ILE:369:CG2:8208, V-B:ILE:369:CG1:8209, V-A:TYR:539:CE1:4875, V-A:TYR:539:C:4867, H-A:TYR:539:N:4870, V-B:ILE:369:CB:8207, V-A:PRO:540:N:4884, V-A:MET:535:CE:4835, H-B:GLY:454:N:9021, V-A:PRO:540:C:4881, V-B:ASP:366:CA:8181, H-A:ALA:541:N:4891, H-A:TYR:539:O:4868, V-B:ARG:545:CZ:9898, V-A:ILE:538:CA:4860, V-B:GLY:453:C:9013, V-B:ILE:369:CD1:8210, V-B:GLY:453:CA:9015, V-B:CYS:365:C:8175"]

$$$$
2k_Grossjean_2025
     RDKit          3D

 50 50  0  0  0  0  0  0  0  0999 V2000
  124.1450  137.0420   60.5960 C   0  0  0  0  0  0  0  0  0  0  0  0
  123.5110  135.8500   61.0310 O   0  0  0  0  0  0  0  0  0  0  0  0
  124.2730  135.1170   61.9820 C   0  0  0  0  0  0  0  0  0  0  0  0
  124.6120  133.7320   61.4180 C   0  0  0  0  0  0  0  0  0  0  0  0
  124.3970  132.7560   62.4270 O   0  0  0  0  0  0  0  0  0  0  0  0
  123.3340  131.8520   62.1490 C   0  0  0  0  0  0  0  0  0  0  0  0
  123.8620  130.4200   62.3090 C   0  0  0  0  0  0  0  0  0  0  0  0
  123.7020  130.0480   63.6700 O   0  0  0  0  0  0  0  0  0  0  0  0
  124.8520  130.2260   64.4830 C   0  0  0  0  0  0  0  0  0  0  0  0
  126.1110  130.0300   63.6180 C   0  0  0  0  0  0  0  0  0  0  0  0
  126.6560  131.2900   63.1070 N   0  0  0  0  0  0  0  0  0  0  0  0
  127.6400  132.0090   63.6810 C   0  0  0  0  0  0  0  0  0  0  0  0
  128.2220  131.6600   64.7100 O   0  0  0  0  0  0  0  0  0  0  0  0
  127.9940  133.3300   62.9830 C   0  0  0  0  0  0  0  0  0  0  0  0
  128.1330  133.2420   61.1640 S   0  0  0  0  0  0  0  0  0  0  0  0
  129.7230  132.5550   60.7220 C   0  0  0  0  0  0  0  0  0  0  0  0
  130.5420  132.2510   61.7610 N   0  0  0  0  0  0  0  0  0  0  0  0
  131.7630  131.7320   61.5000 C   0  0  0  0  0  0  0  0  0  0  0  0
  132.6220  131.4300   62.7130 C   0  0  0  0  0  0  0  0  0  0  0  0
  132.2130  131.4840   60.2070 C   0  0  0  0  0  0  0  0  0  0  0  0
  131.3800  131.7830   59.1170 C   0  0  0  0  0  0  0  0  0  0  0  0
  131.8910  131.4970   57.6920 C   0  0  0  0  0  0  0  0  0  0  0  0
  133.0880  130.9080   57.6820 F   0  0  0  0  0  0  0  0  0  0  0  0
  131.0410  130.6910   57.0550 F   0  0  0  0  0  0  0  0  0  0  0  0
  132.0000  132.6370   57.0090 F   0  0  0  0  0  0  0  0  0  0  0  0
  130.0990  132.3350   59.3760 C   0  0  0  0  0  0  0  0  0  0  0  0
  129.1890  132.6700   58.2760 C   0  0  0  0  0  0  0  0  0  0  0  0
  128.4710  132.9340   57.4070 N   0  0  0  0  0  0  0  0  0  0  0  0
  124.4582  137.6309   61.4707 H   0  0  0  0  0  0  0  0  0  0  0  0
  125.0272  136.7880   59.9900 H   0  0  0  0  0  0  0  0  0  0  0  0
  123.4413  137.6315   59.9900 H   0  0  0  0  0  0  0  0  0  0  0  0
  125.2041  135.6602   62.2010 H   0  0  0  0  0  0  0  0  0  0  0  0
  123.6867  135.0001   62.9054 H   0  0  0  0  0  0  0  0  0  0  0  0
  123.9659  133.5175   60.5539 H   0  0  0  0  0  0  0  0  0  0  0  0
  125.6639  133.7090   61.0971 H   0  0  0  0  0  0  0  0  0  0  0  0
  122.5065  132.0237   62.8531 H   0  0  0  0  0  0  0  0  0  0  0  0
  122.9645  132.0065   61.1245 H   0  0  0  0  0  0  0  0  0  0  0  0
  123.2903  129.7361   61.6644 H   0  0  0  0  0  0  0  0  0  0  0  0
  124.9214  130.3663   62.0180 H   0  0  0  0  0  0  0  0  0  0  0  0
  124.8503  131.2407   64.9076 H   0  0  0  0  0  0  0  0  0  0  0  0
  124.8456  129.4924   65.3026 H   0  0  0  0  0  0  0  0  0  0  0  0
  126.8819  129.5363   64.2278 H   0  0  0  0  0  0  0  0  0  0  0  0
  125.8218  129.4202   62.7494 H   0  0  0  0  0  0  0  0  0  0  0  0
  126.2420  131.6400   62.2550 H   0  0  0  0  0  0  0  0  0  0  0  0
  127.2121  134.0637   63.2285 H   0  0  0  0  0  0  0  0  0  0  0  0
  128.9927  133.6087   63.3502 H   0  0  0  0  0  0  0  0  0  0  0  0
  132.0472  131.6321   63.6288 H   0  0  0  0  0  0  0  0  0  0  0  0
  132.9230  130.3721   62.6949 H   0  0  0  0  0  0  0  0  0  0  0  0
  133.5188  132.0668   62.6949 H   0  0  0  0  0  0  0  0  0  0  0  0
  133.2130  131.0573   60.0401 H   0  0  0  0  0  0  0  0  0  0  0  0
  1  2  1  0
  2  3  1  0
  3  4  1  0
  4  5  1  0
  5  6  1  0
  6  7  1  0
  7  8  1  0
  8  9  1  0
  9 10  1  0
 10 11  1  0
 11 12  1  0
 12 13  2  0
 12 14  1  0
 14 15  1  0
 15 16  1  0
 16 17  2  0
 17 18  1  0
 18 19  1  0
 18 20  2  0
 20 21  1  0
 21 22  1  0
 22 23  1  0
 22 24  1  0
 22 25  1  0
 21 26  2  0
 26 27  1  0
 27 28  3  0
 26 16  1  0
  1 29  1  0
  1 30  1  0
  1 31  1  0
  3 32  1  0
  3 33  1  0
  4 34  1  0
  4 35  1  0
  6 36  1  0
  6 37  1  0
  7 38  1  0
  7 39  1  0
  9 40  1  0
  9 41  1  0
 10 42  1  0
 10 43  1  0
 11 44  1  0
 14 45  1  0
 14 46  1  0
 19 47  1  0
 19 48  1  0
 19 49  1  0
 20 50  1  0
M  END
>  <Binding energies>  (1) 
[-6.03]

>  <Ligand effiencies>  (1) 
[-0.20793103448275863]

>  <Interactions>  (1) 
["V-A:GLU:543:CD:4908, V-B:ASP:366:CG:8184, V-A:GLU:543:CG:4907, V-A:TYR:539:CD1:4873, V-B:GLY:454:CA:9020, V-A:LEU:363:CD1:3189, V-A:TYR:531:CE2:4793, V-A:ILE:538:CB:4862, V-B:LEU:475:CD2:9230, V-A:ALA:541:CB:4892, V-A:PRO:540:CA:4883, V-B:ILE:369:CG2:8208, V-A:PRO:540:CB:4885, V-A:ASP:366:CB:3212, H-B:ARG:545:NH2:9900, V-B:ILE:369:CG1:8209, V-A:TYR:539:C:4867, V-A:PRO:540:N:4884, H-B:TYR:484:OH:9319, H-B:GLY:454:N:9021, V-A:PRO:540:C:4881, H-A:ALA:541:N:4891, V-B:ARG:545:CZ:9898, H-B:ARG:545:NH1:9899, V-A:PRO:540:CD:4887, V-B:SER:385:CA:8378, V-B:HIS:383:CD2:8363, V-B:SER:385:CB:8380, V-B:LEU:373:CD1:8251, V-A:ASN:362:CB:3176"]

$$$$
3aa_Grossjean_2025
     RDKit          3D

 52 54  0  0  0  0  0  0  0  0999 V2000
  127.5440  138.2510   61.8970 C   0  0  0  0  0  0  0  0  0  0  0  0
  126.0740  137.8860   62.1250 C   0  0  0  0  0  0  0  0  0  0  0  0
  125.5040  137.4300   60.9050 O   0  0  0  0  0  0  0  0  0  0  0  0
  124.5400  136.4740   60.8980 C   0  0  0  0  0  0  0  0  0  0  0  0
  123.4310  136.6290   60.3760 O   0  0  0  0  0  0  0  0  0  0  0  0
  124.9500  135.2130   61.6030 C   0  0  0  0  0  0  0  0  0  0  0  0
  124.0910  134.5430   62.4880 C   0  0  0  0  0  0  0  0  0  0  0  0
  124.5010  133.3730   63.1210 C   0  0  0  0  0  0  0  0  0  0  0  0
  125.7710  132.8460   62.8800 C   0  0  0  0  0  0  0  0  0  0  0  0
  126.0840  131.6570   63.5690 N   0  0  0  0  0  0  0  0  0  0  0  0
  125.2730  130.6500   63.9620 C   0  0  0  0  0  0  0  0  0  0  0  0
  124.0540  130.6090   63.7950 O   0  0  0  0  0  0  0  0  0  0  0  0
  125.9630  129.4900   64.6790 C   0  0  0  0  0  0  0  0  0  0  0  0
  127.6730  129.9030   65.1420 S   0  0  0  0  0  0  0  0  0  0  0  0
  128.3910  128.4360   65.8470 C   0  0  0  0  0  0  0  0  0  0  0  0
  128.4310  128.4470   67.2010 N   0  0  0  0  0  0  0  0  0  0  0  0
  128.9570  127.3880   67.8680 C   0  0  0  0  0  0  0  0  0  0  0  0
  128.9510  127.4700   69.3640 C   0  0  0  0  0  0  0  0  0  0  0  0
  127.8510  127.0040   70.1020 C   0  0  0  0  0  0  0  0  0  0  0  0
  127.8390  127.0750   71.4930 C   0  0  0  0  0  0  0  0  0  0  0  0
  128.9300  127.6150   72.1650 C   0  0  0  0  0  0  0  0  0  0  0  0
  130.0330  128.0820   71.4580 C   0  0  0  0  0  0  0  0  0  0  0  0
  130.0430  128.0060   70.0680 C   0  0  0  0  0  0  0  0  0  0  0  0
  129.4520  126.2780   67.1770 C   0  0  0  0  0  0  0  0  0  0  0  0
  129.4380  126.2510   65.7730 C   0  0  0  0  0  0  0  0  0  0  0  0
  130.0040  125.0150   65.0480 C   0  0  0  0  0  0  0  0  0  0  0  0
  129.2480  124.6270   64.0190 F   0  0  0  0  0  0  0  0  0  0  0  0
  131.2210  125.2790   64.5710 F   0  0  0  0  0  0  0  0  0  0  0  0
  130.0860  123.9890   65.8960 F   0  0  0  0  0  0  0  0  0  0  0  0
  128.9040  127.3650   65.0820 C   0  0  0  0  0  0  0  0  0  0  0  0
  128.9160  127.4170   63.6170 C   0  0  0  0  0  0  0  0  0  0  0  0
  128.9260  127.4580   62.4600 N   0  0  0  0  0  0  0  0  0  0  0  0
  126.6400  133.5170   62.0070 C   0  0  0  0  0  0  0  0  0  0  0  0
  126.2290  134.6870   61.3770 C   0  0  0  0  0  0  0  0  0  0  0  0
  128.0457  138.3756   62.8680 H   0  0  0  0  0  0  0  0  0  0  0  0
  128.0374  137.4481   61.3297 H   0  0  0  0  0  0  0  0  0  0  0  0
  127.6045  139.1915   61.3297 H   0  0  0  0  0  0  0  0  0  0  0  0
  126.0069  137.0899   62.8811 H   0  0  0  0  0  0  0  0  0  0  0  0
  125.5264  138.7728   62.4766 H   0  0  0  0  0  0  0  0  0  0  0  0
  123.0860  134.9456   62.6829 H   0  0  0  0  0  0  0  0  0  0  0  0
  123.8196  132.8602   63.8158 H   0  0  0  0  0  0  0  0  0  0  0  0
  127.0530  131.5810   63.8440 H   0  0  0  0  0  0  0  0  0  0  0  0
  125.3963  129.2469   65.5899 H   0  0  0  0  0  0  0  0  0  0  0  0
  125.9928  128.6322   63.9911 H   0  0  0  0  0  0  0  0  0  0  0  0
  126.9860  126.5766   69.5738 H   0  0  0  0  0  0  0  0  0  0  0  0
  126.9702  126.7055   72.0575 H   0  0  0  0  0  0  0  0  0  0  0  0
  128.9207  127.6733   73.2634 H   0  0  0  0  0  0  0  0  0  0  0  0
  130.8931  128.5092   71.9945 H   0  0  0  0  0  0  0  0  0  0  0  0
  130.9191  128.3711   69.5120 H   0  0  0  0  0  0  0  0  0  0  0  0
  129.8548  125.4208   67.7364 H   0  0  0  0  0  0  0  0  0  0  0  0
  127.6477  133.1174   61.8204 H   0  0  0  0  0  0  0  0  0  0  0  0
  126.9166  135.2058   60.6928 H   0  0  0  0  0  0  0  0  0  0  0  0
  1  2  1  0
  2  3  1  0
  3  4  1  0
  4  5  2  0
  4  6  1  0
  6  7  2  0
  7  8  1  0
  8  9  2  0
  9 10  1  0
 10 11  1  0
 11 12  2  0
 11 13  1  0
 13 14  1  0
 14 15  1  0
 15 16  2  0
 16 17  1  0
 17 18  1  0
 18 19  2  0
 19 20  1  0
 20 21  2  0
 21 22  1  0
 22 23  2  0
 17 24  2  0
 24 25  1  0
 25 26  1  0
 26 27  1  0
 26 28  1  0
 26 29  1  0
 25 30  2  0
 30 31  1  0
 31 32  3  0
  9 33  1  0
 33 34  2  0
 34  6  1  0
 30 15  1  0
 23 18  1  0
  1 35  1  0
  1 36  1  0
  1 37  1  0
  2 38  1  0
  2 39  1  0
  7 40  1  0
  8 41  1  0
 10 42  1  0
 13 43  1  0
 13 44  1  0
 19 45  1  0
 20 46  1  0
 21 47  1  0
 22 48  1  0
 23 49  1  0
 24 50  1  0
 33 51  1  0
 34 52  1  0
M  END
>  <Binding energies>  (1) 
[-8.87]

>  <Ligand effiencies>  (1) 
[-0.2534285714285714]

>  <Interactions>  (1) 
["V-B:GLU:543:C:9874, V-A:GLU:543:CD:4908, V-A:GLU:543:C:4902, V-A:HIS:456:CE1:4070, V-B:GLY:544:C:9884, V-A:GLU:543:CB:4906, V-B:HIS:456:CE1:9041, V-B:HIS:456:CD2:9039, V-B:GLU:543:CB:9878, V-B:GLU:543:CG:9879, V-B:GLU:543:CD:9880, V-A:GLU:543:CG:4907, V-A:TYR:484:CE2:4346, V-A:TYR:484:CZ:4347, V-A:TYR:539:CD1:4873, V-B:GLY:454:CA:9020, V-B:LEU:475:CD2:9230, V-A:TYR:539:CE1:4875, H-B:TYR:484:OH:9319, H-B:GLY:454:N:9021, V-B:LEU:475:CG:9228, V-B:SER:385:CA:8378, V-B:HIS:383:CE1:8364, V-B:SER:385:CB:8380, V-B:LEU:373:CD1:8251, H-B:HIS:383:NE2:8365"]

$$$$
3ab_Grossjean_2025
     RDKit          3D

 49 51  0  0  0  0  0  0  0  0999 V2000
  131.1240  126.6270   73.8170 C   0  0  0  0  0  0  0  0  0  0  0  0
  129.9630  127.4020   73.5510 O   0  0  0  0  0  0  0  0  0  0  0  0
  129.9910  128.4120   72.6440 C   0  0  0  0  0  0  0  0  0  0  0  0
  130.0840  129.6030   72.9530 O   0  0  0  0  0  0  0  0  0  0  0  0
  129.8990  127.9350   71.2230 C   0  0  0  0  0  0  0  0  0  0  0  0
  128.7380  127.3290   70.7160 C   0  0  0  0  0  0  0  0  0  0  0  0
  128.6810  126.8970   69.3940 C   0  0  0  0  0  0  0  0  0  0  0  0
  129.7910  127.0630   68.5510 C   0  0  0  0  0  0  0  0  0  0  0  0
  129.8430  126.6710   67.1990 N   0  0  0  0  0  0  0  0  0  0  0  0
  129.8330  125.4360   66.6550 C   0  0  0  0  0  0  0  0  0  0  0  0
  129.7870  124.3780   67.2820 O   0  0  0  0  0  0  0  0  0  0  0  0
  129.8860  125.3930   65.1260 C   0  0  0  0  0  0  0  0  0  0  0  0
  129.7240  123.7010   64.4830 S   0  0  0  0  0  0  0  0  0  0  0  0
  130.1860  123.7360   62.7640 C   0  0  0  0  0  0  0  0  0  0  0  0
  129.1360  123.6150   61.9180 N   0  0  0  0  0  0  0  0  0  0  0  0
  129.3430  123.6310   60.5760 C   0  0  0  0  0  0  0  0  0  0  0  0
  128.1270  123.4950   59.7080 C   0  0  0  0  0  0  0  0  0  0  0  0
  126.8800  123.9760   60.1380 C   0  0  0  0  0  0  0  0  0  0  0  0
  125.7480  123.8530   59.3370 C   0  0  0  0  0  0  0  0  0  0  0  0
  125.8480  123.2430   58.0900 C   0  0  0  0  0  0  0  0  0  0  0  0
  127.0700  122.7550   57.6410 C   0  0  0  0  0  0  0  0  0  0  0  0
  128.1990  122.8800   58.4460 C   0  0  0  0  0  0  0  0  0  0  0  0
  130.6350  123.7500   60.0520 C   0  0  0  0  0  0  0  0  0  0  0  0
  131.7410  123.8570   60.9080 C   0  0  0  0  0  0  0  0  0  0  0  0
  133.1480  123.9800   60.2910 C   0  0  0  0  0  0  0  0  0  0  0  0
  133.1220  124.0790   58.9600 F   0  0  0  0  0  0  0  0  0  0  0  0
  133.7620  125.0680   60.7590 F   0  0  0  0  0  0  0  0  0  0  0  0
  133.8760  122.9060   60.6000 F   0  0  0  0  0  0  0  0  0  0  0  0
  131.5190  123.8420   62.3070 C   0  0  0  0  0  0  0  0  0  0  0  0
  132.6440  123.8940   63.2450 C   0  0  0  0  0  0  0  0  0  0  0  0
  133.5340  123.9340   63.9830 N   0  0  0  0  0  0  0  0  0  0  0  0
  130.9440  127.6700   69.0500 C   0  0  0  0  0  0  0  0  0  0  0  0
  131.0000  128.1000   70.3730 C   0  0  0  0  0  0  0  0  0  0  0  0
  131.2621  126.5348   74.9044 H   0  0  0  0  0  0  0  0  0  0  0  0
  131.0057  125.6261   73.3763 H   0  0  0  0  0  0  0  0  0  0  0  0
  132.0030  127.1201   73.3763 H   0  0  0  0  0  0  0  0  0  0  0  0
  127.8643  127.1943   71.3706 H   0  0  0  0  0  0  0  0  0  0  0  0
  127.7649  126.4249   69.0094 H   0  0  0  0  0  0  0  0  0  0  0  0
  129.9360  127.4410   66.5530 H   0  0  0  0  0  0  0  0  0  0  0  0
  129.0643  126.0048   64.7254 H   0  0  0  0  0  0  0  0  0  0  0  0
  130.8649  125.7829   64.8101 H   0  0  0  0  0  0  0  0  0  0  0  0
  126.7961  124.4577   61.1234 H   0  0  0  0  0  0  0  0  0  0  0  0
  124.7786  124.2363   59.6882 H   0  0  0  0  0  0  0  0  0  0  0  0
  124.9545  123.1464   57.4557 H   0  0  0  0  0  0  0  0  0  0  0  0
  127.1444  122.2728   56.6551 H   0  0  0  0  0  0  0  0  0  0  0  0
  129.1638  122.4909   58.0884 H   0  0  0  0  0  0  0  0  0  0  0  0
  130.7842  123.7597   58.9622 H   0  0  0  0  0  0  0  0  0  0  0  0
  131.8152  127.8098   68.3932 H   0  0  0  0  0  0  0  0  0  0  0  0
  131.9169  128.5734   70.7541 H   0  0  0  0  0  0  0  0  0  0  0  0
  1  2  1  0
  2  3  1  0
  3  4  2  0
  3  5  1  0
  5  6  2  0
  6  7  1  0
  7  8  2  0
  8  9  1  0
  9 10  1  0
 10 11  2  0
 10 12  1  0
 12 13  1  0
 13 14  1  0
 14 15  2  0
 15 16  1  0
 16 17  1  0
 17 18  2  0
 18 19  1  0
 19 20  2  0
 20 21  1  0
 21 22  2  0
 16 23  2  0
 23 24  1  0
 24 25  1  0
 25 26  1  0
 25 27  1  0
 25 28  1  0
 24 29  2  0
 29 30  1  0
 30 31  3  0
  8 32  1  0
 32 33  2  0
 33  5  1  0
 29 14  1  0
 22 17  1  0
  1 34  1  0
  1 35  1  0
  1 36  1  0
  6 37  1  0
  7 38  1  0
  9 39  1  0
 12 40  1  0
 12 41  1  0
 18 42  1  0
 19 43  1  0
 20 44  1  0
 21 45  1  0
 22 46  1  0
 23 47  1  0
 32 48  1  0
 33 49  1  0
M  END
>  <Binding energies>  (1) 
[-8.49]

>  <Ligand effiencies>  (1) 
[-0.2497058823529412]

>  <Interactions>  (1) 
["H-A:LYS:547:NZ:4951, V-B:GLU:543:C:9874, V-A:GLU:543:CD:4908, V-A:GLU:543:C:4902, V-A:HIS:456:CE1:4070, V-A:GLU:543:CB:4906, V-B:HIS:456:CE1:9041, V-A:GLY:544:C:4912, V-B:GLU:543:CB:9878, V-A:ARG:545:CG:4922, V-B:TYR:539:CE2:9848, V-B:PRO:540:CB:9857, V-A:ILE:369:CG2:3237, V-B:TYR:539:CZ:9849, V-B:TYR:539:CD2:9846, V-B:TYR:539:CG:9844, V-B:PRO:540:CA:9855, V-A:HIS:456:CG:4066, V-A:HIS:456:CD2:4068, V-B:GLU:543:CG:9879, V-B:GLU:543:CD:9880, V-A:ILE:369:CD1:3239, H-A:GLU:543:OE2:4910, H-A:GLU:543:OE1:4909, V-A:ASP:366:CB:3212, V-B:PRO:540:N:9856, V-B:TYR:539:C:9839, V-B:PRO:540:CD:9859, V-A:ASP:366:CG:3213, H-A:GLY:454:N:4050, H-A:TYR:484:OH:4348, V-A:ASP:366:CA:3210, V-A:ILE:369:CB:3236"]

$$$$
3ac_Grossjean_2025
     RDKit          3D

 47 49  0  0  0  0  0  0  0  0999 V2000
  124.1400  130.7550   56.8860 C   0  0  0  0  0  0  0  0  0  0  0  0
  123.7520  131.5730   57.9850 O   0  0  0  0  0  0  0  0  0  0  0  0
  124.0530  131.1640   59.2700 C   0  0  0  0  0  0  0  0  0  0  0  0
  125.3570  130.7210   59.4920 C   0  0  0  0  0  0  0  0  0  0  0  0
  125.7540  130.2930   60.7560 C   0  0  0  0  0  0  0  0  0  0  0  0
  124.8470  130.2940   61.8170 C   0  0  0  0  0  0  0  0  0  0  0  0
  125.3470  129.8640   63.0600 N   0  0  0  0  0  0  0  0  0  0  0  0
  124.6940  129.7110   64.2330 C   0  0  0  0  0  0  0  0  0  0  0  0
  123.4880  129.8900   64.4050 O   0  0  0  0  0  0  0  0  0  0  0  0
  125.5590  129.2740   65.4160 C   0  0  0  0  0  0  0  0  0  0  0  0
  127.3290  129.5780   65.1240 S   0  0  0  0  0  0  0  0  0  0  0  0
  128.2620  128.2210   65.8060 C   0  0  0  0  0  0  0  0  0  0  0  0
  128.3460  128.2580   67.1580 N   0  0  0  0  0  0  0  0  0  0  0  0
  129.0210  127.2850   67.8210 C   0  0  0  0  0  0  0  0  0  0  0  0
  129.0730  127.4030   69.3150 C   0  0  0  0  0  0  0  0  0  0  0  0
  130.2040  127.9360   69.9550 C   0  0  0  0  0  0  0  0  0  0  0  0
  130.2560  128.0550   71.3410 C   0  0  0  0  0  0  0  0  0  0  0  0
  129.1740  127.6380   72.1090 C   0  0  0  0  0  0  0  0  0  0  0  0
  128.0440  127.1020   71.5020 C   0  0  0  0  0  0  0  0  0  0  0  0
  127.9960  126.9860   70.1160 C   0  0  0  0  0  0  0  0  0  0  0  0
  129.6510  126.2480   67.1250 C   0  0  0  0  0  0  0  0  0  0  0  0
  129.5980  126.1990   65.7240 C   0  0  0  0  0  0  0  0  0  0  0  0
  130.3110  125.0410   64.9970 C   0  0  0  0  0  0  0  0  0  0  0  0
  131.3400  125.4530   64.2530 F   0  0  0  0  0  0  0  0  0  0  0  0
  130.7870  124.1630   65.8810 F   0  0  0  0  0  0  0  0  0  0  0  0
  129.4520  124.4180   64.1880 F   0  0  0  0  0  0  0  0  0  0  0  0
  128.8970  127.2200   65.0360 C   0  0  0  0  0  0  0  0  0  0  0  0
  128.8800  127.2530   63.5720 C   0  0  0  0  0  0  0  0  0  0  0  0
  128.8670  127.2790   62.4150 N   0  0  0  0  0  0  0  0  0  0  0  0
  123.5350  130.7460   61.6030 C   0  0  0  0  0  0  0  0  0  0  0  0
  123.1420  131.1740   60.3380 C   0  0  0  0  0  0  0  0  0  0  0  0
  124.5830  129.8211   57.2624 H   0  0  0  0  0  0  0  0  0  0  0  0
  123.2569  130.5211   56.2733 H   0  0  0  0  0  0  0  0  0  0  0  0
  124.8799  131.2909   56.2733 H   0  0  0  0  0  0  0  0  0  0  0  0
  126.0779  130.7097   58.6612 H   0  0  0  0  0  0  0  0  0  0  0  0
  126.7872  129.9525   60.9193 H   0  0  0  0  0  0  0  0  0  0  0  0
  126.3180  129.5900   63.0480 H   0  0  0  0  0  0  0  0  0  0  0  0
  125.2462  129.8343   66.3094 H   0  0  0  0  0  0  0  0  0  0  0  0
  125.4208  128.1914   65.5531 H   0  0  0  0  0  0  0  0  0  0  0  0
  131.0627  128.2648   69.3512 H   0  0  0  0  0  0  0  0  0  0  0  0
  131.1485  128.4768   71.8264 H   0  0  0  0  0  0  0  0  0  0  0  0
  129.2126  127.7330   73.2042 H   0  0  0  0  0  0  0  0  0  0  0  0
  127.1921  126.7712   72.1142 H   0  0  0  0  0  0  0  0  0  0  0  0
  127.1003  126.5609   69.6395 H   0  0  0  0  0  0  0  0  0  0  0  0
  130.1911  125.4664   67.6794 H   0  0  0  0  0  0  0  0  0  0  0  0
  122.8168  130.7619   62.4360 H   0  0  0  0  0  0  0  0  0  0  0  0
  122.1115  131.5221   60.1743 H   0  0  0  0  0  0  0  0  0  0  0  0
  1  2  1  0
  2  3  1  0
  3  4  2  0
  4  5  1  0
  5  6  2  0
  6  7  1  0
  7  8  1  0
  8  9  2  0
  8 10  1  0
 10 11  1  0
 11 12  1  0
 12 13  2  0
 13 14  1  0
 14 15  1  0
 15 16  2  0
 16 17  1  0
 17 18  2  0
 18 19  1  0
 19 20  2  0
 14 21  2  0
 21 22  1  0
 22 23  1  0
 23 24  1  0
 23 25  1  0
 23 26  1  0
 22 27  2  0
 27 28  1  0
 28 29  3  0
  6 30  1  0
 30 31  2  0
 31  3  1  0
 27 12  1  0
 20 15  1  0
  1 32  1  0
  1 33  1  0
  1 34  1  0
  4 35  1  0
  5 36  1  0
  7 37  1  0
 10 38  1  0
 10 39  1  0
 16 40  1  0
 17 41  1  0
 18 42  1  0
 19 43  1  0
 20 44  1  0
 21 45  1  0
 30 46  1  0
 31 47  1  0
M  END
>  <Binding energies>  (1) 
[-8.02]

>  <Ligand effiencies>  (1) 
[-0.250625]

>  <Interactions>  (1) 
["V-B:GLU:543:C:9874, V-A:GLU:543:CD:4908, V-A:GLU:543:C:4902, V-A:HIS:456:CE1:4070, V-A:GLU:543:CB:4906, V-B:HIS:456:CE1:9041, V-A:GLY:544:C:4912, V-B:HIS:456:CD2:9039, V-B:GLU:543:CB:9878, V-B:ASP:366:CB:8183, V-B:ASP:366:CG:8184, V-B:GLU:543:CG:9879, V-B:GLU:543:CD:9880, V-A:GLU:543:CG:4907, V-A:TYR:484:CE2:4346, V-A:TYR:484:CZ:4347, V-B:ILE:369:CG2:8208, H-B:ARG:545:NH2:9900, V-B:ILE:369:CG1:8209, V-B:ILE:369:CB:8207, H-B:TYR:484:OH:9319, H-B:GLY:454:N:9021, V-B:ASP:366:CA:8181, V-B:TYR:531:CZ:9766, V-B:ARG:545:CZ:9898, H-B:ARG:545:NH1:9899, H-B:ARG:545:NE:9896, V-A:TYR:539:CZ:4877, V-B:ASP:366:C:8179, H-A:TYR:539:OH:4878, V-B:TYR:531:CE1:9764"]

$$$$
3ad_Grossjean_2025
     RDKit          3D

 43 45  0  0  0  0  0  0  0  0999 V2000
  129.3490  126.2400   54.9670 N   0  0  0  0  0  0  0  0  0  0  0  0
  129.3820  125.7490   56.0140 C   0  0  0  0  0  0  0  0  0  0  0  0
  129.4200  125.1240   57.3400 C   0  0  0  0  0  0  0  0  0  0  0  0
  128.4890  124.1170   57.6930 C   0  0  0  0  0  0  0  0  0  0  0  0
  127.4230  123.5890   56.7140 C   0  0  0  0  0  0  0  0  0  0  0  0
  126.7990  122.4990   57.1650 F   0  0  0  0  0  0  0  0  0  0  0  0
  126.4960  124.5250   56.5030 F   0  0  0  0  0  0  0  0  0  0  0  0
  127.9890  123.2710   55.5480 F   0  0  0  0  0  0  0  0  0  0  0  0
  128.5380  123.5840   58.9900 C   0  0  0  0  0  0  0  0  0  0  0  0
  129.4870  124.0450   59.9090 C   0  0  0  0  0  0  0  0  0  0  0  0
  129.5740  123.5210   61.3110 C   0  0  0  0  0  0  0  0  0  0  0  0
  129.6810  122.1430   61.5570 C   0  0  0  0  0  0  0  0  0  0  0  0
  129.7630  121.6500   62.8560 C   0  0  0  0  0  0  0  0  0  0  0  0
  129.7400  122.5330   63.9320 C   0  0  0  0  0  0  0  0  0  0  0  0
  129.6380  123.9030   63.7150 C   0  0  0  0  0  0  0  0  0  0  0  0
  129.5570  124.3920   62.4140 C   0  0  0  0  0  0  0  0  0  0  0  0
  130.3730  125.0140   59.5670 N   0  0  0  0  0  0  0  0  0  0  0  0
  130.3590  125.5290   58.3150 C   0  0  0  0  0  0  0  0  0  0  0  0
  131.5970  126.7770   58.0420 S   0  0  0  0  0  0  0  0  0  0  0  0
  133.0460  125.9510   57.3200 C   0  0  0  0  0  0  0  0  0  0  0  0
  133.4950  124.7440   58.1470 C   0  0  0  0  0  0  0  0  0  0  0  0
  134.2010  123.8850   57.6180 O   0  0  0  0  0  0  0  0  0  0  0  0
  133.0630  124.7250   59.4260 N   0  0  0  0  0  0  0  0  0  0  0  0
  133.3010  123.7820   60.4440 C   0  0  0  0  0  0  0  0  0  0  0  0
  133.6760  124.3110   61.6830 C   0  0  0  0  0  0  0  0  0  0  0  0
  133.9390  123.4650   62.7570 C   0  0  0  0  0  0  0  0  0  0  0  0
  133.8310  122.0870   62.5930 C   0  0  0  0  0  0  0  0  0  0  0  0
  133.4650  121.5470   61.3630 C   0  0  0  0  0  0  0  0  0  0  0  0
  133.2010  122.3890   60.2850 C   0  0  0  0  0  0  0  0  0  0  0  0
  127.8263  122.7992   59.2860 H   0  0  0  0  0  0  0  0  0  0  0  0
  129.7003  121.4418   60.7097 H   0  0  0  0  0  0  0  0  0  0  0  0
  129.8456  120.5673   63.0317 H   0  0  0  0  0  0  0  0  0  0  0  0
  129.8028  122.1451   64.9594 H   0  0  0  0  0  0  0  0  0  0  0  0
  129.6214  124.5974   64.5679 H   0  0  0  0  0  0  0  0  0  0  0  0
  129.4785  125.4764   62.2468 H   0  0  0  0  0  0  0  0  0  0  0  0
  132.7907  125.6103   56.3057 H   0  0  0  0  0  0  0  0  0  0  0  0
  133.8738  126.6752   57.3025 H   0  0  0  0  0  0  0  0  0  0  0  0
  132.4450  125.4760   59.6970 H   0  0  0  0  0  0  0  0  0  0  0  0
  133.7636  125.4002   61.8096 H   0  0  0  0  0  0  0  0  0  0  0  0
  134.2310  123.8839   63.7313 H   0  0  0  0  0  0  0  0  0  0  0  0
  134.0366  121.4190   63.4424 H   0  0  0  0  0  0  0  0  0  0  0  0
  133.3844  120.4566   61.2425 H   0  0  0  0  0  0  0  0  0  0  0  0
  132.9149  121.9646   59.3114 H   0  0  0  0  0  0  0  0  0  0  0  0
  1  2  3  0
  2  3  1  0
  3  4  2  0
  4  5  1  0
  5  6  1  0
  5  7  1  0
  5  8  1  0
  4  9  1  0
  9 10  2  0
 10 11  1  0
 11 12  2  0
 12 13  1  0
 13 14  2  0
 14 15  1  0
 15 16  2  0
 10 17  1  0
 17 18  2  0
 18 19  1  0
 19 20  1  0
 20 21  1  0
 21 22  2  0
 21 23  1  0
 23 24  1  0
 24 25  2  0
 25 26  1  0
 26 27  2  0
 27 28  1  0
 28 29  2  0
 18  3  1  0
 29 24  1  0
 16 11  1  0
  9 30  1  0
 12 31  1  0
 13 32  1  0
 14 33  1  0
 15 34  1  0
 16 35  1  0
 20 36  1  0
 20 37  1  0
 23 38  1  0
 25 39  1  0
 26 40  1  0
 27 41  1  0
 28 42  1  0
 29 43  1  0
M  END
>  <Binding energies>  (1) 
[-7.23]

>  <Ligand effiencies>  (1) 
[-0.24100000000000002]

>  <Interactions>  (1) 
["V-B:TYR:539:CE2:9848, H-B:TYR:539:OH:9850, V-A:LEU:475:CD2:4259, V-B:MET:535:CE:9807, V-B:PRO:540:CB:9857, V-A:ILE:369:CG2:3237, V-B:TYR:539:CZ:9849, V-B:TYR:539:CD2:9846, V-B:TYR:539:CE1:9847, V-B:PRO:540:CA:9855, V-B:GLU:543:CG:9879, V-B:GLU:543:CD:9880, V-B:ALA:541:CB:9864, V-A:ILE:369:CD1:3239, V-A:TYR:531:CZ:4794, V-A:ASP:366:CB:3212, V-B:PRO:540:N:9856, H-A:TYR:531:OH:4795, V-B:TYR:539:CD1:9845, V-B:TYR:539:C:9839, V-B:PRO:540:CD:9859, V-A:ASP:366:CG:3213, H-A:ASP:366:OD1:3214, V-A:GLY:453:C:4042, V-A:GLY:454:CA:4049, V-A:ASP:366:CA:3210, V-A:ASP:366:C:3208, H-A:ASN:370:N:3244"]

$$$$
3af_Grossjean_2025
     RDKit          3D

 42 44  0  0  0  0  0  0  0  0999 V2000
  124.4660  130.4000   64.8240 N   0  0  0  0  0  0  0  0  0  0  0  0
  124.6070  130.5560   63.6860 C   0  0  0  0  0  0  0  0  0  0  0  0
  124.7840  130.7540   62.2450 C   0  0  0  0  0  0  0  0  0  0  0  0
  123.6640  130.9250   61.3960 C   0  0  0  0  0  0  0  0  0  0  0  0
  122.2170  130.9640   61.9260 C   0  0  0  0  0  0  0  0  0  0  0  0
  121.8970  132.1390   62.4740 F   0  0  0  0  0  0  0  0  0  0  0  0
  121.3610  130.7400   60.9270 F   0  0  0  0  0  0  0  0  0  0  0  0
  122.0460  130.0290   62.8610 F   0  0  0  0  0  0  0  0  0  0  0  0
  123.8820  131.0560   60.0160 C   0  0  0  0  0  0  0  0  0  0  0  0
  125.1800  131.0150   59.4980 C   0  0  0  0  0  0  0  0  0  0  0  0
  125.4690  131.1310   58.0310 C   0  0  0  0  0  0  0  0  0  0  0  0
  126.7720  131.3830   57.5740 C   0  0  0  0  0  0  0  0  0  0  0  0
  127.0460  131.4890   56.2130 C   0  0  0  0  0  0  0  0  0  0  0  0
  126.0170  131.3430   55.2890 C   0  0  0  0  0  0  0  0  0  0  0  0
  124.7180  131.0900   55.7150 C   0  0  0  0  0  0  0  0  0  0  0  0
  124.4480  130.9840   57.0770 C   0  0  0  0  0  0  0  0  0  0  0  0
  126.2510  130.8470   60.3150 N   0  0  0  0  0  0  0  0  0  0  0  0
  126.0680  130.7410   61.6540 C   0  0  0  0  0  0  0  0  0  0  0  0
  127.5890  130.5420   62.5600 S   0  0  0  0  0  0  0  0  0  0  0  0
  128.4380  132.1500   62.5930 C   0  0  0  0  0  0  0  0  0  0  0  0
  129.5130  132.2470   61.5120 C   0  0  0  0  0  0  0  0  0  0  0  0
  130.6890  132.3870   61.8480 O   0  0  0  0  0  0  0  0  0  0  0  0
  129.0630  132.1770   60.2400 N   0  0  0  0  0  0  0  0  0  0  0  0
  129.7800  132.2410   59.0290 C   0  0  0  0  0  0  0  0  0  0  0  0
  130.8850  131.4420   58.6850 C   0  0  0  0  0  0  0  0  0  0  0  0
  131.5040  131.6150   57.4450 C   0  0  0  0  0  0  0  0  0  0  0  0
  131.0020  132.5860   56.5780 C   0  0  0  0  0  0  0  0  0  0  0  0
  129.9390  133.3690   56.8850 N   0  0  0  0  0  0  0  0  0  0  0  0
  129.3480  133.1880   58.0940 C   0  0  0  0  0  0  0  0  0  0  0  0
  123.0267  131.1917   59.3378 H   0  0  0  0  0  0  0  0  0  0  0  0
  127.5887  131.4984   58.3018 H   0  0  0  0  0  0  0  0  0  0  0  0
  128.0722  131.6874   55.8701 H   0  0  0  0  0  0  0  0  0  0  0  0
  126.2323  131.4283   54.2137 H   0  0  0  0  0  0  0  0  0  0  0  0
  123.9078  130.9742   54.9801 H   0  0  0  0  0  0  0  0  0  0  0  0
  123.4196  130.7821   57.4111 H   0  0  0  0  0  0  0  0  0  0  0  0
  127.6973  132.9470   62.4309 H   0  0  0  0  0  0  0  0  0  0  0  0
  128.9275  132.2578   63.5722 H   0  0  0  0  0  0  0  0  0  0  0  0
  128.0690  132.0540   60.1270 H   0  0  0  0  0  0  0  0  0  0  0  0
  131.2599  130.6845   59.3890 H   0  0  0  0  0  0  0  0  0  0  0  0
  132.3689  130.9988   57.1581 H   0  0  0  0  0  0  0  0  0  0  0  0
  131.4906  132.7222   55.6019 H   0  0  0  0  0  0  0  0  0  0  0  0
  128.4845  133.8188   58.3518 H   0  0  0  0  0  0  0  0  0  0  0  0
  1  2  3  0
  2  3  1  0
  3  4  2  0
  4  5  1  0
  5  6  1  0
  5  7  1  0
  5  8  1  0
  4  9  1  0
  9 10  2  0
 10 11  1  0
 11 12  2  0
 12 13  1  0
 13 14  2  0
 14 15  1  0
 15 16  2  0
 10 17  1  0
 17 18  2  0
 18 19  1  0
 19 20  1  0
 20 21  1  0
 21 22  2  0
 21 23  1  0
 23 24  1  0
 24 25  2  0
 25 26  1  0
 26 27  2  0
 27 28  1  0
 28 29  2  0
 18  3  1  0
 29 24  1  0
 16 11  1  0
  9 30  1  0
 12 31  1  0
 13 32  1  0
 14 33  1  0
 15 34  1  0
 16 35  1  0
 20 36  1  0
 20 37  1  0
 23 38  1  0
 25 39  1  0
 26 40  1  0
 27 41  1  0
 29 42  1  0
M  END
>  <Binding energies>  (1) 
[-8.0]

>  <Ligand effiencies>  (1) 
[-0.26666666666666666]

>  <Interactions>  (1) 
["V-B:ASP:366:CB:8183, V-B:ASP:366:CG:8184, V-A:TYR:539:CD1:4873, V-B:GLY:454:CA:9020, V-A:LEU:363:CD1:3189, V-A:ILE:538:CG2:4863, V-A:ILE:538:CB:4862, V-A:PRO:540:CA:4883, V-B:ILE:369:CG2:8208, V-B:ILE:369:CG1:8209, V-A:TYR:539:CE1:4875, V-A:TYR:539:C:4867, H-A:TYR:539:N:4870, V-B:ILE:369:CB:8207, V-A:PRO:540:N:4884, H-B:TYR:484:OH:9319, V-A:MET:535:CE:4835, H-B:GLY:454:N:9021, V-B:ASP:366:CA:8181, H-A:ALA:541:N:4891, V-B:TYR:531:CZ:9766, V-B:ARG:545:CZ:9898, V-A:TYR:539:CZ:4877, V-B:GLY:453:C:9013, V-B:ILE:369:CD1:8210, V-A:TYR:539:CA:4869, V-B:TYR:531:CE1:9764, V-B:GLY:453:CA:9015, V-B:CYS:365:C:8175"]

$$$$
3ag_Grossjean_2025
     RDKit          3D

 46 48  0  0  0  0  0  0  0  0999 V2000
  133.3640  131.8760   59.1410 N   0  0  0  0  0  0  0  0  0  0  0  0
  132.2240  131.7730   58.9650 C   0  0  0  0  0  0  0  0  0  0  0  0
  130.7820  131.6430   58.7390 C   0  0  0  0  0  0  0  0  0  0  0  0
  130.2160  131.9600   57.4790 C   0  0  0  0  0  0  0  0  0  0  0  0
  131.0670  132.3960   56.2700 C   0  0  0  0  0  0  0  0  0  0  0  0
  131.8380  133.4520   56.5340 F   0  0  0  0  0  0  0  0  0  0  0  0
  131.8670  131.3970   55.8960 F   0  0  0  0  0  0  0  0  0  0  0  0
  130.2770  132.7240   55.2470 F   0  0  0  0  0  0  0  0  0  0  0  0
  128.8240  131.8720   57.3280 C   0  0  0  0  0  0  0  0  0  0  0  0
  128.0180  131.4900   58.4070 C   0  0  0  0  0  0  0  0  0  0  0  0
  126.5280  131.3820   58.3020 C   0  0  0  0  0  0  0  0  0  0  0  0
  125.7170  131.5310   59.4390 C   0  0  0  0  0  0  0  0  0  0  0  0
  124.3310  131.4320   59.3490 C   0  0  0  0  0  0  0  0  0  0  0  0
  123.7350  131.1800   58.1170 C   0  0  0  0  0  0  0  0  0  0  0  0
  124.5160  131.0250   56.9760 C   0  0  0  0  0  0  0  0  0  0  0  0
  125.9010  131.1250   57.0700 C   0  0  0  0  0  0  0  0  0  0  0  0
  128.5660  131.1750   59.6090 N   0  0  0  0  0  0  0  0  0  0  0  0
  129.9100  131.2340   59.7720 C   0  0  0  0  0  0  0  0  0  0  0  0
  130.4480  130.7860   61.4070 S   0  0  0  0  0  0  0  0  0  0  0  0
  128.9770  130.7620   62.4740 C   0  0  0  0  0  0  0  0  0  0  0  0
  128.5460  132.1680   62.8960 C   0  0  0  0  0  0  0  0  0  0  0  0
  128.2500  132.3930   64.0710 O   0  0  0  0  0  0  0  0  0  0  0  0
  128.5240  133.1010   61.9290 N   0  0  0  0  0  0  0  0  0  0  0  0
  128.1790  134.5100   62.1160 C   0  0  0  0  0  0  0  0  0  0  0  0
  126.7490  134.8590   61.7180 C   0  0  0  0  0  0  0  0  0  0  0  0
  125.7590  133.8740   61.7520 C   0  0  0  0  0  0  0  0  0  0  0  0
  124.4460  134.1960   61.4180 C   0  0  0  0  0  0  0  0  0  0  0  0
  124.1260  135.5040   61.0590 C   0  0  0  0  0  0  0  0  0  0  0  0
  125.1060  136.4940   61.0370 C   0  0  0  0  0  0  0  0  0  0  0  0
  126.4190  136.1730   61.3720 C   0  0  0  0  0  0  0  0  0  0  0  0
  128.3634  132.1044   56.3565 H   0  0  0  0  0  0  0  0  0  0  0  0
  126.1837  131.7289   60.4152 H   0  0  0  0  0  0  0  0  0  0  0  0
  123.7094  131.5526   60.2485 H   0  0  0  0  0  0  0  0  0  0  0  0
  122.6401  131.1029   58.0448 H   0  0  0  0  0  0  0  0  0  0  0  0
  124.0411  130.8244   56.0043 H   0  0  0  0  0  0  0  0  0  0  0  0
  126.5151  131.0010   56.1658 H   0  0  0  0  0  0  0  0  0  0  0  0
  128.1497  130.2874   61.9261 H   0  0  0  0  0  0  0  0  0  0  0  0
  129.2295  130.1987   63.3845 H   0  0  0  0  0  0  0  0  0  0  0  0
  128.7910  132.8310   60.9940 H   0  0  0  0  0  0  0  0  0  0  0  0
  128.3126  134.7602   63.1788 H   0  0  0  0  0  0  0  0  0  0  0  0
  128.8421  135.0891   61.4565 H   0  0  0  0  0  0  0  0  0  0  0  0
  126.0164  132.8447   62.0424 H   0  0  0  0  0  0  0  0  0  0  0  0
  123.6651  133.4215   61.4374 H   0  0  0  0  0  0  0  0  0  0  0  0
  123.0898  135.7572   60.7904 H   0  0  0  0  0  0  0  0  0  0  0  0
  124.8438  137.5247   60.7562 H   0  0  0  0  0  0  0  0  0  0  0  0
  127.1955  136.9521   61.3644 H   0  0  0  0  0  0  0  0  0  0  0  0
  1  2  3  0
  2  3  1  0
  3  4  2  0
  4  5  1  0
  5  6  1  0
  5  7  1  0
  5  8  1  0
  4  9  1  0
  9 10  2  0
 10 11  1  0
 11 12  2  0
 12 13  1  0
 13 14  2  0
 14 15  1  0
 15 16  2  0
 10 17  1  0
 17 18  2  0
 18 19  1  0
 19 20  1  0
 20 21  1  0
 21 22  2  0
 21 23  1  0
 23 24  1  0
 24 25  1  0
 25 26  2  0
 26 27  1  0
 27 28  2  0
 28 29  1  0
 29 30  2  0
 18  3  1  0
 30 25  1  0
 16 11  1  0
  9 31  1  0
 12 32  1  0
 13 33  1  0
 14 34  1  0
 15 35  1  0
 16 36  1  0
 20 37  1  0
 20 38  1  0
 23 39  1  0
 24 40  1  0
 24 41  1  0
 26 42  1  0
 27 43  1  0
 28 44  1  0
 29 45  1  0
 30 46  1  0
M  END
>  <Binding energies>  (1) 
[-7.33]

>  <Ligand effiencies>  (1) 
[-0.2364516129032258]

>  <Interactions>  (1) 
["V-A:GLU:543:CD:4908, V-B:ASP:366:CB:8183, V-A:TYR:539:CD1:4873, V-A:LEU:363:CD1:3189, V-A:TYR:531:CE2:4793, V-A:ILE:538:CG2:4863, V-A:ILE:538:CB:4862, V-A:TYR:531:CZ:4794, V-B:LEU:475:CD2:9230, V-A:ALA:541:CB:4892, V-A:PRO:540:CA:4883, V-B:ILE:369:CG2:8208, V-A:PRO:540:CB:4885, V-A:TYR:539:CE1:4875, V-B:ILE:369:CB:8207, V-A:PRO:540:N:4884, H-B:TYR:484:OH:9319, V-A:MET:535:CE:4835, V-A:PRO:540:C:4881, V-B:ASP:366:CA:8181, V-B:TYR:531:CZ:9766, H-A:TYR:539:O:4868, V-A:PRO:540:CD:4887, V-A:ILE:538:CA:4860, V-A:TYR:539:CZ:4877, V-A:PRO:540:CG:4886, V-B:SER:385:CA:8378, V-B:ASP:366:C:8179, V-B:SER:385:CB:8380, V-A:ILE:538:C:4858"]

$$$$
3ai_Grossjean_2025
     RDKit          3D

 39 41  0  0  0  0  0  0  0  0999 V2000
  122.9850  131.5770   61.0680 N   0  0  0  0  0  0  0  0  0  0  0  0
  123.9850  131.7250   60.5040 C   0  0  0  0  0  0  0  0  0  0  0  0
  125.2490  131.9140   59.7870 C   0  0  0  0  0  0  0  0  0  0  0  0
  125.4450  131.3500   58.5030 C   0  0  0  0  0  0  0  0  0  0  0  0
  124.3480  130.5550   57.7680 C   0  0  0  0  0  0  0  0  0  0  0  0
  123.1160  130.9140   58.1350 F   0  0  0  0  0  0  0  0  0  0  0  0
  124.4490  130.7510   56.4520 F   0  0  0  0  0  0  0  0  0  0  0  0
  124.4760  129.2530   58.0220 F   0  0  0  0  0  0  0  0  0  0  0  0
  126.6900  131.5180   57.8790 C   0  0  0  0  0  0  0  0  0  0  0  0
  127.7120  132.2270   58.5190 C   0  0  0  0  0  0  0  0  0  0  0  0
  129.0650  132.4280   57.9040 C   0  0  0  0  0  0  0  0  0  0  0  0
  129.1910  132.8030   56.5570 C   0  0  0  0  0  0  0  0  0  0  0  0
  130.4430  132.9960   55.9810 C   0  0  0  0  0  0  0  0  0  0  0  0
  131.5900  132.8170   56.7470 C   0  0  0  0  0  0  0  0  0  0  0  0
  131.4930  132.4490   58.0850 C   0  0  0  0  0  0  0  0  0  0  0  0
  130.2390  132.2570   58.6580 C   0  0  0  0  0  0  0  0  0  0  0  0
  127.5240  132.7580   59.7540 N   0  0  0  0  0  0  0  0  0  0  0  0
  126.3220  132.6300   60.3660 C   0  0  0  0  0  0  0  0  0  0  0  0
  126.2540  133.4100   61.9650 S   0  0  0  0  0  0  0  0  0  0  0  0
  126.6450  132.1450   63.2220 C   0  0  0  0  0  0  0  0  0  0  0  0
  128.1410  131.9740   63.5260 C   0  0  0  0  0  0  0  0  0  0  0  0
  128.5440  131.9070   64.6900 O   0  0  0  0  0  0  0  0  0  0  0  0
  128.9350  131.9100   62.4340 N   0  0  0  0  0  0  0  0  0  0  0  0
  130.3150  131.7520   62.4060 C   0  0  0  0  0  0  0  0  0  0  0  0
  130.9790  131.0240   61.4190 C   0  0  0  0  0  0  0  0  0  0  0  0
  132.3120  131.1070   61.7480 C   0  0  0  0  0  0  0  0  0  0  0  0
  132.4450  131.8470   62.8740 O   0  0  0  0  0  0  0  0  0  0  0  0
  131.1720  132.2510   63.2810 N   0  0  0  0  0  0  0  0  0  0  0  0
  126.8636  131.0898   56.8808 H   0  0  0  0  0  0  0  0  0  0  0  0
  128.2865  132.9464   55.9477 H   0  0  0  0  0  0  0  0  0  0  0  0
  130.5252  133.2890   54.9239 H   0  0  0  0  0  0  0  0  0  0  0  0
  132.5801  132.9674   56.2919 H   0  0  0  0  0  0  0  0  0  0  0  0
  132.4029  132.3104   58.6874 H   0  0  0  0  0  0  0  0  0  0  0  0
  130.1656  131.9671   59.7166 H   0  0  0  0  0  0  0  0  0  0  0  0
  126.1364  132.4238   64.1566 H   0  0  0  0  0  0  0  0  0  0  0  0
  126.3030  131.1846   62.8090 H   0  0  0  0  0  0  0  0  0  0  0  0
  128.4880  131.9780   61.5320 H   0  0  0  0  0  0  0  0  0  0  0  0
  130.5331  130.4972   60.5625 H   0  0  0  0  0  0  0  0  0  0  0  0
  133.1378  130.6460   61.1862 H   0  0  0  0  0  0  0  0  0  0  0  0
  1  2  3  0
  2  3  1  0
  3  4  2  0
  4  5  1  0
  5  6  1  0
  5  7  1  0
  5  8  1  0
  4  9  1  0
  9 10  2  0
 10 11  1  0
 11 12  2  0
 12 13  1  0
 13 14  2  0
 14 15  1  0
 15 16  2  0
 10 17  1  0
 17 18  2  0
 18 19  1  0
 19 20  1  0
 20 21  1  0
 21 22  2  0
 21 23  1  0
 23 24  1  0
 24 25  1  0
 25 26  2  0
 26 27  1  0
 27 28  1  0
 18  3  1  0
 28 24  2  0
 16 11  1  0
  9 29  1  0
 12 30  1  0
 13 31  1  0
 14 32  1  0
 15 33  1  0
 16 34  1  0
 20 35  1  0
 20 36  1  0
 23 37  1  0
 25 38  1  0
 26 39  1  0
M  END
>  <Binding energies>  (1) 
[-7.75]

>  <Ligand effiencies>  (1) 
[-0.2672413793103448]

>  <Interactions>  (1) 
["V-A:GLU:543:CD:4908, V-B:ASP:366:CB:8183, V-B:ASP:366:CG:8184, V-A:GLU:543:CG:4907, V-A:TYR:539:CD1:4873, V-A:LEU:363:CD1:3189, V-A:ILE:538:CG2:4863, V-A:ILE:538:CB:4862, V-B:LEU:475:CD2:9230, V-A:ALA:541:CB:4892, V-A:PRO:540:CA:4883, V-B:ILE:369:CG2:8208, V-A:PRO:540:CB:4885, V-A:TYR:539:CE1:4875, V-B:ILE:369:CB:8207, V-A:PRO:540:N:4884, H-B:TYR:484:OH:9319, V-A:MET:535:CE:4835, V-B:ASP:366:CA:8181, H-A:ALA:541:N:4891, V-B:TYR:531:CZ:9766, V-A:PRO:540:CD:4887, V-A:ILE:538:CA:4860, V-A:TYR:539:CZ:4877, V-B:ASP:366:C:8179, V-A:ILE:538:C:4858, V-B:TYR:531:CE1:9764"]

$$$$
3aj_Grossjean_2025
     RDKit          3D

 39 41  0  0  0  0  0  0  0  0999 V2000
  124.3850  130.3990   64.8480 N   0  0  0  0  0  0  0  0  0  0  0  0
  124.5180  130.5190   63.7050 C   0  0  0  0  0  0  0  0  0  0  0  0
  124.6830  130.6730   62.2560 C   0  0  0  0  0  0  0  0  0  0  0  0
  123.5580  130.8330   61.4120 C   0  0  0  0  0  0  0  0  0  0  0  0
  122.1160  130.9000   61.9520 C   0  0  0  0  0  0  0  0  0  0  0  0
  121.8730  129.9850   62.8940 F   0  0  0  0  0  0  0  0  0  0  0  0
  121.8840  132.0990   62.4870 F   0  0  0  0  0  0  0  0  0  0  0  0
  121.2470  130.6930   60.9620 F   0  0  0  0  0  0  0  0  0  0  0  0
  123.7670  130.9280   60.0280 C   0  0  0  0  0  0  0  0  0  0  0  0
  125.0610  130.8610   59.5010 C   0  0  0  0  0  0  0  0  0  0  0  0
  125.3390  130.9470   58.0310 C   0  0  0  0  0  0  0  0  0  0  0  0
  124.2860  131.0070   57.1060 C   0  0  0  0  0  0  0  0  0  0  0  0
  124.5370  131.0920   55.7380 C   0  0  0  0  0  0  0  0  0  0  0  0
  125.8500  131.1160   55.2780 C   0  0  0  0  0  0  0  0  0  0  0  0
  126.9110  131.0590   56.1760 C   0  0  0  0  0  0  0  0  0  0  0  0
  126.6550  130.9760   57.5410 C   0  0  0  0  0  0  0  0  0  0  0  0
  126.1360  130.6990   60.3140 N   0  0  0  0  0  0  0  0  0  0  0  0
  125.9620  130.6290   61.6550 C   0  0  0  0  0  0  0  0  0  0  0  0
  127.4840  130.4410   62.5590 S   0  0  0  0  0  0  0  0  0  0  0  0
  128.3090  132.0680   62.6090 C   0  0  0  0  0  0  0  0  0  0  0  0
  129.3580  132.2990   61.5120 C   0  0  0  0  0  0  0  0  0  0  0  0
  130.5210  132.5920   61.8010 O   0  0  0  0  0  0  0  0  0  0  0  0
  128.8960  132.1520   60.2500 N   0  0  0  0  0  0  0  0  0  0  0  0
  129.6270  132.2940   59.0780 C   0  0  0  0  0  0  0  0  0  0  0  0
  130.7690  131.7220   58.7630 N   0  0  0  0  0  0  0  0  0  0  0  0
  131.1780  132.0820   57.5620 C   0  0  0  0  0  0  0  0  0  0  0  0
  130.3560  132.9690   56.8730 C   0  0  0  0  0  0  0  0  0  0  0  0
  128.9780  133.3470   57.8610 S   0  0  0  0  0  0  0  0  0  0  0  0
  122.9079  131.0560   59.3530 H   0  0  0  0  0  0  0  0  0  0  0  0
  123.2468  130.9866   57.4660 H   0  0  0  0  0  0  0  0  0  0  0  0
  123.7009  131.1399   55.0249 H   0  0  0  0  0  0  0  0  0  0  0  0
  126.0502  131.1804   54.1983 H   0  0  0  0  0  0  0  0  0  0  0  0
  127.9476  131.0795   55.8085 H   0  0  0  0  0  0  0  0  0  0  0  0
  127.4967  130.9324   58.2478 H   0  0  0  0  0  0  0  0  0  0  0  0
  127.5366  132.8451   62.5113 H   0  0  0  0  0  0  0  0  0  0  0  0
  128.8512  132.1079   63.5653 H   0  0  0  0  0  0  0  0  0  0  0  0
  127.9250  131.9040   60.1350 H   0  0  0  0  0  0  0  0  0  0  0  0
  132.1156  131.7028   57.1294 H   0  0  0  0  0  0  0  0  0  0  0  0
  130.5479  133.3665   55.8655 H   0  0  0  0  0  0  0  0  0  0  0  0
  1  2  3  0
  2  3  1  0
  3  4  2  0
  4  5  1  0
  5  6  1  0
  5  7  1  0
  5  8  1  0
  4  9  1  0
  9 10  2  0
 10 11  1  0
 11 12  2  0
 12 13  1  0
 13 14  2  0
 14 15  1  0
 15 16  2  0
 10 17  1  0
 17 18  2  0
 18 19  1  0
 19 20  1  0
 20 21  1  0
 21 22  2  0
 21 23  1  0
 23 24  1  0
 24 25  2  0
 25 26  1  0
 26 27  2  0
 27 28  1  0
 18  3  1  0
 28 24  1  0
 16 11  1  0
  9 29  1  0
 12 30  1  0
 13 31  1  0
 14 32  1  0
 15 33  1  0
 16 34  1  0
 20 35  1  0
 20 36  1  0
 23 37  1  0
 26 38  1  0
 27 39  1  0
M  END
>  <Binding energies>  (1) 
[-6.78]

>  <Ligand effiencies>  (1) 
[-0.23379310344827586]

>  <Interactions>  (1) 
["V-B:ASP:366:CB:8183, V-B:ASP:366:CG:8184, V-A:TYR:539:CD1:4873, V-B:GLY:454:CA:9020, V-A:ILE:538:CB:4862, V-A:PRO:540:CA:4883, V-B:ILE:369:CG2:8208, V-A:PRO:540:CB:4885, V-B:ILE:369:CG1:8209, V-A:TYR:539:CE1:4875, V-A:TYR:539:C:4867, V-B:ILE:369:CB:8207, V-A:PRO:540:N:4884, H-B:TYR:484:OH:9319, V-A:MET:535:CE:4835, H-B:GLY:454:N:9021, V-B:ASP:366:CA:8181, H-A:ALA:541:N:4891, V-B:TYR:531:CZ:9766, V-B:ARG:545:CZ:9898, V-A:ILE:538:CA:4860, V-A:TYR:539:CZ:4877, V-A:TYR:539:CG:4872, V-B:GLY:453:C:9013, V-B:ILE:369:CD1:8210, V-A:TYR:539:CA:4869, V-B:TYR:531:CE1:9764, V-B:GLY:453:CA:9015, V-B:ASN:370:CB:8216, V-B:CYS:365:C:8175"]

$$$$
3ak_Grossjean_2025
     RDKit          3D

 57 58  0  0  0  0  0  0  0  0999 V2000
  131.7000  132.3940   57.2550 C   0  0  0  0  0  0  0  0  0  0  0  0
  131.0020  133.3850   56.5170 O   0  0  0  0  0  0  0  0  0  0  0  0
  129.9220  132.8640   55.7540 C   0  0  0  0  0  0  0  0  0  0  0  0
  128.6340  132.9590   56.5810 C   0  0  0  0  0  0  0  0  0  0  0  0
  128.9100  133.6600   57.7890 O   0  0  0  0  0  0  0  0  0  0  0  0
  128.5280  132.9920   58.9880 C   0  0  0  0  0  0  0  0  0  0  0  0
  128.0700  131.5390   58.7690 C   0  0  0  0  0  0  0  0  0  0  0  0
  126.8620  131.3170   59.4840 O   0  0  0  0  0  0  0  0  0  0  0  0
  125.6880  131.4960   58.7020 C   0  0  0  0  0  0  0  0  0  0  0  0
  124.4910  131.8280   59.6110 C   0  0  0  0  0  0  0  0  0  0  0  0
  124.4590  131.0450   60.8480 N   0  0  0  0  0  0  0  0  0  0  0  0
  123.3740  130.8250   61.6150 C   0  0  0  0  0  0  0  0  0  0  0  0
  122.2580  131.2610   61.3330 O   0  0  0  0  0  0  0  0  0  0  0  0
  123.5320  129.9930   62.8990 C   0  0  0  0  0  0  0  0  0  0  0  0
  124.7340  130.6140   64.1330 S   0  0  0  0  0  0  0  0  0  0  0  0
  125.9200  131.6590   63.3020 C   0  0  0  0  0  0  0  0  0  0  0  0
  125.4160  132.7860   62.7390 N   0  0  0  0  0  0  0  0  0  0  0  0
  126.2380  133.6410   62.0800 C   0  0  0  0  0  0  0  0  0  0  0  0
  125.5970  134.8610   61.4900 C   0  0  0  0  0  0  0  0  0  0  0  0
  124.2240  134.8820   61.2010 C   0  0  0  0  0  0  0  0  0  0  0  0
  123.6230  136.0140   60.6570 C   0  0  0  0  0  0  0  0  0  0  0  0
  124.3890  137.1450   60.3950 C   0  0  0  0  0  0  0  0  0  0  0  0
  125.7510  137.1510   60.6740 C   0  0  0  0  0  0  0  0  0  0  0  0
  126.3490  136.0180   61.2190 C   0  0  0  0  0  0  0  0  0  0  0  0
  127.6110  133.3850   61.9840 C   0  0  0  0  0  0  0  0  0  0  0  0
  128.1580  132.2290   62.5570 C   0  0  0  0  0  0  0  0  0  0  0  0
  129.6740  131.9800   62.4290 C   0  0  0  0  0  0  0  0  0  0  0  0
  130.2740  132.2030   63.5980 F   0  0  0  0  0  0  0  0  0  0  0  0
  129.9000  130.7190   62.0600 F   0  0  0  0  0  0  0  0  0  0  0  0
  130.2530  132.7720   61.5230 F   0  0  0  0  0  0  0  0  0  0  0  0
  127.2930  131.3360   63.2350 C   0  0  0  0  0  0  0  0  0  0  0  0
  127.8090  130.1110   63.8550 C   0  0  0  0  0  0  0  0  0  0  0  0
  128.2160  129.1430   64.3430 N   0  0  0  0  0  0  0  0  0  0  0  0
  131.5698  132.5789   58.3315 H   0  0  0  0  0  0  0  0  0  0  0  0
  131.3013  131.4003   57.0028 H   0  0  0  0  0  0  0  0  0  0  0  0
  132.7699  132.4347   57.0028 H   0  0  0  0  0  0  0  0  0  0  0  0
  129.8095  133.4473   54.8282 H   0  0  0  0  0  0  0  0  0  0  0  0
  130.1217  131.8132   55.4971 H   0  0  0  0  0  0  0  0  0  0  0  0
  127.8666  133.4998   56.0078 H   0  0  0  0  0  0  0  0  0  0  0  0
  128.2658  131.9488   56.8131 H   0  0  0  0  0  0  0  0  0  0  0  0
  129.3901  132.9849   59.6711 H   0  0  0  0  0  0  0  0  0  0  0  0
  127.6688  133.5406   59.4013 H   0  0  0  0  0  0  0  0  0  0  0  0
  127.9000  131.3646   57.6963 H   0  0  0  0  0  0  0  0  0  0  0  0
  128.8459  130.8484   59.1309 H   0  0  0  0  0  0  0  0  0  0  0  0
  125.8460  132.3218   57.9927 H   0  0  0  0  0  0  0  0  0  0  0  0
  125.4760  130.5663   58.1537 H   0  0  0  0  0  0  0  0  0  0  0  0
  124.5408  132.8945   59.8758 H   0  0  0  0  0  0  0  0  0  0  0  0
  123.5796  131.5786   59.0479 H   0  0  0  0  0  0  0  0  0  0  0  0
  125.3360  130.6360   61.1360 H   0  0  0  0  0  0  0  0  0  0  0  0
  122.5477  129.9423   63.3875 H   0  0  0  0  0  0  0  0  0  0  0  0
  123.9293  129.0217   62.5692 H   0  0  0  0  0  0  0  0  0  0  0  0
  123.6133  133.9907   61.4074 H   0  0  0  0  0  0  0  0  0  0  0  0
  122.5456  136.0139   60.4351 H   0  0  0  0  0  0  0  0  0  0  0  0
  123.9147  138.0394   59.9648 H   0  0  0  0  0  0  0  0  0  0  0  0
  126.3536  138.0472   60.4650 H   0  0  0  0  0  0  0  0  0  0  0  0
  127.4263  136.0280   61.4410 H   0  0  0  0  0  0  0  0  0  0  0  0
  128.2641  134.0952   61.4558 H   0  0  0  0  0  0  0  0  0  0  0  0
  1  2  1  0
  2  3  1  0
  3  4  1  0
  4  5  1  0
  5  6  1  0
  6  7  1  0
  7  8  1  0
  8  9  1  0
  9 10  1  0
 10 11  1  0
 11 12  1  0
 12 13  2  0
 12 14  1  0
 14 15  1  0
 15 16  1  0
 16 17  2  0
 17 18  1  0
 18 19  1  0
 19 20  2  0
 20 21  1  0
 21 22  2  0
 22 23  1  0
 23 24  2  0
 18 25  2  0
 25 26  1  0
 26 27  1  0
 27 28  1  0
 27 29  1  0
 27 30  1  0
 26 31  2  0
 31 32  1  0
 32 33  3  0
 31 16  1  0
 24 19  1  0
  1 34  1  0
  1 35  1  0
  1 36  1  0
  3 37  1  0
  3 38  1  0
  4 39  1  0
  4 40  1  0
  6 41  1  0
  6 42  1  0
  7 43  1  0
  7 44  1  0
  9 45  1  0
  9 46  1  0
 10 47  1  0
 10 48  1  0
 11 49  1  0
 14 50  1  0
 14 51  1  0
 20 52  1  0
 21 53  1  0
 22 54  1  0
 23 55  1  0
 24 56  1  0
 25 57  1  0
M  END
>  <Binding energies>  (1) 
[-6.14]

>  <Ligand effiencies>  (1) 
[-0.18058823529411763]

>  <Interactions>  (1) 
["V-A:GLU:543:CD:4908, V-B:ASP:366:CG:8184, V-A:GLU:543:CG:4907, V-A:TYR:539:CD1:4873, V-A:LEU:363:CD1:3189, V-A:ILE:538:CG2:4863, V-A:ILE:538:CB:4862, V-B:LEU:475:CD2:9230, V-A:ALA:541:CB:4892, V-A:PRO:540:CA:4883, V-B:ILE:369:CG2:8208, V-A:PRO:540:CB:4885, V-A:TYR:539:CE1:4875, V-A:TYR:539:C:4867, V-A:ALA:541:CA:4890, H-A:TYR:539:N:4870, V-A:PRO:540:N:4884, H-B:TYR:484:OH:9319, V-A:MET:535:CE:4835, H-B:GLY:454:N:9021, V-A:PRO:540:C:4881, V-B:ARG:545:CZ:9898, V-A:PRO:540:CD:4887, V-A:ILE:538:CA:4860, V-A:TYR:539:CZ:4877, V-A:ALA:541:C:4888, V-A:TYR:539:CG:4872, V-B:SER:385:CA:8378, V-B:HIS:383:CD2:8363, V-B:SER:385:CB:8380, V-A:TYR:539:CE2:4876, V-A:ILE:538:C:4858, V-A:TYR:539:CB:4871, V-B:LEU:373:CD1:8251, V-A:TYR:539:CD2:4874, V-B:GLY:453:CA:9015"]

$$$$
3bc_Grossjean_2025
     RDKit          3D

 47 49  0  0  0  0  0  0  0  0999 V2000
  131.8440  132.4080   55.7680 C   0  0  0  0  0  0  0  0  0  0  0  0
  131.0380  133.3590   56.4550 O   0  0  0  0  0  0  0  0  0  0  0  0
  130.3340  132.9590   57.5760 C   0  0  0  0  0  0  0  0  0  0  0  0
  130.9890  132.0850   58.4420 C   0  0  0  0  0  0  0  0  0  0  0  0
  130.3600  131.6270   59.5970 C   0  0  0  0  0  0  0  0  0  0  0  0
  129.0580  132.0330   59.8970 C   0  0  0  0  0  0  0  0  0  0  0  0
  128.5100  131.5290   61.0910 N   0  0  0  0  0  0  0  0  0  0  0  0
  128.9570  131.6640   62.3580 C   0  0  0  0  0  0  0  0  0  0  0  0
  129.9490  132.3180   62.6860 O   0  0  0  0  0  0  0  0  0  0  0  0
  128.1000  130.9590   63.4190 C   0  0  0  0  0  0  0  0  0  0  0  0
  127.2000  129.4840   62.8350 S   0  0  0  0  0  0  0  0  0  0  0  0
  125.7830  130.0400   61.9140 C   0  0  0  0  0  0  0  0  0  0  0  0
  126.0060  130.1440   60.5810 N   0  0  0  0  0  0  0  0  0  0  0  0
  125.0070  130.5570   59.7580 C   0  0  0  0  0  0  0  0  0  0  0  0
  125.3410  130.6660   58.3000 C   0  0  0  0  0  0  0  0  0  0  0  0
  124.3290  130.8400   57.3440 C   0  0  0  0  0  0  0  0  0  0  0  0
  124.6310  130.9430   55.9890 C   0  0  0  0  0  0  0  0  0  0  0  0
  125.9550  130.8700   55.5710 C   0  0  0  0  0  0  0  0  0  0  0  0
  126.9780  130.6940   56.4970 C   0  0  0  0  0  0  0  0  0  0  0  0
  126.6700  130.5920   57.8520 C   0  0  0  0  0  0  0  0  0  0  0  0
  123.7440  130.8780   60.2670 C   0  0  0  0  0  0  0  0  0  0  0  0
  123.4910  130.7540   61.6370 C   0  0  0  0  0  0  0  0  0  0  0  0
  122.0920  131.0990   62.1460 C   0  0  0  0  0  0  0  0  0  0  0  0
  124.5240  130.3150   62.4940 C   0  0  0  0  0  0  0  0  0  0  0  0
  124.2680  130.1300   63.9230 C   0  0  0  0  0  0  0  0  0  0  0  0
  124.0630  129.9860   65.0530 N   0  0  0  0  0  0  0  0  0  0  0  0
  128.3970  132.9230   59.0380 C   0  0  0  0  0  0  0  0  0  0  0  0
  129.0300  133.3790   57.8840 C   0  0  0  0  0  0  0  0  0  0  0  0
  132.3753  131.7812   56.4993 H   0  0  0  0  0  0  0  0  0  0  0  0
  131.2046  131.7732   55.1369 H   0  0  0  0  0  0  0  0  0  0  0  0
  132.5750  132.9346   55.1369 H   0  0  0  0  0  0  0  0  0  0  0  0
  132.0122  131.7539   58.2110 H   0  0  0  0  0  0  0  0  0  0  0  0
  130.8907  130.9429   60.2755 H   0  0  0  0  0  0  0  0  0  0  0  0
  127.6290  131.0490   60.9760 H   0  0  0  0  0  0  0  0  0  0  0  0
  128.7622  130.6503   64.2413 H   0  0  0  0  0  0  0  0  0  0  0  0
  127.3317  131.6852   63.7229 H   0  0  0  0  0  0  0  0  0  0  0  0
  123.2800  130.8959   57.6704 H   0  0  0  0  0  0  0  0  0  0  0  0
  123.8259  131.0815   55.2524 H   0  0  0  0  0  0  0  0  0  0  0  0
  126.1952  130.9520   54.5007 H   0  0  0  0  0  0  0  0  0  0  0  0
  128.0240  130.6357   56.1615 H   0  0  0  0  0  0  0  0  0  0  0  0
  127.4805  130.4513   58.5823 H   0  0  0  0  0  0  0  0  0  0  0  0
  122.9505  131.2277   59.5902 H   0  0  0  0  0  0  0  0  0  0  0  0
  122.0917  131.0991   63.2460 H   0  0  0  0  0  0  0  0  0  0  0  0
  121.8037  132.0952   61.7792 H   0  0  0  0  0  0  0  0  0  0  0  0
  121.3736  130.3511   61.7792 H   0  0  0  0  0  0  0  0  0  0  0  0
  127.3777  133.2613   59.2758 H   0  0  0  0  0  0  0  0  0  0  0  0
  128.5053  134.0722   57.2101 H   0  0  0  0  0  0  0  0  0  0  0  0
  1  2  1  0
  2  3  1  0
  3  4  2  0
  4  5  1  0
  5  6  2  0
  6  7  1  0
  7  8  1  0
  8  9  2  0
  8 10  1  0
 10 11  1  0
 11 12  1  0
 12 13  2  0
 13 14  1  0
 14 15  1  0
 15 16  2  0
 16 17  1  0
 17 18  2  0
 18 19  1  0
 19 20  2  0
 14 21  2  0
 21 22  1  0
 22 23  1  0
 22 24  2  0
 24 25  1  0
 25 26  3  0
  6 27  1  0
 27 28  2  0
 28  3  1  0
 24 12  1  0
 20 15  1  0
  1 29  1  0
  1 30  1  0
  1 31  1  0
  4 32  1  0
  5 33  1  0
  7 34  1  0
 10 35  1  0
 10 36  1  0
 16 37  1  0
 17 38  1  0
 18 39  1  0
 19 40  1  0
 20 41  1  0
 21 42  1  0
 23 43  1  0
 23 44  1  0
 23 45  1  0
 27 46  1  0
 28 47  1  0
M  END
>  <Binding energies>  (1) 
[-8.14]

>  <Ligand effiencies>  (1) 
[-0.2806896551724138]

>  <Interactions>  (1) 
["V-B:ASP:366:CB:8183, V-B:ASP:366:CG:8184, V-A:TYR:539:CD1:4873, V-B:GLY:454:CA:9020, V-A:LEU:363:CD1:3189, V-A:ILE:538:CG2:4863, V-A:ILE:538:CB:4862, V-A:PRO:540:CA:4883, V-B:ILE:369:CG2:8208, V-A:PRO:540:CB:4885, H-B:ARG:545:NH2:9900, V-B:ILE:369:CG1:8209, V-A:TYR:539:CE1:4875, V-A:TYR:539:C:4867, H-A:TYR:539:N:4870, V-B:ILE:369:CB:8207, V-A:PRO:540:N:4884, H-B:TYR:484:OH:9319, V-A:MET:535:CE:4835, H-B:GLY:454:N:9021, V-B:ASP:366:CA:8181, H-A:ALA:541:N:4891, V-B:TYR:531:CZ:9766, V-B:ARG:545:CZ:9898, H-B:ARG:545:NE:9896, V-A:PRO:540:CD:4887, V-A:ILE:538:CA:4860, V-A:TYR:539:CZ:4877, V-A:TYR:539:CG:4872, V-B:GLY:453:C:9013, V-A:TYR:539:CA:4869, V-B:TYR:531:CE1:9764, V-B:GLY:453:CA:9015"]

$$$$
3bd_Grossjean_2025
     RDKit          3D

 43 45  0  0  0  0  0  0  0  0999 V2000
  122.9640  131.0880   60.7390 C   0  0  0  0  0  0  0  0  0  0  0  0
  124.4780  131.1970   60.9070 C   0  0  0  0  0  0  0  0  0  0  0  0
  125.2390  131.5980   59.8040 C   0  0  0  0  0  0  0  0  0  0  0  0
  126.6300  131.7070   59.9160 C   0  0  0  0  0  0  0  0  0  0  0  0
  127.5050  132.1340   58.7750 C   0  0  0  0  0  0  0  0  0  0  0  0
  128.6760  132.8730   59.0060 C   0  0  0  0  0  0  0  0  0  0  0  0
  129.4910  133.2750   57.9510 C   0  0  0  0  0  0  0  0  0  0  0  0
  129.1450  132.9420   56.6460 C   0  0  0  0  0  0  0  0  0  0  0  0
  127.9880  132.2140   56.3890 C   0  0  0  0  0  0  0  0  0  0  0  0
  127.1750  131.8150   57.4470 C   0  0  0  0  0  0  0  0  0  0  0  0
  127.2550  131.4410   61.0930 N   0  0  0  0  0  0  0  0  0  0  0  0
  126.5330  131.0510   62.1740 C   0  0  0  0  0  0  0  0  0  0  0  0
  127.4730  130.7210   63.6550 S   0  0  0  0  0  0  0  0  0  0  0  0
  128.5460  132.1530   63.9720 C   0  0  0  0  0  0  0  0  0  0  0  0
  129.4960  132.4270   62.8050 C   0  0  0  0  0  0  0  0  0  0  0  0
  129.2740  133.3860   62.0650 O   0  0  0  0  0  0  0  0  0  0  0  0
  130.5230  131.5600   62.6700 N   0  0  0  0  0  0  0  0  0  0  0  0
  131.5650  131.5620   61.7240 C   0  0  0  0  0  0  0  0  0  0  0  0
  131.1980  131.2880   60.4040 C   0  0  0  0  0  0  0  0  0  0  0  0
  132.1620  131.2600   59.4000 C   0  0  0  0  0  0  0  0  0  0  0  0
  133.4970  131.4960   59.7170 C   0  0  0  0  0  0  0  0  0  0  0  0
  133.8770  131.7560   61.0310 C   0  0  0  0  0  0  0  0  0  0  0  0
  132.9160  131.7870   62.0380 C   0  0  0  0  0  0  0  0  0  0  0  0
  125.1290  130.9120   62.1270 C   0  0  0  0  0  0  0  0  0  0  0  0
  124.3590  130.4920   63.3020 C   0  0  0  0  0  0  0  0  0  0  0  0
  123.7500  130.1610   64.2280 N   0  0  0  0  0  0  0  0  0  0  0  0
  122.4867  131.0536   61.7295 H   0  0  0  0  0  0  0  0  0  0  0  0
  122.5929  131.9618   60.1833 H   0  0  0  0  0  0  0  0  0  0  0  0
  122.7219  130.1701   60.1833 H   0  0  0  0  0  0  0  0  0  0  0  0
  124.7444  131.8277   58.8487 H   0  0  0  0  0  0  0  0  0  0  0  0
  128.9541  133.1386   60.0366 H   0  0  0  0  0  0  0  0  0  0  0  0
  130.4052  133.8538   58.1492 H   0  0  0  0  0  0  0  0  0  0  0  0
  129.7900  133.2561   55.8121 H   0  0  0  0  0  0  0  0  0  0  0  0
  127.7165  131.9547   55.3551 H   0  0  0  0  0  0  0  0  0  0  0  0
  126.2599  131.2409   57.2397 H   0  0  0  0  0  0  0  0  0  0  0  0
  127.9159  133.0402   64.1327 H   0  0  0  0  0  0  0  0  0  0  0  0
  129.1550  131.9310   64.8607 H   0  0  0  0  0  0  0  0  0  0  0  0
  130.5250  130.7670   63.2950 H   0  0  0  0  0  0  0  0  0  0  0  0
  130.1438  131.0937   60.1572 H   0  0  0  0  0  0  0  0  0  0  0  0
  131.8700  131.0522   58.3600 H   0  0  0  0  0  0  0  0  0  0  0  0
  134.2578  131.4769   58.9228 H   0  0  0  0  0  0  0  0  0  0  0  0
  134.9347  131.9366   61.2731 H   0  0  0  0  0  0  0  0  0  0  0  0
  133.2139  131.9873   63.0778 H   0  0  0  0  0  0  0  0  0  0  0  0
  1  2  1  0
  2  3  2  0
  3  4  1  0
  4  5  1  0
  5  6  2  0
  6  7  1  0
  7  8  2  0
  8  9  1  0
  9 10  2  0
  4 11  2  0
 11 12  1  0
 12 13  1  0
 13 14  1  0
 14 15  1  0
 15 16  2  0
 15 17  1  0
 17 18  1  0
 18 19  2  0
 19 20  1  0
 20 21  2  0
 21 22  1  0
 22 23  2  0
 12 24  2  0
 24 25  1  0
 25 26  3  0
 24  2  1  0
 10  5  1  0
 23 18  1  0
  1 27  1  0
  1 28  1  0
  1 29  1  0
  3 30  1  0
  6 31  1  0
  7 32  1  0
  8 33  1  0
  9 34  1  0
 10 35  1  0
 14 36  1  0
 14 37  1  0
 17 38  1  0
 19 39  1  0
 20 40  1  0
 21 41  1  0
 22 42  1  0
 23 43  1  0
M  END
>  <Binding energies>  (1) 
[-8.42]

>  <Ligand effiencies>  (1) 
[-0.3118518518518518]

>  <Interactions>  (1) 
["V-A:GLU:543:CD:4908, V-B:ASP:366:CB:8183, V-B:ASP:366:CG:8184, V-A:GLU:543:CG:4907, V-A:TYR:539:CD1:4873, V-A:LEU:363:CD1:3189, H-A:GLU:543:OE1:4909, V-A:ALA:541:CB:4892, V-A:PRO:540:CA:4883, V-B:ILE:369:CG2:8208, V-A:PRO:540:CB:4885, H-B:ARG:545:NH2:9900, V-B:ILE:369:CG1:8209, V-A:TYR:539:CE1:4875, V-A:TYR:539:C:4867, V-A:ALA:541:CA:4890, V-B:ILE:369:CB:8207, V-A:PRO:540:N:4884, H-B:TYR:484:OH:9319, V-A:MET:535:CE:4835, H-B:GLY:454:N:9021, V-A:ASP:366:CG:3213, V-B:ASP:366:CA:8181, H-A:ALA:541:N:4891, V-B:ARG:545:CZ:9898, H-B:ARG:545:NH1:9899, H-B:ARG:545:NE:9896, V-A:ILE:538:CA:4860, V-A:TYR:539:CZ:4877, V-A:TYR:539:CA:4869, V-A:ASN:362:CB:3176, V-A:ASN:362:C:3172, V-A:LEU:363:CA:3185, V-A:LEU:363:CB:3187"]

$$$$
3be_Grossjean_2025
     RDKit          3D

 45 47  0  0  0  0  0  0  0  0999 V2000
  126.7460  137.3900   61.0100 C   0  0  0  0  0  0  0  0  0  0  0  0
  125.9890  136.1130   61.3160 C   0  0  0  0  0  0  0  0  0  0  0  0
  124.5950  136.0920   61.4030 C   0  0  0  0  0  0  0  0  0  0  0  0
  123.9650  134.8800   61.6910 C   0  0  0  0  0  0  0  0  0  0  0  0
  124.7370  133.7310   61.8820 C   0  0  0  0  0  0  0  0  0  0  0  0
  126.1290  133.8210   61.7770 C   0  0  0  0  0  0  0  0  0  0  0  0
  126.8490  132.6310   61.9900 N   0  0  0  0  0  0  0  0  0  0  0  0
  127.5010  132.2240   63.1020 C   0  0  0  0  0  0  0  0  0  0  0  0
  127.5700  132.8720   64.1480 O   0  0  0  0  0  0  0  0  0  0  0  0
  128.1780  130.8500   62.9830 C   0  0  0  0  0  0  0  0  0  0  0  0
  127.0430  129.4470   62.7070 S   0  0  0  0  0  0  0  0  0  0  0  0
  125.6220  130.0520   61.8230 C   0  0  0  0  0  0  0  0  0  0  0  0
  125.8370  130.2150   60.4950 N   0  0  0  0  0  0  0  0  0  0  0  0
  124.8340  130.6680   59.6960 C   0  0  0  0  0  0  0  0  0  0  0  0
  125.1590  130.8340   58.2410 C   0  0  0  0  0  0  0  0  0  0  0  0
  124.1620  130.6930   57.2620 C   0  0  0  0  0  0  0  0  0  0  0  0
  124.4570  130.8430   55.9110 C   0  0  0  0  0  0  0  0  0  0  0  0
  125.7580  131.1370   55.5170 C   0  0  0  0  0  0  0  0  0  0  0  0
  126.7650  131.2790   56.4650 C   0  0  0  0  0  0  0  0  0  0  0  0
  126.4660  131.1270   57.8160 C   0  0  0  0  0  0  0  0  0  0  0  0
  123.5770  130.9730   60.2280 C   0  0  0  0  0  0  0  0  0  0  0  0
  123.3310  130.7880   61.5920 C   0  0  0  0  0  0  0  0  0  0  0  0
  121.9380  131.1180   62.1240 C   0  0  0  0  0  0  0  0  0  0  0  0
  124.3660  130.3040   62.4210 C   0  0  0  0  0  0  0  0  0  0  0  0
  124.1150  130.0510   63.8410 C   0  0  0  0  0  0  0  0  0  0  0  0
  123.9130  129.8510   64.9630 N   0  0  0  0  0  0  0  0  0  0  0  0
  126.7510  135.0040   61.4990 N   0  0  0  0  0  0  0  0  0  0  0  0
  127.0359  137.8790   61.9517 H   0  0  0  0  0  0  0  0  0  0  0  0
  127.6483  137.1509   60.4281 H   0  0  0  0  0  0  0  0  0  0  0  0
  126.1031  138.0669   60.4281 H   0  0  0  0  0  0  0  0  0  0  0  0
  124.0075  137.0090   61.2482 H   0  0  0  0  0  0  0  0  0  0  0  0
  122.8688  134.8298   61.7670 H   0  0  0  0  0  0  0  0  0  0  0  0
  124.2565  132.7686   62.1119 H   0  0  0  0  0  0  0  0  0  0  0  0
  126.9000  132.0200   61.1880 H   0  0  0  0  0  0  0  0  0  0  0  0
  128.8823  130.8894   62.1389 H   0  0  0  0  0  0  0  0  0  0  0  0
  128.6643  130.6638   63.9519 H   0  0  0  0  0  0  0  0  0  0  0  0
  123.1315  130.4603   57.5685 H   0  0  0  0  0  0  0  0  0  0  0  0
  123.6642  130.7295   55.1570 H   0  0  0  0  0  0  0  0  0  0  0  0
  125.9917  131.2579   54.4489 H   0  0  0  0  0  0  0  0  0  0  0  0
  127.7929  131.5103   56.1490 H   0  0  0  0  0  0  0  0  0  0  0  0
  127.2658  131.2380   58.5630 H   0  0  0  0  0  0  0  0  0  0  0  0
  122.7816  131.3585   59.5732 H   0  0  0  0  0  0  0  0  0  0  0  0
  121.9551  131.1139   63.2239 H   0  0  0  0  0  0  0  0  0  0  0  0
  121.6348  132.1128   61.7657 H   0  0  0  0  0  0  0  0  0  0  0  0
  121.2207  130.3649   61.7657 H   0  0  0  0  0  0  0  0  0  0  0  0
  1  2  1  0
  2  3  2  0
  3  4  1  0
  4  5  2  0
  5  6  1  0
  6  7  1  0
  7  8  1  0
  8  9  2  0
  8 10  1  0
 10 11  1  0
 11 12  1  0
 12 13  2  0
 13 14  1  0
 14 15  1  0
 15 16  2  0
 16 17  1  0
 17 18  2  0
 18 19  1  0
 19 20  2  0
 14 21  2  0
 21 22  1  0
 22 23  1  0
 22 24  2  0
 24 25  1  0
 25 26  3  0
  6 27  2  0
 27  2  1  0
 24 12  1  0
 20 15  1  0
  1 28  1  0
  1 29  1  0
  1 30  1  0
  3 31  1  0
  4 32  1  0
  5 33  1  0
  7 34  1  0
 10 35  1  0
 10 36  1  0
 16 37  1  0
 17 38  1  0
 18 39  1  0
 19 40  1  0
 20 41  1  0
 21 42  1  0
 23 43  1  0
 23 44  1  0
 23 45  1  0
M  END
>  <Binding energies>  (1) 
[-8.07]

>  <Ligand effiencies>  (1) 
[-0.2882142857142857]

>  <Interactions>  (1) 
["V-B:ASP:366:CB:8183, V-B:ASP:366:CG:8184, V-A:TYR:539:CD1:4873, V-B:GLY:454:CA:9020, V-B:LEU:475:CD2:9230, V-B:ILE:369:CG2:8208, H-B:ARG:545:NH2:9900, V-B:ILE:369:CG1:8209, V-A:TYR:539:CE1:4875, V-A:TYR:539:C:4867, V-B:ILE:369:CB:8207, H-B:TYR:484:OH:9319, V-A:MET:535:CE:4835, H-B:GLY:454:N:9021, V-B:ASP:366:CA:8181, V-B:TYR:531:CZ:9766, V-B:ARG:545:CZ:9898, H-B:ARG:545:NE:9896, V-A:TYR:539:CZ:4877, V-B:SER:385:CA:8378, V-B:ASP:366:C:8179, V-B:SER:385:CB:8380, V-A:TYR:539:CB:4871, V-B:GLY:453:C:9013, V-B:TYR:531:CE1:9764, V-B:GLY:453:CA:9015, V-B:ASN:370:CB:8216"]

$$$$
3bf_Grossjean_2025
     RDKit          3D

 42 44  0  0  0  0  0  0  0  0999 V2000
  122.1100  131.0040   61.7590 C   0  0  0  0  0  0  0  0  0  0  0  0
  123.5480  130.8670   61.2620 C   0  0  0  0  0  0  0  0  0  0  0  0
  123.7910  131.0280   59.8950 C   0  0  0  0  0  0  0  0  0  0  0  0
  125.0960  130.9250   59.3990 C   0  0  0  0  0  0  0  0  0  0  0  0
  125.4260  131.1100   57.9490 C   0  0  0  0  0  0  0  0  0  0  0  0
  126.7250  131.4570   57.5480 C   0  0  0  0  0  0  0  0  0  0  0  0
  127.0400  131.6300   56.2030 C   0  0  0  0  0  0  0  0  0  0  0  0
  126.0530  131.4600   55.2370 C   0  0  0  0  0  0  0  0  0  0  0  0
  124.7570  131.1180   55.6070 C   0  0  0  0  0  0  0  0  0  0  0  0
  124.4470  130.9460   56.9540 C   0  0  0  0  0  0  0  0  0  0  0  0
  126.1390  130.6690   60.2320 N   0  0  0  0  0  0  0  0  0  0  0  0
  125.9160  130.4850   61.5570 C   0  0  0  0  0  0  0  0  0  0  0  0
  127.3960  130.1530   62.4890 S   0  0  0  0  0  0  0  0  0  0  0  0
  128.2640  131.7360   62.7560 C   0  0  0  0  0  0  0  0  0  0  0  0
  129.3700  132.0530   61.7390 C   0  0  0  0  0  0  0  0  0  0  0  0
  130.5220  132.2820   62.1130 O   0  0  0  0  0  0  0  0  0  0  0  0
  128.9730  132.0240   60.4480 N   0  0  0  0  0  0  0  0  0  0  0  0
  129.7270  132.2760   59.2870 C   0  0  0  0  0  0  0  0  0  0  0  0
  130.9200  131.5620   59.1330 C   0  0  0  0  0  0  0  0  0  0  0  0
  131.7060  131.7580   57.9950 C   0  0  0  0  0  0  0  0  0  0  0  0
  131.2690  132.6670   57.0310 C   0  0  0  0  0  0  0  0  0  0  0  0
  130.1110  133.3650   57.1490 N   0  0  0  0  0  0  0  0  0  0  0  0
  129.3570  133.1640   58.2610 C   0  0  0  0  0  0  0  0  0  0  0  0
  124.6290  130.5930   62.1280 C   0  0  0  0  0  0  0  0  0  0  0  0
  124.4040  130.4700   63.5710 C   0  0  0  0  0  0  0  0  0  0  0  0
  124.2240  130.3710   64.7100 N   0  0  0  0  0  0  0  0  0  0  0  0
  122.1007  131.0049   62.8590 H   0  0  0  0  0  0  0  0  0  0  0  0
  121.6821  131.9470   61.3880 H   0  0  0  0  0  0  0  0  0  0  0  0
  121.5117  130.1588   61.3880 H   0  0  0  0  0  0  0  0  0  0  0  0
  122.9567  131.2357   59.2089 H   0  0  0  0  0  0  0  0  0  0  0  0
  127.5074  131.5946   58.3089 H   0  0  0  0  0  0  0  0  0  0  0  0
  128.0640  131.8997   55.9054 H   0  0  0  0  0  0  0  0  0  0  0  0
  126.2996  131.5970   54.1738 H   0  0  0  0  0  0  0  0  0  0  0  0
  123.9803  130.9839   54.8397 H   0  0  0  0  0  0  0  0  0  0  0  0
  123.4202  130.6777   57.2435 H   0  0  0  0  0  0  0  0  0  0  0  0
  127.5193  132.5444   62.7124 H   0  0  0  0  0  0  0  0  0  0  0  0
  128.7621  131.6508   63.7331 H   0  0  0  0  0  0  0  0  0  0  0  0
  128.0190  131.7410   60.2760 H   0  0  0  0  0  0  0  0  0  0  0  0
  131.2385  130.8477   59.9065 H   0  0  0  0  0  0  0  0  0  0  0  0
  132.6490  131.2076   57.8618 H   0  0  0  0  0  0  0  0  0  0  0  0
  131.8898  132.8248   56.1367 H   0  0  0  0  0  0  0  0  0  0  0  0
  128.4141  133.7211   58.3637 H   0  0  0  0  0  0  0  0  0  0  0  0
  1  2  1  0
  2  3  2  0
  3  4  1  0
  4  5  1  0
  5  6  2  0
  6  7  1  0
  7  8  2  0
  8  9  1  0
  9 10  2  0
  4 11  2  0
 11 12  1  0
 12 13  1  0
 13 14  1  0
 14 15  1  0
 15 16  2  0
 15 17  1  0
 17 18  1  0
 18 19  2  0
 19 20  1  0
 20 21  2  0
 21 22  1  0
 22 23  2  0
 12 24  2  0
 24 25  1  0
 25 26  3  0
 24  2  1  0
 10  5  1  0
 23 18  1  0
  1 27  1  0
  1 28  1  0
  1 29  1  0
  3 30  1  0
  6 31  1  0
  7 32  1  0
  8 33  1  0
  9 34  1  0
 10 35  1  0
 14 36  1  0
 14 37  1  0
 17 38  1  0
 19 39  1  0
 20 40  1  0
 21 41  1  0
 23 42  1  0
M  END
>  <Binding energies>  (1) 
[-8.29]

>  <Ligand effiencies>  (1) 
[-0.307037037037037]

>  <Interactions>  (1) 
["V-B:ASP:366:CB:8183, V-B:ASP:366:CG:8184, V-A:TYR:539:CD1:4873, V-B:GLY:454:CA:9020, V-A:LEU:363:CD1:3189, V-A:ILE:538:CB:4862, V-A:PRO:540:CA:4883, V-B:ILE:369:CG2:8208, V-A:PRO:540:CB:4885, V-B:ILE:369:CG1:8209, V-A:TYR:539:CE1:4875, V-A:TYR:539:C:4867, H-A:TYR:539:N:4870, V-B:ILE:369:CB:8207, V-A:PRO:540:N:4884, H-B:TYR:484:OH:9319, V-A:MET:535:CE:4835, H-B:GLY:454:N:9021, V-B:ASP:366:CA:8181, H-A:ALA:541:N:4891, V-B:TYR:531:CZ:9766, V-B:ARG:545:CZ:9898, V-A:PRO:540:CD:4887, V-A:TYR:539:CZ:4877, V-A:TYR:539:CE2:4876, V-B:GLY:453:C:9013, V-A:TYR:539:CA:4869, V-B:TYR:531:CE1:9764, V-B:GLY:453:CA:9015"]

$$$$
3bg_Grossjean_2025
     RDKit          3D

 46 48  0  0  0  0  0  0  0  0999 V2000
  121.8980  131.2190   62.1120 C   0  0  0  0  0  0  0  0  0  0  0  0
  123.2740  130.8070   61.5910 C   0  0  0  0  0  0  0  0  0  0  0  0
  123.5620  131.0230   60.2400 C   0  0  0  0  0  0  0  0  0  0  0  0
  124.8150  130.6670   59.7230 C   0  0  0  0  0  0  0  0  0  0  0  0
  125.1920  130.8830   58.2830 C   0  0  0  0  0  0  0  0  0  0  0  0
  124.2400  130.7580   57.2580 C   0  0  0  0  0  0  0  0  0  0  0  0
  124.5810  130.9740   55.9270 C   0  0  0  0  0  0  0  0  0  0  0  0
  125.8870  131.3180   55.5960 C   0  0  0  0  0  0  0  0  0  0  0  0
  126.8540  131.4370   56.5870 C   0  0  0  0  0  0  0  0  0  0  0  0
  126.5080  131.2180   57.9180 C   0  0  0  0  0  0  0  0  0  0  0  0
  125.7660  130.1260   60.5300 N   0  0  0  0  0  0  0  0  0  0  0  0
  125.5040  129.9130   61.8450 C   0  0  0  0  0  0  0  0  0  0  0  0
  126.8500  129.2300   62.8010 S   0  0  0  0  0  0  0  0  0  0  0  0
  127.2250  130.3820   64.1630 C   0  0  0  0  0  0  0  0  0  0  0  0
  127.6280  131.7650   63.6450 C   0  0  0  0  0  0  0  0  0  0  0  0
  127.9450  132.6500   64.4410 O   0  0  0  0  0  0  0  0  0  0  0  0
  127.5850  131.9410   62.3130 N   0  0  0  0  0  0  0  0  0  0  0  0
  127.7500  133.2190   61.6190 C   0  0  0  0  0  0  0  0  0  0  0  0
  126.4690  134.0440   61.6400 C   0  0  0  0  0  0  0  0  0  0  0  0
  125.2490  133.4350   61.9550 C   0  0  0  0  0  0  0  0  0  0  0  0
  124.0780  134.1860   61.9650 C   0  0  0  0  0  0  0  0  0  0  0  0
  124.1290  135.5480   61.6710 C   0  0  0  0  0  0  0  0  0  0  0  0
  125.3420  136.1660   61.3760 C   0  0  0  0  0  0  0  0  0  0  0  0
  126.5140  135.4130   61.3660 C   0  0  0  0  0  0  0  0  0  0  0  0
  124.2580  130.2320   62.4230 C   0  0  0  0  0  0  0  0  0  0  0  0
  123.9890  130.0010   63.8440 C   0  0  0  0  0  0  0  0  0  0  0  0
  123.7750  129.8180   64.9670 N   0  0  0  0  0  0  0  0  0  0  0  0
  121.9066  131.2164   63.2120 H   0  0  0  0  0  0  0  0  0  0  0  0
  121.6560  132.2290   61.7496 H   0  0  0  0  0  0  0  0  0  0  0  0
  121.1408  130.5082   61.7496 H   0  0  0  0  0  0  0  0  0  0  0  0
  122.8040  131.4730   59.5820 H   0  0  0  0  0  0  0  0  0  0  0  0
  123.2055  130.4842   57.5126 H   0  0  0  0  0  0  0  0  0  0  0  0
  123.8202  130.8731   55.1390 H   0  0  0  0  0  0  0  0  0  0  0  0
  126.1561  131.4968   54.5445 H   0  0  0  0  0  0  0  0  0  0  0  0
  127.8878  131.7029   56.3213 H   0  0  0  0  0  0  0  0  0  0  0  0
  127.2782  131.3087   58.6981 H   0  0  0  0  0  0  0  0  0  0  0  0
  126.3322  130.4858   64.7972 H   0  0  0  0  0  0  0  0  0  0  0  0
  128.0709  129.9716   64.7340 H   0  0  0  0  0  0  0  0  0  0  0  0
  127.3080  131.1600   61.7380 H   0  0  0  0  0  0  0  0  0  0  0  0
  128.5500  133.7910   62.1117 H   0  0  0  0  0  0  0  0  0  0  0  0
  128.0035  133.0079   60.5696 H   0  0  0  0  0  0  0  0  0  0  0  0
  125.2160  132.3620   62.1948 H   0  0  0  0  0  0  0  0  0  0  0  0
  123.1166  133.7077   62.2037 H   0  0  0  0  0  0  0  0  0  0  0  0
  123.2021  136.1404   61.6720 H   0  0  0  0  0  0  0  0  0  0  0  0
  125.3743  137.2425   61.1522 H   0  0  0  0  0  0  0  0  0  0  0  0
  127.4760  135.8971   61.1421 H   0  0  0  0  0  0  0  0  0  0  0  0
  1  2  1  0
  2  3  2  0
  3  4  1  0
  4  5  1  0
  5  6  2  0
  6  7  1  0
  7  8  2  0
  8  9  1  0
  9 10  2  0
  4 11  2  0
 11 12  1  0
 12 13  1  0
 13 14  1  0
 14 15  1  0
 15 16  2  0
 15 17  1  0
 17 18  1  0
 18 19  1  0
 19 20  2  0
 20 21  1  0
 21 22  2  0
 22 23  1  0
 23 24  2  0
 12 25  2  0
 25 26  1  0
 26 27  3  0
 25  2  1  0
 10  5  1  0
 24 19  1  0
  1 28  1  0
  1 29  1  0
  1 30  1  0
  3 31  1  0
  6 32  1  0
  7 33  1  0
  8 34  1  0
  9 35  1  0
 10 36  1  0
 14 37  1  0
 14 38  1  0
 17 39  1  0
 18 40  1  0
 18 41  1  0
 20 42  1  0
 21 43  1  0
 22 44  1  0
 23 45  1  0
 24 46  1  0
M  END
>  <Binding energies>  (1) 
[-7.96]

>  <Ligand effiencies>  (1) 
[-0.2842857142857143]

>  <Interactions>  (1) 
["V-B:ASP:366:CB:8183, V-B:ASP:366:CG:8184, V-A:TYR:539:CD1:4873, V-B:GLY:454:CA:9020, V-B:LEU:475:CD2:9230, V-B:ILE:369:CG2:8208, H-B:ARG:545:NH2:9900, V-B:ILE:369:CG1:8209, V-A:TYR:539:CE1:4875, V-B:ILE:369:CB:8207, H-B:TYR:484:OH:9319, V-A:MET:535:CE:4835, H-B:GLY:454:N:9021, V-B:ASP:366:CA:8181, V-B:TYR:531:CZ:9766, V-B:ARG:545:CZ:9898, H-B:ARG:545:NH1:9899, H-B:ARG:545:NE:9896, V-A:TYR:539:CZ:4877, V-B:SER:385:CA:8378, V-B:ASP:366:C:8179, V-B:SER:385:CB:8380, V-B:GLY:453:C:9013, V-B:TYR:531:CE1:9764, V-B:GLY:453:CA:9015"]

$$$$
3bk_Grossjean_2025
     RDKit          3D

 57 58  0  0  0  0  0  0  0  0999 V2000
  127.6010  138.1730   61.7920 C   0  0  0  0  0  0  0  0  0  0  0  0
  126.5040  137.8140   60.9660 O   0  0  0  0  0  0  0  0  0  0  0  0
  125.3220  137.5080   61.6950 C   0  0  0  0  0  0  0  0  0  0  0  0
  124.1340  137.4010   60.7290 C   0  0  0  0  0  0  0  0  0  0  0  0
  123.5150  136.1310   60.8840 O   0  0  0  0  0  0  0  0  0  0  0  0
  124.3830  135.0340   60.6280 C   0  0  0  0  0  0  0  0  0  0  0  0
  124.4540  134.1440   61.8760 C   0  0  0  0  0  0  0  0  0  0  0  0
  125.8120  133.8330   62.1560 O   0  0  0  0  0  0  0  0  0  0  0  0
  126.7450  134.6010   61.4060 C   0  0  0  0  0  0  0  0  0  0  0  0
  128.1580  134.0400   61.6220 C   0  0  0  0  0  0  0  0  0  0  0  0
  128.1510  132.6050   61.9070 N   0  0  0  0  0  0  0  0  0  0  0  0
  129.2410  131.8320   62.0520 C   0  0  0  0  0  0  0  0  0  0  0  0
  130.3950  132.2570   61.9770 O   0  0  0  0  0  0  0  0  0  0  0  0
  128.9930  130.3520   62.3520 C   0  0  0  0  0  0  0  0  0  0  0  0
  127.4310  130.0910   63.2510 S   0  0  0  0  0  0  0  0  0  0  0  0
  126.0650  130.4410   62.1560 C   0  0  0  0  0  0  0  0  0  0  0  0
  126.3880  130.6650   60.8570 N   0  0  0  0  0  0  0  0  0  0  0  0
  125.4140  130.9430   59.9510 C   0  0  0  0  0  0  0  0  0  0  0  0
  125.8550  131.1560   58.5350 C   0  0  0  0  0  0  0  0  0  0  0  0
  127.1400  131.6450   58.2490 C   0  0  0  0  0  0  0  0  0  0  0  0
  127.5530  131.8500   56.9350 C   0  0  0  0  0  0  0  0  0  0  0  0
  126.6850  131.5680   55.8860 C   0  0  0  0  0  0  0  0  0  0  0  0
  125.4080  131.0790   56.1410 C   0  0  0  0  0  0  0  0  0  0  0  0
  124.9990  130.8740   57.4560 C   0  0  0  0  0  0  0  0  0  0  0  0
  124.0700  130.9960   60.3380 C   0  0  0  0  0  0  0  0  0  0  0  0
  123.7180  130.7690   61.6730 C   0  0  0  0  0  0  0  0  0  0  0  0
  122.2400  130.8370   62.0530 C   0  0  0  0  0  0  0  0  0  0  0  0
  124.7300  130.4840   62.6140 C   0  0  0  0  0  0  0  0  0  0  0  0
  124.3920  130.2400   64.0190 C   0  0  0  0  0  0  0  0  0  0  0  0
  124.1250  130.0470   65.1280 N   0  0  0  0  0  0  0  0  0  0  0  0
  127.3108  138.0780   62.8488 H   0  0  0  0  0  0  0  0  0  0  0  0
  128.4505  137.5060   61.5837 H   0  0  0  0  0  0  0  0  0  0  0  0
  127.8919  139.2132   61.5837 H   0  0  0  0  0  0  0  0  0  0  0  0
  125.4537  136.5507   62.2207 H   0  0  0  0  0  0  0  0  0  0  0  0
  125.1272  138.3062   62.4264 H   0  0  0  0  0  0  0  0  0  0  0  0
  123.4058  138.1944   60.9530 H   0  0  0  0  0  0  0  0  0  0  0  0
  124.4895  137.5137   59.6941 H   0  0  0  0  0  0  0  0  0  0  0  0
  123.9962  134.4490   59.7806 H   0  0  0  0  0  0  0  0  0  0  0  0
  125.3882  135.4077   60.3833 H   0  0  0  0  0  0  0  0  0  0  0  0
  124.0152  134.6769   62.7325 H   0  0  0  0  0  0  0  0  0  0  0  0
  123.8930  133.2148   61.6976 H   0  0  0  0  0  0  0  0  0  0  0  0
  126.4887  134.5486   60.3376 H   0  0  0  0  0  0  0  0  0  0  0  0
  126.7107  135.6487   61.7395 H   0  0  0  0  0  0  0  0  0  0  0  0
  128.7510  134.2166   60.7125 H   0  0  0  0  0  0  0  0  0  0  0  0
  128.5928  134.5527   62.4927 H   0  0  0  0  0  0  0  0  0  0  0  0
  127.2420  132.1870   62.0440 H   0  0  0  0  0  0  0  0  0  0  0  0
  128.9528  129.7989   61.4020 H   0  0  0  0  0  0  0  0  0  0  0  0
  129.8153  129.9916   62.9876 H   0  0  0  0  0  0  0  0  0  0  0  0
  127.8306  131.8694   59.0753 H   0  0  0  0  0  0  0  0  0  0  0  0
  128.5628  132.2338   56.7276 H   0  0  0  0  0  0  0  0  0  0  0  0
  127.0102  131.7326   54.8481 H   0  0  0  0  0  0  0  0  0  0  0  0
  124.7250  130.8555   55.3082 H   0  0  0  0  0  0  0  0  0  0  0  0
  123.9893  130.4849   57.6540 H   0  0  0  0  0  0  0  0  0  0  0  0
  123.2910  131.2160   59.5931 H   0  0  0  0  0  0  0  0  0  0  0  0
  122.1430  130.8415   63.1487 H   0  0  0  0  0  0  0  0  0  0  0  0
  121.7977  131.7564   61.6420 H   0  0  0  0  0  0  0  0  0  0  0  0
  121.7151  129.9621   61.6420 H   0  0  0  0  0  0  0  0  0  0  0  0
  1  2  1  0
  2  3  1  0
  3  4  1  0
  4  5  1  0
  5  6  1  0
  6  7  1  0
  7  8  1  0
  8  9  1  0
  9 10  1  0
 10 11  1  0
 11 12  1  0
 12 13  2  0
 12 14  1  0
 14 15  1  0
 15 16  1  0
 16 17  2  0
 17 18  1  0
 18 19  1  0
 19 20  2  0
 20 21  1  0
 21 22  2  0
 22 23  1  0
 23 24  2  0
 18 25  2  0
 25 26  1  0
 26 27  1  0
 26 28  2  0
 28 29  1  0
 29 30  3  0
 28 16  1  0
 24 19  1  0
  1 31  1  0
  1 32  1  0
  1 33  1  0
  3 34  1  0
  3 35  1  0
  4 36  1  0
  4 37  1  0
  6 38  1  0
  6 39  1  0
  7 40  1  0
  7 41  1  0
  9 42  1  0
  9 43  1  0
 10 44  1  0
 10 45  1  0
 11 46  1  0
 14 47  1  0
 14 48  1  0
 20 49  1  0
 21 50  1  0
 22 51  1  0
 23 52  1  0
 24 53  1  0
 25 54  1  0
 27 55  1  0
 27 56  1  0
 27 57  1  0
M  END
>  <Binding energies>  (1) 
[-6.8]

>  <Ligand effiencies>  (1) 
[-0.21935483870967742]

>  <Interactions>  (1) 
["V-A:GLU:543:CD:4908, V-B:ASP:366:CB:8183, V-B:ASP:366:CG:8184, V-A:TYR:539:CD1:4873, V-B:GLY:454:CA:9020, V-B:LEU:475:CD2:9230, V-A:ALA:541:CB:4892, V-A:PRO:540:CA:4883, V-B:ILE:369:CG2:8208, V-B:ILE:369:CG1:8209, V-A:TYR:539:CE1:4875, V-A:TYR:539:C:4867, H-B:TYR:484:OH:9319, V-A:MET:535:CE:4835, H-B:GLY:454:N:9021, V-A:PRO:540:C:4881, H-A:ALA:541:N:4891, V-B:TYR:531:CZ:9766, V-B:ARG:545:CZ:9898, H-B:ARG:545:NE:9896, V-A:TYR:539:CZ:4877, V-B:SER:385:CA:8378, V-B:HIS:383:CD2:8363, V-B:SER:385:CB:8380, V-A:TYR:539:CE2:4876, V-B:GLY:453:C:9013, V-B:LEU:373:CD1:8251, H-B:HIS:383:NE2:8365, V-B:TYR:531:CE1:9764, V-B:GLY:453:CA:9015"]

$$$$
3ca_Grossjean_2025
     RDKit          3D

 52 54  0  0  0  0  0  0  0  0999 V2000
  127.1230  128.3820   74.1820 C   0  0  0  0  0  0  0  0  0  0  0  0
  127.3300  127.3920   73.0320 C   0  0  0  0  0  0  0  0  0  0  0  0
  128.7180  127.1160   72.8900 O   0  0  0  0  0  0  0  0  0  0  0  0
  129.5290  127.9470   72.1870 C   0  0  0  0  0  0  0  0  0  0  0  0
  130.1530  128.8830   72.6990 O   0  0  0  0  0  0  0  0  0  0  0  0
  129.6000  127.6110   70.7250 C   0  0  0  0  0  0  0  0  0  0  0  0
  128.4510  127.1470   70.0730 C   0  0  0  0  0  0  0  0  0  0  0  0
  128.4850  126.8280   68.7180 C   0  0  0  0  0  0  0  0  0  0  0  0
  129.6690  126.9580   67.9900 C   0  0  0  0  0  0  0  0  0  0  0  0
  129.5930  126.6090   66.6280 N   0  0  0  0  0  0  0  0  0  0  0  0
  129.7480  125.4050   66.0370 C   0  0  0  0  0  0  0  0  0  0  0  0
  129.9760  124.3470   66.6240 O   0  0  0  0  0  0  0  0  0  0  0  0
  129.5980  125.4000   64.5120 C   0  0  0  0  0  0  0  0  0  0  0  0
  130.1770  123.8540   63.7380 S   0  0  0  0  0  0  0  0  0  0  0  0
  130.0880  123.9950   61.9580 C   0  0  0  0  0  0  0  0  0  0  0  0
  131.2310  124.3870   61.3420 N   0  0  0  0  0  0  0  0  0  0  0  0
  131.2420  124.4960   59.9950 C   0  0  0  0  0  0  0  0  0  0  0  0
  132.5600  124.9210   59.3800 C   0  0  0  0  0  0  0  0  0  0  0  0
  130.1190  124.2350   59.2130 C   0  0  0  0  0  0  0  0  0  0  0  0
  128.9220  123.8460   59.8270 C   0  0  0  0  0  0  0  0  0  0  0  0
  127.7400  123.5910   58.9490 C   0  0  0  0  0  0  0  0  0  0  0  0
  126.5280  124.2460   59.1950 C   0  0  0  0  0  0  0  0  0  0  0  0
  125.4180  124.0070   58.3880 C   0  0  0  0  0  0  0  0  0  0  0  0
  125.5170  123.1050   57.3310 C   0  0  0  0  0  0  0  0  0  0  0  0
  126.7140  122.4400   57.0770 C   0  0  0  0  0  0  0  0  0  0  0  0
  127.8210  122.6810   57.8870 C   0  0  0  0  0  0  0  0  0  0  0  0
  128.9020  123.7120   61.2390 C   0  0  0  0  0  0  0  0  0  0  0  0
  127.6920  123.2590   61.9340 C   0  0  0  0  0  0  0  0  0  0  0  0
  126.7360  122.9010   62.4810 N   0  0  0  0  0  0  0  0  0  0  0  0
  130.8230  127.4300   68.6340 C   0  0  0  0  0  0  0  0  0  0  0  0
  130.7860  127.7510   69.9880 C   0  0  0  0  0  0  0  0  0  0  0  0
  127.2328  127.8567   75.1422 H   0  0  0  0  0  0  0  0  0  0  0  0
  127.8729  129.1840   74.1149 H   0  0  0  0  0  0  0  0  0  0  0  0
  126.1146  128.8163   74.1149 H   0  0  0  0  0  0  0  0  0  0  0  0
  126.7906  126.4584   73.2499 H   0  0  0  0  0  0  0  0  0  0  0  0
  126.9447  127.8278   72.0984 H   0  0  0  0  0  0  0  0  0  0  0  0
  127.5130  127.0335   70.6363 H   0  0  0  0  0  0  0  0  0  0  0  0
  127.5726  126.4711   68.2178 H   0  0  0  0  0  0  0  0  0  0  0  0
  129.3360  127.3720   66.0200 H   0  0  0  0  0  0  0  0  0  0  0  0
  128.5350  125.5379   64.2649 H   0  0  0  0  0  0  0  0  0  0  0  0
  130.2228  126.2158   64.1195 H   0  0  0  0  0  0  0  0  0  0  0  0
  133.2795  125.1530   60.1790 H   0  0  0  0  0  0  0  0  0  0  0  0
  132.9543  124.1045   58.7573 H   0  0  0  0  0  0  0  0  0  0  0  0
  132.4030  125.8141   58.7573 H   0  0  0  0  0  0  0  0  0  0  0  0
  130.1722  124.3340   58.1188 H   0  0  0  0  0  0  0  0  0  0  0  0
  126.4513  124.9552   60.0323 H   0  0  0  0  0  0  0  0  0  0  0  0
  124.4690  124.5274   58.5842 H   0  0  0  0  0  0  0  0  0  0  0  0
  124.6421  122.9164   56.6914 H   0  0  0  0  0  0  0  0  0  0  0  0
  126.7847  121.7283   56.2412 H   0  0  0  0  0  0  0  0  0  0  0  0
  128.7659  122.1529   57.6914 H   0  0  0  0  0  0  0  0  0  0  0  0
  131.7588  127.5466   68.0677 H   0  0  0  0  0  0  0  0  0  0  0  0
  131.6958  128.1182   70.4854 H   0  0  0  0  0  0  0  0  0  0  0  0
  1  2  1  0
  2  3  1  0
  3  4  1  0
  4  5  2  0
  4  6  1  0
  6  7  2  0
  7  8  1  0
  8  9  2  0
  9 10  1  0
 10 11  1  0
 11 12  2  0
 11 13  1  0
 13 14  1  0
 14 15  1  0
 15 16  2  0
 16 17  1  0
 17 18  1  0
 17 19  2  0
 19 20  1  0
 20 21  1  0
 21 22  2  0
 22 23  1  0
 23 24  2  0
 24 25  1  0
 25 26  2  0
 20 27  2  0
 27 28  1  0
 28 29  3  0
  9 30  1  0
 30 31  2  0
 31  6  1  0
 27 15  1  0
 26 21  1  0
  1 32  1  0
  1 33  1  0
  1 34  1  0
  2 35  1  0
  2 36  1  0
  7 37  1  0
  8 38  1  0
 10 39  1  0
 13 40  1  0
 13 41  1  0
 18 42  1  0
 18 43  1  0
 18 44  1  0
 19 45  1  0
 22 46  1  0
 23 47  1  0
 24 48  1  0
 25 49  1  0
 26 50  1  0
 30 51  1  0
 31 52  1  0
M  END
>  <Binding energies>  (1) 
[-8.75]

>  <Ligand effiencies>  (1) 
[-0.2734375]

>  <Interactions>  (1) 
["V-B:HIS:456:CG:9037, H-A:LYS:547:NZ:4951, V-B:GLU:543:C:9874, V-A:GLU:543:CD:4908, V-A:GLU:543:C:4902, V-B:HIS:456:CB:9036, V-B:LYS:547:CE:9922, V-A:HIS:456:CE1:4070, V-B:GLY:544:C:9884, V-A:GLU:543:CB:4906, V-B:HIS:456:CE1:9041, V-A:GLY:544:C:4912, V-B:HIS:456:CD2:9039, V-B:GLU:543:CB:9878, V-B:TYR:539:CE2:9848, V-B:LEU:363:CD1:8160, V-B:PRO:540:CB:9857, H-B:ALA:541:N:9863, V-B:TYR:539:CZ:9849, V-B:TYR:539:CD2:9846, V-B:TYR:539:CG:9844, V-B:TYR:539:CE1:9847, V-B:PRO:540:CA:9855, H-B:LYS:547:NZ:9923, V-B:GLU:543:CG:9879, V-B:GLU:543:CD:9880, H-A:GLU:543:OE2:4910, H-A:GLU:543:OE1:4909, H-B:GLU:543:OE2:9882, V-A:ASP:366:CB:3212, V-B:PRO:540:N:9856, V-B:TYR:539:CD1:9845, V-B:TYR:539:C:9839, V-B:PRO:540:CD:9859, V-A:ASP:366:CG:3213, H-A:TYR:484:OH:4348"]

$$$$
3cb_Grossjean_2025
     RDKit          3D

 49 51  0  0  0  0  0  0  0  0999 V2000
  127.2530  127.3820   73.0310 C   0  0  0  0  0  0  0  0  0  0  0  0
  128.6250  127.0160   72.9930 O   0  0  0  0  0  0  0  0  0  0  0  0
  129.5320  127.7750   72.3260 C   0  0  0  0  0  0  0  0  0  0  0  0
  130.1640  128.6970   72.8490 O   0  0  0  0  0  0  0  0  0  0  0  0
  129.6900  127.3800   70.8850 C   0  0  0  0  0  0  0  0  0  0  0  0
  128.7170  126.6300   70.2080 C   0  0  0  0  0  0  0  0  0  0  0  0
  128.8940  126.2840   68.8720 C   0  0  0  0  0  0  0  0  0  0  0  0
  130.0440  126.6730   68.1840 C   0  0  0  0  0  0  0  0  0  0  0  0
  130.1170  126.2710   66.8360 N   0  0  0  0  0  0  0  0  0  0  0  0
  129.8250  125.0810   66.2670 C   0  0  0  0  0  0  0  0  0  0  0  0
  129.4020  124.0950   66.8730 O   0  0  0  0  0  0  0  0  0  0  0  0
  130.0430  125.0310   64.7470 C   0  0  0  0  0  0  0  0  0  0  0  0
  130.0170  123.3560   64.0210 S   0  0  0  0  0  0  0  0  0  0  0  0
  129.9620  123.5310   62.2500 C   0  0  0  0  0  0  0  0  0  0  0  0
  131.1520  123.8820   61.7050 N   0  0  0  0  0  0  0  0  0  0  0  0
  131.2300  124.0430   60.3660 C   0  0  0  0  0  0  0  0  0  0  0  0
  132.5950  124.4230   59.8250 C   0  0  0  0  0  0  0  0  0  0  0  0
  130.1340  123.8690   59.5250 C   0  0  0  0  0  0  0  0  0  0  0  0
  128.8900  123.5230   60.0670 C   0  0  0  0  0  0  0  0  0  0  0  0
  127.7430  123.3530   59.1230 C   0  0  0  0  0  0  0  0  0  0  0  0
  127.8670  122.5140   58.0090 C   0  0  0  0  0  0  0  0  0  0  0  0
  126.8010  122.3410   57.1290 C   0  0  0  0  0  0  0  0  0  0  0  0
  125.6010  123.0060   57.3650 C   0  0  0  0  0  0  0  0  0  0  0  0
  125.4570  123.8380   58.4710 C   0  0  0  0  0  0  0  0  0  0  0  0
  126.5250  124.0080   59.3490 C   0  0  0  0  0  0  0  0  0  0  0  0
  128.7890  123.3630   61.4730 C   0  0  0  0  0  0  0  0  0  0  0  0
  127.4930  123.0930   62.1040 C   0  0  0  0  0  0  0  0  0  0  0  0
  126.4700  122.8790   62.6010 N   0  0  0  0  0  0  0  0  0  0  0  0
  131.0200  127.4280   68.8530 C   0  0  0  0  0  0  0  0  0  0  0  0
  130.8420  127.7740   70.1900 C   0  0  0  0  0  0  0  0  0  0  0  0
  126.9257  127.4693   74.0775 H   0  0  0  0  0  0  0  0  0  0  0  0
  127.1169  128.3478   72.5224 H   0  0  0  0  0  0  0  0  0  0  0  0
  126.6539  126.6123   72.5224 H   0  0  0  0  0  0  0  0  0  0  0  0
  127.8066  126.3128   70.7376 H   0  0  0  0  0  0  0  0  0  0  0  0
  128.1204  125.6986   68.3535 H   0  0  0  0  0  0  0  0  0  0  0  0
  130.4110  127.0040   66.2040 H   0  0  0  0  0  0  0  0  0  0  0  0
  129.2491  125.6232   64.2683 H   0  0  0  0  0  0  0  0  0  0  0  0
  131.0524  125.4295   64.5670 H   0  0  0  0  0  0  0  0  0  0  0  0
  133.2814  124.6141   60.6631 H   0  0  0  0  0  0  0  0  0  0  0  0
  132.9877  123.6000   59.2098 H   0  0  0  0  0  0  0  0  0  0  0  0
  132.5059  125.3305   59.2098 H   0  0  0  0  0  0  0  0  0  0  0  0
  130.2449  124.0028   58.4388 H   0  0  0  0  0  0  0  0  0  0  0  0
  128.8150  121.9865   57.8269 H   0  0  0  0  0  0  0  0  0  0  0  0
  126.9068  121.6834   56.2536 H   0  0  0  0  0  0  0  0  0  0  0  0
  124.7585  122.8725   56.6705 H   0  0  0  0  0  0  0  0  0  0  0  0
  124.5049  124.3587   58.6510 H   0  0  0  0  0  0  0  0  0  0  0  0
  126.4114  124.6615   60.2265 H   0  0  0  0  0  0  0  0  0  0  0  0
  131.9277  127.7471   68.3198 H   0  0  0  0  0  0  0  0  0  0  0  0
  131.6140  128.3631   70.7067 H   0  0  0  0  0  0  0  0  0  0  0  0
  1  2  1  0
  2  3  1  0
  3  4  2  0
  3  5  1  0
  5  6  2  0
  6  7  1  0
  7  8  2  0
  8  9  1  0
  9 10  1  0
 10 11  2  0
 10 12  1  0
 12 13  1  0
 13 14  1  0
 14 15  2  0
 15 16  1  0
 16 17  1  0
 16 18  2  0
 18 19  1  0
 19 20  1  0
 20 21  2  0
 21 22  1  0
 22 23  2  0
 23 24  1  0
 24 25  2  0
 19 26  2  0
 26 27  1  0
 27 28  3  0
  8 29  1  0
 29 30  2  0
 30  5  1  0
 26 14  1  0
 25 20  1  0
  1 31  1  0
  1 32  1  0
  1 33  1  0
  6 34  1  0
  7 35  1  0
  9 36  1  0
 12 37  1  0
 12 38  1  0
 17 39  1  0
 17 40  1  0
 17 41  1  0
 18 42  1  0
 21 43  1  0
 22 44  1  0
 23 45  1  0
 24 46  1  0
 25 47  1  0
 29 48  1  0
 30 49  1  0
M  END
>  <Binding energies>  (1) 
[-9.03]

>  <Ligand effiencies>  (1) 
[-0.29129032258064513]

>  <Interactions>  (1) 
["V-B:HIS:456:CG:9037, H-A:LYS:547:NZ:4951, V-B:GLU:543:C:9874, V-A:GLU:543:CD:4908, V-A:GLU:543:C:4902, V-B:LYS:547:CE:9922, V-A:HIS:456:CE1:4070, V-B:GLY:544:C:9884, V-A:GLU:543:CB:4906, V-A:GLY:544:C:4912, V-B:HIS:456:CD2:9039, V-B:GLU:543:CB:9878, V-A:ARG:545:CG:4922, V-B:TYR:539:CE2:9848, V-B:LEU:363:CD1:8160, V-B:PRO:540:CB:9857, H-B:ALA:541:N:9863, V-B:TYR:539:CZ:9849, V-B:TYR:539:CD2:9846, V-B:TYR:539:CG:9844, V-B:TYR:539:CE1:9847, V-B:PRO:540:CA:9855, V-B:GLU:543:CA:9876, H-B:LYS:547:NZ:9923, V-B:GLU:543:CG:9879, V-B:GLU:543:CD:9880, V-B:ALA:541:CB:9864, H-A:GLU:543:OE2:4910, H-A:GLU:543:OE1:4909, V-B:PRO:540:N:9856, V-B:TYR:539:CD1:9845, V-B:TYR:539:C:9839, V-B:PRO:540:CD:9859, H-A:TYR:484:OH:4348, V-B:TYR:539:CA:9841"]

$$$$
3ce_Grossjean_2025
     RDKit          3D

 45 47  0  0  0  0  0  0  0  0999 V2000
  123.8160  131.0090   58.4990 C   0  0  0  0  0  0  0  0  0  0  0  0
  123.7840  131.1040   60.0120 C   0  0  0  0  0  0  0  0  0  0  0  0
  122.5800  131.0920   60.7210 C   0  0  0  0  0  0  0  0  0  0  0  0
  122.6270  131.1740   62.1120 C   0  0  0  0  0  0  0  0  0  0  0  0
  123.8630  131.2650   62.7570 C   0  0  0  0  0  0  0  0  0  0  0  0
  125.0310  131.2820   61.9860 C   0  0  0  0  0  0  0  0  0  0  0  0
  126.2460  131.3550   62.6890 N   0  0  0  0  0  0  0  0  0  0  0  0
  126.6800  130.5620   63.6940 C   0  0  0  0  0  0  0  0  0  0  0  0
  126.0530  129.6100   64.1630 O   0  0  0  0  0  0  0  0  0  0  0  0
  128.0600  130.9000   64.2560 C   0  0  0  0  0  0  0  0  0  0  0  0
  128.6170  132.5510   63.7420 S   0  0  0  0  0  0  0  0  0  0  0  0
  129.6900  132.2870   62.3490 C   0  0  0  0  0  0  0  0  0  0  0  0
  130.9390  131.8830   62.6850 N   0  0  0  0  0  0  0  0  0  0  0  0
  131.8280  131.6380   61.6950 C   0  0  0  0  0  0  0  0  0  0  0  0
  133.2020  131.1760   62.1400 C   0  0  0  0  0  0  0  0  0  0  0  0
  131.5130  131.7990   60.3480 C   0  0  0  0  0  0  0  0  0  0  0  0
  130.2350  132.2420   59.9820 C   0  0  0  0  0  0  0  0  0  0  0  0
  129.9520  132.4230   58.5270 C   0  0  0  0  0  0  0  0  0  0  0  0
  128.6720  132.1660   58.0220 C   0  0  0  0  0  0  0  0  0  0  0  0
  128.4020  132.3280   56.6650 C   0  0  0  0  0  0  0  0  0  0  0  0
  129.4150  132.7410   55.8050 C   0  0  0  0  0  0  0  0  0  0  0  0
  130.6970  132.9910   56.2900 C   0  0  0  0  0  0  0  0  0  0  0  0
  130.9630  132.8300   57.6460 C   0  0  0  0  0  0  0  0  0  0  0  0
  129.2880  132.4910   61.0080 C   0  0  0  0  0  0  0  0  0  0  0  0
  127.9300  132.9410   60.6850 C   0  0  0  0  0  0  0  0  0  0  0  0
  126.8600  133.2960   60.4290 N   0  0  0  0  0  0  0  0  0  0  0  0
  124.9930  131.1950   60.6240 N   0  0  0  0  0  0  0  0  0  0  0  0
  124.1541  130.0053   58.2017 H   0  0  0  0  0  0  0  0  0  0  0  0
  122.8074  131.1897   58.0989 H   0  0  0  0  0  0  0  0  0  0  0  0
  124.5097  131.7631   58.0989 H   0  0  0  0  0  0  0  0  0  0  0  0
  121.6173  131.0195   60.1938 H   0  0  0  0  0  0  0  0  0  0  0  0
  121.6963  131.1671   62.6983 H   0  0  0  0  0  0  0  0  0  0  0  0
  123.9173  131.3224   63.8542 H   0  0  0  0  0  0  0  0  0  0  0  0
  126.9040  132.0330   62.3320 H   0  0  0  0  0  0  0  0  0  0  0  0
  128.0143  130.8664   65.3545 H   0  0  0  0  0  0  0  0  0  0  0  0
  128.7764  130.1623   63.8654 H   0  0  0  0  0  0  0  0  0  0  0  0
  133.2458  131.1613   63.2390 H   0  0  0  0  0  0  0  0  0  0  0  0
  133.3922  130.1645   61.7519 H   0  0  0  0  0  0  0  0  0  0  0  0
  133.9647  131.8671   61.7519 H   0  0  0  0  0  0  0  0  0  0  0  0
  132.2641  131.5794   59.5749 H   0  0  0  0  0  0  0  0  0  0  0  0
  127.8735  131.8337   58.7017 H   0  0  0  0  0  0  0  0  0  0  0  0
  127.3926  132.1303   56.2751 H   0  0  0  0  0  0  0  0  0  0  0  0
  129.2019  132.8711   54.7337 H   0  0  0  0  0  0  0  0  0  0  0  0
  131.4944  133.3139   55.6045 H   0  0  0  0  0  0  0  0  0  0  0  0
  131.9755  133.0238   58.0299 H   0  0  0  0  0  0  0  0  0  0  0  0
  1  2  1  0
  2  3  2  0
  3  4  1  0
  4  5  2  0
  5  6  1  0
  6  7  1  0
  7  8  1  0
  8  9  2  0
  8 10  1  0
 10 11  1  0
 11 12  1  0
 12 13  2  0
 13 14  1  0
 14 15  1  0
 14 16  2  0
 16 17  1  0
 17 18  1  0
 18 19  2  0
 19 20  1  0
 20 21  2  0
 21 22  1  0
 22 23  2  0
 17 24  2  0
 24 25  1  0
 25 26  3  0
  6 27  2  0
 27  2  1  0
 24 12  1  0
 23 18  1  0
  1 28  1  0
  1 29  1  0
  1 30  1  0
  3 31  1  0
  4 32  1  0
  5 33  1  0
  7 34  1  0
 10 35  1  0
 10 36  1  0
 15 37  1  0
 15 38  1  0
 15 39  1  0
 16 40  1  0
 19 41  1  0
 20 42  1  0
 21 43  1  0
 22 44  1  0
 23 45  1  0
M  END
>  <Binding energies>  (1) 
[-8.17]

>  <Ligand effiencies>  (1) 
[-0.29178571428571426]

>  <Interactions>  (1) 
["V-A:GLU:543:CD:4908, V-B:ASP:366:CB:8183, V-B:ASP:366:CG:8184, V-A:GLU:543:CG:4907, V-A:TYR:539:CD1:4873, V-B:GLY:454:CA:9020, V-A:ILE:538:CG2:4863, V-A:ILE:538:CB:4862, V-A:ALA:541:CB:4892, V-A:PRO:540:CA:4883, V-B:ILE:369:CG2:8208, V-A:PRO:540:CB:4885, V-B:ILE:369:CG1:8209, V-A:TYR:539:CE1:4875, V-A:TYR:539:C:4867, V-B:ILE:369:CB:8207, V-A:PRO:540:N:4884, H-B:TYR:484:OH:9319, V-A:MET:535:CE:4835, V-B:ASP:366:CA:8181, H-A:ALA:541:N:4891, V-A:PRO:540:CD:4887, V-A:ILE:538:CA:4860, V-B:ASP:366:C:8179, V-A:ILE:538:C:4858, V-B:GLY:453:C:9013, V-A:ASN:362:CB:3176, V-B:GLY:453:CA:9015"]

$$$$
3ch_Grossjean_2025
     RDKit          3D

 55 57  0  0  0  0  0  0  0  0999 V2000
  122.5880  133.1900   62.4870 C   0  0  0  0  0  0  0  0  0  0  0  0
  122.4020  131.7980   62.2520 O   0  0  0  0  0  0  0  0  0  0  0  0
  123.4140  131.0640   61.6610 C   0  0  0  0  0  0  0  0  0  0  0  0
  123.7780  131.1750   60.3090 C   0  0  0  0  0  0  0  0  0  0  0  0
  124.8230  130.4030   59.7800 C   0  0  0  0  0  0  0  0  0  0  0  0
  125.2630  130.4490   58.4430 N   0  0  0  0  0  0  0  0  0  0  0  0
  124.6540  130.9620   57.3520 C   0  0  0  0  0  0  0  0  0  0  0  0
  123.5560  131.5200   57.3430 O   0  0  0  0  0  0  0  0  0  0  0  0
  125.4430  130.8600   56.0470 C   0  0  0  0  0  0  0  0  0  0  0  0
  127.0340  131.7320   56.1370 S   0  0  0  0  0  0  0  0  0  0  0  0
  128.0520  130.7910   57.2530 C   0  0  0  0  0  0  0  0  0  0  0  0
  127.6130  129.5250   57.4620 N   0  0  0  0  0  0  0  0  0  0  0  0
  128.3130  128.7290   58.3010 C   0  0  0  0  0  0  0  0  0  0  0  0
  127.7640  127.3280   58.4940 C   0  0  0  0  0  0  0  0  0  0  0  0
  129.4630  129.1580   58.9580 C   0  0  0  0  0  0  0  0  0  0  0  0
  129.9380  130.4610   58.7490 C   0  0  0  0  0  0  0  0  0  0  0  0
  131.1700  130.8800   59.4830 C   0  0  0  0  0  0  0  0  0  0  0  0
  131.1300  131.0820   60.8680 C   0  0  0  0  0  0  0  0  0  0  0  0
  132.2720  131.4810   61.5570 C   0  0  0  0  0  0  0  0  0  0  0  0
  133.4610  131.6840   60.8620 C   0  0  0  0  0  0  0  0  0  0  0  0
  133.5160  131.4950   59.4840 C   0  0  0  0  0  0  0  0  0  0  0  0
  132.3710  131.0960   58.7970 C   0  0  0  0  0  0  0  0  0  0  0  0
  129.2250  131.3020   57.8570 C   0  0  0  0  0  0  0  0  0  0  0  0
  129.7270  132.6390   57.5280 C   0  0  0  0  0  0  0  0  0  0  0  0
  130.1220  133.6960   57.2690 N   0  0  0  0  0  0  0  0  0  0  0  0
  125.4910  129.5020   60.6120 C   0  0  0  0  0  0  0  0  0  0  0  0
  125.1440  129.3720   61.9650 C   0  0  0  0  0  0  0  0  0  0  0  0
  125.7700  128.5040   62.8440 O   0  0  0  0  0  0  0  0  0  0  0  0
  127.1350  128.1580   62.6320 C   0  0  0  0  0  0  0  0  0  0  0  0
  124.1020  130.1570   62.4770 C   0  0  0  0  0  0  0  0  0  0  0  0
  123.7640  130.0510   63.8050 O   0  0  0  0  0  0  0  0  0  0  0  0
  124.8360  130.3180   64.6990 C   0  0  0  0  0  0  0  0  0  0  0  0
  122.6132  133.3788   63.5704 H   0  0  0  0  0  0  0  0  0  0  0  0
  123.5375  133.5143   62.0361 H   0  0  0  0  0  0  0  0  0  0  0  0
  121.7570  133.7522   62.0361 H   0  0  0  0  0  0  0  0  0  0  0  0
  123.2368  131.8762   59.6567 H   0  0  0  0  0  0  0  0  0  0  0  0
  126.1890  130.0740   58.3000 H   0  0  0  0  0  0  0  0  0  0  0  0
  125.6327  129.7985   55.8298 H   0  0  0  0  0  0  0  0  0  0  0  0
  124.8445  131.3305   55.2530 H   0  0  0  0  0  0  0  0  0  0  0  0
  127.6794  127.1122   59.5693 H   0  0  0  0  0  0  0  0  0  0  0  0
  126.7710  127.2556   58.0263 H   0  0  0  0  0  0  0  0  0  0  0  0
  128.4435  126.6003   58.0263 H   0  0  0  0  0  0  0  0  0  0  0  0
  129.9968  128.4779   59.6381 H   0  0  0  0  0  0  0  0  0  0  0  0
  130.1892  130.9242   61.4157 H   0  0  0  0  0  0  0  0  0  0  0  0
  132.2350  131.6351   62.6455 H   0  0  0  0  0  0  0  0  0  0  0  0
  134.3645  131.9963   61.4062 H   0  0  0  0  0  0  0  0  0  0  0  0
  134.4580  131.6597   58.9403 H   0  0  0  0  0  0  0  0  0  0  0  0
  132.4113  130.9497   57.7075 H   0  0  0  0  0  0  0  0  0  0  0  0
  126.3024  128.8842   60.1997 H   0  0  0  0  0  0  0  0  0  0  0  0
  127.6361  128.0310   63.6029 H   0  0  0  0  0  0  0  0  0  0  0  0
  127.1910  127.2173   62.0646 H   0  0  0  0  0  0  0  0  0  0  0  0
  127.6323  128.9585   62.0646 H   0  0  0  0  0  0  0  0  0  0  0  0
  124.4795  130.2292   65.7358 H   0  0  0  0  0  0  0  0  0  0  0  0
  125.6462  129.5942   64.5266 H   0  0  0  0  0  0  0  0  0  0  0  0
  125.2120  131.3372   64.5266 H   0  0  0  0  0  0  0  0  0  0  0  0
  1  2  1  0
  2  3  1  0
  3  4  2  0
  4  5  1  0
  5  6  1  0
  6  7  1  0
  7  8  2  0
  7  9  1  0
  9 10  1  0
 10 11  1  0
 11 12  2  0
 12 13  1  0
 13 14  1  0
 13 15  2  0
 15 16  1  0
 16 17  1  0
 17 18  2  0
 18 19  1  0
 19 20  2  0
 20 21  1  0
 21 22  2  0
 16 23  2  0
 23 24  1  0
 24 25  3  0
  5 26  2  0
 26 27  1  0
 27 28  1  0
 28 29  1  0
 27 30  2  0
 30 31  1  0
 31 32  1  0
 30  3  1  0
 23 11  1  0
 22 17  1  0
  1 33  1  0
  1 34  1  0
  1 35  1  0
  4 36  1  0
  6 37  1  0
  9 38  1  0
  9 39  1  0
 14 40  1  0
 14 41  1  0
 14 42  1  0
 15 43  1  0
 18 44  1  0
 19 45  1  0
 20 46  1  0
 21 47  1  0
 22 48  1  0
 26 49  1  0
 29 50  1  0
 29 51  1  0
 29 52  1  0
 32 53  1  0
 32 54  1  0
 32 55  1  0
M  END
>  <Binding energies>  (1) 
[-7.62]

>  <Ligand effiencies>  (1) 
[-0.23090909090909092]

>  <Interactions>  (1) 
["V-B:ASP:366:CB:8183, V-B:ASP:366:CG:8184, V-B:GLU:543:CD:9880, V-B:GLY:454:CA:9020, V-A:LEU:363:CD1:3189, V-A:PRO:540:CA:4883, V-B:ILE:369:CG2:8208, V-A:PRO:540:CB:4885, H-B:ARG:545:NH2:9900, V-B:ILE:369:CG1:8209, V-A:TYR:539:CE1:4875, H-A:TYR:539:N:4870, V-B:ILE:369:CB:8207, V-A:PRO:540:N:4884, V-A:MET:535:CE:4835, H-B:TYR:531:OH:9767, H-B:GLY:454:N:9021, V-A:ASP:366:CG:3213, V-B:ASP:366:CA:8181, V-B:TYR:531:CZ:9766, V-B:ARG:545:CZ:9898, H-B:ARG:545:NH1:9899, H-B:ARG:545:NE:9896, V-A:TYR:539:CZ:4877, V-B:GLY:453:C:9013, V-B:ILE:369:CD1:8210, H-A:TYR:539:OH:4878, V-A:ASN:362:CB:3176, V-A:ASN:362:C:3172, V-B:SER:385:C:8376, V-A:LEU:363:CA:3185, V-A:LEU:363:CB:3187, V-B:TYR:531:CE1:9764"]

$$$$
3ci_Grossjean_2025
     RDKit          3D

 39 41  0  0  0  0  0  0  0  0999 V2000
  133.4460  130.9750   62.5780 C   0  0  0  0  0  0  0  0  0  0  0  0
  132.2550  131.4800   61.7840 C   0  0  0  0  0  0  0  0  0  0  0  0
  132.2500  131.4760   60.3920 C   0  0  0  0  0  0  0  0  0  0  0  0
  131.1200  131.9380   59.7030 C   0  0  0  0  0  0  0  0  0  0  0  0
  131.1540  131.9010   58.2100 C   0  0  0  0  0  0  0  0  0  0  0  0
  131.6640  130.7860   57.5320 C   0  0  0  0  0  0  0  0  0  0  0  0
  131.7010  130.7610   56.1400 C   0  0  0  0  0  0  0  0  0  0  0  0
  131.2320  131.8550   55.4190 C   0  0  0  0  0  0  0  0  0  0  0  0
  130.7300  132.9740   56.0770 C   0  0  0  0  0  0  0  0  0  0  0  0
  130.6940  132.9970   57.4690 C   0  0  0  0  0  0  0  0  0  0  0  0
  130.0160  132.4080   60.4580 C   0  0  0  0  0  0  0  0  0  0  0  0
  128.8230  132.9430   59.7910 C   0  0  0  0  0  0  0  0  0  0  0  0
  127.8830  133.3640   59.2640 N   0  0  0  0  0  0  0  0  0  0  0  0
  130.1030  132.3720   61.8710 C   0  0  0  0  0  0  0  0  0  0  0  0
  128.7620  132.9200   62.9200 S   0  0  0  0  0  0  0  0  0  0  0  0
  127.1750  132.3510   62.2250 C   0  0  0  0  0  0  0  0  0  0  0  0
  126.1510  133.4770   62.0480 C   0  0  0  0  0  0  0  0  0  0  0  0
  125.0130  133.3330   62.5000 O   0  0  0  0  0  0  0  0  0  0  0  0
  126.5860  134.5660   61.3760 N   0  0  0  0  0  0  0  0  0  0  0  0
  125.8750  135.7270   61.1050 C   0  0  0  0  0  0  0  0  0  0  0  0
  124.4980  135.7420   60.8890 C   0  0  0  0  0  0  0  0  0  0  0  0
  124.1860  137.0620   60.6550 C   0  0  0  0  0  0  0  0  0  0  0  0
  125.3180  137.8030   60.7280 O   0  0  0  0  0  0  0  0  0  0  0  0
  126.3820  136.9460   61.0130 N   0  0  0  0  0  0  0  0  0  0  0  0
  131.2090  131.9210   62.5150 N   0  0  0  0  0  0  0  0  0  0  0  0
  133.2342  131.0648   63.6537 H   0  0  0  0  0  0  0  0  0  0  0  0
  133.6328  129.9202   62.3279 H   0  0  0  0  0  0  0  0  0  0  0  0
  134.3340  131.5740   62.3279 H   0  0  0  0  0  0  0  0  0  0  0  0
  133.1270  131.1127   59.8363 H   0  0  0  0  0  0  0  0  0  0  0  0
  132.0380  129.9237   58.1035 H   0  0  0  0  0  0  0  0  0  0  0  0
  132.0989  129.8811   55.6132 H   0  0  0  0  0  0  0  0  0  0  0  0
  131.2583  131.8352   54.3195 H   0  0  0  0  0  0  0  0  0  0  0  0
  130.3635  133.8360   55.5004 H   0  0  0  0  0  0  0  0  0  0  0  0
  130.3014  133.8824   57.9904 H   0  0  0  0  0  0  0  0  0  0  0  0
  127.3675  131.8967   61.2419 H   0  0  0  0  0  0  0  0  0  0  0  0
  126.7470  131.6312   62.9382 H   0  0  0  0  0  0  0  0  0  0  0  0
  127.5410  134.5570   61.0520 H   0  0  0  0  0  0  0  0  0  0  0  0
  123.8095  134.8842   60.9026 H   0  0  0  0  0  0  0  0  0  0  0  0
  123.1797  137.4524   60.4429 H   0  0  0  0  0  0  0  0  0  0  0  0
  1  2  1  0
  2  3  2  0
  3  4  1  0
  4  5  1  0
  5  6  2  0
  6  7  1  0
  7  8  2  0
  8  9  1  0
  9 10  2  0
  4 11  2  0
 11 12  1  0
 12 13  3  0
 11 14  1  0
 14 15  1  0
 15 16  1  0
 16 17  1  0
 17 18  2  0
 17 19  1  0
 19 20  1  0
 20 21  1  0
 21 22  2  0
 22 23  1  0
 23 24  1  0
 14 25  2  0
 25  2  1  0
 10  5  1  0
 24 20  2  0
  1 26  1  0
  1 27  1  0
  1 28  1  0
  3 29  1  0
  6 30  1  0
  7 31  1  0
  8 32  1  0
  9 33  1  0
 10 34  1  0
 16 35  1  0
 16 36  1  0
 19 37  1  0
 21 38  1  0
 22 39  1  0
M  END
>  <Binding energies>  (1) 
[-8.27]

>  <Ligand effiencies>  (1) 
[-0.31807692307692303]

>  <Interactions>  (1) 
["V-A:GLU:543:CD:4908, V-A:TYR:539:CD1:4873, V-A:TYR:531:CE2:4793, V-A:ILE:538:CG2:4863, V-A:ILE:538:CB:4862, V-A:TYR:531:CZ:4794, V-B:LEU:475:CD2:9230, V-A:ALA:541:CB:4892, V-A:PRO:540:CA:4883, V-B:ILE:369:CG2:8208, V-A:PRO:540:CB:4885, V-A:TYR:539:CE1:4875, V-A:TYR:539:C:4867, V-A:PRO:540:N:4884, V-A:MET:535:CE:4835, V-A:ASP:366:CG:3213, V-A:PRO:540:C:4881, V-A:ARG:545:CZ:4926, H-A:ALA:541:N:4891, H-A:TYR:539:O:4868, V-A:PRO:540:CD:4887, V-A:ILE:538:CA:4860, V-B:SER:385:CA:8378, V-B:HIS:383:CD2:8363, V-B:SER:385:CB:8380, V-A:ILE:538:C:4858, V-B:LEU:373:CD1:8251, V-A:ASN:362:CB:3176, V-A:MET:535:CG:4833, V-A:ASN:362:CG:3177, H-B:HIS:383:NE2:8365"]

$$$$
3cj_Grossjean_2025
     RDKit          3D

 39 41  0  0  0  0  0  0  0  0999 V2000
  131.9140  126.5340   58.0410 C   0  0  0  0  0  0  0  0  0  0  0  0
  131.1200  125.4120   58.6800 C   0  0  0  0  0  0  0  0  0  0  0  0
  129.8560  125.0560   58.2140 C   0  0  0  0  0  0  0  0  0  0  0  0
  129.1670  123.9970   58.8210 C   0  0  0  0  0  0  0  0  0  0  0  0
  127.8450  123.6090   58.2480 C   0  0  0  0  0  0  0  0  0  0  0  0
  127.7740  122.8630   57.0660 C   0  0  0  0  0  0  0  0  0  0  0  0
  126.5390  122.5130   56.5250 C   0  0  0  0  0  0  0  0  0  0  0  0
  125.3690  122.9140   57.1630 C   0  0  0  0  0  0  0  0  0  0  0  0
  125.4240  123.6650   58.3340 C   0  0  0  0  0  0  0  0  0  0  0  0
  126.6600  124.0130   58.8740 C   0  0  0  0  0  0  0  0  0  0  0  0
  129.7740  123.3390   59.9190 C   0  0  0  0  0  0  0  0  0  0  0  0
  129.0910  122.2430   60.6140 C   0  0  0  0  0  0  0  0  0  0  0  0
  128.5520  121.3760   61.1610 N   0  0  0  0  0  0  0  0  0  0  0  0
  131.0600  123.7630   60.3220 C   0  0  0  0  0  0  0  0  0  0  0  0
  131.9890  122.9380   61.5970 S   0  0  0  0  0  0  0  0  0  0  0  0
  133.2630  121.9880   60.7060 C   0  0  0  0  0  0  0  0  0  0  0  0
  132.7470  120.6140   60.2660 C   0  0  0  0  0  0  0  0  0  0  0  0
  133.4570  119.8960   59.5600 O   0  0  0  0  0  0  0  0  0  0  0  0
  131.5270  120.2770   60.7370 N   0  0  0  0  0  0  0  0  0  0  0  0
  130.8970  119.0500   60.5990 C   0  0  0  0  0  0  0  0  0  0  0  0
  131.0760  118.1520   59.6560 N   0  0  0  0  0  0  0  0  0  0  0  0
  130.3290  117.0850   59.8570 C   0  0  0  0  0  0  0  0  0  0  0  0
  129.5170  117.1040   60.9870 C   0  0  0  0  0  0  0  0  0  0  0  0
  129.7520  118.6090   61.8260 S   0  0  0  0  0  0  0  0  0  0  0  0
  131.7240  124.7740   59.7070 N   0  0  0  0  0  0  0  0  0  0  0  0
  132.3586  127.1623   58.8269 H   0  0  0  0  0  0  0  0  0  0  0  0
  132.7129  126.1082   57.4162 H   0  0  0  0  0  0  0  0  0  0  0  0
  131.2467  127.1458   57.4162 H   0  0  0  0  0  0  0  0  0  0  0  0
  129.4015  125.6028   57.3747 H   0  0  0  0  0  0  0  0  0  0  0  0
  128.6999  122.5509   56.5607 H   0  0  0  0  0  0  0  0  0  0  0  0
  126.4888  121.9226   55.5982 H   0  0  0  0  0  0  0  0  0  0  0  0
  124.3931  122.6354   56.7387 H   0  0  0  0  0  0  0  0  0  0  0  0
  124.4952  123.9823   58.8307 H   0  0  0  0  0  0  0  0  0  0  0  0
  126.7051  124.6087   59.7976 H   0  0  0  0  0  0  0  0  0  0  0  0
  133.5708  122.5545   59.8148 H   0  0  0  0  0  0  0  0  0  0  0  0
  134.1113  121.8313   61.3885 H   0  0  0  0  0  0  0  0  0  0  0  0
  131.0530  120.9500   61.3220 H   0  0  0  0  0  0  0  0  0  0  0  0
  130.3464  116.2266   59.1694 H   0  0  0  0  0  0  0  0  0  0  0  0
  128.8368  116.2978   61.2989 H   0  0  0  0  0  0  0  0  0  0  0  0
  1  2  1  0
  2  3  2  0
  3  4  1  0
  4  5  1  0
  5  6  2  0
  6  7  1  0
  7  8  2  0
  8  9  1  0
  9 10  2  0
  4 11  2  0
 11 12  1  0
 12 13  3  0
 11 14  1  0
 14 15  1  0
 15 16  1  0
 16 17  1  0
 17 18  2  0
 17 19  1  0
 19 20  1  0
 20 21  2  0
 21 22  1  0
 22 23  2  0
 23 24  1  0
 14 25  2  0
 25  2  1  0
 10  5  1  0
 24 20  1  0
  1 26  1  0
  1 27  1  0
  1 28  1  0
  3 29  1  0
  6 30  1  0
  7 31  1  0
  8 32  1  0
  9 33  1  0
 10 34  1  0
 16 35  1  0
 16 36  1  0
 19 37  1  0
 22 38  1  0
 23 39  1  0
M  END
>  <Binding energies>  (1) 
[-7.61]

>  <Ligand effiencies>  (1) 
[-0.2926923076923077]

>  <Interactions>  (1) 
["V-B:TYR:539:CE2:9848, V-B:LEU:363:CD1:8160, V-A:LEU:475:CD2:4259, V-B:MET:535:CE:9807, V-B:PRO:540:CB:9857, V-A:ILE:369:CG2:3237, H-B:ALA:541:N:9863, V-B:TYR:539:CZ:9849, V-B:TYR:539:CD2:9846, V-B:TYR:539:CG:9844, V-B:TYR:539:CE1:9847, V-B:PRO:540:CA:9855, V-B:ALA:541:CB:9864, V-A:ASP:366:CB:3212, V-B:PRO:540:N:9856, V-B:TYR:539:CD1:9845, V-B:TYR:539:C:9839, V-B:PRO:540:CD:9859, V-A:ASP:366:CG:3213, H-A:SER:385:OG:3410, V-B:TYR:539:CB:9843, V-A:LEU:475:CD1:4258, V-A:HIS:383:CD2:3392, V-A:HIS:383:CE1:3393, V-B:VAL:344:CG1:7972, V-A:PRO:482:CG:4327, V-A:HIS:383:NE2:3394, V-A:PRO:482:CB:4326, V-A:LEU:475:CG:4257, H-A:HIS:383:HE2:3395, V-A:SER:385:CB:3409, V-B:PRO:540:CG:9858"]

$$$$
3ck_Grossjean_2025
     RDKit          3D

 57 58  0  0  0  0  0  0  0  0999 V2000
  129.7460  125.9530   67.2380 C   0  0  0  0  0  0  0  0  0  0  0  0
  130.8230  125.0780   66.9430 O   0  0  0  0  0  0  0  0  0  0  0  0
  131.2340  125.1230   65.5840 C   0  0  0  0  0  0  0  0  0  0  0  0
  132.7380  125.4160   65.5120 C   0  0  0  0  0  0  0  0  0  0  0  0
  133.3870  124.3710   64.8000 O   0  0  0  0  0  0  0  0  0  0  0  0
  132.5440  123.6890   63.8810 C   0  0  0  0  0  0  0  0  0  0  0  0
  132.4730  124.4920   62.5760 C   0  0  0  0  0  0  0  0  0  0  0  0
  133.7190  125.1460   62.3840 O   0  0  0  0  0  0  0  0  0  0  0  0
  134.7440  124.3280   61.8420 C   0  0  0  0  0  0  0  0  0  0  0  0
  134.3100  123.8060   60.4590 C   0  0  0  0  0  0  0  0  0  0  0  0
  133.4740  124.7480   59.7090 N   0  0  0  0  0  0  0  0  0  0  0  0
  133.3330  124.7780   58.3720 C   0  0  0  0  0  0  0  0  0  0  0  0
  133.8870  123.9780   57.6150 O   0  0  0  0  0  0  0  0  0  0  0  0
  132.4170  125.8870   57.8280 C   0  0  0  0  0  0  0  0  0  0  0  0
  131.2750  126.6260   59.0450 S   0  0  0  0  0  0  0  0  0  0  0  0
  129.9730  125.4590   59.4100 C   0  0  0  0  0  0  0  0  0  0  0  0
  129.8950  125.0530   60.7020 N   0  0  0  0  0  0  0  0  0  0  0  0
  128.9360  124.1660   61.0490 C   0  0  0  0  0  0  0  0  0  0  0  0
  128.9130  123.7560   62.5090 C   0  0  0  0  0  0  0  0  0  0  0  0
  128.0220  123.6520   60.1320 C   0  0  0  0  0  0  0  0  0  0  0  0
  128.0870  124.0530   58.7910 C   0  0  0  0  0  0  0  0  0  0  0  0
  127.1020  123.4590   57.8390 C   0  0  0  0  0  0  0  0  0  0  0  0
  125.7280  123.6160   58.0580 C   0  0  0  0  0  0  0  0  0  0  0  0
  124.8040  123.0550   57.1790 C   0  0  0  0  0  0  0  0  0  0  0  0
  125.2510  122.3290   56.0800 C   0  0  0  0  0  0  0  0  0  0  0  0
  126.6150  122.1560   55.8520 C   0  0  0  0  0  0  0  0  0  0  0  0
  127.5360  122.7180   56.7320 C   0  0  0  0  0  0  0  0  0  0  0  0
  129.0820  124.9930   58.4160 C   0  0  0  0  0  0  0  0  0  0  0  0
  129.1700  125.4800   57.0350 C   0  0  0  0  0  0  0  0  0  0  0  0
  129.2390  125.8650   55.9450 N   0  0  0  0  0  0  0  0  0  0  0  0
  129.6350  126.0432   68.3287 H   0  0  0  0  0  0  0  0  0  0  0  0
  129.9503  126.9442   66.8070 H   0  0  0  0  0  0  0  0  0  0  0  0
  128.8176  125.5501   66.8070 H   0  0  0  0  0  0  0  0  0  0  0  0
  131.0263  124.1542   65.1062 H   0  0  0  0  0  0  0  0  0  0  0  0
  130.6811  125.9170   65.0607 H   0  0  0  0  0  0  0  0  0  0  0  0
  132.9017  126.3715   64.9922 H   0  0  0  0  0  0  0  0  0  0  0  0
  133.1500  125.4793   66.5299 H   0  0  0  0  0  0  0  0  0  0  0  0
  132.9543  122.6891   63.6766 H   0  0  0  0  0  0  0  0  0  0  0  0
  131.5358  123.5857   64.3085 H   0  0  0  0  0  0  0  0  0  0  0  0
  132.2755  123.8138   61.7327 H   0  0  0  0  0  0  0  0  0  0  0  0
  131.6618  125.2328   62.6316 H   0  0  0  0  0  0  0  0  0  0  0  0
  135.6667  124.9178   61.7379 H   0  0  0  0  0  0  0  0  0  0  0  0
  134.9259  123.4762   62.5139 H   0  0  0  0  0  0  0  0  0  0  0  0
  135.2136  123.5968   59.8676 H   0  0  0  0  0  0  0  0  0  0  0  0
  133.7032  122.9049   60.6316 H   0  0  0  0  0  0  0  0  0  0  0  0
  132.9720  125.4300   60.2590 H   0  0  0  0  0  0  0  0  0  0  0  0
  133.0553  126.6898   57.4304 H   0  0  0  0  0  0  0  0  0  0  0  0
  131.7819  125.4096   57.0672 H   0  0  0  0  0  0  0  0  0  0  0  0
  128.9634  124.6537   63.1428 H   0  0  0  0  0  0  0  0  0  0  0  0
  127.9827  123.2088   62.7216 H   0  0  0  0  0  0  0  0  0  0  0  0
  129.7762  123.1082   62.7216 H   0  0  0  0  0  0  0  0  0  0  0  0
  127.2538  122.9356   60.4587 H   0  0  0  0  0  0  0  0  0  0  0  0
  125.3756  124.1863   58.9301 H   0  0  0  0  0  0  0  0  0  0  0  0
  123.7258  123.1856   57.3534 H   0  0  0  0  0  0  0  0  0  0  0  0
  124.5217  121.8876   55.3848 H   0  0  0  0  0  0  0  0  0  0  0  0
  126.9618  121.5790   54.9821 H   0  0  0  0  0  0  0  0  0  0  0  0
  128.6130  122.5791   56.5567 H   0  0  0  0  0  0  0  0  0  0  0  0
  1  2  1  0
  2  3  1  0
  3  4  1  0
  4  5  1  0
  5  6  1  0
  6  7  1  0
  7  8  1  0
  8  9  1  0
  9 10  1  0
 10 11  1  0
 11 12  1  0
 12 13  2  0
 12 14  1  0
 14 15  1  0
 15 16  1  0
 16 17  2  0
 17 18  1  0
 18 19  1  0
 18 20  2  0
 20 21  1  0
 21 22  1  0
 22 23  2  0
 23 24  1  0
 24 25  2  0
 25 26  1  0
 26 27  2  0
 21 28  2  0
 28 29  1  0
 29 30  3  0
 28 16  1  0
 27 22  1  0
  1 31  1  0
  1 32  1  0
  1 33  1  0
  3 34  1  0
  3 35  1  0
  4 36  1  0
  4 37  1  0
  6 38  1  0
  6 39  1  0
  7 40  1  0
  7 41  1  0
  9 42  1  0
  9 43  1  0
 10 44  1  0
 10 45  1  0
 11 46  1  0
 14 47  1  0
 14 48  1  0
 19 49  1  0
 19 50  1  0
 19 51  1  0
 20 52  1  0
 23 53  1  0
 24 54  1  0
 25 55  1  0
 26 56  1  0
 27 57  1  0
M  END
>  <Binding energies>  (1) 
[-6.7]

>  <Ligand effiencies>  (1) 
[-0.2161290322580645]

>  <Interactions>  (1) 
["V-A:HIS:456:CE1:4070, V-B:GLU:543:CB:9878, V-B:TYR:539:CE2:9848, H-B:TYR:539:OH:9850, V-B:LEU:363:CD1:8160, V-B:MET:535:CE:9807, V-B:PRO:540:CB:9857, V-A:ILE:369:CG2:3237, V-B:TYR:539:CZ:9849, V-B:TYR:539:CD2:9846, V-B:TYR:539:CG:9844, V-B:TYR:539:CE1:9847, V-B:PRO:540:CA:9855, V-B:GLU:543:CG:9879, V-A:ILE:369:CD1:3239, H-A:ASP:366:OD2:3215, H-A:ARG:545:NH2:4928, V-A:ASP:366:CB:3212, V-B:PRO:540:N:9856, H-A:TYR:531:OH:4795, V-B:TYR:539:CD1:9845, V-B:TYR:539:C:9839, V-B:PRO:540:CD:9859, V-A:ASP:366:CG:3213, V-A:ARG:545:CZ:4926, H-A:ASP:366:OD1:3214, H-A:GLY:454:N:4050, H-A:TYR:484:OH:4348, V-B:ILE:538:CA:9832, V-A:ASP:366:CA:3210, V-A:GLY:453:CA:4044, V-A:ASP:366:C:3208, V-B:ILE:538:C:9830, V-B:ILE:538:CG2:9835, V-B:PRO:540:CG:9858, V-A:ARG:545:CD:4923, H-A:ASN:370:N:3244, V-A:ILE:369:CB:3236, V-A:ILE:369:CG1:3238"]

$$$$
4aa_Grossjean_2025
     RDKit          3D

 45 47  0  0  0  0  0  0  0  0999 V2000
  131.2680  131.9180   55.4400 C   0  0  0  0  0  0  0  0  0  0  0  0
  131.7120  132.3280   56.8480 C   0  0  0  0  0  0  0  0  0  0  0  0
  130.9000  133.4010   57.3060 O   0  0  0  0  0  0  0  0  0  0  0  0
  129.6120  133.1930   57.6840 C   0  0  0  0  0  0  0  0  0  0  0  0
  128.6420  133.6740   57.0900 O   0  0  0  0  0  0  0  0  0  0  0  0
  129.4840  132.3230   58.9010 C   0  0  0  0  0  0  0  0  0  0  0  0
  129.0410  132.8890   60.1040 C   0  0  0  0  0  0  0  0  0  0  0  0
  128.9170  132.1100   61.2510 C   0  0  0  0  0  0  0  0  0  0  0  0
  129.2240  130.7490   61.2170 C   0  0  0  0  0  0  0  0  0  0  0  0
  129.0710  130.0580   62.4350 N   0  0  0  0  0  0  0  0  0  0  0  0
  127.9710  129.4870   62.9830 C   0  0  0  0  0  0  0  0  0  0  0  0
  126.8480  129.5270   62.4810 O   0  0  0  0  0  0  0  0  0  0  0  0
  128.1890  128.8160   64.2660 C   0  0  0  0  0  0  0  0  0  0  0  0
  127.4620  129.4570   65.7420 S   0  0  0  0  0  0  0  0  0  0  0  0
  128.2020  128.2010   66.7080 C   0  0  0  0  0  0  0  0  0  0  0  0
  128.0210  128.1270   68.0270 N   0  0  0  0  0  0  0  0  0  0  0  0
  128.6540  127.1080   68.6580 C   0  0  0  0  0  0  0  0  0  0  0  0
  128.4380  127.0440   70.1590 C   0  0  0  0  0  0  0  0  0  0  0  0
  129.4520  126.1690   68.0070 C   0  0  0  0  0  0  0  0  0  0  0  0
  129.6390  126.2500   66.6230 C   0  0  0  0  0  0  0  0  0  0  0  0
  130.5190  125.2020   65.9570 C   0  0  0  0  0  0  0  0  0  0  0  0
  128.9940  127.3080   65.9260 C   0  0  0  0  0  0  0  0  0  0  0  0
  128.9730  127.6840   64.5380 C   0  0  0  0  0  0  0  0  0  0  0  0
  129.6620  126.9830   63.5800 N   0  0  0  0  0  0  0  0  0  0  0  0
  129.6740  130.1740   60.0200 C   0  0  0  0  0  0  0  0  0  0  0  0
  129.8010  130.9560   58.8740 C   0  0  0  0  0  0  0  0  0  0  0  0
  130.4616  131.1733   55.5121 H   0  0  0  0  0  0  0  0  0  0  0  0
  130.9025  132.8030   54.8985 H   0  0  0  0  0  0  0  0  0  0  0  0
  132.1211  131.4833   54.8985 H   0  0  0  0  0  0  0  0  0  0  0  0
  131.6068  131.4713   57.5299 H   0  0  0  0  0  0  0  0  0  0  0  0
  132.7639  132.6486   56.8225 H   0  0  0  0  0  0  0  0  0  0  0  0
  128.7889  133.9590   60.1423 H   0  0  0  0  0  0  0  0  0  0  0  0
  128.5750  132.5700   62.1899 H   0  0  0  0  0  0  0  0  0  0  0  0
  129.9180  129.9960   62.9830 H   0  0  0  0  0  0  0  0  0  0  0  0
  129.3692  127.3199   70.6755 H   0  0  0  0  0  0  0  0  0  0  0  0
  127.6390  127.7440   70.4446 H   0  0  0  0  0  0  0  0  0  0  0  0
  128.1493  126.0217   70.4446 H   0  0  0  0  0  0  0  0  0  0  0  0
  129.9346  125.3644   68.5812 H   0  0  0  0  0  0  0  0  0  0  0  0
  131.0229  124.6020   66.7291 H   0  0  0  0  0  0  0  0  0  0  0  0
  129.8973  124.5457   65.3303 H   0  0  0  0  0  0  0  0  0  0  0  0
  131.2729  125.7008   65.3303 H   0  0  0  0  0  0  0  0  0  0  0  0
  130.5380  127.3160   63.2030 H   0  0  0  0  0  0  0  0  0  0  0  0
  129.3140  126.1070   63.2170 H   0  0  0  0  0  0  0  0  0  0  0  0
  129.9271  129.1041   59.9857 H   0  0  0  0  0  0  0  0  0  0  0  0
  130.1534  130.4973   57.9383 H   0  0  0  0  0  0  0  0  0  0  0  0
  1  2  1  0
  2  3  1  0
  3  4  1  0
  4  5  2  0
  4  6  1  0
  6  7  2  0
  7  8  1  0
  8  9  2  0
  9 10  1  0
 10 11  1  0
 11 12  2  0
 11 13  1  0
 13 14  1  0
 14 15  1  0
 15 16  2  0
 16 17  1  0
 17 18  1  0
 17 19  2  0
 19 20  1  0
 20 21  1  0
 20 22  2  0
 22 23  1  0
 23 24  1  0
  9 25  1  0
 25 26  2  0
 26  6  1  0
 23 13  2  0
 22 15  1  0
  1 27  1  0
  1 28  1  0
  1 29  1  0
  2 30  1  0
  2 31  1  0
  7 32  1  0
  8 33  1  0
 10 34  1  0
 18 35  1  0
 18 36  1  0
 18 37  1  0
 19 38  1  0
 21 39  1  0
 21 40  1  0
 21 41  1  0
 24 42  1  0
 24 43  1  0
 25 44  1  0
 26 45  1  0
M  END
>  <Binding energies>  (1) 
[-7.21]

>  <Ligand effiencies>  (1) 
[-0.24862068965517242]

>  <Interactions>  (1) 
["V-B:GLU:543:C:9874, V-A:GLU:543:CD:4908, V-A:HIS:456:CE1:4070, V-B:HIS:456:CE1:9041, V-B:GLU:543:CB:9878, V-B:TYR:484:CZ:9318, V-B:GLU:543:CG:9879, V-B:GLU:543:CD:9880, V-A:GLU:543:CG:4907, H-B:GLU:543:OE1:9881, V-A:TYR:539:CD1:4873, H-A:GLU:543:OE2:4910, V-A:LEU:363:CD1:3189, V-A:ILE:538:CG2:4863, V-A:ILE:538:CB:4862, H-A:GLU:543:OE1:4909, V-A:PRO:540:CA:4883, V-A:TYR:539:C:4867, H-A:TYR:539:N:4870, V-A:PRO:540:N:4884, V-A:MET:535:CE:4835, V-A:TYR:539:CA:4869, V-A:MET:535:CG:4833"]

$$$$
4ab_Grossjean_2025
     RDKit          3D

 42 44  0  0  0  0  0  0  0  0999 V2000
  128.6300  133.0020   55.6980 C   0  0  0  0  0  0  0  0  0  0  0  0
  128.8890  133.4970   57.0040 O   0  0  0  0  0  0  0  0  0  0  0  0
  130.0120  133.1390   57.6770 C   0  0  0  0  0  0  0  0  0  0  0  0
  131.1550  133.3630   57.2620 O   0  0  0  0  0  0  0  0  0  0  0  0
  129.7290  132.4360   58.9730 C   0  0  0  0  0  0  0  0  0  0  0  0
  130.5070  131.3280   59.3340 C   0  0  0  0  0  0  0  0  0  0  0  0
  130.2670  130.6540   60.5290 C   0  0  0  0  0  0  0  0  0  0  0  0
  129.2540  131.0770   61.3880 C   0  0  0  0  0  0  0  0  0  0  0  0
  129.0940  130.3190   62.5640 N   0  0  0  0  0  0  0  0  0  0  0  0
  128.0330  129.5990   63.0020 C   0  0  0  0  0  0  0  0  0  0  0  0
  126.9540  129.5270   62.4130 O   0  0  0  0  0  0  0  0  0  0  0  0
  128.2330  128.9030   64.2740 C   0  0  0  0  0  0  0  0  0  0  0  0
  127.5310  129.5450   65.7610 S   0  0  0  0  0  0  0  0  0  0  0  0
  128.2320  128.2520   66.7070 C   0  0  0  0  0  0  0  0  0  0  0  0
  128.0530  128.1650   68.0260 N   0  0  0  0  0  0  0  0  0  0  0  0
  128.6530  127.1160   68.6400 C   0  0  0  0  0  0  0  0  0  0  0  0
  128.4410  127.0380   70.1410 C   0  0  0  0  0  0  0  0  0  0  0  0
  129.4160  126.1600   67.9730 C   0  0  0  0  0  0  0  0  0  0  0  0
  129.6020  126.2550   66.5890 C   0  0  0  0  0  0  0  0  0  0  0  0
  130.4450  125.1880   65.9060 C   0  0  0  0  0  0  0  0  0  0  0  0
  128.9920  127.3440   65.9100 C   0  0  0  0  0  0  0  0  0  0  0  0
  128.9810  127.7420   64.5280 C   0  0  0  0  0  0  0  0  0  0  0  0
  129.6460  127.0350   63.5580 N   0  0  0  0  0  0  0  0  0  0  0  0
  128.4650  132.1820   61.0330 C   0  0  0  0  0  0  0  0  0  0  0  0
  128.7050  132.8540   59.8370 C   0  0  0  0  0  0  0  0  0  0  0  0
  128.1211  132.0294   55.7688 H   0  0  0  0  0  0  0  0  0  0  0  0
  127.9884  133.7130   55.1569 H   0  0  0  0  0  0  0  0  0  0  0  0
  129.5800  132.8803   55.1569 H   0  0  0  0  0  0  0  0  0  0  0  0
  131.3138  130.9877   58.6683 H   0  0  0  0  0  0  0  0  0  0  0  0
  130.8812  129.7817   60.7968 H   0  0  0  0  0  0  0  0  0  0  0  0
  129.8980  130.3310   63.1730 H   0  0  0  0  0  0  0  0  0  0  0  0
  129.3523  127.3733   70.6579 H   0  0  0  0  0  0  0  0  0  0  0  0
  127.5984  127.6850   70.4264 H   0  0  0  0  0  0  0  0  0  0  0  0
  128.2187  125.9992   70.4264 H   0  0  0  0  0  0  0  0  0  0  0  0
  129.8721  125.3309   68.5338 H   0  0  0  0  0  0  0  0  0  0  0  0
  130.9367  124.5657   66.6682 H   0  0  0  0  0  0  0  0  0  0  0  0
  129.7991  124.5567   65.2780 H   0  0  0  0  0  0  0  0  0  0  0  0
  131.2086  125.6703   65.2780 H   0  0  0  0  0  0  0  0  0  0  0  0
  130.5450  127.3290   63.2050 H   0  0  0  0  0  0  0  0  0  0  0  0
  129.2510  126.1940   63.1590 H   0  0  0  0  0  0  0  0  0  0  0  0
  127.6568  132.5174   61.6996 H   0  0  0  0  0  0  0  0  0  0  0  0
  128.0853  133.7217   59.5666 H   0  0  0  0  0  0  0  0  0  0  0  0
  1  2  1  0
  2  3  1  0
  3  4  2  0
  3  5  1  0
  5  6  2  0
  6  7  1  0
  7  8  2  0
  8  9  1  0
  9 10  1  0
 10 11  2  0
 10 12  1  0
 12 13  1  0
 13 14  1  0
 14 15  2  0
 15 16  1  0
 16 17  1  0
 16 18  2  0
 18 19  1  0
 19 20  1  0
 19 21  2  0
 21 22  1  0
 22 23  1  0
  8 24  1  0
 24 25  2  0
 25  5  1  0
 22 12  2  0
 21 14  1  0
  1 26  1  0
  1 27  1  0
  1 28  1  0
  6 29  1  0
  7 30  1  0
  9 31  1  0
 17 32  1  0
 17 33  1  0
 17 34  1  0
 18 35  1  0
 20 36  1  0
 20 37  1  0
 20 38  1  0
 23 39  1  0
 23 40  1  0
 24 41  1  0
 25 42  1  0
M  END
>  <Binding energies>  (1) 
[-7.04]

>  <Ligand effiencies>  (1) 
[-0.25142857142857145]

>  <Interactions>  (1) 
["V-B:GLU:543:C:9874, V-A:GLU:543:CD:4908, V-A:HIS:456:CE1:4070, V-A:GLU:543:CB:4906, V-B:HIS:456:CE1:9041, V-B:GLU:543:CB:9878, V-B:TYR:484:CZ:9318, V-B:GLU:543:CG:9879, V-B:GLU:543:CD:9880, V-A:GLU:543:CG:4907, H-B:GLU:543:OE1:9881, V-A:TYR:539:CD1:4873, H-A:GLU:543:OE2:4910, H-A:GLU:543:OE1:4909, V-A:PRO:540:CA:4883, V-A:TYR:539:C:4867, H-A:TYR:539:N:4870, V-A:PRO:540:N:4884, V-A:MET:535:CE:4835, V-A:PRO:540:CD:4887, V-A:ILE:538:CA:4860, V-A:TYR:539:CZ:4877, V-A:TYR:539:CG:4872, V-A:TYR:539:CE2:4876, V-A:TYR:539:CA:4869, V-A:TYR:539:CD2:4874"]

$$$$
4ac_Grossjean_2025
     RDKit          3D

 40 42  0  0  0  0  0  0  0  0999 V2000
  130.1160  127.0110   68.1530 C   0  0  0  0  0  0  0  0  0  0  0  0
  130.8250  125.9390   67.5400 O   0  0  0  0  0  0  0  0  0  0  0  0
  130.3600  125.4170   66.3490 C   0  0  0  0  0  0  0  0  0  0  0  0
  129.7620  126.3170   65.4670 C   0  0  0  0  0  0  0  0  0  0  0  0
  129.2640  125.8840   64.2410 C   0  0  0  0  0  0  0  0  0  0  0  0
  129.3670  124.5410   63.8770 C   0  0  0  0  0  0  0  0  0  0  0  0
  128.8250  124.1930   62.6250 N   0  0  0  0  0  0  0  0  0  0  0  0
  127.8680  123.2810   62.3300 C   0  0  0  0  0  0  0  0  0  0  0  0
  127.3250  122.5560   63.1660 O   0  0  0  0  0  0  0  0  0  0  0  0
  127.5030  123.1900   60.9140 C   0  0  0  0  0  0  0  0  0  0  0  0
  128.5370  122.3190   59.7800 S   0  0  0  0  0  0  0  0  0  0  0  0
  127.4620  122.6800   58.4480 C   0  0  0  0  0  0  0  0  0  0  0  0
  127.7100  122.2600   57.2070 N   0  0  0  0  0  0  0  0  0  0  0  0
  126.7980  122.6090   56.2680 C   0  0  0  0  0  0  0  0  0  0  0  0
  127.0970  122.1210   54.8630 C   0  0  0  0  0  0  0  0  0  0  0  0
  125.6560  123.3620   56.5370 C   0  0  0  0  0  0  0  0  0  0  0  0
  125.3990  123.8020   57.8410 C   0  0  0  0  0  0  0  0  0  0  0  0
  124.1410  124.6200   58.0850 C   0  0  0  0  0  0  0  0  0  0  0  0
  126.3330  123.4530   58.8530 C   0  0  0  0  0  0  0  0  0  0  0  0
  126.3800  123.7280   60.2650 C   0  0  0  0  0  0  0  0  0  0  0  0
  125.4060  124.4550   60.9010 N   0  0  0  0  0  0  0  0  0  0  0  0
  129.9560  123.6270   64.7620 C   0  0  0  0  0  0  0  0  0  0  0  0
  130.4530  124.0640   65.9880 C   0  0  0  0  0  0  0  0  0  0  0  0
  130.1797  126.9147   69.2469 H   0  0  0  0  0  0  0  0  0  0  0  0
  130.5594  127.9687   67.8428 H   0  0  0  0  0  0  0  0  0  0  0  0
  129.0612  126.9778   67.8428 H   0  0  0  0  0  0  0  0  0  0  0  0
  129.6831  127.3790   65.7426 H   0  0  0  0  0  0  0  0  0  0  0  0
  128.7881  126.6026   63.5576 H   0  0  0  0  0  0  0  0  0  0  0  0
  129.2380  124.6760   61.8400 H   0  0  0  0  0  0  0  0  0  0  0  0
  127.6710  121.1841   54.9147 H   0  0  0  0  0  0  0  0  0  0  0  0
  126.1525  121.9433   54.3278 H   0  0  0  0  0  0  0  0  0  0  0  0
  127.6842  122.8818   54.3278 H   0  0  0  0  0  0  0  0  0  0  0  0
  124.9570  123.6104   55.7248 H   0  0  0  0  0  0  0  0  0  0  0  0
  123.9771  124.7266   59.1675 H   0  0  0  0  0  0  0  0  0  0  0  0
  124.2574  125.6156   57.6320 H   0  0  0  0  0  0  0  0  0  0  0  0
  123.2782  124.1097   57.6320 H   0  0  0  0  0  0  0  0  0  0  0  0
  125.4080  124.5890   61.9010 H   0  0  0  0  0  0  0  0  0  0  0  0
  124.6510  124.8850   60.3850 H   0  0  0  0  0  0  0  0  0  0  0  0
  130.0258  122.5639   64.4882 H   0  0  0  0  0  0  0  0  0  0  0  0
  130.9207  123.3449   66.6766 H   0  0  0  0  0  0  0  0  0  0  0  0
  1  2  1  0
  2  3  1  0
  3  4  2  0
  4  5  1  0
  5  6  2  0
  6  7  1  0
  7  8  1  0
  8  9  2  0
  8 10  1  0
 10 11  1  0
 11 12  1  0
 12 13  2  0
 13 14  1  0
 14 15  1  0
 14 16  2  0
 16 17  1  0
 17 18  1  0
 17 19  2  0
 19 20  1  0
 20 21  1  0
  6 22  1  0
 22 23  2  0
 23  3  1  0
 20 10  2  0
 19 12  1  0
  1 24  1  0
  1 25  1  0
  1 26  1  0
  4 27  1  0
  5 28  1  0
  7 29  1  0
 15 30  1  0
 15 31  1  0
 15 32  1  0
 16 33  1  0
 18 34  1  0
 18 35  1  0
 18 36  1  0
 21 37  1  0
 21 38  1  0
 22 39  1  0
 23 40  1  0
M  END
>  <Binding energies>  (1) 
[-7.21]

>  <Ligand effiencies>  (1) 
[-0.2773076923076923]

>  <Interactions>  (1) 
["V-A:GLU:543:CD:4908, V-A:HIS:456:CE1:4070, V-A:GLU:543:CB:4906, V-B:TYR:539:CE2:9848, V-B:LEU:363:CA:8156, V-B:LEU:363:CD1:8160, V-B:MET:535:CE:9807, V-B:ASP:366:CB:8183, V-B:PRO:540:CB:9857, H-B:ALA:541:N:9863, V-B:ASP:366:CG:8184, V-B:TYR:539:CD2:9846, V-B:TYR:539:CE1:9847, H-B:TYR:539:N:9842, V-B:TYR:531:CE2:9765, V-B:PRO:540:CA:9855, V-B:GLU:543:CG:9879, V-B:GLU:543:CD:9880, V-A:TYR:484:CE2:4346, H-B:GLU:543:OE1:9881, V-A:TYR:484:CZ:4347, V-B:PRO:540:N:9856, V-B:TYR:539:CD1:9845, V-B:TYR:539:C:9839, H-B:ASP:366:OD1:8185, V-B:ILE:538:CA:9832, V-B:ILE:538:C:9830, V-B:ILE:538:CG2:9835, V-B:ILE:538:CB:9834"]

$$$$
4ad_Grossjean_2025
     RDKit          3D

 36 38  0  0  0  0  0  0  0  0999 V2000
  126.8160  122.1280   54.9900 C   0  0  0  0  0  0  0  0  0  0  0  0
  126.6400  122.6010   56.4210 C   0  0  0  0  0  0  0  0  0  0  0  0
  125.4810  123.2630   56.8210 C   0  0  0  0  0  0  0  0  0  0  0  0
  125.3410  123.6920   58.1470 C   0  0  0  0  0  0  0  0  0  0  0  0
  124.0590  124.4130   58.5350 C   0  0  0  0  0  0  0  0  0  0  0  0
  126.4100  123.4280   59.0450 C   0  0  0  0  0  0  0  0  0  0  0  0
  126.5980  123.7190   60.4410 C   0  0  0  0  0  0  0  0  0  0  0  0
  125.6470  124.3690   61.1870 N   0  0  0  0  0  0  0  0  0  0  0  0
  127.8280  123.2790   60.9550 C   0  0  0  0  0  0  0  0  0  0  0  0
  128.3510  123.4220   62.3150 C   0  0  0  0  0  0  0  0  0  0  0  0
  127.7350  122.9570   63.2760 O   0  0  0  0  0  0  0  0  0  0  0  0
  129.5350  124.0750   62.4170 N   0  0  0  0  0  0  0  0  0  0  0  0
  130.2750  124.4120   63.5670 C   0  0  0  0  0  0  0  0  0  0  0  0
  131.6170  124.7420   63.3540 C   0  0  0  0  0  0  0  0  0  0  0  0
  132.4300  125.0990   64.4270 C   0  0  0  0  0  0  0  0  0  0  0  0
  131.8990  125.1360   65.7130 C   0  0  0  0  0  0  0  0  0  0  0  0
  130.5600  124.8230   65.9360 C   0  0  0  0  0  0  0  0  0  0  0  0
  129.7450  124.4640   64.8660 C   0  0  0  0  0  0  0  0  0  0  0  0
  128.7900  122.4810   59.7090 S   0  0  0  0  0  0  0  0  0  0  0  0
  127.5430  122.7430   58.5110 C   0  0  0  0  0  0  0  0  0  0  0  0
  127.6780  122.3320   57.2490 N   0  0  0  0  0  0  0  0  0  0  0  0
  127.1996  121.0971   54.9891 H   0  0  0  0  0  0  0  0  0  0  0  0
  125.8462  122.1588   54.4717 H   0  0  0  0  0  0  0  0  0  0  0  0
  127.5298  122.7852   54.4717 H   0  0  0  0  0  0  0  0  0  0  0  0
  124.6756  123.4488   56.0951 H   0  0  0  0  0  0  0  0  0  0  0  0
  123.9806  124.4571   59.6313 H   0  0  0  0  0  0  0  0  0  0  0  0
  124.0750  125.4345   58.1271 H   0  0  0  0  0  0  0  0  0  0  0  0
  123.1944  123.8688   58.1271 H   0  0  0  0  0  0  0  0  0  0  0  0
  124.8910  124.8830   60.7580 H   0  0  0  0  0  0  0  0  0  0  0  0
  125.6700  124.3500   62.1980 H   0  0  0  0  0  0  0  0  0  0  0  0
  129.9660  124.3510   61.5480 H   0  0  0  0  0  0  0  0  0  0  0  0
  132.0320  124.7196   62.3355 H   0  0  0  0  0  0  0  0  0  0  0  0
  133.4875  125.3507   64.2588 H   0  0  0  0  0  0  0  0  0  0  0  0
  132.5422  125.4148   66.5607 H   0  0  0  0  0  0  0  0  0  0  0  0
  130.1476  124.8594   66.9551 H   0  0  0  0  0  0  0  0  0  0  0  0
  128.6861  124.2211   65.0383 H   0  0  0  0  0  0  0  0  0  0  0  0
  1  2  1  0
  2  3  2  0
  3  4  1  0
  4  5  1  0
  4  6  2  0
  6  7  1  0
  7  8  1  0
  7  9  2  0
  9 10  1  0
 10 11  2  0
 10 12  1  0
 12 13  1  0
 13 14  2  0
 14 15  1  0
 15 16  2  0
 16 17  1  0
 17 18  2  0
  9 19  1  0
 19 20  1  0
 20 21  2  0
 21  2  1  0
 20  6  1  0
 18 13  1  0
  1 22  1  0
  1 23  1  0
  1 24  1  0
  3 25  1  0
  5 26  1  0
  5 27  1  0
  5 28  1  0
  8 29  1  0
  8 30  1  0
 12 31  1  0
 14 32  1  0
 15 33  1  0
 16 34  1  0
 17 35  1  0
 18 36  1  0
M  END
>  <Binding energies>  (1) 
[-7.31]

>  <Ligand effiencies>  (1) 
[-0.3045833333333333]

>  <Interactions>  (1) 
["V-B:TYR:539:CE2:9848, V-B:LEU:363:CA:8156, V-B:LEU:363:CD1:8160, V-B:MET:535:CE:9807, V-B:ASP:366:CB:8183, V-B:PRO:540:CB:9857, V-B:LEU:363:CB:8158, H-B:ALA:541:N:9863, V-B:ASP:366:CG:8184, V-B:TYR:539:CD2:9846, V-B:TYR:539:CE1:9847, H-B:TYR:539:N:9842, V-B:PRO:540:CA:9855, V-B:GLU:543:CG:9879, V-B:GLU:543:CD:9880, V-A:TYR:484:CE2:4346, H-B:GLU:543:OE1:9881, V-A:TYR:484:CZ:4347, V-B:PRO:540:N:9856, V-B:TYR:539:CD1:9845, V-B:TYR:539:C:9839, V-B:PRO:540:CD:9859, V-A:ARG:545:CZ:4926, H-B:ASP:366:OD1:8185, V-B:ILE:538:CA:9832, V-B:ILE:538:C:9830, V-B:ILE:538:CG2:9835, V-B:ILE:538:CB:9834, V-B:ILE:538:CG1:9836"]

$$$$
4ae_Grossjean_2025
     RDKit          3D

 38 40  0  0  0  0  0  0  0  0999 V2000
  129.7870  124.9360   67.1540 C   0  0  0  0  0  0  0  0  0  0  0  0
  130.4970  124.8630   65.8170 C   0  0  0  0  0  0  0  0  0  0  0  0
  131.8630  125.1330   65.6980 C   0  0  0  0  0  0  0  0  0  0  0  0
  132.4470  125.0540   64.4330 C   0  0  0  0  0  0  0  0  0  0  0  0
  131.6610  124.7130   63.3300 C   0  0  0  0  0  0  0  0  0  0  0  0
  130.3010  124.4470   63.5210 C   0  0  0  0  0  0  0  0  0  0  0  0
  129.5580  124.1300   62.3700 N   0  0  0  0  0  0  0  0  0  0  0  0
  128.3780  123.4680   62.2790 C   0  0  0  0  0  0  0  0  0  0  0  0
  127.7640  123.0230   63.2500 O   0  0  0  0  0  0  0  0  0  0  0  0
  127.8560  123.3000   60.9210 C   0  0  0  0  0  0  0  0  0  0  0  0
  128.8340  122.5090   59.6830 S   0  0  0  0  0  0  0  0  0  0  0  0
  127.5900  122.7490   58.4780 C   0  0  0  0  0  0  0  0  0  0  0  0
  127.7390  122.3390   57.2190 N   0  0  0  0  0  0  0  0  0  0  0  0
  126.7030  122.5910   56.3840 C   0  0  0  0  0  0  0  0  0  0  0  0
  126.8960  122.1220   54.9530 C   0  0  0  0  0  0  0  0  0  0  0  0
  125.5310  123.2370   56.7750 C   0  0  0  0  0  0  0  0  0  0  0  0
  125.3780  123.6660   58.0990 C   0  0  0  0  0  0  0  0  0  0  0  0
  124.0830  124.3690   58.4770 C   0  0  0  0  0  0  0  0  0  0  0  0
  126.4450  123.4200   59.0040 C   0  0  0  0  0  0  0  0  0  0  0  0
  126.6220  123.7210   60.4000 C   0  0  0  0  0  0  0  0  0  0  0  0
  125.6610  124.3630   61.1390 N   0  0  0  0  0  0  0  0  0  0  0  0
  129.7210  124.5290   64.7540 N   0  0  0  0  0  0  0  0  0  0  0  0
  130.5253  124.8601   67.9659 H   0  0  0  0  0  0  0  0  0  0  0  0
  129.2520  125.8939   67.2333 H   0  0  0  0  0  0  0  0  0  0  0  0
  129.0683  124.1070   67.2333 H   0  0  0  0  0  0  0  0  0  0  0  0
  132.4632  125.4012   66.5799 H   0  0  0  0  0  0  0  0  0  0  0  0
  133.5201  125.2591   64.3053 H   0  0  0  0  0  0  0  0  0  0  0  0
  132.1051  124.6544   62.3253 H   0  0  0  0  0  0  0  0  0  0  0  0
  129.9960  124.3910   61.4990 H   0  0  0  0  0  0  0  0  0  0  0  0
  127.3146  121.1048   54.9538 H   0  0  0  0  0  0  0  0  0  0  0  0
  125.9260  122.1189   54.4342 H   0  0  0  0  0  0  0  0  0  0  0  0
  127.5872  122.8025   54.4342 H   0  0  0  0  0  0  0  0  0  0  0  0
  124.7273  123.4095   56.0440 H   0  0  0  0  0  0  0  0  0  0  0  0
  123.9973  124.4155   59.5727 H   0  0  0  0  0  0  0  0  0  0  0  0
  124.0861  125.3893   58.0658 H   0  0  0  0  0  0  0  0  0  0  0  0
  123.2291  123.8106   58.0658 H   0  0  0  0  0  0  0  0  0  0  0  0
  124.9140  124.8860   60.7040 H   0  0  0  0  0  0  0  0  0  0  0  0
  125.6690  124.3330   62.1490 H   0  0  0  0  0  0  0  0  0  0  0  0
  1  2  1  0
  2  3  2  0
  3  4  1  0
  4  5  2  0
  5  6  1  0
  6  7  1  0
  7  8  1  0
  8  9  2  0
  8 10  1  0
 10 11  1  0
 11 12  1  0
 12 13  2  0
 13 14  1  0
 14 15  1  0
 14 16  2  0
 16 17  1  0
 17 18  1  0
 17 19  2  0
 19 20  1  0
 20 21  1  0
  6 22  2  0
 22  2  1  0
 20 10  2  0
 19 12  1  0
  1 23  1  0
  1 24  1  0
  1 25  1  0
  3 26  1  0
  4 27  1  0
  5 28  1  0
  7 29  1  0
 15 30  1  0
 15 31  1  0
 15 32  1  0
 16 33  1  0
 18 34  1  0
 18 35  1  0
 18 36  1  0
 21 37  1  0
 21 38  1  0
M  END
>  <Binding energies>  (1) 
[-7.52]

>  <Ligand effiencies>  (1) 
[-0.30079999999999996]

>  <Interactions>  (1) 
["V-A:HIS:456:CE1:4070, V-B:GLU:543:CB:9878, V-B:TYR:539:CE2:9848, V-B:LEU:363:CA:8156, V-B:LEU:363:CD1:8160, V-B:MET:535:CE:9807, V-B:ASP:366:CB:8183, V-B:PRO:540:CB:9857, V-B:LEU:363:CB:8158, H-B:ALA:541:N:9863, V-B:ASP:366:CG:8184, V-B:TYR:539:CD2:9846, V-B:TYR:539:CE1:9847, H-B:TYR:539:N:9842, V-B:PRO:540:CA:9855, V-B:GLU:543:CA:9876, V-B:GLU:543:CG:9879, V-B:GLU:543:CD:9880, V-A:TYR:484:CE2:4346, H-B:GLU:543:OE1:9881, V-A:TYR:484:CZ:4347, V-B:PRO:540:N:9856, V-B:TYR:539:CD1:9845, V-B:TYR:539:C:9839, V-B:PRO:540:CD:9859, V-A:ARG:545:CZ:4926, H-B:ASP:366:OD1:8185, V-B:ILE:538:CA:9832, V-B:ILE:538:C:9830, V-B:ILE:538:CG2:9835, V-B:ILE:538:CB:9834, V-B:ILE:538:CG1:9836"]

$$$$
4af_Grossjean_2025
     RDKit          3D

 35 37  0  0  0  0  0  0  0  0999 V2000
  126.9810  122.1150   54.9650 C   0  0  0  0  0  0  0  0  0  0  0  0
  126.7510  122.5850   56.3900 C   0  0  0  0  0  0  0  0  0  0  0  0
  125.5920  123.2750   56.7390 C   0  0  0  0  0  0  0  0  0  0  0  0
  125.4020  123.7010   58.0590 C   0  0  0  0  0  0  0  0  0  0  0  0
  124.1230  124.4520   58.3920 C   0  0  0  0  0  0  0  0  0  0  0  0
  126.4220  123.4060   59.0040 C   0  0  0  0  0  0  0  0  0  0  0  0
  126.5540  123.6890   60.4090 C   0  0  0  0  0  0  0  0  0  0  0  0
  125.5890  124.3650   61.1130 N   0  0  0  0  0  0  0  0  0  0  0  0
  127.7450  123.2120   60.9780 C   0  0  0  0  0  0  0  0  0  0  0  0
  128.2150  123.3480   62.3580 C   0  0  0  0  0  0  0  0  0  0  0  0
  127.5610  122.8810   63.2910 O   0  0  0  0  0  0  0  0  0  0  0  0
  129.3960  123.9950   62.5070 N   0  0  0  0  0  0  0  0  0  0  0  0
  130.0910  124.3300   63.6850 C   0  0  0  0  0  0  0  0  0  0  0  0
  129.7160  123.9560   64.9880 C   0  0  0  0  0  0  0  0  0  0  0  0
  130.4870  124.3720   66.0750 C   0  0  0  0  0  0  0  0  0  0  0  0
  131.6150  125.1570   65.8330 C   0  0  0  0  0  0  0  0  0  0  0  0
  131.9940  125.5370   64.5870 N   0  0  0  0  0  0  0  0  0  0  0  0
  131.2340  125.1260   63.5410 C   0  0  0  0  0  0  0  0  0  0  0  0
  128.7440  122.3940   59.7720 S   0  0  0  0  0  0  0  0  0  0  0  0
  127.5600  122.6930   58.5200 C   0  0  0  0  0  0  0  0  0  0  0  0
  127.7430  122.2850   57.2640 N   0  0  0  0  0  0  0  0  0  0  0  0
  127.4645  121.1270   54.9783 H   0  0  0  0  0  0  0  0  0  0  0  0
  126.0159  122.0439   54.4421 H   0  0  0  0  0  0  0  0  0  0  0  0
  127.6293  122.8335   54.4421 H   0  0  0  0  0  0  0  0  0  0  0  0
  124.8264  123.4850   55.9776 H   0  0  0  0  0  0  0  0  0  0  0  0
  124.0104  124.5181   59.4842 H   0  0  0  0  0  0  0  0  0  0  0  0
  124.1713  125.4652   57.9664 H   0  0  0  0  0  0  0  0  0  0  0  0
  123.2618  123.9162   57.9664 H   0  0  0  0  0  0  0  0  0  0  0  0
  125.5820  124.3870   62.1230 H   0  0  0  0  0  0  0  0  0  0  0  0
  124.8530  124.8710   60.6390 H   0  0  0  0  0  0  0  0  0  0  0  0
  129.8590  124.2780   61.6560 H   0  0  0  0  0  0  0  0  0  0  0  0
  128.8199  123.3389   65.1497 H   0  0  0  0  0  0  0  0  0  0  0  0
  130.2110  124.0869   67.1009 H   0  0  0  0  0  0  0  0  0  0  0  0
  132.2234  125.4819   66.6899 H   0  0  0  0  0  0  0  0  0  0  0  0
  131.5310  125.4339   62.5276 H   0  0  0  0  0  0  0  0  0  0  0  0
  1  2  1  0
  2  3  2  0
  3  4  1  0
  4  5  1  0
  4  6  2  0
  6  7  1  0
  7  8  1  0
  7  9  2  0
  9 10  1  0
 10 11  2  0
 10 12  1  0
 12 13  1  0
 13 14  2  0
 14 15  1  0
 15 16  2  0
 16 17  1  0
 17 18  2  0
  9 19  1  0
 19 20  1  0
 20 21  2  0
 21  2  1  0
 20  6  1  0
 18 13  1  0
  1 22  1  0
  1 23  1  0
  1 24  1  0
  3 25  1  0
  5 26  1  0
  5 27  1  0
  5 28  1  0
  8 29  1  0
  8 30  1  0
 12 31  1  0
 14 32  1  0
 15 33  1  0
 16 34  1  0
 18 35  1  0
M  END
>  <Binding energies>  (1) 
[-7.1]

>  <Ligand effiencies>  (1) 
[-0.29583333333333334]

>  <Interactions>  (1) 
["V-B:GLU:543:CB:9878, V-B:TYR:539:CE2:9848, V-B:LEU:363:CA:8156, V-B:LEU:363:CD1:8160, V-B:MET:535:CE:9807, V-B:ASP:366:CB:8183, V-B:PRO:540:CB:9857, H-B:ALA:541:N:9863, V-B:ASP:366:CG:8184, V-B:TYR:539:CD2:9846, V-B:TYR:539:CE1:9847, H-B:TYR:539:N:9842, V-B:PRO:540:CA:9855, V-B:GLU:543:CG:9879, V-B:GLU:543:CD:9880, V-A:TYR:484:CE2:4346, H-B:GLU:543:OE1:9881, V-A:TYR:484:CZ:4347, H-A:ARG:545:NH2:4928, V-B:PRO:540:N:9856, V-B:TYR:539:CD1:9845, V-B:TYR:539:C:9839, V-B:PRO:540:CD:9859, H-A:ARG:545:NE:4924, H-B:ASP:366:OD1:8185, V-B:ILE:538:CA:9832, V-B:ILE:538:C:9830, V-B:ILE:538:CG2:9835, V-B:ILE:538:CB:9834"]

$$$$
4ag_Grossjean_2025
     RDKit          3D

 39 41  0  0  0  0  0  0  0  0999 V2000
  127.3130  122.1270   54.8740 C   0  0  0  0  0  0  0  0  0  0  0  0
  126.9620  122.5630   56.2850 C   0  0  0  0  0  0  0  0  0  0  0  0
  125.8330  123.3400   56.5350 C   0  0  0  0  0  0  0  0  0  0  0  0
  125.5270  123.7300   57.8440 C   0  0  0  0  0  0  0  0  0  0  0  0
  124.2830  124.5770   58.0670 C   0  0  0  0  0  0  0  0  0  0  0  0
  126.4010  123.3090   58.8820 C   0  0  0  0  0  0  0  0  0  0  0  0
  126.3890  123.5230   60.3040 C   0  0  0  0  0  0  0  0  0  0  0  0
  125.4100  124.2540   60.9290 N   0  0  0  0  0  0  0  0  0  0  0  0
  127.4630  122.9230   60.9780 C   0  0  0  0  0  0  0  0  0  0  0  0
  127.7540  122.9290   62.4110 C   0  0  0  0  0  0  0  0  0  0  0  0
  126.8520  122.8730   63.2500 O   0  0  0  0  0  0  0  0  0  0  0  0
  129.0570  123.0180   62.7530 N   0  0  0  0  0  0  0  0  0  0  0  0
  129.5760  123.0150   64.1200 C   0  0  0  0  0  0  0  0  0  0  0  0
  130.9510  123.6590   64.2610 C   0  0  0  0  0  0  0  0  0  0  0  0
  132.0140  123.2100   63.4730 C   0  0  0  0  0  0  0  0  0  0  0  0
  133.2640  123.8130   63.5820 C   0  0  0  0  0  0  0  0  0  0  0  0
  133.4440  124.8720   64.4700 C   0  0  0  0  0  0  0  0  0  0  0  0
  132.3850  125.3350   65.2470 C   0  0  0  0  0  0  0  0  0  0  0  0
  131.1350  124.7320   65.1380 C   0  0  0  0  0  0  0  0  0  0  0  0
  128.5190  122.0600   59.8590 S   0  0  0  0  0  0  0  0  0  0  0  0
  127.5230  122.5160   58.4960 C   0  0  0  0  0  0  0  0  0  0  0  0
  127.8160  122.1420   57.2490 N   0  0  0  0  0  0  0  0  0  0  0  0
  128.0023  121.2708   54.9156 H   0  0  0  0  0  0  0  0  0  0  0  0
  126.3959  121.8339   54.3420 H   0  0  0  0  0  0  0  0  0  0  0  0
  127.7951  122.9604   54.3420 H   0  0  0  0  0  0  0  0  0  0  0  0
  125.1818  123.6471   55.7034 H   0  0  0  0  0  0  0  0  0  0  0  0
  124.1088  124.6956   59.1466 H   0  0  0  0  0  0  0  0  0  0  0  0
  124.4258  125.5663   57.6078 H   0  0  0  0  0  0  0  0  0  0  0  0
  123.4149  124.0815   57.6078 H   0  0  0  0  0  0  0  0  0  0  0  0
  124.6980  124.7460   60.4080 H   0  0  0  0  0  0  0  0  0  0  0  0
  125.3670  124.3200   61.9360 H   0  0  0  0  0  0  0  0  0  0  0  0
  129.7450  123.0030   62.0150 H   0  0  0  0  0  0  0  0  0  0  0  0
  128.8694  123.5639   64.7598 H   0  0  0  0  0  0  0  0  0  0  0  0
  129.6851  121.9616   64.4175 H   0  0  0  0  0  0  0  0  0  0  0  0
  131.8631  122.3803   62.7667 H   0  0  0  0  0  0  0  0  0  0  0  0
  134.1054  123.4554   62.9703 H   0  0  0  0  0  0  0  0  0  0  0  0
  134.4323  125.3468   64.5580 H   0  0  0  0  0  0  0  0  0  0  0  0
  132.5355  126.1731   65.9434 H   0  0  0  0  0  0  0  0  0  0  0  0
  130.2923  125.0997   65.7418 H   0  0  0  0  0  0  0  0  0  0  0  0
  1  2  1  0
  2  3  2  0
  3  4  1  0
  4  5  1  0
  4  6  2  0
  6  7  1  0
  7  8  1  0
  7  9  2  0
  9 10  1  0
 10 11  2  0
 10 12  1  0
 12 13  1  0
 13 14  1  0
 14 15  2  0
 15 16  1  0
 16 17  2  0
 17 18  1  0
 18 19  2  0
  9 20  1  0
 20 21  1  0
 21 22  2  0
 22  2  1  0
 21  6  1  0
 19 14  1  0
  1 23  1  0
  1 24  1  0
  1 25  1  0
  3 26  1  0
  5 27  1  0
  5 28  1  0
  5 29  1  0
  8 30  1  0
  8 31  1  0
 12 32  1  0
 13 33  1  0
 13 34  1  0
 15 35  1  0
 16 36  1  0
 17 37  1  0
 18 38  1  0
 19 39  1  0
M  END
>  <Binding energies>  (1) 
[-7.72]

>  <Ligand effiencies>  (1) 
[-0.30879999999999996]

>  <Interactions>  (1) 
["V-B:TYR:539:CE2:9848, V-B:LEU:363:CA:8156, V-B:LEU:363:CD1:8160, V-A:LEU:475:CD2:4259, V-B:MET:535:CE:9807, V-B:ASP:366:CB:8183, V-B:PRO:540:CB:9857, H-B:ALA:541:N:9863, V-B:ASP:366:CG:8184, V-B:TYR:539:CD2:9846, V-B:TYR:539:CG:9844, V-B:TYR:539:CE1:9847, H-B:TYR:539:N:9842, V-B:PRO:540:C:9853, V-B:TYR:531:CE2:9765, V-B:PRO:540:CA:9855, V-B:GLU:543:CG:9879, V-B:GLU:543:CD:9880, V-B:ALA:541:CB:9864, H-B:GLU:543:OE1:9881, V-B:ALA:541:CA:9862, V-B:PRO:540:N:9856, V-B:TYR:539:CD1:9845, V-B:TYR:539:C:9839, V-A:ARG:545:CZ:4926, H-B:ASP:366:OD1:8185, V-A:GLY:454:CA:4049, V-B:ILE:538:CA:9832, V-B:ILE:538:C:9830, V-B:ILE:538:CB:9834"]

$$$$
4ah_Grossjean_2025
     RDKit          3D

 51 53  0  0  0  0  0  0  0  0999 V2000
  126.6630  130.6890   61.7140 C   0  0  0  0  0  0  0  0  0  0  0  0
  127.9880  130.4390   62.1690 O   0  0  0  0  0  0  0  0  0  0  0  0
  128.1960  129.5180   63.1800 C   0  0  0  0  0  0  0  0  0  0  0  0
  128.5220  128.1710   62.9590 C   0  0  0  0  0  0  0  0  0  0  0  0
  128.7170  127.2970   64.0300 C   0  0  0  0  0  0  0  0  0  0  0  0
  129.1160  125.8490   63.7700 C   0  0  0  0  0  0  0  0  0  0  0  0
  128.6240  125.3250   62.4960 N   0  0  0  0  0  0  0  0  0  0  0  0
  128.3040  124.0370   62.2520 C   0  0  0  0  0  0  0  0  0  0  0  0
  128.4380  123.1480   63.0940 O   0  0  0  0  0  0  0  0  0  0  0  0
  127.8250  123.7410   60.9020 C   0  0  0  0  0  0  0  0  0  0  0  0
  128.9010  122.9840   59.7260 S   0  0  0  0  0  0  0  0  0  0  0  0
  127.6600  123.0320   58.4940 C   0  0  0  0  0  0  0  0  0  0  0  0
  127.8670  122.5600   57.2640 N   0  0  0  0  0  0  0  0  0  0  0  0
  126.8240  122.6550   56.4060 C   0  0  0  0  0  0  0  0  0  0  0  0
  127.0820  122.1150   55.0110 C   0  0  0  0  0  0  0  0  0  0  0  0
  125.5890  123.2040   56.7450 C   0  0  0  0  0  0  0  0  0  0  0  0
  125.3740  123.7000   58.0360 C   0  0  0  0  0  0  0  0  0  0  0  0
  124.0100  124.2900   58.3590 C   0  0  0  0  0  0  0  0  0  0  0  0
  126.4470  123.6200   58.9650 C   0  0  0  0  0  0  0  0  0  0  0  0
  126.5730  124.0270   60.3380 C   0  0  0  0  0  0  0  0  0  0  0  0
  125.5490  124.6290   61.0230 N   0  0  0  0  0  0  0  0  0  0  0  0
  128.6130  127.7760   65.3360 C   0  0  0  0  0  0  0  0  0  0  0  0
  128.2830  129.1170   65.5880 C   0  0  0  0  0  0  0  0  0  0  0  0
  128.1490  129.6550   66.8550 O   0  0  0  0  0  0  0  0  0  0  0  0
  128.5580  128.8890   67.9840 C   0  0  0  0  0  0  0  0  0  0  0  0
  128.0710  129.9760   64.5000 C   0  0  0  0  0  0  0  0  0  0  0  0
  127.7650  131.2960   64.7320 O   0  0  0  0  0  0  0  0  0  0  0  0
  128.8220  132.1960   64.4300 C   0  0  0  0  0  0  0  0  0  0  0  0
  125.9958  130.8149   62.5794 H   0  0  0  0  0  0  0  0  0  0  0  0
  126.6510  131.6052   61.1054 H   0  0  0  0  0  0  0  0  0  0  0  0
  126.3180  129.8401   61.1054 H   0  0  0  0  0  0  0  0  0  0  0  0
  128.6252  127.7992   61.9289 H   0  0  0  0  0  0  0  0  0  0  0  0
  130.2142  125.7855   63.7712 H   0  0  0  0  0  0  0  0  0  0  0  0
  128.6605  125.2414   64.5658 H   0  0  0  0  0  0  0  0  0  0  0  0
  128.4120  126.0110   61.7870 H   0  0  0  0  0  0  0  0  0  0  0  0
  127.5552  121.1246   55.0829 H   0  0  0  0  0  0  0  0  0  0  0  0
  126.1285  122.0274   54.4696 H   0  0  0  0  0  0  0  0  0  0  0  0
  127.7493  122.8017   54.4696 H   0  0  0  0  0  0  0  0  0  0  0  0
  124.7829  123.2476   55.9978 H   0  0  0  0  0  0  0  0  0  0  0  0
  123.8833  124.3448   59.4503 H   0  0  0  0  0  0  0  0  0  0  0  0
  123.9366  125.3003   57.9302 H   0  0  0  0  0  0  0  0  0  0  0  0
  123.2235  123.6516   57.9302 H   0  0  0  0  0  0  0  0  0  0  0  0
  124.7670  125.0540   60.5470 H   0  0  0  0  0  0  0  0  0  0  0  0
  125.5470  124.6720   62.0330 H   0  0  0  0  0  0  0  0  0  0  0  0
  128.7920  127.0936   66.1800 H   0  0  0  0  0  0  0  0  0  0  0  0
  128.2761  129.4170   68.9069 H   0  0  0  0  0  0  0  0  0  0  0  0
  128.0646  127.9062   67.9585 H   0  0  0  0  0  0  0  0  0  0  0  0
  129.6492  128.7523   67.9585 H   0  0  0  0  0  0  0  0  0  0  0  0
  129.2626  132.5712   65.3654 H   0  0  0  0  0  0  0  0  0  0  0  0
  129.5931  131.6730   63.8454 H   0  0  0  0  0  0  0  0  0  0  0  0
  128.4286  133.0407   63.8454 H   0  0  0  0  0  0  0  0  0  0  0  0
  1  2  1  0
  2  3  1  0
  3  4  2  0
  4  5  1  0
  5  6  1  0
  6  7  1  0
  7  8  1  0
  8  9  2  0
  8 10  1  0
 10 11  1  0
 11 12  1  0
 12 13  2  0
 13 14  1  0
 14 15  1  0
 14 16  2  0
 16 17  1  0
 17 18  1  0
 17 19  2  0
 19 20  1  0
 20 21  1  0
  5 22  2  0
 22 23  1  0
 23 24  1  0
 24 25  1  0
 23 26  2  0
 26 27  1  0
 27 28  1  0
 26  3  1  0
 20 10  2  0
 19 12  1  0
  1 29  1  0
  1 30  1  0
  1 31  1  0
  4 32  1  0
  6 33  1  0
  6 34  1  0
  7 35  1  0
 15 36  1  0
 15 37  1  0
 15 38  1  0
 16 39  1  0
 18 40  1  0
 18 41  1  0
 18 42  1  0
 21 43  1  0
 21 44  1  0
 22 45  1  0
 25 46  1  0
 25 47  1  0
 25 48  1  0
 28 49  1  0
 28 50  1  0
 28 51  1  0
M  END
>  <Binding energies>  (1) 
[-6.61]

>  <Ligand effiencies>  (1) 
[-0.2132258064516129]

>  <Interactions>  (1) 
["V-A:GLU:543:CD:4908, V-A:GLU:543:CB:4906, V-B:HIS:456:CE1:9041, V-B:TYR:539:CE2:9848, V-B:LEU:363:CA:8156, V-B:LEU:363:CD1:8160, V-B:MET:535:CE:9807, V-B:ASP:366:CB:8183, V-B:PRO:540:CB:9857, V-B:LEU:363:CB:8158, V-B:ASP:366:CG:8184, V-B:TYR:539:CD2:9846, V-B:TYR:539:CG:9844, V-B:TYR:539:CE1:9847, V-B:PRO:540:CA:9855, V-B:TYR:484:CE2:9317, V-B:GLU:543:CG:9879, V-B:GLU:543:CD:9880, V-A:GLU:543:CG:4907, H-B:GLU:543:OE1:9881, V-A:ALA:541:CB:4892, V-B:PRO:540:N:9856, V-B:TYR:539:CD1:9845, V-B:TYR:539:C:9839, H-B:TYR:484:OH:9319, H-B:ASP:366:OD1:8185, V-B:ILE:538:CA:9832, V-B:ILE:538:C:9830, V-B:ILE:538:CG2:9835, V-B:ILE:538:CB:9834"]

$$$$
4ai_Grossjean_2025
     RDKit          3D

 32 34  0  0  0  0  0  0  0  0999 V2000
  127.1220  122.1300   54.9090 C   0  0  0  0  0  0  0  0  0  0  0  0
  126.8020  122.6180   56.3110 C   0  0  0  0  0  0  0  0  0  0  0  0
  125.6360  123.3340   56.5710 C   0  0  0  0  0  0  0  0  0  0  0  0
  125.3570  123.7690   57.8720 C   0  0  0  0  0  0  0  0  0  0  0  0
  124.0710  124.5450   58.1070 C   0  0  0  0  0  0  0  0  0  0  0  0
  126.2960  123.4530   58.8920 C   0  0  0  0  0  0  0  0  0  0  0  0
  126.3270  123.7350   60.3020 C   0  0  0  0  0  0  0  0  0  0  0  0
  125.3310  124.4410   60.9290 N   0  0  0  0  0  0  0  0  0  0  0  0
  127.4540  123.2210   60.9620 C   0  0  0  0  0  0  0  0  0  0  0  0
  127.8070  123.3290   62.3790 C   0  0  0  0  0  0  0  0  0  0  0  0
  127.0710  122.8610   63.2490 O   0  0  0  0  0  0  0  0  0  0  0  0
  128.9850  123.9520   62.6380 N   0  0  0  0  0  0  0  0  0  0  0  0
  129.5630  124.1810   63.8790 C   0  0  0  0  0  0  0  0  0  0  0  0
  129.8430  125.4590   64.3660 C   0  0  0  0  0  0  0  0  0  0  0  0
  130.4060  125.2550   65.6050 C   0  0  0  0  0  0  0  0  0  0  0  0
  130.4610  123.9250   65.8530 O   0  0  0  0  0  0  0  0  0  0  0  0
  129.9230  123.2550   64.7530 N   0  0  0  0  0  0  0  0  0  0  0  0
  128.5270  122.3880   59.8360 S   0  0  0  0  0  0  0  0  0  0  0  0
  127.4510  122.7150   58.4950 C   0  0  0  0  0  0  0  0  0  0  0  0
  127.7200  122.3000   57.2560 N   0  0  0  0  0  0  0  0  0  0  0  0
  127.7243  121.2115   54.9690 H   0  0  0  0  0  0  0  0  0  0  0  0
  126.1857  121.9200   54.3712 H   0  0  0  0  0  0  0  0  0  0  0  0
  127.6878  122.9050   54.3712 H   0  0  0  0  0  0  0  0  0  0  0  0
  124.9343  123.5577   55.7540 H   0  0  0  0  0  0  0  0  0  0  0  0
  123.8981  124.6493   59.1883 H   0  0  0  0  0  0  0  0  0  0  0  0
  124.1562  125.5426   57.6514 H   0  0  0  0  0  0  0  0  0  0  0  0
  123.2282  124.0046   57.6514 H   0  0  0  0  0  0  0  0  0  0  0  0
  125.2640  124.4880   61.9350 H   0  0  0  0  0  0  0  0  0  0  0  0
  124.6250  124.9350   60.4010 H   0  0  0  0  0  0  0  0  0  0  0  0
  129.5130  124.2840   61.8450 H   0  0  0  0  0  0  0  0  0  0  0  0
  129.6544  126.4211   63.8672 H   0  0  0  0  0  0  0  0  0  0  0  0
  130.7554  126.0458   66.2851 H   0  0  0  0  0  0  0  0  0  0  0  0
  1  2  1  0
  2  3  2  0
  3  4  1  0
  4  5  1  0
  4  6  2  0
  6  7  1  0
  7  8  1  0
  7  9  2  0
  9 10  1  0
 10 11  2  0
 10 12  1  0
 12 13  1  0
 13 14  1  0
 14 15  2  0
 15 16  1  0
 16 17  1  0
  9 18  1  0
 18 19  1  0
 19 20  2  0
 20  2  1  0
 19  6  1  0
 17 13  2  0
  1 21  1  0
  1 22  1  0
  1 23  1  0
  3 24  1  0
  5 25  1  0
  5 26  1  0
  5 27  1  0
  8 28  1  0
  8 29  1  0
 12 30  1  0
 14 31  1  0
 15 32  1  0
M  END
>  <Binding energies>  (1) 
[-7.1]

>  <Ligand effiencies>  (1) 
[-0.30869565217391304]

>  <Interactions>  (1) 
["V-B:TYR:539:CE2:9848, V-B:LEU:363:CA:8156, V-B:LEU:363:CD1:8160, V-B:MET:535:CE:9807, V-B:ASP:366:CB:8183, V-B:PRO:540:CB:9857, H-B:ALA:541:N:9863, V-B:ASP:366:CG:8184, V-B:TYR:539:CD2:9846, V-B:TYR:539:CG:9844, V-B:TYR:539:CE1:9847, H-B:TYR:539:N:9842, V-B:TYR:531:CE2:9765, V-B:PRO:540:CA:9855, V-B:GLU:543:CG:9879, V-B:GLU:543:CD:9880, H-B:GLU:543:OE1:9881, V-B:PRO:540:N:9856, V-B:TYR:539:CD1:9845, V-B:TYR:539:C:9839, H-A:TYR:484:OH:4348, H-B:ASP:366:OD1:8185, V-B:ILE:538:CA:9832, V-B:ILE:538:C:9830, V-B:ILE:538:CG2:9835, V-B:ILE:538:CB:9834"]

$$$$
4aj_Grossjean_2025
     RDKit          3D

 32 34  0  0  0  0  0  0  0  0999 V2000
  127.0760  122.1210   54.9650 C   0  0  0  0  0  0  0  0  0  0  0  0
  126.7670  122.6030   56.3700 C   0  0  0  0  0  0  0  0  0  0  0  0
  125.5950  123.3040   56.6460 C   0  0  0  0  0  0  0  0  0  0  0  0
  125.3320  123.7440   57.9480 C   0  0  0  0  0  0  0  0  0  0  0  0
  124.0390  124.5060   58.1980 C   0  0  0  0  0  0  0  0  0  0  0  0
  126.2910  123.4500   58.9540 C   0  0  0  0  0  0  0  0  0  0  0  0
  126.3410  123.7450   60.3610 C   0  0  0  0  0  0  0  0  0  0  0  0
  125.3460  124.4400   61.0000 N   0  0  0  0  0  0  0  0  0  0  0  0
  127.4880  123.2550   61.0050 C   0  0  0  0  0  0  0  0  0  0  0  0
  127.8660  123.3810   62.4140 C   0  0  0  0  0  0  0  0  0  0  0  0
  127.3070  122.7030   63.2790 O   0  0  0  0  0  0  0  0  0  0  0  0
  128.8580  124.2670   62.6740 N   0  0  0  0  0  0  0  0  0  0  0  0
  129.4070  124.5650   63.9140 C   0  0  0  0  0  0  0  0  0  0  0  0
  129.6900  125.7510   64.4080 N   0  0  0  0  0  0  0  0  0  0  0  0
  130.1990  125.6620   65.6210 C   0  0  0  0  0  0  0  0  0  0  0  0
  130.3390  124.3760   66.1370 C   0  0  0  0  0  0  0  0  0  0  0  0
  129.7690  123.2310   64.9600 S   0  0  0  0  0  0  0  0  0  0  0  0
  128.5500  122.4220   59.8680 S   0  0  0  0  0  0  0  0  0  0  0  0
  127.4490  122.7230   58.5430 C   0  0  0  0  0  0  0  0  0  0  0  0
  127.7030  122.3030   57.3040 N   0  0  0  0  0  0  0  0  0  0  0  0
  127.6690  121.1960   55.0168 H   0  0  0  0  0  0  0  0  0  0  0  0
  126.1354  121.9240   54.4298 H   0  0  0  0  0  0  0  0  0  0  0  0
  127.6476  122.8935   54.4298 H   0  0  0  0  0  0  0  0  0  0  0  0
  124.8760  123.5117   55.8399 H   0  0  0  0  0  0  0  0  0  0  0  0
  123.8742  124.6031   59.2812 H   0  0  0  0  0  0  0  0  0  0  0  0
  124.1100  125.5067   57.7467 H   0  0  0  0  0  0  0  0  0  0  0  0
  123.1980  123.9591   57.7467 H   0  0  0  0  0  0  0  0  0  0  0  0
  124.6240  124.9280   60.4900 H   0  0  0  0  0  0  0  0  0  0  0  0
  125.3030  124.4880   62.0080 H   0  0  0  0  0  0  0  0  0  0  0  0
  129.2510  124.7660   61.8890 H   0  0  0  0  0  0  0  0  0  0  0  0
  130.4963  126.5532   66.1932 H   0  0  0  0  0  0  0  0  0  0  0  0
  130.7445  124.1256   67.1284 H   0  0  0  0  0  0  0  0  0  0  0  0
  1  2  1  0
  2  3  2  0
  3  4  1  0
  4  5  1  0
  4  6  2  0
  6  7  1  0
  7  8  1  0
  7  9  2  0
  9 10  1  0
 10 11  2  0
 10 12  1  0
 12 13  1  0
 13 14  2  0
 14 15  1  0
 15 16  2  0
 16 17  1  0
  9 18  1  0
 18 19  1  0
 19 20  2  0
 20  2  1  0
 19  6  1  0
 17 13  1  0
  1 21  1  0
  1 22  1  0
  1 23  1  0
  3 24  1  0
  5 25  1  0
  5 26  1  0
  5 27  1  0
  8 28  1  0
  8 29  1  0
 12 30  1  0
 15 31  1  0
 16 32  1  0
M  END
>  <Binding energies>  (1) 
[-7.15]

>  <Ligand effiencies>  (1) 
[-0.31086956521739134]

>  <Interactions>  (1) 
["V-A:GLU:543:CD:4908, V-B:TYR:539:CE2:9848, V-B:LEU:363:CA:8156, V-B:LEU:363:CD1:8160, V-B:MET:535:CE:9807, V-B:ASP:366:CB:8183, V-B:PRO:540:CB:9857, V-B:LEU:363:CB:8158, H-B:ALA:541:N:9863, V-B:ASP:366:CG:8184, V-B:TYR:539:CD2:9846, V-B:TYR:539:CG:9844, V-B:TYR:539:CE1:9847, H-B:TYR:539:N:9842, V-B:TYR:531:CE2:9765, V-B:PRO:540:CA:9855, V-B:GLU:543:CG:9879, V-B:GLU:543:CD:9880, V-A:TYR:484:CE2:4346, H-B:GLU:543:OE1:9881, V-A:TYR:484:CZ:4347, V-B:PRO:540:N:9856, V-B:TYR:539:CD1:9845, V-B:TYR:539:C:9839, H-B:ASP:366:OD1:8185, V-B:ILE:538:CA:9832, V-B:ILE:538:C:9830, V-B:ILE:538:CG2:9835, V-B:ILE:538:CB:9834"]

$$$$
4ak_Grossjean_2025
     RDKit          3D

 50 51  0  0  0  0  0  0  0  0999 V2000
  126.5210  130.7480   58.3240 C   0  0  0  0  0  0  0  0  0  0  0  0
  127.8210  131.3020   58.4530 O   0  0  0  0  0  0  0  0  0  0  0  0
  128.0970  132.3260   57.5060 C   0  0  0  0  0  0  0  0  0  0  0  0
  129.0410  133.3600   58.1310 C   0  0  0  0  0  0  0  0  0  0  0  0
  130.1740  133.5340   57.2900 O   0  0  0  0  0  0  0  0  0  0  0  0
  130.2380  132.6050   56.2160 C   0  0  0  0  0  0  0  0  0  0  0  0
  131.5280  131.7830   56.3320 C   0  0  0  0  0  0  0  0  0  0  0  0
  131.5370  131.0980   57.5770 O   0  0  0  0  0  0  0  0  0  0  0  0
  132.1800  131.8140   58.6230 C   0  0  0  0  0  0  0  0  0  0  0  0
  131.7440  131.2330   59.9800 C   0  0  0  0  0  0  0  0  0  0  0  0
  130.3270  131.4390   60.2790 N   0  0  0  0  0  0  0  0  0  0  0  0
  129.8380  131.9630   61.4210 C   0  0  0  0  0  0  0  0  0  0  0  0
  130.5680  132.3480   62.3370 O   0  0  0  0  0  0  0  0  0  0  0  0
  128.3830  132.0610   61.5130 C   0  0  0  0  0  0  0  0  0  0  0  0
  127.4060  130.6110   61.7450 S   0  0  0  0  0  0  0  0  0  0  0  0
  125.9310  131.5510   61.7570 C   0  0  0  0  0  0  0  0  0  0  0  0
  124.7340  130.9830   61.9050 N   0  0  0  0  0  0  0  0  0  0  0  0
  123.6710  131.8240   61.8940 C   0  0  0  0  0  0  0  0  0  0  0  0
  122.3170  131.1580   62.0650 C   0  0  0  0  0  0  0  0  0  0  0  0
  123.7760  133.2050   61.7420 C   0  0  0  0  0  0  0  0  0  0  0  0
  125.0350  133.7980   61.5880 C   0  0  0  0  0  0  0  0  0  0  0  0
  125.0990  135.3090   61.4210 C   0  0  0  0  0  0  0  0  0  0  0  0
  126.1730  132.9480   61.5920 C   0  0  0  0  0  0  0  0  0  0  0  0
  127.5810  133.2120   61.4610 C   0  0  0  0  0  0  0  0  0  0  0  0
  128.0770  134.4810   61.2980 N   0  0  0  0  0  0  0  0  0  0  0  0
  126.0984  130.5679   59.3235 H   0  0  0  0  0  0  0  0  0  0  0  0
  125.8763  131.4496   57.7743 H   0  0  0  0  0  0  0  0  0  0  0  0
  126.5806  129.7971   57.7743 H   0  0  0  0  0  0  0  0  0  0  0  0
  128.5727  131.8851   56.6176 H   0  0  0  0  0  0  0  0  0  0  0  0
  127.1574  132.8174   57.2133 H   0  0  0  0  0  0  0  0  0  0  0  0
  128.5141  134.3194   58.2400 H   0  0  0  0  0  0  0  0  0  0  0  0
  129.3684  133.0080   59.1204 H   0  0  0  0  0  0  0  0  0  0  0  0
  129.3687  131.9324   56.2598 H   0  0  0  0  0  0  0  0  0  0  0  0
  130.2318  133.1475   55.2591 H   0  0  0  0  0  0  0  0  0  0  0  0
  131.5739  131.0530   55.5104 H   0  0  0  0  0  0  0  0  0  0  0  0
  132.3987  132.4527   56.2731 H   0  0  0  0  0  0  0  0  0  0  0  0
  133.2707  131.7197   58.5163 H   0  0  0  0  0  0  0  0  0  0  0  0
  131.8989  132.8761   58.5695 H   0  0  0  0  0  0  0  0  0  0  0  0
  131.9444  130.1514   59.9754 H   0  0  0  0  0  0  0  0  0  0  0  0
  132.3168  131.7623   60.7557 H   0  0  0  0  0  0  0  0  0  0  0  0
  129.6740  131.1490   59.5640 H   0  0  0  0  0  0  0  0  0  0  0  0
  122.0949  131.0487   63.1368 H   0  0  0  0  0  0  0  0  0  0  0  0
  121.5413  131.7773   61.5910 H   0  0  0  0  0  0  0  0  0  0  0  0
  122.3341  130.1655   61.5910 H   0  0  0  0  0  0  0  0  0  0  0  0
  122.8702  133.8291   61.7430 H   0  0  0  0  0  0  0  0  0  0  0  0
  125.1192  135.7868   62.4116 H   0  0  0  0  0  0  0  0  0  0  0  0
  126.0094  135.5783   60.8653 H   0  0  0  0  0  0  0  0  0  0  0  0
  124.2147  135.6543   60.8653 H   0  0  0  0  0  0  0  0  0  0  0  0
  129.0510  134.6970   61.4590 H   0  0  0  0  0  0  0  0  0  0  0  0
  127.4830  135.2430   61.0050 H   0  0  0  0  0  0  0  0  0  0  0  0
  1  2  1  0
  2  3  1  0
  3  4  1  0
  4  5  1  0
  5  6  1  0
  6  7  1  0
  7  8  1  0
  8  9  1  0
  9 10  1  0
 10 11  1  0
 11 12  1  0
 12 13  2  0
 12 14  1  0
 14 15  1  0
 15 16  1  0
 16 17  2  0
 17 18  1  0
 18 19  1  0
 18 20  2  0
 20 21  1  0
 21 22  1  0
 21 23  2  0
 23 24  1  0
 24 25  1  0
 24 14  2  0
 23 16  1  0
  1 26  1  0
  1 27  1  0
  1 28  1  0
  3 29  1  0
  3 30  1  0
  4 31  1  0
  4 32  1  0
  6 33  1  0
  6 34  1  0
  7 35  1  0
  7 36  1  0
  9 37  1  0
  9 38  1  0
 10 39  1  0
 10 40  1  0
 11 41  1  0
 19 42  1  0
 19 43  1  0
 19 44  1  0
 20 45  1  0
 22 46  1  0
 22 47  1  0
 22 48  1  0
 25 49  1  0
 25 50  1  0
M  END
>  <Binding energies>  (1) 
[-5.21]

>  <Ligand effiencies>  (1) 
[-0.18607142857142858]

>  <Interactions>  (1) 
["V-A:TYR:539:CD1:4873, V-A:LEU:363:CD1:3189, V-A:ILE:538:CG2:4863, V-A:ILE:538:CB:4862, V-B:LEU:475:CD2:9230, V-A:PRO:540:CA:4883, V-B:ILE:369:CG2:8208, V-A:PRO:540:CB:4885, V-B:ILE:369:CG1:8209, V-A:TYR:539:CE1:4875, H-A:TYR:531:OH:4795, V-A:TYR:539:C:4867, H-A:TYR:539:N:4870, V-B:ILE:369:CB:8207, V-A:PRO:540:N:4884, V-A:MET:535:CE:4835, V-A:PRO:540:C:4881, H-A:ALA:541:N:4891, H-A:TYR:539:O:4868, V-A:ILE:538:CA:4860, V-A:TYR:539:CZ:4877, V-A:TYR:539:CG:4872, V-B:GLY:453:C:9013, V-A:TYR:539:CA:4869, V-B:GLY:453:CA:9015"]

$$$$
4al_Grossjean_2025
     RDKit          3D

 28 29  0  0  0  0  0  0  0  0999 V2000
  132.9140  131.2180   62.8510 C   0  0  0  0  0  0  0  0  0  0  0  0
  131.9540  132.2180   62.5410 O   0  0  0  0  0  0  0  0  0  0  0  0
  130.7000  131.8800   62.1430 C   0  0  0  0  0  0  0  0  0  0  0  0
  129.8170  131.4840   62.9080 O   0  0  0  0  0  0  0  0  0  0  0  0
  130.4950  132.0370   60.6870 C   0  0  0  0  0  0  0  0  0  0  0  0
  129.1210  132.9660   60.0840 S   0  0  0  0  0  0  0  0  0  0  0  0
  129.5950  132.6700   58.4270 C   0  0  0  0  0  0  0  0  0  0  0  0
  128.8970  133.1510   57.3980 N   0  0  0  0  0  0  0  0  0  0  0  0
  129.3710  132.8500   56.1630 C   0  0  0  0  0  0  0  0  0  0  0  0
  128.5630  133.4070   55.0070 C   0  0  0  0  0  0  0  0  0  0  0  0
  130.5150  132.0870   55.9380 C   0  0  0  0  0  0  0  0  0  0  0  0
  131.2450  131.5830   57.0200 C   0  0  0  0  0  0  0  0  0  0  0  0
  132.4860  130.7560   56.7250 C   0  0  0  0  0  0  0  0  0  0  0  0
  130.7780  131.8790   58.3290 C   0  0  0  0  0  0  0  0  0  0  0  0
  131.2690  131.5320   59.6340 C   0  0  0  0  0  0  0  0  0  0  0  0
  132.3960  130.7750   59.8220 N   0  0  0  0  0  0  0  0  0  0  0  0
  133.0051  131.1231   63.9431 H   0  0  0  0  0  0  0  0  0  0  0  0
  132.5923  130.2562   62.4250 H   0  0  0  0  0  0  0  0  0  0  0  0
  133.8881  131.5002   62.4250 H   0  0  0  0  0  0  0  0  0  0  0  0
  127.7167  133.9904   55.3987 H   0  0  0  0  0  0  0  0  0  0  0  0
  129.2028  134.0568   54.3919 H   0  0  0  0  0  0  0  0  0  0  0  0
  128.1833  132.5779   54.3919 H   0  0  0  0  0  0  0  0  0  0  0  0
  130.8444  131.8807   54.9090 H   0  0  0  0  0  0  0  0  0  0  0  0
  132.9528  130.4449   57.6712 H   0  0  0  0  0  0  0  0  0  0  0  0
  132.2035  129.8649   56.1452 H   0  0  0  0  0  0  0  0  0  0  0  0
  133.1997  131.3597   56.1452 H   0  0  0  0  0  0  0  0  0  0  0  0
  132.9410  130.8280   60.6710 H   0  0  0  0  0  0  0  0  0  0  0  0
  132.7220  130.1320   59.1120 H   0  0  0  0  0  0  0  0  0  0  0  0
  1  2  1  0
  2  3  1  0
  3  4  2  0
  3  5  1  0
  5  6  1  0
  6  7  1  0
  7  8  2  0
  8  9  1  0
  9 10  1  0
  9 11  2  0
 11 12  1  0
 12 13  1  0
 12 14  2  0
 14 15  1  0
 15 16  1  0
 15  5  2  0
 14  7  1  0
  1 17  1  0
  1 18  1  0
  1 19  1  0
 10 20  1  0
 10 21  1  0
 10 22  1  0
 11 23  1  0
 13 24  1  0
 13 25  1  0
 13 26  1  0
 16 27  1  0
 16 28  1  0
M  END
>  <Binding energies>  (1) 
[-5.97]

>  <Ligand effiencies>  (1) 
[-0.33166666666666667]

>  <Interactions>  (1) 
["V-A:GLU:543:CD:4908, V-A:GLU:543:CG:4907, V-A:LEU:363:CD1:3189, V-A:TYR:531:CE2:4793, V-A:ILE:538:CG2:4863, V-A:ILE:538:CB:4862, V-A:TYR:531:CZ:4794, V-A:PRO:540:CA:4883, V-A:PRO:540:CB:4885, H-A:ASP:366:OD2:3215, V-A:TYR:539:C:4867, H-A:TYR:539:N:4870, V-A:PRO:540:N:4884, V-A:MET:535:CE:4835, V-A:ASP:366:CG:3213, H-A:ALA:541:N:4891, V-A:ILE:538:CA:4860, V-A:TYR:539:CZ:4877, V-A:TYR:539:CG:4872, V-A:TYR:539:CE2:4876, V-A:ILE:538:C:4858, V-A:ASN:362:CB:3176, V-A:TYR:539:CD2:4874, V-A:VAL:537:C:4850"]

$$$$
4ba_Grossjean_2025
     RDKit          3D

 44 46  0  0  0  0  0  0  0  0999 V2000
  127.6740  126.9750   70.8700 C   0  0  0  0  0  0  0  0  0  0  0  0
  129.1940  126.9430   71.1160 C   0  0  0  0  0  0  0  0  0  0  0  0
  130.0490  127.5940   70.0100 C   0  0  0  0  0  0  0  0  0  0  0  0
  131.2440  127.8200   70.2190 O   0  0  0  0  0  0  0  0  0  0  0  0
  129.3760  127.9230   68.7090 C   0  0  0  0  0  0  0  0  0  0  0  0
  128.8000  129.1870   68.5320 C   0  0  0  0  0  0  0  0  0  0  0  0
  128.1680  129.5180   67.3370 C   0  0  0  0  0  0  0  0  0  0  0  0
  128.1010  128.5940   66.2930 C   0  0  0  0  0  0  0  0  0  0  0  0
  127.4320  129.0300   65.1330 N   0  0  0  0  0  0  0  0  0  0  0  0
  127.5390  130.1960   64.4510 C   0  0  0  0  0  0  0  0  0  0  0  0
  128.2610  131.1340   64.7920 O   0  0  0  0  0  0  0  0  0  0  0  0
  126.7020  130.2990   63.2530 C   0  0  0  0  0  0  0  0  0  0  0  0
  127.4360  130.2510   61.6520 S   0  0  0  0  0  0  0  0  0  0  0  0
  125.8820  130.4710   60.8830 C   0  0  0  0  0  0  0  0  0  0  0  0
  125.7660  130.5270   59.5560 N   0  0  0  0  0  0  0  0  0  0  0  0
  124.5130  130.7000   59.0770 C   0  0  0  0  0  0  0  0  0  0  0  0
  124.4050  130.7700   57.5640 C   0  0  0  0  0  0  0  0  0  0  0  0
  123.3840  130.8140   59.8830 C   0  0  0  0  0  0  0  0  0  0  0  0
  123.5000  130.7560   61.2820 C   0  0  0  0  0  0  0  0  0  0  0  0
  122.2290  130.8840   62.1280 C   0  0  0  0  0  0  0  0  0  0  0  0
  122.0740  132.0990   62.6580 F   0  0  0  0  0  0  0  0  0  0  0  0
  121.1570  130.6370   61.3740 F   0  0  0  0  0  0  0  0  0  0  0  0
  122.2690  130.0110   63.1350 F   0  0  0  0  0  0  0  0  0  0  0  0
  124.8100  130.5790   61.8200 C   0  0  0  0  0  0  0  0  0  0  0  0
  125.3120  130.4860   63.1690 C   0  0  0  0  0  0  0  0  0  0  0  0
  124.4970  130.5720   64.2700 N   0  0  0  0  0  0  0  0  0  0  0  0
  128.6690  127.3230   66.4640 C   0  0  0  0  0  0  0  0  0  0  0  0
  129.3010  126.9940   67.6610 C   0  0  0  0  0  0  0  0  0  0  0  0
  127.1465  126.9861   71.8352 H   0  0  0  0  0  0  0  0  0  0  0  0
  127.4138  127.8788   70.2995 H   0  0  0  0  0  0  0  0  0  0  0  0
  127.3760  126.0829   70.2995 H   0  0  0  0  0  0  0  0  0  0  0  0
  129.3978  127.4707   72.0594 H   0  0  0  0  0  0  0  0  0  0  0  0
  129.4787  125.8807   71.1382 H   0  0  0  0  0  0  0  0  0  0  0  0
  128.8475  129.9258   69.3456 H   0  0  0  0  0  0  0  0  0  0  0  0
  127.7183  130.5144   67.2145 H   0  0  0  0  0  0  0  0  0  0  0  0
  126.7620  128.3680   64.7720 H   0  0  0  0  0  0  0  0  0  0  0  0
  123.5118  131.3489   57.2866 H   0  0  0  0  0  0  0  0  0  0  0  0
  125.3010  131.2596   57.1547 H   0  0  0  0  0  0  0  0  0  0  0  0
  124.3240  129.7522   57.1547 H   0  0  0  0  0  0  0  0  0  0  0  0
  122.3947  130.9504   59.4218 H   0  0  0  0  0  0  0  0  0  0  0  0
  123.6840  129.9840   64.3800 H   0  0  0  0  0  0  0  0  0  0  0  0
  124.6810  131.2360   65.0090 H   0  0  0  0  0  0  0  0  0  0  0  0
  128.6153  126.5842   65.6508 H   0  0  0  0  0  0  0  0  0  0  0  0
  129.7457  125.9956   67.7855 H   0  0  0  0  0  0  0  0  0  0  0  0
  1  2  1  0
  2  3  1  0
  3  4  2  0
  3  5  1  0
  5  6  2  0
  6  7  1  0
  7  8  2  0
  8  9  1  0
  9 10  1  0
 10 11  2  0
 10 12  1  0
 12 13  1  0
 13 14  1  0
 14 15  2  0
 15 16  1  0
 16 17  1  0
 16 18  2  0
 18 19  1  0
 19 20  1  0
 20 21  1  0
 20 22  1  0
 20 23  1  0
 19 24  2  0
 24 25  1  0
 25 26  1  0
  8 27  1  0
 27 28  2  0
 28  5  1  0
 25 12  2  0
 24 14  1  0
  1 29  1  0
  1 30  1  0
  1 31  1  0
  2 32  1  0
  2 33  1  0
  6 34  1  0
  7 35  1  0
  9 36  1  0
 17 37  1  0
 17 38  1  0
 17 39  1  0
 18 40  1  0
 26 41  1  0
 26 42  1  0
 27 43  1  0
 28 44  1  0
M  END
>  <Binding energies>  (1) 
[-7.12]

>  <Ligand effiencies>  (1) 
[-0.2296774193548387]

>  <Interactions>  (1) 
["V-B:GLU:543:C:9874, V-A:GLU:543:CD:4908, V-A:GLU:543:C:4902, V-A:HIS:456:CE1:4070, V-B:GLY:544:C:9884, V-A:GLU:543:CB:4906, V-B:HIS:456:CE1:9041, V-B:GLU:543:CB:9878, V-B:ASP:366:CB:8183, V-B:ASP:366:CG:8184, V-B:TYR:484:CE2:9317, V-B:TYR:484:CZ:9318, V-B:GLU:543:CG:9879, V-B:GLU:543:CD:9880, V-A:GLU:543:CG:4907, V-A:GLU:543:CA:4904, H-B:GLU:543:OE1:9881, V-B:GLY:454:CA:9020, V-B:ILE:369:CG2:8208, H-B:GLU:543:OE2:9882, V-B:ILE:369:CG1:8209, V-A:TYR:539:CE1:4875, V-B:ILE:369:CB:8207, H-B:TYR:484:OH:9319, V-B:ASP:366:CA:8181, V-B:ARG:545:CZ:9898, V-B:GLY:453:C:9013, V-B:ILE:369:CD1:8210, V-B:GLY:453:CA:9015, H-A:ARG:545:N:4920, V-B:CYS:365:C:8175"]

$$$$
4bb_Grossjean_2025
     RDKit          3D

 41 43  0  0  0  0  0  0  0  0999 V2000
  129.1630  127.0390   71.1150 C   0  0  0  0  0  0  0  0  0  0  0  0
  130.0190  127.6230   69.9890 C   0  0  0  0  0  0  0  0  0  0  0  0
  131.2170  127.8100   70.2070 O   0  0  0  0  0  0  0  0  0  0  0  0
  129.3530  127.9460   68.6850 C   0  0  0  0  0  0  0  0  0  0  0  0
  128.7720  129.2080   68.5030 C   0  0  0  0  0  0  0  0  0  0  0  0
  128.1480  129.5330   67.3030 C   0  0  0  0  0  0  0  0  0  0  0  0
  128.0970  128.6080   66.2590 C   0  0  0  0  0  0  0  0  0  0  0  0
  127.4390  129.0390   65.0900 N   0  0  0  0  0  0  0  0  0  0  0  0
  127.5380  130.2120   64.4170 C   0  0  0  0  0  0  0  0  0  0  0  0
  128.2490  131.1530   64.7680 O   0  0  0  0  0  0  0  0  0  0  0  0
  126.6990  130.3170   63.2200 C   0  0  0  0  0  0  0  0  0  0  0  0
  127.4310  130.2870   61.6180 S   0  0  0  0  0  0  0  0  0  0  0  0
  125.8740  130.4920   60.8500 C   0  0  0  0  0  0  0  0  0  0  0  0
  125.7540  130.5450   59.5250 N   0  0  0  0  0  0  0  0  0  0  0  0
  124.4980  130.7070   59.0490 C   0  0  0  0  0  0  0  0  0  0  0  0
  124.3830  130.7640   57.5360 C   0  0  0  0  0  0  0  0  0  0  0  0
  123.3710  130.8160   59.8580 C   0  0  0  0  0  0  0  0  0  0  0  0
  123.4910  130.7590   61.2550 C   0  0  0  0  0  0  0  0  0  0  0  0
  122.2220  130.8840   62.1040 C   0  0  0  0  0  0  0  0  0  0  0  0
  121.1050  130.6490   61.4110 F   0  0  0  0  0  0  0  0  0  0  0  0
  122.2620  130.0050   63.1060 F   0  0  0  0  0  0  0  0  0  0  0  0
  122.1300  132.1160   62.6030 F   0  0  0  0  0  0  0  0  0  0  0  0
  124.8030  130.5900   61.7910 C   0  0  0  0  0  0  0  0  0  0  0  0
  125.3070  130.4910   63.1380 C   0  0  0  0  0  0  0  0  0  0  0  0
  124.4930  130.5550   64.2400 N   0  0  0  0  0  0  0  0  0  0  0  0
  128.6700  127.3390   66.4360 C   0  0  0  0  0  0  0  0  0  0  0  0
  129.2930  127.0150   67.6380 C   0  0  0  0  0  0  0  0  0  0  0  0
  129.5883  127.3291   72.0871 H   0  0  0  0  0  0  0  0  0  0  0  0
  128.1365  127.4260   71.0337 H   0  0  0  0  0  0  0  0  0  0  0  0
  129.1489  125.9421   71.0337 H   0  0  0  0  0  0  0  0  0  0  0  0
  128.8097  129.9480   69.3160 H   0  0  0  0  0  0  0  0  0  0  0  0
  127.6916  130.5258   67.1760 H   0  0  0  0  0  0  0  0  0  0  0  0
  126.7790  128.3710   64.7190 H   0  0  0  0  0  0  0  0  0  0  0  0
  123.4293  131.2367   57.2583 H   0  0  0  0  0  0  0  0  0  0  0  0
  125.2170  131.3530   57.1268 H   0  0  0  0  0  0  0  0  0  0  0  0
  124.4193  129.7436   57.1268 H   0  0  0  0  0  0  0  0  0  0  0  0
  122.3798  130.9477   59.3995 H   0  0  0  0  0  0  0  0  0  0  0  0
  124.6550  131.2160   64.9870 H   0  0  0  0  0  0  0  0  0  0  0  0
  123.6980  129.9390   64.3440 H   0  0  0  0  0  0  0  0  0  0  0  0
  128.6267  126.5990   65.6233 H   0  0  0  0  0  0  0  0  0  0  0  0
  129.7424  126.0194   67.7677 H   0  0  0  0  0  0  0  0  0  0  0  0
  1  2  1  0
  2  3  2  0
  2  4  1  0
  4  5  2  0
  5  6  1  0
  6  7  2  0
  7  8  1  0
  8  9  1  0
  9 10  2  0
  9 11  1  0
 11 12  1  0
 12 13  1  0
 13 14  2  0
 14 15  1  0
 15 16  1  0
 15 17  2  0
 17 18  1  0
 18 19  1  0
 19 20  1  0
 19 21  1  0
 19 22  1  0
 18 23  2  0
 23 24  1  0
 24 25  1  0
  7 26  1  0
 26 27  2  0
 27  4  1  0
 24 11  2  0
 23 13  1  0
  1 28  1  0
  1 29  1  0
  1 30  1  0
  5 31  1  0
  6 32  1  0
  8 33  1  0
 16 34  1  0
 16 35  1  0
 16 36  1  0
 17 37  1  0
 25 38  1  0
 25 39  1  0
 26 40  1  0
 27 41  1  0
M  END
>  <Binding energies>  (1) 
[-6.93]

>  <Ligand effiencies>  (1) 
[-0.23099999999999998]

>  <Interactions>  (1) 
["V-A:GLU:543:CD:4908, V-A:GLU:543:C:4902, V-A:HIS:456:CE1:4070, V-A:GLU:543:CB:4906, V-B:HIS:456:CE1:9041, V-B:GLU:543:CB:9878, V-B:ASP:366:CB:8183, V-B:ASP:366:CG:8184, V-B:TYR:484:CE2:9317, V-B:TYR:484:CZ:9318, V-B:GLU:543:CG:9879, V-B:GLU:543:CD:9880, V-A:GLU:543:CG:4907, V-A:GLU:543:CA:4904, H-B:GLU:543:OE1:9881, V-B:GLY:454:CA:9020, V-B:ILE:369:CG2:8208, H-B:GLU:543:OE2:9882, V-B:ILE:369:CG1:8209, V-B:ILE:369:CB:8207, H-B:TYR:484:OH:9319, V-B:ASP:366:CA:8181, V-B:TYR:531:CZ:9766, V-B:ARG:545:CZ:9898, V-B:GLY:453:C:9013, V-B:ILE:369:CD1:8210, V-B:GLY:453:CA:9015, H-A:ARG:545:N:4920, V-B:CYS:365:C:8175"]

$$$$
4bc_Grossjean_2025
     RDKit          3D

 40 42  0  0  0  0  0  0  0  0999 V2000
  129.9820  127.0340   68.2960 C   0  0  0  0  0  0  0  0  0  0  0  0
  130.7130  125.9670   67.7010 O   0  0  0  0  0  0  0  0  0  0  0  0
  130.2820  125.4460   66.4960 C   0  0  0  0  0  0  0  0  0  0  0  0
  129.7460  126.3520   65.5820 C   0  0  0  0  0  0  0  0  0  0  0  0
  129.2850  125.9190   64.3410 C   0  0  0  0  0  0  0  0  0  0  0  0
  129.3640  124.5700   63.9940 C   0  0  0  0  0  0  0  0  0  0  0  0
  128.8600  124.2240   62.7260 N   0  0  0  0  0  0  0  0  0  0  0  0
  127.9490  123.2770   62.3950 C   0  0  0  0  0  0  0  0  0  0  0  0
  127.4250  122.5130   63.2070 O   0  0  0  0  0  0  0  0  0  0  0  0
  127.6110  123.1990   60.9710 C   0  0  0  0  0  0  0  0  0  0  0  0
  128.6310  122.2790   59.8670 S   0  0  0  0  0  0  0  0  0  0  0  0
  127.6050  122.6810   58.5100 C   0  0  0  0  0  0  0  0  0  0  0  0
  127.8710  122.2390   57.2820 N   0  0  0  0  0  0  0  0  0  0  0  0
  127.0050  122.6180   56.3130 C   0  0  0  0  0  0  0  0  0  0  0  0
  127.3230  122.0990   54.9230 C   0  0  0  0  0  0  0  0  0  0  0  0
  125.8910  123.4220   56.5420 C   0  0  0  0  0  0  0  0  0  0  0  0
  125.6060  123.8910   57.8340 C   0  0  0  0  0  0  0  0  0  0  0  0
  124.3700  124.7750   58.0350 C   0  0  0  0  0  0  0  0  0  0  0  0
  123.5540  124.7790   56.9780 F   0  0  0  0  0  0  0  0  0  0  0  0
  123.6690  124.3370   59.0800 F   0  0  0  0  0  0  0  0  0  0  0  0
  124.7460  126.0350   58.2530 F   0  0  0  0  0  0  0  0  0  0  0  0
  126.4990  123.5080   58.8790 C   0  0  0  0  0  0  0  0  0  0  0  0
  126.5290  123.7840   60.2950 C   0  0  0  0  0  0  0  0  0  0  0  0
  125.5800  124.5530   60.9190 N   0  0  0  0  0  0  0  0  0  0  0  0
  129.8900  123.6490   64.9130 C   0  0  0  0  0  0  0  0  0  0  0  0
  130.3490  124.0850   66.1530 C   0  0  0  0  0  0  0  0  0  0  0  0
  130.0387  126.9512   69.3914 H   0  0  0  0  0  0  0  0  0  0  0  0
  130.4122  127.9952   67.9782 H   0  0  0  0  0  0  0  0  0  0  0  0
  128.9303  126.9800   67.9782 H   0  0  0  0  0  0  0  0  0  0  0  0
  129.6866  127.4189   65.8433 H   0  0  0  0  0  0  0  0  0  0  0  0
  128.8572  126.6432   63.6321 H   0  0  0  0  0  0  0  0  0  0  0  0
  129.2660  124.7410   61.9600 H   0  0  0  0  0  0  0  0  0  0  0  0
  127.8962  121.1636   55.0031 H   0  0  0  0  0  0  0  0  0  0  0  0
  126.3859  121.9094   54.3791 H   0  0  0  0  0  0  0  0  0  0  0  0
  127.9175  122.8478   54.3791 H   0  0  0  0  0  0  0  0  0  0  0  0
  125.2301  123.6912   55.7049 H   0  0  0  0  0  0  0  0  0  0  0  0
  125.4510  124.5350   61.9200 H   0  0  0  0  0  0  0  0  0  0  0  0
  124.9760  125.1690   60.3930 H   0  0  0  0  0  0  0  0  0  0  0  0
  129.9397  122.5813   64.6533 H   0  0  0  0  0  0  0  0  0  0  0  0
  130.7662  123.3604   66.8678 H   0  0  0  0  0  0  0  0  0  0  0  0
  1  2  1  0
  2  3  1  0
  3  4  2  0
  4  5  1  0
  5  6  2  0
  6  7  1  0
  7  8  1  0
  8  9  2  0
  8 10  1  0
 10 11  1  0
 11 12  1  0
 12 13  2  0
 13 14  1  0
 14 15  1  0
 14 16  2  0
 16 17  1  0
 17 18  1  0
 18 19  1  0
 18 20  1  0
 18 21  1  0
 17 22  2  0
 22 23  1  0
 23 24  1  0
  6 25  1  0
 25 26  2  0
 26  3  1  0
 23 10  2  0
 22 12  1  0
  1 27  1  0
  1 28  1  0
  1 29  1  0
  4 30  1  0
  5 31  1  0
  7 32  1  0
 15 33  1  0
 15 34  1  0
 15 35  1  0
 16 36  1  0
 24 37  1  0
 24 38  1  0
 25 39  1  0
 26 40  1  0
M  END
>  <Binding energies>  (1) 
[-6.56]

>  <Ligand effiencies>  (1) 
[-0.22620689655172413]

>  <Interactions>  (1) 
["V-A:GLU:543:CD:4908, V-A:HIS:456:CE1:4070, V-A:GLU:543:CB:4906, V-B:GLU:543:CB:9878, V-B:TYR:539:CE2:9848, V-B:LEU:363:CA:8156, V-B:LEU:363:CD1:8160, V-B:ASN:362:C:8143, V-B:MET:535:CE:9807, V-B:ASP:366:CB:8183, V-B:PRO:540:CB:9857, V-B:LEU:363:CB:8158, H-B:ALA:541:N:9863, V-B:ASP:366:CG:8184, V-B:TYR:539:CZ:9849, V-B:TYR:539:CD2:9846, V-B:TYR:539:CG:9844, V-B:TYR:539:CE1:9847, H-B:TYR:539:N:9842, V-B:TYR:531:CE2:9765, V-B:PRO:540:CA:9855, V-B:GLU:543:CG:9879, V-B:GLU:543:CD:9880, V-A:TYR:484:CE2:4346, V-B:ALA:541:CB:9864, H-B:GLU:543:OE1:9881, V-A:TYR:484:CZ:4347, V-B:PRO:540:N:9856, V-B:TYR:539:CD1:9845, V-B:TYR:539:C:9839, V-B:TYR:531:CZ:9766, H-B:ASP:366:OD1:8185, V-B:ILE:538:CA:9832, V-B:ILE:538:C:9830, V-B:ILE:538:CB:9834, V-B:LEU:363:CG:8159, V-B:TYR:531:CD2:9763"]

$$$$
4bd_Grossjean_2025
     RDKit          3D

 36 38  0  0  0  0  0  0  0  0999 V2000
  127.1750  122.1210   54.8730 C   0  0  0  0  0  0  0  0  0  0  0  0
  126.9140  122.6150   56.2840 C   0  0  0  0  0  0  0  0  0  0  0  0
  125.8190  123.4250   56.5710 C   0  0  0  0  0  0  0  0  0  0  0  0
  125.5910  123.8770   57.8800 C   0  0  0  0  0  0  0  0  0  0  0  0
  124.3740  124.7700   58.1460 C   0  0  0  0  0  0  0  0  0  0  0  0
  123.6570  124.3740   59.2000 F   0  0  0  0  0  0  0  0  0  0  0  0
  124.7730  126.0190   58.3810 F   0  0  0  0  0  0  0  0  0  0  0  0
  123.5650  124.7560   57.0870 F   0  0  0  0  0  0  0  0  0  0  0  0
  126.5200  123.4690   58.8820 C   0  0  0  0  0  0  0  0  0  0  0  0
  126.6130  123.7250   60.2990 C   0  0  0  0  0  0  0  0  0  0  0  0
  125.6980  124.4920   60.9720 N   0  0  0  0  0  0  0  0  0  0  0  0
  127.7180  123.1220   60.9210 C   0  0  0  0  0  0  0  0  0  0  0  0
  128.1230  123.1870   62.3290 C   0  0  0  0  0  0  0  0  0  0  0  0
  127.4810  122.5910   63.1950 O   0  0  0  0  0  0  0  0  0  0  0  0
  129.2330  123.9240   62.5810 N   0  0  0  0  0  0  0  0  0  0  0  0
  129.8510  124.2180   63.8100 C   0  0  0  0  0  0  0  0  0  0  0  0
  130.8890  125.1540   63.7660 C   0  0  0  0  0  0  0  0  0  0  0  0
  131.5560  125.5190   64.9310 C   0  0  0  0  0  0  0  0  0  0  0  0
  131.1810  124.9540   66.1470 C   0  0  0  0  0  0  0  0  0  0  0  0
  130.1400  124.0310   66.2080 C   0  0  0  0  0  0  0  0  0  0  0  0
  129.4700  123.6630   65.0440 C   0  0  0  0  0  0  0  0  0  0  0  0
  128.6800  122.2060   59.7630 S   0  0  0  0  0  0  0  0  0  0  0  0
  127.6020  122.6380   58.4560 C   0  0  0  0  0  0  0  0  0  0  0  0
  127.8130  122.2110   57.2120 N   0  0  0  0  0  0  0  0  0  0  0  0
  127.6885  121.1491   54.9139 H   0  0  0  0  0  0  0  0  0  0  0  0
  126.2187  122.0084   54.3412 H   0  0  0  0  0  0  0  0  0  0  0  0
  127.8070  122.8475   54.3412 H   0  0  0  0  0  0  0  0  0  0  0  0
  125.1271  123.7130   55.7658 H   0  0  0  0  0  0  0  0  0  0  0  0
  125.0560  125.1070   60.4900 H   0  0  0  0  0  0  0  0  0  0  0  0
  125.6280  124.4650   61.9800 H   0  0  0  0  0  0  0  0  0  0  0  0
  129.7030  124.3100   61.7750 H   0  0  0  0  0  0  0  0  0  0  0  0
  131.1796  125.6040   62.8052 H   0  0  0  0  0  0  0  0  0  0  0  0
  132.3762  126.2509   64.8916 H   0  0  0  0  0  0  0  0  0  0  0  0
  131.7116  125.2391   67.0674 H   0  0  0  0  0  0  0  0  0  0  0  0
  129.8475  123.5934   67.1739 H   0  0  0  0  0  0  0  0  0  0  0  0
  128.6434  122.9387   65.0901 H   0  0  0  0  0  0  0  0  0  0  0  0
  1  2  1  0
  2  3  2  0
  3  4  1  0
  4  5  1  0
  5  6  1  0
  5  7  1  0
  5  8  1  0
  4  9  2  0
  9 10  1  0
 10 11  1  0
 10 12  2  0
 12 13  1  0
 13 14  2  0
 13 15  1  0
 15 16  1  0
 16 17  2  0
 17 18  1  0
 18 19  2  0
 19 20  1  0
 20 21  2  0
 12 22  1  0
 22 23  1  0
 23 24  2  0
 24  2  1  0
 23  9  1  0
 21 16  1  0
  1 25  1  0
  1 26  1  0
  1 27  1  0
  3 28  1  0
 11 29  1  0
 11 30  1  0
 15 31  1  0
 17 32  1  0
 18 33  1  0
 19 34  1  0
 20 35  1  0
 21 36  1  0
M  END
>  <Binding energies>  (1) 
[-6.72]

>  <Ligand effiencies>  (1) 
[-0.24888888888888888]

>  <Interactions>  (1) 
["V-A:GLU:543:CD:4908, V-A:HIS:456:CE1:4070, V-B:GLU:543:CB:9878, V-B:TYR:539:CE2:9848, V-B:LEU:363:CA:8156, V-B:LEU:363:CD1:8160, V-B:ASN:362:C:8143, V-B:MET:535:CE:9807, V-B:ASP:366:CB:8183, V-B:PRO:540:CB:9857, V-B:LEU:363:CB:8158, H-B:ALA:541:N:9863, V-B:ASP:366:CG:8184, V-B:TYR:539:CD2:9846, V-B:TYR:539:CG:9844, V-B:TYR:539:CE1:9847, H-B:TYR:539:N:9842, V-B:TYR:531:CE2:9765, V-B:PRO:540:CA:9855, V-B:GLU:543:CG:9879, V-B:GLU:543:CD:9880, V-A:TYR:484:CE2:4346, V-B:ALA:541:CB:9864, H-B:GLU:543:OE1:9881, V-A:TYR:484:CZ:4347, V-B:PRO:540:N:9856, V-B:TYR:539:CD1:9845, V-B:TYR:539:C:9839, V-B:TYR:531:CZ:9766, H-B:ASP:366:OD1:8185, V-B:ILE:538:CA:9832, V-B:ILE:538:C:9830, V-B:ILE:538:CG2:9835, V-B:ILE:538:CB:9834, V-B:LEU:363:CG:8159, V-B:TYR:531:CD2:9763"]

$$$$
4be_Grossjean_2025
     RDKit          3D

 38 40  0  0  0  0  0  0  0  0999 V2000
  129.4200  125.8460   67.0910 C   0  0  0  0  0  0  0  0  0  0  0  0
  130.1990  125.3370   65.8940 C   0  0  0  0  0  0  0  0  0  0  0  0
  131.5860  125.1750   65.9410 C   0  0  0  0  0  0  0  0  0  0  0  0
  132.2380  124.7040   64.8000 C   0  0  0  0  0  0  0  0  0  0  0  0
  131.4960  124.4100   63.6540 C   0  0  0  0  0  0  0  0  0  0  0  0
  130.1090  124.5890   63.6770 C   0  0  0  0  0  0  0  0  0  0  0  0
  129.4210  124.2820   62.4890 N   0  0  0  0  0  0  0  0  0  0  0  0
  128.3320  123.4930   62.3150 C   0  0  0  0  0  0  0  0  0  0  0  0
  127.7560  122.9060   63.2330 O   0  0  0  0  0  0  0  0  0  0  0  0
  127.8720  123.3520   60.9310 C   0  0  0  0  0  0  0  0  0  0  0  0
  128.8160  122.4130   59.7760 S   0  0  0  0  0  0  0  0  0  0  0  0
  127.6800  122.7640   58.4940 C   0  0  0  0  0  0  0  0  0  0  0  0
  127.8550  122.2890   57.2620 N   0  0  0  0  0  0  0  0  0  0  0  0
  126.9080  122.6260   56.3550 C   0  0  0  0  0  0  0  0  0  0  0  0
  127.1270  122.0780   54.9570 C   0  0  0  0  0  0  0  0  0  0  0  0
  125.8020  123.4180   56.6500 C   0  0  0  0  0  0  0  0  0  0  0  0
  125.6120  123.9210   57.9470 C   0  0  0  0  0  0  0  0  0  0  0  0
  124.3770  124.7850   58.2240 C   0  0  0  0  0  0  0  0  0  0  0  0
  123.4720  124.7320   57.2430 F   0  0  0  0  0  0  0  0  0  0  0  0
  123.7780  124.3700   59.3400 F   0  0  0  0  0  0  0  0  0  0  0  0
  124.7400  126.0590   58.3660 F   0  0  0  0  0  0  0  0  0  0  0  0
  126.5940  123.5870   58.9260 C   0  0  0  0  0  0  0  0  0  0  0  0
  126.7390  123.9150   60.3230 C   0  0  0  0  0  0  0  0  0  0  0  0
  125.8400  124.7040   60.9950 N   0  0  0  0  0  0  0  0  0  0  0  0
  129.4650  125.0550   64.7880 N   0  0  0  0  0  0  0  0  0  0  0  0
  129.9170  125.5212   68.0170 H   0  0  0  0  0  0  0  0  0  0  0  0
  129.3802  126.9449   67.0622 H   0  0  0  0  0  0  0  0  0  0  0  0
  128.3976  125.4412   67.0622 H   0  0  0  0  0  0  0  0  0  0  0  0
  132.1504  125.4128   66.8547 H   0  0  0  0  0  0  0  0  0  0  0  0
  133.3292  124.5653   64.8036 H   0  0  0  0  0  0  0  0  0  0  0  0
  131.9956  124.0426   62.7455 H   0  0  0  0  0  0  0  0  0  0  0  0
  129.8280  124.6770   61.6540 H   0  0  0  0  0  0  0  0  0  0  0  0
  127.5345  121.0584   55.0225 H   0  0  0  0  0  0  0  0  0  0  0  0
  126.1686  122.0559   54.4175 H   0  0  0  0  0  0  0  0  0  0  0  0
  127.8366  122.7225   54.4175 H   0  0  0  0  0  0  0  0  0  0  0  0
  125.0716  123.6515   55.8613 H   0  0  0  0  0  0  0  0  0  0  0  0
  125.1650  125.2780   60.5120 H   0  0  0  0  0  0  0  0  0  0  0  0
  125.8290  124.7420   62.0050 H   0  0  0  0  0  0  0  0  0  0  0  0
  1  2  1  0
  2  3  2  0
  3  4  1  0
  4  5  2  0
  5  6  1  0
  6  7  1  0
  7  8  1  0
  8  9  2  0
  8 10  1  0
 10 11  1  0
 11 12  1  0
 12 13  2  0
 13 14  1  0
 14 15  1  0
 14 16  2  0
 16 17  1  0
 17 18  1  0
 18 19  1  0
 18 20  1  0
 18 21  1  0
 17 22  2  0
 22 23  1  0
 23 24  1  0
  6 25  2  0
 25  2  1  0
 23 10  2  0
 22 12  1  0
  1 26  1  0
  1 27  1  0
  1 28  1  0
  3 29  1  0
  4 30  1  0
  5 31  1  0
  7 32  1  0
 15 33  1  0
 15 34  1  0
 15 35  1  0
 16 36  1  0
 24 37  1  0
 24 38  1  0
M  END
>  <Binding energies>  (1) 
[-6.94]

>  <Ligand effiencies>  (1) 
[-0.24785714285714286]

>  <Interactions>  (1) 
["V-B:GLU:543:CB:9878, V-B:TYR:539:CE2:9848, V-B:LEU:363:CA:8156, V-B:LEU:363:CD1:8160, V-B:ASN:362:C:8143, V-B:MET:535:CE:9807, V-B:ASP:366:CB:8183, V-B:PRO:540:CB:9857, V-B:LEU:363:CB:8158, H-B:ALA:541:N:9863, V-B:ASP:366:CG:8184, V-B:TYR:539:CD2:9846, V-B:TYR:539:CG:9844, V-B:TYR:539:CE1:9847, H-B:TYR:539:N:9842, V-B:TYR:531:CE2:9765, V-B:PRO:540:CA:9855, V-B:GLU:543:CA:9876, V-B:GLU:543:CG:9879, V-B:GLU:543:CD:9880, H-B:GLU:543:OE1:9881, V-A:TYR:484:CZ:4347, V-B:PRO:540:N:9856, V-B:TYR:539:CD1:9845, V-B:TYR:539:C:9839, V-B:TYR:531:CZ:9766, H-B:ASP:366:OD1:8185, V-B:ILE:538:CA:9832, V-B:ILE:538:C:9830, V-B:ILE:538:CG2:9835, V-B:ILE:538:CB:9834, V-B:LEU:363:CG:8159, V-B:TYR:531:CD2:9763"]

$$$$
4bf_Grossjean_2025
     RDKit          3D

 35 37  0  0  0  0  0  0  0  0999 V2000
  127.1330  122.1070   54.9270 C   0  0  0  0  0  0  0  0  0  0  0  0
  126.9130  122.6360   56.3340 C   0  0  0  0  0  0  0  0  0  0  0  0
  125.8110  123.4310   56.6370 C   0  0  0  0  0  0  0  0  0  0  0  0
  125.6220  123.9150   57.9400 C   0  0  0  0  0  0  0  0  0  0  0  0
  124.3950  124.7890   58.2260 C   0  0  0  0  0  0  0  0  0  0  0  0
  123.4880  124.7520   57.2460 F   0  0  0  0  0  0  0  0  0  0  0  0
  123.7950  124.3730   59.3410 F   0  0  0  0  0  0  0  0  0  0  0  0
  124.7710  126.0600   58.3740 F   0  0  0  0  0  0  0  0  0  0  0  0
  126.5980  123.5580   58.9180 C   0  0  0  0  0  0  0  0  0  0  0  0
  126.7380  123.8610   60.3210 C   0  0  0  0  0  0  0  0  0  0  0  0
  125.8320  124.6310   61.0050 N   0  0  0  0  0  0  0  0  0  0  0  0
  127.8750  123.2950   60.9200 C   0  0  0  0  0  0  0  0  0  0  0  0
  128.3380  123.4230   62.3050 C   0  0  0  0  0  0  0  0  0  0  0  0
  127.7470  122.8470   63.2190 O   0  0  0  0  0  0  0  0  0  0  0  0
  129.4410  124.1920   62.4800 N   0  0  0  0  0  0  0  0  0  0  0  0
  130.1020  124.5520   63.6700 C   0  0  0  0  0  0  0  0  0  0  0  0
  129.5090  125.1980   64.7680 C   0  0  0  0  0  0  0  0  0  0  0  0
  130.2850  125.5150   65.8860 C   0  0  0  0  0  0  0  0  0  0  0  0
  131.6400  125.1810   65.8740 C   0  0  0  0  0  0  0  0  0  0  0  0
  132.2370  124.5650   64.8250 N   0  0  0  0  0  0  0  0  0  0  0  0
  131.4700  124.2640   63.7450 C   0  0  0  0  0  0  0  0  0  0  0  0
  128.8150  122.3690   59.7530 S   0  0  0  0  0  0  0  0  0  0  0  0
  127.6810  122.7370   58.4750 C   0  0  0  0  0  0  0  0  0  0  0  0
  127.8550  122.2790   57.2370 N   0  0  0  0  0  0  0  0  0  0  0  0
  127.5549  121.0924   54.9785 H   0  0  0  0  0  0  0  0  0  0  0  0
  126.1724  122.0779   54.3918 H   0  0  0  0  0  0  0  0  0  0  0  0
  127.8310  122.7676   54.3918 H   0  0  0  0  0  0  0  0  0  0  0  0
  125.0843  123.6811   55.8500 H   0  0  0  0  0  0  0  0  0  0  0  0
  125.7990  124.6470   62.0140 H   0  0  0  0  0  0  0  0  0  0  0  0
  125.1650  125.2140   60.5190 H   0  0  0  0  0  0  0  0  0  0  0  0
  129.8640  124.5590   61.6410 H   0  0  0  0  0  0  0  0  0  0  0  0
  128.4391  125.4529   64.7475 H   0  0  0  0  0  0  0  0  0  0  0  0
  129.8376  126.0169   66.7566 H   0  0  0  0  0  0  0  0  0  0  0  0
  132.2503  125.4287   66.7550 H   0  0  0  0  0  0  0  0  0  0  0  0
  131.9476  123.7692   62.8865 H   0  0  0  0  0  0  0  0  0  0  0  0
  1  2  1  0
  2  3  2  0
  3  4  1  0
  4  5  1  0
  5  6  1  0
  5  7  1  0
  5  8  1  0
  4  9  2  0
  9 10  1  0
 10 11  1  0
 10 12  2  0
 12 13  1  0
 13 14  2  0
 13 15  1  0
 15 16  1  0
 16 17  2  0
 17 18  1  0
 18 19  2  0
 19 20  1  0
 20 21  2  0
 12 22  1  0
 22 23  1  0
 23 24  2  0
 24  2  1  0
 23  9  1  0
 21 16  1  0
  1 25  1  0
  1 26  1  0
  1 27  1  0
  3 28  1  0
 11 29  1  0
 11 30  1  0
 15 31  1  0
 17 32  1  0
 18 33  1  0
 19 34  1  0
 21 35  1  0
M  END
>  <Binding energies>  (1) 
[-6.47]

>  <Ligand effiencies>  (1) 
[-0.2396296296296296]

>  <Interactions>  (1) 
["V-B:GLU:543:CB:9878, V-B:TYR:539:CE2:9848, V-B:LEU:363:CA:8156, V-B:LEU:363:CD1:8160, V-B:ASN:362:C:8143, V-B:MET:535:CE:9807, V-B:ASP:366:CB:8183, V-B:PRO:540:CB:9857, V-B:LEU:363:CB:8158, H-B:ALA:541:N:9863, V-B:ASP:366:CG:8184, V-B:TYR:539:CD2:9846, V-B:TYR:539:CG:9844, V-B:TYR:539:CE1:9847, H-B:TYR:539:N:9842, V-B:TYR:531:CE2:9765, V-B:PRO:540:CA:9855, V-B:GLU:543:CG:9879, V-B:GLU:543:CD:9880, H-B:GLU:543:OE1:9881, V-A:TYR:484:CZ:4347, V-B:PRO:540:N:9856, V-B:TYR:539:CD1:9845, V-B:TYR:539:C:9839, V-B:TYR:531:CZ:9766, H-A:TYR:484:OH:4348, H-B:ASP:366:OD1:8185, V-B:ILE:538:CA:9832, V-B:ILE:538:C:9830, V-B:ILE:538:CG2:9835, V-B:ILE:538:CB:9834, V-B:LEU:363:CG:8159, V-B:TYR:531:CD2:9763"]

$$$$
4bg_Grossjean_2025
     RDKit          3D

 39 41  0  0  0  0  0  0  0  0999 V2000
  127.1960  122.1130   54.9120 C   0  0  0  0  0  0  0  0  0  0  0  0
  126.9020  122.6090   56.3160 C   0  0  0  0  0  0  0  0  0  0  0  0
  125.8030  123.4250   56.5730 C   0  0  0  0  0  0  0  0  0  0  0  0
  125.5450  123.8810   57.8760 C   0  0  0  0  0  0  0  0  0  0  0  0
  124.3250  124.7770   58.1100 C   0  0  0  0  0  0  0  0  0  0  0  0
  123.5730  124.3760   59.1380 F   0  0  0  0  0  0  0  0  0  0  0  0
  124.7220  126.0230   58.3680 F   0  0  0  0  0  0  0  0  0  0  0  0
  123.5500  124.7770   57.0260 F   0  0  0  0  0  0  0  0  0  0  0  0
  126.4500  123.4730   58.9000 C   0  0  0  0  0  0  0  0  0  0  0  0
  126.5150  123.7390   60.3160 C   0  0  0  0  0  0  0  0  0  0  0  0
  125.6040  124.5350   60.9650 N   0  0  0  0  0  0  0  0  0  0  0  0
  127.5830  123.1060   60.9690 C   0  0  0  0  0  0  0  0  0  0  0  0
  127.9630  123.1800   62.3800 C   0  0  0  0  0  0  0  0  0  0  0  0
  127.3720  122.5260   63.2400 O   0  0  0  0  0  0  0  0  0  0  0  0
  129.0170  123.9720   62.6670 N   0  0  0  0  0  0  0  0  0  0  0  0
  129.5610  124.2100   64.0030 C   0  0  0  0  0  0  0  0  0  0  0  0
  131.0750  124.3720   64.0250 C   0  0  0  0  0  0  0  0  0  0  0  0
  131.8350  124.0180   62.9060 C   0  0  0  0  0  0  0  0  0  0  0  0
  133.2150  124.2040   62.9150 C   0  0  0  0  0  0  0  0  0  0  0  0
  133.8300  124.7560   64.0370 C   0  0  0  0  0  0  0  0  0  0  0  0
  133.0780  125.1270   65.1490 C   0  0  0  0  0  0  0  0  0  0  0  0
  131.6970  124.9400   65.1410 C   0  0  0  0  0  0  0  0  0  0  0  0
  128.5710  122.1850   59.8380 S   0  0  0  0  0  0  0  0  0  0  0  0
  127.5340  122.6290   58.5040 C   0  0  0  0  0  0  0  0  0  0  0  0
  127.7750  122.2010   57.2650 N   0  0  0  0  0  0  0  0  0  0  0  0
  127.7562  121.1679   54.9668 H   0  0  0  0  0  0  0  0  0  0  0  0
  126.2498  121.9478   54.3758 H   0  0  0  0  0  0  0  0  0  0  0  0
  127.7951  122.8638   54.3758 H   0  0  0  0  0  0  0  0  0  0  0  0
  125.1328  123.7142   55.7501 H   0  0  0  0  0  0  0  0  0  0  0  0
  125.5670  124.5940   61.9710 H   0  0  0  0  0  0  0  0  0  0  0  0
  124.9300  125.0860   60.4520 H   0  0  0  0  0  0  0  0  0  0  0  0
  129.4020  124.5390   61.9250 H   0  0  0  0  0  0  0  0  0  0  0  0
  129.1072  125.1280   64.4048 H   0  0  0  0  0  0  0  0  0  0  0  0
  129.3225  123.3247   64.6107 H   0  0  0  0  0  0  0  0  0  0  0  0
  131.3429  123.5927   62.0189 H   0  0  0  0  0  0  0  0  0  0  0  0
  133.8169  123.9165   62.0404 H   0  0  0  0  0  0  0  0  0  0  0  0
  134.9205  124.9002   64.0445 H   0  0  0  0  0  0  0  0  0  0  0  0
  133.5715  125.5653   66.0290 H   0  0  0  0  0  0  0  0  0  0  0  0
  131.0964  125.2392   66.0126 H   0  0  0  0  0  0  0  0  0  0  0  0
  1  2  1  0
  2  3  2  0
  3  4  1  0
  4  5  1  0
  5  6  1  0
  5  7  1  0
  5  8  1  0
  4  9  2  0
  9 10  1  0
 10 11  1  0
 10 12  2  0
 12 13  1  0
 13 14  2  0
 13 15  1  0
 15 16  1  0
 16 17  1  0
 17 18  2  0
 18 19  1  0
 19 20  2  0
 20 21  1  0
 21 22  2  0
 12 23  1  0
 23 24  1  0
 24 25  2  0
 25  2  1  0
 24  9  1  0
 22 17  1  0
  1 26  1  0
  1 27  1  0
  1 28  1  0
  3 29  1  0
 11 30  1  0
 11 31  1  0
 15 32  1  0
 16 33  1  0
 16 34  1  0
 18 35  1  0
 19 36  1  0
 20 37  1  0
 21 38  1  0
 22 39  1  0
M  END
>  <Binding energies>  (1) 
[-7.07]

>  <Ligand effiencies>  (1) 
[-0.2525]

>  <Interactions>  (1) 
["V-B:TYR:539:CE2:9848, V-B:LEU:363:CA:8156, V-B:LEU:363:CD1:8160, V-B:ASN:362:C:8143, V-B:MET:535:CE:9807, V-B:ASP:366:CB:8183, V-B:PRO:540:CB:9857, V-B:LEU:363:CB:8158, H-B:ALA:541:N:9863, V-B:ASP:366:CG:8184, V-B:TYR:539:CD2:9846, V-B:TYR:539:CG:9844, V-B:TYR:539:CE1:9847, H-B:TYR:539:N:9842, V-B:TYR:531:CE2:9765, V-B:PRO:540:CA:9855, V-B:GLU:543:CG:9879, V-B:GLU:543:CD:9880, V-B:ALA:541:CB:9864, H-B:GLU:543:OE1:9881, V-B:PRO:540:N:9856, V-B:TYR:539:CD1:9845, V-B:TYR:539:C:9839, V-A:ARG:545:CZ:4926, V-B:TYR:531:CZ:9766, H-B:ASP:366:OD1:8185, V-A:GLY:453:C:4042, V-A:GLY:454:CA:4049, V-B:ILE:538:CA:9832, V-A:GLY:453:CA:4044, V-B:ILE:538:C:9830, V-B:ILE:538:CG2:9835, V-A:ARG:545:CD:4923, V-B:ILE:538:CB:9834, V-B:LEU:363:CG:8159, V-B:TYR:531:CD2:9763"]

$$$$
4bh_Grossjean_2025
     RDKit          3D

 51 53  0  0  0  0  0  0  0  0999 V2000
  127.0960  128.5600   63.4460 C   0  0  0  0  0  0  0  0  0  0  0  0
  128.4420  128.4780   63.9020 O   0  0  0  0  0  0  0  0  0  0  0  0
  128.8710  127.3330   64.5480 C   0  0  0  0  0  0  0  0  0  0  0  0
  129.2340  126.1490   63.8860 C   0  0  0  0  0  0  0  0  0  0  0  0
  129.6570  125.0290   64.6030 C   0  0  0  0  0  0  0  0  0  0  0  0
  130.0900  123.7680   63.8650 C   0  0  0  0  0  0  0  0  0  0  0  0
  129.4590  123.6120   62.5540 N   0  0  0  0  0  0  0  0  0  0  0  0
  128.1980  123.1830   62.3390 C   0  0  0  0  0  0  0  0  0  0  0  0
  127.4520  122.8350   63.2550 O   0  0  0  0  0  0  0  0  0  0  0  0
  127.7740  123.1100   60.9400 C   0  0  0  0  0  0  0  0  0  0  0  0
  128.7300  122.1980   59.7760 S   0  0  0  0  0  0  0  0  0  0  0  0
  127.6450  122.6370   58.4770 C   0  0  0  0  0  0  0  0  0  0  0  0
  127.8450  122.2110   57.2310 N   0  0  0  0  0  0  0  0  0  0  0  0
  126.9360  122.6140   56.3130 C   0  0  0  0  0  0  0  0  0  0  0  0
  127.1840  122.1200   54.8990 C   0  0  0  0  0  0  0  0  0  0  0  0
  125.8430  123.4230   56.6080 C   0  0  0  0  0  0  0  0  0  0  0  0
  125.6280  123.8770   57.9190 C   0  0  0  0  0  0  0  0  0  0  0  0
  124.4090  124.7630   58.1970 C   0  0  0  0  0  0  0  0  0  0  0  0
  123.5150  124.7500   57.2050 F   0  0  0  0  0  0  0  0  0  0  0  0
  123.7870  124.3430   59.2980 F   0  0  0  0  0  0  0  0  0  0  0  0
  124.8000  126.0260   58.3670 F   0  0  0  0  0  0  0  0  0  0  0  0
  126.5690  123.4720   58.9120 C   0  0  0  0  0  0  0  0  0  0  0  0
  126.6790  123.7360   60.3250 C   0  0  0  0  0  0  0  0  0  0  0  0
  125.7860  124.5230   61.0060 N   0  0  0  0  0  0  0  0  0  0  0  0
  129.7470  125.0970   65.9940 C   0  0  0  0  0  0  0  0  0  0  0  0
  129.3830  126.2650   66.6830 C   0  0  0  0  0  0  0  0  0  0  0  0
  129.4340  126.3980   68.0590 O   0  0  0  0  0  0  0  0  0  0  0  0
  130.3330  127.3380   68.6360 C   0  0  0  0  0  0  0  0  0  0  0  0
  128.9410  127.3740   65.9470 C   0  0  0  0  0  0  0  0  0  0  0  0
  128.5990  128.5310   66.6080 O   0  0  0  0  0  0  0  0  0  0  0  0
  127.2580  128.5530   67.0760 C   0  0  0  0  0  0  0  0  0  0  0  0
  126.4177  128.6013   64.3110 H   0  0  0  0  0  0  0  0  0  0  0  0
  126.9697  129.4675   62.8373 H   0  0  0  0  0  0  0  0  0  0  0  0
  126.8605  127.6745   62.8373 H   0  0  0  0  0  0  0  0  0  0  0  0
  129.1843  126.1038   62.7881 H   0  0  0  0  0  0  0  0  0  0  0  0
  131.1804  123.8042   63.7243 H   0  0  0  0  0  0  0  0  0  0  0  0
  129.7762  122.9107   64.4786 H   0  0  0  0  0  0  0  0  0  0  0  0
  129.9860  123.9600   61.7650 H   0  0  0  0  0  0  0  0  0  0  0  0
  127.6773  121.1375   54.9351 H   0  0  0  0  0  0  0  0  0  0  0  0
  126.2245  122.0293   54.3687 H   0  0  0  0  0  0  0  0  0  0  0  0
  127.8299  122.8353   54.3687 H   0  0  0  0  0  0  0  0  0  0  0  0
  125.1430  123.7086   55.8090 H   0  0  0  0  0  0  0  0  0  0  0  0
  125.2060  125.2040   60.5340 H   0  0  0  0  0  0  0  0  0  0  0  0
  125.6820  124.4540   62.0080 H   0  0  0  0  0  0  0  0  0  0  0  0
  130.1078  124.2242   66.5580 H   0  0  0  0  0  0  0  0  0  0  0  0
  130.2740  127.2763   69.7327 H   0  0  0  0  0  0  0  0  0  0  0  0
  131.3591  127.1114   68.3107 H   0  0  0  0  0  0  0  0  0  0  0  0
  130.0609  128.3530   68.3107 H   0  0  0  0  0  0  0  0  0  0  0  0
  127.2535  128.5531   68.1760 H   0  0  0  0  0  0  0  0  0  0  0  0
  126.7558  129.4595   66.7072 H   0  0  0  0  0  0  0  0  0  0  0  0
  126.7263  127.6635   66.7072 H   0  0  0  0  0  0  0  0  0  0  0  0
  1  2  1  0
  2  3  1  0
  3  4  2  0
  4  5  1  0
  5  6  1  0
  6  7  1  0
  7  8  1  0
  8  9  2  0
  8 10  1  0
 10 11  1  0
 11 12  1  0
 12 13  2  0
 13 14  1  0
 14 15  1  0
 14 16  2  0
 16 17  1  0
 17 18  1  0
 18 19  1  0
 18 20  1  0
 18 21  1  0
 17 22  2  0
 22 23  1  0
 23 24  1  0
  5 25  2  0
 25 26  1  0
 26 27  1  0
 27 28  1  0
 26 29  2  0
 29 30  1  0
 30 31  1  0
 29  3  1  0
 23 10  2  0
 22 12  1  0
  1 32  1  0
  1 33  1  0
  1 34  1  0
  4 35  1  0
  6 36  1  0
  6 37  1  0
  7 38  1  0
 15 39  1  0
 15 40  1  0
 15 41  1  0
 16 42  1  0
 24 43  1  0
 24 44  1  0
 25 45  1  0
 28 46  1  0
 28 47  1  0
 28 48  1  0
 31 49  1  0
 31 50  1  0
 31 51  1  0
M  END
>  <Binding energies>  (1) 
[-6.25]

>  <Ligand effiencies>  (1) 
[-0.18382352941176472]

>  <Interactions>  (1) 
["V-A:GLU:543:CD:4908, V-A:HIS:456:CE1:4070, V-A:GLU:543:CB:4906, V-B:HIS:456:CE1:9041, V-B:GLU:543:CB:9878, V-B:TYR:539:CE2:9848, V-B:LEU:363:CA:8156, V-B:LEU:363:CD1:8160, V-B:ASN:362:C:8143, V-B:MET:535:CE:9807, V-B:ASP:366:CB:8183, V-B:PRO:540:CB:9857, V-B:LEU:363:CB:8158, H-B:ALA:541:N:9863, V-B:ASP:366:CG:8184, V-B:TYR:539:CD2:9846, V-B:TYR:539:CG:9844, V-B:TYR:539:CE1:9847, H-B:TYR:539:N:9842, V-B:TYR:531:CE2:9765, V-B:PRO:540:CA:9855, V-B:GLU:543:CG:9879, V-B:GLU:543:CD:9880, V-B:ALA:541:CB:9864, H-B:GLU:543:OE1:9881, V-B:PRO:540:N:9856, V-B:TYR:539:CD1:9845, V-B:TYR:539:C:9839, V-B:TYR:531:CZ:9766, H-B:ASP:366:OD1:8185, V-B:ILE:538:CA:9832, V-B:ILE:538:C:9830, V-B:ILE:538:CG2:9835, V-B:ILE:538:CB:9834, V-B:LEU:363:CG:8159, V-B:TYR:531:CD2:9763"]

$$$$
4bi_Grossjean_2025
     RDKit          3D

 32 34  0  0  0  0  0  0  0  0999 V2000
  133.4630  130.8360   62.5360 C   0  0  0  0  0  0  0  0  0  0  0  0
  132.3030  131.3550   61.7060 C   0  0  0  0  0  0  0  0  0  0  0  0
  132.3210  131.2700   60.3160 C   0  0  0  0  0  0  0  0  0  0  0  0
  131.2380  131.7500   59.5610 C   0  0  0  0  0  0  0  0  0  0  0  0
  131.3000  131.6280   58.0350 C   0  0  0  0  0  0  0  0  0  0  0  0
  132.4370  131.0790   57.6000 F   0  0  0  0  0  0  0  0  0  0  0  0
  130.2980  130.8640   57.6010 F   0  0  0  0  0  0  0  0  0  0  0  0
  131.2040  132.8370   57.4800 F   0  0  0  0  0  0  0  0  0  0  0  0
  130.1450  132.3200   60.2780 C   0  0  0  0  0  0  0  0  0  0  0  0
  128.8950  132.9050   59.8580 C   0  0  0  0  0  0  0  0  0  0  0  0
  128.5350  133.0180   58.5390 N   0  0  0  0  0  0  0  0  0  0  0  0
  128.0800  133.3400   60.9160 C   0  0  0  0  0  0  0  0  0  0  0  0
  126.7660  133.9850   60.8520 C   0  0  0  0  0  0  0  0  0  0  0  0
  125.7440  133.3170   60.6850 O   0  0  0  0  0  0  0  0  0  0  0  0
  126.7700  135.3330   61.0070 N   0  0  0  0  0  0  0  0  0  0  0  0
  125.6760  136.1890   61.0010 C   0  0  0  0  0  0  0  0  0  0  0  0
  124.4050  135.7960   60.5870 C   0  0  0  0  0  0  0  0  0  0  0  0
  123.6190  136.9170   60.7310 C   0  0  0  0  0  0  0  0  0  0  0  0
  124.3780  137.9310   61.2090 O   0  0  0  0  0  0  0  0  0  0  0  0
  125.6810  137.4570   61.3760 N   0  0  0  0  0  0  0  0  0  0  0  0
  128.8550  133.0590   62.4740 S   0  0  0  0  0  0  0  0  0  0  0  0
  130.2520  132.3460   61.7020 C   0  0  0  0  0  0  0  0  0  0  0  0
  131.2810  131.8870   62.4140 N   0  0  0  0  0  0  0  0  0  0  0  0
  133.2256  130.9422   63.6048 H   0  0  0  0  0  0  0  0  0  0  0  0
  133.6352  129.7750   62.3024 H   0  0  0  0  0  0  0  0  0  0  0  0
  134.3689  131.4146   62.3024 H   0  0  0  0  0  0  0  0  0  0  0  0
  133.1881  130.8245   59.8065 H   0  0  0  0  0  0  0  0  0  0  0  0
  127.8860  132.3740   58.1060 H   0  0  0  0  0  0  0  0  0  0  0  0
  128.9110  133.7480   57.9510 H   0  0  0  0  0  0  0  0  0  0  0  0
  127.6660  135.7760   61.1510 H   0  0  0  0  0  0  0  0  0  0  0  0
  124.0964  134.8046   60.2237 H   0  0  0  0  0  0  0  0  0  0  0  0
  122.5463  136.9789   60.4955 H   0  0  0  0  0  0  0  0  0  0  0  0
  1  2  1  0
  2  3  2  0
  3  4  1  0
  4  5  1  0
  5  6  1  0
  5  7  1  0
  5  8  1  0
  4  9  2  0
  9 10  1  0
 10 11  1  0
 10 12  2  0
 12 13  1  0
 13 14  2  0
 13 15  1  0
 15 16  1  0
 16 17  1  0
 17 18  2  0
 18 19  1  0
 19 20  1  0
 12 21  1  0
 21 22  1  0
 22 23  2  0
 23  2  1  0
 22  9  1  0
 20 16  2  0
  1 24  1  0
  1 25  1  0
  1 26  1  0
  3 27  1  0
 11 28  1  0
 11 29  1  0
 15 30  1  0
 17 31  1  0
 18 32  1  0
M  END
>  <Binding energies>  (1) 
[-6.72]

>  <Ligand effiencies>  (1) 
[-0.25846153846153846]

>  <Interactions>  (1) 
["V-A:GLU:543:CD:4908, V-A:TYR:539:CD1:4873, V-A:LEU:363:CD1:3189, V-A:TYR:531:CE2:4793, V-B:LEU:475:CD2:9230, V-A:ALA:541:CB:4892, V-A:PRO:540:CA:4883, V-B:ILE:369:CG2:8208, V-A:PRO:540:CB:4885, V-A:TYR:539:CE1:4875, V-A:TYR:539:C:4867, V-A:ALA:541:CA:4890, V-A:PRO:540:N:4884, V-A:ASP:366:CG:3213, V-A:PRO:540:C:4881, V-A:ARG:545:CZ:4926, H-A:ALA:541:N:4891, H-A:TYR:539:O:4868, V-A:PRO:540:CD:4887, V-A:TYR:539:CG:4872, V-B:SER:385:CA:8378, V-B:HIS:383:CD2:8363, V-B:SER:385:CB:8380, V-B:LEU:373:CD1:8251, V-A:ASN:362:CB:3176, V-A:ASN:362:CG:3177, V-A:ASN:362:C:3172, H-B:HIS:383:NE2:8365, V-B:VAL:384:C:8368"]

$$$$
4bj_Grossjean_2025
     RDKit          3D

 32 34  0  0  0  0  0  0  0  0999 V2000
  133.5110  130.8360   62.5190 C   0  0  0  0  0  0  0  0  0  0  0  0
  132.3330  131.3330   61.7010 C   0  0  0  0  0  0  0  0  0  0  0  0
  132.3320  131.2350   60.3120 C   0  0  0  0  0  0  0  0  0  0  0  0
  131.2380  131.7040   59.5680 C   0  0  0  0  0  0  0  0  0  0  0  0
  131.2830  131.5780   58.0410 C   0  0  0  0  0  0  0  0  0  0  0  0
  132.4070  131.0100   57.5970 F   0  0  0  0  0  0  0  0  0  0  0  0
  130.2640  130.8300   57.6200 F   0  0  0  0  0  0  0  0  0  0  0  0
  131.2010  132.7880   57.4870 F   0  0  0  0  0  0  0  0  0  0  0  0
  130.1490  132.2710   60.2950 C   0  0  0  0  0  0  0  0  0  0  0  0
  128.8900  132.8460   59.8870 C   0  0  0  0  0  0  0  0  0  0  0  0
  128.5120  132.9470   58.5720 N   0  0  0  0  0  0  0  0  0  0  0  0
  128.0880  133.2840   60.9530 C   0  0  0  0  0  0  0  0  0  0  0  0
  126.7690  133.9190   60.9020 C   0  0  0  0  0  0  0  0  0  0  0  0
  125.7450  133.2400   60.7910 O   0  0  0  0  0  0  0  0  0  0  0  0
  126.7680  135.2710   60.9990 N   0  0  0  0  0  0  0  0  0  0  0  0
  125.6610  136.1080   60.9890 C   0  0  0  0  0  0  0  0  0  0  0  0
  125.6120  137.3880   61.2880 N   0  0  0  0  0  0  0  0  0  0  0  0
  124.3910  137.8680   61.1640 C   0  0  0  0  0  0  0  0  0  0  0  0
  123.4130  136.9670   60.7560 C   0  0  0  0  0  0  0  0  0  0  0  0
  124.1430  135.4060   60.5280 S   0  0  0  0  0  0  0  0  0  0  0  0
  128.8830  133.0170   62.5030 S   0  0  0  0  0  0  0  0  0  0  0  0
  130.2740  132.3070   61.7180 C   0  0  0  0  0  0  0  0  0  0  0  0
  131.3160  131.8630   62.4200 N   0  0  0  0  0  0  0  0  0  0  0  0
  133.2806  130.9332   63.5902 H   0  0  0  0  0  0  0  0  0  0  0  0
  133.7039  129.7798   62.2798 H   0  0  0  0  0  0  0  0  0  0  0  0
  134.4022  131.4348   62.2798 H   0  0  0  0  0  0  0  0  0  0  0  0
  133.1935  130.7875   59.7948 H   0  0  0  0  0  0  0  0  0  0  0  0
  127.5870  132.6910   58.2600 H   0  0  0  0  0  0  0  0  0  0  0  0
  129.1550  133.2780   57.8660 H   0  0  0  0  0  0  0  0  0  0  0  0
  127.6620  135.7290   61.0960 H   0  0  0  0  0  0  0  0  0  0  0  0
  124.1581  138.9228   61.3717 H   0  0  0  0  0  0  0  0  0  0  0  0
  122.3498  137.2039   60.6025 H   0  0  0  0  0  0  0  0  0  0  0  0
  1  2  1  0
  2  3  2  0
  3  4  1  0
  4  5  1  0
  5  6  1  0
  5  7  1  0
  5  8  1  0
  4  9  2  0
  9 10  1  0
 10 11  1  0
 10 12  2  0
 12 13  1  0
 13 14  2  0
 13 15  1  0
 15 16  1  0
 16 17  2  0
 17 18  1  0
 18 19  2  0
 19 20  1  0
 12 21  1  0
 21 22  1  0
 22 23  2  0
 23  2  1  0
 22  9  1  0
 20 16  1  0
  1 24  1  0
  1 25  1  0
  1 26  1  0
  3 27  1  0
 11 28  1  0
 11 29  1  0
 15 30  1  0
 18 31  1  0
 19 32  1  0
M  END
>  <Binding energies>  (1) 
[-6.02]

>  <Ligand effiencies>  (1) 
[-0.23153846153846153]

>  <Interactions>  (1) 
["V-A:GLU:543:CD:4908, V-A:TYR:539:CD1:4873, V-A:LEU:363:CD1:3189, V-A:TYR:531:CE2:4793, V-B:LEU:475:CD2:9230, V-A:ALA:541:CB:4892, V-A:PRO:540:CA:4883, V-B:ILE:369:CG2:8208, V-A:PRO:540:CB:4885, V-A:TYR:539:CE1:4875, V-A:TYR:539:C:4867, V-A:ALA:541:CA:4890, V-A:PRO:540:N:4884, V-A:ASP:366:CG:3213, V-A:PRO:540:C:4881, V-A:ARG:545:CZ:4926, H-A:ALA:541:N:4891, H-A:TYR:539:O:4868, V-A:PRO:540:CD:4887, V-A:TYR:539:CG:4872, V-B:SER:385:CA:8378, V-B:HIS:383:CD2:8363, V-B:SER:385:CB:8380, V-B:LEU:373:CD1:8251, V-A:ASN:362:CB:3176, V-A:ASN:362:CG:3177, V-A:ASN:362:C:3172, H-B:HIS:383:NE2:8365, V-A:ASN:362:CA:3174, V-B:VAL:384:C:8368"]

$$$$
4bk_Grossjean_2025
     RDKit          3D

 50 51  0  0  0  0  0  0  0  0999 V2000
  133.8920  124.0100   58.0560 C   0  0  0  0  0  0  0  0  0  0  0  0
  133.3730  124.9840   58.9480 O   0  0  0  0  0  0  0  0  0  0  0  0
  132.8340  124.4290   60.1410 C   0  0  0  0  0  0  0  0  0  0  0  0
  133.8410  123.4410   60.7450 C   0  0  0  0  0  0  0  0  0  0  0  0
  134.1560  123.8410   62.0720 O   0  0  0  0  0  0  0  0  0  0  0  0
  133.4440  124.9910   62.5090 C   0  0  0  0  0  0  0  0  0  0  0  0
  133.0620  124.8230   63.9860 C   0  0  0  0  0  0  0  0  0  0  0  0
  131.6460  124.8200   64.1070 O   0  0  0  0  0  0  0  0  0  0  0  0
  131.0930  123.5330   64.3530 C   0  0  0  0  0  0  0  0  0  0  0  0
  129.5600  123.6080   64.2450 C   0  0  0  0  0  0  0  0  0  0  0  0
  129.0620  123.5200   62.8720 N   0  0  0  0  0  0  0  0  0  0  0  0
  127.8770  122.9900   62.5050 C   0  0  0  0  0  0  0  0  0  0  0  0
  127.0750  122.5360   63.3230 O   0  0  0  0  0  0  0  0  0  0  0  0
  127.5870  122.9920   61.0700 C   0  0  0  0  0  0  0  0  0  0  0  0
  128.6080  122.0800   59.9620 S   0  0  0  0  0  0  0  0  0  0  0  0
  127.6290  122.5600   58.5960 C   0  0  0  0  0  0  0  0  0  0  0  0
  127.9160  122.1570   57.3590 N   0  0  0  0  0  0  0  0  0  0  0  0
  127.0840  122.5920   56.3840 C   0  0  0  0  0  0  0  0  0  0  0  0
  127.4290  122.1190   54.9830 C   0  0  0  0  0  0  0  0  0  0  0  0
  125.9840  123.4140   56.6150 C   0  0  0  0  0  0  0  0  0  0  0  0
  125.6780  123.8440   57.9150 C   0  0  0  0  0  0  0  0  0  0  0  0
  124.4590  124.7500   58.1190 C   0  0  0  0  0  0  0  0  0  0  0  0
  123.6500  124.7840   57.0580 F   0  0  0  0  0  0  0  0  0  0  0  0
  123.7420  124.3160   59.1550 F   0  0  0  0  0  0  0  0  0  0  0  0
  124.8600  125.9990   58.3540 F   0  0  0  0  0  0  0  0  0  0  0  0
  126.5340  123.4010   58.9670 C   0  0  0  0  0  0  0  0  0  0  0  0
  126.5350  123.6260   60.3920 C   0  0  0  0  0  0  0  0  0  0  0  0
  125.5910  124.3950   61.0230 N   0  0  0  0  0  0  0  0  0  0  0  0
  134.3327  123.1830   58.6321 H   0  0  0  0  0  0  0  0  0  0  0  0
  133.0802  123.6236   57.4222 H   0  0  0  0  0  0  0  0  0  0  0  0
  134.6655  124.4684   57.4222 H   0  0  0  0  0  0  0  0  0  0  0  0
  132.6330  125.2348   60.8623 H   0  0  0  0  0  0  0  0  0  0  0  0
  131.8965  123.9022   59.9098 H   0  0  0  0  0  0  0  0  0  0  0  0
  133.4020  122.4325   60.7600 H   0  0  0  0  0  0  0  0  0  0  0  0
  134.7573  123.4317   60.1364 H   0  0  0  0  0  0  0  0  0  0  0  0
  134.0789  125.8818   62.3931 H   0  0  0  0  0  0  0  0  0  0  0  0
  132.5325  125.1105   61.9049 H   0  0  0  0  0  0  0  0  0  0  0  0
  133.4652  123.8719   64.3640 H   0  0  0  0  0  0  0  0  0  0  0  0
  133.4804  125.6547   64.5719 H   0  0  0  0  0  0  0  0  0  0  0  0
  131.4790  122.8193   63.6103 H   0  0  0  0  0  0  0  0  0  0  0  0
  131.3749  123.1980   65.3621 H   0  0  0  0  0  0  0  0  0  0  0  0
  129.1300  122.7776   64.8242 H   0  0  0  0  0  0  0  0  0  0  0  0
  129.2581  124.5916   64.6340 H   0  0  0  0  0  0  0  0  0  0  0  0
  129.6740  123.8760   62.1530 H   0  0  0  0  0  0  0  0  0  0  0  0
  128.0762  121.2317   55.0446 H   0  0  0  0  0  0  0  0  0  0  0  0
  126.5047  121.8621   54.4447 H   0  0  0  0  0  0  0  0  0  0  0  0
  127.9560  122.9206   54.4447 H   0  0  0  0  0  0  0  0  0  0  0  0
  125.3506  123.7284   55.7724 H   0  0  0  0  0  0  0  0  0  0  0  0
  125.5410  124.4610   62.0300 H   0  0  0  0  0  0  0  0  0  0  0  0
  124.9130  124.9300   60.4980 H   0  0  0  0  0  0  0  0  0  0  0  0
  1  2  1  0
  2  3  1  0
  3  4  1  0
  4  5  1  0
  5  6  1  0
  6  7  1  0
  7  8  1  0
  8  9  1  0
  9 10  1  0
 10 11  1  0
 11 12  1  0
 12 13  2  0
 12 14  1  0
 14 15  1  0
 15 16  1  0
 16 17  2  0
 17 18  1  0
 18 19  1  0
 18 20  2  0
 20 21  1  0
 21 22  1  0
 22 23  1  0
 22 24  1  0
 22 25  1  0
 21 26  2  0
 26 27  1  0
 27 28  1  0
 27 14  2  0
 26 16  1  0
  1 29  1  0
  1 30  1  0
  1 31  1  0
  3 32  1  0
  3 33  1  0
  4 34  1  0
  4 35  1  0
  6 36  1  0
  6 37  1  0
  7 38  1  0
  7 39  1  0
  9 40  1  0
  9 41  1  0
 10 42  1  0
 10 43  1  0
 11 44  1  0
 19 45  1  0
 19 46  1  0
 19 47  1  0
 20 48  1  0
 28 49  1  0
 28 50  1  0
M  END
>  <Binding energies>  (1) 
[-5.47]

>  <Ligand effiencies>  (1) 
[-0.1764516129032258]

>  <Interactions>  (1) 
["V-B:TYR:539:CE2:9848, V-B:LEU:363:CA:8156, V-B:LEU:363:CD1:8160, V-B:ASN:362:C:8143, V-B:MET:535:CE:9807, V-B:ASP:366:CB:8183, V-B:PRO:540:CB:9857, V-B:LEU:363:CB:8158, V-A:ILE:369:CG2:3237, H-B:ALA:541:N:9863, V-B:ASP:366:CG:8184, V-B:TYR:539:CZ:9849, V-B:TYR:539:CD2:9846, V-B:TYR:539:CG:9844, V-B:TYR:539:CE1:9847, H-B:TYR:539:N:9842, V-B:PRO:540:C:9853, V-B:TYR:531:CE2:9765, V-B:PRO:540:CA:9855, V-B:GLU:543:CG:9879, V-B:GLU:543:CD:9880, V-B:ALA:541:CB:9864, H-B:GLU:543:OE1:9881, V-A:ILE:369:CD1:3239, V-B:PRO:540:N:9856, V-B:TYR:539:CD1:9845, V-B:TYR:539:C:9839, V-A:ASP:366:CG:3213, V-A:ARG:545:CZ:4926, H-A:GLY:454:N:4050, V-B:TYR:531:CZ:9766, H-A:TYR:484:OH:4348, H-B:ASP:366:OD1:8185, V-B:ILE:538:CA:9832, V-A:ASP:366:CA:3210, V-A:ASP:366:C:3208, V-B:ILE:538:C:9830, V-A:ILE:369:CB:3236, V-B:LEU:363:CG:8159, V-B:TYR:531:CD2:9763"]

$$$$
4ca_Grossjean_2025
     RDKit          3D

 52 55  0  0  0  0  0  0  0  0999 V2000
  131.2680  131.8740   55.4330 C   0  0  0  0  0  0  0  0  0  0  0  0
  131.8550  132.4960   56.7040 C   0  0  0  0  0  0  0  0  0  0  0  0
  130.9270  133.4270   57.2470 O   0  0  0  0  0  0  0  0  0  0  0  0
  129.6280  133.0850   57.4490 C   0  0  0  0  0  0  0  0  0  0  0  0
  128.7160  133.3910   56.6740 O   0  0  0  0  0  0  0  0  0  0  0  0
  129.4120  132.2960   58.7070 C   0  0  0  0  0  0  0  0  0  0  0  0
  130.4900  132.0870   59.5780 C   0  0  0  0  0  0  0  0  0  0  0  0
  130.3200  131.3620   60.7540 C   0  0  0  0  0  0  0  0  0  0  0  0
  129.0750  130.8270   61.0820 C   0  0  0  0  0  0  0  0  0  0  0  0
  129.0140  130.1210   62.2990 N   0  0  0  0  0  0  0  0  0  0  0  0
  127.9480  129.5880   62.9460 C   0  0  0  0  0  0  0  0  0  0  0  0
  126.7960  129.6030   62.5110 O   0  0  0  0  0  0  0  0  0  0  0  0
  128.2510  128.9520   64.2300 C   0  0  0  0  0  0  0  0  0  0  0  0
  127.7910  129.7380   65.7390 S   0  0  0  0  0  0  0  0  0  0  0  0
  128.4210  128.4060   66.6780 C   0  0  0  0  0  0  0  0  0  0  0  0
  128.3600  128.4040   68.0070 N   0  0  0  0  0  0  0  0  0  0  0  0
  128.8620  127.3190   68.6510 C   0  0  0  0  0  0  0  0  0  0  0  0
  128.7700  127.3420   70.1490 C   0  0  0  0  0  0  0  0  0  0  0  0
  129.8700  127.7310   70.9310 C   0  0  0  0  0  0  0  0  0  0  0  0
  129.7930  127.7500   72.3210 C   0  0  0  0  0  0  0  0  0  0  0  0
  128.6100  127.3770   72.9520 C   0  0  0  0  0  0  0  0  0  0  0  0
  127.5070  126.9850   72.2020 C   0  0  0  0  0  0  0  0  0  0  0  0
  127.5880  126.9680   70.8120 C   0  0  0  0  0  0  0  0  0  0  0  0
  129.4430  126.2510   67.9570 C   0  0  0  0  0  0  0  0  0  0  0  0
  129.5160  126.2450   66.5560 C   0  0  0  0  0  0  0  0  0  0  0  0
  130.1620  125.0420   65.8600 C   0  0  0  0  0  0  0  0  0  0  0  0
  131.3910  125.2960   65.4080 F   0  0  0  0  0  0  0  0  0  0  0  0
  130.2540  124.0220   66.7130 F   0  0  0  0  0  0  0  0  0  0  0  0
  129.4220  124.6750   64.8140 F   0  0  0  0  0  0  0  0  0  0  0  0
  128.9760  127.3710   65.8700 C   0  0  0  0  0  0  0  0  0  0  0  0
  128.8630  127.7100   64.4720 C   0  0  0  0  0  0  0  0  0  0  0  0
  129.3160  126.8890   63.4720 N   0  0  0  0  0  0  0  0  0  0  0  0
  127.9880  131.0350   60.2200 C   0  0  0  0  0  0  0  0  0  0  0  0
  128.1590  131.7620   59.0450 C   0  0  0  0  0  0  0  0  0  0  0  0
  130.5370  131.0994   55.7078 H   0  0  0  0  0  0  0  0  0  0  0  0
  130.7696  132.6545   54.8393 H   0  0  0  0  0  0  0  0  0  0  0  0
  132.0760  131.4216   54.8393 H   0  0  0  0  0  0  0  0  0  0  0  0
  132.0547  131.7045   57.4413 H   0  0  0  0  0  0  0  0  0  0  0  0
  132.7942  133.0138   56.4594 H   0  0  0  0  0  0  0  0  0  0  0  0
  131.4791  132.4995   59.3301 H   0  0  0  0  0  0  0  0  0  0  0  0
  131.1745  131.2100   61.4298 H   0  0  0  0  0  0  0  0  0  0  0  0
  129.9100  129.9860   62.7430 H   0  0  0  0  0  0  0  0  0  0  0  0
  130.8077  128.0255   70.4371 H   0  0  0  0  0  0  0  0  0  0  0  0
  130.6638  128.0586   72.9181 H   0  0  0  0  0  0  0  0  0  0  0  0
  128.5473  127.3924   74.0501 H   0  0  0  0  0  0  0  0  0  0  0  0
  126.5742  126.6895   72.7045 H   0  0  0  0  0  0  0  0  0  0  0  0
  126.7127  126.6568   70.2229 H   0  0  0  0  0  0  0  0  0  0  0  0
  129.8505  125.3994   68.5215 H   0  0  0  0  0  0  0  0  0  0  0  0
  130.1740  127.0800   62.9720 H   0  0  0  0  0  0  0  0  0  0  0  0
  128.8070  126.0590   63.2000 H   0  0  0  0  0  0  0  0  0  0  0  0
  126.9997  130.6234   60.4726 H   0  0  0  0  0  0  0  0  0  0  0  0
  127.3019  131.9197   58.3737 H   0  0  0  0  0  0  0  0  0  0  0  0
  1  2  1  0
  2  3  1  0
  3  4  1  0
  4  5  2  0
  4  6  1  0
  6  7  2  0
  7  8  1  0
  8  9  2  0
  9 10  1  0
 10 11  1  0
 11 12  2  0
 11 13  1  0
 13 14  1  0
 14 15  1  0
 15 16  2  0
 16 17  1  0
 17 18  1  0
 18 19  2  0
 19 20  1  0
 20 21  2  0
 21 22  1  0
 22 23  2  0
 17 24  2  0
 24 25  1  0
 25 26  1  0
 26 27  1  0
 26 28  1  0
 26 29  1  0
 25 30  2  0
 30 31  1  0
 31 32  1  0
  9 33  1  0
 33 34  2  0
 34  6  1  0
 31 13  2  0
 30 15  1  0
 23 18  1  0
  1 35  1  0
  1 36  1  0
  1 37  1  0
  2 38  1  0
  2 39  1  0
  7 40  1  0
  8 41  1  0
 10 42  1  0
 19 43  1  0
 20 44  1  0
 21 45  1  0
 22 46  1  0
 23 47  1  0
 24 48  1  0
 32 49  1  0
 32 50  1  0
 33 51  1  0
 34 52  1  0
M  END
>  <Binding energies>  (1) 
[-8.51]

>  <Ligand effiencies>  (1) 
[-0.22999999999999998]

>  <Interactions>  (1) 
["V-B:GLU:543:C:9874, V-A:GLU:543:CD:4908, V-B:LYS:547:CE:9922, V-A:HIS:456:CE1:4070, V-B:GLY:544:C:9884, V-A:GLU:543:CB:4906, V-B:HIS:456:CE1:9041, V-B:HIS:456:CD2:9039, V-B:GLU:543:CB:9878, V-B:GLU:543:CA:9876, V-B:GLY:544:CA:9886, V-B:TYR:484:CZ:9318, V-B:GLU:543:CG:9879, V-B:GLU:543:CD:9880, V-A:GLU:543:CG:4907, V-A:TYR:484:CE2:4346, H-B:GLU:543:OE1:9881, V-A:TYR:484:CZ:4347, H-A:GLU:543:OE2:4910, V-A:LEU:363:CD1:3189, V-A:ILE:538:CG2:4863, V-A:ILE:538:CB:4862, H-A:GLU:543:OE1:4909, V-A:PRO:540:CA:4883, V-A:PRO:540:CB:4885, H-B:GLU:543:OE2:9882, V-A:TYR:539:C:4867, H-A:TYR:539:N:4870, V-A:PRO:540:N:4884, V-A:MET:535:CE:4835, V-A:TYR:539:CA:4869, V-A:MET:535:CG:4833"]

$$$$
4cb_Grossjean_2025
     RDKit          3D

 49 52  0  0  0  0  0  0  0  0999 V2000
  131.6620  132.5490   56.3420 C   0  0  0  0  0  0  0  0  0  0  0  0
  130.8980  133.3760   57.2080 O   0  0  0  0  0  0  0  0  0  0  0  0
  129.5960  133.0960   57.4740 C   0  0  0  0  0  0  0  0  0  0  0  0
  128.6670  133.3890   56.7160 O   0  0  0  0  0  0  0  0  0  0  0  0
  129.3970  132.3900   58.7860 C   0  0  0  0  0  0  0  0  0  0  0  0
  130.1870  131.2720   59.0880 C   0  0  0  0  0  0  0  0  0  0  0  0
  130.0320  130.6020   60.2980 C   0  0  0  0  0  0  0  0  0  0  0  0
  129.0830  131.0290   61.2270 C   0  0  0  0  0  0  0  0  0  0  0  0
  129.0210  130.2880   62.4220 N   0  0  0  0  0  0  0  0  0  0  0  0
  127.9640  129.6910   63.0260 C   0  0  0  0  0  0  0  0  0  0  0  0
  126.8240  129.6680   62.5610 O   0  0  0  0  0  0  0  0  0  0  0  0
  128.2620  129.0320   64.3010 C   0  0  0  0  0  0  0  0  0  0  0  0
  127.8340  129.8110   65.8220 S   0  0  0  0  0  0  0  0  0  0  0  0
  128.4400  128.4530   66.7410 C   0  0  0  0  0  0  0  0  0  0  0  0
  128.3920  128.4360   68.0700 N   0  0  0  0  0  0  0  0  0  0  0  0
  128.8780  127.3320   68.6960 C   0  0  0  0  0  0  0  0  0  0  0  0
  128.8060  127.3400   70.1960 C   0  0  0  0  0  0  0  0  0  0  0  0
  127.6200  126.9870   70.8590 C   0  0  0  0  0  0  0  0  0  0  0  0
  127.5440  126.9950   72.2490 C   0  0  0  0  0  0  0  0  0  0  0  0
  128.6580  127.3600   72.9990 C   0  0  0  0  0  0  0  0  0  0  0  0
  129.8450  127.7170   72.3670 C   0  0  0  0  0  0  0  0  0  0  0  0
  129.9150  127.7090   70.9770 C   0  0  0  0  0  0  0  0  0  0  0  0
  129.4290  126.2610   67.9840 C   0  0  0  0  0  0  0  0  0  0  0  0
  129.4870  126.2710   66.5820 C   0  0  0  0  0  0  0  0  0  0  0  0
  130.1010  125.0620   65.8640 C   0  0  0  0  0  0  0  0  0  0  0  0
  129.4200  124.6990   64.7750 F   0  0  0  0  0  0  0  0  0  0  0  0
  131.3440  125.3520   65.4780 F   0  0  0  0  0  0  0  0  0  0  0  0
  130.1280  124.0140   66.6860 F   0  0  0  0  0  0  0  0  0  0  0  0
  128.9650  127.4160   65.9150 C   0  0  0  0  0  0  0  0  0  0  0  0
  128.8450  127.7730   64.5220 C   0  0  0  0  0  0  0  0  0  0  0  0
  129.2670  126.9520   63.5080 N   0  0  0  0  0  0  0  0  0  0  0  0
  128.2900  132.1490   60.9340 C   0  0  0  0  0  0  0  0  0  0  0  0
  128.4470  132.8190   59.7240 C   0  0  0  0  0  0  0  0  0  0  0  0
  132.2883  131.8711   56.9405 H   0  0  0  0  0  0  0  0  0  0  0  0
  130.9850  131.9583   55.7074 H   0  0  0  0  0  0  0  0  0  0  0  0
  132.3044  133.1772   55.7074 H   0  0  0  0  0  0  0  0  0  0  0  0
  130.9358  130.9213   58.3625 H   0  0  0  0  0  0  0  0  0  0  0  0
  130.6625  129.7293   60.5235 H   0  0  0  0  0  0  0  0  0  0  0  0
  129.9110  130.1830   62.8880 H   0  0  0  0  0  0  0  0  0  0  0  0
  126.7363  126.6994   70.2705 H   0  0  0  0  0  0  0  0  0  0  0  0
  126.6072  126.7140   72.7525 H   0  0  0  0  0  0  0  0  0  0  0  0
  128.5998  127.3663   74.0974 H   0  0  0  0  0  0  0  0  0  0  0  0
  130.7238  128.0042   72.9630 H   0  0  0  0  0  0  0  0  0  0  0  0
  130.8540  127.9963   70.4812 H   0  0  0  0  0  0  0  0  0  0  0  0
  129.8244  125.3943   68.5340 H   0  0  0  0  0  0  0  0  0  0  0  0
  130.1290  127.1190   63.0090 H   0  0  0  0  0  0  0  0  0  0  0  0
  128.7280  126.1450   63.2250 H   0  0  0  0  0  0  0  0  0  0  0  0
  127.5429  132.4982   61.6619 H   0  0  0  0  0  0  0  0  0  0  0  0
  127.8192  133.6943   59.5012 H   0  0  0  0  0  0  0  0  0  0  0  0
  1  2  1  0
  2  3  1  0
  3  4  2  0
  3  5  1  0
  5  6  2  0
  6  7  1  0
  7  8  2  0
  8  9  1  0
  9 10  1  0
 10 11  2  0
 10 12  1  0
 12 13  1  0
 13 14  1  0
 14 15  2  0
 15 16  1  0
 16 17  1  0
 17 18  2  0
 18 19  1  0
 19 20  2  0
 20 21  1  0
 21 22  2  0
 16 23  2  0
 23 24  1  0
 24 25  1  0
 25 26  1  0
 25 27  1  0
 25 28  1  0
 24 29  2  0
 29 30  1  0
 30 31  1  0
  8 32  1  0
 32 33  2  0
 33  5  1  0
 30 12  2  0
 29 14  1  0
 22 17  1  0
  1 34  1  0
  1 35  1  0
  1 36  1  0
  6 37  1  0
  7 38  1  0
  9 39  1  0
 18 40  1  0
 19 41  1  0
 20 42  1  0
 21 43  1  0
 22 44  1  0
 23 45  1  0
 31 46  1  0
 31 47  1  0
 32 48  1  0
 33 49  1  0
M  END
>  <Binding energies>  (1) 
[-8.33]

>  <Ligand effiencies>  (1) 
[-0.2313888888888889]

>  <Interactions>  (1) 
["V-B:GLU:543:C:9874, V-A:GLU:543:CD:4908, V-B:LYS:547:CE:9922, V-A:HIS:456:CE1:4070, V-B:GLY:544:C:9884, V-A:GLU:543:CB:4906, V-B:HIS:456:CE1:9041, V-B:HIS:456:CD2:9039, V-B:GLU:543:CB:9878, V-B:GLU:543:CA:9876, V-B:TYR:484:CZ:9318, V-B:GLU:543:CG:9879, V-B:GLU:543:CD:9880, V-A:GLU:543:CG:4907, V-A:TYR:484:CE2:4346, H-B:GLU:543:OE1:9881, V-A:TYR:484:CZ:4347, V-A:TYR:539:CD1:4873, H-A:GLU:543:OE2:4910, V-A:LEU:363:CD1:3189, V-A:ILE:538:CG2:4863, V-A:ILE:538:CB:4862, H-A:GLU:543:OE1:4909, V-A:PRO:540:CA:4883, H-B:GLU:543:OE2:9882, V-A:TYR:539:C:4867, H-A:TYR:539:N:4870, V-A:PRO:540:N:4884, V-A:TYR:539:CA:4869"]

$$$$
4cc_Grossjean_2025
     RDKit          3D

 47 50  0  0  0  0  0  0  0  0999 V2000
  129.9800  132.6800   56.4100 C   0  0  0  0  0  0  0  0  0  0  0  0
  129.7640  133.3970   57.6210 O   0  0  0  0  0  0  0  0  0  0  0  0
  129.5130  132.6960   58.7840 C   0  0  0  0  0  0  0  0  0  0  0  0
  130.5190  131.8360   59.2220 C   0  0  0  0  0  0  0  0  0  0  0  0
  130.3580  131.0900   60.3860 C   0  0  0  0  0  0  0  0  0  0  0  0
  129.1770  131.1860   61.1250 C   0  0  0  0  0  0  0  0  0  0  0  0
  129.1100  130.4060   62.2950 N   0  0  0  0  0  0  0  0  0  0  0  0
  128.0730  129.6880   62.7880 C   0  0  0  0  0  0  0  0  0  0  0  0
  126.9820  129.5800   62.2260 O   0  0  0  0  0  0  0  0  0  0  0  0
  128.3220  129.0210   64.0700 C   0  0  0  0  0  0  0  0  0  0  0  0
  127.8810  129.8120   65.5820 S   0  0  0  0  0  0  0  0  0  0  0  0
  128.4600  128.4500   66.5130 C   0  0  0  0  0  0  0  0  0  0  0  0
  128.3960  128.4410   67.8430 N   0  0  0  0  0  0  0  0  0  0  0  0
  128.8610  127.3350   68.4790 C   0  0  0  0  0  0  0  0  0  0  0  0
  128.7780  127.3530   69.9780 C   0  0  0  0  0  0  0  0  0  0  0  0
  127.5960  126.9770   70.6370 C   0  0  0  0  0  0  0  0  0  0  0  0
  127.5110  126.9940   72.0260 C   0  0  0  0  0  0  0  0  0  0  0  0
  128.6110  127.3890   72.7800 C   0  0  0  0  0  0  0  0  0  0  0  0
  129.7930  127.7700   72.1530 C   0  0  0  0  0  0  0  0  0  0  0  0
  129.8730  127.7530   70.7630 C   0  0  0  0  0  0  0  0  0  0  0  0
  129.4040  126.2530   67.7790 C   0  0  0  0  0  0  0  0  0  0  0  0
  129.4780  126.2530   66.3770 C   0  0  0  0  0  0  0  0  0  0  0  0
  130.0800  125.0310   65.6740 C   0  0  0  0  0  0  0  0  0  0  0  0
  129.3830  124.6470   64.6020 F   0  0  0  0  0  0  0  0  0  0  0  0
  131.3180  125.3090   65.2660 F   0  0  0  0  0  0  0  0  0  0  0  0
  130.1170  123.9990   66.5170 F   0  0  0  0  0  0  0  0  0  0  0  0
  128.9850  127.4040   65.6990 C   0  0  0  0  0  0  0  0  0  0  0  0
  128.8960  127.7620   64.3040 C   0  0  0  0  0  0  0  0  0  0  0  0
  129.3340  126.9370   63.2990 N   0  0  0  0  0  0  0  0  0  0  0  0
  128.1640  132.0590   60.6980 C   0  0  0  0  0  0  0  0  0  0  0  0
  128.3310  132.8040   59.5340 C   0  0  0  0  0  0  0  0  0  0  0  0
  130.2901  131.6508   56.6436 H   0  0  0  0  0  0  0  0  0  0  0  0
  129.0484  132.6586   55.8254 H   0  0  0  0  0  0  0  0  0  0  0  0
  130.7684  133.1767   55.8254 H   0  0  0  0  0  0  0  0  0  0  0  0
  131.4493  131.7461   58.6419 H   0  0  0  0  0  0  0  0  0  0  0  0
  131.1639  130.4225   60.7250 H   0  0  0  0  0  0  0  0  0  0  0  0
  129.9730  130.3600   62.8160 H   0  0  0  0  0  0  0  0  0  0  0  0
  126.7230  126.6639   70.0455 H   0  0  0  0  0  0  0  0  0  0  0  0
  126.5774  126.6962   72.5257 H   0  0  0  0  0  0  0  0  0  0  0  0
  128.5460  127.4002   73.8780 H   0  0  0  0  0  0  0  0  0  0  0  0
  130.6604  128.0832   72.7526 H   0  0  0  0  0  0  0  0  0  0  0  0
  130.8086  128.0576   70.2712 H   0  0  0  0  0  0  0  0  0  0  0  0
  129.7809  125.3840   68.3383 H   0  0  0  0  0  0  0  0  0  0  0  0
  128.8050  126.1280   63.0030 H   0  0  0  0  0  0  0  0  0  0  0  0
  130.2060  127.1110   62.8190 H   0  0  0  0  0  0  0  0  0  0  0  0
  127.2377  132.1544   61.2835 H   0  0  0  0  0  0  0  0  0  0  0  0
  127.5317  133.4817   59.1996 H   0  0  0  0  0  0  0  0  0  0  0  0
  1  2  1  0
  2  3  1  0
  3  4  2  0
  4  5  1  0
  5  6  2  0
  6  7  1  0
  7  8  1  0
  8  9  2  0
  8 10  1  0
 10 11  1  0
 11 12  1  0
 12 13  2  0
 13 14  1  0
 14 15  1  0
 15 16  2  0
 16 17  1  0
 17 18  2  0
 18 19  1  0
 19 20  2  0
 14 21  2  0
 21 22  1  0
 22 23  1  0
 23 24  1  0
 23 25  1  0
 23 26  1  0
 22 27  2  0
 27 28  1  0
 28 29  1  0
  6 30  1  0
 30 31  2  0
 31  3  1  0
 28 10  2  0
 27 12  1  0
 20 15  1  0
  1 32  1  0
  1 33  1  0
  1 34  1  0
  4 35  1  0
  5 36  1  0
  7 37  1  0
 16 38  1  0
 17 39  1  0
 18 40  1  0
 19 41  1  0
 20 42  1  0
 21 43  1  0
 29 44  1  0
 29 45  1  0
 30 46  1  0
 31 47  1  0
M  END
>  <Binding energies>  (1) 
[-7.52]

>  <Ligand effiencies>  (1) 
[-0.22117647058823528]

>  <Interactions>  (1) 
["V-B:GLU:543:C:9874, V-A:GLU:543:CD:4908, V-A:HIS:456:CE1:4070, V-B:GLY:544:C:9884, V-A:GLU:543:CB:4906, V-B:HIS:456:CE1:9041, V-B:HIS:456:CD2:9039, V-B:GLU:543:CB:9878, V-B:GLU:543:CA:9876, V-B:GLY:544:CA:9886, V-B:TYR:484:CZ:9318, V-B:GLU:543:CG:9879, V-B:GLU:543:CD:9880, V-A:GLU:543:CG:4907, V-A:TYR:484:CE2:4346, H-B:GLU:543:OE1:9881, V-A:TYR:484:CZ:4347, V-A:TYR:539:CD1:4873, H-A:GLU:543:OE2:4910, V-A:ILE:538:CB:4862, H-A:GLU:543:OE1:4909, V-A:PRO:540:CA:4883, V-A:PRO:540:CB:4885, V-A:TYR:539:CE1:4875, V-A:TYR:539:C:4867, H-A:TYR:539:N:4870, V-A:PRO:540:N:4884, V-A:MET:535:CE:4835, V-A:ILE:538:CA:4860"]

$$$$
4cd_Grossjean_2025
     RDKit          3D

 43 46  0  0  0  0  0  0  0  0999 V2000
  126.0020  127.6360   61.3350 N   0  0  0  0  0  0  0  0  0  0  0  0
  126.1020  128.7120   60.4910 C   0  0  0  0  0  0  0  0  0  0  0  0
  126.4500  128.5970   59.1350 C   0  0  0  0  0  0  0  0  0  0  0  0
  126.7790  127.3870   58.3760 C   0  0  0  0  0  0  0  0  0  0  0  0
  127.7430  127.3690   57.6100 O   0  0  0  0  0  0  0  0  0  0  0  0
  125.9620  126.3270   58.5900 N   0  0  0  0  0  0  0  0  0  0  0  0
  125.9700  125.0530   57.9920 C   0  0  0  0  0  0  0  0  0  0  0  0
  127.2080  124.4070   57.9440 C   0  0  0  0  0  0  0  0  0  0  0  0
  127.3160  123.1380   57.3840 C   0  0  0  0  0  0  0  0  0  0  0  0
  126.1830  122.5090   56.8750 C   0  0  0  0  0  0  0  0  0  0  0  0
  124.9410  123.1350   56.9280 C   0  0  0  0  0  0  0  0  0  0  0  0
  124.8280  124.4060   57.4880 C   0  0  0  0  0  0  0  0  0  0  0  0
  126.4740  130.1740   58.3490 S   0  0  0  0  0  0  0  0  0  0  0  0
  126.0300  130.9740   59.8380 C   0  0  0  0  0  0  0  0  0  0  0  0
  125.8810  132.2950   59.8990 N   0  0  0  0  0  0  0  0  0  0  0  0
  125.5480  132.8270   61.1040 C   0  0  0  0  0  0  0  0  0  0  0  0
  125.3890  134.3190   61.1430 C   0  0  0  0  0  0  0  0  0  0  0  0
  124.1250  134.9120   60.9870 C   0  0  0  0  0  0  0  0  0  0  0  0
  123.9710  136.2950   61.0230 C   0  0  0  0  0  0  0  0  0  0  0  0
  125.0820  137.1080   61.2160 C   0  0  0  0  0  0  0  0  0  0  0  0
  126.3440  136.5480   61.3770 C   0  0  0  0  0  0  0  0  0  0  0  0
  126.4940  135.1650   61.3430 C   0  0  0  0  0  0  0  0  0  0  0  0
  125.3470  132.0300   62.2350 C   0  0  0  0  0  0  0  0  0  0  0  0
  125.4980  130.6340   62.1790 C   0  0  0  0  0  0  0  0  0  0  0  0
  125.2670  129.8200   63.4580 C   0  0  0  0  0  0  0  0  0  0  0  0
  126.1470  128.8280   63.6140 F   0  0  0  0  0  0  0  0  0  0  0  0
  125.3680  130.6140   64.5230 F   0  0  0  0  0  0  0  0  0  0  0  0
  124.0510  129.2730   63.4300 F   0  0  0  0  0  0  0  0  0  0  0  0
  125.8600  130.0670   60.9240 C   0  0  0  0  0  0  0  0  0  0  0  0
  125.2540  126.9610   61.2530 H   0  0  0  0  0  0  0  0  0  0  0  0
  126.6780  127.4780   62.0690 H   0  0  0  0  0  0  0  0  0  0  0  0
  125.2460  126.4520   59.2910 H   0  0  0  0  0  0  0  0  0  0  0  0
  128.1011  124.9039   58.3507 H   0  0  0  0  0  0  0  0  0  0  0  0
  128.2927  122.6336   57.3435 H   0  0  0  0  0  0  0  0  0  0  0  0
  126.2702  121.5082   56.4269 H   0  0  0  0  0  0  0  0  0  0  0  0
  124.0505  122.6275   56.5287 H   0  0  0  0  0  0  0  0  0  0  0  0
  123.8474  124.9021   57.5356 H   0  0  0  0  0  0  0  0  0  0  0  0
  123.2427  134.2731   60.8339 H   0  0  0  0  0  0  0  0  0  0  0  0
  122.9740  136.7429   60.8992 H   0  0  0  0  0  0  0  0  0  0  0  0
  124.9617  138.2011   61.2415 H   0  0  0  0  0  0  0  0  0  0  0  0
  127.2201  137.1952   61.5306 H   0  0  0  0  0  0  0  0  0  0  0  0
  127.4940  134.7262   61.4748 H   0  0  0  0  0  0  0  0  0  0  0  0
  125.0654  132.5046   63.1865 H   0  0  0  0  0  0  0  0  0  0  0  0
  1  2  1  0
  2  3  2  0
  3  4  1  0
  4  5  2  0
  4  6  1  0
  6  7  1  0
  7  8  2  0
  8  9  1  0
  9 10  2  0
 10 11  1  0
 11 12  2  0
  3 13  1  0
 13 14  1  0
 14 15  2  0
 15 16  1  0
 16 17  1  0
 17 18  2  0
 18 19  1  0
 19 20  2  0
 20 21  1  0
 21 22  2  0
 16 23  2  0
 23 24  1  0
 24 25  1  0
 25 26  1  0
 25 27  1  0
 25 28  1  0
 24 29  2  0
 29  2  1  0
 12  7  1  0
 29 14  1  0
 22 17  1  0
  1 30  1  0
  1 31  1  0
  6 32  1  0
  8 33  1  0
  9 34  1  0
 10 35  1  0
 11 36  1  0
 12 37  1  0
 18 38  1  0
 19 39  1  0
 20 40  1  0
 21 41  1  0
 22 42  1  0
 23 43  1  0
M  END
>  <Binding energies>  (1) 
[-7.51]

>  <Ligand effiencies>  (1) 
[-0.2346875]

>  <Interactions>  (1) 
["V-B:LEU:363:CD1:8160, V-B:MET:535:CE:9807, V-B:ASP:366:CB:8183, V-B:PRO:540:CB:9857, V-B:ASP:366:CG:8184, V-B:TYR:531:CE2:9765, V-B:PRO:540:CA:9855, V-B:TYR:484:CZ:9318, V-B:GLU:543:CD:9880, H-B:GLU:543:OE1:9881, V-A:TYR:539:CD1:4873, V-B:LEU:475:CD2:9230, V-B:ILE:369:CG2:8208, H-B:GLU:543:OE2:9882, V-B:PRO:540:N:9856, V-A:TYR:539:CE1:4875, V-B:TYR:539:C:9839, V-B:PRO:540:CD:9859, H-B:TYR:531:OH:9767, H-B:ASP:366:OD1:8185, V-B:ARG:545:CZ:9898, V-B:SER:385:CA:8378, V-B:HIS:383:CD2:8363, V-B:SER:385:CB:8380, H-B:ASP:366:OD2:8186, V-B:LEU:373:CD1:8251"]

$$$$
4ce_Grossjean_2025
     RDKit          3D

 45 48  0  0  0  0  0  0  0  0999 V2000
  123.0680  130.7060   76.7510 C   0  0  0  0  0  0  0  0  0  0  0  0
  124.3250  130.1780   76.0850 C   0  0  0  0  0  0  0  0  0  0  0  0
  124.4260  128.8490   75.6660 C   0  0  0  0  0  0  0  0  0  0  0  0
  125.6090  128.4350   75.0530 C   0  0  0  0  0  0  0  0  0  0  0  0
  126.6500  129.3480   74.8740 C   0  0  0  0  0  0  0  0  0  0  0  0
  126.4840  130.6640   75.3220 C   0  0  0  0  0  0  0  0  0  0  0  0
  127.5570  131.5430   75.0910 N   0  0  0  0  0  0  0  0  0  0  0  0
  127.6100  132.6220   74.2700 C   0  0  0  0  0  0  0  0  0  0  0  0
  126.6600  133.0090   73.5880 O   0  0  0  0  0  0  0  0  0  0  0  0
  128.8940  133.3260   74.2380 C   0  0  0  0  0  0  0  0  0  0  0  0
  130.3110  132.5540   73.5310 S   0  0  0  0  0  0  0  0  0  0  0  0
  131.2900  133.9680   73.8370 C   0  0  0  0  0  0  0  0  0  0  0  0
  132.5740  134.0100   73.4920 N   0  0  0  0  0  0  0  0  0  0  0  0
  133.2510  135.1590   73.7570 C   0  0  0  0  0  0  0  0  0  0  0  0
  134.6950  135.1770   73.3520 C   0  0  0  0  0  0  0  0  0  0  0  0
  135.5430  134.1050   73.6750 C   0  0  0  0  0  0  0  0  0  0  0  0
  136.8860  134.1170   73.3090 C   0  0  0  0  0  0  0  0  0  0  0  0
  137.4010  135.2040   72.6100 C   0  0  0  0  0  0  0  0  0  0  0  0
  136.5830  136.2780   72.2780 C   0  0  0  0  0  0  0  0  0  0  0  0
  135.2410  136.2640   72.6490 C   0  0  0  0  0  0  0  0  0  0  0  0
  132.6390  136.2500   74.3840 C   0  0  0  0  0  0  0  0  0  0  0  0
  131.2860  136.2140   74.7560 C   0  0  0  0  0  0  0  0  0  0  0  0
  130.6790  137.4440   75.4380 C   0  0  0  0  0  0  0  0  0  0  0  0
  131.5940  138.2340   76.0040 F   0  0  0  0  0  0  0  0  0  0  0  0
  130.0210  138.1780   74.5400 F   0  0  0  0  0  0  0  0  0  0  0  0
  129.8360  137.0600   76.3950 F   0  0  0  0  0  0  0  0  0  0  0  0
  130.5630  135.0200   74.4690 C   0  0  0  0  0  0  0  0  0  0  0  0
  129.1940  134.6230   74.6880 C   0  0  0  0  0  0  0  0  0  0  0  0
  128.2700  135.4430   75.2830 N   0  0  0  0  0  0  0  0  0  0  0  0
  125.3280  131.0780   75.9190 N   0  0  0  0  0  0  0  0  0  0  0  0
  123.1839  130.6573   77.8438 H   0  0  0  0  0  0  0  0  0  0  0  0
  122.9022  131.7498   76.4460 H   0  0  0  0  0  0  0  0  0  0  0  0
  122.2066  130.0937   76.4460 H   0  0  0  0  0  0  0  0  0  0  0  0
  123.5932  128.1462   75.8158 H   0  0  0  0  0  0  0  0  0  0  0  0
  125.7209  127.3950   74.7126 H   0  0  0  0  0  0  0  0  0  0  0  0
  127.5869  129.0379   74.3881 H   0  0  0  0  0  0  0  0  0  0  0  0
  128.3800  131.3580   75.6450 H   0  0  0  0  0  0  0  0  0  0  0  0
  135.1396  133.2425   74.2258 H   0  0  0  0  0  0  0  0  0  0  0  0
  137.5374  133.2704   73.5714 H   0  0  0  0  0  0  0  0  0  0  0  0
  138.4616  135.2138   72.3183 H   0  0  0  0  0  0  0  0  0  0  0  0
  136.9942  137.1351   71.7246 H   0  0  0  0  0  0  0  0  0  0  0  0
  134.5982  137.1175   72.3876 H   0  0  0  0  0  0  0  0  0  0  0  0
  133.2303  137.1545   74.5896 H   0  0  0  0  0  0  0  0  0  0  0  0
  128.2560  135.5990   76.2810 H   0  0  0  0  0  0  0  0  0  0  0  0
  127.5640  135.9210   74.7390 H   0  0  0  0  0  0  0  0  0  0  0  0
  1  2  1  0
  2  3  2  0
  3  4  1  0
  4  5  2  0
  5  6  1  0
  6  7  1  0
  7  8  1  0
  8  9  2  0
  8 10  1  0
 10 11  1  0
 11 12  1  0
 12 13  2  0
 13 14  1  0
 14 15  1  0
 15 16  2  0
 16 17  1  0
 17 18  2  0
 18 19  1  0
 19 20  2  0
 14 21  2  0
 21 22  1  0
 22 23  1  0
 23 24  1  0
 23 25  1  0
 23 26  1  0
 22 27  2  0
 27 28  1  0
 28 29  1  0
  6 30  2  0
 30  2  1  0
 28 10  2  0
 27 12  1  0
 20 15  1  0
  1 31  1  0
  1 32  1  0
  1 33  1  0
  3 34  1  0
  4 35  1  0
  5 36  1  0
  7 37  1  0
 16 38  1  0
 17 39  1  0
 18 40  1  0
 19 41  1  0
 20 42  1  0
 21 43  1  0
 29 44  1  0
 29 45  1  0
M  END
>  <Binding energies>  (1) 
[-7.64]

>  <Ligand effiencies>  (1) 
[-0.2315151515151515]

>  <Interactions>  (1) 
["V-B:HIS:456:CG:9037, V-B:VAL:458:CG2:9058, V-A:GLU:543:C:4902, V-B:HIS:456:CB:9036, V-B:LYS:547:CE:9922, V-B:HIS:456:CD2:9039, V-B:LYS:471:CD:9190, V-A:GLY:544:CA:4914, V-B:ASP:473:CG:9211, V-B:HIS:456:C:9032, V-B:HIS:456:CA:9034, V-A:LYS:547:CE:4950, V-A:VAL:542:CG1:4899, V-B:TYR:484:CB:9312, H-B:LYS:471:NZ:9192, V-A:GLU:357:CB:3134, V-A:ILE:546:C:4934, V-B:TYR:484:C:9308, V-B:VAL:457:C:9044, V-B:LYS:471:CG:9189, V-B:VAL:457:CA:9046, V-B:LYS:471:CB:9188, V-B:ASP:485:CA:9324, V-B:ASP:485:CB:9326, V-B:LYS:471:C:9184, V-A:ARG:356:CB:3117, H-B:ASP:473:OD2:9213, V-A:GLU:357:CA:3132, H-B:TYR:484:O:9309"]

$$$$
4cf_Grossjean_2025
     RDKit          3D

 42 45  0  0  0  0  0  0  0  0999 V2000
  126.0160  127.6080   61.3330 N   0  0  0  0  0  0  0  0  0  0  0  0
  126.1020  128.6830   60.4870 C   0  0  0  0  0  0  0  0  0  0  0  0
  126.4370  128.5680   59.1280 C   0  0  0  0  0  0  0  0  0  0  0  0
  126.7820  127.3620   58.3700 C   0  0  0  0  0  0  0  0  0  0  0  0
  127.7550  127.3540   57.6140 O   0  0  0  0  0  0  0  0  0  0  0  0
  125.9750  126.2940   58.5790 N   0  0  0  0  0  0  0  0  0  0  0  0
  125.9990  125.0200   57.9810 C   0  0  0  0  0  0  0  0  0  0  0  0
  124.8810  124.3420   57.4580 C   0  0  0  0  0  0  0  0  0  0  0  0
  125.0430  123.0700   56.9040 C   0  0  0  0  0  0  0  0  0  0  0  0
  126.3180  122.5040   56.8880 C   0  0  0  0  0  0  0  0  0  0  0  0
  127.4100  123.1330   57.3920 N   0  0  0  0  0  0  0  0  0  0  0  0
  127.2370  124.3690   57.9290 C   0  0  0  0  0  0  0  0  0  0  0  0
  126.4490  130.1450   58.3400 S   0  0  0  0  0  0  0  0  0  0  0  0
  126.0150  130.9440   59.8330 C   0  0  0  0  0  0  0  0  0  0  0  0
  125.8650  132.2660   59.8960 N   0  0  0  0  0  0  0  0  0  0  0  0
  125.5430  132.7970   61.1040 C   0  0  0  0  0  0  0  0  0  0  0  0
  125.3880  134.2890   61.1460 C   0  0  0  0  0  0  0  0  0  0  0  0
  126.5010  135.1210   61.3410 C   0  0  0  0  0  0  0  0  0  0  0  0
  126.3670  136.5060   61.3800 C   0  0  0  0  0  0  0  0  0  0  0  0
  125.1100  137.0810   61.2220 C   0  0  0  0  0  0  0  0  0  0  0  0
  123.9890  136.2810   61.0240 C   0  0  0  0  0  0  0  0  0  0  0  0
  124.1290  134.8960   60.9860 C   0  0  0  0  0  0  0  0  0  0  0  0
  125.3490  131.9980   62.2350 C   0  0  0  0  0  0  0  0  0  0  0  0
  125.5000  130.6040   62.1780 C   0  0  0  0  0  0  0  0  0  0  0  0
  125.2780  129.7890   63.4580 C   0  0  0  0  0  0  0  0  0  0  0  0
  126.1390  128.7770   63.5910 F   0  0  0  0  0  0  0  0  0  0  0  0
  125.4200  130.5760   64.5240 F   0  0  0  0  0  0  0  0  0  0  0  0
  124.0510  129.2690   63.4550 F   0  0  0  0  0  0  0  0  0  0  0  0
  125.8560  130.0370   60.9210 C   0  0  0  0  0  0  0  0  0  0  0  0
  125.2720  126.9280   61.2590 H   0  0  0  0  0  0  0  0  0  0  0  0
  126.6990  127.4570   62.0630 H   0  0  0  0  0  0  0  0  0  0  0  0
  125.2440  126.4170   59.2650 H   0  0  0  0  0  0  0  0  0  0  0  0
  123.8864  124.8111   57.4856 H   0  0  0  0  0  0  0  0  0  0  0  0
  124.1823  122.5254   56.4886 H   0  0  0  0  0  0  0  0  0  0  0  0
  126.4438  121.5039   56.4475 H   0  0  0  0  0  0  0  0  0  0  0  0
  128.1153  124.8848   58.3444 H   0  0  0  0  0  0  0  0  0  0  0  0
  127.4969  134.6708   61.4652 H   0  0  0  0  0  0  0  0  0  0  0  0
  127.2505  137.1427   61.5350 H   0  0  0  0  0  0  0  0  0  0  0  0
  125.0017  138.1752   61.2538 H   0  0  0  0  0  0  0  0  0  0  0  0
  122.9974  136.7401   60.8981 H   0  0  0  0  0  0  0  0  0  0  0  0
  123.2408  134.2665   60.8283 H   0  0  0  0  0  0  0  0  0  0  0  0
  125.0725  132.4716   63.1885 H   0  0  0  0  0  0  0  0  0  0  0  0
  1  2  1  0
  2  3  2  0
  3  4  1  0
  4  5  2  0
  4  6  1  0
  6  7  1  0
  7  8  2  0
  8  9  1  0
  9 10  2  0
 10 11  1  0
 11 12  2  0
  3 13  1  0
 13 14  1  0
 14 15  2  0
 15 16  1  0
 16 17  1  0
 17 18  2  0
 18 19  1  0
 19 20  2  0
 20 21  1  0
 21 22  2  0
 16 23  2  0
 23 24  1  0
 24 25  1  0
 25 26  1  0
 25 27  1  0
 25 28  1  0
 24 29  2  0
 29  2  1  0
 12  7  1  0
 29 14  1  0
 22 17  1  0
  1 30  1  0
  1 31  1  0
  6 32  1  0
  8 33  1  0
  9 34  1  0
 10 35  1  0
 12 36  1  0
 18 37  1  0
 19 38  1  0
 20 39  1  0
 21 40  1  0
 22 41  1  0
 23 42  1  0
M  END
>  <Binding energies>  (1) 
[-7.17]

>  <Ligand effiencies>  (1) 
[-0.2240625]

>  <Interactions>  (1) 
["V-B:LEU:363:CD1:8160, V-B:MET:535:CE:9807, V-B:ASP:366:CB:8183, V-B:PRO:540:CB:9857, V-B:ASP:366:CG:8184, V-B:TYR:531:CE2:9765, V-B:PRO:540:CA:9855, V-B:TYR:484:CZ:9318, V-B:GLU:543:CD:9880, H-B:GLU:543:OE1:9881, V-A:TYR:539:CD1:4873, V-B:LEU:475:CD2:9230, V-B:ILE:369:CG2:8208, H-B:GLU:543:OE2:9882, V-B:PRO:540:N:9856, V-A:TYR:539:CE1:4875, V-B:TYR:539:C:9839, V-B:PRO:540:CD:9859, H-B:TYR:531:OH:9767, H-B:ASP:366:OD1:8185, V-B:ARG:545:CZ:9898, V-B:SER:385:CA:8378, V-B:HIS:383:CD2:8363, V-B:SER:385:CB:8380, H-B:ASP:366:OD2:8186, V-B:LEU:373:CD1:8251"]

$$$$
4cg_Grossjean_2025
     RDKit          3D

 46 49  0  0  0  0  0  0  0  0999 V2000
  128.6950  127.3550   63.6510 N   0  0  0  0  0  0  0  0  0  0  0  0
  129.0730  126.5940   64.7270 C   0  0  0  0  0  0  0  0  0  0  0  0
  129.5500  125.2810   64.6090 C   0  0  0  0  0  0  0  0  0  0  0  0
  129.7840  124.5010   63.3940 C   0  0  0  0  0  0  0  0  0  0  0  0
  130.9250  124.2420   63.0070 O   0  0  0  0  0  0  0  0  0  0  0  0
  128.6820  124.1230   62.7120 N   0  0  0  0  0  0  0  0  0  0  0  0
  128.6760  123.3220   61.4890 C   0  0  0  0  0  0  0  0  0  0  0  0
  127.4270  123.5240   60.6380 C   0  0  0  0  0  0  0  0  0  0  0  0
  126.2000  123.7780   61.2570 C   0  0  0  0  0  0  0  0  0  0  0  0
  125.0620  123.9940   60.4820 C   0  0  0  0  0  0  0  0  0  0  0  0
  125.1590  123.9670   59.0930 C   0  0  0  0  0  0  0  0  0  0  0  0
  126.3830  123.7310   58.4710 C   0  0  0  0  0  0  0  0  0  0  0  0
  127.5210  123.5160   59.2440 C   0  0  0  0  0  0  0  0  0  0  0  0
  129.9620  124.6030   66.1820 S   0  0  0  0  0  0  0  0  0  0  0  0
  129.4710  126.0740   66.9890 C   0  0  0  0  0  0  0  0  0  0  0  0
  129.5470  126.1980   68.3110 N   0  0  0  0  0  0  0  0  0  0  0  0
  129.1470  127.3800   68.8500 C   0  0  0  0  0  0  0  0  0  0  0  0
  129.2430  127.4880   70.3450 C   0  0  0  0  0  0  0  0  0  0  0  0
  130.3670  128.0700   70.9560 C   0  0  0  0  0  0  0  0  0  0  0  0
  130.4610  128.1710   72.3400 C   0  0  0  0  0  0  0  0  0  0  0  0
  129.4300  127.6880   73.1400 C   0  0  0  0  0  0  0  0  0  0  0  0
  128.3070  127.1050   72.5630 C   0  0  0  0  0  0  0  0  0  0  0  0
  128.2170  127.0060   71.1770 C   0  0  0  0  0  0  0  0  0  0  0  0
  128.6560  128.4240   68.0580 C   0  0  0  0  0  0  0  0  0  0  0  0
  128.5710  128.3030   66.6620 C   0  0  0  0  0  0  0  0  0  0  0  0
  128.0230  129.4850   65.8540 C   0  0  0  0  0  0  0  0  0  0  0  0
  128.5850  129.6020   64.6490 F   0  0  0  0  0  0  0  0  0  0  0  0
  126.7110  129.3350   65.6710 F   0  0  0  0  0  0  0  0  0  0  0  0
  128.2480  130.6220   66.5100 F   0  0  0  0  0  0  0  0  0  0  0  0
  129.0020  127.0730   66.0860 C   0  0  0  0  0  0  0  0  0  0  0  0
  127.7970  127.2390   63.2020 H   0  0  0  0  0  0  0  0  0  0  0  0
  129.3030  128.0680   63.2720 H   0  0  0  0  0  0  0  0  0  0  0  0
  127.7810  124.3060   63.1270 H   0  0  0  0  0  0  0  0  0  0  0  0
  129.5554  123.5968   60.8881 H   0  0  0  0  0  0  0  0  0  0  0  0
  128.6937  122.2651   61.7934 H   0  0  0  0  0  0  0  0  0  0  0  0
  126.1325  123.8074   62.3545 H   0  0  0  0  0  0  0  0  0  0  0  0
  124.0923  124.1848   60.9649 H   0  0  0  0  0  0  0  0  0  0  0  0
  124.2603  124.1337   58.4810 H   0  0  0  0  0  0  0  0  0  0  0  0
  126.4502  123.7146   57.3732 H   0  0  0  0  0  0  0  0  0  0  0  0
  128.4921  123.3402   58.7581 H   0  0  0  0  0  0  0  0  0  0  0  0
  131.1861  128.4521   70.3291 H   0  0  0  0  0  0  0  0  0  0  0  0
  131.3475  128.6312   72.8007 H   0  0  0  0  0  0  0  0  0  0  0  0
  129.5036  127.7677   74.2346 H   0  0  0  0  0  0  0  0  0  0  0  0
  127.4939  126.7240   73.1983 H   0  0  0  0  0  0  0  0  0  0  0  0
  127.3276  126.5426   70.7250 H   0  0  0  0  0  0  0  0  0  0  0  0
  128.3301  129.3581   68.5389 H   0  0  0  0  0  0  0  0  0  0  0  0
  1  2  1  0
  2  3  2  0
  3  4  1  0
  4  5  2  0
  4  6  1  0
  6  7  1  0
  7  8  1  0
  8  9  2  0
  9 10  1  0
 10 11  2  0
 11 12  1  0
 12 13  2  0
  3 14  1  0
 14 15  1  0
 15 16  2  0
 16 17  1  0
 17 18  1  0
 18 19  2  0
 19 20  1  0
 20 21  2  0
 21 22  1  0
 22 23  2  0
 17 24  2  0
 24 25  1  0
 25 26  1  0
 26 27  1  0
 26 28  1  0
 26 29  1  0
 25 30  2  0
 30  2  1  0
 13  8  1  0
 30 15  1  0
 23 18  1  0
  1 31  1  0
  1 32  1  0
  6 33  1  0
  7 34  1  0
  7 35  1  0
  9 36  1  0
 10 37  1  0
 11 38  1  0
 12 39  1  0
 13 40  1  0
 19 41  1  0
 20 42  1  0
 21 43  1  0
 22 44  1  0
 23 45  1  0
 24 46  1  0
M  END
>  <Binding energies>  (1) 
[-7.58]

>  <Ligand effiencies>  (1) 
[-0.2296969696969697]

>  <Interactions>  (1) 
["V-A:GLU:543:CD:4908, V-A:GLU:543:C:4902, V-A:HIS:456:CE1:4070, V-A:GLU:543:CB:4906, V-B:HIS:456:CE1:9041, V-A:GLY:544:C:4912, V-B:GLU:543:CB:9878, V-B:PRO:540:CB:9857, V-B:PRO:540:CA:9855, V-B:TYR:484:CE2:9317, V-B:TYR:484:CZ:9318, V-B:GLU:543:CG:9879, V-B:GLU:543:CD:9880, V-A:GLU:543:CG:4907, V-A:TYR:484:CE2:4346, V-A:GLU:543:CA:4904, H-B:GLU:543:OE1:9881, V-A:TYR:484:CZ:4347, H-A:GLU:543:OE2:4910, H-A:GLU:543:OE1:4909, H-B:GLU:543:OE2:9882"]

$$$$
4ch_Grossjean_2025
     RDKit          3D

 58 61  0  0  0  0  0  0  0  0999 V2000
  124.3800  123.5500   61.9650 C   0  0  0  0  0  0  0  0  0  0  0  0
  124.6970  123.7580   60.5920 O   0  0  0  0  0  0  0  0  0  0  0  0
  126.0090  123.6370   60.1740 C   0  0  0  0  0  0  0  0  0  0  0  0
  127.1050  123.5450   61.0470 C   0  0  0  0  0  0  0  0  0  0  0  0
  128.4050  123.4230   60.5540 C   0  0  0  0  0  0  0  0  0  0  0  0
  129.5850  123.3530   61.5170 C   0  0  0  0  0  0  0  0  0  0  0  0
  129.4000  124.1190   62.7500 N   0  0  0  0  0  0  0  0  0  0  0  0
  130.3290  124.2900   63.7130 C   0  0  0  0  0  0  0  0  0  0  0  0
  131.4670  123.8230   63.6280 O   0  0  0  0  0  0  0  0  0  0  0  0
  129.9210  125.1010   64.8610 C   0  0  0  0  0  0  0  0  0  0  0  0
  130.1810  124.5060   66.4980 S   0  0  0  0  0  0  0  0  0  0  0  0
  129.5010  125.9630   67.1820 C   0  0  0  0  0  0  0  0  0  0  0  0
  129.4020  126.1320   68.4980 N   0  0  0  0  0  0  0  0  0  0  0  0
  128.8650  127.3000   68.9370 C   0  0  0  0  0  0  0  0  0  0  0  0
  128.7620  127.4570   70.4270 C   0  0  0  0  0  0  0  0  0  0  0  0
  127.6310  126.9990   71.1220 C   0  0  0  0  0  0  0  0  0  0  0  0
  127.5280  127.1420   72.5030 C   0  0  0  0  0  0  0  0  0  0  0  0
  128.5590  127.7490   73.2120 C   0  0  0  0  0  0  0  0  0  0  0  0
  129.6900  128.2160   72.5490 C   0  0  0  0  0  0  0  0  0  0  0  0
  129.7870  128.0720   71.1670 C   0  0  0  0  0  0  0  0  0  0  0  0
  128.4150  128.2850   68.0520 C   0  0  0  0  0  0  0  0  0  0  0  0
  128.5120  128.1170   66.6610 C   0  0  0  0  0  0  0  0  0  0  0  0
  127.9990  129.2350   65.7470 C   0  0  0  0  0  0  0  0  0  0  0  0
  128.6260  129.2790   64.5690 F   0  0  0  0  0  0  0  0  0  0  0  0
  126.7020  129.0580   65.5020 F   0  0  0  0  0  0  0  0  0  0  0  0
  128.1770  130.4170   66.3380 F   0  0  0  0  0  0  0  0  0  0  0  0
  129.0860  126.9000   66.1900 C   0  0  0  0  0  0  0  0  0  0  0  0
  129.3500  126.3830   64.8700 C   0  0  0  0  0  0  0  0  0  0  0  0
  129.0580  127.0810   63.7250 N   0  0  0  0  0  0  0  0  0  0  0  0
  128.6200  123.4100   59.1750 C   0  0  0  0  0  0  0  0  0  0  0  0
  127.5420  123.5020   58.2790 C   0  0  0  0  0  0  0  0  0  0  0  0
  127.6810  123.4930   56.9030 O   0  0  0  0  0  0  0  0  0  0  0  0
  127.0590  122.4620   56.1440 C   0  0  0  0  0  0  0  0  0  0  0  0
  126.2420  123.6090   58.7920 C   0  0  0  0  0  0  0  0  0  0  0  0
  125.1800  123.7150   57.9260 O   0  0  0  0  0  0  0  0  0  0  0  0
  124.5680  124.9970   57.9150 C   0  0  0  0  0  0  0  0  0  0  0  0
  125.1342  124.0449   62.5945 H   0  0  0  0  0  0  0  0  0  0  0  0
  123.3878  123.9732   62.1804 H   0  0  0  0  0  0  0  0  0  0  0  0
  124.3732  122.4713   62.1804 H   0  0  0  0  0  0  0  0  0  0  0  0
  126.9368  123.5694   62.1338 H   0  0  0  0  0  0  0  0  0  0  0  0
  129.7478  122.2991   61.7869 H   0  0  0  0  0  0  0  0  0  0  0  0
  130.4453  123.7975   60.9952 H   0  0  0  0  0  0  0  0  0  0  0  0
  128.4730  124.4850   62.9110 H   0  0  0  0  0  0  0  0  0  0  0  0
  126.8124  126.5190   70.5657 H   0  0  0  0  0  0  0  0  0  0  0  0
  126.6350  126.7764   73.0311 H   0  0  0  0  0  0  0  0  0  0  0  0
  128.4801  127.8607   74.3035 H   0  0  0  0  0  0  0  0  0  0  0  0
  130.5029  128.6962   73.1133 H   0  0  0  0  0  0  0  0  0  0  0  0
  130.6807  128.4458   70.6458 H   0  0  0  0  0  0  0  0  0  0  0  0
  127.9761  129.2103   68.4536 H   0  0  0  0  0  0  0  0  0  0  0  0
  128.1930  126.9440   63.2210 H   0  0  0  0  0  0  0  0  0  0  0  0
  129.7010  127.7640   63.3490 H   0  0  0  0  0  0  0  0  0  0  0  0
  129.6453  123.3268   58.7853 H   0  0  0  0  0  0  0  0  0  0  0  0
  126.6131  121.7229   56.8258 H   0  0  0  0  0  0  0  0  0  0  0  0
  126.2726  122.8971   55.5098 H   0  0  0  0  0  0  0  0  0  0  0  0
  127.8106  121.9692   55.5098 H   0  0  0  0  0  0  0  0  0  0  0  0
  124.4066  125.3351   58.9492 H   0  0  0  0  0  0  0  0  0  0  0  0
  125.2223  125.7112   57.3936 H   0  0  0  0  0  0  0  0  0  0  0  0
  123.6012  124.9373   57.3936 H   0  0  0  0  0  0  0  0  0  0  0  0
  1  2  1  0
  2  3  1  0
  3  4  2  0
  4  5  1  0
  5  6  1  0
  6  7  1  0
  7  8  1  0
  8  9  2  0
  8 10  1  0
 10 11  1  0
 11 12  1  0
 12 13  2  0
 13 14  1  0
 14 15  1  0
 15 16  2  0
 16 17  1  0
 17 18  2  0
 18 19  1  0
 19 20  2  0
 14 21  2  0
 21 22  1  0
 22 23  1  0
 23 24  1  0
 23 25  1  0
 23 26  1  0
 22 27  2  0
 27 28  1  0
 28 29  1  0
  5 30  2  0
 30 31  1  0
 31 32  1  0
 32 33  1  0
 31 34  2  0
 34 35  1  0
 35 36  1  0
 34  3  1  0
 28 10  2  0
 27 12  1  0
 20 15  1  0
  1 37  1  0
  1 38  1  0
  1 39  1  0
  4 40  1  0
  6 41  1  0
  6 42  1  0
  7 43  1  0
 16 44  1  0
 17 45  1  0
 18 46  1  0
 19 47  1  0
 20 48  1  0
 21 49  1  0
 29 50  1  0
 29 51  1  0
 30 52  1  0
 33 53  1  0
 33 54  1  0
 33 55  1  0
 36 56  1  0
 36 57  1  0
 36 58  1  0
M  END
>  <Binding energies>  (1) 
[-7.57]

>  <Ligand effiencies>  (1) 
[-0.1941025641025641]

>  <Interactions>  (1) 
["V-B:GLU:543:C:9874, V-A:GLU:543:CD:4908, V-B:LYS:547:CE:9922, V-A:HIS:456:CE1:4070, V-B:GLY:544:C:9884, V-A:GLU:543:CB:4906, V-B:HIS:456:CE1:9041, V-B:HIS:456:CD2:9039, V-B:GLU:543:CB:9878, V-B:TYR:539:CE2:9848, V-B:LEU:363:CD1:8160, V-B:ASP:366:CB:8183, V-B:PRO:540:CB:9857, V-B:ASP:366:CG:8184, V-B:TYR:539:CD2:9846, V-B:TYR:539:CG:9844, V-B:TYR:539:CE1:9847, V-B:TYR:531:CE2:9765, V-B:PRO:540:CA:9855, V-B:TYR:484:CE2:9317, V-B:TYR:484:CZ:9318, V-B:GLU:543:CG:9879, V-B:GLU:543:CD:9880, V-A:GLU:543:CG:4907, V-A:TYR:484:CE2:4346, V-A:GLU:543:CA:4904, V-B:ASN:362:CB:8147, H-B:GLU:543:OE1:9881, V-A:TYR:484:CZ:4347, H-A:GLU:543:OE2:4910, H-A:GLU:543:OE1:4909, H-B:GLU:543:OE2:9882, V-B:PRO:540:N:9856, V-B:TYR:539:CD1:9845"]

$$$$
4ci_Grossjean_2025
     RDKit          3D

 39 42  0  0  0  0  0  0  0  0999 V2000
  128.7110  127.3980   63.7100 N   0  0  0  0  0  0  0  0  0  0  0  0
  129.1000  126.6330   64.7780 C   0  0  0  0  0  0  0  0  0  0  0  0
  129.5980  125.3260   64.6490 C   0  0  0  0  0  0  0  0  0  0  0  0
  129.8100  124.5470   63.4260 C   0  0  0  0  0  0  0  0  0  0  0  0
  130.9510  124.3170   63.0170 O   0  0  0  0  0  0  0  0  0  0  0  0
  128.6840  124.1280   62.7970 N   0  0  0  0  0  0  0  0  0  0  0  0
  128.5940  123.3830   61.6280 C   0  0  0  0  0  0  0  0  0  0  0  0
  128.2540  123.9370   60.3950 C   0  0  0  0  0  0  0  0  0  0  0  0
  128.2750  122.8840   59.5110 C   0  0  0  0  0  0  0  0  0  0  0  0
  128.6110  121.7530   60.1770 O   0  0  0  0  0  0  0  0  0  0  0  0
  128.8100  122.0820   61.5190 N   0  0  0  0  0  0  0  0  0  0  0  0
  130.0090  124.6420   66.2190 S   0  0  0  0  0  0  0  0  0  0  0  0
  129.5040  126.1020   67.0380 C   0  0  0  0  0  0  0  0  0  0  0  0
  129.5770  126.2180   68.3620 N   0  0  0  0  0  0  0  0  0  0  0  0
  129.1650  127.3920   68.9070 C   0  0  0  0  0  0  0  0  0  0  0  0
  129.2540  127.4900   70.4030 C   0  0  0  0  0  0  0  0  0  0  0  0
  130.3950  128.0270   71.0230 C   0  0  0  0  0  0  0  0  0  0  0  0
  130.4820  128.1220   72.4100 C   0  0  0  0  0  0  0  0  0  0  0  0
  129.4270  127.6780   73.2000 C   0  0  0  0  0  0  0  0  0  0  0  0
  128.2880  127.1390   72.6130 C   0  0  0  0  0  0  0  0  0  0  0  0
  128.2050  127.0450   71.2270 C   0  0  0  0  0  0  0  0  0  0  0  0
  128.6660  128.4360   68.1210 C   0  0  0  0  0  0  0  0  0  0  0  0
  128.5860  128.3250   66.7240 C   0  0  0  0  0  0  0  0  0  0  0  0
  128.0290  129.5090   65.9240 C   0  0  0  0  0  0  0  0  0  0  0  0
  128.5840  129.6330   64.7170 F   0  0  0  0  0  0  0  0  0  0  0  0
  126.7180  129.3540   65.7470 F   0  0  0  0  0  0  0  0  0  0  0  0
  128.2530  130.6450   66.5860 F   0  0  0  0  0  0  0  0  0  0  0  0
  129.0270  127.1030   66.1410 C   0  0  0  0  0  0  0  0  0  0  0  0
  127.8120  127.2760   63.2630 H   0  0  0  0  0  0  0  0  0  0  0  0
  129.3110  128.1190   63.3340 H   0  0  0  0  0  0  0  0  0  0  0  0
  127.8020  124.3820   63.2170 H   0  0  0  0  0  0  0  0  0  0  0  0
  128.0195  124.9892   60.1764 H   0  0  0  0  0  0  0  0  0  0  0  0
  128.0543  122.9494   58.4353 H   0  0  0  0  0  0  0  0  0  0  0  0
  131.2331  128.3780   70.4030 H   0  0  0  0  0  0  0  0  0  0  0  0
  131.3819  128.5467   72.8788 H   0  0  0  0  0  0  0  0  0  0  0  0
  129.4942  127.7538   74.2953 H   0  0  0  0  0  0  0  0  0  0  0  0
  127.4560  126.7883   73.2413 H   0  0  0  0  0  0  0  0  0  0  0  0
  127.3027  126.6149   70.7678 H   0  0  0  0  0  0  0  0  0  0  0  0
  128.3293  129.3632   68.6078 H   0  0  0  0  0  0  0  0  0  0  0  0
  1  2  1  0
  2  3  2  0
  3  4  1  0
  4  5  2  0
  4  6  1  0
  6  7  1  0
  7  8  1  0
  8  9  2  0
  9 10  1  0
 10 11  1  0
  3 12  1  0
 12 13  1  0
 13 14  2  0
 14 15  1  0
 15 16  1  0
 16 17  2  0
 17 18  1  0
 18 19  2  0
 19 20  1  0
 20 21  2  0
 15 22  2  0
 22 23  1  0
 23 24  1  0
 24 25  1  0
 24 26  1  0
 24 27  1  0
 23 28  2  0
 28  2  1  0
 11  7  2  0
 28 13  1  0
 21 16  1  0
  1 29  1  0
  1 30  1  0
  6 31  1  0
  8 32  1  0
  9 33  1  0
 17 34  1  0
 18 35  1  0
 19 36  1  0
 20 37  1  0
 21 38  1  0
 22 39  1  0
M  END
>  <Binding energies>  (1) 
[-6.73]

>  <Ligand effiencies>  (1) 
[-0.2170967741935484]

>  <Interactions>  (1) 
["V-A:GLU:543:CD:4908, V-A:GLU:543:C:4902, V-A:HIS:456:CE1:4070, V-A:GLU:543:CB:4906, V-B:HIS:456:CE1:9041, V-A:GLY:544:C:4912, V-B:GLU:543:CB:9878, V-B:TYR:539:CE2:9848, H-B:ALA:541:N:9863, V-B:TYR:539:CD2:9846, V-B:PRO:540:CA:9855, V-B:TYR:484:CE2:9317, V-B:TYR:484:CZ:9318, V-B:GLU:543:CG:9879, V-B:GLU:543:CD:9880, V-A:GLU:543:CG:4907, V-A:TYR:484:CE2:4346, V-A:GLU:543:CA:4904, H-B:GLU:543:OE1:9881, V-A:TYR:484:CZ:4347, H-A:GLU:543:OE2:4910, H-A:GLU:543:OE1:4909, H-B:GLU:543:OE2:9882, V-B:PRO:540:N:9856, V-B:TYR:539:C:9839"]

$$$$
4cj_Grossjean_2025
     RDKit          3D

 39 42  0  0  0  0  0  0  0  0999 V2000
  129.0920  127.1760   63.8590 N   0  0  0  0  0  0  0  0  0  0  0  0
  129.4830  126.5190   64.9980 C   0  0  0  0  0  0  0  0  0  0  0  0
  130.2520  125.3440   64.9830 C   0  0  0  0  0  0  0  0  0  0  0  0
  130.7800  124.6130   63.8280 C   0  0  0  0  0  0  0  0  0  0  0  0
  130.3550  124.8360   62.6920 O   0  0  0  0  0  0  0  0  0  0  0  0
  131.7360  123.6930   64.1090 N   0  0  0  0  0  0  0  0  0  0  0  0
  132.3940  122.8710   63.2040 C   0  0  0  0  0  0  0  0  0  0  0  0
  133.6770  122.5800   63.1630 N   0  0  0  0  0  0  0  0  0  0  0  0
  133.9560  121.7630   62.1670 C   0  0  0  0  0  0  0  0  0  0  0  0
  132.8830  121.3720   61.3710 C   0  0  0  0  0  0  0  0  0  0  0  0
  131.4330  122.1210   61.9700 S   0  0  0  0  0  0  0  0  0  0  0  0
  130.5830  124.7790   66.6180 S   0  0  0  0  0  0  0  0  0  0  0  0
  129.6900  126.1130   67.3080 C   0  0  0  0  0  0  0  0  0  0  0  0
  129.5670  126.2600   68.6250 N   0  0  0  0  0  0  0  0  0  0  0  0
  128.8620  127.3310   69.0690 C   0  0  0  0  0  0  0  0  0  0  0  0
  128.7540  127.4740   70.5600 C   0  0  0  0  0  0  0  0  0  0  0  0
  127.6180  127.0140   71.2450 C   0  0  0  0  0  0  0  0  0  0  0  0
  127.5090  127.1490   72.6270 C   0  0  0  0  0  0  0  0  0  0  0  0
  128.5380  127.7500   73.3450 C   0  0  0  0  0  0  0  0  0  0  0  0
  129.6720  128.2160   72.6910 C   0  0  0  0  0  0  0  0  0  0  0  0
  129.7770  128.0780   71.3100 C   0  0  0  0  0  0  0  0  0  0  0  0
  128.2620  128.2370   68.1870 C   0  0  0  0  0  0  0  0  0  0  0  0
  128.3830  128.0910   66.7960 C   0  0  0  0  0  0  0  0  0  0  0  0
  127.7020  129.1220   65.8880 C   0  0  0  0  0  0  0  0  0  0  0  0
  127.3180  128.6140   64.7150 F   0  0  0  0  0  0  0  0  0  0  0  0
  126.6150  129.6040   66.4900 F   0  0  0  0  0  0  0  0  0  0  0  0
  128.5440  130.1240   65.6330 F   0  0  0  0  0  0  0  0  0  0  0  0
  129.1370  126.9810   66.3200 C   0  0  0  0  0  0  0  0  0  0  0  0
  128.1720  127.0510   63.4590 H   0  0  0  0  0  0  0  0  0  0  0  0
  129.7130  127.8140   63.3810 H   0  0  0  0  0  0  0  0  0  0  0  0
  131.9980  123.5770   65.0770 H   0  0  0  0  0  0  0  0  0  0  0  0
  134.9800  121.4097   61.9754 H   0  0  0  0  0  0  0  0  0  0  0  0
  132.9429  120.6983   60.5035 H   0  0  0  0  0  0  0  0  0  0  0  0
  126.8012  126.5395   70.6813 H   0  0  0  0  0  0  0  0  0  0  0  0
  126.6129  126.7819   73.1487 H   0  0  0  0  0  0  0  0  0  0  0  0
  128.4534  127.8569   74.4365 H   0  0  0  0  0  0  0  0  0  0  0  0
  130.4829  128.6917   73.2620 H   0  0  0  0  0  0  0  0  0  0  0  0
  130.6767  128.4483   70.7968 H   0  0  0  0  0  0  0  0  0  0  0  0
  127.6838  129.0807   68.5919 H   0  0  0  0  0  0  0  0  0  0  0  0
  1  2  1  0
  2  3  2  0
  3  4  1  0
  4  5  2  0
  4  6  1  0
  6  7  1  0
  7  8  2  0
  8  9  1  0
  9 10  2  0
 10 11  1  0
  3 12  1  0
 12 13  1  0
 13 14  2  0
 14 15  1  0
 15 16  1  0
 16 17  2  0
 17 18  1  0
 18 19  2  0
 19 20  1  0
 20 21  2  0
 15 22  2  0
 22 23  1  0
 23 24  1  0
 24 25  1  0
 24 26  1  0
 24 27  1  0
 23 28  2  0
 28  2  1  0
 11  7  1  0
 28 13  1  0
 21 16  1  0
  1 29  1  0
  1 30  1  0
  6 31  1  0
  9 32  1  0
 10 33  1  0
 17 34  1  0
 18 35  1  0
 19 36  1  0
 20 37  1  0
 21 38  1  0
 22 39  1  0
M  END
>  <Binding energies>  (1) 
[-6.89]

>  <Ligand effiencies>  (1) 
[-0.22225806451612903]

>  <Interactions>  (1) 
["V-B:GLU:543:C:9874, V-A:GLU:543:CD:4908, V-B:LYS:547:CE:9922, V-A:HIS:456:CE1:4070, V-B:GLY:544:C:9884, V-A:GLU:543:CB:4906, V-B:HIS:456:CE1:9041, V-B:HIS:456:CD2:9039, V-B:GLU:543:CB:9878, V-A:LEU:475:CD2:4259, V-B:TYR:484:CE2:9317, V-B:TYR:484:CZ:9318, V-B:GLU:543:CG:9879, V-B:GLU:543:CD:9880, V-A:GLU:543:CG:4907, V-A:TYR:484:CE2:4346, H-B:GLU:543:OE1:9881, V-A:TYR:484:CZ:4347, V-A:ILE:369:CD1:3239, H-A:GLU:543:OE2:4910, H-A:GLU:543:OE1:4909, H-B:GLU:543:OE2:9882, H-A:GLY:454:N:4050, H-A:TYR:484:OH:4348, V-A:GLY:454:CA:4049, V-A:SER:385:C:3405"]

$$$$
4ck_Grossjean_2025
     RDKit          3D

 57 59  0  0  0  0  0  0  0  0999 V2000
  125.5460  122.1350   55.7370 C   0  0  0  0  0  0  0  0  0  0  0  0
  126.7470  122.0860   56.4920 O   0  0  0  0  0  0  0  0  0  0  0  0
  126.7990  123.0500   57.5340 C   0  0  0  0  0  0  0  0  0  0  0  0
  125.3780  123.5490   57.8260 C   0  0  0  0  0  0  0  0  0  0  0  0
  125.4370  124.5540   58.8290 O   0  0  0  0  0  0  0  0  0  0  0  0
  125.1980  124.0600   60.1410 C   0  0  0  0  0  0  0  0  0  0  0  0
  126.3990  124.4010   61.0320 C   0  0  0  0  0  0  0  0  0  0  0  0
  126.7420  123.2520   61.7960 O   0  0  0  0  0  0  0  0  0  0  0  0
  127.8290  122.5090   61.2600 C   0  0  0  0  0  0  0  0  0  0  0  0
  129.1500  123.2230   61.5840 C   0  0  0  0  0  0  0  0  0  0  0  0
  129.0530  124.0370   62.7960 N   0  0  0  0  0  0  0  0  0  0  0  0
  130.0910  124.4700   63.5420 C   0  0  0  0  0  0  0  0  0  0  0  0
  131.2650  124.2380   63.2470 O   0  0  0  0  0  0  0  0  0  0  0  0
  129.7430  125.2520   64.7290 C   0  0  0  0  0  0  0  0  0  0  0  0
  130.0820  124.6160   66.3370 S   0  0  0  0  0  0  0  0  0  0  0  0
  129.4680  126.0700   67.0880 C   0  0  0  0  0  0  0  0  0  0  0  0
  129.4530  126.2150   68.4100 N   0  0  0  0  0  0  0  0  0  0  0  0
  128.9560  127.3800   68.9030 C   0  0  0  0  0  0  0  0  0  0  0  0
  128.9710  127.5210   70.3980 C   0  0  0  0  0  0  0  0  0  0  0  0
  130.0680  128.0990   71.0550 C   0  0  0  0  0  0  0  0  0  0  0  0
  130.0890  128.2300   72.4420 C   0  0  0  0  0  0  0  0  0  0  0  0
  129.0070  127.7830   73.1930 C   0  0  0  0  0  0  0  0  0  0  0  0
  127.9050  127.2110   72.5670 C   0  0  0  0  0  0  0  0  0  0  0  0
  127.8880  127.0830   71.1800 C   0  0  0  0  0  0  0  0  0  0  0  0
  128.4860  128.3960   68.0640 C   0  0  0  0  0  0  0  0  0  0  0  0
  128.4960  128.2520   66.6680 C   0  0  0  0  0  0  0  0  0  0  0  0
  127.9600  129.4040   65.8080 C   0  0  0  0  0  0  0  0  0  0  0  0
  128.1420  130.6020   66.3650 F   0  0  0  0  0  0  0  0  0  0  0  0
  128.5820  129.4130   64.6290 F   0  0  0  0  0  0  0  0  0  0  0  0
  126.6510  129.2480   65.6130 F   0  0  0  0  0  0  0  0  0  0  0  0
  129.0120  127.0340   66.1410 C   0  0  0  0  0  0  0  0  0  0  0  0
  129.1900  126.5400   64.7960 C   0  0  0  0  0  0  0  0  0  0  0  0
  128.8430  127.2660   63.6860 N   0  0  0  0  0  0  0  0  0  0  0  0
  124.6846  122.1701   56.4202 H   0  0  0  0  0  0  0  0  0  0  0  0
  125.5480  123.0338   55.1029 H   0  0  0  0  0  0  0  0  0  0  0  0
  125.4747  121.2390   55.1029 H   0  0  0  0  0  0  0  0  0  0  0  0
  127.2219  122.5911   58.4399 H   0  0  0  0  0  0  0  0  0  0  0  0
  127.4331  123.8947   57.2267 H   0  0  0  0  0  0  0  0  0  0  0  0
  124.9389  123.9687   56.9089 H   0  0  0  0  0  0  0  0  0  0  0  0
  124.7549  122.7123   58.1748 H   0  0  0  0  0  0  0  0  0  0  0  0
  124.2906  124.5275   60.5510 H   0  0  0  0  0  0  0  0  0  0  0  0
  125.0596  122.9693   60.1069 H   0  0  0  0  0  0  0  0  0  0  0  0
  127.2529  124.6966   60.4047 H   0  0  0  0  0  0  0  0  0  0  0  0
  126.1426  125.2339   61.7032 H   0  0  0  0  0  0  0  0  0  0  0  0
  127.8385  121.5024   61.7034 H   0  0  0  0  0  0  0  0  0  0  0  0
  127.7146  122.4294   60.1689 H   0  0  0  0  0  0  0  0  0  0  0  0
  129.9361  122.4669   61.7265 H   0  0  0  0  0  0  0  0  0  0  0  0
  129.3878  123.8927   60.7444 H   0  0  0  0  0  0  0  0  0  0  0  0
  128.1250  124.3420   63.0510 H   0  0  0  0  0  0  0  0  0  0  0  0
  130.9257  128.4546   70.4652 H   0  0  0  0  0  0  0  0  0  0  0  0
  130.9574  128.6849   72.9408 H   0  0  0  0  0  0  0  0  0  0  0  0
  129.0231  127.8825   74.2884 H   0  0  0  0  0  0  0  0  0  0  0  0
  127.0503  126.8611   73.1645 H   0  0  0  0  0  0  0  0  0  0  0  0
  127.0132  126.6320   70.6888 H   0  0  0  0  0  0  0  0  0  0  0  0
  128.1010  129.3262   68.5073 H   0  0  0  0  0  0  0  0  0  0  0  0
  129.4650  127.9460   63.2740 H   0  0  0  0  0  0  0  0  0  0  0  0
  127.9460  127.1400   63.2350 H   0  0  0  0  0  0  0  0  0  0  0  0
  1  2  1  0
  2  3  1  0
  3  4  1  0
  4  5  1  0
  5  6  1  0
  6  7  1  0
  7  8  1  0
  8  9  1  0
  9 10  1  0
 10 11  1  0
 11 12  1  0
 12 13  2  0
 12 14  1  0
 14 15  1  0
 15 16  1  0
 16 17  2  0
 17 18  1  0
 18 19  1  0
 19 20  2  0
 20 21  1  0
 21 22  2  0
 22 23  1  0
 23 24  2  0
 18 25  2  0
 25 26  1  0
 26 27  1  0
 27 28  1  0
 27 29  1  0
 27 30  1  0
 26 31  2  0
 31 32  1  0
 32 33  1  0
 32 14  2  0
 31 16  1  0
 24 19  1  0
  1 34  1  0
  1 35  1  0
  1 36  1  0
  3 37  1  0
  3 38  1  0
  4 39  1  0
  4 40  1  0
  6 41  1  0
  6 42  1  0
  7 43  1  0
  7 44  1  0
  9 45  1  0
  9 46  1  0
 10 47  1  0
 10 48  1  0
 11 49  1  0
 20 50  1  0
 21 51  1  0
 22 52  1  0
 23 53  1  0
 24 54  1  0
 25 55  1  0
 33 56  1  0
 33 57  1  0
M  END
>  <Binding energies>  (1) 
[-7.14]

>  <Ligand effiencies>  (1) 
[-0.19833333333333333]

>  <Interactions>  (1) 
["V-A:GLU:543:CD:4908, V-A:GLU:543:C:4902, V-B:LYS:547:CE:9922, V-A:HIS:456:CE1:4070, V-B:GLY:544:C:9884, V-A:GLU:543:CB:4906, V-B:HIS:456:CE1:9041, V-A:GLY:544:C:4912, V-B:HIS:456:CD2:9039, V-B:GLU:543:CB:9878, V-B:LEU:363:CD1:8160, V-B:MET:535:CE:9807, V-B:PRO:540:CB:9857, H-B:ALA:541:N:9863, H-B:TYR:539:N:9842, V-B:PRO:540:C:9853, V-B:PRO:540:CA:9855, V-B:TYR:484:CE2:9317, V-B:TYR:484:CZ:9318, V-B:GLU:543:CG:9879, V-B:GLU:543:CD:9880, V-A:GLU:543:CG:4907, V-A:TYR:484:CE2:4346, V-A:GLU:543:CA:4904, H-B:GLU:543:OE1:9881, V-A:TYR:484:CZ:4347, H-A:GLU:543:OE2:4910, H-A:GLU:543:OE1:4909, H-B:GLU:543:OE2:9882, V-B:PRO:540:N:9856, V-B:PRO:540:CD:9859, V-B:ILE:538:CA:9832, V-B:ILE:538:C:9830, V-B:ILE:538:CG2:9835, V-B:ILE:538:CB:9834"]

$$$$
4dd_Grossjean_2025
     RDKit          3D

 43 46  0  0  0  0  0  0  0  0999 V2000
  125.1590  129.5540   63.7570 C   0  0  0  0  0  0  0  0  0  0  0  0
  125.4260  130.3390   62.4820 C   0  0  0  0  0  0  0  0  0  0  0  0
  125.2500  131.7280   62.5120 C   0  0  0  0  0  0  0  0  0  0  0  0
  125.4810  132.5070   61.3720 C   0  0  0  0  0  0  0  0  0  0  0  0
  125.2940  133.9960   61.3740 C   0  0  0  0  0  0  0  0  0  0  0  0
  126.4010  134.8600   61.3570 C   0  0  0  0  0  0  0  0  0  0  0  0
  126.2360  136.2420   61.3560 C   0  0  0  0  0  0  0  0  0  0  0  0
  124.9550  136.7830   61.3740 C   0  0  0  0  0  0  0  0  0  0  0  0
  123.8400  135.9510   61.3890 C   0  0  0  0  0  0  0  0  0  0  0  0
  124.0110  134.5690   61.3880 C   0  0  0  0  0  0  0  0  0  0  0  0
  125.8710  131.9550   60.1910 N   0  0  0  0  0  0  0  0  0  0  0  0
  126.0450  130.6350   60.1620 C   0  0  0  0  0  0  0  0  0  0  0  0
  126.5620  129.7980   58.7160 S   0  0  0  0  0  0  0  0  0  0  0  0
  126.5280  128.2410   59.5480 C   0  0  0  0  0  0  0  0  0  0  0  0
  126.9030  127.0150   58.8410 C   0  0  0  0  0  0  0  0  0  0  0  0
  128.0590  126.8430   58.4520 O   0  0  0  0  0  0  0  0  0  0  0  0
  125.9030  126.1160   58.6670 N   0  0  0  0  0  0  0  0  0  0  0  0
  125.9150  124.8810   57.9940 C   0  0  0  0  0  0  0  0  0  0  0  0
  127.1680  124.4300   57.5670 C   0  0  0  0  0  0  0  0  0  0  0  0
  127.2860  123.2120   56.9030 C   0  0  0  0  0  0  0  0  0  0  0  0
  126.1520  122.4390   56.6720 C   0  0  0  0  0  0  0  0  0  0  0  0
  124.9000  122.8700   57.1030 C   0  0  0  0  0  0  0  0  0  0  0  0
  124.7780  124.0880   57.7670 C   0  0  0  0  0  0  0  0  0  0  0  0
  126.1250  128.3910   60.8840 C   0  0  0  0  0  0  0  0  0  0  0  0
  126.0030  127.3470   61.7670 N   0  0  0  0  0  0  0  0  0  0  0  0
  125.8460  129.7510   61.2610 C   0  0  0  0  0  0  0  0  0  0  0  0
  125.3746  130.1879   64.6298 H   0  0  0  0  0  0  0  0  0  0  0  0
  124.1043  129.2424   63.7817 H   0  0  0  0  0  0  0  0  0  0  0  0
  125.8050  128.6640   63.7817 H   0  0  0  0  0  0  0  0  0  0  0  0
  124.9258  132.2136   63.4442 H   0  0  0  0  0  0  0  0  0  0  0  0
  127.4164  134.4371   61.3443 H   0  0  0  0  0  0  0  0  0  0  0  0
  127.1149  136.9033   61.3410 H   0  0  0  0  0  0  0  0  0  0  0  0
  124.8225  137.8750   61.3764 H   0  0  0  0  0  0  0  0  0  0  0  0
  122.8283  136.3827   61.4016 H   0  0  0  0  0  0  0  0  0  0  0  0
  123.1268  133.9148   61.3983 H   0  0  0  0  0  0  0  0  0  0  0  0
  125.0170  126.3500   59.0910 H   0  0  0  0  0  0  0  0  0  0  0  0
  128.0637  125.0398   57.7565 H   0  0  0  0  0  0  0  0  0  0  0  0
  128.2716  122.8620   56.5623 H   0  0  0  0  0  0  0  0  0  0  0  0
  126.2456  121.4786   56.1440 H   0  0  0  0  0  0  0  0  0  0  0  0
  124.0100  122.2502   56.9195 H   0  0  0  0  0  0  0  0  0  0  0  0
  123.7914  124.4291   58.1137 H   0  0  0  0  0  0  0  0  0  0  0  0
  126.3900  127.3890   62.6990 H   0  0  0  0  0  0  0  0  0  0  0  0
  125.5170  126.4990   61.5120 H   0  0  0  0  0  0  0  0  0  0  0  0
  1  2  1  0
  2  3  2  0
  3  4  1  0
  4  5  1  0
  5  6  2  0
  6  7  1  0
  7  8  2  0
  8  9  1  0
  9 10  2  0
  4 11  2  0
 11 12  1  0
 12 13  1  0
 13 14  1  0
 14 15  1  0
 15 16  2  0
 15 17  1  0
 17 18  1  0
 18 19  2  0
 19 20  1  0
 20 21  2  0
 21 22  1  0
 22 23  2  0
 14 24  2  0
 24 25  1  0
 24 26  1  0
 26  2  1  0
 10  5  1  0
 26 12  2  0
 23 18  1  0
  1 27  1  0
  1 28  1  0
  1 29  1  0
  3 30  1  0
  6 31  1  0
  7 32  1  0
  8 33  1  0
  9 34  1  0
 10 35  1  0
 17 36  1  0
 19 37  1  0
 20 38  1  0
 21 39  1  0
 22 40  1  0
 23 41  1  0
 25 42  1  0
 25 43  1  0
M  END
>  <Binding energies>  (1) 
[-8.11]

>  <Ligand effiencies>  (1) 
[-0.27965517241379306]

>  <Interactions>  (1) 
["V-B:LEU:363:CD1:8160, V-B:MET:535:CE:9807, V-B:ASP:366:CB:8183, V-B:PRO:540:CB:9857, V-B:ASP:366:CG:8184, V-B:TYR:539:CZ:9849, V-B:TYR:539:CE1:9847, V-B:PRO:540:CA:9855, V-B:GLU:543:CD:9880, H-B:GLU:543:OE1:9881, V-A:TYR:539:CD1:4873, V-B:LEU:475:CD2:9230, V-B:ILE:369:CG2:8208, H-B:GLU:543:OE2:9882, V-B:PRO:540:N:9856, V-A:TYR:539:CE1:4875, V-B:TYR:539:C:9839, V-B:PRO:540:CD:9859, H-B:TYR:531:OH:9767, H-B:ASP:366:OD1:8185, V-B:ARG:545:CZ:9898, V-B:SER:385:CA:8378, V-B:SER:385:CB:8380, H-B:ASP:366:OD2:8186, V-B:SER:385:C:8376, V-B:PRO:540:CG:9858"]

$$$$
4dg_Grossjean_2025
     RDKit          3D

 46 49  0  0  0  0  0  0  0  0999 V2000
  127.9710  129.4410   65.9090 C   0  0  0  0  0  0  0  0  0  0  0  0
  128.5430  128.2860   66.7180 C   0  0  0  0  0  0  0  0  0  0  0  0
  128.6210  128.4290   68.1080 C   0  0  0  0  0  0  0  0  0  0  0  0
  129.1380  127.4030   68.9090 C   0  0  0  0  0  0  0  0  0  0  0  0
  129.2330  127.5270   70.4040 C   0  0  0  0  0  0  0  0  0  0  0  0
  130.4000  128.0170   71.0130 C   0  0  0  0  0  0  0  0  0  0  0  0
  130.4950  128.1300   72.3990 C   0  0  0  0  0  0  0  0  0  0  0  0
  129.4210  127.7540   73.1970 C   0  0  0  0  0  0  0  0  0  0  0  0
  128.2540  127.2620   72.6200 C   0  0  0  0  0  0  0  0  0  0  0  0
  128.1640  127.1500   71.2360 C   0  0  0  0  0  0  0  0  0  0  0  0
  129.5650  126.2250   68.3790 N   0  0  0  0  0  0  0  0  0  0  0  0
  129.4920  126.0880   67.0560 C   0  0  0  0  0  0  0  0  0  0  0  0
  130.0130  124.6290   66.2460 S   0  0  0  0  0  0  0  0  0  0  0  0
  129.5790  125.2950   64.6720 C   0  0  0  0  0  0  0  0  0  0  0  0
  129.8230  124.5230   63.4550 C   0  0  0  0  0  0  0  0  0  0  0  0
  130.9670  124.2500   63.0870 O   0  0  0  0  0  0  0  0  0  0  0  0
  128.7270  124.1690   62.7520 N   0  0  0  0  0  0  0  0  0  0  0  0
  128.7290  123.3790   61.5210 C   0  0  0  0  0  0  0  0  0  0  0  0
  127.4720  123.5680   60.6780 C   0  0  0  0  0  0  0  0  0  0  0  0
  126.2460  123.8080   61.3050 C   0  0  0  0  0  0  0  0  0  0  0  0
  125.1020  124.0120   60.5380 C   0  0  0  0  0  0  0  0  0  0  0  0
  125.1900  123.9870   59.1480 C   0  0  0  0  0  0  0  0  0  0  0  0
  126.4120  123.7660   58.5170 C   0  0  0  0  0  0  0  0  0  0  0  0
  127.5570  123.5630   59.2830 C   0  0  0  0  0  0  0  0  0  0  0  0
  129.0690  126.5970   64.7930 C   0  0  0  0  0  0  0  0  0  0  0  0
  128.6650  127.3590   63.7270 N   0  0  0  0  0  0  0  0  0  0  0  0
  128.9980  127.0690   66.1500 C   0  0  0  0  0  0  0  0  0  0  0  0
  127.5885  130.2134   66.5925 H   0  0  0  0  0  0  0  0  0  0  0  0
  128.7604  129.8709   65.2749 H   0  0  0  0  0  0  0  0  0  0  0  0
  127.1507  129.0737   65.2749 H   0  0  0  0  0  0  0  0  0  0  0  0
  128.2714  129.3601   68.5779 H   0  0  0  0  0  0  0  0  0  0  0  0
  131.2528  128.3164   70.3860 H   0  0  0  0  0  0  0  0  0  0  0  0
  131.4166  128.5154   72.8595 H   0  0  0  0  0  0  0  0  0  0  0  0
  129.4938  127.8458   74.2907 H   0  0  0  0  0  0  0  0  0  0  0  0
  127.4069  126.9631   73.2549 H   0  0  0  0  0  0  0  0  0  0  0  0
  127.2400  126.7595   70.7847 H   0  0  0  0  0  0  0  0  0  0  0  0
  127.8210  124.3590   63.1550 H   0  0  0  0  0  0  0  0  0  0  0  0
  129.6006  123.6744   60.9185 H   0  0  0  0  0  0  0  0  0  0  0  0
  128.7666  122.3197   61.8150 H   0  0  0  0  0  0  0  0  0  0  0  0
  126.1851  123.8357   62.4030 H   0  0  0  0  0  0  0  0  0  0  0  0
  124.1334  124.1920   61.0273 H   0  0  0  0  0  0  0  0  0  0  0  0
  124.2851  124.1434   58.5424 H   0  0  0  0  0  0  0  0  0  0  0  0
  126.4722  123.7519   57.4187 H   0  0  0  0  0  0  0  0  0  0  0  0
  128.5270  123.3989   58.7909 H   0  0  0  0  0  0  0  0  0  0  0  0
  129.2440  128.0920   63.3430 H   0  0  0  0  0  0  0  0  0  0  0  0
  127.7690  127.2070   63.2840 H   0  0  0  0  0  0  0  0  0  0  0  0
  1  2  1  0
  2  3  2  0
  3  4  1  0
  4  5  1  0
  5  6  2  0
  6  7  1  0
  7  8  2  0
  8  9  1  0
  9 10  2  0
  4 11  2  0
 11 12  1  0
 12 13  1  0
 13 14  1  0
 14 15  1  0
 15 16  2  0
 15 17  1  0
 17 18  1  0
 18 19  1  0
 19 20  2  0
 20 21  1  0
 21 22  2  0
 22 23  1  0
 23 24  2  0
 14 25  2  0
 25 26  1  0
 25 27  1  0
 27  2  1  0
 10  5  1  0
 27 12  2  0
 24 19  1  0
  1 28  1  0
  1 29  1  0
  1 30  1  0
  3 31  1  0
  6 32  1  0
  7 33  1  0
  8 34  1  0
  9 35  1  0
 10 36  1  0
 17 37  1  0
 18 38  1  0
 18 39  1  0
 20 40  1  0
 21 41  1  0
 22 42  1  0
 23 43  1  0
 24 44  1  0
 26 45  1  0
 26 46  1  0
M  END
>  <Binding energies>  (1) 
[-7.79]

>  <Ligand effiencies>  (1) 
[-0.25966666666666666]

>  <Interactions>  (1) 
["V-A:GLU:543:CD:4908, V-A:GLU:543:C:4902, V-A:HIS:456:CE1:4070, V-A:GLU:543:CB:4906, V-B:HIS:456:CE1:9041, V-A:GLY:544:C:4912, V-B:HIS:456:CD2:9039, V-B:GLU:543:CB:9878, V-B:PRO:540:CB:9857, V-B:PRO:540:CA:9855, V-B:GLU:543:CG:9879, V-B:GLU:543:CD:9880, V-A:GLU:543:CG:4907, V-A:TYR:484:CE2:4346, H-B:GLU:543:OE1:9881, V-A:TYR:484:CZ:4347, H-A:GLU:543:OE2:4910, H-A:GLU:543:OE1:4909, H-B:GLU:543:OE2:9882"]

$$$$
4dj_Grossjean_2025
     RDKit          3D

 39 42  0  0  0  0  0  0  0  0999 V2000
  125.2800  129.4250   63.7650 C   0  0  0  0  0  0  0  0  0  0  0  0
  125.5000  130.2050   62.4780 C   0  0  0  0  0  0  0  0  0  0  0  0
  125.3360  131.5950   62.5130 C   0  0  0  0  0  0  0  0  0  0  0  0
  125.5220  132.3710   61.3620 C   0  0  0  0  0  0  0  0  0  0  0  0
  125.3570  133.8640   61.3710 C   0  0  0  0  0  0  0  0  0  0  0  0
  124.0800  134.4480   61.3850 C   0  0  0  0  0  0  0  0  0  0  0  0
  123.9200  135.8310   61.3920 C   0  0  0  0  0  0  0  0  0  0  0  0
  125.0410  136.6540   61.3820 C   0  0  0  0  0  0  0  0  0  0  0  0
  126.3180  136.1040   61.3640 C   0  0  0  0  0  0  0  0  0  0  0  0
  126.4730  134.7210   61.3570 C   0  0  0  0  0  0  0  0  0  0  0  0
  125.8840  131.8170   60.1730 N   0  0  0  0  0  0  0  0  0  0  0  0
  126.0410  130.4940   60.1380 C   0  0  0  0  0  0  0  0  0  0  0  0
  126.4970  129.6510   58.6750 S   0  0  0  0  0  0  0  0  0  0  0  0
  126.4680  128.0950   59.5060 C   0  0  0  0  0  0  0  0  0  0  0  0
  126.7770  126.8620   58.7800 C   0  0  0  0  0  0  0  0  0  0  0  0
  127.8930  126.6860   58.2830 O   0  0  0  0  0  0  0  0  0  0  0  0
  125.7640  125.9660   58.6940 N   0  0  0  0  0  0  0  0  0  0  0  0
  125.7930  124.7310   58.0630 C   0  0  0  0  0  0  0  0  0  0  0  0
  124.8660  124.1900   57.3010 N   0  0  0  0  0  0  0  0  0  0  0  0
  125.2300  123.0000   56.8660 C   0  0  0  0  0  0  0  0  0  0  0  0
  126.4810  122.5500   57.2740 C   0  0  0  0  0  0  0  0  0  0  0  0
  127.2130  123.7600   58.2860 S   0  0  0  0  0  0  0  0  0  0  0  0
  126.1150  128.2490   60.8550 C   0  0  0  0  0  0  0  0  0  0  0  0
  126.0100  127.2060   61.7410 N   0  0  0  0  0  0  0  0  0  0  0  0
  125.8670  129.6120   61.2430 C   0  0  0  0  0  0  0  0  0  0  0  0
  125.4652  130.0816   64.6279 H   0  0  0  0  0  0  0  0  0  0  0  0
  124.2434  129.0584   63.7990 H   0  0  0  0  0  0  0  0  0  0  0  0
  125.9723  128.5708   63.7990 H   0  0  0  0  0  0  0  0  0  0  0  0
  125.0571  132.0845   63.4578 H   0  0  0  0  0  0  0  0  0  0  0  0
  123.1902  133.8012   61.3905 H   0  0  0  0  0  0  0  0  0  0  0  0
  122.9118  136.2706   61.4054 H   0  0  0  0  0  0  0  0  0  0  0  0
  124.9167  137.7469   61.3884 H   0  0  0  0  0  0  0  0  0  0  0  0
  127.2016  136.7591   61.3553 H   0  0  0  0  0  0  0  0  0  0  0  0
  127.4851  134.2905   61.3402 H   0  0  0  0  0  0  0  0  0  0  0  0
  124.8870  126.2150   59.1290 H   0  0  0  0  0  0  0  0  0  0  0  0
  124.5799  122.3961   56.2159 H   0  0  0  0  0  0  0  0  0  0  0  0
  126.9339  121.5855   57.0010 H   0  0  0  0  0  0  0  0  0  0  0  0
  126.6630  127.0820   62.5000 H   0  0  0  0  0  0  0  0  0  0  0  0
  125.2710  126.5220   61.6600 H   0  0  0  0  0  0  0  0  0  0  0  0
  1  2  1  0
  2  3  2  0
  3  4  1  0
  4  5  1  0
  5  6  2  0
  6  7  1  0
  7  8  2  0
  8  9  1  0
  9 10  2  0
  4 11  2  0
 11 12  1  0
 12 13  1  0
 13 14  1  0
 14 15  1  0
 15 16  2  0
 15 17  1  0
 17 18  1  0
 18 19  2  0
 19 20  1  0
 20 21  2  0
 21 22  1  0
 14 23  2  0
 23 24  1  0
 23 25  1  0
 25  2  1  0
 10  5  1  0
 25 12  2  0
 22 18  1  0
  1 26  1  0
  1 27  1  0
  1 28  1  0
  3 29  1  0
  6 30  1  0
  7 31  1  0
  8 32  1  0
  9 33  1  0
 10 34  1  0
 17 35  1  0
 20 36  1  0
 21 37  1  0
 24 38  1  0
 24 39  1  0
M  END
>  <Binding energies>  (1) 
[-7.31]

>  <Ligand effiencies>  (1) 
[-0.26107142857142857]

>  <Interactions>  (1) 
["V-B:LEU:363:CD1:8160, V-B:MET:535:CE:9807, V-B:ASP:366:CB:8183, V-B:PRO:540:CB:9857, V-B:ASP:366:CG:8184, V-B:PRO:540:CA:9855, V-B:GLU:543:CD:9880, H-B:GLU:543:OE1:9881, V-A:TYR:539:CD1:4873, V-B:LEU:475:CD2:9230, V-B:ILE:369:CG2:8208, H-B:GLU:543:OE2:9882, V-B:PRO:540:N:9856, V-A:TYR:539:CE1:4875, V-B:TYR:539:C:9839, V-B:PRO:540:CD:9859, H-B:ASP:366:OD1:8185, V-B:ARG:545:CZ:9898, V-B:SER:385:CA:8378, V-B:SER:385:CB:8380, H-B:ASP:366:OD2:8186"]

$$$$
4ea_Grossjean_2025
     RDKit          3D

 52 55  0  0  0  0  0  0  0  0999 V2000
  131.6720  131.9230   55.7900 C   0  0  0  0  0  0  0  0  0  0  0  0
  131.6290  132.5720   57.1760 C   0  0  0  0  0  0  0  0  0  0  0  0
  130.5130  133.4500   57.2520 O   0  0  0  0  0  0  0  0  0  0  0  0
  129.2720  132.9830   57.5460 C   0  0  0  0  0  0  0  0  0  0  0  0
  128.3030  133.1080   56.7900 O   0  0  0  0  0  0  0  0  0  0  0  0
  129.1950  132.3010   58.8800 C   0  0  0  0  0  0  0  0  0  0  0  0
  129.0170  130.9120   58.9280 C   0  0  0  0  0  0  0  0  0  0  0  0
  128.9410  130.2490   60.1500 C   0  0  0  0  0  0  0  0  0  0  0  0
  129.0420  130.9590   61.3480 C   0  0  0  0  0  0  0  0  0  0  0  0
  128.9520  130.1850   62.5210 N   0  0  0  0  0  0  0  0  0  0  0  0
  127.8680  129.6710   63.1530 C   0  0  0  0  0  0  0  0  0  0  0  0
  126.7080  129.8140   62.7670 O   0  0  0  0  0  0  0  0  0  0  0  0
  128.1590  128.9050   64.3680 C   0  0  0  0  0  0  0  0  0  0  0  0
  127.5430  129.4430   65.9320 S   0  0  0  0  0  0  0  0  0  0  0  0
  128.2860  128.0860   66.7470 C   0  0  0  0  0  0  0  0  0  0  0  0
  128.1770  127.9090   68.0640 N   0  0  0  0  0  0  0  0  0  0  0  0
  128.8010  126.8170   68.5720 C   0  0  0  0  0  0  0  0  0  0  0  0
  128.6640  126.6350   70.0720 C   0  0  0  0  0  0  0  0  0  0  0  0
  129.5230  125.9090   67.8020 C   0  0  0  0  0  0  0  0  0  0  0  0
  129.6350  126.0980   66.4200 C   0  0  0  0  0  0  0  0  0  0  0  0
  130.4050  125.1240   65.6150 C   0  0  0  0  0  0  0  0  0  0  0  0
  129.8570  123.8740   65.3100 C   0  0  0  0  0  0  0  0  0  0  0  0
  130.5800  122.9590   64.5500 C   0  0  0  0  0  0  0  0  0  0  0  0
  131.8550  123.2920   64.0990 C   0  0  0  0  0  0  0  0  0  0  0  0
  132.4130  124.5320   64.4020 C   0  0  0  0  0  0  0  0  0  0  0  0
  131.6880  125.4460   65.1610 C   0  0  0  0  0  0  0  0  0  0  0  0
  128.9950  127.2320   65.8480 C   0  0  0  0  0  0  0  0  0  0  0  0
  128.9060  127.7230   64.4970 C   0  0  0  0  0  0  0  0  0  0  0  0
  129.5040  127.0790   63.4440 N   0  0  0  0  0  0  0  0  0  0  0  0
  129.2200  132.3510   61.3090 C   0  0  0  0  0  0  0  0  0  0  0  0
  129.2960  133.0110   60.0860 C   0  0  0  0  0  0  0  0  0  0  0  0
  131.7444  130.8308   55.8987 H   0  0  0  0  0  0  0  0  0  0  0  0
  130.7551  132.1766   55.2378 H   0  0  0  0  0  0  0  0  0  0  0  0
  132.5474  132.2953   55.2378 H   0  0  0  0  0  0  0  0  0  0  0  0
  131.5342  131.7906   57.9444 H   0  0  0  0  0  0  0  0  0  0  0  0
  132.5557  133.1402   57.3446 H   0  0  0  0  0  0  0  0  0  0  0  0
  128.9366  130.3402   57.9918 H   0  0  0  0  0  0  0  0  0  0  0  0
  128.8004  129.1582   60.1718 H   0  0  0  0  0  0  0  0  0  0  0  0
  129.8440  129.9880   62.9500 H   0  0  0  0  0  0  0  0  0  0  0  0
  129.2475  127.4102   70.5902 H   0  0  0  0  0  0  0  0  0  0  0  0
  127.6050  126.7216   70.3567 H   0  0  0  0  0  0  0  0  0  0  0  0
  129.0401  125.6413   70.3567 H   0  0  0  0  0  0  0  0  0  0  0  0
  130.0052  125.0434   68.2798 H   0  0  0  0  0  0  0  0  0  0  0  0
  128.8515  123.6131   65.6718 H   0  0  0  0  0  0  0  0  0  0  0  0
  130.1465  121.9777   64.3068 H   0  0  0  0  0  0  0  0  0  0  0  0
  132.4266  122.5693   63.4981 H   0  0  0  0  0  0  0  0  0  0  0  0
  133.4211  124.7873   64.0433 H   0  0  0  0  0  0  0  0  0  0  0  0
  132.1258  126.4253   65.4047 H   0  0  0  0  0  0  0  0  0  0  0  0
  130.4260  127.3340   63.1170 H   0  0  0  0  0  0  0  0  0  0  0  0
  129.0400  126.3240   62.9570 H   0  0  0  0  0  0  0  0  0  0  0  0
  129.2995  132.9209   62.2465 H   0  0  0  0  0  0  0  0  0  0  0  0
  129.4369  134.1017   60.0646 H   0  0  0  0  0  0  0  0  0  0  0  0
  1  2  1  0
  2  3  1  0
  3  4  1  0
  4  5  2  0
  4  6  1  0
  6  7  2  0
  7  8  1  0
  8  9  2  0
  9 10  1  0
 10 11  1  0
 11 12  2  0
 11 13  1  0
 13 14  1  0
 14 15  1  0
 15 16  2  0
 16 17  1  0
 17 18  1  0
 17 19  2  0
 19 20  1  0
 20 21  1  0
 21 22  2  0
 22 23  1  0
 23 24  2  0
 24 25  1  0
 25 26  2  0
 20 27  2  0
 27 28  1  0
 28 29  1  0
  9 30  1  0
 30 31  2  0
 31  6  1  0
 28 13  2  0
 27 15  1  0
 26 21  1  0
  1 32  1  0
  1 33  1  0
  1 34  1  0
  2 35  1  0
  2 36  1  0
  7 37  1  0
  8 38  1  0
 10 39  1  0
 18 40  1  0
 18 41  1  0
 18 42  1  0
 19 43  1  0
 22 44  1  0
 23 45  1  0
 24 46  1  0
 25 47  1  0
 26 48  1  0
 29 49  1  0
 29 50  1  0
 30 51  1  0
 31 52  1  0
M  END
>  <Binding energies>  (1) 
[-8.45]

>  <Ligand effiencies>  (1) 
[-0.24852941176470586]

>  <Interactions>  (1) 
["V-B:GLU:543:C:9874, V-A:GLU:543:CD:4908, V-A:HIS:456:CE1:4070, V-A:GLU:543:CB:4906, V-B:GLU:543:CB:9878, V-A:LEU:475:CD2:4259, V-B:GLU:543:CA:9876, V-B:TYR:484:CZ:9318, V-B:GLU:543:CG:9879, V-B:GLU:543:CD:9880, V-A:GLU:543:CG:4907, V-A:TYR:484:CE2:4346, H-B:GLU:543:OE1:9881, V-A:TYR:484:CZ:4347, V-A:TYR:539:CD1:4873, H-A:GLU:543:OE2:4910, V-A:LEU:363:CD1:3189, V-A:TYR:531:CE2:4793, V-A:ILE:538:CG2:4863, V-A:ILE:538:CB:4862, H-A:GLU:543:OE1:4909, V-A:PRO:540:CA:4883, V-A:PRO:540:CB:4885, V-A:TYR:539:C:4867, H-A:TYR:539:N:4870, V-A:PRO:540:N:4884, V-A:MET:535:CE:4835, V-A:PRO:540:CD:4887"]

$$$$
4eb_Grossjean_2025
     RDKit          3D

 49 52  0  0  0  0  0  0  0  0999 V2000
  128.6820  132.9860   55.5500 C   0  0  0  0  0  0  0  0  0  0  0  0
  128.8550  133.4370   56.8850 O   0  0  0  0  0  0  0  0  0  0  0  0
  129.9820  133.1390   57.5830 C   0  0  0  0  0  0  0  0  0  0  0  0
  131.1170  133.4280   57.1950 O   0  0  0  0  0  0  0  0  0  0  0  0
  129.7070  132.4240   58.8740 C   0  0  0  0  0  0  0  0  0  0  0  0
  130.4910  131.3150   59.2210 C   0  0  0  0  0  0  0  0  0  0  0  0
  130.2620  130.6310   60.4110 C   0  0  0  0  0  0  0  0  0  0  0  0
  129.2470  131.0380   61.2780 C   0  0  0  0  0  0  0  0  0  0  0  0
  129.1070  130.2710   62.4510 N   0  0  0  0  0  0  0  0  0  0  0  0
  128.0160  129.6600   62.9750 C   0  0  0  0  0  0  0  0  0  0  0  0
  126.8950  129.6840   62.4660 O   0  0  0  0  0  0  0  0  0  0  0  0
  128.2460  128.9400   64.2300 C   0  0  0  0  0  0  0  0  0  0  0  0
  127.5750  129.5490   65.7450 S   0  0  0  0  0  0  0  0  0  0  0  0
  128.2640  128.2150   66.6430 C   0  0  0  0  0  0  0  0  0  0  0  0
  128.0990  128.0930   67.9610 N   0  0  0  0  0  0  0  0  0  0  0  0
  128.6840  127.0150   68.5370 C   0  0  0  0  0  0  0  0  0  0  0  0
  128.4830  126.8950   70.0370 C   0  0  0  0  0  0  0  0  0  0  0  0
  129.4230  126.0660   67.8340 C   0  0  0  0  0  0  0  0  0  0  0  0
  129.5940  126.1990   66.4510 C   0  0  0  0  0  0  0  0  0  0  0  0
  130.3830  125.1820   65.7180 C   0  0  0  0  0  0  0  0  0  0  0  0
  129.8290  123.9280   65.4430 C   0  0  0  0  0  0  0  0  0  0  0  0
  130.5690  122.9720   64.7510 C   0  0  0  0  0  0  0  0  0  0  0  0
  131.8660  123.2700   64.3380 C   0  0  0  0  0  0  0  0  0  0  0  0
  132.4270  124.5160   64.6110 C   0  0  0  0  0  0  0  0  0  0  0  0
  131.6860  125.4710   65.3020 C   0  0  0  0  0  0  0  0  0  0  0  0
  128.9960  127.3170   65.8090 C   0  0  0  0  0  0  0  0  0  0  0  0
  128.9690  127.7540   64.4380 C   0  0  0  0  0  0  0  0  0  0  0  0
  129.6000  127.0610   63.4360 N   0  0  0  0  0  0  0  0  0  0  0  0
  128.4570  132.1470   60.9390 C   0  0  0  0  0  0  0  0  0  0  0  0
  128.6880  132.8300   59.7480 C   0  0  0  0  0  0  0  0  0  0  0  0
  128.2880  131.9590   55.5581 H   0  0  0  0  0  0  0  0  0  0  0  0
  127.9734  133.6464   55.0288 H   0  0  0  0  0  0  0  0  0  0  0  0
  129.6505  133.0031   55.0288 H   0  0  0  0  0  0  0  0  0  0  0  0
  131.2941  130.9826   58.5468 H   0  0  0  0  0  0  0  0  0  0  0  0
  130.8858  129.7629   60.6703 H   0  0  0  0  0  0  0  0  0  0  0  0
  129.9610  130.1670   62.9770 H   0  0  0  0  0  0  0  0  0  0  0  0
  129.3143  127.3913   70.5592 H   0  0  0  0  0  0  0  0  0  0  0  0
  127.5341  127.3746   70.3193 H   0  0  0  0  0  0  0  0  0  0  0  0
  128.4549  125.8322   70.3193 H   0  0  0  0  0  0  0  0  0  0  0  0
  129.8715  125.2134   68.3649 H   0  0  0  0  0  0  0  0  0  0  0  0
  128.8060  123.6958   65.7740 H   0  0  0  0  0  0  0  0  0  0  0  0
  130.1317  121.9868   64.5317 H   0  0  0  0  0  0  0  0  0  0  0  0
  132.4517  122.5157   63.7921 H   0  0  0  0  0  0  0  0  0  0  0  0
  133.4515  124.7442   64.2818 H   0  0  0  0  0  0  0  0  0  0  0  0
  132.1267  126.4548   65.5210 H   0  0  0  0  0  0  0  0  0  0  0  0
  130.4990  127.3490   63.0760 H   0  0  0  0  0  0  0  0  0  0  0  0
  129.1850  126.2370   63.0230 H   0  0  0  0  0  0  0  0  0  0  0  0
  127.6544  132.4771   61.6149 H   0  0  0  0  0  0  0  0  0  0  0  0
  128.0640  133.6982   59.4895 H   0  0  0  0  0  0  0  0  0  0  0  0
  1  2  1  0
  2  3  1  0
  3  4  2  0
  3  5  1  0
  5  6  2  0
  6  7  1  0
  7  8  2  0
  8  9  1  0
  9 10  1  0
 10 11  2  0
 10 12  1  0
 12 13  1  0
 13 14  1  0
 14 15  2  0
 15 16  1  0
 16 17  1  0
 16 18  2  0
 18 19  1  0
 19 20  1  0
 20 21  2  0
 21 22  1  0
 22 23  2  0
 23 24  1  0
 24 25  2  0
 19 26  2  0
 26 27  1  0
 27 28  1  0
  8 29  1  0
 29 30  2  0
 30  5  1  0
 27 12  2  0
 26 14  1  0
 25 20  1  0
  1 31  1  0
  1 32  1  0
  1 33  1  0
  6 34  1  0
  7 35  1  0
  9 36  1  0
 17 37  1  0
 17 38  1  0
 17 39  1  0
 18 40  1  0
 21 41  1  0
 22 42  1  0
 23 43  1  0
 24 44  1  0
 25 45  1  0
 28 46  1  0
 28 47  1  0
 29 48  1  0
 30 49  1  0
M  END
>  <Binding energies>  (1) 
[-8.35]

>  <Ligand effiencies>  (1) 
[-0.253030303030303]

>  <Interactions>  (1) 
["V-B:GLU:543:C:9874, V-A:GLU:543:CD:4908, V-A:HIS:456:CE1:4070, V-A:GLU:543:CB:4906, V-B:HIS:456:CE1:9041, V-B:GLU:543:CB:9878, V-A:LEU:475:CD2:4259, V-B:GLU:543:CA:9876, V-B:TYR:484:CZ:9318, V-B:GLU:543:CG:9879, V-B:GLU:543:CD:9880, V-A:GLU:543:CG:4907, V-A:TYR:484:CE2:4346, H-B:GLU:543:OE1:9881, V-A:TYR:484:CZ:4347, V-A:TYR:539:CD1:4873, H-A:GLU:543:OE2:4910, H-A:GLU:543:OE1:4909, V-A:PRO:540:CA:4883, V-A:TYR:539:C:4867, H-A:TYR:539:N:4870, V-A:PRO:540:N:4884, V-A:MET:535:CE:4835, V-A:PRO:540:CD:4887, V-A:ILE:538:CA:4860, V-A:TYR:539:CZ:4877, V-A:TYR:539:CE2:4876, V-A:TYR:539:CA:4869, V-A:TYR:539:CD2:4874"]

$$$$
8a_Ghoteimi_2023
     RDKit          3D

 67 71  0  0  0  0  0  0  0  0999 V2000
  131.2060  131.8580   55.3650 C   0  0  0  0  0  0  0  0  0  0  0  0
  131.8030  132.6280   56.5460 C   0  0  0  0  0  0  0  0  0  0  0  0
  130.8230  133.5100   57.0790 O   0  0  0  0  0  0  0  0  0  0  0  0
  129.5340  133.1120   57.2400 C   0  0  0  0  0  0  0  0  0  0  0  0
  128.6420  133.3480   56.4190 O   0  0  0  0  0  0  0  0  0  0  0  0
  129.3010  132.3600   58.5190 C   0  0  0  0  0  0  0  0  0  0  0  0
  130.4020  131.9550   59.2840 C   0  0  0  0  0  0  0  0  0  0  0  0
  130.2190  131.2560   60.4730 C   0  0  0  0  0  0  0  0  0  0  0  0
  128.9340  130.9460   60.9230 C   0  0  0  0  0  0  0  0  0  0  0  0
  128.8710  130.2310   62.1360 N   0  0  0  0  0  0  0  0  0  0  0  0
  127.8240  129.6150   62.7370 C   0  0  0  0  0  0  0  0  0  0  0  0
  126.6810  129.5860   62.2810 O   0  0  0  0  0  0  0  0  0  0  0  0
  128.1340  128.9520   64.0070 C   0  0  0  0  0  0  0  0  0  0  0  0
  127.5140  129.5990   65.5260 S   0  0  0  0  0  0  0  0  0  0  0  0
  128.2990  128.3330   66.4410 C   0  0  0  0  0  0  0  0  0  0  0  0
  128.2210  128.2780   67.7700 N   0  0  0  0  0  0  0  0  0  0  0  0
  128.8730  127.2560   68.3840 C   0  0  0  0  0  0  0  0  0  0  0  0
  128.7890  127.2250   69.8770 C   0  0  0  0  0  0  0  0  0  0  0  0
  129.9280  127.4190   70.6700 C   0  0  0  0  0  0  0  0  0  0  0  0
  129.8450  127.3770   72.0590 C   0  0  0  0  0  0  0  0  0  0  0  0
  128.6240  127.1460   72.6890 C   0  0  0  0  0  0  0  0  0  0  0  0
  128.6370  127.1200   74.0710 O   0  0  0  0  0  0  0  0  0  0  0  0
  128.5800  128.3480   74.7880 C   0  0  0  0  0  0  0  0  0  0  0  0
  127.4770  126.9570   71.9050 C   0  0  0  0  0  0  0  0  0  0  0  0
  127.5640  126.9960   70.5160 C   0  0  0  0  0  0  0  0  0  0  0  0
  129.5910  126.2940   67.6710 C   0  0  0  0  0  0  0  0  0  0  0  0
  129.6630  126.3380   66.2750 C   0  0  0  0  0  0  0  0  0  0  0  0
  130.4130  125.2710   65.5640 C   0  0  0  0  0  0  0  0  0  0  0  0
  129.8060  124.0420   65.2990 C   0  0  0  0  0  0  0  0  0  0  0  0
  130.4980  123.0470   64.6150 C   0  0  0  0  0  0  0  0  0  0  0  0
  131.8060  123.2640   64.1800 C   0  0  0  0  0  0  0  0  0  0  0  0
  132.4150  122.2200   63.5100 O   0  0  0  0  0  0  0  0  0  0  0  0
  133.4460  122.5050   62.5720 C   0  0  0  0  0  0  0  0  0  0  0  0
  132.4160  124.5020   64.4390 C   0  0  0  0  0  0  0  0  0  0  0  0
  131.7200  125.4960   65.1220 C   0  0  0  0  0  0  0  0  0  0  0  0
  129.0060  127.4130   65.6120 C   0  0  0  0  0  0  0  0  0  0  0  0
  128.9090  127.8020   64.2260 C   0  0  0  0  0  0  0  0  0  0  0  0
  129.5390  127.1110   63.2210 N   0  0  0  0  0  0  0  0  0  0  0  0
  127.8250  131.3520   60.1660 C   0  0  0  0  0  0  0  0  0  0  0  0
  128.0100  132.0520   58.9760 C   0  0  0  0  0  0  0  0  0  0  0  0
  130.5729  131.0414   55.7422 H   0  0  0  0  0  0  0  0  0  0  0  0
  130.5983  132.5400   54.7522 H   0  0  0  0  0  0  0  0  0  0  0  0
  132.0179  131.4394   54.7522 H   0  0  0  0  0  0  0  0  0  0  0  0
  132.1200  131.9182   57.3243 H   0  0  0  0  0  0  0  0  0  0  0  0
  132.6726  133.2085   56.2041 H   0  0  0  0  0  0  0  0  0  0  0  0
  131.4203  132.1916   58.9418 H   0  0  0  0  0  0  0  0  0  0  0  0
  131.0936  130.9451   61.0633 H   0  0  0  0  0  0  0  0  0  0  0  0
  129.7540  130.1660   62.6200 H   0  0  0  0  0  0  0  0  0  0  0  0
  130.8994  127.6067   70.1891 H   0  0  0  0  0  0  0  0  0  0  0  0
  130.7511  127.5275   72.6643 H   0  0  0  0  0  0  0  0  0  0  0  0
  128.5895  128.1424   75.8686 H   0  0  0  0  0  0  0  0  0  0  0  0
  129.4504  128.9670   74.5248 H   0  0  0  0  0  0  0  0  0  0  0  0
  127.6560  128.8837   74.5248 H   0  0  0  0  0  0  0  0  0  0  0  0
  126.5056  126.7774   72.3888 H   0  0  0  0  0  0  0  0  0  0  0  0
  126.6574  126.8447   69.9117 H   0  0  0  0  0  0  0  0  0  0  0  0
  130.1076  125.4897   68.2152 H   0  0  0  0  0  0  0  0  0  0  0  0
  128.7741  123.8589   65.6330 H   0  0  0  0  0  0  0  0  0  0  0  0
  130.0099  122.0816   64.4156 H   0  0  0  0  0  0  0  0  0  0  0  0
  134.3708  122.7606   63.1100 H   0  0  0  0  0  0  0  0  0  0  0  0
  133.6215  121.6217   61.9404 H   0  0  0  0  0  0  0  0  0  0  0  0
  133.1429  123.3530   61.9404 H   0  0  0  0  0  0  0  0  0  0  0  0
  133.4464  124.6871   64.1014 H   0  0  0  0  0  0  0  0  0  0  0  0
  132.2023  126.4656   65.3152 H   0  0  0  0  0  0  0  0  0  0  0  0
  129.0910  126.3330   62.7570 H   0  0  0  0  0  0  0  0  0  0  0  0
  130.4660  127.3580   62.9070 H   0  0  0  0  0  0  0  0  0  0  0  0
  126.8078  131.1172   60.5126 H   0  0  0  0  0  0  0  0  0  0  0  0
  127.1351  132.3668   58.3882 H   0  0  0  0  0  0  0  0  0  0  0  0
  1  2  1  0
  2  3  1  0
  3  4  1  0
  4  5  2  0
  4  6  1  0
  6  7  2  0
  7  8  1  0
  8  9  2  0
  9 10  1  0
 10 11  1  0
 11 12  2  0
 11 13  1  0
 13 14  1  0
 14 15  1  0
 15 16  2  0
 16 17  1  0
 17 18  1  0
 18 19  2  0
 19 20  1  0
 20 21  2  0
 21 22  1  0
 22 23  1  0
 21 24  1  0
 24 25  2  0
 17 26  2  0
 26 27  1  0
 27 28  1  0
 28 29  2  0
 29 30  1  0
 30 31  2  0
 31 32  1  0
 32 33  1  0
 31 34  1  0
 34 35  2  0
 27 36  2  0
 36 37  1  0
 37 38  1  0
  9 39  1  0
 39 40  2  0
 40  6  1  0
 37 13  2  0
 36 15  1  0
 25 18  1  0
 35 28  1  0
  1 41  1  0
  1 42  1  0
  1 43  1  0
  2 44  1  0
  2 45  1  0
  7 46  1  0
  8 47  1  0
 10 48  1  0
 19 49  1  0
 20 50  1  0
 23 51  1  0
 23 52  1  0
 23 53  1  0
 24 54  1  0
 25 55  1  0
 26 56  1  0
 29 57  1  0
 30 58  1  0
 33 59  1  0
 33 60  1  0
 33 61  1  0
 34 62  1  0
 35 63  1  0
 38 64  1  0
 38 65  1  0
 39 66  1  0
 40 67  1  0
M  END
>  <Binding energies>  (1) 
[-9.71]

>  <Ligand effiencies>  (1) 
[-0.2258139534883721]

>  <Interactions>  (1) 
["V-B:GLU:543:C:9874, V-A:GLU:543:CD:4908, V-A:HIS:456:CE1:4070, V-B:GLY:544:C:9884, V-A:GLU:543:CB:4906, V-B:HIS:456:CE1:9041, V-B:HIS:456:CD2:9039, V-B:GLU:543:CB:9878, V-A:LEU:475:CD2:4259, H-B:LYS:547:NZ:9923, V-B:GLY:544:CA:9886, V-A:HIS:456:CD2:4068, V-B:TYR:484:CZ:9318, V-B:GLU:543:CG:9879, V-B:GLU:543:CD:9880, V-A:GLU:543:CG:4907, V-A:TYR:484:CE2:4346, H-B:GLU:543:OE1:9881, V-A:TYR:484:CZ:4347, V-A:TYR:539:CD1:4873, H-A:GLU:543:OE2:4910, V-A:LEU:363:CD1:3189, V-A:ILE:538:CG2:4863, V-A:ILE:538:CB:4862, H-A:GLU:543:OE1:4909, V-A:PRO:540:CA:4883, V-A:PRO:540:CB:4885, V-A:TYR:539:CE1:4875, V-A:TYR:539:C:4867, H-A:TYR:539:N:4870, V-A:PRO:540:N:4884, V-A:MET:535:CE:4835, V-A:ARG:545:CZ:4926, H-A:TYR:484:OH:4348, V-A:GLY:454:CA:4049, V-A:TYR:539:CA:4869, V-A:MET:535:CG:4833"]

$$$$
8b_Ghoteimi_2023
     RDKit          3D

 54 58  0  0  0  0  0  0  0  0999 V2000
  130.8550  126.9790   73.9760 C   0  0  0  0  0  0  0  0  0  0  0  0
  130.1790  128.0480   73.3210 O   0  0  0  0  0  0  0  0  0  0  0  0
  129.8560  127.9220   71.9840 C   0  0  0  0  0  0  0  0  0  0  0  0
  130.8650  128.2140   71.0680 C   0  0  0  0  0  0  0  0  0  0  0  0
  130.6310  128.1160   69.7010 C   0  0  0  0  0  0  0  0  0  0  0  0
  129.3770  127.7200   69.2110 C   0  0  0  0  0  0  0  0  0  0  0  0
  129.1190  127.6140   67.7420 C   0  0  0  0  0  0  0  0  0  0  0  0
  128.4590  128.6250   67.0350 C   0  0  0  0  0  0  0  0  0  0  0  0
  128.2300  128.5020   65.6610 C   0  0  0  0  0  0  0  0  0  0  0  0
  127.5200  129.5860   64.9440 C   0  0  0  0  0  0  0  0  0  0  0  0
  128.2130  130.7220   64.5220 C   0  0  0  0  0  0  0  0  0  0  0  0
  127.5460  131.7350   63.8400 C   0  0  0  0  0  0  0  0  0  0  0  0
  126.1800  131.6310   63.5720 C   0  0  0  0  0  0  0  0  0  0  0  0
  125.6030  132.6840   62.8880 O   0  0  0  0  0  0  0  0  0  0  0  0
  124.1840  132.7990   62.8600 C   0  0  0  0  0  0  0  0  0  0  0  0
  125.4850  130.4900   64.0010 C   0  0  0  0  0  0  0  0  0  0  0  0
  126.1540  129.4760   64.6820 C   0  0  0  0  0  0  0  0  0  0  0  0
  128.6940  127.3280   65.0090 C   0  0  0  0  0  0  0  0  0  0  0  0
  128.6370  126.8840   63.6400 C   0  0  0  0  0  0  0  0  0  0  0  0
  128.0520  127.6320   62.6500 N   0  0  0  0  0  0  0  0  0  0  0  0
  129.2320  125.6320   63.4240 C   0  0  0  0  0  0  0  0  0  0  0  0
  129.3580  124.8870   62.1690 C   0  0  0  0  0  0  0  0  0  0  0  0
  130.4630  124.7160   61.6470 O   0  0  0  0  0  0  0  0  0  0  0  0
  128.1940  124.4220   61.6490 N   0  0  0  0  0  0  0  0  0  0  0  0
  128.0230  123.6890   60.4830 C   0  0  0  0  0  0  0  0  0  0  0  0
  127.2970  124.1570   59.3890 C   0  0  0  0  0  0  0  0  0  0  0  0
  127.3610  123.1460   58.4570 C   0  0  0  0  0  0  0  0  0  0  0  0
  128.0910  122.1240   58.9620 O   0  0  0  0  0  0  0  0  0  0  0  0
  128.5060  122.4790   60.2470 N   0  0  0  0  0  0  0  0  0  0  0  0
  129.8840  124.9690   64.9230 S   0  0  0  0  0  0  0  0  0  0  0  0
  129.3570  126.3690   65.8270 C   0  0  0  0  0  0  0  0  0  0  0  0
  129.5730  126.4840   67.1370 N   0  0  0  0  0  0  0  0  0  0  0  0
  128.3680  127.4250   70.1370 C   0  0  0  0  0  0  0  0  0  0  0  0
  128.5990  127.5240   71.5060 C   0  0  0  0  0  0  0  0  0  0  0  0
  130.7741  127.1069   75.0655 H   0  0  0  0  0  0  0  0  0  0  0  0
  130.3974  126.0222   73.6842 H   0  0  0  0  0  0  0  0  0  0  0  0
  131.9156  126.9823   73.6842 H   0  0  0  0  0  0  0  0  0  0  0  0
  131.8561  128.5250   71.4301 H   0  0  0  0  0  0  0  0  0  0  0  0
  131.4398  128.3521   68.9939 H   0  0  0  0  0  0  0  0  0  0  0  0
  128.1167  129.5258   67.5654 H   0  0  0  0  0  0  0  0  0  0  0  0
  129.2892  130.8166   64.7292 H   0  0  0  0  0  0  0  0  0  0  0  0
  128.1001  132.6258   63.5091 H   0  0  0  0  0  0  0  0  0  0  0  0
  123.7983  132.8303   63.8897 H   0  0  0  0  0  0  0  0  0  0  0  0
  123.9013  133.7230   62.3343 H   0  0  0  0  0  0  0  0  0  0  0  0
  123.7562  131.9326   62.3343 H   0  0  0  0  0  0  0  0  0  0  0  0
  124.4079  130.3961   63.7987 H   0  0  0  0  0  0  0  0  0  0  0  0
  125.6029  128.5841   65.0149 H   0  0  0  0  0  0  0  0  0  0  0  0
  127.0840  127.5000   62.3940 H   0  0  0  0  0  0  0  0  0  0  0  0
  128.5680  128.3360   62.1410 H   0  0  0  0  0  0  0  0  0  0  0  0
  127.3500  124.6240   62.1640 H   0  0  0  0  0  0  0  0  0  0  0  0
  126.7838  125.1251   59.2915 H   0  0  0  0  0  0  0  0  0  0  0  0
  126.8938  123.1655   57.4613 H   0  0  0  0  0  0  0  0  0  0  0  0
  127.3776  127.1102   69.7765 H   0  0  0  0  0  0  0  0  0  0  0  0
  127.7923  127.2891   72.2160 H   0  0  0  0  0  0  0  0  0  0  0  0
  1  2  1  0
  2  3  1  0
  3  4  2  0
  4  5  1  0
  5  6  2  0
  6  7  1  0
  7  8  2  0
  8  9  1  0
  9 10  1  0
 10 11  2  0
 11 12  1  0
 12 13  2  0
 13 14  1  0
 14 15  1  0
 13 16  1  0
 16 17  2  0
  9 18  2  0
 18 19  1  0
 19 20  1  0
 19 21  2  0
 21 22  1  0
 22 23  2  0
 22 24  1  0
 24 25  1  0
 25 26  1  0
 26 27  2  0
 27 28  1  0
 28 29  1  0
 21 30  1  0
 30 31  1  0
 31 32  2  0
  6 33  1  0
 33 34  2  0
 34  3  1  0
 32  7  1  0
 17 10  1  0
 31 18  1  0
 29 25  2  0
  1 35  1  0
  1 36  1  0
  1 37  1  0
  4 38  1  0
  5 39  1  0
  8 40  1  0
 11 41  1  0
 12 42  1  0
 15 43  1  0
 15 44  1  0
 15 45  1  0
 16 46  1  0
 17 47  1  0
 20 48  1  0
 20 49  1  0
 24 50  1  0
 26 51  1  0
 27 52  1  0
 33 53  1  0
 34 54  1  0
M  END
>  <Binding energies>  (1) 
[-7.45]

>  <Ligand effiencies>  (1) 
[-0.20135135135135135]

>  <Interactions>  (1) 
["H-A:LYS:547:NZ:4951, V-A:GLU:543:CD:4908, V-A:GLU:543:C:4902, V-A:HIS:456:CE1:4070, V-A:GLU:543:CB:4906, V-B:HIS:456:CE1:9041, V-A:GLY:544:C:4912, V-B:HIS:456:CD2:9039, V-B:GLU:543:CB:9878, V-A:GLY:544:CA:4914, V-B:PRO:540:CA:9855, V-A:HIS:456:CD2:4068, V-B:GLU:543:CG:9879, V-B:GLU:543:CD:9880, V-A:GLU:543:CG:4907, V-A:GLU:543:CA:4904, H-B:GLU:543:OE1:9881, V-B:GLY:454:CA:9020, H-A:GLU:543:OE1:4909, H-B:GLU:543:OE2:9882, V-B:PRO:540:N:9856"]

$$$$
8c_Ghoteimi_2023
     RDKit          3D

 54 58  0  0  0  0  0  0  0  0999 V2000
  130.5490  126.5800   74.9500 C   0  0  0  0  0  0  0  0  0  0  0  0
  129.3790  127.0090   74.2630 O   0  0  0  0  0  0  0  0  0  0  0  0
  129.3910  127.0660   72.8820 C   0  0  0  0  0  0  0  0  0  0  0  0
  128.2290  126.6590   72.2310 C   0  0  0  0  0  0  0  0  0  0  0  0
  128.1520  126.6800   70.8420 C   0  0  0  0  0  0  0  0  0  0  0  0
  129.2380  127.1110   70.0660 C   0  0  0  0  0  0  0  0  0  0  0  0
  129.1620  127.1330   68.5720 C   0  0  0  0  0  0  0  0  0  0  0  0
  129.8510  126.2050   67.7860 C   0  0  0  0  0  0  0  0  0  0  0  0
  129.7610  126.2460   66.3900 C   0  0  0  0  0  0  0  0  0  0  0  0
  130.5100  125.2530   65.5860 C   0  0  0  0  0  0  0  0  0  0  0  0
  131.8330  125.5030   65.2140 C   0  0  0  0  0  0  0  0  0  0  0  0
  132.5380  124.5650   64.4660 C   0  0  0  0  0  0  0  0  0  0  0  0
  131.9350  123.3680   64.0770 C   0  0  0  0  0  0  0  0  0  0  0  0
  132.7110  122.4960   63.3390 O   0  0  0  0  0  0  0  0  0  0  0  0
  133.6930  123.0200   62.4530 C   0  0  0  0  0  0  0  0  0  0  0  0
  130.6040  123.1210   64.4490 C   0  0  0  0  0  0  0  0  0  0  0  0
  129.8990  124.0590   65.1980 C   0  0  0  0  0  0  0  0  0  0  0  0
  128.9490  127.2510   65.8020 C   0  0  0  0  0  0  0  0  0  0  0  0
  128.6350  127.5760   64.4360 C   0  0  0  0  0  0  0  0  0  0  0  0
  129.1420  126.8670   63.3760 N   0  0  0  0  0  0  0  0  0  0  0  0
  127.7700  128.6740   64.2970 C   0  0  0  0  0  0  0  0  0  0  0  0
  127.2440  129.2700   63.0670 C   0  0  0  0  0  0  0  0  0  0  0  0
  128.0050  129.6390   62.1700 O   0  0  0  0  0  0  0  0  0  0  0  0
  125.8940  129.3800   63.0050 N   0  0  0  0  0  0  0  0  0  0  0  0
  125.1460  129.9020   61.9600 C   0  0  0  0  0  0  0  0  0  0  0  0
  125.4030  129.8370   60.6710 N   0  0  0  0  0  0  0  0  0  0  0  0
  124.4730  130.4420   59.9600 C   0  0  0  0  0  0  0  0  0  0  0  0
  123.4290  131.0190   60.6750 C   0  0  0  0  0  0  0  0  0  0  0  0
  123.6900  130.7480   62.3730 S   0  0  0  0  0  0  0  0  0  0  0  0
  127.3190  129.3330   65.8700 S   0  0  0  0  0  0  0  0  0  0  0  0
  128.2900  128.1400   66.7010 C   0  0  0  0  0  0  0  0  0  0  0  0
  128.3760  128.1020   68.0300 N   0  0  0  0  0  0  0  0  0  0  0  0
  130.4030  127.5220   70.7280 C   0  0  0  0  0  0  0  0  0  0  0  0
  130.4830  127.5010   72.1180 C   0  0  0  0  0  0  0  0  0  0  0  0
  130.3804  126.6418   76.0352 H   0  0  0  0  0  0  0  0  0  0  0  0
  130.7763  125.5400   74.6729 H   0  0  0  0  0  0  0  0  0  0  0  0
  131.3947  127.2265   74.6729 H   0  0  0  0  0  0  0  0  0  0  0  0
  127.3648  126.3181   72.8200 H   0  0  0  0  0  0  0  0  0  0  0  0
  127.2263  126.3540   70.3453 H   0  0  0  0  0  0  0  0  0  0  0  0
  130.4701  125.4349   68.2694 H   0  0  0  0  0  0  0  0  0  0  0  0
  132.3187  126.4436   65.5131 H   0  0  0  0  0  0  0  0  0  0  0  0
  133.5801  124.7688   64.1787 H   0  0  0  0  0  0  0  0  0  0  0  0
  134.5159  123.4591   63.0361 H   0  0  0  0  0  0  0  0  0  0  0  0
  134.0840  122.2106   61.8189 H   0  0  0  0  0  0  0  0  0  0  0  0
  133.2384  123.7954   61.8189 H   0  0  0  0  0  0  0  0  0  0  0  0
  130.1162  122.1824   64.1474 H   0  0  0  0  0  0  0  0  0  0  0  0
  128.8563  123.8587   65.4854 H   0  0  0  0  0  0  0  0  0  0  0  0
  129.9840  127.1600   62.9010 H   0  0  0  0  0  0  0  0  0  0  0  0
  128.6910  126.0310   63.0330 H   0  0  0  0  0  0  0  0  0  0  0  0
  125.3660  129.0440   63.7980 H   0  0  0  0  0  0  0  0  0  0  0  0
  124.5198  130.4881   58.8620 H   0  0  0  0  0  0  0  0  0  0  0  0
  122.5764  131.5592   60.2375 H   0  0  0  0  0  0  0  0  0  0  0  0
  131.2670  127.8663   70.1407 H   0  0  0  0  0  0  0  0  0  0  0  0
  131.4067  127.8270   72.6186 H   0  0  0  0  0  0  0  0  0  0  0  0
  1  2  1  0
  2  3  1  0
  3  4  2  0
  4  5  1  0
  5  6  2  0
  6  7  1  0
  7  8  2  0
  8  9  1  0
  9 10  1  0
 10 11  2  0
 11 12  1  0
 12 13  2  0
 13 14  1  0
 14 15  1  0
 13 16  1  0
 16 17  2  0
  9 18  2  0
 18 19  1  0
 19 20  1  0
 19 21  2  0
 21 22  1  0
 22 23  2  0
 22 24  1  0
 24 25  1  0
 25 26  2  0
 26 27  1  0
 27 28  2  0
 28 29  1  0
 21 30  1  0
 30 31  1  0
 31 32  2  0
  6 33  1  0
 33 34  2  0
 34  3  1  0
 32  7  1  0
 17 10  1  0
 31 18  1  0
 29 25  1  0
  1 35  1  0
  1 36  1  0
  1 37  1  0
  4 38  1  0
  5 39  1  0
  8 40  1  0
 11 41  1  0
 12 42  1  0
 15 43  1  0
 15 44  1  0
 15 45  1  0
 16 46  1  0
 17 47  1  0
 20 48  1  0
 20 49  1  0
 24 50  1  0
 27 51  1  0
 28 52  1  0
 33 53  1  0
 34 54  1  0
M  END
>  <Binding energies>  (1) 
[-7.58]

>  <Ligand effiencies>  (1) 
[-0.20486486486486485]

>  <Interactions>  (1) 
["V-B:GLU:543:C:9874, V-A:GLU:543:CD:4908, V-A:HIS:456:CE1:4070, V-A:GLU:543:CB:4906, V-B:HIS:456:CE1:9041, V-A:GLY:544:C:4912, V-B:GLU:543:CB:9878, V-A:LEU:475:CD2:4259, V-B:ASP:366:CB:8183, V-B:ASP:366:CG:8184, H-B:LYS:547:NZ:9923, V-A:HIS:456:CD2:4068, V-B:TYR:484:CZ:9318, V-B:GLU:543:CG:9879, V-B:GLU:543:CD:9880, V-A:GLU:543:CG:4907, V-A:TYR:484:CE2:4346, H-B:GLU:543:OE1:9881, H-A:GLU:543:OE2:4910, H-A:GLU:543:OE1:4909, V-B:ILE:369:CG2:8208, H-B:GLU:543:OE2:9882, V-B:ILE:369:CG1:8209, V-B:ILE:369:CB:8207, V-A:ARG:545:CZ:4926, V-B:ASP:366:CA:8181, H-A:TYR:484:OH:4348, V-A:GLY:454:CA:4049"]

$$$$
8d_Ghoteimi_2023
     RDKit          3D

 50 53  0  0  0  0  0  0  0  0999 V2000
  129.1260  132.8340   55.8760 C   0  0  0  0  0  0  0  0  0  0  0  0
  130.4050  133.4110   56.0970 O   0  0  0  0  0  0  0  0  0  0  0  0
  131.1860  132.9990   57.1290 C   0  0  0  0  0  0  0  0  0  0  0  0
  132.3810  133.2800   57.2450 O   0  0  0  0  0  0  0  0  0  0  0  0
  130.4520  132.1720   58.1120 C   0  0  0  0  0  0  0  0  0  0  0  0
  129.1860  132.9000   59.1030 S   0  0  0  0  0  0  0  0  0  0  0  0
  128.8810  131.3740   59.9020 C   0  0  0  0  0  0  0  0  0  0  0  0
  127.9500  131.2490   60.8480 N   0  0  0  0  0  0  0  0  0  0  0  0
  127.7930  130.0170   61.4030 C   0  0  0  0  0  0  0  0  0  0  0  0
  126.7460  129.9060   62.4650 C   0  0  0  0  0  0  0  0  0  0  0  0
  125.4060  130.2220   62.1980 C   0  0  0  0  0  0  0  0  0  0  0  0
  124.4360  130.1170   63.1900 C   0  0  0  0  0  0  0  0  0  0  0  0
  124.7770  129.6940   64.4740 C   0  0  0  0  0  0  0  0  0  0  0  0
  123.7500  129.6190   65.3940 O   0  0  0  0  0  0  0  0  0  0  0  0
  124.0600  129.6270   66.7840 C   0  0  0  0  0  0  0  0  0  0  0  0
  126.1140  129.3730   64.7520 C   0  0  0  0  0  0  0  0  0  0  0  0
  127.0820  129.4790   63.7560 C   0  0  0  0  0  0  0  0  0  0  0  0
  128.5690  128.9210   61.0170 C   0  0  0  0  0  0  0  0  0  0  0  0
  129.5430  129.0510   60.0220 C   0  0  0  0  0  0  0  0  0  0  0  0
  130.3440  127.8680   59.6290 C   0  0  0  0  0  0  0  0  0  0  0  0
  131.2190  127.2780   60.5430 C   0  0  0  0  0  0  0  0  0  0  0  0
  131.9780  126.1710   60.1700 C   0  0  0  0  0  0  0  0  0  0  0  0
  131.8700  125.6380   58.8860 C   0  0  0  0  0  0  0  0  0  0  0  0
  132.6620  124.5410   58.6050 O   0  0  0  0  0  0  0  0  0  0  0  0
  133.8560  124.3380   59.3510 C   0  0  0  0  0  0  0  0  0  0  0  0
  130.9860  126.2310   57.9700 C   0  0  0  0  0  0  0  0  0  0  0  0
  130.2290  127.3380   58.3440 C   0  0  0  0  0  0  0  0  0  0  0  0
  129.7220  130.3280   59.4270 C   0  0  0  0  0  0  0  0  0  0  0  0
  130.6090  130.8130   58.4060 C   0  0  0  0  0  0  0  0  0  0  0  0
  131.5300  130.0080   57.7830 N   0  0  0  0  0  0  0  0  0  0  0  0
  128.6488  132.6187   56.8434 H   0  0  0  0  0  0  0  0  0  0  0  0
  128.5000  133.5369   55.3067 H   0  0  0  0  0  0  0  0  0  0  0  0
  129.2387  131.8995   55.3067 H   0  0  0  0  0  0  0  0  0  0  0  0
  125.1179  130.5574   61.1908 H   0  0  0  0  0  0  0  0  0  0  0  0
  123.3907  130.3700   62.9591 H   0  0  0  0  0  0  0  0  0  0  0  0
  123.1279  129.6029   67.3677 H   0  0  0  0  0  0  0  0  0  0  0  0
  124.6689  128.7443   67.0290 H   0  0  0  0  0  0  0  0  0  0  0  0
  124.6226  130.5400   67.0290 H   0  0  0  0  0  0  0  0  0  0  0  0
  126.3989  129.0365   65.7598 H   0  0  0  0  0  0  0  0  0  0  0  0
  128.1267  129.2234   63.9869 H   0  0  0  0  0  0  0  0  0  0  0  0
  128.4121  127.9457   61.5009 H   0  0  0  0  0  0  0  0  0  0  0  0
  131.3093  127.6881   61.5597 H   0  0  0  0  0  0  0  0  0  0  0  0
  132.6681  125.7136   60.8943 H   0  0  0  0  0  0  0  0  0  0  0  0
  133.6276  124.3768   60.4263 H   0  0  0  0  0  0  0  0  0  0  0  0
  134.2813  123.3547   59.1018 H   0  0  0  0  0  0  0  0  0  0  0  0
  134.5824  125.1255   59.1018 H   0  0  0  0  0  0  0  0  0  0  0  0
  130.8914  125.8197   56.9542 H   0  0  0  0  0  0  0  0  0  0  0  0
  129.5369  127.7968   57.6226 H   0  0  0  0  0  0  0  0  0  0  0  0
  132.4040  129.7660   58.2270 H   0  0  0  0  0  0  0  0  0  0  0  0
  131.3640  129.6260   56.8630 H   0  0  0  0  0  0  0  0  0  0  0  0
  1  2  1  0
  2  3  1  0
  3  4  2  0
  3  5  1  0
  5  6  1  0
  6  7  1  0
  7  8  2  0
  8  9  1  0
  9 10  1  0
 10 11  2  0
 11 12  1  0
 12 13  2  0
 13 14  1  0
 14 15  1  0
 13 16  1  0
 16 17  2  0
  9 18  2  0
 18 19  1  0
 19 20  1  0
 20 21  2  0
 21 22  1  0
 22 23  2  0
 23 24  1  0
 24 25  1  0
 23 26  1  0
 26 27  2  0
 19 28  2  0
 28 29  1  0
 29 30  1  0
 29  5  2  0
 28  7  1  0
 17 10  1  0
 27 20  1  0
  1 31  1  0
  1 32  1  0
  1 33  1  0
 11 34  1  0
 12 35  1  0
 15 36  1  0
 15 37  1  0
 15 38  1  0
 16 39  1  0
 17 40  1  0
 18 41  1  0
 21 42  1  0
 22 43  1  0
 25 44  1  0
 25 45  1  0
 25 46  1  0
 26 47  1  0
 27 48  1  0
 30 49  1  0
 30 50  1  0
M  END
>  <Binding energies>  (1) 
[-6.86]

>  <Ligand effiencies>  (1) 
[-0.214375]

>  <Interactions>  (1) 
["V-B:HIS:456:CE1:9041, H-B:TYR:539:OH:9850, V-A:ILE:369:CG2:3237, V-B:ARG:545:CG:9894, V-B:TYR:484:CZ:9318, V-B:GLU:543:CD:9880, V-A:ILE:369:CD1:3239, V-A:TYR:539:CD1:4873, V-B:GLY:454:CA:9020, V-A:LEU:363:CD1:3189, V-A:ILE:538:CB:4862, V-A:TYR:531:CZ:4794, V-A:PRO:540:CA:4883, V-A:PRO:540:CB:4885, H-A:ASP:366:OD2:3215, V-A:ASP:366:CB:3212, H-B:ARG:545:NH2:9900, H-A:TYR:531:OH:4795, V-A:TYR:539:C:4867, H-A:TYR:539:N:4870, V-A:PRO:540:N:4884, H-B:TYR:484:OH:9319, V-A:MET:535:CE:4835, H-B:GLY:454:N:9021, V-A:ASP:366:CG:3213, V-B:ARG:545:CZ:9898, H-B:ARG:545:NH1:9899, H-B:ARG:545:NE:9896, V-A:PRO:540:CD:4887, V-A:ILE:538:CA:4860, V-A:ASP:366:CA:3210, V-B:ARG:545:CD:9895, V-A:ILE:369:CB:3236, V-B:TYR:484:CE1:9316"]

$$$$
9a_Ghoteimi_2023
     RDKit          3D

 85 91  0  0  0  0  0  0  0  0999 V2000
  127.1510  138.6230   62.6030 C   0  0  0  0  0  0  0  0  0  0  0  0
  125.6760  138.2190   62.5150 C   0  0  0  0  0  0  0  0  0  0  0  0
  125.3740  137.8190   61.1830 O   0  0  0  0  0  0  0  0  0  0  0  0
  124.6430  136.7020   60.9360 C   0  0  0  0  0  0  0  0  0  0  0  0
  123.5310  136.7210   60.3980 O   0  0  0  0  0  0  0  0  0  0  0  0
  125.3170  135.4390   61.3890 C   0  0  0  0  0  0  0  0  0  0  0  0
  124.5350  134.3740   61.8560 C   0  0  0  0  0  0  0  0  0  0  0  0
  125.1300  133.1920   62.2840 C   0  0  0  0  0  0  0  0  0  0  0  0
  126.5170  133.0460   62.2540 C   0  0  0  0  0  0  0  0  0  0  0  0
  127.0080  131.8080   62.7110 N   0  0  0  0  0  0  0  0  0  0  0  0
  127.6830  131.4950   63.8460 C   0  0  0  0  0  0  0  0  0  0  0  0
  127.9900  132.3100   64.7150 O   0  0  0  0  0  0  0  0  0  0  0  0
  128.0350  130.0790   63.9940 C   0  0  0  0  0  0  0  0  0  0  0  0
  128.1340  129.0330   62.5770 S   0  0  0  0  0  0  0  0  0  0  0  0
  128.5800  127.6610   63.5650 C   0  0  0  0  0  0  0  0  0  0  0  0
  128.8350  126.4690   63.0290 N   0  0  0  0  0  0  0  0  0  0  0  0
  129.1850  125.4710   63.8830 C   0  0  0  0  0  0  0  0  0  0  0  0
  129.4770  124.1450   63.2590 C   0  0  0  0  0  0  0  0  0  0  0  0
  128.4500  123.3860   62.6870 C   0  0  0  0  0  0  0  0  0  0  0  0
  128.7140  122.1500   62.1030 C   0  0  0  0  0  0  0  0  0  0  0  0
  130.0180  121.6320   62.0570 C   0  0  0  0  0  0  0  0  0  0  0  0
  130.2950  120.3840   61.4910 N   0  0  0  0  0  0  0  0  0  0  0  0
  131.6000  120.0930   60.8640 C   0  0  0  0  0  0  0  0  0  0  0  0
  131.6010  118.8230   59.9880 C   0  0  0  0  0  0  0  0  0  0  0  0
  131.1380  117.7130   60.7380 O   0  0  0  0  0  0  0  0  0  0  0  0
  129.8150  117.9180   61.2070 C   0  0  0  0  0  0  0  0  0  0  0  0
  129.7660  119.1570   62.1240 C   0  0  0  0  0  0  0  0  0  0  0  0
  131.0410  122.3900   62.6450 C   0  0  0  0  0  0  0  0  0  0  0  0
  130.7760  123.6240   63.2310 C   0  0  0  0  0  0  0  0  0  0  0  0
  129.2500  125.6610   65.2650 C   0  0  0  0  0  0  0  0  0  0  0  0
  128.9640  126.9070   65.8330 C   0  0  0  0  0  0  0  0  0  0  0  0
  129.0130  127.0460   67.3120 C   0  0  0  0  0  0  0  0  0  0  0  0
  130.2320  127.2290   67.9690 C   0  0  0  0  0  0  0  0  0  0  0  0
  130.2750  127.3720   69.3520 C   0  0  0  0  0  0  0  0  0  0  0  0
  129.0970  127.3550   70.1150 C   0  0  0  0  0  0  0  0  0  0  0  0
  129.1160  127.4860   71.5060 N   0  0  0  0  0  0  0  0  0  0  0  0
  130.2490  126.9210   72.2670 C   0  0  0  0  0  0  0  0  0  0  0  0
  130.3410  127.4550   73.7120 C   0  0  0  0  0  0  0  0  0  0  0  0
  129.1150  127.2340   74.3910 O   0  0  0  0  0  0  0  0  0  0  0  0
  128.0340  127.8930   73.7500 C   0  0  0  0  0  0  0  0  0  0  0  0
  127.8800  127.3710   72.3060 C   0  0  0  0  0  0  0  0  0  0  0  0
  127.8780  127.1740   69.4450 C   0  0  0  0  0  0  0  0  0  0  0  0
  127.8360  127.0260   68.0620 C   0  0  0  0  0  0  0  0  0  0  0  0
  128.6300  127.9770   64.9540 C   0  0  0  0  0  0  0  0  0  0  0  0
  128.3380  129.3730   65.1680 C   0  0  0  0  0  0  0  0  0  0  0  0
  128.3700  129.9510   66.4110 N   0  0  0  0  0  0  0  0  0  0  0  0
  127.3100  134.1060   61.7850 C   0  0  0  0  0  0  0  0  0  0  0  0
  126.7120  135.2890   61.3570 C   0  0  0  0  0  0  0  0  0  0  0  0
  127.4466  138.7040   63.6594 H   0  0  0  0  0  0  0  0  0  0  0  0
  127.7701  137.8613   62.1064 H   0  0  0  0  0  0  0  0  0  0  0  0
  127.2955  139.5938   62.1064 H   0  0  0  0  0  0  0  0  0  0  0  0
  125.4831  137.3820   63.2022 H   0  0  0  0  0  0  0  0  0  0  0  0
  125.0435  139.0746   62.7940 H   0  0  0  0  0  0  0  0  0  0  0  0
  123.4399  134.4739   61.8843 H   0  0  0  0  0  0  0  0  0  0  0  0
  124.5020  132.3659   62.6490 H   0  0  0  0  0  0  0  0  0  0  0  0
  126.8190  131.0370   62.0880 H   0  0  0  0  0  0  0  0  0  0  0  0
  127.4197  123.7712   62.6989 H   0  0  0  0  0  0  0  0  0  0  0  0
  127.8863  121.5691   61.6700 H   0  0  0  0  0  0  0  0  0  0  0  0
  131.8803  120.9495   60.2333 H   0  0  0  0  0  0  0  0  0  0  0  0
  132.3160  119.9192   61.6808 H   0  0  0  0  0  0  0  0  0  0  0  0
  130.9405  118.9779   59.1221 H   0  0  0  0  0  0  0  0  0  0  0  0
  132.6270  118.6230   59.6454 H   0  0  0  0  0  0  0  0  0  0  0  0
  129.1444  118.0732   60.3490 H   0  0  0  0  0  0  0  0  0  0  0  0
  129.4932  117.0341   61.7772 H   0  0  0  0  0  0  0  0  0  0  0  0
  128.7191  119.3369   62.4097 H   0  0  0  0  0  0  0  0  0  0  0  0
  130.4058  118.9408   62.9923 H   0  0  0  0  0  0  0  0  0  0  0  0
  132.0705  122.0024   62.6429 H   0  0  0  0  0  0  0  0  0  0  0  0
  131.5999  124.1989   63.6791 H   0  0  0  0  0  0  0  0  0  0  0  0
  129.5299  124.8195   65.9158 H   0  0  0  0  0  0  0  0  0  0  0  0
  131.1655  127.2603   67.3880 H   0  0  0  0  0  0  0  0  0  0  0  0
  131.2451  127.5001   69.8544 H   0  0  0  0  0  0  0  0  0  0  0  0
  130.1331  125.8278   72.3056 H   0  0  0  0  0  0  0  0  0  0  0  0
  131.1716  127.2221   71.7492 H   0  0  0  0  0  0  0  0  0  0  0  0
  131.1504  126.9321   74.2425 H   0  0  0  0  0  0  0  0  0  0  0  0
  130.5487  128.5349   73.6849 H   0  0  0  0  0  0  0  0  0  0  0  0
  127.1063  127.6991   74.3084 H   0  0  0  0  0  0  0  0  0  0  0  0
  128.2343  128.9743   73.7239 H   0  0  0  0  0  0  0  0  0  0  0  0
  127.5889  126.3110   72.3476 H   0  0  0  0  0  0  0  0  0  0  0  0
  127.1166  127.9928   71.8155 H   0  0  0  0  0  0  0  0  0  0  0  0
  126.9414  127.1487   70.0214 H   0  0  0  0  0  0  0  0  0  0  0  0
  126.8684  126.8923   67.5562 H   0  0  0  0  0  0  0  0  0  0  0  0
  128.4540  129.3990   67.2540 H   0  0  0  0  0  0  0  0  0  0  0  0
  128.3090  130.9530   66.5270 H   0  0  0  0  0  0  0  0  0  0  0  0
  128.4047  134.0019   61.7556 H   0  0  0  0  0  0  0  0  0  0  0  0
  127.3398  136.1144   60.9901 H   0  0  0  0  0  0  0  0  0  0  0  0
  1  2  1  0
  2  3  1  0
  3  4  1  0
  4  5  2  0
  4  6  1  0
  6  7  2  0
  7  8  1  0
  8  9  2  0
  9 10  1  0
 10 11  1  0
 11 12  2  0
 11 13  1  0
 13 14  1  0
 14 15  1  0
 15 16  2  0
 16 17  1  0
 17 18  1  0
 18 19  2  0
 19 20  1  0
 20 21  2  0
 21 22  1  0
 22 23  1  0
 23 24  1  0
 24 25  1  0
 25 26  1  0
 26 27  1  0
 21 28  1  0
 28 29  2  0
 17 30  2  0
 30 31  1  0
 31 32  1  0
 32 33  2  0
 33 34  1  0
 34 35  2  0
 35 36  1  0
 36 37  1  0
 37 38  1  0
 38 39  1  0
 39 40  1  0
 40 41  1  0
 35 42  1  0
 42 43  2  0
 31 44  2  0
 44 45  1  0
 45 46  1  0
  9 47  1  0
 47 48  2  0
 48  6  1  0
 45 13  2  0
 44 15  1  0
 29 18  1  0
 43 32  1  0
 27 22  1  0
 41 36  1  0
  1 49  1  0
  1 50  1  0
  1 51  1  0
  2 52  1  0
  2 53  1  0
  7 54  1  0
  8 55  1  0
 10 56  1  0
 19 57  1  0
 20 58  1  0
 23 59  1  0
 23 60  1  0
 24 61  1  0
 24 62  1  0
 26 63  1  0
 26 64  1  0
 27 65  1  0
 27 66  1  0
 28 67  1  0
 29 68  1  0
 30 69  1  0
 33 70  1  0
 34 71  1  0
 37 72  1  0
 37 73  1  0
 38 74  1  0
 38 75  1  0
 40 76  1  0
 40 77  1  0
 41 78  1  0
 41 79  1  0
 42 80  1  0
 43 81  1  0
 46 82  1  0
 46 83  1  0
 47 84  1  0
 48 85  1  0
M  END
>  <Binding energies>  (1) 
[-10.49]

>  <Ligand effiencies>  (1) 
[-0.20568627450980392]

>  <Interactions>  (1) 
["V-B:GLU:543:C:9874, V-A:GLU:543:CD:4908, V-A:HIS:456:CE1:4070, V-A:GLU:543:CB:4906, V-B:HIS:456:CE1:9041, V-B:HIS:456:CD2:9039, V-B:GLU:543:CB:9878, V-B:TYR:539:CE2:9848, V-A:LEU:475:CD2:4259, V-B:TYR:539:CD2:9846, V-B:TYR:539:CG:9844, H-B:LYS:547:NZ:9923, V-B:TYR:484:CE2:9317, V-A:HIS:456:CD2:4068, V-B:TYR:484:CZ:9318, V-B:GLU:543:CG:9879, V-B:GLU:543:CD:9880, V-A:GLU:543:CG:4907, V-A:GLU:543:CA:4904, V-B:ALA:541:CB:9864, V-A:TYR:539:CD1:4873, H-A:GLU:543:OE2:4910, V-B:LEU:475:CD2:9230, V-B:ILE:369:CG2:8208, V-B:ALA:541:CA:9862, V-A:TYR:539:CE1:4875, V-B:TYR:539:C:9839, H-B:TYR:484:OH:9319, H-A:SER:385:OG:3410, V-B:LEU:475:CG:9228, V-B:PRO:482:CB:9297, V-B:LEU:475:CD1:9229, V-B:SER:385:CA:8378, V-B:HIS:383:CD2:8363, V-B:HIS:383:CE1:8364, V-B:SER:385:CB:8380, V-B:TYR:539:CB:9843, V-A:LEU:475:CD1:4258, V-A:PRO:482:CG:4327, V-A:HIS:383:NE2:3394, V-A:PRO:482:CB:4326, V-A:LEU:475:CG:4257, H-A:HIS:383:HE2:3395, H-B:HIS:383:NE2:8365, V-B:THR:477:CG2:9244"]

$$$$
9b_Ghoteimi_2023
     RDKit          3D

 72 78  0  0  0  0  0  0  0  0999 V2000
  128.7220  125.9310   59.1690 N   0  0  0  0  0  0  0  0  0  0  0  0
  128.6300  125.2190   60.3380 C   0  0  0  0  0  0  0  0  0  0  0  0
  128.2410  123.8720   60.3940 C   0  0  0  0  0  0  0  0  0  0  0  0
  127.8930  122.9740   59.2900 C   0  0  0  0  0  0  0  0  0  0  0  0
  128.3820  121.8440   59.2200 O   0  0  0  0  0  0  0  0  0  0  0  0
  127.0230  123.4790   58.3800 N   0  0  0  0  0  0  0  0  0  0  0  0
  126.5350  122.8570   57.2380 C   0  0  0  0  0  0  0  0  0  0  0  0
  125.1800  122.8180   56.9130 C   0  0  0  0  0  0  0  0  0  0  0  0
  125.1160  122.1240   55.7270 C   0  0  0  0  0  0  0  0  0  0  0  0
  126.3690  121.7640   55.3570 O   0  0  0  0  0  0  0  0  0  0  0  0
  127.2590  122.2340   56.3230 N   0  0  0  0  0  0  0  0  0  0  0  0
  128.2020  123.2880   62.0580 S   0  0  0  0  0  0  0  0  0  0  0  0
  128.6880  124.8530   62.6660 C   0  0  0  0  0  0  0  0  0  0  0  0
  128.8210  125.0840   63.9710 N   0  0  0  0  0  0  0  0  0  0  0  0
  129.1860  126.3400   64.3400 C   0  0  0  0  0  0  0  0  0  0  0  0
  129.3080  126.5780   65.8110 C   0  0  0  0  0  0  0  0  0  0  0  0
  130.0090  125.6870   66.6320 C   0  0  0  0  0  0  0  0  0  0  0  0
  130.1070  125.9060   68.0030 C   0  0  0  0  0  0  0  0  0  0  0  0
  129.4960  127.0170   68.6050 C   0  0  0  0  0  0  0  0  0  0  0  0
  129.5890  127.2520   69.9810 N   0  0  0  0  0  0  0  0  0  0  0  0
  128.3820  127.3840   70.8220 C   0  0  0  0  0  0  0  0  0  0  0  0
  128.6640  127.2920   72.3360 C   0  0  0  0  0  0  0  0  0  0  0  0
  129.6460  128.2460   72.7050 O   0  0  0  0  0  0  0  0  0  0  0  0
  130.8710  128.0220   72.0250 C   0  0  0  0  0  0  0  0  0  0  0  0
  130.6580  128.1320   70.5000 C   0  0  0  0  0  0  0  0  0  0  0  0
  128.8130  127.9160   67.7740 C   0  0  0  0  0  0  0  0  0  0  0  0
  128.7180  127.7000   66.4030 C   0  0  0  0  0  0  0  0  0  0  0  0
  129.4410  127.3480   63.4080 C   0  0  0  0  0  0  0  0  0  0  0  0
  129.3220  127.1040   62.0340 C   0  0  0  0  0  0  0  0  0  0  0  0
  129.6330  128.2010   61.0830 C   0  0  0  0  0  0  0  0  0  0  0  0
  130.6640  128.0560   60.1540 C   0  0  0  0  0  0  0  0  0  0  0  0
  130.9460  129.0740   59.2490 C   0  0  0  0  0  0  0  0  0  0  0  0
  130.2040  130.2660   59.2470 C   0  0  0  0  0  0  0  0  0  0  0  0
  130.4600  131.2940   58.3370 N   0  0  0  0  0  0  0  0  0  0  0  0
  129.3610  132.1940   57.9360 C   0  0  0  0  0  0  0  0  0  0  0  0
  129.6720  133.0030   56.6590 C   0  0  0  0  0  0  0  0  0  0  0  0
  130.8800  133.7300   56.8270 O   0  0  0  0  0  0  0  0  0  0  0  0
  131.9800  132.8690   57.0820 C   0  0  0  0  0  0  0  0  0  0  0  0
  131.7260  132.0530   58.3670 C   0  0  0  0  0  0  0  0  0  0  0  0
  129.1580  130.3920   60.1730 C   0  0  0  0  0  0  0  0  0  0  0  0
  128.8760  129.3730   61.0790 C   0  0  0  0  0  0  0  0  0  0  0  0
  128.9070  125.8050   61.6260 C   0  0  0  0  0  0  0  0  0  0  0  0
  129.3280  125.6410   58.4140 H   0  0  0  0  0  0  0  0  0  0  0  0
  128.1840  126.7740   59.0220 H   0  0  0  0  0  0  0  0  0  0  0  0
  126.6800  124.4140   58.5440 H   0  0  0  0  0  0  0  0  0  0  0  0
  124.3430  123.2490   57.4819 H   0  0  0  0  0  0  0  0  0  0  0  0
  124.1957  121.8976   55.1687 H   0  0  0  0  0  0  0  0  0  0  0  0
  130.4886  124.8023   66.1879 H   0  0  0  0  0  0  0  0  0  0  0  0
  130.6726  125.1967   68.6250 H   0  0  0  0  0  0  0  0  0  0  0  0
  127.9197  128.3603   70.6142 H   0  0  0  0  0  0  0  0  0  0  0  0
  127.7212  126.5422   70.5678 H   0  0  0  0  0  0  0  0  0  0  0  0
  127.7360  127.4906   72.8922 H   0  0  0  0  0  0  0  0  0  0  0  0
  129.0329  126.2834   72.5741 H   0  0  0  0  0  0  0  0  0  0  0  0
  131.6076  128.7738   72.3448 H   0  0  0  0  0  0  0  0  0  0  0  0
  131.2377  127.0133   72.2658 H   0  0  0  0  0  0  0  0  0  0  0  0
  130.3965  129.1733   70.2607 H   0  0  0  0  0  0  0  0  0  0  0  0
  131.5958  127.8125   70.0220 H   0  0  0  0  0  0  0  0  0  0  0  0
  128.3437  128.8083   68.2139 H   0  0  0  0  0  0  0  0  0  0  0  0
  128.1720  128.4206   65.7764 H   0  0  0  0  0  0  0  0  0  0  0  0
  129.7394  128.3473   63.7577 H   0  0  0  0  0  0  0  0  0  0  0  0
  131.2579  127.1302   60.1372 H   0  0  0  0  0  0  0  0  0  0  0  0
  131.7627  128.9432   58.5239 H   0  0  0  0  0  0  0  0  0  0  0  0
  128.4611  131.5877   57.7551 H   0  0  0  0  0  0  0  0  0  0  0  0
  129.2158  132.9162   58.7529 H   0  0  0  0  0  0  0  0  0  0  0  0
  129.7768  132.3141   55.8078 H   0  0  0  0  0  0  0  0  0  0  0  0
  128.8495  133.7083   56.4690 H   0  0  0  0  0  0  0  0  0  0  0  0
  132.1083  132.1811   56.2333 H   0  0  0  0  0  0  0  0  0  0  0  0
  132.8891  133.4744   57.2129 H   0  0  0  0  0  0  0  0  0  0  0  0
  132.5556  131.3429   58.4992 H   0  0  0  0  0  0  0  0  0  0  0  0
  131.6564  132.7692   59.1990 H   0  0  0  0  0  0  0  0  0  0  0  0
  128.5514  131.3096   60.1836 H   0  0  0  0  0  0  0  0  0  0  0  0
  128.0508  129.4928   61.7964 H   0  0  0  0  0  0  0  0  0  0  0  0
  1  2  1  0
  2  3  2  0
  3  4  1  0
  4  5  2  0
  4  6  1  0
  6  7  1  0
  7  8  1  0
  8  9  2  0
  9 10  1  0
 10 11  1  0
  3 12  1  0
 12 13  1  0
 13 14  2  0
 14 15  1  0
 15 16  1  0
 16 17  2  0
 17 18  1  0
 18 19  2  0
 19 20  1  0
 20 21  1  0
 21 22  1  0
 22 23  1  0
 23 24  1  0
 24 25  1  0
 19 26  1  0
 26 27  2  0
 15 28  2  0
 28 29  1  0
 29 30  1  0
 30 31  2  0
 31 32  1  0
 32 33  2  0
 33 34  1  0
 34 35  1  0
 35 36  1  0
 36 37  1  0
 37 38  1  0
 38 39  1  0
 33 40  1  0
 40 41  2  0
 29 42  2  0
 42  2  1  0
 11  7  2  0
 42 13  1  0
 27 16  1  0
 41 30  1  0
 25 20  1  0
 39 34  1  0
  1 43  1  0
  1 44  1  0
  6 45  1  0
  8 46  1  0
  9 47  1  0
 17 48  1  0
 18 49  1  0
 21 50  1  0
 21 51  1  0
 22 52  1  0
 22 53  1  0
 24 54  1  0
 24 55  1  0
 25 56  1  0
 25 57  1  0
 26 58  1  0
 27 59  1  0
 28 60  1  0
 31 61  1  0
 32 62  1  0
 35 63  1  0
 35 64  1  0
 36 65  1  0
 36 66  1  0
 38 67  1  0
 38 68  1  0
 39 69  1  0
 39 70  1  0
 40 71  1  0
 41 72  1  0
M  END
>  <Binding energies>  (1) 
[-9.97]

>  <Ligand effiencies>  (1) 
[-0.22155555555555556]

>  <Interactions>  (1) 
["H-A:LYS:547:NZ:4951, V-A:GLU:543:CD:4908, V-A:GLU:543:C:4902, V-A:HIS:456:CE1:4070, V-A:GLU:543:CB:4906, V-B:HIS:456:CE1:9041, V-A:GLY:544:C:4912, V-B:HIS:456:CD2:9039, V-B:GLU:543:CB:9878, V-B:TYR:539:CE2:9848, V-B:LEU:363:CD1:8160, V-B:MET:535:CE:9807, V-B:PRO:540:CB:9857, V-B:TYR:539:CD2:9846, H-B:TYR:539:N:9842, V-B:PRO:540:CA:9855, V-B:GLU:543:CG:9879, V-B:GLU:543:CD:9880, V-A:GLU:543:CG:4907, V-A:LEU:363:CD1:3189, V-A:ILE:538:CB:4862, V-A:PRO:540:CA:4883, V-A:PRO:540:CB:4885, V-B:PRO:540:N:9856, H-A:TYR:539:N:4870, V-B:TYR:539:C:9839, V-A:PRO:540:N:4884, V-B:PRO:540:CD:9859, V-A:PRO:540:CD:4887, V-A:ILE:538:CA:4860, V-B:ILE:538:CA:9832, V-A:PRO:540:CG:4886, V-B:ILE:538:CG2:9835, V-B:PRO:540:CG:9858, V-B:ILE:538:CB:9834, V-B:ILE:538:CG1:9836"]

$$$$
9c_Ghoteimi_2023
     RDKit          3D

 72 78  0  0  0  0  0  0  0  0999 V2000
  128.0920  127.7110   62.6390 N   0  0  0  0  0  0  0  0  0  0  0  0
  128.6670  126.9600   63.6330 C   0  0  0  0  0  0  0  0  0  0  0  0
  129.2850  125.7210   63.4060 C   0  0  0  0  0  0  0  0  0  0  0  0
  129.4630  125.0070   62.1370 C   0  0  0  0  0  0  0  0  0  0  0  0
  130.5880  124.8320   61.6650 O   0  0  0  0  0  0  0  0  0  0  0  0
  128.3210  124.5780   61.5470 N   0  0  0  0  0  0  0  0  0  0  0  0
  128.2090  123.8960   60.3430 C   0  0  0  0  0  0  0  0  0  0  0  0
  128.4060  122.6140   60.1190 N   0  0  0  0  0  0  0  0  0  0  0  0
  128.2150  122.3100   58.8490 C   0  0  0  0  0  0  0  0  0  0  0  0
  127.8560  123.3620   58.0110 C   0  0  0  0  0  0  0  0  0  0  0  0
  127.7650  124.8240   58.9460 S   0  0  0  0  0  0  0  0  0  0  0  0
  129.8870  125.0230   64.9090 S   0  0  0  0  0  0  0  0  0  0  0  0
  129.2910  126.3820   65.8320 C   0  0  0  0  0  0  0  0  0  0  0  0
  129.4270  126.4410   67.1550 N   0  0  0  0  0  0  0  0  0  0  0  0
  128.9140  127.5330   67.7800 C   0  0  0  0  0  0  0  0  0  0  0  0
  129.0600  127.5630   69.2670 C   0  0  0  0  0  0  0  0  0  0  0  0
  130.1970  128.1110   69.8720 C   0  0  0  0  0  0  0  0  0  0  0  0
  130.3330  128.1280   71.2560 C   0  0  0  0  0  0  0  0  0  0  0  0
  129.3410  127.5840   72.0890 C   0  0  0  0  0  0  0  0  0  0  0  0
  129.4600  127.6000   73.4830 N   0  0  0  0  0  0  0  0  0  0  0  0
  128.9690  128.7400   74.2840 C   0  0  0  0  0  0  0  0  0  0  0  0
  128.8600  128.4410   75.7940 C   0  0  0  0  0  0  0  0  0  0  0  0
  130.1070  127.9760   76.2850 O   0  0  0  0  0  0  0  0  0  0  0  0
  130.5070  126.7800   75.6370 C   0  0  0  0  0  0  0  0  0  0  0  0
  130.6620  127.0240   74.1200 C   0  0  0  0  0  0  0  0  0  0  0  0
  128.1960  127.0530   71.4780 C   0  0  0  0  0  0  0  0  0  0  0  0
  128.0590  127.0410   70.0920 C   0  0  0  0  0  0  0  0  0  0  0  0
  128.2950  128.5710   67.0800 C   0  0  0  0  0  0  0  0  0  0  0  0
  128.1700  128.5240   65.6870 C   0  0  0  0  0  0  0  0  0  0  0  0
  127.5330  129.6670   64.9860 C   0  0  0  0  0  0  0  0  0  0  0  0
  128.2910  130.7810   64.6220 C   0  0  0  0  0  0  0  0  0  0  0  0
  127.7000  131.8480   63.9490 C   0  0  0  0  0  0  0  0  0  0  0  0
  126.3350  131.8280   63.6240 C   0  0  0  0  0  0  0  0  0  0  0  0
  125.7230  132.8820   62.9390 N   0  0  0  0  0  0  0  0  0  0  0  0
  126.4140  133.4850   61.7810 C   0  0  0  0  0  0  0  0  0  0  0  0
  125.8340  134.8570   61.3740 C   0  0  0  0  0  0  0  0  0  0  0  0
  124.4420  134.7420   61.1240 O   0  0  0  0  0  0  0  0  0  0  0  0
  123.7380  134.2910   62.2710 C   0  0  0  0  0  0  0  0  0  0  0  0
  124.2660  132.9060   62.7060 C   0  0  0  0  0  0  0  0  0  0  0  0
  125.5880  130.6940   63.9770 C   0  0  0  0  0  0  0  0  0  0  0  0
  126.1790  129.6280   64.6490 C   0  0  0  0  0  0  0  0  0  0  0  0
  128.6690  127.3720   65.0140 C   0  0  0  0  0  0  0  0  0  0  0  0
  128.6020  128.4410   62.1600 H   0  0  0  0  0  0  0  0  0  0  0  0
  127.1360  127.5610   62.3530 H   0  0  0  0  0  0  0  0  0  0  0  0
  127.4520  124.7670   62.0250 H   0  0  0  0  0  0  0  0  0  0  0  0
  128.3329  121.2828   58.4737 H   0  0  0  0  0  0  0  0  0  0  0  0
  127.6614  123.2810   56.9314 H   0  0  0  0  0  0  0  0  0  0  0  0
  130.9945  128.5343   69.2437 H   0  0  0  0  0  0  0  0  0  0  0  0
  131.2320  128.5747   71.7058 H   0  0  0  0  0  0  0  0  0  0  0  0
  129.6614  129.5836   74.1469 H   0  0  0  0  0  0  0  0  0  0  0  0
  127.9529  128.9663   73.9287 H   0  0  0  0  0  0  0  0  0  0  0  0
  128.5773  129.3600   76.3284 H   0  0  0  0  0  0  0  0  0  0  0  0
  128.0955  127.6668   75.9558 H   0  0  0  0  0  0  0  0  0  0  0  0
  131.4694  126.4459   76.0519 H   0  0  0  0  0  0  0  0  0  0  0  0
  129.7404  126.0083   75.8008 H   0  0  0  0  0  0  0  0  0  0  0  0
  131.5026  127.7162   73.9642 H   0  0  0  0  0  0  0  0  0  0  0  0
  130.8328  126.0426   73.6534 H   0  0  0  0  0  0  0  0  0  0  0  0
  127.3921  126.6388   72.1042 H   0  0  0  0  0  0  0  0  0  0  0  0
  127.1510  126.6151   69.6403 H   0  0  0  0  0  0  0  0  0  0  0  0
  127.9003  129.4373   67.6312 H   0  0  0  0  0  0  0  0  0  0  0  0
  129.3625  130.8167   64.8682 H   0  0  0  0  0  0  0  0  0  0  0  0
  128.3117  132.7181   63.6685 H   0  0  0  0  0  0  0  0  0  0  0  0
  127.4758  133.6162   62.0368 H   0  0  0  0  0  0  0  0  0  0  0  0
  126.2758  132.8052   60.9273 H   0  0  0  0  0  0  0  0  0  0  0  0
  125.9993  135.5781   62.1881 H   0  0  0  0  0  0  0  0  0  0  0  0
  126.3371  135.2041   60.4594 H   0  0  0  0  0  0  0  0  0  0  0  0
  123.8811  135.0093   63.0917 H   0  0  0  0  0  0  0  0  0  0  0  0
  122.6682  134.2090   62.0283 H   0  0  0  0  0  0  0  0  0  0  0  0
  123.7588  132.6163   63.6381 H   0  0  0  0  0  0  0  0  0  0  0  0
  124.0565  132.2054   61.8842 H   0  0  0  0  0  0  0  0  0  0  0  0
  124.5198  130.6467   63.7189 H   0  0  0  0  0  0  0  0  0  0  0  0
  125.5748  128.7486   64.9164 H   0  0  0  0  0  0  0  0  0  0  0  0
  1  2  1  0
  2  3  2  0
  3  4  1  0
  4  5  2  0
  4  6  1  0
  6  7  1  0
  7  8  2  0
  8  9  1  0
  9 10  2  0
 10 11  1  0
  3 12  1  0
 12 13  1  0
 13 14  2  0
 14 15  1  0
 15 16  1  0
 16 17  2  0
 17 18  1  0
 18 19  2  0
 19 20  1  0
 20 21  1  0
 21 22  1  0
 22 23  1  0
 23 24  1  0
 24 25  1  0
 19 26  1  0
 26 27  2  0
 15 28  2  0
 28 29  1  0
 29 30  1  0
 30 31  2  0
 31 32  1  0
 32 33  2  0
 33 34  1  0
 34 35  1  0
 35 36  1  0
 36 37  1  0
 37 38  1  0
 38 39  1  0
 33 40  1  0
 40 41  2  0
 29 42  2  0
 42  2  1  0
 11  7  1  0
 42 13  1  0
 27 16  1  0
 41 30  1  0
 25 20  1  0
 39 34  1  0
  1 43  1  0
  1 44  1  0
  6 45  1  0
  9 46  1  0
 10 47  1  0
 17 48  1  0
 18 49  1  0
 21 50  1  0
 21 51  1  0
 22 52  1  0
 22 53  1  0
 24 54  1  0
 24 55  1  0
 25 56  1  0
 25 57  1  0
 26 58  1  0
 27 59  1  0
 28 60  1  0
 31 61  1  0
 32 62  1  0
 35 63  1  0
 35 64  1  0
 36 65  1  0
 36 66  1  0
 38 67  1  0
 38 68  1  0
 39 69  1  0
 39 70  1  0
 40 71  1  0
 41 72  1  0
M  END
>  <Binding energies>  (1) 
[-9.11]

>  <Ligand effiencies>  (1) 
[-0.20244444444444443]

>  <Interactions>  (1) 
["H-A:LYS:547:NZ:4951, V-B:GLU:543:C:9874, V-A:GLU:543:CD:4908, V-A:GLU:543:C:4902, V-A:HIS:456:CE1:4070, V-A:GLU:543:CB:4906, V-B:HIS:456:CE1:9041, V-A:GLY:544:C:4912, V-B:GLU:543:CB:9878, V-B:TYR:539:CE2:9848, V-B:TYR:539:CZ:9849, V-B:TYR:539:CD2:9846, V-B:TYR:539:CG:9844, V-B:PRO:540:CA:9855, V-A:HIS:456:CD2:4068, V-B:GLU:543:CG:9879, V-B:GLU:543:CD:9880, V-A:GLU:543:CG:4907, H-B:GLU:543:OE1:9881, V-A:TYR:539:CD1:4873, V-B:GLY:454:CA:9020, H-A:GLU:543:OE1:4909, V-B:LEU:475:CD2:9230, V-B:ILE:369:CG2:8208, H-B:GLU:543:OE2:9882, V-B:PRO:540:N:9856, V-A:TYR:539:CE1:4875, V-B:TYR:539:C:9839"]

$$$$
9d_Ghoteimi_2023
     RDKit          3D

 68 73  0  0  0  0  0  0  0  0999 V2000
  132.8560  124.5580   64.3780 C   0  0  0  0  0  0  0  0  0  0  0  0
  132.1400  123.3320   64.3380 O   0  0  0  0  0  0  0  0  0  0  0  0
  130.8580  123.2590   64.7830 C   0  0  0  0  0  0  0  0  0  0  0  0
  130.2660  122.2010   65.0090 O   0  0  0  0  0  0  0  0  0  0  0  0
  130.2360  124.5890   64.9660 C   0  0  0  0  0  0  0  0  0  0  0  0
  129.7100  125.5140   63.5600 S   0  0  0  0  0  0  0  0  0  0  0  0
  129.1220  126.8050   64.5800 C   0  0  0  0  0  0  0  0  0  0  0  0
  128.5270  127.8820   64.0680 N   0  0  0  0  0  0  0  0  0  0  0  0
  128.0890  128.8210   64.9470 C   0  0  0  0  0  0  0  0  0  0  0  0
  127.4020  130.0090   64.3520 C   0  0  0  0  0  0  0  0  0  0  0  0
  126.0290  129.9750   64.0860 C   0  0  0  0  0  0  0  0  0  0  0  0
  125.3810  131.0740   63.5310 C   0  0  0  0  0  0  0  0  0  0  0  0
  126.0800  132.2540   63.2310 C   0  0  0  0  0  0  0  0  0  0  0  0
  125.4460  133.3610   62.6570 N   0  0  0  0  0  0  0  0  0  0  0  0
  126.1100  134.1740   61.6180 C   0  0  0  0  0  0  0  0  0  0  0  0
  125.4250  135.5310   61.3540 C   0  0  0  0  0  0  0  0  0  0  0  0
  124.0560  135.3310   61.0450 O   0  0  0  0  0  0  0  0  0  0  0  0
  123.3680  134.7010   62.1130 C   0  0  0  0  0  0  0  0  0  0  0  0
  123.9900  133.3180   62.4030 C   0  0  0  0  0  0  0  0  0  0  0  0
  127.4590  132.2770   63.4860 C   0  0  0  0  0  0  0  0  0  0  0  0
  128.1080  131.1760   64.0390 C   0  0  0  0  0  0  0  0  0  0  0  0
  128.2770  128.6970   66.3260 C   0  0  0  0  0  0  0  0  0  0  0  0
  128.9190  127.5770   66.8670 C   0  0  0  0  0  0  0  0  0  0  0  0
  129.1170  127.5090   68.3390 C   0  0  0  0  0  0  0  0  0  0  0  0
  130.3520  127.8280   68.9070 C   0  0  0  0  0  0  0  0  0  0  0  0
  130.5270  127.7800   70.2880 C   0  0  0  0  0  0  0  0  0  0  0  0
  129.4660  127.4270   71.1370 C   0  0  0  0  0  0  0  0  0  0  0  0
  129.6190  127.3630   72.5240 N   0  0  0  0  0  0  0  0  0  0  0  0
  128.9450  128.3690   73.3680 C   0  0  0  0  0  0  0  0  0  0  0  0
  128.8700  127.9650   74.8560 C   0  0  0  0  0  0  0  0  0  0  0  0
  130.1710  127.6790   75.3480 O   0  0  0  0  0  0  0  0  0  0  0  0
  130.7810  126.6150   74.6330 C   0  0  0  0  0  0  0  0  0  0  0  0
  130.9070  126.9900   73.1400 C   0  0  0  0  0  0  0  0  0  0  0  0
  128.2310  127.1080   70.5540 C   0  0  0  0  0  0  0  0  0  0  0  0
  128.0570  127.1540   69.1750 C   0  0  0  0  0  0  0  0  0  0  0  0
  129.3470  126.5620   65.9670 C   0  0  0  0  0  0  0  0  0  0  0  0
  129.9690  125.2770   66.1560 C   0  0  0  0  0  0  0  0  0  0  0  0
  130.2530  124.7620   67.3950 N   0  0  0  0  0  0  0  0  0  0  0  0
  133.0261  124.8493   65.4250 H   0  0  0  0  0  0  0  0  0  0  0  0
  133.8238  124.4342   63.8700 H   0  0  0  0  0  0  0  0  0  0  0  0
  132.2726  125.3401   63.8700 H   0  0  0  0  0  0  0  0  0  0  0  0
  125.4538  129.0668   64.3189 H   0  0  0  0  0  0  0  0  0  0  0  0
  124.3022  131.0174   63.3236 H   0  0  0  0  0  0  0  0  0  0  0  0
  127.1454  134.3648   61.9366 H   0  0  0  0  0  0  0  0  0  0  0  0
  126.0556  133.6009   60.6806 H   0  0  0  0  0  0  0  0  0  0  0  0
  125.5075  136.1615   62.2516 H   0  0  0  0  0  0  0  0  0  0  0  0
  125.9185  136.0254   60.5043 H   0  0  0  0  0  0  0  0  0  0  0  0
  123.4411  135.3287   63.0133 H   0  0  0  0  0  0  0  0  0  0  0  0
  122.3124  134.5692   61.8330 H   0  0  0  0  0  0  0  0  0  0  0  0
  123.4955  132.8941   63.2894 H   0  0  0  0  0  0  0  0  0  0  0  0
  123.8393  132.7034   61.5032 H   0  0  0  0  0  0  0  0  0  0  0  0
  128.0381  133.1806   63.2449 H   0  0  0  0  0  0  0  0  0  0  0  0
  129.1898  131.2243   64.2323 H   0  0  0  0  0  0  0  0  0  0  0  0
  127.9153  129.4909   66.9960 H   0  0  0  0  0  0  0  0  0  0  0  0
  131.1923  128.1191   68.2596 H   0  0  0  0  0  0  0  0  0  0  0  0
  131.5096  128.0219   70.7192 H   0  0  0  0  0  0  0  0  0  0  0  0
  129.4980  129.3168   73.2908 H   0  0  0  0  0  0  0  0  0  0  0  0
  127.9116  128.4617   73.0027 H   0  0  0  0  0  0  0  0  0  0  0  0
  128.4347  128.7918   75.4364 H   0  0  0  0  0  0  0  0  0  0  0  0
  128.2413  127.0679   74.9552 H   0  0  0  0  0  0  0  0  0  0  0  0
  131.7821  126.4240   75.0469 H   0  0  0  0  0  0  0  0  0  0  0  0
  130.1608  125.7116   74.7287 H   0  0  0  0  0  0  0  0  0  0  0  0
  131.5971  127.8419   73.0505 H   0  0  0  0  0  0  0  0  0  0  0  0
  131.2778  126.1005   72.6096 H   0  0  0  0  0  0  0  0  0  0  0  0
  127.3873  126.8171   71.1971 H   0  0  0  0  0  0  0  0  0  0  0  0
  127.0769  126.9088   68.7399 H   0  0  0  0  0  0  0  0  0  0  0  0
  129.5740  124.7700   68.1430 H   0  0  0  0  0  0  0  0  0  0  0  0
  131.1530  124.3520   67.6020 H   0  0  0  0  0  0  0  0  0  0  0  0
  1  2  1  0
  2  3  1  0
  3  4  2  0
  3  5  1  0
  5  6  1  0
  6  7  1  0
  7  8  2  0
  8  9  1  0
  9 10  1  0
 10 11  2  0
 11 12  1  0
 12 13  2  0
 13 14  1  0
 14 15  1  0
 15 16  1  0
 16 17  1  0
 17 18  1  0
 18 19  1  0
 13 20  1  0
 20 21  2  0
  9 22  2  0
 22 23  1  0
 23 24  1  0
 24 25  2  0
 25 26  1  0
 26 27  2  0
 27 28  1  0
 28 29  1  0
 29 30  1  0
 30 31  1  0
 31 32  1  0
 32 33  1  0
 27 34  1  0
 34 35  2  0
 23 36  2  0
 36 37  1  0
 37 38  1  0
 37  5  2  0
 36  7  1  0
 21 10  1  0
 35 24  1  0
 19 14  1  0
 33 28  1  0
  1 39  1  0
  1 40  1  0
  1 41  1  0
 11 42  1  0
 12 43  1  0
 15 44  1  0
 15 45  1  0
 16 46  1  0
 16 47  1  0
 18 48  1  0
 18 49  1  0
 19 50  1  0
 19 51  1  0
 20 52  1  0
 21 53  1  0
 22 54  1  0
 25 55  1  0
 26 56  1  0
 29 57  1  0
 29 58  1  0
 30 59  1  0
 30 60  1  0
 32 61  1  0
 32 62  1  0
 33 63  1  0
 33 64  1  0
 34 65  1  0
 35 66  1  0
 38 67  1  0
 38 68  1  0
M  END
>  <Binding energies>  (1) 
[-8.85]

>  <Ligand effiencies>  (1) 
[-0.22125]

>  <Interactions>  (1) 
["H-A:LYS:547:NZ:4951, V-B:GLU:543:C:9874, V-A:GLU:543:CD:4908, V-A:GLU:543:C:4902, V-A:HIS:456:CE1:4070, V-A:GLU:543:CB:4906, V-B:HIS:456:CE1:9041, V-A:GLY:544:C:4912, V-B:HIS:456:CD2:9039, V-B:GLU:543:CB:9878, V-A:LEU:475:CD2:4259, V-B:GLU:543:CA:9876, H-B:LYS:547:NZ:9923, V-A:HIS:456:CG:4066, V-A:HIS:456:CD2:4068, V-B:GLU:543:CG:9879, V-B:GLU:543:CD:9880, V-A:GLU:543:CG:4907, V-A:TYR:484:CE2:4346, V-A:TYR:484:CZ:4347, V-A:TYR:539:CD1:4873, V-B:GLY:454:CA:9020, V-B:LEU:475:CD2:9230, V-B:ILE:369:CG2:8208, H-B:GLU:543:O:9875, H-A:HIS:456:NE2:4071, V-A:TYR:539:CE1:4875, V-A:ARG:545:CZ:4926, H-A:TYR:484:OH:4348, V-B:SER:385:CA:8378, V-B:SER:385:CB:8380, V-B:SER:385:C:8376"]

$$$$
RR10_Rahimova_2017
     RDKit          3D

 66 70  0  0  0  0  0  0  0  0999 V2000
  133.6460  124.4490   58.3860 C   0  0  0  0  0  0  0  0  0  0  0  0
  133.4390  123.9600   59.8300 C   0  0  1  0  0  0  0  0  0  0  0  0
  132.5440  124.9240   60.6430 C   0  0  0  0  0  0  0  0  0  0  0  0
  132.3780  124.4320   62.0990 C   0  0  0  0  0  0  0  0  0  0  0  0
  131.7800  123.0030   62.1680 C   0  0  1  0  0  0  0  0  0  0  0  0
  130.3830  123.0010   61.7140 N   0  0  0  0  0  0  0  0  0  0  0  0
  129.7000  121.9200   61.2960 C   0  0  0  0  0  0  0  0  0  0  0  0
  130.1860  120.7860   61.2720 O   0  0  0  0  0  0  0  0  0  0  0  0
  128.2510  122.1550   60.8210 C   0  0  1  0  0  0  0  0  0  0  0  0
  127.5490  123.1490   61.7820 C   0  0  0  0  0  0  0  0  0  0  0  0
  126.1270  123.4580   61.2570 C   0  0  0  0  0  0  0  0  0  0  0  0
  126.1260  123.9080   59.7780 C   0  0  0  0  0  0  0  0  0  0  0  0
  126.8720  122.9360   58.9330 N   0  0  0  0  0  0  0  0  0  0  0  0
  126.6860  123.1860   57.1890 S   0  0  0  0  0  0  0  0  0  0  0  0
  125.2670  123.4380   56.9130 O   0  0  0  0  0  0  0  0  0  0  0  0
  127.3910  122.0980   56.5000 O   0  0  0  0  0  0  0  0  0  0  0  0
  127.5580  124.7140   56.8420 C   0  0  0  0  0  0  0  0  0  0  0  0
  128.5900  124.7140   55.8970 C   0  0  0  0  0  0  0  0  0  0  0  0
  129.3090  125.8700   55.5830 C   0  0  0  0  0  0  0  0  0  0  0  0
  128.9440  127.0360   56.2600 C   0  0  0  0  0  0  0  0  0  0  0  0
  129.3980  128.3330   56.2370 N   0  0  0  0  0  0  0  0  0  0  0  0
  128.6480  129.0630   57.1360 C   0  0  0  0  0  0  0  0  0  0  0  0
  128.8570  130.5260   57.3980 C   0  0  0  0  0  0  0  0  0  0  0  0
  128.0390  131.2080   58.3100 C   0  0  0  0  0  0  0  0  0  0  0  0
  128.2340  132.5640   58.5560 C   0  0  0  0  0  0  0  0  0  0  0  0
  129.2480  133.2480   57.8910 C   0  0  0  0  0  0  0  0  0  0  0  0
  130.0690  132.5860   56.9830 C   0  0  0  0  0  0  0  0  0  0  0  0
  129.8740  131.2290   56.7370 C   0  0  0  0  0  0  0  0  0  0  0  0
  127.7380  128.3240   57.7320 N   0  0  0  0  0  0  0  0  0  0  0  0
  127.8980  127.0650   57.2140 C   0  0  0  0  0  0  0  0  0  0  0  0
  127.1920  125.8900   57.5070 C   0  0  0  0  0  0  0  0  0  0  0  0
  128.2720  122.7180   59.3790 C   0  0  0  0  0  0  0  0  0  0  0  0
  132.6790  122.0500   61.3340 C   0  0  0  0  0  0  0  0  0  0  0  0
  132.8400  122.5350   59.8760 C   0  0  0  0  0  0  0  0  0  0  0  0
  134.0748  125.4619   58.3998 H   0  0  0  0  0  0  0  0  0  0  0  0
  134.3327  123.7672   57.8629 H   0  0  0  0  0  0  0  0  0  0  0  0
  132.6785  124.4675   57.8629 H   0  0  0  0  0  0  0  0  0  0  0  0
  134.4379  123.9363   60.2901 H   0  0  0  0  0  0  0  0  0  0  0  0
  133.0056  125.9224   60.6513 H   0  0  0  0  0  0  0  0  0  0  0  0
  131.5512  124.9619   60.1709 H   0  0  0  0  0  0  0  0  0  0  0  0
  133.3641  124.4276   62.5864 H   0  0  0  0  0  0  0  0  0  0  0  0
  131.6830  125.1147   62.6098 H   0  0  0  0  0  0  0  0  0  0  0  0
  131.7643  122.6450   63.2080 H   0  0  0  0  0  0  0  0  0  0  0  0
  129.9540  123.9080   61.6050 H   0  0  0  0  0  0  0  0  0  0  0  0
  127.6944  121.2062   60.8252 H   0  0  0  0  0  0  0  0  0  0  0  0
  127.4804  122.7026   62.7850 H   0  0  0  0  0  0  0  0  0  0  0  0
  128.1308  124.0811   61.8340 H   0  0  0  0  0  0  0  0  0  0  0  0
  125.5119  122.5508   61.3500 H   0  0  0  0  0  0  0  0  0  0  0  0
  125.7216  124.2853   61.8580 H   0  0  0  0  0  0  0  0  0  0  0  0
  125.0876  123.9744   59.4213 H   0  0  0  0  0  0  0  0  0  0  0  0
  126.6171  124.8896   59.7062 H   0  0  0  0  0  0  0  0  0  0  0  0
  128.8432  123.7739   55.3851 H   0  0  0  0  0  0  0  0  0  0  0  0
  130.1208  125.8623   54.8408 H   0  0  0  0  0  0  0  0  0  0  0  0
  130.1450  128.7310   55.6860 H   0  0  0  0  0  0  0  0  0  0  0  0
  127.2374  130.6675   58.8348 H   0  0  0  0  0  0  0  0  0  0  0  0
  127.5893  133.0933   59.2732 H   0  0  0  0  0  0  0  0  0  0  0  0
  129.4014  134.3199   58.0848 H   0  0  0  0  0  0  0  0  0  0  0  0
  130.8688  133.1323   56.4616 H   0  0  0  0  0  0  0  0  0  0  0  0
  130.5224  130.7053   56.0192 H   0  0  0  0  0  0  0  0  0  0  0  0
  126.3720  125.8921   58.2402 H   0  0  0  0  0  0  0  0  0  0  0  0
  128.7667  122.0000   58.7084 H   0  0  0  0  0  0  0  0  0  0  0  0
  128.8254  123.6684   59.3555 H   0  0  0  0  0  0  0  0  0  0  0  0
  133.6727  121.9983   61.8029 H   0  0  0  0  0  0  0  0  0  0  0  0
  132.1976  121.0612   61.3120 H   0  0  0  0  0  0  0  0  0  0  0  0
  133.5087  121.8460   59.3393 H   0  0  0  0  0  0  0  0  0  0  0  0
  131.8478  122.5560   59.4016 H   0  0  0  0  0  0  0  0  0  0  0  0
  1  2  1  0
  2  3  1  0
  3  4  1  0
  4  5  1  0
  5  6  1  0
  6  7  1  0
  7  8  2  0
  7  9  1  0
  9 10  1  0
 10 11  1  0
 11 12  1  0
 12 13  1  0
 13 14  1  0
 14 15  2  0
 14 16  2  0
 14 17  1  0
 17 18  2  0
 18 19  1  0
 19 20  2  0
 20 21  1  0
 21 22  1  0
 22 23  1  0
 23 24  2  0
 24 25  1  0
 25 26  2  0
 26 27  1  0
 27 28  2  0
 22 29  2  0
 29 30  1  0
 30 31  2  0
 13 32  1  0
  5 33  1  0
 33 34  1  0
 34  2  1  0
 32  9  1  0
 31 17  1  0
 30 20  1  0
 28 23  1  0
  1 35  1  0
  1 36  1  0
  1 37  1  0
  2 38  1  1
  3 39  1  0
  3 40  1  0
  4 41  1  0
  4 42  1  0
  5 43  1  1
  6 44  1  0
  9 45  1  6
 10 46  1  0
 10 47  1  0
 11 48  1  0
 11 49  1  0
 12 50  1  0
 12 51  1  0
 18 52  1  0
 19 53  1  0
 21 54  1  0
 24 55  1  0
 25 56  1  0
 26 57  1  0
 27 58  1  0
 28 59  1  0
 31 60  1  0
 32 61  1  0
 32 62  1  0
 33 63  1  0
 33 64  1  0
 34 65  1  0
 34 66  1  0
M  END
>  <Binding energies>  (1) 
[-10.39]

>  <Ligand effiencies>  (1) 
[-0.28861111111111115]

>  <Interactions>  (1) 
["V-B:TYR:539:CE2:9848, V-A:LEU:475:CD2:4259, V-B:PRO:540:CB:9857, V-A:ILE:369:CG2:3237, V-B:TYR:539:CZ:9849, V-B:TYR:539:CD2:9846, V-B:TYR:539:CE1:9847, H-B:TYR:539:N:9842, V-B:PRO:540:C:9853, V-B:PRO:540:CA:9855, V-A:TYR:539:CD1:4873, V-A:TYR:531:CZ:4794, V-A:PRO:540:CA:4883, V-A:ASP:366:CB:3212, V-B:PRO:540:N:9856, V-A:TYR:539:CE1:4875, H-A:TYR:531:OH:4795, V-A:TYR:539:C:4867, V-B:TYR:539:C:9839, V-A:PRO:540:N:4884, V-A:MET:535:CE:4835, H-B:TYR:531:OH:9767, V-A:ASP:366:CG:3213, V-A:ASP:366:CA:3210, V-A:TYR:539:CG:4872, V-A:ASP:366:C:3208, V-A:TYR:539:CA:4869, H-A:MET:535:SD:4834, V-A:ILE:369:CB:3236"]

$$$$
RR11_Rahimova_2017
     RDKit          3D

 55 60  0  0  0  0  0  0  0  0999 V2000
  133.8310  121.2580   61.0400 N   0  0  0  0  0  0  0  0  0  0  0  0
  133.1290  122.0920   61.9090 C   0  0  0  0  0  0  0  0  0  0  0  0
  131.7360  122.1030   61.8860 C   0  0  0  0  0  0  0  0  0  0  0  0
  131.0360  122.9340   62.7560 C   0  0  0  0  0  0  0  0  0  0  0  0
  131.7210  123.7610   63.6560 C   0  0  0  0  0  0  0  0  0  0  0  0
  130.9650  124.6520   64.5970 C   0  0  0  0  0  0  0  0  0  0  0  0
  130.3390  125.7510   64.2380 N   0  0  0  0  0  0  0  0  0  0  0  0
  129.7790  126.2410   65.3890 C   0  0  0  0  0  0  0  0  0  0  0  0
  128.9970  127.3890   65.5740 C   0  0  0  0  0  0  0  0  0  0  0  0
  128.5210  127.6700   66.8600 C   0  0  0  0  0  0  0  0  0  0  0  0
  127.6730  128.9140   67.0930 C   0  0  0  0  0  0  0  0  0  0  0  0
  126.6990  129.1890   65.9560 C   0  0  0  0  0  0  0  0  0  0  0  0
  125.3270  129.2500   66.2250 C   0  0  0  0  0  0  0  0  0  0  0  0
  124.3950  129.5090   65.2180 C   0  0  0  0  0  0  0  0  0  0  0  0
  124.8690  129.7150   63.9160 C   0  0  0  0  0  0  0  0  0  0  0  0
  124.1680  129.9740   62.7680 N   0  0  0  0  0  0  0  0  0  0  0  0
  125.0770  130.0790   61.8220 C   0  0  0  0  0  0  0  0  0  0  0  0
  124.7710  130.3480   60.3760 C   0  0  0  0  0  0  0  0  0  0  0  0
  123.6870  131.1600   60.0180 C   0  0  0  0  0  0  0  0  0  0  0  0
  123.3970  131.4000   58.6780 C   0  0  0  0  0  0  0  0  0  0  0  0
  124.1900  130.8290   57.6850 C   0  0  0  0  0  0  0  0  0  0  0  0
  123.8970  131.0660   56.3420 N   0  0  0  0  0  0  0  0  0  0  0  0
  125.2730  130.0230   58.0260 C   0  0  0  0  0  0  0  0  0  0  0  0
  125.5620  129.7840   59.3670 C   0  0  0  0  0  0  0  0  0  0  0  0
  126.3540  129.9040   62.3120 N   0  0  0  0  0  0  0  0  0  0  0  0
  126.2600  129.6630   63.6620 C   0  0  0  0  0  0  0  0  0  0  0  0
  127.1980  129.4100   64.6660 C   0  0  0  0  0  0  0  0  0  0  0  0
  128.8430  126.8370   67.9370 C   0  0  0  0  0  0  0  0  0  0  0  0
  129.6250  125.6890   67.7860 C   0  0  0  0  0  0  0  0  0  0  0  0
  130.0790  125.4120   66.4950 C   0  0  0  0  0  0  0  0  0  0  0  0
  130.8420  124.4060   65.9490 N   0  0  0  0  0  0  0  0  0  0  0  0
  133.1220  123.7410   63.6670 C   0  0  0  0  0  0  0  0  0  0  0  0
  133.8250  122.9100   62.7980 C   0  0  0  0  0  0  0  0  0  0  0  0
  133.5210  121.1630   60.0830 H   0  0  0  0  0  0  0  0  0  0  0  0
  134.6640  120.7910   61.3660 H   0  0  0  0  0  0  0  0  0  0  0  0
  131.1909  121.4568   61.1823 H   0  0  0  0  0  0  0  0  0  0  0  0
  129.9362  122.9415   62.7368 H   0  0  0  0  0  0  0  0  0  0  0  0
  128.7629  128.0533   64.7291 H   0  0  0  0  0  0  0  0  0  0  0  0
  127.0991  128.7786   68.0216 H   0  0  0  0  0  0  0  0  0  0  0  0
  128.3575  129.7728   67.1560 H   0  0  0  0  0  0  0  0  0  0  0  0
  124.9743  129.0901   67.2546 H   0  0  0  0  0  0  0  0  0  0  0  0
  123.3186  129.5501   65.4409 H   0  0  0  0  0  0  0  0  0  0  0  0
  123.0605  131.6112   60.8016 H   0  0  0  0  0  0  0  0  0  0  0  0
  122.5443  132.0386   58.4039 H   0  0  0  0  0  0  0  0  0  0  0  0
  122.9880  130.8140   55.9790 H   0  0  0  0  0  0  0  0  0  0  0  0
  124.5850  131.5170   55.7560 H   0  0  0  0  0  0  0  0  0  0  0  0
  125.8982  129.5766   57.2387 H   0  0  0  0  0  0  0  0  0  0  0  0
  126.4179  129.1475   59.6360 H   0  0  0  0  0  0  0  0  0  0  0  0
  127.1800  129.9490   61.7340 H   0  0  0  0  0  0  0  0  0  0  0  0
  128.2770  129.3855   64.4535 H   0  0  0  0  0  0  0  0  0  0  0  0
  128.4672  127.0950   68.9381 H   0  0  0  0  0  0  0  0  0  0  0  0
  129.8698  125.0383   68.6385 H   0  0  0  0  0  0  0  0  0  0  0  0
  131.2570  123.6090   66.4090 H   0  0  0  0  0  0  0  0  0  0  0  0
  133.6712  124.3870   64.3678 H   0  0  0  0  0  0  0  0  0  0  0  0
  134.9248  122.8991   62.8130 H   0  0  0  0  0  0  0  0  0  0  0  0
  1  2  1  0
  2  3  2  0
  3  4  1  0
  4  5  2  0
  5  6  1  0
  6  7  2  0
  7  8  1  0
  8  9  2  0
  9 10  1  0
 10 11  1  0
 11 12  1  0
 12 13  2  0
 13 14  1  0
 14 15  2  0
 15 16  1  0
 16 17  2  0
 17 18  1  0
 18 19  2  0
 19 20  1  0
 20 21  2  0
 21 22  1  0
 21 23  1  0
 23 24  2  0
 17 25  1  0
 25 26  1  0
 26 27  2  0
 10 28  2  0
 28 29  1  0
 29 30  2  0
 30 31  1  0
  5 32  1  0
 32 33  2  0
 33  2  1  0
 31  6  1  0
 30  8  1  0
 27 12  1  0
 26 15  1  0
 24 18  1  0
  1 34  1  0
  1 35  1  0
  3 36  1  0
  4 37  1  0
  9 38  1  0
 11 39  1  0
 11 40  1  0
 13 41  1  0
 14 42  1  0
 19 43  1  0
 20 44  1  0
 22 45  1  0
 22 46  1  0
 23 47  1  0
 24 48  1  0
 25 49  1  0
 27 50  1  0
 28 51  1  0
 29 52  1  0
 31 53  1  0
 32 54  1  0
 33 55  1  0
M  END
>  <Binding energies>  (1) 
[-8.99]

>  <Ligand effiencies>  (1) 
[-0.23051282051282052]

>  <Interactions>  (1) 
["V-A:GLU:543:CD:4908, V-A:HIS:456:CE1:4070, V-B:HIS:456:CE1:9041, V-B:GLU:543:CB:9878, V-A:LEU:475:CD2:4259, V-B:ASP:366:CB:8183, V-A:ILE:369:CG2:3237, V-B:ASP:366:CG:8184, V-B:GLU:543:CA:9876, V-B:ARG:545:CG:9894, V-B:TYR:484:CZ:9318, V-B:GLU:543:CG:9879, V-B:GLU:543:CD:9880, V-A:TYR:484:CE2:4346, V-A:TYR:484:CZ:4347, V-A:ILE:369:CD1:3239, V-B:ILE:369:CG2:8208, H-B:ARG:545:NH2:9900, V-A:TYR:539:CE1:4875, V-B:ILE:369:CB:8207, H-B:TYR:531:OH:9767, H-A:SER:385:OG:3410, V-B:ASP:366:CA:8181, V-B:TYR:531:CZ:9766, H-A:TYR:484:OH:4348, V-B:ARG:545:CZ:9898, V-A:GLY:454:CA:4049, V-A:TYR:539:CZ:4877, V-B:ASP:366:C:8179, V-B:ARG:545:CD:9895, H-B:ASP:366:O:8180, H-A:TYR:539:OH:4878, V-A:SER:385:C:3405, V-A:SER:385:CB:3409, V-A:SER:385:CA:3407, V-B:TYR:531:CE1:9764, V-B:ASN:370:CB:8216, H-A:SER:385:O:3406"]

$$$$
RR11_Rahimova_2017-again1
     RDKit          3D

 56 61  0  0  0  0  0  0  0  0999 V2000
  123.7990  131.1310   56.2350 N   0  0  0  0  0  0  0  0  0  0  0  0
  124.1150  130.8680   57.5670 C   0  0  0  0  0  0  0  0  0  0  0  0
  125.3670  130.3510   57.8950 C   0  0  0  0  0  0  0  0  0  0  0  0
  125.6800  130.0860   59.2260 C   0  0  0  0  0  0  0  0  0  0  0  0
  124.7440  130.3350   60.2390 C   0  0  0  0  0  0  0  0  0  0  0  0
  125.0790  130.0410   61.6730 C   0  0  0  0  0  0  0  0  0  0  0  0
  124.1910  129.9340   62.6350 N   0  0  0  0  0  0  0  0  0  0  0  0
  124.9160  129.6860   63.7720 C   0  0  0  0  0  0  0  0  0  0  0  0
  124.4700  129.4920   65.0850 C   0  0  0  0  0  0  0  0  0  0  0  0
  125.4240  129.2680   66.0790 C   0  0  0  0  0  0  0  0  0  0  0  0
  126.7920  129.2370   65.7880 C   0  0  0  0  0  0  0  0  0  0  0  0
  127.7910  128.9930   66.9110 C   0  0  0  0  0  0  0  0  0  0  0  0
  128.6060  127.7240   66.7050 C   0  0  0  0  0  0  0  0  0  0  0  0
  128.9250  126.9210   67.8060 C   0  0  0  0  0  0  0  0  0  0  0  0
  129.6720  125.7470   67.6790 C   0  0  0  0  0  0  0  0  0  0  0  0
  130.0870  125.4050   66.3890 C   0  0  0  0  0  0  0  0  0  0  0  0
  130.8370  124.3390   65.9090 N   0  0  0  0  0  0  0  0  0  0  0  0
  130.9890  124.4440   64.5460 C   0  0  0  0  0  0  0  0  0  0  0  0
  131.7410  123.5120   63.6510 C   0  0  0  0  0  0  0  0  0  0  0  0
  131.0590  122.7650   62.6840 C   0  0  0  0  0  0  0  0  0  0  0  0
  131.7550  121.9020   61.8420 C   0  0  0  0  0  0  0  0  0  0  0  0
  133.1380  121.7810   61.9650 C   0  0  0  0  0  0  0  0  0  0  0  0
  133.8350  120.9200   61.1190 N   0  0  0  0  0  0  0  0  0  0  0  0
  133.8270  122.5190   62.9270 C   0  0  0  0  0  0  0  0  0  0  0  0
  133.1300  123.3820   63.7680 C   0  0  0  0  0  0  0  0  0  0  0  0
  130.3190  125.5840   64.1680 N   0  0  0  0  0  0  0  0  0  0  0  0
  129.7580  126.1990   65.2780 C   0  0  0  0  0  0  0  0  0  0  0  0
  129.0050  127.3690   65.4100 C   0  0  0  0  0  0  0  0  0  0  0  0
  127.2620  129.4040   64.4780 C   0  0  0  0  0  0  0  0  0  0  0  0
  126.3020  129.6360   63.4900 C   0  0  0  0  0  0  0  0  0  0  0  0
  126.3660  129.8610   62.1350 N   0  0  0  0  0  0  0  0  0  0  0  0
  123.4900  130.8560   59.8950 C   0  0  0  0  0  0  0  0  0  0  0  0
  123.1760  131.1220   58.5640 C   0  0  0  0  0  0  0  0  0  0  0  0
  124.4920  131.5540   55.6350 H   0  0  0  0  0  0  0  0  0  0  0  0
  122.8690  130.9320   55.8970 H   0  0  0  0  0  0  0  0  0  0  0  0
  126.1060  130.1528   57.1047 H   0  0  0  0  0  0  0  0  0  0  0  0
  126.6686  129.6785   59.4839 H   0  0  0  0  0  0  0  0  0  0  0  0
  123.3971  129.5155   65.3266 H   0  0  0  0  0  0  0  0  0  0  0  0
  125.0922  129.1121   67.1161 H   0  0  0  0  0  0  0  0  0  0  0  0
  128.4795  129.8493   66.9621 H   0  0  0  0  0  0  0  0  0  0  0  0
  127.2205  128.8744   67.8440 H   0  0  0  0  0  0  0  0  0  0  0  0
  128.5762  127.2241   68.8042 H   0  0  0  0  0  0  0  0  0  0  0  0
  129.9209  125.1234   68.5503 H   0  0  0  0  0  0  0  0  0  0  0  0
  131.2380  123.5810   66.4430 H   0  0  0  0  0  0  0  0  0  0  0  0
  129.9673  122.8602   62.5887 H   0  0  0  0  0  0  0  0  0  0  0  0
  131.2153  121.3176   61.0823 H   0  0  0  0  0  0  0  0  0  0  0  0
  133.4250  120.6500   60.2350 H   0  0  0  0  0  0  0  0  0  0  0  0
  134.7290  120.5520   61.4100 H   0  0  0  0  0  0  0  0  0  0  0  0
  134.9184  122.4194   63.0210 H   0  0  0  0  0  0  0  0  0  0  0  0
  133.6727  123.9640   64.5274 H   0  0  0  0  0  0  0  0  0  0  0  0
  130.2760  125.8910   63.2070 H   0  0  0  0  0  0  0  0  0  0  0  0
  128.7380  127.9828   64.5371 H   0  0  0  0  0  0  0  0  0  0  0  0
  128.3347  129.3548   64.2395 H   0  0  0  0  0  0  0  0  0  0  0  0
  127.1810  129.9080   61.5400 H   0  0  0  0  0  0  0  0  0  0  0  0
  122.7477  131.0566   60.6816 H   0  0  0  0  0  0  0  0  0  0  0  0
  122.1894  131.5314   58.3012 H   0  0  0  0  0  0  0  0  0  0  0  0
  1  2  1  0
  2  3  2  0
  3  4  1  0
  4  5  2  0
  5  6  1  0
  6  7  2  0
  7  8  1  0
  8  9  2  0
  9 10  1  0
 10 11  2  0
 11 12  1  0
 12 13  1  0
 13 14  2  0
 14 15  1  0
 15 16  2  0
 16 17  1  0
 17 18  1  0
 18 19  1  0
 19 20  2  0
 20 21  1  0
 21 22  2  0
 22 23  1  0
 22 24  1  0
 24 25  2  0
 18 26  2  0
 26 27  1  0
 27 28  2  0
 11 29  1  0
 29 30  2  0
 30 31  1  0
  5 32  1  0
 32 33  2  0
 33  2  1  0
 31  6  1  0
 30  8  1  0
 28 13  1  0
 27 16  1  0
 25 19  1  0
  1 34  1  0
  1 35  1  0
  3 36  1  0
  4 37  1  0
  9 38  1  0
 10 39  1  0
 12 40  1  0
 12 41  1  0
 14 42  1  0
 15 43  1  0
 17 44  1  0
 20 45  1  0
 21 46  1  0
 23 47  1  0
 23 48  1  0
 24 49  1  0
 25 50  1  0
 26 51  1  0
 28 52  1  0
 29 53  1  0
 31 54  1  0
 32 55  1  0
 33 56  1  0
M  CHG  1  26   1
M  END
>  <Binding energies>  (1) 
[-9.66]

>  <Ligand effiencies>  (1) 
[-0.2415]

>  <Interactions>  (1) 
["V-A:GLU:543:CD:4908, V-A:HIS:456:CE1:4070, V-A:GLU:543:CB:4906, V-B:HIS:456:CE1:9041, V-B:GLU:543:CB:9878, V-A:LEU:475:CD2:4259, V-B:ASP:366:CB:8183, V-A:ILE:369:CG2:3237, V-B:ASP:366:CG:8184, V-B:GLU:543:CA:9876, V-B:TYR:484:CZ:9318, V-B:GLU:543:CG:9879, V-B:GLU:543:CD:9880, V-A:GLU:543:CG:4907, V-A:TYR:484:CE2:4346, V-A:TYR:484:CZ:4347, H-A:GLU:543:OE1:4909, V-B:ILE:369:CG2:8208, H-B:ARG:545:NH2:9900, V-A:TYR:539:CE1:4875, V-B:ILE:369:CB:8207, H-B:TYR:531:OH:9767, H-A:SER:385:OG:3410, V-B:ASP:366:CA:8181, V-B:TYR:531:CZ:9766, H-A:TYR:484:OH:4348, V-B:ARG:545:CZ:9898, V-A:GLY:454:CA:4049, V-A:TYR:539:CZ:4877, V-B:ASP:366:C:8179, V-B:ARG:545:CD:9895, H-B:ASP:366:O:8180, H-A:TYR:539:OH:4878, V-A:SER:385:C:3405, V-A:SER:385:CB:3409, V-A:SER:385:CA:3407, V-B:TYR:531:CE1:9764, V-B:ASN:370:CB:8216, H-A:SER:385:O:3406, V-B:ASN:370:CA:8214"]

$$$$
RR11_Rahimova_2017-again2
     RDKit          3D

 57 62  0  0  0  0  0  0  0  0999 V2000
  123.9370  131.0960   56.1550 N   0  0  0  0  0  0  0  0  0  0  0  0
  124.2140  130.8290   57.4940 C   0  0  0  0  0  0  0  0  0  0  0  0
  123.3140  131.2260   58.4820 C   0  0  0  0  0  0  0  0  0  0  0  0
  123.5940  130.9640   59.8200 C   0  0  0  0  0  0  0  0  0  0  0  0
  124.7760  130.3030   60.1790 C   0  0  0  0  0  0  0  0  0  0  0  0
  125.0820  130.0310   61.6160 C   0  0  0  0  0  0  0  0  0  0  0  0
  126.3300  129.9150   62.1840 N   0  0  0  0  0  0  0  0  0  0  0  0
  126.2120  129.6810   63.5480 C   0  0  0  0  0  0  0  0  0  0  0  0
  127.1730  129.5050   64.5470 C   0  0  0  0  0  0  0  0  0  0  0  0
  126.7030  129.3030   65.8510 C   0  0  0  0  0  0  0  0  0  0  0  0
  127.7030  129.1100   66.9830 C   0  0  0  0  0  0  0  0  0  0  0  0
  128.6120  127.9080   66.7690 C   0  0  0  0  0  0  0  0  0  0  0  0
  129.1520  127.2450   67.8780 C   0  0  0  0  0  0  0  0  0  0  0  0
  129.9910  126.1360   67.7450 C   0  0  0  0  0  0  0  0  0  0  0  0
  130.2670  125.7120   66.4420 C   0  0  0  0  0  0  0  0  0  0  0  0
  131.0520  124.6760   65.9540 N   0  0  0  0  0  0  0  0  0  0  0  0
  131.0130  124.6610   64.5790 C   0  0  0  0  0  0  0  0  0  0  0  0
  131.7330  123.7160   63.6720 C   0  0  0  0  0  0  0  0  0  0  0  0
  131.0230  122.9620   62.7310 C   0  0  0  0  0  0  0  0  0  0  0  0
  131.6950  122.0900   61.8780 C   0  0  0  0  0  0  0  0  0  0  0  0
  133.0800  121.9670   61.9630 C   0  0  0  0  0  0  0  0  0  0  0  0
  133.7540  121.0980   61.1060 N   0  0  0  0  0  0  0  0  0  0  0  0
  133.7970  122.7100   62.9000 C   0  0  0  0  0  0  0  0  0  0  0  0
  133.1250  123.5830   63.7510 C   0  0  0  0  0  0  0  0  0  0  0  0
  130.1880  125.6950   64.2030 N   0  0  0  0  0  0  0  0  0  0  0  0
  129.7170  126.3630   65.3260 C   0  0  0  0  0  0  0  0  0  0  0  0
  128.8730  127.4680   65.4650 C   0  0  0  0  0  0  0  0  0  0  0  0
  125.3320  129.2520   66.1270 C   0  0  0  0  0  0  0  0  0  0  0  0
  124.3670  129.4210   65.1310 C   0  0  0  0  0  0  0  0  0  0  0  0
  124.8380  129.6420   63.8340 C   0  0  0  0  0  0  0  0  0  0  0  0
  124.1730  129.8570   62.6340 N   0  0  0  0  0  0  0  0  0  0  0  0
  125.6710  129.9050   59.1780 C   0  0  0  0  0  0  0  0  0  0  0  0
  125.3910  130.1670   57.8390 C   0  0  0  0  0  0  0  0  0  0  0  0
  123.1350  130.6650   55.7170 H   0  0  0  0  0  0  0  0  0  0  0  0
  124.5760  131.6650   55.6180 H   0  0  0  0  0  0  0  0  0  0  0  0
  122.3847  131.7451   58.2047 H   0  0  0  0  0  0  0  0  0  0  0  0
  122.8838  131.2774   60.5994 H   0  0  0  0  0  0  0  0  0  0  0  0
  127.1790  130.0040   61.6460 H   0  0  0  0  0  0  0  0  0  0  0  0
  128.2491  129.5242   64.3199 H   0  0  0  0  0  0  0  0  0  0  0  0
  128.3265  130.0130   67.0588 H   0  0  0  0  0  0  0  0  0  0  0  0
  127.1295  128.9314   67.9045 H   0  0  0  0  0  0  0  0  0  0  0  0
  128.9076  127.6093   68.8867 H   0  0  0  0  0  0  0  0  0  0  0  0
  130.4131  125.6224   68.6214 H   0  0  0  0  0  0  0  0  0  0  0  0
  131.5930  124.0110   66.4870 H   0  0  0  0  0  0  0  0  0  0  0  0
  129.9292  123.0585   62.6647 H   0  0  0  0  0  0  0  0  0  0  0  0
  131.1334  121.4998   61.1389 H   0  0  0  0  0  0  0  0  0  0  0  0
  134.6700  120.7600   61.3590 H   0  0  0  0  0  0  0  0  0  0  0  0
  133.3460  120.8690   60.2110 H   0  0  0  0  0  0  0  0  0  0  0  0
  134.8901  122.6067   62.9666 H   0  0  0  0  0  0  0  0  0  0  0  0
  133.6900  124.1712   64.4891 H   0  0  0  0  0  0  0  0  0  0  0  0
  129.9890  125.9030   63.2350 H   0  0  0  0  0  0  0  0  0  0  0  0
  128.4335  127.9695   64.5902 H   0  0  0  0  0  0  0  0  0  0  0  0
  125.0036  129.0731   67.1615 H   0  0  0  0  0  0  0  0  0  0  0  0
  123.2910  129.3821   65.3563 H   0  0  0  0  0  0  0  0  0  0  0  0
  123.1770  129.8950   62.4810 H   0  0  0  0  0  0  0  0  0  0  0  0
  126.5999  129.3828   59.4507 H   0  0  0  0  0  0  0  0  0  0  0  0
  126.0967  129.8524   57.0561 H   0  0  0  0  0  0  0  0  0  0  0  0
  1  2  1  0
  2  3  2  0
  3  4  1  0
  4  5  2  0
  5  6  1  0
  6  7  1  0
  7  8  1  0
  8  9  2  0
  9 10  1  0
 10 11  1  0
 11 12  1  0
 12 13  2  0
 13 14  1  0
 14 15  2  0
 15 16  1  0
 16 17  1  0
 17 18  1  0
 18 19  2  0
 19 20  1  0
 20 21  2  0
 21 22  1  0
 21 23  1  0
 23 24  2  0
 17 25  2  0
 25 26  1  0
 26 27  2  0
 10 28  2  0
 28 29  1  0
 29 30  2  0
 30 31  1  0
  5 32  1  0
 32 33  2  0
 33  2  1  0
 31  6  2  0
 30  8  1  0
 27 12  1  0
 26 15  1  0
 24 18  1  0
  1 34  1  0
  1 35  1  0
  3 36  1  0
  4 37  1  0
  7 38  1  0
  9 39  1  0
 11 40  1  0
 11 41  1  0
 13 42  1  0
 14 43  1  0
 16 44  1  0
 19 45  1  0
 20 46  1  0
 22 47  1  0
 22 48  1  0
 23 49  1  0
 24 50  1  0
 25 51  1  0
 27 52  1  0
 28 53  1  0
 29 54  1  0
 31 55  1  0
 32 56  1  0
 33 57  1  0
M  CHG  2  25   1  31   1
M  END
>  <Binding energies>  (1) 
[-10.21]

>  <Ligand effiencies>  (1) 
[-0.24902439024390247]

>  <Interactions>  (1) 
["V-A:GLU:543:CD:4908, V-A:HIS:456:CE1:4070, V-A:GLU:543:CB:4906, V-B:HIS:456:CE1:9041, V-B:GLU:543:CB:9878, V-A:LEU:475:CD2:4259, V-B:ASP:366:CB:8183, V-A:ILE:369:CG2:3237, V-B:ASP:366:CG:8184, V-B:ARG:545:CG:9894, V-B:TYR:484:CZ:9318, V-B:GLU:543:CG:9879, V-B:GLU:543:CD:9880, V-A:GLU:543:CG:4907, V-A:TYR:484:CE2:4346, V-A:TYR:484:CZ:4347, V-B:ILE:369:CG2:8208, V-A:TYR:539:CE1:4875, V-B:ILE:369:CB:8207, H-B:TYR:531:OH:9767, H-A:SER:385:OG:3410, V-B:ASP:366:CA:8181, V-B:TYR:531:CZ:9766, H-A:TYR:484:OH:4348, V-B:ARG:545:CZ:9898, V-A:GLY:454:CA:4049, V-A:TYR:539:CZ:4877, V-B:ASP:366:C:8179, H-B:ASP:366:OD2:8186, V-B:ARG:545:CD:9895, H-B:ASP:366:O:8180, H-A:TYR:539:OH:4878, V-A:SER:385:C:3405, V-A:SER:385:CB:3409, V-A:SER:385:CA:3407, V-B:TYR:531:CE1:9764, V-B:ASN:370:CB:8216, H-A:SER:385:O:3406"]

$$$$
RR12_Rahimova_2017
     RDKit          3D

 51 53  0  0  0  0  0  0  0  0999 V2000
  128.2320  127.1440   71.5820 C   0  0  0  0  0  0  0  0  0  0  0  0
  127.3230  127.7200   72.6760 C   0  0  0  0  0  0  0  0  0  0  0  0
  128.1160  128.3920   73.8120 C   0  0  0  0  0  0  0  0  0  0  0  0
  127.2540  129.2740   74.5950 N   0  0  0  0  0  0  0  0  0  0  0  0
  127.4830  130.5990   74.9290 C   0  0  0  0  0  0  0  0  0  0  0  0
  128.7430  131.3620   74.5550 C   0  0  0  0  0  0  0  0  0  0  0  0
  128.4350  132.7480   73.9600 C   0  0  0  0  0  0  0  0  0  0  0  0
  129.1580  132.9950   72.6220 C   0  0  0  0  0  0  0  0  0  0  0  0
  130.5050  133.5440   72.7710 N   0  0  0  0  0  0  0  0  0  0  0  0
  131.0800  134.4180   71.9240 C   0  0  0  0  0  0  0  0  0  0  0  0
  130.5190  134.8490   70.9140 O   0  0  0  0  0  0  0  0  0  0  0  0
  132.5010  134.8620   72.2930 C   0  0  0  0  0  0  0  0  0  0  0  0
  133.0430  133.9670   73.2650 O   0  0  0  0  0  0  0  0  0  0  0  0
  134.3960  134.0090   73.5440 C   0  0  0  0  0  0  0  0  0  0  0  0
  134.7490  134.1090   74.8910 C   0  0  0  0  0  0  0  0  0  0  0  0
  136.0880  134.1540   75.2700 C   0  0  0  0  0  0  0  0  0  0  0  0
  137.0810  134.0980   74.2970 C   0  0  0  0  0  0  0  0  0  0  0  0
  136.7470  134.0010   72.9480 C   0  0  0  0  0  0  0  0  0  0  0  0
  135.4070  133.9570   72.5700 C   0  0  0  0  0  0  0  0  0  0  0  0
  126.5090  131.1370   75.6200 N   0  0  0  0  0  0  0  0  0  0  0  0
  125.5730  130.1470   75.7370 C   0  0  0  0  0  0  0  0  0  0  0  0
  124.3230  130.1840   76.3730 C   0  0  0  0  0  0  0  0  0  0  0  0
  123.5390  129.0310   76.3490 C   0  0  0  0  0  0  0  0  0  0  0  0
  123.9780  127.8690   75.7120 C   0  0  0  0  0  0  0  0  0  0  0  0
  125.2170  127.8000   75.0720 C   0  0  0  0  0  0  0  0  0  0  0  0
  126.0040  128.9580   75.0980 C   0  0  0  0  0  0  0  0  0  0  0  0
  129.0737  126.6106   72.0479 H   0  0  0  0  0  0  0  0  0  0  0  0
  127.6562  126.4456   70.9570 H   0  0  0  0  0  0  0  0  0  0  0  0
  128.6177  127.9629   70.9570 H   0  0  0  0  0  0  0  0  0  0  0  0
  126.6557  128.4675   72.2221 H   0  0  0  0  0  0  0  0  0  0  0  0
  126.7577  126.8840   73.1137 H   0  0  0  0  0  0  0  0  0  0  0  0
  128.5307  127.6150   74.4710 H   0  0  0  0  0  0  0  0  0  0  0  0
  128.9256  128.9914   73.3702 H   0  0  0  0  0  0  0  0  0  0  0  0
  129.3573  131.4938   75.4579 H   0  0  0  0  0  0  0  0  0  0  0  0
  129.2734  130.7782   73.7883 H   0  0  0  0  0  0  0  0  0  0  0  0
  127.3505  132.8264   73.7936 H   0  0  0  0  0  0  0  0  0  0  0  0
  128.7926  133.5034   74.6752 H   0  0  0  0  0  0  0  0  0  0  0  0
  129.2313  132.0375   72.0856 H   0  0  0  0  0  0  0  0  0  0  0  0
  128.5669  133.7420   72.0719 H   0  0  0  0  0  0  0  0  0  0  0  0
  131.0260  133.2380   73.5790 H   0  0  0  0  0  0  0  0  0  0  0  0
  133.1333  134.8523   71.3930 H   0  0  0  0  0  0  0  0  0  0  0  0
  132.4703  135.8798   72.7091 H   0  0  0  0  0  0  0  0  0  0  0  0
  133.9629  134.1526   75.6592 H   0  0  0  0  0  0  0  0  0  0  0  0
  136.3594  134.2334   76.3330 H   0  0  0  0  0  0  0  0  0  0  0  0
  138.1392  134.1306   74.5956 H   0  0  0  0  0  0  0  0  0  0  0  0
  137.5380  133.9593   72.1847 H   0  0  0  0  0  0  0  0  0  0  0  0
  135.1397  133.8813   71.5057 H   0  0  0  0  0  0  0  0  0  0  0  0
  123.9713  131.0967   76.8763 H   0  0  0  0  0  0  0  0  0  0  0  0
  122.5555  129.0373   76.8416 H   0  0  0  0  0  0  0  0  0  0  0  0
  123.3284  126.9813   75.7143 H   0  0  0  0  0  0  0  0  0  0  0  0
  125.5581  126.8814   74.5721 H   0  0  0  0  0  0  0  0  0  0  0  0
  1  2  1  0
  2  3  1  0
  3  4  1  0
  4  5  1  0
  5  6  1  0
  6  7  1  0
  7  8  1  0
  8  9  1  0
  9 10  1  0
 10 11  2  0
 10 12  1  0
 12 13  1  0
 13 14  1  0
 14 15  2  0
 15 16  1  0
 16 17  2  0
 17 18  1  0
 18 19  2  0
  5 20  2  0
 20 21  1  0
 21 22  2  0
 22 23  1  0
 23 24  2  0
 24 25  1  0
 25 26  2  0
 26  4  1  0
 19 14  1  0
 26 21  1  0
  1 27  1  0
  1 28  1  0
  1 29  1  0
  2 30  1  0
  2 31  1  0
  3 32  1  0
  3 33  1  0
  6 34  1  0
  6 35  1  0
  7 36  1  0
  7 37  1  0
  8 38  1  0
  8 39  1  0
  9 40  1  0
 12 41  1  0
 12 42  1  0
 15 43  1  0
 16 44  1  0
 17 45  1  0
 18 46  1  0
 19 47  1  0
 22 48  1  0
 23 49  1  0
 24 50  1  0
 25 51  1  0
M  END
>  <Binding energies>  (1) 
[-7.31]

>  <Ligand effiencies>  (1) 
[-0.2707407407407407]

>  <Interactions>  (1) 
["V-B:HIS:456:CG:9037, V-B:VAL:458:CG2:9058, V-A:GLU:543:C:4902, V-B:HIS:456:CB:9036, V-B:LYS:547:CE:9922, V-B:GLY:544:C:9884, V-B:LYS:547:CD:9921, V-B:HIS:456:CE1:9041, V-B:HIS:456:CD2:9039, V-B:LYS:471:CD:9190, H-A:GLY:544:N:4915, V-A:GLY:544:CA:4914, V-B:HIS:456:C:9032, V-A:LYS:547:CE:4950, V-A:VAL:542:CG1:4899, V-B:TYR:484:CB:9312, V-B:TYR:484:CG:9313, H-B:LYS:471:NZ:9192, H-A:GLU:543:O:4903, V-A:LYS:547:CD:4949, V-A:GLU:357:CB:3134, V-B:LYS:547:CG:9920, H-B:SER:483:OG:9305, V-A:ILE:546:C:4934, H-B:TYR:484:N:9311, V-B:VAL:457:C:9044, V-B:LYS:471:CG:9189, V-B:VAL:457:CA:9046, V-A:GLU:357:CD:3136"]

$$$$
RR13_Rahimova_2017
     RDKit          3D

 84 90  0  0  0  0  0  0  0  0999 V2000
  125.8450  131.1740   58.7860 Cl  0  0  0  0  0  0  0  0  0  0  0  0
  124.9320  130.9980   60.2470 C   0  0  0  0  0  0  0  0  0  0  0  0
  123.5420  131.1130   60.1630 C   0  0  0  0  0  0  0  0  0  0  0  0
  122.7540  131.0020   61.3050 C   0  0  0  0  0  0  0  0  0  0  0  0
  123.3520  130.7790   62.5420 C   0  0  0  0  0  0  0  0  0  0  0  0
  124.7380  130.6640   62.6340 C   0  0  0  0  0  0  0  0  0  0  0  0
  125.5490  130.7600   61.4920 C   0  0  0  0  0  0  0  0  0  0  0  0
  127.0840  130.6540   61.6240 C   0  0  1  0  0  0  0  0  0  0  0  0
  127.5650  131.2360   62.9620 C   0  0  0  0  0  0  0  0  0  0  0  0
  127.9800  130.5590   64.0090 N   0  0  0  0  0  0  0  0  0  0  0  0
  128.2820  131.5070   64.9820 N   0  0  0  0  0  0  0  0  0  0  0  0
  128.0210  132.7760   64.5030 N   0  0  0  0  0  0  0  0  0  0  0  0
  127.5560  132.5810   63.2640 N   0  0  0  0  0  0  0  0  0  0  0  0
  127.2060  133.7170   62.4210 C   0  0  0  0  0  0  0  0  0  0  0  0
  125.6920  133.7210   62.1330 C   0  0  0  0  0  0  0  0  0  0  0  0
  125.2340  135.0200   61.4870 C   0  0  0  0  0  0  0  0  0  0  0  0
  126.1550  136.0430   61.2470 C   0  0  0  0  0  0  0  0  0  0  0  0
  125.7320  137.2340   60.6640 C   0  0  0  0  0  0  0  0  0  0  0  0
  124.3910  137.3980   60.3220 C   0  0  0  0  0  0  0  0  0  0  0  0
  123.4690  136.3820   60.5590 C   0  0  0  0  0  0  0  0  0  0  0  0
  123.8900  135.1900   61.1430 C   0  0  0  0  0  0  0  0  0  0  0  0
  127.6040  129.2860   61.3840 N   0  0  0  0  0  0  0  0  0  0  0  0
  127.1500  128.3670   62.4430 C   0  0  0  0  0  0  0  0  0  0  0  0
  127.5760  126.9140   62.1300 C   0  0  0  0  0  0  0  0  0  0  0  0
  129.0430  126.8070   62.0560 N   0  0  0  0  0  0  0  0  0  0  0  0
  129.5000  125.4150   61.8390 C   0  0  1  0  0  0  0  0  0  0  0  0
  130.7840  125.0100   62.5950 C   0  0  0  0  0  0  0  0  0  0  0  0
  130.8030  125.2170   63.9810 C   0  0  0  0  0  0  0  0  0  0  0  0
  131.9130  124.8650   64.7470 C   0  0  0  0  0  0  0  0  0  0  0  0
  133.0300  124.3040   64.1340 C   0  0  0  0  0  0  0  0  0  0  0  0
  133.0380  124.1050   62.7570 C   0  0  0  0  0  0  0  0  0  0  0  0
  131.9320  124.4580   61.9790 C   0  0  0  0  0  0  0  0  0  0  0  0
  132.0660  124.2360   60.2670 Cl  0  0  0  0  0  0  0  0  0  0  0  0
  128.4000  124.3770   62.0760 C   0  0  0  0  0  0  0  0  0  0  0  0
  128.3040  123.5970   63.1270 N   0  0  0  0  0  0  0  0  0  0  0  0
  127.1560  122.8350   62.9330 N   0  0  0  0  0  0  0  0  0  0  0  0
  126.5510  123.1850   61.7440 N   0  0  0  0  0  0  0  0  0  0  0  0
  127.3250  124.1550   61.2420 N   0  0  0  0  0  0  0  0  0  0  0  0
  126.9950  124.7610   59.9570 C   0  0  0  0  0  0  0  0  0  0  0  0
  127.9060  124.2010   58.8490 C   0  0  0  0  0  0  0  0  0  0  0  0
  127.1190  123.4720   57.7710 C   0  0  0  0  0  0  0  0  0  0  0  0
  127.7860  122.9000   56.6850 C   0  0  0  0  0  0  0  0  0  0  0  0
  127.0660  122.2270   55.7020 C   0  0  0  0  0  0  0  0  0  0  0  0
  125.6790  122.1290   55.8080 C   0  0  0  0  0  0  0  0  0  0  0  0
  125.0080  122.6980   56.8900 C   0  0  0  0  0  0  0  0  0  0  0  0
  125.7280  123.3700   57.8730 C   0  0  0  0  0  0  0  0  0  0  0  0
  129.4920  127.7240   60.9930 C   0  0  0  0  0  0  0  0  0  0  0  0
  129.0720  129.1760   61.3170 C   0  0  0  0  0  0  0  0  0  0  0  0
  123.0670  131.2926   59.1872 H   0  0  0  0  0  0  0  0  0  0  0  0
  121.6601  131.0904   61.2300 H   0  0  0  0  0  0  0  0  0  0  0  0
  122.7313  130.6936   63.4461 H   0  0  0  0  0  0  0  0  0  0  0  0
  125.2035  130.4955   63.6163 H   0  0  0  0  0  0  0  0  0  0  0  0
  127.5111  131.2682   60.8176 H   0  0  0  0  0  0  0  0  0  0  0  0
  127.4802  134.6495   62.9360 H   0  0  0  0  0  0  0  0  0  0  0  0
  127.7517  133.6386   61.4691 H   0  0  0  0  0  0  0  0  0  0  0  0
  125.4579  132.8866   61.4556 H   0  0  0  0  0  0  0  0  0  0  0  0
  125.1651  133.6168   63.0929 H   0  0  0  0  0  0  0  0  0  0  0  0
  127.2124  135.9074   61.5183 H   0  0  0  0  0  0  0  0  0  0  0  0
  126.4532  138.0425   60.4740 H   0  0  0  0  0  0  0  0  0  0  0  0
  124.0578  138.3392   59.8604 H   0  0  0  0  0  0  0  0  0  0  0  0
  122.4124  136.5203   60.2861 H   0  0  0  0  0  0  0  0  0  0  0  0
  123.1662  134.3838   61.3332 H   0  0  0  0  0  0  0  0  0  0  0  0
  127.5937  128.6742   63.4015 H   0  0  0  0  0  0  0  0  0  0  0  0
  126.0522  128.4081   62.4982 H   0  0  0  0  0  0  0  0  0  0  0  0
  127.2049  126.2497   62.9244 H   0  0  0  0  0  0  0  0  0  0  0  0
  127.1503  126.6217   61.1588 H   0  0  0  0  0  0  0  0  0  0  0  0
  129.7640  125.4156   60.7711 H   0  0  0  0  0  0  0  0  0  0  0  0
  129.9269  125.6649   64.4727 H   0  0  0  0  0  0  0  0  0  0  0  0
  131.9064  125.0303   65.8345 H   0  0  0  0  0  0  0  0  0  0  0  0
  133.9045  124.0186   64.7371 H   0  0  0  0  0  0  0  0  0  0  0  0
  133.9240  123.6653   62.2757 H   0  0  0  0  0  0  0  0  0  0  0  0
  125.9462  124.5391   59.7104 H   0  0  0  0  0  0  0  0  0  0  0  0
  127.1453  125.8485   60.0265 H   0  0  0  0  0  0  0  0  0  0  0  0
  128.4531  125.0350   58.3852 H   0  0  0  0  0  0  0  0  0  0  0  0
  128.5943  123.4781   59.3113 H   0  0  0  0  0  0  0  0  0  0  0  0
  128.8802  122.9814   56.6067 H   0  0  0  0  0  0  0  0  0  0  0  0
  127.5884  121.7748   54.8460 H   0  0  0  0  0  0  0  0  0  0  0  0
  125.1091  121.5981   55.0312 H   0  0  0  0  0  0  0  0  0  0  0  0
  123.9137  122.6159   56.9661 H   0  0  0  0  0  0  0  0  0  0  0  0
  125.2039  123.8203   58.7289 H   0  0  0  0  0  0  0  0  0  0  0  0
  130.5878  127.6740   60.9108 H   0  0  0  0  0  0  0  0  0  0  0  0
  129.0262  127.4226   60.0432 H   0  0  0  0  0  0  0  0  0  0  0  0
  129.5016  129.4694   62.2862 H   0  0  0  0  0  0  0  0  0  0  0  0
  129.4425  129.8394   60.5216 H   0  0  0  0  0  0  0  0  0  0  0  0
  1  2  1  0
  2  3  2  0
  3  4  1  0
  4  5  2  0
  5  6  1  0
  6  7  2  0
  7  8  1  0
  8  9  1  0
  9 10  2  0
 10 11  1  0
 11 12  2  0
 12 13  1  0
 13 14  1  0
 14 15  1  0
 15 16  1  0
 16 17  2  0
 17 18  1  0
 18 19  2  0
 19 20  1  0
 20 21  2  0
  8 22  1  0
 22 23  1  0
 23 24  1  0
 24 25  1  0
 25 26  1  0
 26 27  1  0
 27 28  2  0
 28 29  1  0
 29 30  2  0
 30 31  1  0
 31 32  2  0
 32 33  1  0
 26 34  1  0
 34 35  2  0
 35 36  1  0
 36 37  2  0
 37 38  1  0
 38 39  1  0
 39 40  1  0
 40 41  1  0
 41 42  2  0
 42 43  1  0
 43 44  2  0
 44 45  1  0
 45 46  2  0
 25 47  1  0
 47 48  1  0
  7  2  1  0
 13  9  1  0
 21 16  1  0
 48 22  1  0
 32 27  1  0
 38 34  1  0
 46 41  1  0
  3 49  1  0
  4 50  1  0
  5 51  1  0
  6 52  1  0
  8 53  1  6
 14 54  1  0
 14 55  1  0
 15 56  1  0
 15 57  1  0
 17 58  1  0
 18 59  1  0
 19 60  1  0
 20 61  1  0
 21 62  1  0
 23 63  1  0
 23 64  1  0
 24 65  1  0
 24 66  1  0
 26 67  1  6
 28 68  1  0
 29 69  1  0
 30 70  1  0
 31 71  1  0
 39 72  1  0
 39 73  1  0
 40 74  1  0
 40 75  1  0
 42 76  1  0
 43 77  1  0
 44 78  1  0
 45 79  1  0
 46 80  1  0
 47 81  1  0
 47 82  1  0
 48 83  1  0
 48 84  1  0
M  END
>  <Binding energies>  (1) 
[-13.01]

>  <Ligand effiencies>  (1) 
[-0.2710416666666667]

>  <Interactions>  (1) 
["V-B:TYR:539:CE2:9848, V-B:LEU:363:CD1:8160, V-B:MET:535:CE:9807, V-B:ASP:366:CB:8183, V-B:PRO:540:CB:9857, H-B:ALA:541:N:9863, V-B:ASP:366:CG:8184, V-B:TYR:539:CZ:9849, V-B:TYR:539:CD2:9846, V-B:TYR:539:CG:9844, V-B:TYR:539:CE1:9847, V-B:PRO:540:CA:9855, V-B:GLU:543:CD:9880, V-A:TYR:539:CD1:4873, V-B:LEU:475:CD2:9230, V-A:ALA:541:CB:4892, V-B:ILE:369:CG2:8208, V-B:PRO:540:N:9856, V-B:ILE:369:CG1:8209, V-A:TYR:539:CE1:4875, V-B:ILE:369:CB:8207, V-B:TYR:539:CD1:9845, H-B:TYR:484:OH:9319, V-B:PRO:540:CD:9859, V-A:ARG:545:CZ:4926, V-B:ASP:366:CA:8181, V-A:GLY:454:CA:4049, V-B:ILE:538:CA:9832, V-A:TYR:539:CG:4872, V-B:SER:385:CA:8378, V-B:HIS:383:CD2:8363, V-B:SER:385:CB:8380, V-A:TYR:539:CB:4871, V-B:LEU:373:CD1:8251, V-B:ILE:538:C:9830, V-B:ILE:538:CG2:9835, V-B:PRO:540:CG:9858, V-B:GLY:453:CA:9015, V-B:ILE:538:CB:9834"]

$$$$
RR14_Rahimova_2017
     RDKit          3D

 76 80  0  0  0  0  0  0  0  0999 V2000
  127.9100  133.0160   55.4900 C   0  0  0  0  0  0  0  0  0  0  0  0
  129.2870  133.3700   55.4450 O   0  0  0  0  0  0  0  0  0  0  0  0
  130.1490  132.8430   56.3870 C   0  0  0  0  0  0  0  0  0  0  0  0
  131.1700  132.0210   55.9060 C   0  0  0  0  0  0  0  0  0  0  0  0
  132.0710  131.4250   56.7830 C   0  0  0  0  0  0  0  0  0  0  0  0
  131.9560  131.6420   58.1580 C   0  0  0  0  0  0  0  0  0  0  0  0
  132.9000  130.9390   59.1250 C   0  0  0  0  0  0  0  0  0  0  0  0
  132.7860  131.4240   60.5010 N   0  0  0  0  0  0  0  0  0  0  0  0
  133.7070  132.2520   61.0050 N   0  0  0  0  0  0  0  0  0  0  0  0
  133.3050  132.4740   62.3070 N   0  0  0  0  0  0  0  0  0  0  0  0
  132.1390  131.7640   62.5750 N   0  0  0  0  0  0  0  0  0  0  0  0
  131.8460  131.1280   61.4650 C   0  0  0  0  0  0  0  0  0  0  0  0
  130.6590  130.1950   61.2770 C   0  0  0  0  0  0  0  0  0  0  0  0
  129.4790  130.8880   60.7350 N   0  0  0  0  0  0  0  0  0  0  0  0
  128.9400  130.2090   59.5490 C   0  0  0  0  0  0  0  0  0  0  0  0
  127.3990  130.1050   59.5490 C   0  0  0  0  0  0  0  0  0  0  0  0
  126.8160  129.5450   58.2350 C   0  0  0  0  0  0  0  0  0  0  0  0
  125.4170  129.9230   58.0130 N   0  0  0  0  0  0  0  0  0  0  0  0
  125.2810  130.6580   56.7490 C   0  0  0  0  0  0  0  0  0  0  0  0
  123.8270  131.1180   56.5100 C   0  0  0  0  0  0  0  0  0  0  0  0
  123.3620  131.8710   57.6250 O   0  0  0  0  0  0  0  0  0  0  0  0
  123.3880  131.1190   58.8330 C   0  0  0  0  0  0  0  0  0  0  0  0
  124.8300  130.6610   59.1430 C   0  0  0  0  0  0  0  0  0  0  0  0
  128.4440  131.0110   61.7720 C   0  0  0  0  0  0  0  0  0  0  0  0
  127.5640  132.2570   61.6970 C   0  0  0  0  0  0  0  0  0  0  0  0
  126.2180  132.1720   61.8320 C   0  0  0  0  0  0  0  0  0  0  0  0
  125.3410  133.3560   61.7240 C   0  0  0  0  0  0  0  0  0  0  0  0
  123.9450  133.3070   61.8790 C   0  0  0  0  0  0  0  0  0  0  0  0
  123.2200  132.0020   62.1750 C   0  0  0  0  0  0  0  0  0  0  0  0
  123.2070  134.4880   61.7590 C   0  0  0  0  0  0  0  0  0  0  0  0
  123.8410  135.7000   61.4910 C   0  0  0  0  0  0  0  0  0  0  0  0
  125.2290  135.7590   61.3380 C   0  0  0  0  0  0  0  0  0  0  0  0
  125.8920  137.0990   61.0480 C   0  0  0  0  0  0  0  0  0  0  0  0
  125.9810  134.5790   61.4560 C   0  0  0  0  0  0  0  0  0  0  0  0
  127.3840  134.5900   61.3060 N   0  0  0  0  0  0  0  0  0  0  0  0
  128.2260  133.5310   61.3970 C   0  0  0  0  0  0  0  0  0  0  0  0
  129.4360  133.6800   61.2280 O   0  0  0  0  0  0  0  0  0  0  0  0
  130.9570  132.4870   58.6460 C   0  0  0  0  0  0  0  0  0  0  0  0
  130.0550  133.0810   57.7680 C   0  0  0  0  0  0  0  0  0  0  0  0
  127.5868  132.9329   56.5382 H   0  0  0  0  0  0  0  0  0  0  0  0
  127.3155  133.7905   54.9833 H   0  0  0  0  0  0  0  0  0  0  0  0
  127.7628  132.0508   54.9833 H   0  0  0  0  0  0  0  0  0  0  0  0
  131.2629  131.8430   54.8245 H   0  0  0  0  0  0  0  0  0  0  0  0
  132.8743  130.7826   56.3932 H   0  0  0  0  0  0  0  0  0  0  0  0
  132.6729  129.8628   59.1142 H   0  0  0  0  0  0  0  0  0  0  0  0
  133.9262  131.1495   58.7894 H   0  0  0  0  0  0  0  0  0  0  0  0
  130.9473  129.3927   60.5819 H   0  0  0  0  0  0  0  0  0  0  0  0
  130.3878  129.7952   62.2652 H   0  0  0  0  0  0  0  0  0  0  0  0
  129.2517  130.7689   58.6549 H   0  0  0  0  0  0  0  0  0  0  0  0
  129.3347  129.1823   59.5552 H   0  0  0  0  0  0  0  0  0  0  0  0
  127.0954  129.4433   60.3736 H   0  0  0  0  0  0  0  0  0  0  0  0
  127.0075  131.1264   59.6652 H   0  0  0  0  0  0  0  0  0  0  0  0
  127.4176  129.9253   57.3963 H   0  0  0  0  0  0  0  0  0  0  0  0
  126.8494  128.4478   58.3056 H   0  0  0  0  0  0  0  0  0  0  0  0
  125.9344  131.5424   56.7787 H   0  0  0  0  0  0  0  0  0  0  0  0
  125.5670  129.9842   55.9279 H   0  0  0  0  0  0  0  0  0  0  0  0
  123.7874  131.7440   55.6064 H   0  0  0  0  0  0  0  0  0  0  0  0
  123.1863  130.2332   56.3810 H   0  0  0  0  0  0  0  0  0  0  0  0
  123.0197  131.7450   59.6591 H   0  0  0  0  0  0  0  0  0  0  0  0
  122.7459  130.2332   58.7192 H   0  0  0  0  0  0  0  0  0  0  0  0
  125.4489  131.5461   59.3518 H   0  0  0  0  0  0  0  0  0  0  0  0
  124.7989  129.9901   60.0141 H   0  0  0  0  0  0  0  0  0  0  0  0
  127.7880  130.1311   61.6984 H   0  0  0  0  0  0  0  0  0  0  0  0
  128.9877  131.0896   62.7250 H   0  0  0  0  0  0  0  0  0  0  0  0
  125.7639  131.1895   62.0284 H   0  0  0  0  0  0  0  0  0  0  0  0
  123.1433  131.8639   63.2636 H   0  0  0  0  0  0  0  0  0  0  0  0
  122.2112  132.0356   61.7377 H   0  0  0  0  0  0  0  0  0  0  0  0
  123.7815  131.1633   61.7377 H   0  0  0  0  0  0  0  0  0  0  0  0
  122.1137  134.4606   61.8774 H   0  0  0  0  0  0  0  0  0  0  0  0
  123.2433  136.6188   61.3990 H   0  0  0  0  0  0  0  0  0  0  0  0
  126.1392  137.5986   61.9963 H   0  0  0  0  0  0  0  0  0  0  0  0
  126.8128  136.9348   60.4691 H   0  0  0  0  0  0  0  0  0  0  0  0
  125.2028  137.7314   60.4691 H   0  0  0  0  0  0  0  0  0  0  0  0
  127.8350  135.4680   61.1040 H   0  0  0  0  0  0  0  0  0  0  0  0
  130.8828  132.6834   59.7258 H   0  0  0  0  0  0  0  0  0  0  0  0
  129.2649  133.7398   58.1575 H   0  0  0  0  0  0  0  0  0  0  0  0
  1  2  1  0
  2  3  1  0
  3  4  2  0
  4  5  1  0
  5  6  2  0
  6  7  1  0
  7  8  1  0
  8  9  1  0
  9 10  2  0
 10 11  1  0
 11 12  2  0
 12 13  1  0
 13 14  1  0
 14 15  1  0
 15 16  1  0
 16 17  1  0
 17 18  1  0
 18 19  1  0
 19 20  1  0
 20 21  1  0
 21 22  1  0
 22 23  1  0
 14 24  1  0
 24 25  1  0
 25 26  2  0
 26 27  1  0
 27 28  2  0
 28 29  1  0
 28 30  1  0
 30 31  2  0
 31 32  1  0
 32 33  1  0
 32 34  2  0
 34 35  1  0
 35 36  1  0
 36 37  2  0
  6 38  1  0
 38 39  2  0
 39  3  1  0
 12  8  1  0
 23 18  1  0
 36 25  1  0
 34 27  1  0
  1 40  1  0
  1 41  1  0
  1 42  1  0
  4 43  1  0
  5 44  1  0
  7 45  1  0
  7 46  1  0
 13 47  1  0
 13 48  1  0
 15 49  1  0
 15 50  1  0
 16 51  1  0
 16 52  1  0
 17 53  1  0
 17 54  1  0
 19 55  1  0
 19 56  1  0
 20 57  1  0
 20 58  1  0
 22 59  1  0
 22 60  1  0
 23 61  1  0
 23 62  1  0
 24 63  1  0
 24 64  1  0
 26 65  1  0
 29 66  1  0
 29 67  1  0
 29 68  1  0
 30 69  1  0
 31 70  1  0
 33 71  1  0
 33 72  1  0
 33 73  1  0
 35 74  1  0
 38 75  1  0
 39 76  1  0
M  END
>  <Binding energies>  (1) 
[-11.06]

>  <Ligand effiencies>  (1) 
[-0.2765]

>  <Interactions>  (1) 
["V-B:ASP:366:CB:8183, V-B:ASP:366:CG:8184, V-A:TYR:539:CD1:4873, V-B:GLY:454:CA:9020, V-A:LEU:363:CD1:3189, V-A:TYR:531:CE2:4793, V-A:ILE:538:CG2:4863, V-A:ILE:538:CB:4862, V-B:LEU:475:CD2:9230, V-A:PRO:540:CA:4883, V-B:ILE:369:CG2:8208, V-A:PRO:540:CB:4885, V-A:ASP:366:CB:3212, V-B:ILE:369:CG1:8209, V-A:TYR:539:CE1:4875, V-A:TYR:539:C:4867, H-A:TYR:539:N:4870, V-B:ILE:369:CB:8207, V-A:PRO:540:N:4884, V-A:MET:535:CE:4835, H-B:TYR:531:OH:9767, V-A:ASP:366:CG:3213, V-B:ASP:366:CA:8181, H-A:ALA:541:N:4891, V-B:TYR:531:CZ:9766, H-A:TYR:539:O:4868, V-A:PRO:540:CD:4887, V-A:ILE:538:CA:4860, V-A:TYR:539:CZ:4877, H-A:LEU:363:N:3186, V-A:TYR:539:CG:4872, V-B:SER:385:CA:8378, V-B:ASP:366:C:8179, V-B:SER:385:CB:8380, V-A:TYR:539:CE2:4876, V-B:ILE:369:CD1:8210, V-A:TYR:539:CA:4869, H-A:TYR:539:OH:4878, H-B:ASN:370:N:8215, V-A:TYR:539:CD2:4874, V-B:SER:385:C:8376, V-A:LEU:363:CA:3185, V-B:TYR:531:CE1:9764, V-B:ASN:370:CB:8216"]

$$$$
RR15_Rahimova_2017
     RDKit          3D

 85 89  0  0  0  0  0  0  0  0999 V2000
  133.8490  125.1020   65.6190 C   0  0  0  0  0  0  0  0  0  0  0  0
  133.6100  124.0550   64.6840 O   0  0  0  0  0  0  0  0  0  0  0  0
  133.3070  124.3690   63.3710 C   0  0  0  0  0  0  0  0  0  0  0  0
  134.1080  124.0010   62.2780 C   0  0  0  0  0  0  0  0  0  0  0  0
  133.7450  124.3510   60.9800 C   0  0  0  0  0  0  0  0  0  0  0  0
  132.5760  125.0790   60.7350 C   0  0  0  0  0  0  0  0  0  0  0  0
  132.1880  125.4630   59.3340 C   0  0  0  0  0  0  0  0  0  0  0  0
  133.0260  125.3940   58.3090 N   0  0  0  0  0  0  0  0  0  0  0  0
  132.3200  125.8310   57.2080 N   0  0  0  0  0  0  0  0  0  0  0  0
  131.1030  126.0800   57.6930 N   0  0  0  0  0  0  0  0  0  0  0  0
  130.0660  126.7240   56.8900 C   0  0  0  0  0  0  0  0  0  0  0  0
  128.6150  126.3460   57.2790 C   0  0  0  0  0  0  0  0  0  0  0  0
  127.8510  125.9710   56.3860 O   0  0  0  0  0  0  0  0  0  0  0  0
  128.2270  126.4070   58.5900 N   0  0  0  0  0  0  0  0  0  0  0  0
  128.2490  127.6790   59.3390 C   0  0  0  0  0  0  0  0  0  0  0  0
  128.3730  128.9250   58.4360 C   0  0  0  0  0  0  0  0  0  0  0  0
  129.7650  129.5990   58.4480 C   0  0  0  0  0  0  0  0  0  0  0  0
  129.8900  130.7140   57.5040 N   0  0  0  0  0  0  0  0  0  0  0  0
  128.8950  131.7760   57.7150 C   0  0  0  0  0  0  0  0  0  0  0  0
  129.1230  132.9630   56.7530 C   0  0  0  0  0  0  0  0  0  0  0  0
  130.4570  133.4430   56.8740 O   0  0  0  0  0  0  0  0  0  0  0  0
  131.4230  132.4430   56.5690 C   0  0  0  0  0  0  0  0  0  0  0  0
  131.2600  131.2440   57.5280 C   0  0  0  0  0  0  0  0  0  0  0  0
  127.5790  125.2680   59.3090 C   0  0  2  0  0  0  0  0  0  0  0  0
  128.4590  124.6420   60.4350 C   0  0  0  0  0  0  0  0  0  0  0  0
  129.5770  124.1890   60.1900 O   0  0  0  0  0  0  0  0  0  0  0  0
  127.9300  124.6720   61.6710 N   0  0  0  0  0  0  0  0  0  0  0  0
  128.6070  124.2410   62.8890 C   0  0  0  0  0  0  0  0  0  0  0  0
  128.7030  122.7060   62.9600 C   0  0  2  0  0  0  0  0  0  0  0  0
  130.1310  122.1360   63.0270 C   0  0  0  0  0  0  0  0  0  0  0  0
  130.4170  121.6650   61.6220 C   0  0  0  0  0  0  0  0  0  0  0  0
  129.0400  121.2090   61.1730 C   0  0  0  0  0  0  0  0  0  0  0  0
  128.1910  122.2170   61.7130 O   0  0  0  0  0  0  0  0  0  0  0  0
  126.9200  124.3120   58.3200 C   0  0  0  0  0  0  0  0  0  0  0  0
  125.5840  124.5430   57.9700 C   0  0  0  0  0  0  0  0  0  0  0  0
  124.9320  123.7030   57.0720 C   0  0  0  0  0  0  0  0  0  0  0  0
  125.6130  122.6240   56.5150 C   0  0  0  0  0  0  0  0  0  0  0  0
  124.9790  121.8090   55.6420 F   0  0  0  0  0  0  0  0  0  0  0  0
  126.9420  122.3800   56.8500 C   0  0  0  0  0  0  0  0  0  0  0  0
  127.5930  123.2200   57.7490 C   0  0  0  0  0  0  0  0  0  0  0  0
  130.9860  125.9050   59.0150 N   0  0  0  0  0  0  0  0  0  0  0  0
  131.7770  125.4430   61.8280 C   0  0  0  0  0  0  0  0  0  0  0  0
  132.1280  125.0940   63.1430 C   0  0  0  0  0  0  0  0  0  0  0  0
  131.3710  125.4270   64.2530 O   0  0  0  0  0  0  0  0  0  0  0  0
  130.3430  126.4050   64.1360 C   0  0  0  0  0  0  0  0  0  0  0  0
  133.7590  124.7077   66.6419 H   0  0  0  0  0  0  0  0  0  0  0  0
  134.8619  125.5037   65.4687 H   0  0  0  0  0  0  0  0  0  0  0  0
  133.1107  125.9034   65.4687 H   0  0  0  0  0  0  0  0  0  0  0  0
  135.0325  123.4299   62.4490 H   0  0  0  0  0  0  0  0  0  0  0  0
  134.3852  124.0514   60.1372 H   0  0  0  0  0  0  0  0  0  0  0  0
  130.1766  127.8131   56.9979 H   0  0  0  0  0  0  0  0  0  0  0  0
  130.2112  126.3733   55.8576 H   0  0  0  0  0  0  0  0  0  0  0  0
  127.3160  127.7591   59.9161 H   0  0  0  0  0  0  0  0  0  0  0  0
  129.1394  127.6582   59.9846 H   0  0  0  0  0  0  0  0  0  0  0  0
  128.1483  128.6224   57.4026 H   0  0  0  0  0  0  0  0  0  0  0  0
  127.6660  129.6676   58.8344 H   0  0  0  0  0  0  0  0  0  0  0  0
  129.9575  129.9796   59.4619 H   0  0  0  0  0  0  0  0  0  0  0  0
  130.4940  128.8349   58.1401 H   0  0  0  0  0  0  0  0  0  0  0  0
  127.8899  131.3638   57.5425 H   0  0  0  0  0  0  0  0  0  0  0  0
  128.9951  132.1433   58.7470 H   0  0  0  0  0  0  0  0  0  0  0  0
  128.9483  132.6315   55.7188 H   0  0  0  0  0  0  0  0  0  0  0  0
  128.4248  133.7732   57.0101 H   0  0  0  0  0  0  0  0  0  0  0  0
  131.2809  132.1029   55.5326 H   0  0  0  0  0  0  0  0  0  0  0  0
  132.4315  132.8662   56.6869 H   0  0  0  0  0  0  0  0  0  0  0  0
  131.9560  130.4478   57.2254 H   0  0  0  0  0  0  0  0  0  0  0  0
  131.4774  131.5889   58.5497 H   0  0  0  0  0  0  0  0  0  0  0  0
  126.7454  125.6601   59.9101 H   0  0  0  0  0  0  0  0  0  0  0  0
  127.0170  125.0860   61.7940 H   0  0  0  0  0  0  0  0  0  0  0  0
  129.6219  124.6650   62.9045 H   0  0  0  0  0  0  0  0  0  0  0  0
  128.0257  124.5937   63.7537 H   0  0  0  0  0  0  0  0  0  0  0  0
  128.1699  122.4066   63.8744 H   0  0  0  0  0  0  0  0  0  0  0  0
  130.8466  122.9149   63.3291 H   0  0  0  0  0  0  0  0  0  0  0  0
  130.2237  121.3267   63.7662 H   0  0  0  0  0  0  0  0  0  0  0  0
  130.7949  122.4839   60.9922 H   0  0  0  0  0  0  0  0  0  0  0  0
  131.1917  120.8868   61.5575 H   0  0  0  0  0  0  0  0  0  0  0  0
  128.9702  121.1762   60.0757 H   0  0  0  0  0  0  0  0  0  0  0  0
  128.7832  120.1932   61.5081 H   0  0  0  0  0  0  0  0  0  0  0  0
  125.0451  125.3958   58.4086 H   0  0  0  0  0  0  0  0  0  0  0  0
  123.8820  123.8910   56.8032 H   0  0  0  0  0  0  0  0  0  0  0  0
  127.4756  121.5267   56.4060 H   0  0  0  0  0  0  0  0  0  0  0  0
  128.6429  123.0268   58.0142 H   0  0  0  0  0  0  0  0  0  0  0  0
  130.8540  126.0150   61.6520 H   0  0  0  0  0  0  0  0  0  0  0  0
  130.0165  126.7156   65.1395 H   0  0  0  0  0  0  0  0  0  0  0  0
  130.7282  127.2782   63.5891 H   0  0  0  0  0  0  0  0  0  0  0  0
  129.4901  125.9768   63.5891 H   0  0  0  0  0  0  0  0  0  0  0  0
  1  2  1  0
  2  3  1  0
  3  4  2  0
  4  5  1  0
  5  6  2  0
  6  7  1  0
  7  8  1  0
  8  9  2  0
  9 10  1  0
 10 11  1  0
 11 12  1  0
 12 13  2  0
 12 14  1  0
 14 15  1  0
 15 16  1  0
 16 17  1  0
 17 18  1  0
 18 19  1  0
 19 20  1  0
 20 21  1  0
 21 22  1  0
 22 23  1  0
 14 24  1  0
 24 25  1  0
 25 26  2  0
 25 27  1  0
 27 28  1  0
 28 29  1  0
 29 30  1  0
 30 31  1  0
 31 32  1  0
 32 33  1  0
 24 34  1  0
 34 35  2  0
 35 36  1  0
 36 37  2  0
 37 38  1  0
 37 39  1  0
 39 40  2  0
 10 41  1  0
  6 42  1  0
 42 43  2  0
 43 44  1  0
 44 45  1  0
 43  3  1  0
 41  7  2  0
 23 18  1  0
 33 29  1  0
 40 34  1  0
  1 46  1  0
  1 47  1  0
  1 48  1  0
  4 49  1  0
  5 50  1  0
 11 51  1  0
 11 52  1  0
 15 53  1  0
 15 54  1  0
 16 55  1  0
 16 56  1  0
 17 57  1  0
 17 58  1  0
 19 59  1  0
 19 60  1  0
 20 61  1  0
 20 62  1  0
 22 63  1  0
 22 64  1  0
 23 65  1  0
 23 66  1  0
 24 67  1  1
 27 68  1  0
 28 69  1  0
 28 70  1  0
 29 71  1  1
 30 72  1  0
 30 73  1  0
 31 74  1  0
 31 75  1  0
 32 76  1  0
 32 77  1  0
 35 78  1  0
 36 79  1  0
 39 80  1  0
 40 81  1  0
 42 82  1  0
 45 83  1  0
 45 84  1  0
 45 85  1  0
M  END
>  <Binding energies>  (1) 
[-8.85]

>  <Ligand effiencies>  (1) 
[-0.1923913043478261]

>  <Interactions>  (1) 
["V-A:GLU:543:CD:4908, V-A:ARG:545:CG:4922, V-B:TYR:539:CE2:9848, H-B:TYR:539:OH:9850, V-B:LEU:363:CD1:8160, V-A:LEU:475:CD2:4259, V-B:MET:535:CE:9807, V-B:PRO:540:CB:9857, H-B:ALA:541:N:9863, V-B:TYR:539:CZ:9849, V-B:TYR:539:CD2:9846, V-B:TYR:539:CG:9844, V-B:TYR:539:CE1:9847, V-B:PRO:540:C:9853, V-B:PRO:540:CA:9855, V-B:GLU:543:CG:9879, V-B:GLU:543:CD:9880, V-B:ALA:541:CB:9864, H-B:GLU:543:OE1:9881, V-A:ILE:369:CD1:3239, V-A:TYR:539:CD1:4873, V-A:LEU:363:CD1:3189, V-A:ILE:538:CG2:4863, V-A:ILE:538:CB:4862, H-A:ARG:545:NH2:4928, V-A:ASP:366:CB:3212, V-B:PRO:540:N:9856, H-A:TYR:531:OH:4795, H-A:TYR:539:N:4870, V-B:TYR:539:CD1:9845, V-B:TYR:539:C:9839, V-B:PRO:540:CD:9859, H-B:TYR:531:OH:9767, V-A:ASP:366:CG:3213, V-A:ARG:545:CZ:4926, H-A:GLY:454:N:4050, H-A:TYR:484:OH:4348, V-A:GLY:454:CA:4049, V-B:ILE:538:CA:9832, V-B:TYR:539:CA:9841, V-A:TYR:539:CG:4872, V-B:ILE:538:C:9830, V-B:ILE:538:CG2:9835, V-A:ARG:545:CD:4923, V-B:ILE:538:CB:9834, V-B:ILE:538:CG1:9836"]

$$$$
RR16_Rahimova_2017
     RDKit          3D

 80 85  0  0  0  0  0  0  0  0999 V2000
  121.8700  131.0500   61.1220 O   0  0  0  0  0  0  0  0  0  0  0  0
  123.2270  131.4140   61.5480 S   0  0  0  0  0  0  0  0  0  0  0  0
  123.9120  130.6590   62.6040 O   0  0  0  0  0  0  0  0  0  0  0  0
  123.1970  133.1140   62.0200 N   0  0  0  0  0  0  0  0  0  0  0  0
  124.1180  134.0930   61.3960 C   0  0  0  0  0  0  0  0  0  0  0  0
  123.4150  135.4730   61.3130 C   0  0  0  0  0  0  0  0  0  0  0  0
  124.2280  136.7090   61.7450 C   0  0  0  0  0  0  0  0  0  0  0  0
  125.4870  136.9550   60.8960 C   0  0  0  0  0  0  0  0  0  0  0  0
  126.7520  136.1910   61.3330 C   0  0  0  0  0  0  0  0  0  0  0  0
  126.6580  134.6540   61.4010 C   0  0  0  0  0  0  0  0  0  0  0  0
  125.4570  134.0690   62.1700 C   0  0  0  0  0  0  0  0  0  0  0  0
  124.2570  131.3750   60.0860 C   0  0  0  0  0  0  0  0  0  0  0  0
  123.7160  131.0130   58.8510 C   0  0  0  0  0  0  0  0  0  0  0  0
  124.5520  130.8680   57.7480 C   0  0  0  0  0  0  0  0  0  0  0  0
  125.9250  131.0860   57.8840 C   0  0  0  0  0  0  0  0  0  0  0  0
  127.0200  130.7640   56.5040 S   0  0  0  0  0  0  0  0  0  0  0  0
  127.8900  131.9380   56.3500 O   0  0  0  0  0  0  0  0  0  0  0  0
  126.1910  130.3040   55.3830 O   0  0  0  0  0  0  0  0  0  0  0  0
  128.0170  129.4010   57.0500 N   0  0  0  0  0  0  0  0  0  0  0  0
  127.8920  128.1760   56.2190 C   0  0  0  0  0  0  0  0  0  0  0  0
  128.5350  126.9710   56.9350 C   0  0  0  0  0  0  0  0  0  0  0  0
  129.9950  127.2670   57.3610 C   0  0  0  0  0  0  0  0  0  0  0  0
  130.6360  126.0990   58.1150 C   0  0  0  0  0  0  0  0  0  0  0  0
  132.0140  125.8660   57.9950 C   0  0  0  0  0  0  0  0  0  0  0  0
  132.6410  124.8180   58.6710 C   0  0  0  0  0  0  0  0  0  0  0  0
  133.9900  124.6090   58.5450 O   0  0  0  0  0  0  0  0  0  0  0  0
  131.8550  123.9910   59.4860 C   0  0  0  0  0  0  0  0  0  0  0  0
  132.1890  122.9210   60.2650 N   0  0  0  0  0  0  0  0  0  0  0  0
  131.0390  122.4840   60.8850 N   0  0  0  0  0  0  0  0  0  0  0  0
  130.0110  123.2440   60.4600 N   0  0  0  0  0  0  0  0  0  0  0  0
  128.6800  123.0580   61.0220 C   0  0  0  0  0  0  0  0  0  0  0  0
  127.5750  123.2470   59.9910 C   0  0  0  0  0  0  0  0  0  0  0  0
  126.3840  123.8870   60.3490 C   0  0  0  0  0  0  0  0  0  0  0  0
  125.3790  124.0810   59.4000 C   0  0  0  0  0  0  0  0  0  0  0  0
  125.5600  123.6370   58.0900 C   0  0  0  0  0  0  0  0  0  0  0  0
  126.7470  123.0000   57.7270 C   0  0  0  0  0  0  0  0  0  0  0  0
  126.9790  122.4590   56.1040 Cl  0  0  0  0  0  0  0  0  0  0  0  0
  127.7510  122.8020   58.6770 C   0  0  0  0  0  0  0  0  0  0  0  0
  130.4640  124.2270   59.5950 C   0  0  0  0  0  0  0  0  0  0  0  0
  129.8330  125.2740   58.9150 C   0  0  0  0  0  0  0  0  0  0  0  0
  130.1250  128.6140   58.1180 C   0  0  0  0  0  0  0  0  0  0  0  0
  129.4220  129.7650   57.3700 C   0  0  0  0  0  0  0  0  0  0  0  0
  126.4580  131.4890   59.1110 C   0  0  0  0  0  0  0  0  0  0  0  0
  125.6240  131.6310   60.2140 C   0  0  0  0  0  0  0  0  0  0  0  0
  122.3120  133.4830   62.3770 H   0  0  0  0  0  0  0  0  0  0  0  0
  124.3686  133.8370   60.3560 H   0  0  0  0  0  0  0  0  0  0  0  0
  123.1115  135.6266   60.2669 H   0  0  0  0  0  0  0  0  0  0  0  0
  122.5887  135.4123   62.0365 H   0  0  0  0  0  0  0  0  0  0  0  0
  123.5797  137.5943   61.6676 H   0  0  0  0  0  0  0  0  0  0  0  0
  124.5684  136.5234   62.7744 H   0  0  0  0  0  0  0  0  0  0  0  0
  125.2577  136.6633   59.8604 H   0  0  0  0  0  0  0  0  0  0  0  0
  125.7256  138.0218   61.0187 H   0  0  0  0  0  0  0  0  0  0  0  0
  127.5527  136.4425   60.6220 H   0  0  0  0  0  0  0  0  0  0  0  0
  126.9322  136.5103   62.3701 H   0  0  0  0  0  0  0  0  0  0  0  0
  126.6091  134.2767   60.3689 H   0  0  0  0  0  0  0  0  0  0  0  0
  127.5468  134.3339   61.9645 H   0  0  0  0  0  0  0  0  0  0  0  0
  125.6882  133.0235   62.4218 H   0  0  0  0  0  0  0  0  0  0  0  0
  125.3150  134.7070   63.0548 H   0  0  0  0  0  0  0  0  0  0  0  0
  122.6339  130.8432   58.7502 H   0  0  0  0  0  0  0  0  0  0  0  0
  124.1328  130.5825   56.7719 H   0  0  0  0  0  0  0  0  0  0  0  0
  126.8269  127.9658   56.0416 H   0  0  0  0  0  0  0  0  0  0  0  0
  128.4100  128.3400   55.2626 H   0  0  0  0  0  0  0  0  0  0  0  0
  127.9439  126.7326   57.8315 H   0  0  0  0  0  0  0  0  0  0  0  0
  128.5485  126.1238   56.2336 H   0  0  0  0  0  0  0  0  0  0  0  0
  130.5737  127.3792   56.4323 H   0  0  0  0  0  0  0  0  0  0  0  0
  132.6155  126.5256   57.3522 H   0  0  0  0  0  0  0  0  0  0  0  0
  134.3180  124.7720   57.6570 H   0  0  0  0  0  0  0  0  0  0  0  0
  128.6097  122.0391   61.4304 H   0  0  0  0  0  0  0  0  0  0  0  0
  128.5396  123.8199   61.8029 H   0  0  0  0  0  0  0  0  0  0  0  0
  126.2389  124.2384   61.3812 H   0  0  0  0  0  0  0  0  0  0  0  0
  124.4435  124.5844   59.6853 H   0  0  0  0  0  0  0  0  0  0  0  0
  124.7668  123.7891   57.3432 H   0  0  0  0  0  0  0  0  0  0  0  0
  128.6838  122.2941   58.3908 H   0  0  0  0  0  0  0  0  0  0  0  0
  128.7498  125.4433   59.0044 H   0  0  0  0  0  0  0  0  0  0  0  0
  129.6705  128.5073   59.1140 H   0  0  0  0  0  0  0  0  0  0  0  0
  131.1944  128.8602   58.1940 H   0  0  0  0  0  0  0  0  0  0  0  0
  129.4270  130.6641   58.0038 H   0  0  0  0  0  0  0  0  0  0  0  0
  129.9607  129.9581   56.4306 H   0  0  0  0  0  0  0  0  0  0  0  0
  127.5348  131.6934   59.2040 H   0  0  0  0  0  0  0  0  0  0  0  0
  126.0389  131.9437   61.1836 H   0  0  0  0  0  0  0  0  0  0  0  0
  1  2  2  0
  2  3  2  0
  2  4  1  0
  4  5  1  0
  5  6  1  0
  6  7  1  0
  7  8  1  0
  8  9  1  0
  9 10  1  0
 10 11  1  0
  2 12  1  0
 12 13  2  0
 13 14  1  0
 14 15  2  0
 15 16  1  0
 16 17  2  0
 16 18  2  0
 16 19  1  0
 19 20  1  0
 20 21  1  0
 21 22  1  0
 22 23  1  0
 23 24  2  0
 24 25  1  0
 25 26  1  0
 25 27  2  0
 27 28  1  0
 28 29  2  0
 29 30  1  0
 30 31  1  0
 31 32  1  0
 32 33  2  0
 33 34  1  0
 34 35  2  0
 35 36  1  0
 36 37  1  0
 36 38  2  0
 30 39  1  0
 39 40  2  0
 22 41  1  0
 41 42  1  0
 15 43  1  0
 43 44  2  0
 11  5  1  0
 44 12  1  0
 42 19  1  0
 40 23  1  0
 39 27  1  0
 38 32  1  0
  4 45  1  0
  5 46  1  0
  6 47  1  0
  6 48  1  0
  7 49  1  0
  7 50  1  0
  8 51  1  0
  8 52  1  0
  9 53  1  0
  9 54  1  0
 10 55  1  0
 10 56  1  0
 11 57  1  0
 11 58  1  0
 13 59  1  0
 14 60  1  0
 20 61  1  0
 20 62  1  0
 21 63  1  0
 21 64  1  0
 22 65  1  0
 24 66  1  0
 26 67  1  0
 31 68  1  0
 31 69  1  0
 33 70  1  0
 34 71  1  0
 35 72  1  0
 38 73  1  0
 40 74  1  0
 41 75  1  0
 41 76  1  0
 42 77  1  0
 42 78  1  0
 43 79  1  0
 44 80  1  0
M  END
>  <Binding energies>  (1) 
[-10.03]

>  <Ligand effiencies>  (1) 
[-0.20895833333333333]

>  <Interactions>  (1) 
["V-B:TYR:539:CE2:9848, H-B:TYR:539:OH:9850, V-B:ASP:366:CB:8183, V-B:PRO:540:CB:9857, V-B:ASP:366:CG:8184, V-B:TYR:539:CZ:9849, V-B:TYR:539:CD2:9846, V-B:TYR:539:CG:9844, V-B:TYR:539:CE1:9847, V-B:PRO:540:CA:9855, V-A:TYR:539:CD1:4873, V-B:LEU:475:CD2:9230, V-B:ILE:369:CG2:8208, V-A:ASP:366:CB:3212, V-B:PRO:540:N:9856, V-B:ILE:369:CG1:8209, V-A:TYR:539:CE1:4875, V-A:TYR:539:C:4867, V-B:ILE:369:CB:8207, V-B:TYR:539:CD1:9845, V-B:TYR:539:C:9839, V-A:MET:535:CE:4835, H-B:TYR:531:OH:9767, H-B:GLY:454:N:9021, V-B:ASP:366:CA:8181, V-A:TYR:539:CZ:4877, V-B:SER:385:CA:8378, V-B:HIS:383:CD2:8363, V-B:ASP:366:C:8179, V-B:SER:385:CB:8380, H-B:SER:385:O:8377, H-A:ASP:366:O:3209, V-B:SER:385:C:8376"]

$$$$
RR17_Rahimova_2017
     RDKit          3D

 63 66  0  0  0  0  0  0  0  0999 V2000
  132.0150  131.7560   57.9910 C   0  0  0  0  0  0  0  0  0  0  0  0
  131.5540  132.6400   56.8280 C   0  0  0  0  0  0  0  0  0  0  0  0
  130.4740  133.4550   57.2730 O   0  0  0  0  0  0  0  0  0  0  0  0
  129.2220  132.8920   57.4380 C   0  0  0  0  0  0  0  0  0  0  0  0
  128.7490  132.7960   58.7460 C   0  0  0  0  0  0  0  0  0  0  0  0
  127.5010  132.2410   59.0100 C   0  0  0  0  0  0  0  0  0  0  0  0
  126.6950  131.7680   57.9640 C   0  0  0  0  0  0  0  0  0  0  0  0
  125.3520  131.1760   58.2790 C   0  0  0  0  0  0  0  0  0  0  0  0
  124.4510  131.0960   57.4390 O   0  0  0  0  0  0  0  0  0  0  0  0
  125.1280  130.6740   59.7240 C   0  0  0  0  0  0  0  0  0  0  0  0
  124.3930  131.9630   60.7940 S   0  0  0  0  0  0  0  0  0  0  0  0
  124.3670  131.0970   62.3380 C   0  0  0  0  0  0  0  0  0  0  0  0
  123.2970  130.6000   62.9130 N   0  0  0  0  0  0  0  0  0  0  0  0
  123.6930  129.9940   64.0990 N   0  0  0  0  0  0  0  0  0  0  0  0
  124.9900  130.1450   64.1950 C   0  0  0  0  0  0  0  0  0  0  0  0
  125.8390  129.6180   65.3420 C   0  0  0  0  0  0  0  0  0  0  0  0
  127.2580  129.4950   65.0190 N   0  0  0  0  0  0  0  0  0  0  0  0
  128.0660  128.4250   65.4440 C   0  0  0  0  0  0  0  0  0  0  0  0
  128.6430  127.6250   64.4580 C   0  0  0  0  0  0  0  0  0  0  0  0
  129.4490  126.5470   64.8090 C   0  0  0  0  0  0  0  0  0  0  0  0
  129.6910  126.2570   66.1550 C   0  0  0  0  0  0  0  0  0  0  0  0
  130.5740  125.0650   66.5240 C   0  0  0  0  0  0  0  0  0  0  0  0
  130.6950  124.1960   65.5180 F   0  0  0  0  0  0  0  0  0  0  0  0
  131.7970  125.4780   66.8610 F   0  0  0  0  0  0  0  0  0  0  0  0
  130.0360  124.4290   67.5650 F   0  0  0  0  0  0  0  0  0  0  0  0
  129.1200  127.0630   67.1450 C   0  0  0  0  0  0  0  0  0  0  0  0
  128.3150  128.1420   66.7930 C   0  0  0  0  0  0  0  0  0  0  0  0
  125.4810  130.8480   63.1140 N   0  0  0  0  0  0  0  0  0  0  0  0
  126.8140  131.2000   62.8500 C   0  0  0  0  0  0  0  0  0  0  0  0
  127.6170  130.3380   62.1050 C   0  0  0  0  0  0  0  0  0  0  0  0
  128.9400  130.6850   61.8460 C   0  0  0  0  0  0  0  0  0  0  0  0
  129.4630  131.8950   62.3320 C   0  0  0  0  0  0  0  0  0  0  0  0
  130.7600  132.3210   62.1250 O   0  0  0  0  0  0  0  0  0  0  0  0
  131.7590  131.3650   61.7840 C   0  0  0  0  0  0  0  0  0  0  0  0
  128.6430  132.7440   63.0790 C   0  0  0  0  0  0  0  0  0  0  0  0
  127.3190  132.4040   63.3400 C   0  0  0  0  0  0  0  0  0  0  0  0
  127.1710  131.8650   56.6490 C   0  0  0  0  0  0  0  0  0  0  0  0
  128.4210  132.4210   56.3870 C   0  0  0  0  0  0  0  0  0  0  0  0
  131.7613  132.2426   58.9444 H   0  0  0  0  0  0  0  0  0  0  0  0
  131.5110  130.7800   57.9319 H   0  0  0  0  0  0  0  0  0  0  0  0
  133.1037  131.6106   57.9319 H   0  0  0  0  0  0  0  0  0  0  0  0
  132.3863  133.2778   56.4956 H   0  0  0  0  0  0  0  0  0  0  0  0
  131.2268  132.0114   55.9867 H   0  0  0  0  0  0  0  0  0  0  0  0
  129.3688  133.1627   59.5775 H   0  0  0  0  0  0  0  0  0  0  0  0
  127.1432  132.1725   60.0479 H   0  0  0  0  0  0  0  0  0  0  0  0
  124.4516  129.8069   59.6974 H   0  0  0  0  0  0  0  0  0  0  0  0
  126.1078  130.4031   60.1442 H   0  0  0  0  0  0  0  0  0  0  0  0
  125.7360  130.3061   66.1940 H   0  0  0  0  0  0  0  0  0  0  0  0
  125.4743  128.6057   65.5708 H   0  0  0  0  0  0  0  0  0  0  0  0
  127.7220  130.3130   64.6510 H   0  0  0  0  0  0  0  0  0  0  0  0
  128.4596  127.8478   63.3965 H   0  0  0  0  0  0  0  0  0  0  0  0
  129.8978  125.9202   64.0243 H   0  0  0  0  0  0  0  0  0  0  0  0
  129.3080  126.8431   68.2063 H   0  0  0  0  0  0  0  0  0  0  0  0
  127.8728  128.7747   67.5766 H   0  0  0  0  0  0  0  0  0  0  0  0
  127.2082  129.3903   61.7245 H   0  0  0  0  0  0  0  0  0  0  0  0
  129.5786  130.0090   61.2584 H   0  0  0  0  0  0  0  0  0  0  0  0
  132.1956  130.9472   62.7031 H   0  0  0  0  0  0  0  0  0  0  0  0
  131.3055  130.5558   61.1927 H   0  0  0  0  0  0  0  0  0  0  0  0
  132.5475  131.8536   61.1927 H   0  0  0  0  0  0  0  0  0  0  0  0
  129.0480  133.6911   63.4649 H   0  0  0  0  0  0  0  0  0  0  0  0
  126.6775  133.0780   63.9267 H   0  0  0  0  0  0  0  0  0  0  0  0
  126.5519  131.4988   55.8167 H   0  0  0  0  0  0  0  0  0  0  0  0
  128.7820  132.4911   55.3503 H   0  0  0  0  0  0  0  0  0  0  0  0
  1  2  1  0
  2  3  1  0
  3  4  1  0
  4  5  2  0
  5  6  1  0
  6  7  2  0
  7  8  1  0
  8  9  2  0
  8 10  1  0
 10 11  1  0
 11 12  1  0
 12 13  2  0
 13 14  1  0
 14 15  2  0
 15 16  1  0
 16 17  1  0
 17 18  1  0
 18 19  2  0
 19 20  1  0
 20 21  2  0
 21 22  1  0
 22 23  1  0
 22 24  1  0
 22 25  1  0
 21 26  1  0
 26 27  2  0
 15 28  1  0
 28 29  1  0
 29 30  2  0
 30 31  1  0
 31 32  2  0
 32 33  1  0
 33 34  1  0
 32 35  1  0
 35 36  2  0
  7 37  1  0
 37 38  2  0
 38  4  1  0
 28 12  1  0
 36 29  1  0
 27 18  1  0
  1 39  1  0
  1 40  1  0
  1 41  1  0
  2 42  1  0
  2 43  1  0
  5 44  1  0
  6 45  1  0
 10 46  1  0
 10 47  1  0
 16 48  1  0
 16 49  1  0
 17 50  1  0
 19 51  1  0
 20 52  1  0
 26 53  1  0
 27 54  1  0
 30 55  1  0
 31 56  1  0
 34 57  1  0
 34 58  1  0
 34 59  1  0
 35 60  1  0
 36 61  1  0
 37 62  1  0
 38 63  1  0
M  END
>  <Binding energies>  (1) 
[-8.86]

>  <Ligand effiencies>  (1) 
[-0.22717948717948716]

>  <Interactions>  (1) 
["V-A:GLU:543:CD:4908, V-A:HIS:456:CE1:4070, V-A:GLU:543:CB:4906, V-B:GLU:543:CB:9878, V-B:ASP:366:CG:8184, V-B:GLU:543:CA:9876, V-B:TYR:484:CZ:9318, V-B:GLU:543:CG:9879, V-B:GLU:543:CD:9880, V-A:GLU:543:CG:4907, V-A:TYR:484:CE2:4346, V-A:TYR:484:CZ:4347, V-A:TYR:539:CD1:4873, V-A:LEU:363:CD1:3189, V-A:ILE:538:CB:4862, V-B:LEU:475:CD2:9230, V-A:ALA:541:CB:4892, V-A:PRO:540:CB:4885, H-B:ARG:545:NH2:9900, V-A:TYR:539:CE1:4875, V-A:TYR:539:C:4867, H-A:TYR:539:N:4870, H-B:TYR:484:OH:9319, V-A:MET:535:CE:4835, H-B:TYR:531:OH:9767, H-B:GLY:454:N:9021, H-A:ALA:541:N:4891, V-B:ARG:545:CZ:9898, H-B:ARG:545:NH1:9899, H-B:ARG:545:NE:9896, V-A:PRO:540:CD:4887, V-A:TYR:539:CZ:4877, H-A:TYR:539:OH:4878"]

$$$$
RR18_Rahimova_2017
     RDKit          3D

 56 61  0  0  0  0  0  0  0  0999 V2000
  133.7130  125.1140   65.4910 C   0  0  0  0  0  0  0  0  0  0  0  0
  132.6120  125.1480   64.4610 C   0  0  0  0  0  0  0  0  0  0  0  0
  132.5470  124.8610   63.1080 C   0  0  0  0  0  0  0  0  0  0  0  0
  131.2300  125.0880   62.7100 C   0  0  0  0  0  0  0  0  0  0  0  0
  130.5370  125.5060   63.8350 C   0  0  0  0  0  0  0  0  0  0  0  0
  129.0870  125.9050   64.0980 C   0  0  1  0  0  0  0  0  0  0  0  0
  128.9810  126.9430   65.2540 C   0  0  0  0  0  0  0  0  0  0  0  0
  129.3610  126.5760   66.6150 C   0  0  0  0  0  0  0  0  0  0  0  0
  129.6280  125.4130   66.9240 O   0  0  0  0  0  0  0  0  0  0  0  0
  129.4080  127.6180   67.4780 N   0  0  0  0  0  0  0  0  0  0  0  0
  129.7110  127.6480   68.8560 C   0  0  0  0  0  0  0  0  0  0  0  0
  130.9890  127.9440   69.3620 C   0  0  0  0  0  0  0  0  0  0  0  0
  131.2240  127.9510   70.7360 C   0  0  0  0  0  0  0  0  0  0  0  0
  130.1930  127.6570   71.6220 C   0  0  0  0  0  0  0  0  0  0  0  0
  128.9240  127.3510   71.1350 C   0  0  0  0  0  0  0  0  0  0  0  0
  128.6730  127.3410   69.7590 C   0  0  0  0  0  0  0  0  0  0  0  0
  127.2670  126.9950   69.2770 C   0  0  0  0  0  0  0  0  0  0  0  0
  128.6270  128.2190   64.9470 C   0  0  0  0  0  0  0  0  0  0  0  0
  128.2380  128.6420   63.7130 N   0  0  0  0  0  0  0  0  0  0  0  0
  128.1100  127.7880   62.7650 C   0  0  0  0  0  0  0  0  0  0  0  0
  127.4790  128.1550   61.1770 S   0  0  0  0  0  0  0  0  0  0  0  0
  127.6510  126.4490   60.6570 C   0  0  0  0  0  0  0  0  0  0  0  0
  127.3280  125.9170   59.4270 C   0  0  0  0  0  0  0  0  0  0  0  0
  126.6980  126.7570   58.3970 C   0  0  0  0  0  0  0  0  0  0  0  0
  126.4020  127.9510   58.4210 O   0  0  0  0  0  0  0  0  0  0  0  0
  126.4510  125.9750   57.3420 N   0  0  0  0  0  0  0  0  0  0  0  0
  126.8740  124.6920   57.5200 C   0  0  0  0  0  0  0  0  0  0  0  0
  126.7850  123.6300   56.6200 C   0  0  0  0  0  0  0  0  0  0  0  0
  127.3110  122.3940   56.9860 C   0  0  0  0  0  0  0  0  0  0  0  0
  127.9200  122.2450   58.2300 C   0  0  0  0  0  0  0  0  0  0  0  0
  127.9960  123.3240   59.1150 C   0  0  0  0  0  0  0  0  0  0  0  0
  127.4490  124.5760   58.7730 C   0  0  0  0  0  0  0  0  0  0  0  0
  128.1910  125.6860   61.7820 C   0  0  0  0  0  0  0  0  0  0  0  0
  128.3940  124.4760   61.8130 O   0  0  0  0  0  0  0  0  0  0  0  0
  128.4430  126.4750   62.8620 N   0  0  0  0  0  0  0  0  0  0  0  0
  131.3860  125.5400   64.8970 O   0  0  0  0  0  0  0  0  0  0  0  0
  133.2727  125.1276   66.4989 H   0  0  0  0  0  0  0  0  0  0  0  0
  134.3070  124.1971   65.3627 H   0  0  0  0  0  0  0  0  0  0  0  0
  134.3624  125.9925   65.3627 H   0  0  0  0  0  0  0  0  0  0  0  0
  133.3752  124.5195   62.4697 H   0  0  0  0  0  0  0  0  0  0  0  0
  130.8198  124.9599   61.6974 H   0  0  0  0  0  0  0  0  0  0  0  0
  128.5556  124.9877   64.3915 H   0  0  0  0  0  0  0  0  0  0  0  0
  129.2490  128.5290   67.0750 H   0  0  0  0  0  0  0  0  0  0  0  0
  131.8108  128.1721   68.6673 H   0  0  0  0  0  0  0  0  0  0  0  0
  132.2267  128.1895   71.1202 H   0  0  0  0  0  0  0  0  0  0  0  0
  130.3793  127.6661   72.7061 H   0  0  0  0  0  0  0  0  0  0  0  0
  128.1123  127.1152   71.8389 H   0  0  0  0  0  0  0  0  0  0  0  0
  126.6111  126.8336   70.1452 H   0  0  0  0  0  0  0  0  0  0  0  0
  126.8736  127.8231   68.6692 H   0  0  0  0  0  0  0  0  0  0  0  0
  127.3028  126.0789   68.6692 H   0  0  0  0  0  0  0  0  0  0  0  0
  128.6571  128.9646   65.7552 H   0  0  0  0  0  0  0  0  0  0  0  0
  126.0150  126.3120   56.4960 H   0  0  0  0  0  0  0  0  0  0  0  0
  126.3077  123.7667   55.6384 H   0  0  0  0  0  0  0  0  0  0  0  0
  127.2460  121.5395   56.2964 H   0  0  0  0  0  0  0  0  0  0  0  0
  128.3439  121.2716   58.5177 H   0  0  0  0  0  0  0  0  0  0  0  0
  128.4887  123.1939   60.0899 H   0  0  0  0  0  0  0  0  0  0  0  0
  1  2  1  0
  2  3  2  0
  3  4  1  0
  4  5  2  0
  5  6  1  0
  6  7  1  0
  7  8  1  0
  8  9  2  0
  8 10  1  0
 10 11  1  0
 11 12  2  0
 12 13  1  0
 13 14  2  0
 14 15  1  0
 15 16  2  0
 16 17  1  0
  7 18  2  0
 18 19  1  0
 19 20  2  0
 20 21  1  0
 21 22  1  0
 22 23  2  0
 23 24  1  0
 24 25  2  0
 24 26  1  0
 26 27  1  0
 27 28  2  0
 28 29  1  0
 29 30  2  0
 30 31  1  0
 31 32  2  0
 22 33  1  0
 33 34  2  0
 33 35  1  0
  5 36  1  0
 36  2  1  0
 35  6  1  0
 16 11  1  0
 35 20  1  0
 32 23  1  0
 32 27  1  0
  1 37  1  0
  1 38  1  0
  1 39  1  0
  3 40  1  0
  4 41  1  0
  6 42  1  1
 10 43  1  0
 12 44  1  0
 13 45  1  0
 14 46  1  0
 15 47  1  0
 17 48  1  0
 17 49  1  0
 17 50  1  0
 18 51  1  0
 26 52  1  0
 28 53  1  0
 29 54  1  0
 30 55  1  0
 31 56  1  0
M  END
>  <Binding energies>  (1) 
[-8.42]

>  <Ligand effiencies>  (1) 
[-0.22157894736842104]

>  <Interactions>  (1) 
["V-B:GLU:543:C:9874, V-A:GLU:543:CD:4908, V-A:GLU:543:C:4902, V-A:HIS:456:CE1:4070, V-A:GLU:543:CB:4906, V-B:HIS:456:CE1:9041, V-A:GLY:544:C:4912, V-B:GLU:543:CB:9878, V-A:GLY:544:CA:4914, V-B:TYR:539:CE2:9848, V-B:MET:535:CE:9807, V-B:TYR:539:CZ:9849, V-B:TYR:539:CD2:9846, V-B:TYR:539:CG:9844, V-B:TYR:539:CE1:9847, V-B:PRO:540:CA:9855, V-B:GLU:543:CG:9879, V-B:GLU:543:CD:9880, V-A:GLU:543:CG:4907, V-A:GLU:543:CA:4904, V-A:ARG:545:CA:4919, H-A:GLU:543:OE2:4910, V-B:PRO:540:N:9856, H-B:MET:535:SD:9806, V-B:TYR:539:CD1:9845, V-B:TYR:539:C:9839, V-B:PRO:540:CD:9859, H-B:TYR:531:OH:9767, V-A:ARG:545:CZ:4926, V-B:TYR:531:CZ:9766, V-A:GLY:454:CA:4049, V-B:TYR:539:CA:9841, V-A:ARG:545:CD:4923"]

$$$$
RR19_Rahimova_2017
     RDKit          3D

 72 77  0  0  0  0  0  0  0  0999 V2000
  133.5000  124.4170   64.2330 O   0  0  0  0  0  0  0  0  0  0  0  0
  132.3320  124.4780   63.8380 C   0  0  0  0  0  0  0  0  0  0  0  0
  131.9330  124.7740   62.5740 N   0  0  0  0  0  0  0  0  0  0  0  0
  132.6030  124.8670   61.3790 C   0  0  0  0  0  0  0  0  0  0  0  0
  134.1980  124.3730   61.1020 S   0  0  0  0  0  0  0  0  0  0  0  0
  131.7640  125.4270   60.4480 N   0  0  0  0  0  0  0  0  0  0  0  0
  131.8630  125.6120   59.1070 C   0  0  0  0  0  0  0  0  0  0  0  0
  132.7170  125.1250   58.3630 O   0  0  0  0  0  0  0  0  0  0  0  0
  130.7800  126.5520   58.5210 C   0  0  2  0  0  0  0  0  0  0  0  0
  130.6480  127.9250   59.2420 C   0  0  0  0  0  0  0  0  0  0  0  0
  131.0180  129.1360   58.4010 C   0  0  0  0  0  0  0  0  0  0  0  0
  132.3490  129.6040   58.3510 C   0  0  0  0  0  0  0  0  0  0  0  0
  132.6820  130.6620   57.5160 C   0  0  0  0  0  0  0  0  0  0  0  0
  131.7130  131.2540   56.7140 C   0  0  0  0  0  0  0  0  0  0  0  0
  130.4060  130.7850   56.7310 C   0  0  0  0  0  0  0  0  0  0  0  0
  130.0530  129.7260   57.5570 C   0  0  0  0  0  0  0  0  0  0  0  0
  129.4660  125.8620   58.4130 N   0  0  0  0  0  0  0  0  0  0  0  0
  128.6160  125.7860   59.4760 C   0  0  0  0  0  0  0  0  0  0  0  0
  128.8040  126.2180   60.6150 O   0  0  0  0  0  0  0  0  0  0  0  0
  127.4140  125.0770   58.9730 C   0  0  0  0  0  0  0  0  0  0  0  0
  126.2300  124.7130   59.6160 C   0  0  0  0  0  0  0  0  0  0  0  0
  125.2450  124.0460   58.8790 C   0  0  0  0  0  0  0  0  0  0  0  0
  125.4520  123.7550   57.5240 C   0  0  0  0  0  0  0  0  0  0  0  0
  126.6460  124.1290   56.8970 C   0  0  0  0  0  0  0  0  0  0  0  0
  127.6160  124.7920   57.6500 C   0  0  0  0  0  0  0  0  0  0  0  0
  128.9530  125.3130   57.2710 C   0  0  0  0  0  0  0  0  0  0  0  0
  129.4810  125.2660   56.1590 O   0  0  0  0  0  0  0  0  0  0  0  0
  131.1710  124.2170   64.8340 C   0  0  2  0  0  0  0  0  0  0  0  0
  130.3390  122.9420   64.5120 C   0  0  0  0  0  0  0  0  0  0  0  0
  129.8970  122.8440   63.0630 C   0  0  0  0  0  0  0  0  0  0  0  0
  130.7130  122.1890   62.1160 C   0  0  0  0  0  0  0  0  0  0  0  0
  130.2610  122.0120   60.8150 C   0  0  0  0  0  0  0  0  0  0  0  0
  128.9970  122.4510   60.4460 C   0  0  0  0  0  0  0  0  0  0  0  0
  128.1660  123.0620   61.3780 C   0  0  0  0  0  0  0  0  0  0  0  0
  128.6000  123.2510   62.6840 C   0  0  0  0  0  0  0  0  0  0  0  0
  130.2930  125.4040   65.0430 N   0  0  0  0  0  0  0  0  0  0  0  0
  129.9670  125.8430   66.2910 C   0  0  0  0  0  0  0  0  0  0  0  0
  130.3070  125.3510   67.3680 O   0  0  0  0  0  0  0  0  0  0  0  0
  129.1150  127.0390   66.0770 C   0  0  0  0  0  0  0  0  0  0  0  0
  128.4890  127.8910   66.9880 C   0  0  0  0  0  0  0  0  0  0  0  0
  127.7350  128.9620   66.4950 C   0  0  0  0  0  0  0  0  0  0  0  0
  127.6200  129.1670   65.1140 C   0  0  0  0  0  0  0  0  0  0  0  0
  128.2570  128.3030   64.2160 C   0  0  0  0  0  0  0  0  0  0  0  0
  129.0020  127.2390   64.7280 C   0  0  0  0  0  0  0  0  0  0  0  0
  129.7780  126.1780   64.0430 C   0  0  0  0  0  0  0  0  0  0  0  0
  129.9260  126.0280   62.8290 O   0  0  0  0  0  0  0  0  0  0  0  0
  130.9310  124.8480   62.4800 H   0  0  0  0  0  0  0  0  0  0  0  0
  130.9520  125.8720   60.8510 H   0  0  0  0  0  0  0  0  0  0  0  0
  131.1336  126.7998   57.5093 H   0  0  0  0  0  0  0  0  0  0  0  0
  129.6027  128.0410   59.5642 H   0  0  0  0  0  0  0  0  0  0  0  0
  131.3650  127.9020   60.0759 H   0  0  0  0  0  0  0  0  0  0  0  0
  133.1223  129.1304   58.9737 H   0  0  0  0  0  0  0  0  0  0  0  0
  133.7170  131.0334   57.4889 H   0  0  0  0  0  0  0  0  0  0  0  0
  131.9829  132.0983   56.0626 H   0  0  0  0  0  0  0  0  0  0  0  0
  129.6472  131.2543   56.0875 H   0  0  0  0  0  0  0  0  0  0  0  0
  129.0205  129.3467   57.5534 H   0  0  0  0  0  0  0  0  0  0  0  0
  126.0743  124.9455   60.6798 H   0  0  0  0  0  0  0  0  0  0  0  0
  124.3042  123.7489   59.3654 H   0  0  0  0  0  0  0  0  0  0  0  0
  124.6731  123.2306   56.9510 H   0  0  0  0  0  0  0  0  0  0  0  0
  126.8162  123.9052   55.8335 H   0  0  0  0  0  0  0  0  0  0  0  0
  131.6776  124.0214   65.7906 H   0  0  0  0  0  0  0  0  0  0  0  0
  130.9526  122.0598   64.7471 H   0  0  0  0  0  0  0  0  0  0  0  0
  129.4247  122.9958   65.1212 H   0  0  0  0  0  0  0  0  0  0  0  0
  131.7067  121.8188   62.4084 H   0  0  0  0  0  0  0  0  0  0  0  0
  130.9080  121.5213   60.0730 H   0  0  0  0  0  0  0  0  0  0  0  0
  128.6511  122.3147   59.4107 H   0  0  0  0  0  0  0  0  0  0  0  0
  127.1614  123.3969   61.0803 H   0  0  0  0  0  0  0  0  0  0  0  0
  127.9324  123.7181   63.4230 H   0  0  0  0  0  0  0  0  0  0  0  0
  128.5862  127.7242   68.0709 H   0  0  0  0  0  0  0  0  0  0  0  0
  127.2309  129.6452   67.1944 H   0  0  0  0  0  0  0  0  0  0  0  0
  127.0261  130.0112   64.7336 H   0  0  0  0  0  0  0  0  0  0  0  0
  128.1725  128.4588   63.1304 H   0  0  0  0  0  0  0  0  0  0  0  0
  1  2  2  0
  2  3  1  0
  3  4  1  0
  4  5  2  0
  4  6  1  0
  6  7  1  0
  7  8  2  0
  7  9  1  0
  9 10  1  0
 10 11  1  0
 11 12  2  0
 12 13  1  0
 13 14  2  0
 14 15  1  0
 15 16  2  0
  9 17  1  0
 17 18  1  0
 18 19  2  0
 18 20  1  0
 20 21  2  0
 21 22  1  0
 22 23  2  0
 23 24  1  0
 24 25  2  0
 25 26  1  0
 26 27  2  0
  2 28  1  0
 28 29  1  0
 29 30  1  0
 30 31  2  0
 31 32  1  0
 32 33  2  0
 33 34  1  0
 34 35  2  0
 28 36  1  0
 36 37  1  0
 37 38  2  0
 37 39  1  0
 39 40  2  0
 40 41  1  0
 41 42  2  0
 42 43  1  0
 43 44  2  0
 44 45  1  0
 45 46  2  0
 16 11  1  0
 26 17  1  0
 35 30  1  0
 45 36  1  0
 25 20  1  0
 44 39  1  0
  3 47  1  0
  6 48  1  0
  9 49  1  6
 10 50  1  0
 10 51  1  0
 12 52  1  0
 13 53  1  0
 14 54  1  0
 15 55  1  0
 16 56  1  0
 21 57  1  0
 22 58  1  0
 23 59  1  0
 24 60  1  0
 28 61  1  1
 29 62  1  0
 29 63  1  0
 31 64  1  0
 32 65  1  0
 33 66  1  0
 34 67  1  0
 35 68  1  0
 40 69  1  0
 41 70  1  0
 42 71  1  0
 43 72  1  0
M  END
>  <Binding energies>  (1) 
[-10.84]

>  <Ligand effiencies>  (1) 
[-0.22583333333333333]

>  <Interactions>  (1) 
["V-A:GLU:543:CD:4908, V-A:GLU:543:CB:4906, V-B:HIS:456:CE1:9041, V-B:GLU:543:CB:9878, V-B:TYR:539:CE2:9848, H-B:TYR:539:OH:9850, V-B:LEU:363:CD1:8160, V-A:LEU:475:CD2:4259, V-B:PRO:540:CB:9857, V-B:TYR:539:CZ:9849, V-B:TYR:539:CD2:9846, V-B:PRO:540:CA:9855, V-B:GLU:543:CG:9879, V-B:GLU:543:CD:9880, V-A:GLU:543:CG:4907, V-A:TYR:484:CE2:4346, V-B:ALA:541:CB:9864, V-A:TYR:484:CZ:4347, V-A:ILE:369:CD1:3239, V-A:LEU:363:CD1:3189, V-A:TYR:531:CE2:4793, V-A:TYR:531:CZ:4794, H-A:ARG:545:NH2:4928, V-A:ASP:366:CB:3212, V-A:MET:535:CE:4835, V-A:ASP:366:CG:3213, H-A:GLY:454:N:4050, H-A:TYR:484:OH:4348"]

$$$$
RR19_Rahimova_2017-again1
     RDKit          3D

 71 76  0  0  0  0  0  0  0  0999 V2000
  127.8820  130.8140   77.9120 O   0  0  0  0  0  0  0  0  0  0  0  0
  128.1300  130.7340   76.7060 C   0  0  0  0  0  0  0  0  0  0  0  0
  128.7950  129.7220   76.0990 N   0  0  0  0  0  0  0  0  0  0  0  0
  129.2340  128.5050   76.5380 C   0  0  0  0  0  0  0  0  0  0  0  0
  129.2110  127.8340   78.0790 S   0  0  0  0  0  0  0  0  0  0  0  0
  129.6690  127.8140   75.4210 N   0  0  0  0  0  0  0  0  0  0  0  0
  129.7550  128.2150   74.1940 C   0  0  0  0  0  0  0  0  0  0  0  0
  129.5560  129.3410   73.6960 O   0  0  0  0  0  0  0  0  0  0  0  0
  130.1600  127.1160   73.1550 C   0  0  2  0  0  0  0  0  0  0  0  0
  131.7140  126.9520   73.0730 C   0  0  0  0  0  0  0  0  0  0  0  0
  132.3550  126.3510   74.3210 C   0  0  0  0  0  0  0  0  0  0  0  0
  131.6210  125.4830   75.1330 C   0  0  0  0  0  0  0  0  0  0  0  0
  132.2090  124.9220   76.2630 C   0  0  0  0  0  0  0  0  0  0  0  0
  133.5310  125.2330   76.5800 C   0  0  0  0  0  0  0  0  0  0  0  0
  134.2680  126.1020   75.7770 C   0  0  0  0  0  0  0  0  0  0  0  0
  133.6780  126.6630   74.6480 C   0  0  0  0  0  0  0  0  0  0  0  0
  129.4770  127.2640   71.8280 N   0  0  0  0  0  0  0  0  0  0  0  0
  128.2060  126.8140   71.6250 C   0  0  0  0  0  0  0  0  0  0  0  0
  127.4760  126.2440   72.4360 O   0  0  0  0  0  0  0  0  0  0  0  0
  127.8880  127.1550   70.2140 C   0  0  0  0  0  0  0  0  0  0  0  0
  126.7370  126.9330   69.4580 C   0  0  0  0  0  0  0  0  0  0  0  0
  126.7160  127.3690   68.1280 C   0  0  0  0  0  0  0  0  0  0  0  0
  127.8310  128.0150   67.5780 C   0  0  0  0  0  0  0  0  0  0  0  0
  128.9750  128.2280   68.3540 C   0  0  0  0  0  0  0  0  0  0  0  0
  128.9770  127.7840   69.6770 C   0  0  0  0  0  0  0  0  0  0  0  0
  130.0210  127.8660   70.7260 C   0  0  0  0  0  0  0  0  0  0  0  0
  131.1390  128.3700   70.6230 O   0  0  0  0  0  0  0  0  0  0  0  0
  127.6650  131.8700   75.7480 C   0  0  2  0  0  0  0  0  0  0  0  0
  126.4260  131.4940   74.8850 C   0  0  0  0  0  0  0  0  0  0  0  0
  125.6940  130.2530   75.3650 C   0  0  0  0  0  0  0  0  0  0  0  0
  124.5300  130.3800   76.1520 C   0  0  0  0  0  0  0  0  0  0  0  0
  123.8050  129.2490   76.5080 C   0  0  0  0  0  0  0  0  0  0  0  0
  124.2060  127.9930   76.0690 C   0  0  0  0  0  0  0  0  0  0  0  0
  125.3290  127.8580   75.2620 C   0  0  0  0  0  0  0  0  0  0  0  0
  126.0670  128.9760   74.8950 C   0  0  0  0  0  0  0  0  0  0  0  0
  128.7640  132.4600   74.9240 N   0  0  0  0  0  0  0  0  0  0  0  0
  128.5270  132.9920   73.6920 C   0  0  0  0  0  0  0  0  0  0  0  0
  127.4630  132.9950   73.0710 O   0  0  0  0  0  0  0  0  0  0  0  0
  129.8190  133.5760   73.2580 C   0  0  0  0  0  0  0  0  0  0  0  0
  130.1690  134.2590   72.0910 C   0  0  0  0  0  0  0  0  0  0  0  0
  131.4810  134.7240   71.9560 C   0  0  0  0  0  0  0  0  0  0  0  0
  132.4180  134.5030   72.9740 C   0  0  0  0  0  0  0  0  0  0  0  0
  132.0490  133.8140   74.1350 C   0  0  0  0  0  0  0  0  0  0  0  0
  130.7350  133.3600   74.2510 C   0  0  0  0  0  0  0  0  0  0  0  0
  130.0490  132.6380   75.3520 C   0  0  0  0  0  0  0  0  0  0  0  0
  130.5350  132.2860   76.4270 O   0  0  0  0  0  0  0  0  0  0  0  0
  128.9170  129.8530   75.1060 H   0  0  0  0  0  0  0  0  0  0  0  0
  129.7754  126.1569   73.5321 H   0  0  0  0  0  0  0  0  0  0  0  0
  131.9457  126.2982   72.2193 H   0  0  0  0  0  0  0  0  0  0  0  0
  132.1296  127.9647   72.9653 H   0  0  0  0  0  0  0  0  0  0  0  0
  130.5780  125.2428   74.8793 H   0  0  0  0  0  0  0  0  0  0  0  0
  131.6338  124.2367   76.9029 H   0  0  0  0  0  0  0  0  0  0  0  0
  133.9965  124.7884   77.4720 H   0  0  0  0  0  0  0  0  0  0  0  0
  135.3100  126.3431   76.0341 H   0  0  0  0  0  0  0  0  0  0  0  0
  134.2532  127.3524   74.0125 H   0  0  0  0  0  0  0  0  0  0  0  0
  125.8650  126.4264   69.8973 H   0  0  0  0  0  0  0  0  0  0  0  0
  125.8199  127.2037   67.5118 H   0  0  0  0  0  0  0  0  0  0  0  0
  127.8066  128.3558   66.5324 H   0  0  0  0  0  0  0  0  0  0  0  0
  129.8546  128.7348   67.9304 H   0  0  0  0  0  0  0  0  0  0  0  0
  127.3357  132.6694   76.4281 H   0  0  0  0  0  0  0  0  0  0  0  0
  125.7224  132.3394   74.9027 H   0  0  0  0  0  0  0  0  0  0  0  0
  126.7972  131.2738   73.8732 H   0  0  0  0  0  0  0  0  0  0  0  0
  124.1963  131.3742   76.4839 H   0  0  0  0  0  0  0  0  0  0  0  0
  122.9101  129.3485   77.1399 H   0  0  0  0  0  0  0  0  0  0  0  0
  123.6318  127.1016   76.3617 H   0  0  0  0  0  0  0  0  0  0  0  0
  125.6350  126.8610   74.9121 H   0  0  0  0  0  0  0  0  0  0  0  0
  126.9423  128.8658   74.2379 H   0  0  0  0  0  0  0  0  0  0  0  0
  129.4286  134.4275   71.2952 H   0  0  0  0  0  0  0  0  0  0  0  0
  131.7788  135.2659   71.0462 H   0  0  0  0  0  0  0  0  0  0  0  0
  133.4478  134.8725   72.8603 H   0  0  0  0  0  0  0  0  0  0  0  0
  132.7788  133.6344   74.9382 H   0  0  0  0  0  0  0  0  0  0  0  0
  1  2  2  0
  2  3  1  0
  3  4  1  0
  4  5  2  0
  4  6  1  0
  6  7  2  0
  7  8  1  0
  7  9  1  0
  9 10  1  0
 10 11  1  0
 11 12  2  0
 12 13  1  0
 13 14  2  0
 14 15  1  0
 15 16  2  0
  9 17  1  0
 17 18  1  0
 18 19  2  0
 18 20  1  0
 20 21  2  0
 21 22  1  0
 22 23  2  0
 23 24  1  0
 24 25  2  0
 25 26  1  0
 26 27  2  0
  2 28  1  0
 28 29  1  0
 29 30  1  0
 30 31  2  0
 31 32  1  0
 32 33  2  0
 33 34  1  0
 34 35  2  0
 28 36  1  0
 36 37  1  0
 37 38  2  0
 37 39  1  0
 39 40  2  0
 40 41  1  0
 41 42  2  0
 42 43  1  0
 43 44  2  0
 44 45  1  0
 45 46  2  0
 16 11  1  0
 26 17  1  0
 35 30  1  0
 45 36  1  0
 25 20  1  0
 44 39  1  0
  3 47  1  0
  9 48  1  1
 10 49  1  0
 10 50  1  0
 12 51  1  0
 13 52  1  0
 14 53  1  0
 15 54  1  0
 16 55  1  0
 21 56  1  0
 22 57  1  0
 23 58  1  0
 24 59  1  0
 28 60  1  1
 29 61  1  0
 29 62  1  0
 31 63  1  0
 32 64  1  0
 33 65  1  0
 34 66  1  0
 35 67  1  0
 40 68  1  0
 41 69  1  0
 42 70  1  0
 43 71  1  0
M  CHG  1   8  -1
M  END
>  <Binding energies>  (1) 
[-11.9]

>  <Ligand effiencies>  (1) 
[-0.25319148936170216]

>  <Interactions>  (1) 
["V-B:HIS:456:CG:9037, V-B:LYS:471:CE:9191, H-A:LYS:547:NZ:4951, V-B:GLU:543:C:9874, V-B:VAL:458:CG2:9058, V-A:GLU:543:C:4902, V-B:HIS:456:CB:9036, V-B:LYS:547:CE:9922, V-A:HIS:456:CE1:4070, V-B:GLY:544:C:9884, V-A:GLU:543:CB:4906, V-B:LYS:547:CD:9921, V-B:HIS:456:CE1:9041, V-A:GLY:544:C:4912, V-B:HIS:456:CD2:9039, V-B:GLU:543:CB:9878, V-B:LYS:471:CD:9190, V-B:TYR:484:CD2:9315, V-B:TYR:484:CA:9310, V-A:GLY:544:CA:4914, V-B:HIS:456:C:9032, V-A:LYS:547:CE:4950, V-A:VAL:542:CG1:4899, V-B:TYR:484:CB:9312, H-B:LYS:471:NZ:9192, H-B:LYS:547:NZ:9923, V-A:HIS:456:CG:4066, V-A:LYS:547:CG:4948, V-B:ARG:545:CG:9894, V-A:HIS:456:CD2:4068, V-A:HIS:456:CB:4065, V-B:GLU:543:CG:9879, V-B:GLU:543:CD:9880, V-A:VAL:458:CG2:4087, V-B:VAL:457:C:9044, V-B:VAL:457:CA:9046, H-A:ARG:545:N:4920"]

$$$$
RR1_Rahimova_2017
     RDKit          3D

 68 71  0  0  0  0  0  0  0  0999 V2000
  125.3450  122.7650   56.7110 C   0  0  0  0  0  0  0  0  0  0  0  0
  126.6140  122.1310   56.8270 O   0  0  0  0  0  0  0  0  0  0  0  0
  127.5770  122.6940   57.6430 C   0  0  0  0  0  0  0  0  0  0  0  0
  127.9620  122.1720   58.8880 C   0  0  0  0  0  0  0  0  0  0  0  0
  128.9380  122.8130   59.6460 C   0  0  0  0  0  0  0  0  0  0  0  0
  129.5480  123.9760   59.1730 C   0  0  0  0  0  0  0  0  0  0  0  0
  130.4900  124.5750   60.0320 N   0  0  0  0  0  0  0  0  0  0  0  0
  131.8300  124.6690   59.8990 C   0  0  0  0  0  0  0  0  0  0  0  0
  132.4830  124.1570   58.9890 O   0  0  0  0  0  0  0  0  0  0  0  0
  132.5270  125.4810   61.0020 C   0  0  0  0  0  0  0  0  0  0  0  0
  132.4380  124.7630   62.6800 S   0  0  0  0  0  0  0  0  0  0  0  0
  130.9950  125.6110   63.2290 C   0  0  0  0  0  0  0  0  0  0  0  0
  130.1640  126.2400   62.4360 N   0  0  0  0  0  0  0  0  0  0  0  0
  129.2340  126.7110   63.2590 C   0  0  0  0  0  0  0  0  0  0  0  0
  128.0530  127.5010   62.7700 C   0  0  0  0  0  0  0  0  0  0  0  0
  127.4760  128.5170   63.5490 C   0  0  0  0  0  0  0  0  0  0  0  0
  126.3770  129.2320   63.0690 C   0  0  0  0  0  0  0  0  0  0  0  0
  125.8760  128.9130   61.8090 C   0  0  0  0  0  0  0  0  0  0  0  0
  126.4090  127.9380   61.0300 N   0  0  0  0  0  0  0  0  0  0  0  0
  127.4770  127.2550   61.5140 C   0  0  0  0  0  0  0  0  0  0  0  0
  129.4160  126.4340   64.5370 N   0  0  0  0  0  0  0  0  0  0  0  0
  130.5500  125.7270   64.5200 N   0  0  0  0  0  0  0  0  0  0  0  0
  131.1090  125.1900   65.7610 C   0  0  0  0  0  0  0  0  0  0  0  0
  130.2090  125.3430   66.9990 C   0  0  0  0  0  0  0  0  0  0  0  0
  129.5880  124.3760   67.4540 O   0  0  0  0  0  0  0  0  0  0  0  0
  130.1640  126.5850   67.5180 N   0  0  0  0  0  0  0  0  0  0  0  0
  129.4920  126.7680   68.7190 N   0  0  0  0  0  0  0  0  0  0  0  0
  130.0620  127.5710   69.6440 C   0  0  0  0  0  0  0  0  0  0  0  0
  131.0880  128.2320   69.4490 O   0  0  0  0  0  0  0  0  0  0  0  0
  129.3430  127.6500   70.9750 C   0  0  0  0  0  0  0  0  0  0  0  0
  128.2580  126.8060   71.2350 C   0  0  0  0  0  0  0  0  0  0  0  0
  127.5770  126.8700   72.4450 C   0  0  0  0  0  0  0  0  0  0  0  0
  127.9570  127.7900   73.4360 C   0  0  0  0  0  0  0  0  0  0  0  0
  127.3130  127.9140   74.6540 O   0  0  0  0  0  0  0  0  0  0  0  0
  125.9150  128.1780   74.6860 C   0  0  0  0  0  0  0  0  0  0  0  0
  129.0360  128.6490   73.1930 C   0  0  0  0  0  0  0  0  0  0  0  0
  129.3580  129.5510   74.1930 O   0  0  0  0  0  0  0  0  0  0  0  0
  128.8950  130.8940   74.1050 C   0  0  0  0  0  0  0  0  0  0  0  0
  129.7210  128.5700   71.9670 C   0  0  0  0  0  0  0  0  0  0  0  0
  129.1670  124.5000   57.9290 C   0  0  0  0  0  0  0  0  0  0  0  0
  128.1910  123.8550   57.1740 C   0  0  0  0  0  0  0  0  0  0  0  0
  124.9425  122.9661   57.7148 H   0  0  0  0  0  0  0  0  0  0  0  0
  125.4573  123.7129   56.1643 H   0  0  0  0  0  0  0  0  0  0  0  0
  124.6545  122.1060   56.1643 H   0  0  0  0  0  0  0  0  0  0  0  0
  127.4906  121.2528   59.2661 H   0  0  0  0  0  0  0  0  0  0  0  0
  129.2301  122.4007   60.6231 H   0  0  0  0  0  0  0  0  0  0  0  0
  130.0960  124.9560   60.8810 H   0  0  0  0  0  0  0  0  0  0  0  0
  133.5885  125.5798   60.7311 H   0  0  0  0  0  0  0  0  0  0  0  0
  131.9927  126.4411   61.0547 H   0  0  0  0  0  0  0  0  0  0  0  0
  127.8912  128.7503   64.5406 H   0  0  0  0  0  0  0  0  0  0  0  0
  125.9173  130.0289   63.6720 H   0  0  0  0  0  0  0  0  0  0  0  0
  125.0107  129.4759   61.4289 H   0  0  0  0  0  0  0  0  0  0  0  0
  127.9157  126.4647   60.8872 H   0  0  0  0  0  0  0  0  0  0  0  0
  131.3042  124.1178   65.6115 H   0  0  0  0  0  0  0  0  0  0  0  0
  132.0176  125.7748   65.9673 H   0  0  0  0  0  0  0  0  0  0  0  0
  130.8130  127.3280   67.2970 H   0  0  0  0  0  0  0  0  0  0  0  0
  128.9830  125.9390   68.9870 H   0  0  0  0  0  0  0  0  0  0  0  0
  127.9393  126.0815   70.4711 H   0  0  0  0  0  0  0  0  0  0  0  0
  126.7304  126.1921   72.6287 H   0  0  0  0  0  0  0  0  0  0  0  0
  125.5777  128.2417   75.7311 H   0  0  0  0  0  0  0  0  0  0  0  0
  125.7100  129.1307   74.1758 H   0  0  0  0  0  0  0  0  0  0  0  0
  125.3767  127.3656   74.1758 H   0  0  0  0  0  0  0  0  0  0  0  0
  128.7548  131.3006   75.1174 H   0  0  0  0  0  0  0  0  0  0  0  0
  129.6353  131.5024   73.5648 H   0  0  0  0  0  0  0  0  0  0  0  0
  127.9371  130.9169   73.5648 H   0  0  0  0  0  0  0  0  0  0  0  0
  130.5709  129.2431   71.7810 H   0  0  0  0  0  0  0  0  0  0  0  0
  129.6385  125.4189   57.5505 H   0  0  0  0  0  0  0  0  0  0  0  0
  127.9007  124.2661   56.1959 H   0  0  0  0  0  0  0  0  0  0  0  0
  1  2  1  0
  2  3  1  0
  3  4  2  0
  4  5  1  0
  5  6  2  0
  6  7  1  0
  7  8  1  0
  8  9  2  0
  8 10  1  0
 10 11  1  0
 11 12  1  0
 12 13  2  0
 13 14  1  0
 14 15  1  0
 15 16  2  0
 16 17  1  0
 17 18  2  0
 18 19  1  0
 19 20  2  0
 14 21  2  0
 21 22  1  0
 22 23  1  0
 23 24  1  0
 24 25  2  0
 24 26  1  0
 26 27  1  0
 27 28  1  0
 28 29  2  0
 28 30  1  0
 30 31  2  0
 31 32  1  0
 32 33  2  0
 33 34  1  0
 34 35  1  0
 33 36  1  0
 36 37  1  0
 37 38  1  0
 36 39  2  0
  6 40  1  0
 40 41  2  0
 41  3  1  0
 22 12  1  0
 39 30  1  0
 20 15  1  0
  1 42  1  0
  1 43  1  0
  1 44  1  0
  4 45  1  0
  5 46  1  0
  7 47  1  0
 10 48  1  0
 10 49  1  0
 16 50  1  0
 17 51  1  0
 18 52  1  0
 20 53  1  0
 23 54  1  0
 23 55  1  0
 26 56  1  0
 27 57  1  0
 31 58  1  0
 32 59  1  0
 35 60  1  0
 35 61  1  0
 35 62  1  0
 38 63  1  0
 38 64  1  0
 38 65  1  0
 39 66  1  0
 40 67  1  0
 41 68  1  0
M  END
>  <Binding energies>  (1) 
[-8.46]

>  <Ligand effiencies>  (1) 
[-0.1922727272727273]

>  <Interactions>  (1) 
["V-B:HIS:456:CG:9037, H-A:LYS:547:NZ:4951, V-A:GLU:543:CD:4908, V-B:HIS:456:CB:9036, V-B:LYS:547:CE:9922, V-A:HIS:456:CE1:4070, V-B:GLY:544:C:9884, V-A:GLU:543:CB:4906, V-B:HIS:456:CE1:9041, V-B:HIS:456:CD2:9039, V-B:GLU:543:CB:9878, V-A:LYS:547:CE:4950, V-B:TYR:539:CE2:9848, H-B:TYR:539:OH:9850, V-B:LEU:363:CD1:8160, V-B:MET:535:CE:9807, V-B:PRO:540:CB:9857, V-B:ASP:366:CG:8184, V-B:TYR:539:CZ:9849, V-B:TYR:539:CD2:9846, V-B:TYR:539:CG:9844, V-B:TYR:539:CE1:9847, H-B:TYR:539:N:9842, V-B:PRO:540:CA:9855, H-B:LYS:547:NZ:9923, V-B:GLY:544:CA:9886, V-B:GLU:543:CG:9879, V-B:GLU:543:CD:9880, V-A:TYR:484:CE2:4346, H-A:GLU:543:OE2:4910, H-B:GLU:543:O:9875, H-A:ARG:545:NH2:4928, H-A:HIS:456:NE2:4071, H-B:ARG:545:NH2:9900, V-B:PRO:540:N:9856, V-B:TYR:539:CD1:9845, V-B:TYR:539:C:9839, V-B:PRO:540:CD:9859, V-A:ASP:366:CG:3213, H-A:TYR:484:OH:4348"]

$$$$
RR20_Rahimova_2017
     RDKit          3D

 68 73  0  0  0  0  0  0  0  0999 V2000
  133.0630  124.2210   76.2920 C   0  0  0  0  0  0  0  0  0  0  0  0
  132.3130  125.2060   75.4140 C   0  0  0  0  0  0  0  0  0  0  0  0
  133.0210  126.0730   74.5810 C   0  0  0  0  0  0  0  0  0  0  0  0
  132.3360  126.9710   73.7680 C   0  0  0  0  0  0  0  0  0  0  0  0
  130.9370  127.0190   73.7900 C   0  0  0  0  0  0  0  0  0  0  0  0
  130.2100  127.9880   72.8840 C   0  0  0  0  0  0  0  0  0  0  0  0
  130.4990  129.1830   72.9780 O   0  0  0  0  0  0  0  0  0  0  0  0
  129.2860  127.5120   71.9990 N   0  0  0  0  0  0  0  0  0  0  0  0
  127.8810  127.3040   72.3880 C   0  0  0  0  0  0  0  0  0  0  0  0
  127.1380  126.9220   71.1190 C   0  0  0  0  0  0  0  0  0  0  0  0
  128.1020  127.3080   70.0380 C   0  0  0  0  0  0  0  0  0  0  0  0
  127.9320  127.2700   68.6540 C   0  0  0  0  0  0  0  0  0  0  0  0
  129.0110  127.5170   67.7960 C   0  0  0  0  0  0  0  0  0  0  0  0
  128.8260  127.4850   66.3040 C   0  0  0  0  0  0  0  0  0  0  0  0
  128.0010  128.3620   65.7540 N   0  0  0  0  0  0  0  0  0  0  0  0
  127.9330  128.2560   64.4510 C   0  0  0  0  0  0  0  0  0  0  0  0
  127.1770  129.0150   63.5710 N   0  0  0  0  0  0  0  0  0  0  0  0
  127.0460  130.3640   63.5630 C   0  0  0  0  0  0  0  0  0  0  0  0
  127.6190  131.1170   64.3520 O   0  0  0  0  0  0  0  0  0  0  0  0
  126.1410  131.0000   62.4810 C   0  0  0  0  0  0  0  0  0  0  0  0
  126.3230  132.4590   62.3630 N   0  0  0  0  0  0  0  0  0  0  0  0
  127.5820  132.8150   61.6910 C   0  0  0  0  0  0  0  0  0  0  0  0
  127.8490  134.3310   61.8310 C   0  0  0  0  0  0  0  0  0  0  0  0
  126.6160  135.1850   61.5350 C   0  0  0  0  0  0  0  0  0  0  0  0
  126.7240  136.5670   61.3470 C   0  0  0  0  0  0  0  0  0  0  0  0
  125.5960  137.3510   61.1160 C   0  0  0  0  0  0  0  0  0  0  0  0
  124.3390  136.7560   61.0650 C   0  0  0  0  0  0  0  0  0  0  0  0
  124.2180  135.3790   61.2410 C   0  0  0  0  0  0  0  0  0  0  0  0
  125.3430  134.5810   61.4760 C   0  0  0  0  0  0  0  0  0  0  0  0
  125.2160  133.0630   61.6110 C   0  0  0  0  0  0  0  0  0  0  0  0
  128.9130  127.0080   63.7860 S   0  0  0  0  0  0  0  0  0  0  0  0
  129.4460  126.5970   65.3990 C   0  0  0  0  0  0  0  0  0  0  0  0
  130.3930  125.4380   65.6210 C   0  0  0  0  0  0  0  0  0  0  0  0
  130.2750  127.7480   68.3590 C   0  0  0  0  0  0  0  0  0  0  0  0
  130.4520  127.7680   69.7430 C   0  0  0  0  0  0  0  0  0  0  0  0
  129.3480  127.6040   70.5900 C   0  0  0  0  0  0  0  0  0  0  0  0
  130.2320  126.1250   74.6070 C   0  0  0  0  0  0  0  0  0  0  0  0
  130.9170  125.2260   75.4200 C   0  0  0  0  0  0  0  0  0  0  0  0
  132.8807  124.4604   77.3501 H   0  0  0  0  0  0  0  0  0  0  0  0
  132.7113  123.2003   76.0811 H   0  0  0  0  0  0  0  0  0  0  0  0
  134.1405  124.2885   76.0811 H   0  0  0  0  0  0  0  0  0  0  0  0
  134.1206  126.0467   74.5669 H   0  0  0  0  0  0  0  0  0  0  0  0
  132.8965  127.6464   73.1049 H   0  0  0  0  0  0  0  0  0  0  0  0
  127.8072  126.4956   73.1303 H   0  0  0  0  0  0  0  0  0  0  0  0
  127.4544  128.2100   72.8432 H   0  0  0  0  0  0  0  0  0  0  0  0
  126.9264  125.8428   71.0938 H   0  0  0  0  0  0  0  0  0  0  0  0
  126.1587  127.4139   71.0240 H   0  0  0  0  0  0  0  0  0  0  0  0
  126.9414  127.0440   68.2326 H   0  0  0  0  0  0  0  0  0  0  0  0
  126.6650  128.5000   62.8680 H   0  0  0  0  0  0  0  0  0  0  0  0
  126.3763  130.5377   61.5110 H   0  0  0  0  0  0  0  0  0  0  0  0
  125.0971  130.8213   62.7782 H   0  0  0  0  0  0  0  0  0  0  0  0
  128.4103  132.2558   62.1505 H   0  0  0  0  0  0  0  0  0  0  0  0
  127.5048  132.5602   60.6237 H   0  0  0  0  0  0  0  0  0  0  0  0
  128.1778  134.5353   62.8606 H   0  0  0  0  0  0  0  0  0  0  0  0
  128.6194  134.5988   61.0929 H   0  0  0  0  0  0  0  0  0  0  0  0
  127.7155  137.0422   61.3821 H   0  0  0  0  0  0  0  0  0  0  0  0
  125.6985  138.4370   60.9743 H   0  0  0  0  0  0  0  0  0  0  0  0
  123.4442  137.3704   60.8864 H   0  0  0  0  0  0  0  0  0  0  0  0
  123.2230  134.9123   61.1945 H   0  0  0  0  0  0  0  0  0  0  0  0
  124.2737  132.8350   62.1307 H   0  0  0  0  0  0  0  0  0  0  0  0
  125.2382  132.6395   60.5960 H   0  0  0  0  0  0  0  0  0  0  0  0
  130.5262  125.2750   66.7007 H   0  0  0  0  0  0  0  0  0  0  0  0
  129.9751  124.5299   65.1619 H   0  0  0  0  0  0  0  0  0  0  0  0
  131.3661  125.6665   65.1619 H   0  0  0  0  0  0  0  0  0  0  0  0
  131.1394  127.9158   67.6997 H   0  0  0  0  0  0  0  0  0  0  0  0
  131.4562  127.9122   70.1682 H   0  0  0  0  0  0  0  0  0  0  0  0
  129.1320  126.1336   74.6060 H   0  0  0  0  0  0  0  0  0  0  0  0
  130.3591  124.5324   76.0662 H   0  0  0  0  0  0  0  0  0  0  0  0
  1  2  1  0
  2  3  2  0
  3  4  1  0
  4  5  2  0
  5  6  1  0
  6  7  2  0
  6  8  1  0
  8  9  1  0
  9 10  1  0
 10 11  1  0
 11 12  2  0
 12 13  1  0
 13 14  1  0
 14 15  1  0
 15 16  2  0
 16 17  1  0
 17 18  1  0
 18 19  2  0
 18 20  1  0
 20 21  1  0
 21 22  1  0
 22 23  1  0
 23 24  1  0
 24 25  2  0
 25 26  1  0
 26 27  2  0
 27 28  1  0
 28 29  2  0
 29 30  1  0
 16 31  1  0
 31 32  1  0
 32 33  1  0
 13 34  2  0
 34 35  1  0
 35 36  2  0
  5 37  1  0
 37 38  2  0
 38  2  1  0
 36  8  1  0
 36 11  1  0
 32 14  2  0
 30 21  1  0
 29 24  1  0
  1 39  1  0
  1 40  1  0
  1 41  1  0
  3 42  1  0
  4 43  1  0
  9 44  1  0
  9 45  1  0
 10 46  1  0
 10 47  1  0
 12 48  1  0
 17 49  1  0
 20 50  1  0
 20 51  1  0
 22 52  1  0
 22 53  1  0
 23 54  1  0
 23 55  1  0
 25 56  1  0
 26 57  1  0
 27 58  1  0
 28 59  1  0
 30 60  1  0
 30 61  1  0
 33 62  1  0
 33 63  1  0
 33 64  1  0
 34 65  1  0
 35 66  1  0
 37 67  1  0
 38 68  1  0
M  END
>  <Binding energies>  (1) 
[-10.29]

>  <Ligand effiencies>  (1) 
[-0.26384615384615384]

>  <Interactions>  (1) 
["V-B:HIS:456:CG:9037, H-A:LYS:547:NZ:4951, V-B:GLU:543:C:9874, V-A:GLU:543:CD:4908, V-A:GLU:543:C:4902, V-A:HIS:456:CE1:4070, V-B:GLY:544:C:9884, V-A:GLU:543:CB:4906, V-B:HIS:456:CE1:9041, V-A:GLY:544:C:4912, V-B:HIS:456:CD2:9039, V-B:GLU:543:CB:9878, V-A:HIS:456:CG:4066, V-B:GLY:544:CA:9886, V-A:HIS:456:CD2:4068, V-A:HIS:456:CB:4065, V-B:GLU:543:CG:9879, V-B:GLU:543:CD:9880, V-A:GLU:543:CG:4907, H-B:GLU:543:OE1:9881, V-A:TYR:539:CD1:4873, V-B:LEU:475:CD2:9230, V-A:ALA:541:CB:4892, V-B:ILE:369:CG2:8208, H-B:GLU:543:OE2:9882, V-A:TYR:539:CE1:4875, H-B:TYR:484:OH:9319, V-B:SER:385:CA:8378, V-B:HIS:383:CD2:8363, V-B:SER:385:CB:8380"]

$$$$
RR20_Rahimova_2017-again1
     RDKit          3D

 68 73  0  0  0  0  0  0  0  0999 V2000
  127.1120  128.5110   74.9930 C   0  0  0  0  0  0  0  0  0  0  0  0
  127.8670  128.3480   73.6860 C   0  0  0  0  0  0  0  0  0  0  0  0
  129.0420  129.0670   73.4660 C   0  0  0  0  0  0  0  0  0  0  0  0
  129.7390  128.9120   72.2710 C   0  0  0  0  0  0  0  0  0  0  0  0
  129.2600  128.0460   71.2810 C   0  0  0  0  0  0  0  0  0  0  0  0
  130.0400  127.8770   69.9960 C   0  0  0  0  0  0  0  0  0  0  0  0
  131.2650  127.7630   70.0800 O   0  0  0  0  0  0  0  0  0  0  0  0
  129.3670  127.8310   68.8090 N   0  0  0  0  0  0  0  0  0  0  0  0
  128.6240  128.9960   68.3010 C   0  0  0  0  0  0  0  0  0  0  0  0
  128.1420  128.6240   66.9090 C   0  0  0  0  0  0  0  0  0  0  0  0
  128.9680  127.4150   66.5840 C   0  0  0  0  0  0  0  0  0  0  0  0
  129.0210  126.6810   65.3980 C   0  0  0  0  0  0  0  0  0  0  0  0
  129.7330  125.4730   65.3370 C   0  0  0  0  0  0  0  0  0  0  0  0
  129.7850  124.6790   64.0630 C   0  0  0  0  0  0  0  0  0  0  0  0
  128.8150  124.8500   63.1790 N   0  0  0  0  0  0  0  0  0  0  0  0
  128.9360  124.1110   62.1030 C   0  0  0  0  0  0  0  0  0  0  0  0
  128.0950  124.0130   61.0260 N   0  0  0  0  0  0  0  0  0  0  0  0
  126.9390  123.4390   61.0390 C   0  0  0  0  0  0  0  0  0  0  0  0
  126.2810  122.9280   61.9650 O   0  0  0  0  0  0  0  0  0  0  0  0
  126.2490  123.3910   59.6600 C   0  0  0  0  0  0  0  0  0  0  0  0
  125.5510  124.7510   59.3680 N   0  0  2  0  0  0  0  0  0  0  0  0
  124.8560  124.7760   57.9910 C   0  0  0  0  0  0  0  0  0  0  0  0
  125.9060  124.6740   56.8700 C   0  0  0  0  0  0  0  0  0  0  0  0
  127.0660  125.6500   57.0410 C   0  0  0  0  0  0  0  0  0  0  0  0
  127.8640  125.9820   55.9400 C   0  0  0  0  0  0  0  0  0  0  0  0
  128.9590  126.8310   56.0690 C   0  0  0  0  0  0  0  0  0  0  0  0
  129.2710  127.3670   57.3120 C   0  0  0  0  0  0  0  0  0  0  0  0
  128.4790  127.0580   58.4150 C   0  0  0  0  0  0  0  0  0  0  0  0
  127.3700  126.2120   58.3040 C   0  0  0  0  0  0  0  0  0  0  0  0
  126.5080  125.9550   59.5470 C   0  0  0  0  0  0  0  0  0  0  0  0
  130.3210  123.0860   62.1340 S   0  0  0  0  0  0  0  0  0  0  0  0
  130.7730  123.7470   63.6860 C   0  0  0  0  0  0  0  0  0  0  0  0
  132.0510  123.3050   64.3680 C   0  0  0  0  0  0  0  0  0  0  0  0
  130.3480  125.0010   66.5040 C   0  0  0  0  0  0  0  0  0  0  0  0
  130.2810  125.7240   67.6960 C   0  0  0  0  0  0  0  0  0  0  0  0
  129.6340  126.9660   67.7240 C   0  0  0  0  0  0  0  0  0  0  0  0
  128.0970  127.3040   71.5220 C   0  0  0  0  0  0  0  0  0  0  0  0
  127.4000  127.4590   72.7170 C   0  0  0  0  0  0  0  0  0  0  0  0
  127.8024  128.3620   75.8363 H   0  0  0  0  0  0  0  0  0  0  0  0
  126.6828  129.5225   75.0448 H   0  0  0  0  0  0  0  0  0  0  0  0
  126.3038  127.7667   75.0448 H   0  0  0  0  0  0  0  0  0  0  0  0
  129.4177  129.7563   74.2366 H   0  0  0  0  0  0  0  0  0  0  0  0
  130.6705  129.4727   72.1039 H   0  0  0  0  0  0  0  0  0  0  0  0
  127.7667  129.2149   68.9545 H   0  0  0  0  0  0  0  0  0  0  0  0
  129.2589  129.8939   68.2763 H   0  0  0  0  0  0  0  0  0  0  0  0
  127.0690  128.3816   66.9127 H   0  0  0  0  0  0  0  0  0  0  0  0
  128.2539  129.4377   66.1773 H   0  0  0  0  0  0  0  0  0  0  0  0
  128.5001  127.0526   64.5032 H   0  0  0  0  0  0  0  0  0  0  0  0
  127.0016  123.1932   58.8825 H   0  0  0  0  0  0  0  0  0  0  0  0
  125.4948  122.5902   59.6606 H   0  0  0  0  0  0  0  0  0  0  0  0
  124.8190  124.8420   60.0600 H   0  0  0  0  0  0  0  0  0  0  0  0
  124.1613  123.9262   57.9180 H   0  0  0  0  0  0  0  0  0  0  0  0
  124.3025  125.7204   57.8827 H   0  0  0  0  0  0  0  0  0  0  0  0
  126.3090  123.6505   56.8608 H   0  0  0  0  0  0  0  0  0  0  0  0
  125.4016  124.9286   55.9262 H   0  0  0  0  0  0  0  0  0  0  0  0
  127.6205  125.5632   54.9524 H   0  0  0  0  0  0  0  0  0  0  0  0
  129.5745  127.0765   55.1910 H   0  0  0  0  0  0  0  0  0  0  0  0
  130.1396  128.0324   57.4245 H   0  0  0  0  0  0  0  0  0  0  0  0
  128.7309  127.4886   59.3954 H   0  0  0  0  0  0  0  0  0  0  0  0
  127.1717  125.7538   60.4008 H   0  0  0  0  0  0  0  0  0  0  0  0
  125.8907  126.8497   59.7157 H   0  0  0  0  0  0  0  0  0  0  0  0
  131.9190  123.3506   65.4591 H   0  0  0  0  0  0  0  0  0  0  0  0
  132.2875  122.2729   64.0701 H   0  0  0  0  0  0  0  0  0  0  0  0
  132.8747  123.9705   64.0701 H   0  0  0  0  0  0  0  0  0  0  0  0
  130.8923  124.0454   66.4804 H   0  0  0  0  0  0  0  0  0  0  0  0
  130.7356  125.3190   68.6121 H   0  0  0  0  0  0  0  0  0  0  0  0
  127.7326  126.5955   70.7636 H   0  0  0  0  0  0  0  0  0  0  0  0
  126.4816  126.8810   72.8974 H   0  0  0  0  0  0  0  0  0  0  0  0
  1  2  1  0
  2  3  2  0
  3  4  1  0
  4  5  2  0
  5  6  1  0
  6  7  2  0
  6  8  1  0
  8  9  1  0
  9 10  1  0
 10 11  1  0
 11 12  2  0
 12 13  1  0
 13 14  1  0
 14 15  1  0
 15 16  2  0
 16 17  1  0
 17 18  2  0
 18 19  1  0
 18 20  1  0
 20 21  1  0
 21 22  1  0
 22 23  1  0
 23 24  1  0
 24 25  2  0
 25 26  1  0
 26 27  2  0
 27 28  1  0
 28 29  2  0
 29 30  1  0
 16 31  1  0
 31 32  1  0
 32 33  1  0
 13 34  2  0
 34 35  1  0
 35 36  2  0
  5 37  1  0
 37 38  2  0
 38  2  1  0
 36  8  1  0
 36 11  1  0
 32 14  2  0
 30 21  1  0
 29 24  1  0
  1 39  1  0
  1 40  1  0
  1 41  1  0
  3 42  1  0
  4 43  1  0
  9 44  1  0
  9 45  1  0
 10 46  1  0
 10 47  1  0
 12 48  1  0
 20 49  1  0
 20 50  1  0
 21 51  1  1
 22 52  1  0
 22 53  1  0
 23 54  1  0
 23 55  1  0
 25 56  1  0
 26 57  1  0
 27 58  1  0
 28 59  1  0
 30 60  1  0
 30 61  1  0
 33 62  1  0
 33 63  1  0
 33 64  1  0
 34 65  1  0
 35 66  1  0
 37 67  1  0
 38 68  1  0
M  CHG  2  19  -1  21   1
M  END
>  <Binding energies>  (1) 
[-9.21]

>  <Ligand effiencies>  (1) 
[-0.2361538461538462]

>  <Interactions>  (1) 
["V-B:HIS:456:CG:9037, V-A:GLU:543:CD:4908, V-A:GLU:543:C:4902, V-B:LYS:547:CE:9922, V-A:HIS:456:CE1:4070, V-B:GLY:544:C:9884, V-A:GLU:543:CB:4906, V-B:HIS:456:CE1:9041, V-B:HIS:456:CD2:9039, V-B:GLU:543:CB:9878, V-B:LEU:363:CD1:8160, V-A:LEU:475:CD2:4259, V-B:MET:535:CE:9807, V-B:ASP:366:CB:8183, V-B:PRO:540:CB:9857, H-B:ALA:541:N:9863, V-B:ASP:366:CG:8184, V-B:TYR:531:CE2:9765, V-B:PRO:540:CA:9855, V-B:GLU:543:CG:9879, V-B:GLU:543:CD:9880, V-A:GLU:543:CG:4907, V-A:TYR:484:CE2:4346, V-A:GLU:543:CA:4904, V-A:TYR:484:CZ:4347, V-B:PRO:540:N:9856, H-B:ASP:366:OD1:8185, H-A:ARG:545:N:4920, H-A:HIS:456:ND1:4067"]

$$$$
RR21_Rahimova_2017
     RDKit          3D

 62 67  0  0  0  0  0  0  0  0999 V2000
  129.2750  122.9670   61.7920 C   0  0  0  0  0  0  0  0  0  0  0  0
  130.2820  123.8270   62.3190 O   0  0  0  0  0  0  0  0  0  0  0  0
  129.9660  124.6790   63.3600 C   0  0  0  0  0  0  0  0  0  0  0  0
  129.4650  125.9810   63.1910 C   0  0  0  0  0  0  0  0  0  0  0  0
  129.1680  126.7770   64.2960 C   0  0  0  0  0  0  0  0  0  0  0  0
  129.3600  126.2940   65.5960 C   0  0  0  0  0  0  0  0  0  0  0  0
  129.0350  127.1490   66.7820 C   0  0  0  0  0  0  0  0  0  0  0  0
  129.1400  126.6500   67.9990 N   0  0  0  0  0  0  0  0  0  0  0  0
  128.7930  127.6290   68.8480 N   0  0  0  0  0  0  0  0  0  0  0  0
  128.8140  127.4330   70.2530 C   0  0  0  0  0  0  0  0  0  0  0  0
  129.9770  127.6900   70.9950 C   0  0  0  0  0  0  0  0  0  0  0  0
  129.9850  127.4990   72.3750 C   0  0  0  0  0  0  0  0  0  0  0  0
  128.8330  127.0500   73.0160 C   0  0  0  0  0  0  0  0  0  0  0  0
  127.6730  126.7890   72.2900 C   0  0  0  0  0  0  0  0  0  0  0  0
  127.6630  126.9790   70.9110 C   0  0  0  0  0  0  0  0  0  0  0  0
  128.4790  128.7700   68.1530 C   0  0  0  0  0  0  0  0  0  0  0  0
  128.6100  128.4970   66.7990 C   0  0  0  0  0  0  0  0  0  0  0  0
  128.4290  129.4060   65.6780 C   0  0  0  0  0  0  0  0  0  0  0  0
  127.2750  129.7750   65.0760 C   0  0  0  0  0  0  0  0  0  0  0  0
  125.6230  129.2500   65.4690 S   0  0  0  0  0  0  0  0  0  0  0  0
  125.0050  130.2880   64.1930 C   0  0  0  0  0  0  0  0  0  0  0  0
  123.7680  130.4750   63.8480 N   0  0  0  0  0  0  0  0  0  0  0  0
  123.3990  131.3600   62.7970 C   0  0  0  0  0  0  0  0  0  0  0  0
  122.2530  131.6070   62.4250 O   0  0  0  0  0  0  0  0  0  0  0  0
  124.5690  132.0290   62.1280 C   0  0  0  0  0  0  0  0  0  0  0  0
  124.2950  132.9910   60.9650 C   0  0  0  0  0  0  0  0  0  0  0  0
  125.0400  134.3210   61.0590 C   0  0  0  0  0  0  0  0  0  0  0  0
  124.3400  135.5250   60.9390 C   0  0  0  0  0  0  0  0  0  0  0  0
  125.0180  136.7370   61.0430 C   0  0  0  0  0  0  0  0  0  0  0  0
  126.3950  136.7490   61.2690 C   0  0  0  0  0  0  0  0  0  0  0  0
  127.1270  138.0730   61.3920 C   0  0  0  0  0  0  0  0  0  0  0  0
  127.0950  135.5470   61.4000 C   0  0  0  0  0  0  0  0  0  0  0  0
  126.4180  134.3350   61.2960 C   0  0  0  0  0  0  0  0  0  0  0  0
  125.7970  131.8280   62.4780 N   0  0  0  0  0  0  0  0  0  0  0  0
  126.0170  130.9390   63.5380 N   0  0  0  0  0  0  0  0  0  0  0  0
  127.2850  130.7080   63.9580 C   0  0  0  0  0  0  0  0  0  0  0  0
  128.2960  131.2210   63.4630 O   0  0  0  0  0  0  0  0  0  0  0  0
  129.8640  125.0000   65.7650 C   0  0  0  0  0  0  0  0  0  0  0  0
  130.1620  124.2020   64.6600 C   0  0  0  0  0  0  0  0  0  0  0  0
  130.6480  122.9550   64.8580 F   0  0  0  0  0  0  0  0  0  0  0  0
  128.7243  122.4967   62.6200 H   0  0  0  0  0  0  0  0  0  0  0  0
  128.5785  123.5532   61.1746 H   0  0  0  0  0  0  0  0  0  0  0  0
  129.7450  122.1873   61.1746 H   0  0  0  0  0  0  0  0  0  0  0  0
  129.3057  126.3758   62.1767 H   0  0  0  0  0  0  0  0  0  0  0  0
  128.7789  127.7948   64.1452 H   0  0  0  0  0  0  0  0  0  0  0  0
  130.8854  128.0435   70.4853 H   0  0  0  0  0  0  0  0  0  0  0  0
  130.8970  127.7019   72.9556 H   0  0  0  0  0  0  0  0  0  0  0  0
  128.8391  126.9000   74.1057 H   0  0  0  0  0  0  0  0  0  0  0  0
  126.7680  126.4340   72.8047 H   0  0  0  0  0  0  0  0  0  0  0  0
  126.7485  126.7721   70.3358 H   0  0  0  0  0  0  0  0  0  0  0  0
  128.1766  129.7321   68.5923 H   0  0  0  0  0  0  0  0  0  0  0  0
  129.3477  129.8501   65.2673 H   0  0  0  0  0  0  0  0  0  0  0  0
  124.5935  132.4945   60.0299 H   0  0  0  0  0  0  0  0  0  0  0  0
  123.2216  133.2287   60.9998 H   0  0  0  0  0  0  0  0  0  0  0  0
  123.2543  135.5151   60.7625 H   0  0  0  0  0  0  0  0  0  0  0  0
  124.4681  137.6848   60.9470 H   0  0  0  0  0  0  0  0  0  0  0  0
  127.2632  138.3193   62.4554 H   0  0  0  0  0  0  0  0  0  0  0  0
  128.1102  137.9950   60.9049 H   0  0  0  0  0  0  0  0  0  0  0  0
  126.5381  138.8642   60.9049 H   0  0  0  0  0  0  0  0  0  0  0  0
  128.1793  135.5583   61.5850 H   0  0  0  0  0  0  0  0  0  0  0  0
  126.9674  133.3878   61.4003 H   0  0  0  0  0  0  0  0  0  0  0  0
  130.0270  124.6076   66.7796 H   0  0  0  0  0  0  0  0  0  0  0  0
  1  2  1  0
  2  3  1  0
  3  4  2  0
  4  5  1  0
  5  6  2  0
  6  7  1  0
  7  8  2  0
  8  9  1  0
  9 10  1  0
 10 11  2  0
 11 12  1  0
 12 13  2  0
 13 14  1  0
 14 15  2  0
  9 16  1  0
 16 17  2  0
 17 18  1  0
 18 19  2  0
 19 20  1  0
 20 21  1  0
 21 22  2  0
 22 23  1  0
 23 24  2  0
 23 25  1  0
 25 26  1  0
 26 27  1  0
 27 28  2  0
 28 29  1  0
 29 30  2  0
 30 31  1  0
 30 32  1  0
 32 33  2  0
 25 34  2  0
 34 35  1  0
 35 36  1  0
 36 37  2  0
  6 38  1  0
 38 39  2  0
 39 40  1  0
 39  3  1  0
 17  7  1  0
 36 19  1  0
 15 10  1  0
 35 21  1  0
 33 27  1  0
  1 41  1  0
  1 42  1  0
  1 43  1  0
  4 44  1  0
  5 45  1  0
 11 46  1  0
 12 47  1  0
 13 48  1  0
 14 49  1  0
 15 50  1  0
 16 51  1  0
 18 52  1  0
 26 53  1  0
 26 54  1  0
 28 55  1  0
 29 56  1  0
 31 57  1  0
 31 58  1  0
 31 59  1  0
 32 60  1  0
 33 61  1  0
 38 62  1  0
M  END
>  <Binding energies>  (1) 
[-10.04]

>  <Ligand effiencies>  (1) 
[-0.251]

>  <Interactions>  (1) 
["V-B:GLU:543:C:9874, V-A:GLU:543:CD:4908, V-B:LYS:547:CE:9922, V-A:HIS:456:CE1:4070, V-B:GLY:544:C:9884, V-A:GLU:543:CB:4906, V-B:HIS:456:CE1:9041, V-B:HIS:456:CD2:9039, V-B:GLU:543:CB:9878, V-A:LEU:475:CD2:4259, V-B:GLY:544:CA:9886, V-A:HIS:456:CD2:4068, V-B:GLU:543:CG:9879, V-B:GLU:543:CD:9880, V-A:GLU:543:CG:4907, V-A:TYR:484:CE2:4346, V-A:TYR:484:CZ:4347, V-A:TYR:539:CD1:4873, V-B:GLY:454:CA:9020, V-B:LEU:475:CD2:9230, V-B:ILE:369:CG2:8208, V-A:TYR:539:CE1:4875, V-A:TYR:539:C:4867, H-B:GLY:454:N:9021, V-B:ARG:545:CZ:9898, V-B:HIS:383:CE1:8364, V-B:SER:385:CB:8380, V-A:TYR:539:CB:4871, V-B:GLY:453:C:9013"]

$$$$
RR22_Rahimova_2017
     RDKit          3D

 49 54  0  0  0  0  0  0  0  0999 V2000
  123.3900  130.7580   55.3830 O   0  0  0  0  0  0  0  0  0  0  0  0
  124.2290  130.8090   56.2790 C   0  0  0  0  0  0  0  0  0  0  0  0
  124.0200  130.6730   57.6410 N   0  0  0  0  0  0  0  0  0  0  0  0
  125.1230  130.6970   58.5520 C   0  0  1  0  0  0  0  0  0  0  0  0
  124.8150  131.7360   59.4860 O   0  0  0  0  0  0  0  0  0  0  0  0
  124.7060  131.4030   60.8370 C   0  0  0  0  0  0  0  0  0  0  0  0
  124.0560  132.3270   61.6550 C   0  0  0  0  0  0  0  0  0  0  0  0
  123.9450  132.0820   63.0240 C   0  0  0  0  0  0  0  0  0  0  0  0
  124.4900  130.9210   63.5730 C   0  0  0  0  0  0  0  0  0  0  0  0
  125.1410  129.9970   62.7540 C   0  0  0  0  0  0  0  0  0  0  0  0
  125.2390  130.2170   61.3760 C   0  0  0  0  0  0  0  0  0  0  0  0
  125.9600  129.3010   60.4120 C   0  0  1  0  0  0  0  0  0  0  0  0
  126.0280  127.8010   60.6120 C   0  0  0  0  0  0  0  0  0  0  0  0
  126.1050  127.3460   59.1510 C   0  0  0  0  0  0  0  0  0  0  0  0
  126.5730  126.0030   58.7570 C   0  0  0  0  0  0  0  0  0  0  0  0
  126.3820  124.9030   59.6060 C   0  0  0  0  0  0  0  0  0  0  0  0
  126.8250  123.6380   59.2290 C   0  0  0  0  0  0  0  0  0  0  0  0
  127.4600  123.4650   58.0030 C   0  0  0  0  0  0  0  0  0  0  0  0
  127.6570  124.5460   57.1480 C   0  0  0  0  0  0  0  0  0  0  0  0
  127.2140  125.8110   57.5230 C   0  0  0  0  0  0  0  0  0  0  0  0
  125.6930  128.2640   58.3600 N   0  0  0  0  0  0  0  0  0  0  0  0
  125.3000  129.3620   59.1430 N   0  0  0  0  0  0  0  0  0  0  0  0
  126.3360  131.1570   57.7570 C   0  0  0  0  0  0  0  0  0  0  0  0
  127.4650  131.6240   58.3390 C   0  0  0  0  0  0  0  0  0  0  0  0
  128.7120  132.0800   57.6940 C   0  0  0  0  0  0  0  0  0  0  0  0
  129.9880  131.7390   58.1630 C   0  0  0  0  0  0  0  0  0  0  0  0
  131.1230  132.2080   57.5000 C   0  0  0  0  0  0  0  0  0  0  0  0
  130.9510  133.0190   56.3790 C   0  0  0  0  0  0  0  0  0  0  0  0
  129.7300  133.3730   55.9080 N   0  0  0  0  0  0  0  0  0  0  0  0
  128.6370  132.9050   56.5650 C   0  0  0  0  0  0  0  0  0  0  0  0
  126.0080  131.0860   56.0190 S   0  0  0  0  0  0  0  0  0  0  0  0
  123.0870  130.5990   58.0150 H   0  0  0  0  0  0  0  0  0  0  0  0
  123.6325  133.2454   61.2224 H   0  0  0  0  0  0  0  0  0  0  0  0
  123.4272  132.8051   63.6713 H   0  0  0  0  0  0  0  0  0  0  0  0
  124.4065  130.7334   64.6537 H   0  0  0  0  0  0  0  0  0  0  0  0
  125.5799  129.0899   63.1951 H   0  0  0  0  0  0  0  0  0  0  0  0
  126.9796  129.6917   60.5457 H   0  0  0  0  0  0  0  0  0  0  0  0
  126.9218  127.5043   61.1805 H   0  0  0  0  0  0  0  0  0  0  0  0
  125.1969  127.3707   61.1900 H   0  0  0  0  0  0  0  0  0  0  0  0
  125.8795  125.0404   60.5748 H   0  0  0  0  0  0  0  0  0  0  0  0
  126.6735  122.7782   59.8981 H   0  0  0  0  0  0  0  0  0  0  0  0
  127.8095  122.4650   57.7066 H   0  0  0  0  0  0  0  0  0  0  0  0
  128.1604  124.4010   56.1807 H   0  0  0  0  0  0  0  0  0  0  0  0
  127.3672  126.6659   56.8480 H   0  0  0  0  0  0  0  0  0  0  0  0
  127.4517  131.6698   59.4380 H   0  0  0  0  0  0  0  0  0  0  0  0
  130.0948  131.1019   59.0534 H   0  0  0  0  0  0  0  0  0  0  0  0
  132.1305  131.9438   57.8538 H   0  0  0  0  0  0  0  0  0  0  0  0
  131.8446  133.3876   55.8540 H   0  0  0  0  0  0  0  0  0  0  0  0
  127.6422  133.1886   56.1910 H   0  0  0  0  0  0  0  0  0  0  0  0
  1  2  2  0
  2  3  1  0
  3  4  1  0
  4  5  1  1
  5  6  1  0
  6  7  2  0
  7  8  1  0
  8  9  2  0
  9 10  1  0
 10 11  2  0
 11 12  1  0
 12 13  1  0
 13 14  1  0
 14 15  1  0
 15 16  2  0
 16 17  1  0
 17 18  2  0
 18 19  1  0
 19 20  2  0
 14 21  2  0
 21 22  1  0
  4 23  1  0
 23 24  2  0
 24 25  1  0
 25 26  2  0
 26 27  1  0
 27 28  2  0
 28 29  1  0
 29 30  2  0
 23 31  1  0
 31  2  1  0
 22  4  1  0
 30 25  1  0
 11  6  1  0
 22 12  1  0
 20 15  1  0
  3 32  1  0
  7 33  1  0
  8 34  1  0
  9 35  1  0
 10 36  1  0
 12 37  1  6
 13 38  1  0
 13 39  1  0
 16 40  1  0
 17 41  1  0
 18 42  1  0
 19 43  1  0
 20 44  1  0
 24 45  1  0
 26 46  1  0
 27 47  1  0
 28 48  1  0
 30 49  1  0
M  END
>  <Binding energies>  (1) 
[-9.48]

>  <Ligand effiencies>  (1) 
[-0.29625]

>  <Interactions>  (1) 
["V-B:ASP:366:CB:8183, V-B:PRO:540:CB:9857, V-B:ASP:366:CG:8184, V-B:PRO:540:CA:9855, V-A:TYR:539:CD1:4873, V-B:GLY:454:CA:9020, V-A:ILE:538:CG2:4863, V-A:ILE:538:CB:4862, V-B:ILE:369:CG2:8208, V-A:PRO:540:CB:4885, V-A:TYR:539:CE1:4875, H-A:TYR:539:N:4870, V-A:PRO:540:N:4884, V-A:MET:535:CE:4835, H-B:TYR:531:OH:9767, V-B:ASP:366:CA:8181, V-B:TYR:531:CZ:9766, V-A:PRO:540:CD:4887, V-A:ILE:538:CA:4860, V-A:TYR:539:CZ:4877, V-A:TYR:539:CG:4872, V-B:ASP:366:C:8179, V-A:ILE:538:C:4858, H-B:ASP:366:O:8180, H-A:TYR:539:OH:4878, H-B:ASN:370:N:8215, V-A:TYR:539:CD2:4874, V-B:TYR:531:CE1:9764"]

$$$$
RR23_Rahimova_2017
     RDKit          3D

 65 70  0  0  0  0  0  0  0  0999 V2000
  124.3090  124.0000   61.7160 C   0  0  0  0  0  0  0  0  0  0  0  0
  125.0880  123.7900   60.4300 C   0  0  0  0  0  0  0  0  0  0  0  0
  124.4670  123.9910   59.1970 C   0  0  0  0  0  0  0  0  0  0  0  0
  125.1850  123.8060   58.0180 C   0  0  0  0  0  0  0  0  0  0  0  0
  126.5260  123.4090   58.0630 C   0  0  0  0  0  0  0  0  0  0  0  0
  127.2940  123.2340   56.7730 C   0  0  0  0  0  0  0  0  0  0  0  0
  127.1510  122.1720   56.1620 O   0  0  0  0  0  0  0  0  0  0  0  0
  128.0950  124.2470   56.3270 N   0  0  0  0  0  0  0  0  0  0  0  0
  128.6240  124.2640   54.9530 C   0  0  0  0  0  0  0  0  0  0  0  0
  129.3350  125.5960   54.7850 C   0  0  0  0  0  0  0  0  0  0  0  0
  128.8340  126.3920   55.9510 C   0  0  0  0  0  0  0  0  0  0  0  0
  129.0750  127.7280   56.2720 C   0  0  0  0  0  0  0  0  0  0  0  0
  128.6440  128.2510   57.5010 C   0  0  0  0  0  0  0  0  0  0  0  0
  128.8880  129.7160   57.8930 C   0  0  2  0  0  0  0  0  0  0  0  0
  128.6230  129.9570   59.2960 N   0  0  0  0  0  0  0  0  0  0  0  0
  128.1870  131.1350   59.5000 C   0  0  0  0  0  0  0  0  0  0  0  0
  127.8100  131.6970   60.6800 N   0  0  0  0  0  0  0  0  0  0  0  0
  127.6770  131.1030   61.8900 C   0  0  0  0  0  0  0  0  0  0  0  0
  127.9210  129.9210   62.1400 O   0  0  0  0  0  0  0  0  0  0  0  0
  127.1700  132.0130   63.0220 C   0  0  0  0  0  0  0  0  0  0  0  0
  126.6930  133.2880   62.4420 N   0  0  0  0  0  0  0  0  0  0  0  0
  127.6790  134.2320   62.1850 N   0  0  0  0  0  0  0  0  0  0  0  0
  127.3930  135.3890   61.6780 N   0  0  0  0  0  0  0  0  0  0  0  0
  126.0660  135.7060   61.3780 C   0  0  0  0  0  0  0  0  0  0  0  0
  125.7900  136.9630   60.8350 C   0  0  0  0  0  0  0  0  0  0  0  0
  124.4740  137.3090   60.5250 C   0  0  0  0  0  0  0  0  0  0  0  0
  123.4360  136.4040   60.7570 C   0  0  0  0  0  0  0  0  0  0  0  0
  123.7090  135.1480   61.3010 C   0  0  0  0  0  0  0  0  0  0  0  0
  125.0300  134.8000   61.6100 C   0  0  0  0  0  0  0  0  0  0  0  0
  125.3460  133.4460   62.2020 C   0  0  0  0  0  0  0  0  0  0  0  0
  124.4920  132.5900   62.4520 O   0  0  0  0  0  0  0  0  0  0  0  0
  128.0240  132.1980   58.0720 S   0  0  0  0  0  0  0  0  0  0  0  0
  128.1400  130.7450   57.0130 C   0  0  2  0  0  0  0  0  0  0  0  0
  126.7240  130.3530   56.5410 C   0  0  0  0  0  0  0  0  0  0  0  0
  128.0130  127.3990   58.4140 C   0  0  0  0  0  0  0  0  0  0  0  0
  127.7910  126.0570   58.1020 C   0  0  0  0  0  0  0  0  0  0  0  0
  128.1520  125.5620   56.8420 C   0  0  0  0  0  0  0  0  0  0  0  0
  127.1510  123.2360   59.3060 C   0  0  0  0  0  0  0  0  0  0  0  0
  126.4330  123.4210   60.4840 C   0  0  0  0  0  0  0  0  0  0  0  0
  124.9691  123.8221   62.5778 H   0  0  0  0  0  0  0  0  0  0  0  0
  123.9305  125.0322   61.7510 H   0  0  0  0  0  0  0  0  0  0  0  0
  123.4630  123.2979   61.7510 H   0  0  0  0  0  0  0  0  0  0  0  0
  123.4108  124.2955   59.1560 H   0  0  0  0  0  0  0  0  0  0  0  0
  124.6957  123.9727   57.0471 H   0  0  0  0  0  0  0  0  0  0  0  0
  129.3310  123.4340   54.8070 H   0  0  0  0  0  0  0  0  0  0  0  0
  127.8184  124.1453   54.2135 H   0  0  0  0  0  0  0  0  0  0  0  0
  130.4268  125.4704   54.8314 H   0  0  0  0  0  0  0  0  0  0  0  0
  129.1369  126.0749   53.8147 H   0  0  0  0  0  0  0  0  0  0  0  0
  129.6057  128.3750   55.5580 H   0  0  0  0  0  0  0  0  0  0  0  0
  129.9601  129.8746   57.7049 H   0  0  0  0  0  0  0  0  0  0  0  0
  127.5530  132.6720   60.6430 H   0  0  0  0  0  0  0  0  0  0  0  0
  126.3429  131.5168   63.5509 H   0  0  0  0  0  0  0  0  0  0  0  0
  127.9867  132.2115   63.7316 H   0  0  0  0  0  0  0  0  0  0  0  0
  126.6065  137.6772   60.6525 H   0  0  0  0  0  0  0  0  0  0  0  0
  124.2536  138.2978   60.0965 H   0  0  0  0  0  0  0  0  0  0  0  0
  122.4006  136.6818   60.5104 H   0  0  0  0  0  0  0  0  0  0  0  0
  122.8915  134.4356   61.4860 H   0  0  0  0  0  0  0  0  0  0  0  0
  128.6924  130.8700   56.0700 H   0  0  0  0  0  0  0  0  0  0  0  0
  126.0819  130.1752   57.4162 H   0  0  0  0  0  0  0  0  0  0  0  0
  126.3008  131.1678   55.9352 H   0  0  0  0  0  0  0  0  0  0  0  0
  126.7800  129.4366   55.9352 H   0  0  0  0  0  0  0  0  0  0  0  0
  127.6882  127.7915   59.3889 H   0  0  0  0  0  0  0  0  0  0  0  0
  127.3327  125.3880   58.8452 H   0  0  0  0  0  0  0  0  0  0  0  0
  128.2130  122.9529   59.3505 H   0  0  0  0  0  0  0  0  0  0  0  0
  126.9253  123.2765   61.4570 H   0  0  0  0  0  0  0  0  0  0  0  0
  1  2  1  0
  2  3  2  0
  3  4  1  0
  4  5  2  0
  5  6  1  0
  6  7  2  0
  6  8  1  0
  8  9  1  0
  9 10  1  0
 10 11  1  0
 11 12  2  0
 12 13  1  0
 13 14  1  0
 14 15  1  0
 15 16  2  0
 16 17  1  0
 17 18  1  0
 18 19  2  0
 18 20  1  0
 20 21  1  0
 21 22  1  0
 22 23  2  0
 23 24  1  0
 24 25  2  0
 25 26  1  0
 26 27  2  0
 27 28  1  0
 28 29  2  0
 29 30  1  0
 30 31  2  0
 16 32  1  0
 32 33  1  0
 33 34  1  0
 13 35  2  0
 35 36  1  0
 36 37  2  0
  5 38  1  0
 38 39  2  0
 39  2  1  0
 37  8  1  0
 37 11  1  0
 33 14  1  0
 30 21  1  0
 29 24  1  0
  1 40  1  0
  1 41  1  0
  1 42  1  0
  3 43  1  0
  4 44  1  0
  9 45  1  0
  9 46  1  0
 10 47  1  0
 10 48  1  0
 12 49  1  0
 14 50  1  1
 17 51  1  0
 20 52  1  0
 20 53  1  0
 25 54  1  0
 26 55  1  0
 27 56  1  0
 28 57  1  0
 33 58  1  6
 34 59  1  0
 34 60  1  0
 34 61  1  0
 35 62  1  0
 36 63  1  0
 38 64  1  0
 39 65  1  0
M  END
>  <Binding energies>  (1) 
[-10.02]

>  <Ligand effiencies>  (1) 
[-0.2505]

>  <Interactions>  (1) 
["V-B:LEU:363:CA:8156, V-B:LEU:363:CD1:8160, V-B:ASN:362:C:8143, V-B:PRO:540:CB:9857, V-B:TYR:539:CZ:9849, V-B:TYR:539:CE1:9847, H-B:TYR:539:N:9842, V-B:PRO:540:CA:9855, V-B:ASN:362:CB:8147, V-A:TYR:539:CD1:4873, V-B:LEU:475:CD2:9230, V-B:ILE:369:CG2:8208, V-B:PRO:540:N:9856, V-A:TYR:539:CE1:4875, V-A:MET:535:CE:4835, V-A:TYR:539:CG:4872, V-B:SER:385:CA:8378, V-B:HIS:383:CD2:8363, V-B:SER:385:CB:8380, V-A:TYR:539:CB:4871, V-B:LEU:373:CD1:8251, V-B:MET:535:CG:9805"]

$$$$
RR24_Rahimova_2017
     RDKit          3D

 65 71  0  0  0  0  0  0  0  0999 V2000
  126.3180  131.1220   63.6220 C   0  0  0  0  0  0  0  0  0  0  0  0
  124.9210  131.7540   63.5580 C   0  0  2  0  0  0  0  0  0  0  0  0
  123.8270  130.7750   63.0390 C   0  0  0  0  0  0  0  0  0  0  0  0
  123.3400  129.8950   63.7560 O   0  0  0  0  0  0  0  0  0  0  0  0
  123.5110  130.9920   61.7280 O   0  0  0  0  0  0  0  0  0  0  0  0
  124.3380  130.5080   60.7400 C   0  0  0  0  0  0  0  0  0  0  0  0
  124.2000  130.9880   59.4360 C   0  0  0  0  0  0  0  0  0  0  0  0
  125.0370  130.5130   58.4310 C   0  0  0  0  0  0  0  0  0  0  0  0
  126.0200  129.5650   58.7250 C   0  0  0  0  0  0  0  0  0  0  0  0
  126.9270  129.0310   57.6090 C   0  0  1  0  0  0  0  0  0  0  0  0
  128.1280  129.9690   57.3430 C   0  0  0  0  0  0  0  0  0  0  0  0
  129.3990  129.5310   57.3040 C   0  0  0  0  0  0  0  0  0  0  0  0
  129.7250  128.2110   57.5010 N   0  0  0  0  0  0  0  0  0  0  0  0
  128.7590  127.2660   57.7510 C   0  0  0  0  0  0  0  0  0  0  0  0
  129.2450  126.0090   57.9140 N   0  0  0  0  0  0  0  0  0  0  0  0
  128.4470  124.9570   58.2460 C   0  0  0  0  0  0  0  0  0  0  0  0
  128.9600  123.9280   58.6890 O   0  0  0  0  0  0  0  0  0  0  0  0
  127.0910  125.2390   58.1970 N   0  0  0  0  0  0  0  0  0  0  0  0
  126.1770  124.1080   58.4610 C   0  0  0  0  0  0  0  0  0  0  0  0
  126.4900  126.4770   58.0420 C   0  0  0  0  0  0  0  0  0  0  0  0
  125.2690  126.6620   58.0610 O   0  0  0  0  0  0  0  0  0  0  0  0
  127.4370  127.5750   57.8240 C   0  0  0  0  0  0  0  0  0  0  0  0
  130.3160  130.6260   57.0360 C   0  0  0  0  0  0  0  0  0  0  0  0
  131.7040  130.6950   56.9060 C   0  0  0  0  0  0  0  0  0  0  0  0
  132.3040  131.9290   56.6420 C   0  0  0  0  0  0  0  0  0  0  0  0
  131.5190  133.0790   56.5090 C   0  0  0  0  0  0  0  0  0  0  0  0
  130.1300  133.0030   56.6410 C   0  0  0  0  0  0  0  0  0  0  0  0
  129.5370  131.7680   56.9060 C   0  0  0  0  0  0  0  0  0  0  0  0
  128.1150  131.4050   57.0870 C   0  0  0  0  0  0  0  0  0  0  0  0
  127.1110  132.1140   57.0430 O   0  0  0  0  0  0  0  0  0  0  0  0
  126.1690  129.1000   60.0360 C   0  0  0  0  0  0  0  0  0  0  0  0
  125.3330  129.5760   61.0430 C   0  0  0  0  0  0  0  0  0  0  0  0
  124.9240  133.0480   62.8150 N   0  0  0  0  0  0  0  0  0  0  0  0
  123.7640  133.6790   62.4750 C   0  0  0  0  0  0  0  0  0  0  0  0
  122.6130  133.3020   62.7040 O   0  0  0  0  0  0  0  0  0  0  0  0
  124.1790  134.9170   61.7700 C   0  0  0  0  0  0  0  0  0  0  0  0
  123.4220  135.9410   61.2000 C   0  0  0  0  0  0  0  0  0  0  0  0
  124.0910  137.0090   60.5910 C   0  0  0  0  0  0  0  0  0  0  0  0
  125.4910  137.0400   60.5620 C   0  0  0  0  0  0  0  0  0  0  0  0
  126.2330  136.0040   61.1400 C   0  0  0  0  0  0  0  0  0  0  0  0
  125.5470  134.9470   61.7400 C   0  0  0  0  0  0  0  0  0  0  0  0
  126.0450  133.7290   62.4260 C   0  0  0  0  0  0  0  0  0  0  0  0
  127.2190  133.4040   62.6100 O   0  0  0  0  0  0  0  0  0  0  0  0
  126.6124  130.9888   64.6735 H   0  0  0  0  0  0  0  0  0  0  0  0
  126.3013  130.1438   63.1192 H   0  0  0  0  0  0  0  0  0  0  0  0
  127.0417  131.7804   63.1192 H   0  0  0  0  0  0  0  0  0  0  0  0
  124.6447  131.9823   64.5980 H   0  0  0  0  0  0  0  0  0  0  0  0
  123.4314  131.7399   59.2038 H   0  0  0  0  0  0  0  0  0  0  0  0
  124.9243  130.8851   57.4020 H   0  0  0  0  0  0  0  0  0  0  0  0
  126.2734  129.0059   56.7246 H   0  0  0  0  0  0  0  0  0  0  0  0
  130.6940  127.9250   57.4600 H   0  0  0  0  0  0  0  0  0  0  0  0
  130.2310  125.8190   57.8180 H   0  0  0  0  0  0  0  0  0  0  0  0
  126.0667  123.9715   59.5469 H   0  0  0  0  0  0  0  0  0  0  0  0
  125.1935  124.3199   58.0163 H   0  0  0  0  0  0  0  0  0  0  0  0
  126.5906  123.1908   58.0163 H   0  0  0  0  0  0  0  0  0  0  0  0
  132.3184  129.7885   57.0102 H   0  0  0  0  0  0  0  0  0  0  0  0
  133.3970  131.9963   56.5384 H   0  0  0  0  0  0  0  0  0  0  0  0
  131.9971  134.0473   56.2996 H   0  0  0  0  0  0  0  0  0  0  0  0
  129.5111  133.9064   56.5372 H   0  0  0  0  0  0  0  0  0  0  0  0
  126.9465  128.3584   60.2715 H   0  0  0  0  0  0  0  0  0  0  0  0
  125.4562  129.2183   62.0759 H   0  0  0  0  0  0  0  0  0  0  0  0
  122.3228  135.9097   61.2286 H   0  0  0  0  0  0  0  0  0  0  0  0
  123.5152  137.8270   60.1335 H   0  0  0  0  0  0  0  0  0  0  0  0
  126.0098  137.8831   60.0824 H   0  0  0  0  0  0  0  0  0  0  0  0
  127.3327  136.0223   61.1219 H   0  0  0  0  0  0  0  0  0  0  0  0
  1  2  1  0
  2  3  1  0
  3  4  2  0
  3  5  1  0
  5  6  1  0
  6  7  2  0
  7  8  1  0
  8  9  2  0
  9 10  1  0
 10 11  1  0
 11 12  2  0
 12 13  1  0
 13 14  1  0
 14 15  1  0
 15 16  1  0
 16 17  2  0
 16 18  1  0
 18 19  1  0
 18 20  1  0
 20 21  2  0
 20 22  1  0
 12 23  1  0
 23 24  2  0
 24 25  1  0
 25 26  2  0
 26 27  1  0
 27 28  2  0
 28 29  1  0
 29 30  2  0
  9 31  1  0
 31 32  2  0
  2 33  1  0
 33 34  1  0
 34 35  2  0
 34 36  1  0
 36 37  2  0
 37 38  1  0
 38 39  2  0
 39 40  1  0
 40 41  2  0
 41 42  1  0
 42 43  2  0
 32  6  1  0
 42 33  1  0
 22 10  1  0
 28 23  1  0
 41 36  1  0
 29 11  1  0
 22 14  2  0
  1 44  1  0
  1 45  1  0
  1 46  1  0
  2 47  1  1
  7 48  1  0
  8 49  1  0
 10 50  1  6
 13 51  1  0
 15 52  1  0
 19 53  1  0
 19 54  1  0
 19 55  1  0
 24 56  1  0
 25 57  1  0
 26 58  1  0
 27 59  1  0
 31 60  1  0
 32 61  1  0
 37 62  1  0
 38 63  1  0
 39 64  1  0
 40 65  1  0
M  END
>  <Binding energies>  (1) 
[-10.49]

>  <Ligand effiencies>  (1) 
[-0.2331111111111111]

>  <Interactions>  (1) 
["H-B:TYR:539:OH:9850, V-B:ASP:366:CB:8183, V-B:PRO:540:CB:9857, V-B:ASP:366:CG:8184, V-A:TYR:539:CD1:4873, V-B:GLY:454:CA:9020, V-A:LEU:363:CD1:3189, V-A:TYR:531:CE2:4793, V-A:ILE:538:CG2:4863, V-A:ILE:538:CB:4862, V-A:TYR:531:CZ:4794, V-B:LEU:475:CD2:9230, V-B:ILE:369:CG2:8208, H-B:ARG:545:NH2:9900, V-A:TYR:539:CE1:4875, H-A:TYR:531:OH:4795, V-A:PRO:540:N:4884, V-A:MET:535:CE:4835, H-B:TYR:531:OH:9767, H-B:GLY:454:N:9021, V-B:ASP:366:CA:8181, H-B:ARG:545:NH1:9899, H-B:ARG:545:NE:9896, V-A:PRO:540:CD:4887, V-A:ILE:538:CA:4860, V-A:TYR:539:CG:4872, V-B:SER:385:CA:8378, V-B:HIS:383:CD2:8363, V-B:SER:385:CB:8380, V-A:ILE:538:C:4858, V-A:TYR:539:CB:4871, V-B:LEU:373:CD1:8251, H-A:TYR:539:OH:4878, V-B:SER:385:C:8376"]

$$$$
RR24_Rahimova_2017-again1
     RDKit          3D

 63 69  0  0  0  0  0  0  0  0999 V2000
  128.4660  129.1780   67.4070 C   0  0  0  0  0  0  0  0  0  0  0  0
  128.0900  127.6910   67.3800 C   0  0  2  0  0  0  0  0  0  0  0  0
  128.0850  127.0300   68.7890 C   0  0  0  0  0  0  0  0  0  0  0  0
  127.0850  126.4610   69.2430 O   0  0  0  0  0  0  0  0  0  0  0  0
  129.2750  127.1770   69.4440 O   0  0  0  0  0  0  0  0  0  0  0  0
  129.2790  127.5220   70.7760 C   0  0  0  0  0  0  0  0  0  0  0  0
  130.3990  128.1560   71.3190 C   0  0  0  0  0  0  0  0  0  0  0  0
  130.4040  128.5260   72.6600 C   0  0  0  0  0  0  0  0  0  0  0  0
  129.2880  128.2730   73.4650 C   0  0  0  0  0  0  0  0  0  0  0  0
  129.2890  128.6790   74.9450 C   0  0  1  0  0  0  0  0  0  0  0  0
  127.9280  129.2820   75.3640 C   0  0  0  0  0  0  0  0  0  0  0  0
  127.2700  130.3970   74.9770 C   0  0  0  0  0  0  0  0  0  0  0  0
  127.7180  131.2630   74.1330 O   0  0  0  0  0  0  0  0  0  0  0  0
  125.9640  130.4690   75.6310 C   0  0  0  0  0  0  0  0  0  0  0  0
  124.9200  131.4000   75.5580 C   0  0  0  0  0  0  0  0  0  0  0  0
  123.7620  131.1980   76.3100 C   0  0  0  0  0  0  0  0  0  0  0  0
  123.6470  130.0740   77.1300 C   0  0  0  0  0  0  0  0  0  0  0  0
  124.6910  129.1490   77.2010 C   0  0  0  0  0  0  0  0  0  0  0  0
  125.8480  129.3520   76.4450 C   0  0  0  0  0  0  0  0  0  0  0  0
  127.0810  128.5930   76.3240 C   0  0  0  0  0  0  0  0  0  0  0  0
  127.4480  127.5200   76.9170 N   0  0  0  0  0  0  0  0  0  0  0  0
  128.7040  127.0130   76.7660 C   0  0  0  0  0  0  0  0  0  0  0  0
  128.9610  125.9620   77.5990 N   0  0  0  0  0  0  0  0  0  0  0  0
  130.1070  125.3810   77.5450 C   0  0  0  0  0  0  0  0  0  0  0  0
  130.2260  124.4360   78.3430 O   0  0  0  0  0  0  0  0  0  0  0  0
  131.1110  125.7910   76.6690 N   0  0  0  0  0  0  0  0  0  0  0  0
  132.4400  125.1410   76.5830 C   0  0  0  0  0  0  0  0  0  0  0  0
  130.9470  126.8550   75.8040 C   0  0  0  0  0  0  0  0  0  0  0  0
  131.8180  127.2650   75.0300 O   0  0  0  0  0  0  0  0  0  0  0  0
  129.6280  127.4910   75.8750 C   0  0  0  0  0  0  0  0  0  0  0  0
  128.1640  127.6490   72.9140 C   0  0  0  0  0  0  0  0  0  0  0  0
  128.1570  127.2800   71.5720 C   0  0  0  0  0  0  0  0  0  0  0  0
  128.9100  126.9240   66.3970 N   0  0  0  0  0  0  0  0  0  0  0  0
  128.9570  127.2730   65.0800 C   0  0  0  0  0  0  0  0  0  0  0  0
  128.3680  128.2070   64.5320 O   0  0  0  0  0  0  0  0  0  0  0  0
  129.8670  126.2880   64.4430 C   0  0  0  0  0  0  0  0  0  0  0  0
  130.2820  126.1520   63.1170 C   0  0  0  0  0  0  0  0  0  0  0  0
  131.1600  125.1120   62.7950 C   0  0  0  0  0  0  0  0  0  0  0  0
  131.6090  124.2320   63.7880 C   0  0  0  0  0  0  0  0  0  0  0  0
  131.1820  124.3860   65.1110 C   0  0  0  0  0  0  0  0  0  0  0  0
  130.3040  125.4280   65.4130 C   0  0  0  0  0  0  0  0  0  0  0  0
  129.6880  125.8400   66.6990 C   0  0  0  0  0  0  0  0  0  0  0  0
  129.8470  125.3180   67.8030 O   0  0  0  0  0  0  0  0  0  0  0  0
  128.5514  129.5157   68.4504 H   0  0  0  0  0  0  0  0  0  0  0  0
  129.4288  129.3221   66.8950 H   0  0  0  0  0  0  0  0  0  0  0  0
  127.6874  129.7624   66.8950 H   0  0  0  0  0  0  0  0  0  0  0  0
  127.0473  127.6506   67.0319 H   0  0  0  0  0  0  0  0  0  0  0  0
  131.2756  128.3623   70.6873 H   0  0  0  0  0  0  0  0  0  0  0  0
  131.2886  129.0193   73.0890 H   0  0  0  0  0  0  0  0  0  0  0  0
  130.0739  129.4419   75.0542 H   0  0  0  0  0  0  0  0  0  0  0  0
  125.0124  132.2852   74.9116 H   0  0  0  0  0  0  0  0  0  0  0  0
  122.9386  131.9254   76.2566 H   0  0  0  0  0  0  0  0  0  0  0  0
  122.7327  129.9167   77.7211 H   0  0  0  0  0  0  0  0  0  0  0  0
  124.6026  128.2647   77.8492 H   0  0  0  0  0  0  0  0  0  0  0  0
  132.8229  124.9537   77.5971 H   0  0  0  0  0  0  0  0  0  0  0  0
  132.3472  124.1866   76.0440 H   0  0  0  0  0  0  0  0  0  0  0  0
  133.1364  125.8002   76.0440 H   0  0  0  0  0  0  0  0  0  0  0  0
  127.2837  127.4495   73.5426 H   0  0  0  0  0  0  0  0  0  0  0  0
  127.2683  126.7980   71.1385 H   0  0  0  0  0  0  0  0  0  0  0  0
  129.9263  126.8475   62.3425 H   0  0  0  0  0  0  0  0  0  0  0  0
  131.4997  124.9845   61.7566 H   0  0  0  0  0  0  0  0  0  0  0  0
  132.2998  123.4169   63.5264 H   0  0  0  0  0  0  0  0  0  0  0  0
  131.5309  123.7002   65.8970 H   0  0  0  0  0  0  0  0  0  0  0  0
  1  2  1  0
  2  3  1  0
  3  4  2  0
  3  5  1  0
  5  6  1  0
  6  7  2  0
  7  8  1  0
  8  9  2  0
  9 10  1  0
 10 11  1  0
 11 12  2  0
 12 13  1  0
 12 14  1  0
 14 15  2  0
 15 16  1  0
 16 17  2  0
 17 18  1  0
 18 19  2  0
 19 20  1  0
 20 21  2  0
 21 22  1  0
 22 23  1  0
 23 24  2  0
 24 25  1  0
 24 26  1  0
 26 27  1  0
 26 28  1  0
 28 29  2  0
 28 30  1  0
  9 31  1  0
 31 32  2  0
  2 33  1  0
 33 34  1  0
 34 35  2  0
 34 36  1  0
 36 37  2  0
 37 38  1  0
 38 39  2  0
 39 40  1  0
 40 41  2  0
 41 42  1  0
 42 43  2  0
 32  6  1  0
 42 33  1  0
 30 10  1  0
 41 36  1  0
 20 11  1  0
 30 22  2  0
 19 14  1  0
  1 44  1  0
  1 45  1  0
  1 46  1  0
  2 47  1  6
  7 48  1  0
  8 49  1  0
 10 50  1  6
 15 51  1  0
 16 52  1  0
 17 53  1  0
 18 54  1  0
 27 55  1  0
 27 56  1  0
 27 57  1  0
 31 58  1  0
 32 59  1  0
 37 60  1  0
 38 61  1  0
 39 62  1  0
 40 63  1  0
M  CHG  2  13  -1  25  -1
M  END
>  <Binding energies>  (1) 
[-9.24]

>  <Ligand effiencies>  (1) 
[-0.21488372093023256]

>  <Interactions>  (1) 
["V-B:HIS:456:CG:9037, V-B:LYS:471:CE:9191, H-A:LYS:547:NZ:4951, V-B:GLU:543:C:9874, V-B:VAL:458:CG2:9058, V-A:GLU:543:CD:4908, V-A:GLU:543:C:4902, V-B:HIS:456:CB:9036, V-A:HIS:456:CE1:4070, V-A:GLU:543:CB:4906, V-B:HIS:456:CE1:9041, H-B:GLY:544:N:9887, V-A:GLY:544:C:4912, V-B:HIS:456:CD2:9039, V-B:GLU:543:CB:9878, V-B:LYS:471:CD:9190, V-B:ASP:473:CB:9210, V-B:ASP:473:CG:9211, V-B:HIS:456:C:9032, H-B:LYS:547:NZ:9923, V-B:GLU:543:CG:9879, V-B:GLU:543:CD:9880, V-A:GLU:543:CG:4907, V-A:TYR:484:CE2:4346, V-A:GLU:543:CA:4904, V-A:TYR:484:CZ:4347, V-B:VAL:457:C:9044, V-B:LYS:471:CG:9189, V-B:VAL:457:CA:9046, V-B:LYS:471:CB:9188"]

$$$$
RR25_Rahimova_2017
     RDKit          3D

 63 68  0  0  0  0  0  0  0  0999 V2000
  126.8840  123.5000   61.3020 O   0  0  0  0  0  0  0  0  0  0  0  0
  127.8440  124.0570   61.8380 C   0  0  0  0  0  0  0  0  0  0  0  0
  128.6030  123.2810   62.6790 O   0  0  0  0  0  0  0  0  0  0  0  0
  129.8340  123.7090   63.1400 C   0  0  0  0  0  0  0  0  0  0  0  0
  130.7490  122.7190   63.4960 C   0  0  0  0  0  0  0  0  0  0  0  0
  132.0060  123.0800   63.9760 C   0  0  0  0  0  0  0  0  0  0  0  0
  132.3650  124.4290   64.1120 C   0  0  0  0  0  0  0  0  0  0  0  0
  133.7070  124.8100   64.6170 N   0  0  0  0  0  0  0  0  0  0  0  0
  134.5730  125.1230   63.8040 O   0  0  0  0  0  0  0  0  0  0  0  0
  133.9040  124.7990   65.8280 O   0  0  0  0  0  0  0  0  0  0  0  0
  131.4240  125.4110   63.7610 C   0  0  0  0  0  0  0  0  0  0  0  0
  130.1560  125.0660   63.2840 C   0  0  0  0  0  0  0  0  0  0  0  0
  129.1090  126.0890   62.8810 C   0  0  0  0  0  0  0  0  0  0  0  0
  128.2780  125.5440   61.6850 C   0  0  2  0  0  0  0  0  0  0  0  0
  127.1300  126.5240   61.3060 C   0  0  0  0  0  0  0  0  0  0  0  0
  126.0530  126.0040   60.9990 O   0  0  0  0  0  0  0  0  0  0  0  0
  127.2600  127.8790   61.4290 N   0  0  0  0  0  0  0  0  0  0  0  0
  128.5730  128.5560   61.4850 C   0  0  0  0  0  0  0  0  0  0  0  0
  128.4840  129.7450   62.4640 C   0  0  0  0  0  0  0  0  0  0  0  0
  127.3910  130.6530   62.1050 N   0  0  0  0  0  0  0  0  0  0  0  0
  127.3870  131.8520   62.9530 C   0  0  0  0  0  0  0  0  0  0  0  0
  128.5520  132.8250   62.6270 C   0  0  0  0  0  0  0  0  0  0  0  0
  129.2150  132.6350   61.3040 N   0  0  0  0  0  0  0  0  0  0  0  0
  130.4980  132.1340   61.3550 C   0  0  0  0  0  0  0  0  0  0  0  0
  131.0880  131.8900   62.4150 O   0  0  0  0  0  0  0  0  0  0  0  0
  131.1330  131.8850   60.0010 C   0  0  0  0  0  0  0  0  0  0  0  0
  132.4280  131.3520   59.9360 C   0  0  0  0  0  0  0  0  0  0  0  0
  133.0380  131.1030   58.7080 C   0  0  0  0  0  0  0  0  0  0  0  0
  132.3780  131.3720   57.5110 C   0  0  0  0  0  0  0  0  0  0  0  0
  131.0690  131.9110   57.5270 C   0  0  0  0  0  0  0  0  0  0  0  0
  130.3410  132.2070   56.3510 C   0  0  0  0  0  0  0  0  0  0  0  0
  129.0530  132.7330   56.4380 C   0  0  0  0  0  0  0  0  0  0  0  0
  128.4620  132.9770   57.6760 C   0  0  0  0  0  0  0  0  0  0  0  0
  129.1450  132.7000   58.8680 C   0  0  0  0  0  0  0  0  0  0  0  0
  130.4560  132.1630   58.7860 C   0  0  0  0  0  0  0  0  0  0  0  0
  128.4650  132.9720   60.1960 C   0  0  0  0  0  0  0  0  0  0  0  0
  127.3250  133.4420   60.2640 O   0  0  0  0  0  0  0  0  0  0  0  0
  126.1130  129.9420   62.1670 C   0  0  0  0  0  0  0  0  0  0  0  0
  126.0790  128.7400   61.1930 C   0  0  0  0  0  0  0  0  0  0  0  0
  130.4794  121.6570   63.3982 H   0  0  0  0  0  0  0  0  0  0  0  0
  132.7268  122.2963   64.2521 H   0  0  0  0  0  0  0  0  0  0  0  0
  131.6903  126.4733   63.8636 H   0  0  0  0  0  0  0  0  0  0  0  0
  128.4404  126.2831   63.7327 H   0  0  0  0  0  0  0  0  0  0  0  0
  129.6077  127.0231   62.5829 H   0  0  0  0  0  0  0  0  0  0  0  0
  128.9502  125.5093   60.8150 H   0  0  0  0  0  0  0  0  0  0  0  0
  129.3386  127.8475   61.8340 H   0  0  0  0  0  0  0  0  0  0  0  0
  128.8468  128.9191   60.4834 H   0  0  0  0  0  0  0  0  0  0  0  0
  128.3104  129.3600   63.4797 H   0  0  0  0  0  0  0  0  0  0  0  0
  129.4294  130.3051   62.4150 H   0  0  0  0  0  0  0  0  0  0  0  0
  126.4347  132.3827   62.8064 H   0  0  0  0  0  0  0  0  0  0  0  0
  127.5143  131.5209   63.9942 H   0  0  0  0  0  0  0  0  0  0  0  0
  128.1531  133.8496   62.6590 H   0  0  0  0  0  0  0  0  0  0  0  0
  129.3282  132.6191   63.3788 H   0  0  0  0  0  0  0  0  0  0  0  0
  132.9698  131.1274   60.8666 H   0  0  0  0  0  0  0  0  0  0  0  0
  134.0563  130.6877   58.6835 H   0  0  0  0  0  0  0  0  0  0  0  0
  132.8749  131.1652   56.5516 H   0  0  0  0  0  0  0  0  0  0  0  0
  130.7924  132.0216   55.3652 H   0  0  0  0  0  0  0  0  0  0  0  0
  128.4957  132.9585   55.5168 H   0  0  0  0  0  0  0  0  0  0  0  0
  127.4446  133.3931   57.7184 H   0  0  0  0  0  0  0  0  0  0  0  0
  125.9589  129.5745   63.1923 H   0  0  0  0  0  0  0  0  0  0  0  0
  125.3164  130.6423   61.8754 H   0  0  0  0  0  0  0  0  0  0  0  0
  125.1612  128.1575   61.3615 H   0  0  0  0  0  0  0  0  0  0  0  0
  126.0951  129.1079   60.1565 H   0  0  0  0  0  0  0  0  0  0  0  0
  1  2  2  0
  2  3  1  0
  3  4  1  0
  4  5  2  0
  5  6  1  0
  6  7  2  0
  7  8  1  0
  8  9  2  0
  8 10  1  0
  7 11  1  0
 11 12  2  0
 12 13  1  0
 13 14  1  0
 14 15  1  0
 15 16  2  0
 15 17  1  0
 17 18  1  0
 18 19  1  0
 19 20  1  0
 20 21  1  0
 21 22  1  0
 22 23  1  0
 23 24  1  0
 24 25  2  0
 24 26  1  0
 26 27  2  0
 27 28  1  0
 28 29  2  0
 29 30  1  0
 30 31  2  0
 31 32  1  0
 32 33  2  0
 33 34  1  0
 34 35  2  0
 34 36  1  0
 36 37  2  0
 20 38  1  0
 38 39  1  0
 14  2  1  0
 39 17  1  0
 12  4  1  0
 36 23  1  0
 35 26  1  0
 35 30  1  0
  5 40  1  0
  6 41  1  0
 11 42  1  0
 13 43  1  0
 13 44  1  0
 14 45  1  6
 18 46  1  0
 18 47  1  0
 19 48  1  0
 19 49  1  0
 21 50  1  0
 21 51  1  0
 22 52  1  0
 22 53  1  0
 27 54  1  0
 28 55  1  0
 29 56  1  0
 31 57  1  0
 32 58  1  0
 33 59  1  0
 38 60  1  0
 38 61  1  0
 39 62  1  0
 39 63  1  0
M  CHG  2   8   1  10  -1
M  END
>  <Binding energies>  (1) 
[-10.36]

>  <Ligand effiencies>  (1) 
[-0.26564102564102565]

>  <Interactions>  (1) 
["V-A:LEU:475:CD2:4259, H-B:ALA:541:N:9863, V-B:ASP:366:CG:8184, V-B:GLU:543:CD:9880, V-A:TYR:539:CD1:4873, V-A:LEU:363:CD1:3189, V-A:ALA:541:CB:4892, V-A:PRO:540:CA:4883, V-A:PRO:540:CB:4885, H-A:ARG:545:NH2:4928, V-A:ASP:366:CB:3212, H-B:ARG:545:NH2:9900, V-A:TYR:539:CE1:4875, V-A:TYR:539:C:4867, V-A:PRO:540:N:4884, V-A:MET:535:CE:4835, V-A:ASP:366:CG:3213, V-A:PRO:540:C:4881, V-A:ARG:545:CZ:4926, H-A:GLY:454:N:4050, H-A:ARG:545:NH1:4927, H-A:ALA:541:N:4891, H-A:ARG:545:NE:4924, H-A:TYR:484:OH:4348, V-A:GLY:453:C:4042, V-A:GLY:454:CA:4049, V-A:TYR:539:CZ:4877, V-A:TYR:539:CG:4872, V-A:GLY:453:CA:4044, V-A:LEU:363:CA:3185"]

$$$$
RR26_Rahimova_2017
     RDKit          3D

 59 65  0  0  0  0  0  0  0  0999 V2000
  124.3620  123.9430   58.4960 C   0  0  0  0  0  0  0  0  0  0  0  0
  125.4850  123.3200   57.6760 C   0  0  0  0  0  0  0  0  0  0  0  0
  125.1530  122.6750   56.4790 C   0  0  0  0  0  0  0  0  0  0  0  0
  126.1430  122.1230   55.6700 C   0  0  0  0  0  0  0  0  0  0  0  0
  127.4790  122.2170   56.0470 C   0  0  0  0  0  0  0  0  0  0  0  0
  127.8230  122.8570   57.2360 C   0  0  0  0  0  0  0  0  0  0  0  0
  126.8390  123.4120   58.0690 C   0  0  0  0  0  0  0  0  0  0  0  0
  127.2940  124.0700   59.3390 C   0  0  0  0  0  0  0  0  0  0  0  0
  127.5600  123.3780   60.4430 N   0  0  0  0  0  0  0  0  0  0  0  0
  127.9230  124.3190   61.2720 C   0  0  0  0  0  0  0  0  0  0  0  0
  128.4350  124.3890   62.9170 S   0  0  0  0  0  0  0  0  0  0  0  0
  128.6000  126.1790   62.7660 C   0  0  0  0  0  0  0  0  0  0  0  0
  128.9880  127.0580   63.7160 C   0  0  0  0  0  0  0  0  0  0  0  0
  129.3740  126.7790   65.0910 C   0  0  0  0  0  0  0  0  0  0  0  0
  128.9060  127.3790   66.2500 C   0  0  0  0  0  0  0  0  0  0  0  0
  129.5170  126.7710   67.3160 N   0  0  0  0  0  0  0  0  0  0  0  0
  129.3480  127.0440   68.6980 C   0  0  0  0  0  0  0  0  0  0  0  0
  128.1490  126.7230   69.3520 C   0  0  0  0  0  0  0  0  0  0  0  0
  127.9950  127.0000   70.7080 C   0  0  0  0  0  0  0  0  0  0  0  0
  129.0380  127.5940   71.4140 C   0  0  0  0  0  0  0  0  0  0  0  0
  130.2350  127.9140   70.7780 C   0  0  0  0  0  0  0  0  0  0  0  0
  130.3910  127.6410   69.4220 C   0  0  0  0  0  0  0  0  0  0  0  0
  130.3320  125.7930   66.8900 N   0  0  0  0  0  0  0  0  0  0  0  0
  130.2610  125.7900   65.5740 C   0  0  0  0  0  0  0  0  0  0  0  0
  131.0710  124.8090   64.7850 C   0  0  0  0  0  0  0  0  0  0  0  0
  130.6930  123.4580   64.7290 C   0  0  0  0  0  0  0  0  0  0  0  0
  131.4440  122.5350   63.9990 C   0  0  0  0  0  0  0  0  0  0  0  0
  132.5840  122.9570   63.3190 C   0  0  0  0  0  0  0  0  0  0  0  0
  132.9620  124.3080   63.3520 C   0  0  0  0  0  0  0  0  0  0  0  0
  132.2140  125.2260   64.0860 C   0  0  0  0  0  0  0  0  0  0  0  0
  134.1080  124.7630   62.7300 O   0  0  0  0  0  0  0  0  0  0  0  0
  134.6130  123.8850   61.7180 C   0  0  0  0  0  0  0  0  0  0  0  0
  134.5990  122.4190   62.2150 C   0  0  0  0  0  0  0  0  0  0  0  0
  133.2700  122.0210   62.5710 O   0  0  0  0  0  0  0  0  0  0  0  0
  128.2430  126.6580   61.4340 C   0  0  0  0  0  0  0  0  0  0  0  0
  128.2390  127.8110   60.9970 O   0  0  0  0  0  0  0  0  0  0  0  0
  127.8810  125.5280   60.6840 N   0  0  0  0  0  0  0  0  0  0  0  0
  127.4770  125.3790   59.4190 N   0  0  0  0  0  0  0  0  0  0  0  0
  124.5798  123.8222   59.5674 H   0  0  0  0  0  0  0  0  0  0  0  0
  124.2834  125.0137   58.2563 H   0  0  0  0  0  0  0  0  0  0  0  0
  123.4120  123.4429   58.2563 H   0  0  0  0  0  0  0  0  0  0  0  0
  124.0986  122.6033   56.1740 H   0  0  0  0  0  0  0  0  0  0  0  0
  125.8692  121.6135   54.7344 H   0  0  0  0  0  0  0  0  0  0  0  0
  128.2631  121.7864   55.4069 H   0  0  0  0  0  0  0  0  0  0  0  0
  128.8816  122.9284   57.5262 H   0  0  0  0  0  0  0  0  0  0  0  0
  129.0155  128.1150   63.4125 H   0  0  0  0  0  0  0  0  0  0  0  0
  128.1738  128.1981   66.3045 H   0  0  0  0  0  0  0  0  0  0  0  0
  127.3282  126.2511   68.7920 H   0  0  0  0  0  0  0  0  0  0  0  0
  127.0535  126.7507   71.2193 H   0  0  0  0  0  0  0  0  0  0  0  0
  128.9152  127.8127   72.4850 H   0  0  0  0  0  0  0  0  0  0  0  0
  131.0540  128.3807   71.3450 H   0  0  0  0  0  0  0  0  0  0  0  0
  131.3347  127.8940   68.9166 H   0  0  0  0  0  0  0  0  0  0  0  0
  129.7940  123.1227   65.2670 H   0  0  0  0  0  0  0  0  0  0  0  0
  131.1369  121.4794   63.9610 H   0  0  0  0  0  0  0  0  0  0  0  0
  132.5207  126.2819   64.1177 H   0  0  0  0  0  0  0  0  0  0  0  0
  133.9839  123.9686   60.8196 H   0  0  0  0  0  0  0  0  0  0  0  0
  135.6490  124.1711   61.4838 H   0  0  0  0  0  0  0  0  0  0  0  0
  134.9711  121.7623   61.4149 H   0  0  0  0  0  0  0  0  0  0  0  0
  135.2434  122.3390   63.1029 H   0  0  0  0  0  0  0  0  0  0  0  0
  1  2  1  0
  2  3  2  0
  3  4  1  0
  4  5  2  0
  5  6  1  0
  6  7  2  0
  7  8  1  0
  8  9  1  0
  9 10  2  0
 10 11  1  0
 11 12  1  0
 12 13  2  0
 13 14  1  0
 14 15  2  0
 15 16  1  0
 16 17  1  0
 17 18  2  0
 18 19  1  0
 19 20  2  0
 20 21  1  0
 21 22  2  0
 16 23  1  0
 23 24  2  0
 24 25  1  0
 25 26  2  0
 26 27  1  0
 27 28  2  0
 28 29  1  0
 29 30  2  0
 29 31  1  0
 31 32  1  0
 32 33  1  0
 33 34  1  0
 12 35  1  0
 35 36  2  0
 35 37  1  0
 37 38  1  0
  7  2  1  0
 38  8  2  0
 37 10  1  0
 24 14  1  0
 30 25  1  0
 22 17  1  0
 34 28  1  0
  1 39  1  0
  1 40  1  0
  1 41  1  0
  3 42  1  0
  4 43  1  0
  5 44  1  0
  6 45  1  0
 13 46  1  0
 15 47  1  0
 18 48  1  0
 19 49  1  0
 20 50  1  0
 21 51  1  0
 22 52  1  0
 26 53  1  0
 27 54  1  0
 30 55  1  0
 32 56  1  0
 32 57  1  0
 33 58  1  0
 33 59  1  0
M  END
>  <Binding energies>  (1) 
[-9.64]

>  <Ligand effiencies>  (1) 
[-0.2536842105263158]

>  <Interactions>  (1) 
["V-B:GLU:543:C:9874, V-A:GLU:543:CD:4908, V-A:GLU:543:C:4902, V-A:HIS:456:CE1:4070, V-A:GLU:543:CB:4906, V-B:HIS:456:CE1:9041, V-B:GLU:543:CB:9878, V-B:TYR:539:CE2:9848, V-B:LEU:363:CA:8156, V-B:LEU:363:CD1:8160, V-A:LEU:475:CD2:4259, V-B:MET:535:CE:9807, V-B:PRO:540:CB:9857, V-B:LEU:363:CB:8158, V-B:TYR:539:CZ:9849, V-B:TYR:539:CD2:9846, V-B:TYR:539:CG:9844, V-B:TYR:539:CE1:9847, V-B:PRO:540:CA:9855, V-B:GLU:543:CG:9879, V-B:GLU:543:CD:9880, V-A:TYR:484:CE2:4346, V-A:TYR:484:CZ:4347, V-A:ILE:369:CD1:3239, H-A:ARG:545:NH2:4928, V-B:PRO:540:N:9856, V-B:TYR:539:CD1:9845, V-B:TYR:539:C:9839, V-B:PRO:540:CD:9859, V-A:ARG:545:CZ:4926, H-A:GLY:454:N:4050, H-A:ARG:545:NH1:4927, V-A:GLY:453:C:4042, V-A:GLY:454:CA:4049, V-B:ILE:538:CA:9832, V-B:TYR:539:CA:9841, V-B:ILE:538:C:9830, V-B:ILE:538:CG2:9835, V-A:SER:385:C:3405, V-B:ILE:538:CB:9834"]

$$$$
RR27_Rahimova_2017
     RDKit          3D

 66 71  0  0  0  0  0  0  0  0999 V2000
  130.9200  128.5920   58.0560 O   0  0  0  0  0  0  0  0  0  0  0  0
  129.9690  128.3960   57.2940 C   0  0  0  0  0  0  0  0  0  0  0  0
  129.1040  129.6170   56.8640 C   0  0  0  0  0  0  0  0  0  0  0  0
  129.8870  130.9430   56.8670 C   0  0  0  0  0  0  0  0  0  0  0  0
  131.0500  131.1180   56.1020 C   0  0  0  0  0  0  0  0  0  0  0  0
  131.7320  132.3320   56.1260 C   0  0  0  0  0  0  0  0  0  0  0  0
  131.2540  133.3750   56.9150 C   0  0  0  0  0  0  0  0  0  0  0  0
  130.1030  133.2150   57.6800 C   0  0  0  0  0  0  0  0  0  0  0  0
  129.4210  132.0020   57.6560 C   0  0  0  0  0  0  0  0  0  0  0  0
  127.7580  129.6550   57.6130 C   0  0  0  0  0  0  0  0  0  0  0  0
  126.6570  130.3650   57.1140 C   0  0  0  0  0  0  0  0  0  0  0  0
  125.4580  130.3880   57.8220 C   0  0  0  0  0  0  0  0  0  0  0  0
  125.3580  129.7080   59.0330 C   0  0  0  0  0  0  0  0  0  0  0  0
  126.4470  129.0090   59.5450 C   0  0  0  0  0  0  0  0  0  0  0  0
  127.6440  128.9860   58.8380 C   0  0  0  0  0  0  0  0  0  0  0  0
  129.7580  127.1810   56.7110 N   0  0  0  0  0  0  0  0  0  0  0  0
  128.5170  126.8240   56.0080 C   0  0  0  0  0  0  0  0  0  0  0  0
  127.5420  126.2720   57.0710 C   0  0  0  0  0  0  0  0  0  0  0  0
  128.1490  125.0870   57.8890 C   0  0  0  0  0  0  0  0  0  0  0  0
  127.2620  124.5740   59.0370 C   0  0  0  0  0  0  0  0  0  0  0  0
  125.9170  124.5530   58.8030 N   0  0  0  0  0  0  0  0  0  0  0  0
  125.0890  124.0820   59.7760 C   0  0  0  0  0  0  0  0  0  0  0  0
  123.7260  124.0070   59.6570 O   0  0  0  0  0  0  0  0  0  0  0  0
  125.6550  123.6380   60.9870 C   0  0  0  0  0  0  0  0  0  0  0  0
  125.1320  123.1170   62.1340 N   0  0  0  0  0  0  0  0  0  0  0  0
  126.1880  122.8710   62.9920 N   0  0  0  0  0  0  0  0  0  0  0  0
  127.3380  123.2260   62.3810 N   0  0  0  0  0  0  0  0  0  0  0  0
  128.6170  123.0950   63.0740 C   0  0  0  0  0  0  0  0  0  0  0  0
  129.7040  122.4380   62.2340 C   0  0  0  0  0  0  0  0  0  0  0  0
  129.5500  121.1220   61.7880 C   0  0  0  0  0  0  0  0  0  0  0  0
  130.5420  120.5240   61.0090 C   0  0  0  0  0  0  0  0  0  0  0  0
  131.6890  121.2400   60.6680 C   0  0  0  0  0  0  0  0  0  0  0  0
  131.8440  122.5570   61.1020 C   0  0  0  0  0  0  0  0  0  0  0  0
  133.2520  123.4540   60.6590 Cl  0  0  0  0  0  0  0  0  0  0  0  0
  130.8570  123.1530   61.8880 C   0  0  0  0  0  0  0  0  0  0  0  0
  127.0580  123.7190   61.1170 C   0  0  0  0  0  0  0  0  0  0  0  0
  127.8910  124.1830   60.1820 N   0  0  0  0  0  0  0  0  0  0  0  0
  129.6200  125.3740   58.3240 C   0  0  0  0  0  0  0  0  0  0  0  0
  130.4800  125.9940   57.1940 C   0  0  0  0  0  0  0  0  0  0  0  0
  128.8401  129.4764   55.8054 H   0  0  0  0  0  0  0  0  0  0  0  0
  131.4251  130.2920   55.4800 H   0  0  0  0  0  0  0  0  0  0  0  0
  132.6434  132.4662   55.5249 H   0  0  0  0  0  0  0  0  0  0  0  0
  131.7915  134.3345   56.9336 H   0  0  0  0  0  0  0  0  0  0  0  0
  129.7334  134.0440   58.3014 H   0  0  0  0  0  0  0  0  0  0  0  0
  128.5107  131.8744   58.2602 H   0  0  0  0  0  0  0  0  0  0  0  0
  126.7405  130.9059   56.1598 H   0  0  0  0  0  0  0  0  0  0  0  0
  124.5935  130.9411   57.4262 H   0  0  0  0  0  0  0  0  0  0  0  0
  124.4096  129.7235   59.5900 H   0  0  0  0  0  0  0  0  0  0  0  0
  126.3612  128.4774   60.5042 H   0  0  0  0  0  0  0  0  0  0  0  0
  128.5075  128.4385   59.2437 H   0  0  0  0  0  0  0  0  0  0  0  0
  128.0863  127.7137   55.5254 H   0  0  0  0  0  0  0  0  0  0  0  0
  128.7095  126.0764   55.2244 H   0  0  0  0  0  0  0  0  0  0  0  0
  127.2836  127.0839   57.7668 H   0  0  0  0  0  0  0  0  0  0  0  0
  126.6555  125.8912   56.5427 H   0  0  0  0  0  0  0  0  0  0  0  0
  128.1801  124.2381   57.1901 H   0  0  0  0  0  0  0  0  0  0  0  0
  123.2960  124.8560   59.7830 H   0  0  0  0  0  0  0  0  0  0  0  0
  128.9603  124.0995   63.3621 H   0  0  0  0  0  0  0  0  0  0  0  0
  128.4459  122.4443   63.9442 H   0  0  0  0  0  0  0  0  0  0  0  0
  128.6444  120.5561   62.0517 H   0  0  0  0  0  0  0  0  0  0  0  0
  130.4188  119.4869   60.6638 H   0  0  0  0  0  0  0  0  0  0  0  0
  132.4716  120.7666   60.0569 H   0  0  0  0  0  0  0  0  0  0  0  0
  130.9853  124.1882   62.2370 H   0  0  0  0  0  0  0  0  0  0  0  0
  129.6035  126.0720   59.1740 H   0  0  0  0  0  0  0  0  0  0  0  0
  130.0764  124.4094   58.5908 H   0  0  0  0  0  0  0  0  0  0  0  0
  131.4664  126.2841   57.5850 H   0  0  0  0  0  0  0  0  0  0  0  0
  130.6406  125.2720   56.3798 H   0  0  0  0  0  0  0  0  0  0  0  0
  1  2  2  0
  2  3  1  0
  3  4  1  0
  4  5  2  0
  5  6  1  0
  6  7  2  0
  7  8  1  0
  8  9  2  0
  3 10  1  0
 10 11  2  0
 11 12  1  0
 12 13  2  0
 13 14  1  0
 14 15  2  0
  2 16  1  0
 16 17  1  0
 17 18  1  0
 18 19  1  0
 19 20  1  0
 20 21  2  0
 21 22  1  0
 22 23  1  0
 22 24  2  0
 24 25  1  0
 25 26  2  0
 26 27  1  0
 27 28  1  0
 28 29  1  0
 29 30  2  0
 30 31  1  0
 31 32  2  0
 32 33  1  0
 33 34  1  0
 33 35  2  0
 27 36  1  0
 36 37  2  0
 19 38  1  0
 38 39  1  0
  9  4  1  0
 15 10  1  0
 39 16  1  0
 37 20  1  0
 36 24  1  0
 35 29  1  0
  3 40  1  0
  5 41  1  0
  6 42  1  0
  7 43  1  0
  8 44  1  0
  9 45  1  0
 11 46  1  0
 12 47  1  0
 13 48  1  0
 14 49  1  0
 15 50  1  0
 17 51  1  0
 17 52  1  0
 18 53  1  0
 18 54  1  0
 19 55  1  0
 23 56  1  0
 28 57  1  0
 28 58  1  0
 30 59  1  0
 31 60  1  0
 32 61  1  0
 35 62  1  0
 38 63  1  0
 38 64  1  0
 39 65  1  0
 39 66  1  0
M  END
>  <Binding energies>  (1) 
[-9.95]

>  <Ligand effiencies>  (1) 
[-0.24874999999999997]

>  <Interactions>  (1) 
["V-B:TYR:539:CE2:9848, V-A:LEU:475:CD2:4259, V-B:ASP:366:CB:8183, V-B:PRO:540:CB:9857, V-A:ILE:369:CG2:3237, H-B:ALA:541:N:9863, V-B:ASP:366:CG:8184, V-B:TYR:539:CZ:9849, V-B:TYR:539:CD2:9846, V-B:PRO:540:CA:9855, V-B:GLU:543:CG:9879, V-B:GLU:543:CD:9880, V-B:ALA:541:CB:9864, V-A:LEU:363:CD1:3189, V-A:TYR:531:CE2:4793, V-A:ILE:538:CG2:4863, V-A:ILE:538:CB:4862, V-A:TYR:531:CZ:4794, V-A:PRO:540:CA:4883, V-A:PRO:540:CB:4885, H-A:TYR:531:OH:4795, V-A:TYR:539:C:4867, V-A:PRO:540:N:4884, V-A:MET:535:CE:4835, H-B:ASP:366:OD1:8185, V-A:PRO:540:CD:4887, V-A:ILE:538:CA:4860, V-A:ILE:538:C:4858, H-B:ASP:366:OD2:8186, V-A:TYR:539:CA:4869, H-B:LEU:363:N:8157, H-B:ASN:362:O:8144"]

$$$$
RR27_Rahimova_2017-again1
     RDKit          3D

 66 71  0  0  0  0  0  0  0  0999 V2000
  129.4490  125.2890   57.0250 O   0  0  0  0  0  0  0  0  0  0  0  0
  129.3180  125.6340   58.2040 C   0  0  0  0  0  0  0  0  0  0  0  0
  127.8810  125.6610   58.8070 C   0  0  0  0  0  0  0  0  0  0  0  0
  126.9240  124.6850   58.0980 C   0  0  0  0  0  0  0  0  0  0  0  0
  125.5880  125.0170   57.8260 C   0  0  0  0  0  0  0  0  0  0  0  0
  124.7540  124.1090   57.1800 C   0  0  0  0  0  0  0  0  0  0  0  0
  125.2490  122.8630   56.8050 C   0  0  0  0  0  0  0  0  0  0  0  0
  126.5720  122.5200   57.0660 C   0  0  0  0  0  0  0  0  0  0  0  0
  127.4060  123.4280   57.7110 C   0  0  0  0  0  0  0  0  0  0  0  0
  127.3300  127.0950   58.9230 C   0  0  0  0  0  0  0  0  0  0  0  0
  127.4270  128.0040   57.8590 C   0  0  0  0  0  0  0  0  0  0  0  0
  126.9400  129.3020   57.9930 C   0  0  0  0  0  0  0  0  0  0  0  0
  126.3510  129.6960   59.1910 C   0  0  0  0  0  0  0  0  0  0  0  0
  126.2490  128.8060   60.2560 C   0  0  0  0  0  0  0  0  0  0  0  0
  126.7430  127.5110   60.1250 C   0  0  0  0  0  0  0  0  0  0  0  0
  130.4030  125.8270   59.0080 N   0  0  0  0  0  0  0  0  0  0  0  0
  130.3410  126.4970   60.3150 C   0  0  0  0  0  0  0  0  0  0  0  0
  130.4490  128.0200   60.0680 C   0  0  0  0  0  0  0  0  0  0  0  0
  131.5390  128.4650   59.0380 C   0  0  0  0  0  0  0  0  0  0  0  0
  131.2330  129.8080   58.3680 C   0  0  0  0  0  0  0  0  0  0  0  0
  130.3290  130.5980   58.8560 N   0  0  0  0  0  0  0  0  0  0  0  0
  130.1360  131.7610   58.1760 C   0  0  0  0  0  0  0  0  0  0  0  0
  130.8060  132.1640   57.0300 C   0  0  0  0  0  0  0  0  0  0  0  0
  130.3640  133.3420   56.6280 N   0  0  0  0  0  0  0  0  0  0  0  0
  129.3770  133.7440   57.5220 N   0  0  0  0  0  0  0  0  0  0  0  0
  129.2680  132.7840   58.4560 N   0  0  0  0  0  0  0  0  0  0  0  0
  128.2950  132.8950   59.5350 C   0  0  0  0  0  0  0  0  0  0  0  0
  128.8610  132.5290   60.8990 C   0  0  0  0  0  0  0  0  0  0  0  0
  128.0200  132.4740   62.0160 C   0  0  0  0  0  0  0  0  0  0  0  0
  128.5390  132.1480   63.2700 C   0  0  0  0  0  0  0  0  0  0  0  0
  129.8980  131.8730   63.4130 C   0  0  0  0  0  0  0  0  0  0  0  0
  130.7410  131.9210   62.3020 C   0  0  0  0  0  0  0  0  0  0  0  0
  132.4240  131.5850   62.4810 Cl  0  0  0  0  0  0  0  0  0  0  0  0
  130.2240  132.2460   61.0480 C   0  0  0  0  0  0  0  0  0  0  0  0
  131.8370  131.2940   56.4630 C   0  0  0  0  0  0  0  0  0  0  0  0
  132.5320  131.4790   55.4660 O   0  0  0  0  0  0  0  0  0  0  0  0
  131.9520  130.1520   57.2270 N   0  0  0  0  0  0  0  0  0  0  0  0
  131.9920  127.3810   58.0090 C   0  0  0  0  0  0  0  0  0  0  0  0
  131.7480  125.9070   58.4200 C   0  0  0  0  0  0  0  0  0  0  0  0
  127.9574  125.2873   59.8387 H   0  0  0  0  0  0  0  0  0  0  0  0
  125.1974  126.0009   58.1251 H   0  0  0  0  0  0  0  0  0  0  0  0
  123.7081  124.3748   56.9667 H   0  0  0  0  0  0  0  0  0  0  0  0
  124.5888  122.1438   56.2982 H   0  0  0  0  0  0  0  0  0  0  0  0
  126.9570  121.5349   56.7636 H   0  0  0  0  0  0  0  0  0  0  0  0
  128.4516  123.1567   57.9186 H   0  0  0  0  0  0  0  0  0  0  0  0
  127.8908  127.6896   56.9124 H   0  0  0  0  0  0  0  0  0  0  0  0
  127.0204  130.0119   57.1566 H   0  0  0  0  0  0  0  0  0  0  0  0
  125.9628  130.7197   59.2969 H   0  0  0  0  0  0  0  0  0  0  0  0
  125.7795  129.1247   61.1983 H   0  0  0  0  0  0  0  0  0  0  0  0
  126.6720  126.8105   60.9701 H   0  0  0  0  0  0  0  0  0  0  0  0
  129.3868  126.2645   60.8103 H   0  0  0  0  0  0  0  0  0  0  0  0
  131.1599  126.1528   60.9637 H   0  0  0  0  0  0  0  0  0  0  0  0
  129.4737  128.3728   59.7015 H   0  0  0  0  0  0  0  0  0  0  0  0
  130.7495  128.4591   61.0308 H   0  0  0  0  0  0  0  0  0  0  0  0
  132.4227  128.6133   59.6760 H   0  0  0  0  0  0  0  0  0  0  0  0
  127.9348  133.9336   59.5742 H   0  0  0  0  0  0  0  0  0  0  0  0
  127.4859  132.1823   59.3173 H   0  0  0  0  0  0  0  0  0  0  0  0
  126.9468  132.6883   61.9055 H   0  0  0  0  0  0  0  0  0  0  0  0
  127.8750  132.1081   64.1461 H   0  0  0  0  0  0  0  0  0  0  0  0
  130.3062  131.6180   64.4021 H   0  0  0  0  0  0  0  0  0  0  0  0
  130.8896  132.2801   60.1729 H   0  0  0  0  0  0  0  0  0  0  0  0
  132.6440  129.4930   56.9010 H   0  0  0  0  0  0  0  0  0  0  0  0
  131.4496  127.5621   57.0693 H   0  0  0  0  0  0  0  0  0  0  0  0
  133.0837  127.4884   57.9279 H   0  0  0  0  0  0  0  0  0  0  0  0
  131.8103  125.2557   57.5357 H   0  0  0  0  0  0  0  0  0  0  0  0
  132.5070  125.5770   59.1446 H   0  0  0  0  0  0  0  0  0  0  0  0
  1  2  2  0
  2  3  1  0
  3  4  1  0
  4  5  2  0
  5  6  1  0
  6  7  2  0
  7  8  1  0
  8  9  2  0
  3 10  1  0
 10 11  2  0
 11 12  1  0
 12 13  2  0
 13 14  1  0
 14 15  2  0
  2 16  1  0
 16 17  1  0
 17 18  1  0
 18 19  1  0
 19 20  1  0
 20 21  2  0
 21 22  1  0
 22 23  2  0
 23 24  1  0
 24 25  2  0
 25 26  1  0
 26 27  1  0
 27 28  1  0
 28 29  2  0
 29 30  1  0
 30 31  2  0
 31 32  1  0
 32 33  1  0
 32 34  2  0
 23 35  1  0
 35 36  2  0
 35 37  1  0
 19 38  1  0
 38 39  1  0
  9  4  1  0
 15 10  1  0
 39 16  1  0
 37 20  1  0
 26 22  1  0
 34 28  1  0
  3 40  1  0
  5 41  1  0
  6 42  1  0
  7 43  1  0
  8 44  1  0
  9 45  1  0
 11 46  1  0
 12 47  1  0
 13 48  1  0
 14 49  1  0
 15 50  1  0
 17 51  1  0
 17 52  1  0
 18 53  1  0
 18 54  1  0
 19 55  1  0
 27 56  1  0
 27 57  1  0
 29 58  1  0
 30 59  1  0
 31 60  1  0
 34 61  1  0
 37 62  1  0
 38 63  1  0
 38 64  1  0
 39 65  1  0
 39 66  1  0
M  END
>  <Binding energies>  (1) 
[-10.81]

>  <Ligand effiencies>  (1) 
[-0.27025]

>  <Interactions>  (1) 
["V-A:GLU:543:CD:4908, H-B:TYR:539:OH:9850, V-B:LEU:363:CD1:8160, V-B:MET:535:CE:9807, V-B:PRO:540:CB:9857, V-B:ASP:366:CG:8184, V-B:TYR:531:CE2:9765, V-B:PRO:540:CA:9855, V-A:GLU:543:CG:4907, V-A:TYR:539:CD1:4873, V-A:LEU:363:CD1:3189, V-A:TYR:531:CE2:4793, V-A:TYR:531:CZ:4794, V-A:ALA:541:CB:4892, V-A:PRO:540:CA:4883, V-A:PRO:540:CB:4885, V-A:ASP:366:CB:3212, V-B:PRO:540:N:9856, V-A:TYR:539:CE1:4875, H-A:TYR:531:OH:4795, V-A:TYR:539:C:4867, H-A:TYR:539:N:4870, V-B:TYR:539:C:9839, V-A:PRO:540:N:4884, V-B:PRO:540:CD:9859, V-A:ASP:366:CG:3213, V-A:PRO:540:C:4881, V-A:ASN:362:CB:3176"]

$$$$
RR28_Rahimova_2017
     RDKit          3D

 82 85  0  0  0  0  0  0  0  0999 V2000
  123.8500  130.7460   56.0790 C   0  0  0  0  0  0  0  0  0  0  0  0
  124.6660  131.1990   57.2850 C   0  0  0  0  0  0  0  0  0  0  0  0
  124.1240  131.8530   58.1740 O   0  0  0  0  0  0  0  0  0  0  0  0
  125.9660  130.8420   57.2940 N   0  0  0  0  0  0  0  0  0  0  0  0
  126.9910  131.1440   58.3190 C   0  0  0  0  0  0  0  0  0  0  0  0
  126.3720  130.8750   59.7210 C   0  0  0  0  0  0  0  0  0  0  0  0
  126.0560  129.5590   60.0930 C   0  0  0  0  0  0  0  0  0  0  0  0
  125.4970  129.2820   61.3360 C   0  0  0  0  0  0  0  0  0  0  0  0
  125.2390  130.3160   62.2380 C   0  0  0  0  0  0  0  0  0  0  0  0
  124.6200  129.9930   63.5970 C   0  0  0  0  0  0  0  0  0  0  0  0
  123.3350  129.6470   63.5000 F   0  0  0  0  0  0  0  0  0  0  0  0
  125.2750  128.9870   64.1760 F   0  0  0  0  0  0  0  0  0  0  0  0
  124.7030  131.0670   64.3830 F   0  0  0  0  0  0  0  0  0  0  0  0
  125.5470  131.6310   61.8790 C   0  0  0  0  0  0  0  0  0  0  0  0
  126.1070  131.9070   60.6340 C   0  0  0  0  0  0  0  0  0  0  0  0
  127.5360  132.6060   58.1390 C   0  0  0  0  0  0  0  0  0  0  0  0
  128.3170  132.8110   56.8160 C   0  0  0  0  0  0  0  0  0  0  0  0
  129.4320  131.8490   56.8380 N   0  0  0  0  0  0  0  0  0  0  0  0
  130.6540  132.2240   57.3070 C   0  0  0  0  0  0  0  0  0  0  0  0
  130.9220  133.3990   57.5670 O   0  0  0  0  0  0  0  0  0  0  0  0
  131.7890  131.1730   57.3590 C   0  0  0  0  0  0  0  0  0  0  0  0
  132.4190  130.9250   58.7570 C   0  0  0  0  0  0  0  0  0  0  0  0
  131.5000  130.2080   59.7740 C   0  0  0  0  0  0  0  0  0  0  0  0
  131.4990  130.6140   60.9390 O   0  0  0  0  0  0  0  0  0  0  0  0
  130.6260  129.2560   59.3410 N   0  0  0  0  0  0  0  0  0  0  0  0
  130.7900  128.5240   58.0790 C   0  0  0  0  0  0  0  0  0  0  0  0
  131.7220  127.3300   58.3810 C   0  0  0  0  0  0  0  0  0  0  0  0
  131.2230  126.3800   59.5250 C   0  0  0  0  0  0  0  0  0  0  0  0
  132.3510  125.5430   59.9860 N   0  0  0  0  0  0  0  0  0  0  0  0
  133.1890  124.7930   59.2420 C   0  0  0  0  0  0  0  0  0  0  0  0
  134.2560  124.0140   60.0040 C   0  0  0  0  0  0  0  0  0  0  0  0
  133.1340  124.7090   58.0160 O   0  0  0  0  0  0  0  0  0  0  0  0
  130.1500  125.4260   58.9070 C   0  0  0  0  0  0  0  0  0  0  0  0
  129.6660  125.5720   57.5960 C   0  0  0  0  0  0  0  0  0  0  0  0
  128.7090  124.7000   57.0830 C   0  0  0  0  0  0  0  0  0  0  0  0
  128.2090  123.6600   57.8700 C   0  0  0  0  0  0  0  0  0  0  0  0
  127.1620  122.6920   57.3200 C   0  0  0  0  0  0  0  0  0  0  0  0
  126.0970  122.6460   58.1230 F   0  0  0  0  0  0  0  0  0  0  0  0
  126.7700  123.1100   56.1170 F   0  0  0  0  0  0  0  0  0  0  0  0
  127.6380  121.4520   57.1990 F   0  0  0  0  0  0  0  0  0  0  0  0
  128.6730  123.5070   59.1770 C   0  0  0  0  0  0  0  0  0  0  0  0
  129.6290  124.3810   59.6860 C   0  0  0  0  0  0  0  0  0  0  0  0
  130.6660  127.2560   60.7130 C   0  0  0  0  0  0  0  0  0  0  0  0
  129.8240  128.4960   60.3090 C   0  0  0  0  0  0  0  0  0  0  0  0
  128.9930  130.4470   56.8020 C   0  0  0  0  0  0  0  0  0  0  0  0
  128.2070  130.1830   58.1120 C   0  0  0  0  0  0  0  0  0  0  0  0
  122.9367  130.2390   56.4238 H   0  0  0  0  0  0  0  0  0  0  0  0
  123.5764  131.6214   55.4717 H   0  0  0  0  0  0  0  0  0  0  0  0
  124.4483  130.0509   55.4717 H   0  0  0  0  0  0  0  0  0  0  0  0
  126.3050  130.3230   56.4980 H   0  0  0  0  0  0  0  0  0  0  0  0
  126.2533  128.7350   59.3915 H   0  0  0  0  0  0  0  0  0  0  0  0
  125.2571  128.2439   61.6096 H   0  0  0  0  0  0  0  0  0  0  0  0
  125.3462  132.4520   62.5830 H   0  0  0  0  0  0  0  0  0  0  0  0
  126.3444  132.9464   60.3632 H   0  0  0  0  0  0  0  0  0  0  0  0
  126.6831  133.3006   58.1521 H   0  0  0  0  0  0  0  0  0  0  0  0
  128.2380  132.7957   58.9643 H   0  0  0  0  0  0  0  0  0  0  0  0
  127.6627  132.6153   55.9537 H   0  0  0  0  0  0  0  0  0  0  0  0
  128.6835  133.8442   56.7252 H   0  0  0  0  0  0  0  0  0  0  0  0
  131.3804  130.2173   56.9989 H   0  0  0  0  0  0  0  0  0  0  0  0
  132.5990  131.5778   56.7345 H   0  0  0  0  0  0  0  0  0  0  0  0
  133.3206  130.3099   58.6200 H   0  0  0  0  0  0  0  0  0  0  0  0
  132.6264  131.9191   59.1798 H   0  0  0  0  0  0  0  0  0  0  0  0
  129.8149  128.1633   57.7197 H   0  0  0  0  0  0  0  0  0  0  0  0
  131.2138  129.1709   57.2967 H   0  0  0  0  0  0  0  0  0  0  0  0
  131.8243  126.7345   57.4618 H   0  0  0  0  0  0  0  0  0  0  0  0
  132.6735  127.7594   58.7276 H   0  0  0  0  0  0  0  0  0  0  0  0
  132.4720  125.5090   60.9870 H   0  0  0  0  0  0  0  0  0  0  0  0
  134.0940  124.1323   61.0856 H   0  0  0  0  0  0  0  0  0  0  0  0
  134.1922  122.9486   59.7380 H   0  0  0  0  0  0  0  0  0  0  0  0
  135.2514  124.3993   59.7380 H   0  0  0  0  0  0  0  0  0  0  0  0
  130.0489  126.3877   56.9651 H   0  0  0  0  0  0  0  0  0  0  0  0
  128.3452  124.8309   56.0532 H   0  0  0  0  0  0  0  0  0  0  0  0
  128.2823  122.6938   59.8064 H   0  0  0  0  0  0  0  0  0  0  0  0
  129.9833  124.2503   60.7191 H   0  0  0  0  0  0  0  0  0  0  0  0
  130.0338  126.6098   61.3397 H   0  0  0  0  0  0  0  0  0  0  0  0
  131.5525  127.6550   61.2276 H   0  0  0  0  0  0  0  0  0  0  0  0
  128.8770  128.1773   59.8489 H   0  0  0  0  0  0  0  0  0  0  0  0
  129.5793  129.1105   61.1879 H   0  0  0  0  0  0  0  0  0  0  0  0
  128.3430  130.2772   55.9310 H   0  0  0  0  0  0  0  0  0  0  0  0
  129.8547  129.7684   56.7183 H   0  0  0  0  0  0  0  0  0  0  0  0
  127.8328  129.1488   58.0902 H   0  0  0  0  0  0  0  0  0  0  0  0
  128.9024  130.3598   58.9457 H   0  0  0  0  0  0  0  0  0  0  0  0
  1  2  1  0
  2  3  2  0
  2  4  1  0
  4  5  1  0
  5  6  1  0
  6  7  2  0
  7  8  1  0
  8  9  2  0
  9 10  1  0
 10 11  1  0
 10 12  1  0
 10 13  1  0
  9 14  1  0
 14 15  2  0
  5 16  1  0
 16 17  1  0
 17 18  1  0
 18 19  1  0
 19 20  2  0
 19 21  1  0
 21 22  1  0
 22 23  1  0
 23 24  2  0
 23 25  1  0
 25 26  1  0
 26 27  1  0
 27 28  1  0
 28 29  1  0
 29 30  1  0
 30 31  1  0
 30 32  2  0
 28 33  1  0
 33 34  2  0
 34 35  1  0
 35 36  2  0
 36 37  1  0
 37 38  1  0
 37 39  1  0
 37 40  1  0
 36 41  1  0
 41 42  2  0
 28 43  1  0
 43 44  1  0
 18 45  1  0
 45 46  1  0
 46  5  1  0
 15  6  1  0
 44 25  1  0
 42 33  1  0
  1 47  1  0
  1 48  1  0
  1 49  1  0
  4 50  1  0
  7 51  1  0
  8 52  1  0
 14 53  1  0
 15 54  1  0
 16 55  1  0
 16 56  1  0
 17 57  1  0
 17 58  1  0
 21 59  1  0
 21 60  1  0
 22 61  1  0
 22 62  1  0
 26 63  1  0
 26 64  1  0
 27 65  1  0
 27 66  1  0
 29 67  1  0
 31 68  1  0
 31 69  1  0
 31 70  1  0
 34 71  1  0
 35 72  1  0
 41 73  1  0
 42 74  1  0
 43 75  1  0
 43 76  1  0
 44 77  1  0
 44 78  1  0
 45 79  1  0
 45 80  1  0
 46 81  1  0
 46 82  1  0
M  END
>  <Binding energies>  (1) 
[-8.86]

>  <Ligand effiencies>  (1) 
[-0.18458333333333332]

>  <Interactions>  (1) 
["V-B:TYR:539:CE2:9848, H-B:TYR:539:OH:9850, V-B:MET:535:CE:9807, V-B:PRO:540:CB:9857, V-A:ILE:369:CG2:3237, V-B:ASP:366:CG:8184, V-B:TYR:539:CZ:9849, V-B:TYR:539:CD2:9846, V-B:TYR:539:CG:9844, V-B:TYR:539:CE1:9847, V-B:PRO:540:CA:9855, V-B:TYR:484:CZ:9318, V-B:GLU:543:CD:9880, V-A:ILE:369:CD1:3239, V-A:TYR:539:CD1:4873, V-B:GLY:454:CA:9020, V-A:LEU:363:CD1:3189, V-A:PRO:540:CB:4885, H-A:ASP:366:OD2:3215, V-A:ASP:366:CB:3212, V-B:PRO:540:N:9856, V-A:TYR:539:CE1:4875, H-A:TYR:539:N:4870, V-B:TYR:539:CD1:9845, V-B:TYR:539:C:9839, V-B:PRO:540:CD:9859, V-A:MET:535:CE:4835, H-B:TYR:531:OH:9767, V-A:ASP:366:CG:3213, H-A:ASP:366:OD1:3214, V-B:TYR:531:CZ:9766, V-B:ARG:545:CZ:9898, V-A:TYR:539:CZ:4877, V-A:ASP:366:CA:3210, V-B:TYR:539:CA:9841, V-A:TYR:539:CG:4872, V-B:ASP:366:C:8179, V-A:TYR:539:CE2:4876, V-B:TYR:539:CB:9843, V-B:GLY:453:C:9013, V-B:ILE:538:C:9830, H-A:TYR:539:OH:4878, V-A:TYR:539:CD2:4874, V-B:PRO:540:CG:9858, V-B:TYR:531:CE1:9764, V-B:GLY:453:CA:9015, V-A:ILE:369:CB:3236, V-B:ASN:370:CB:8216"]

$$$$
RR29_Rahimova_2017
     RDKit          3D

 35 36  0  0  0  0  0  0  0  0999 V2000
  127.4890  133.2300   63.4510 C   0  0  0  0  0  0  0  0  0  0  0  0
  128.0630  131.8270   63.5850 C   0  0  0  0  0  0  0  0  0  0  0  0
  128.5320  131.2350   62.2380 C   0  0  0  0  0  0  0  0  0  0  0  0
  129.9320  131.7520   61.8450 C   0  0  0  0  0  0  0  0  0  0  0  0
  129.9960  132.1950   60.3910 C   0  0  0  0  0  0  0  0  0  0  0  0
  128.9270  132.9200   59.8280 C   0  0  0  0  0  0  0  0  0  0  0  0
  128.9660  133.3390   58.4910 C   0  0  0  0  0  0  0  0  0  0  0  0
  130.0900  133.0020   57.7450 C   0  0  0  0  0  0  0  0  0  0  0  0
  131.1290  132.2970   58.2840 C   0  0  0  0  0  0  0  0  0  0  0  0
  131.1220  131.8780   59.6100 C   0  0  0  0  0  0  0  0  0  0  0  0
  132.1000  132.1400   57.3470 O   0  0  0  0  0  0  0  0  0  0  0  0
  131.5390  132.5850   56.1410 C   0  0  0  0  0  0  0  0  0  0  0  0
  130.3780  133.3090   56.4520 O   0  0  0  0  0  0  0  0  0  0  0  0
  128.0940  131.2850   64.7470 N   0  0  0  0  0  0  0  0  0  0  0  0
  128.5330  129.9840   64.8580 N   0  0  0  0  0  0  0  0  0  0  0  0
  127.9180  129.0440   65.5940 C   0  0  0  0  0  0  0  0  0  0  0  0
  126.8000  129.2350   66.2950 N   0  0  0  0  0  0  0  0  0  0  0  0
  128.4600  127.8350   65.6280 N   0  0  0  0  0  0  0  0  0  0  0  0
  127.3161  133.6526   64.4518 H   0  0  0  0  0  0  0  0  0  0  0  0
  128.1993  133.8659   62.9022 H   0  0  0  0  0  0  0  0  0  0  0  0
  126.5367  133.1857   62.9022 H   0  0  0  0  0  0  0  0  0  0  0  0
  128.5675  130.1389   62.3232 H   0  0  0  0  0  0  0  0  0  0  0  0
  127.8200  131.5465   61.4596 H   0  0  0  0  0  0  0  0  0  0  0  0
  130.1862  132.6081   62.4873 H   0  0  0  0  0  0  0  0  0  0  0  0
  130.6456  130.9253   61.9769 H   0  0  0  0  0  0  0  0  0  0  0  0
  128.0496  133.1605   60.4463 H   0  0  0  0  0  0  0  0  0  0  0  0
  128.1385  133.9129   58.0485 H   0  0  0  0  0  0  0  0  0  0  0  0
  131.9684  131.3176   60.0337 H   0  0  0  0  0  0  0  0  0  0  0  0
  132.2537  133.2324   55.6117 H   0  0  0  0  0  0  0  0  0  0  0  0
  131.2980  131.7316   55.4902 H   0  0  0  0  0  0  0  0  0  0  0  0
  129.3860  129.7500   64.3710 H   0  0  0  0  0  0  0  0  0  0  0  0
  126.2260  128.4480   66.5610 H   0  0  0  0  0  0  0  0  0  0  0  0
  126.5260  130.1740   66.5490 H   0  0  0  0  0  0  0  0  0  0  0  0
  129.4350  127.7120   65.3990 H   0  0  0  0  0  0  0  0  0  0  0  0
  127.8960  127.0390   65.8890 H   0  0  0  0  0  0  0  0  0  0  0  0
  1  2  1  0
  2  3  1  0
  3  4  1  0
  4  5  1  0
  5  6  2  0
  6  7  1  0
  7  8  2  0
  8  9  1  0
  9 10  2  0
  9 11  1  0
 11 12  1  0
 12 13  1  0
  2 14  2  0
 14 15  1  0
 15 16  1  0
 16 17  1  0
 16 18  2  0
 10  5  1  0
 13  8  1  0
  1 19  1  0
  1 20  1  0
  1 21  1  0
  3 22  1  0
  3 23  1  0
  4 24  1  0
  4 25  1  0
  6 26  1  0
  7 27  1  0
 10 28  1  0
 12 29  1  0
 12 30  1  0
 15 31  1  0
 17 32  1  0
 17 33  1  0
 18 34  1  0
 18 35  1  0
M  CHG  1  18   1
M  END
>  <Binding energies>  (1) 
[-7.36]

>  <Ligand effiencies>  (1) 
[-0.32]

>  <Interactions>  (1) 
["V-A:GLU:543:CD:4908, V-A:GLU:543:CB:4906, V-B:HIS:456:CE1:9041, V-B:TYR:484:CZ:9318, V-B:GLU:543:CG:9879, V-B:GLU:543:CD:9880, V-A:GLU:543:CG:4907, H-B:GLU:543:OE1:9881, V-A:TYR:539:CD1:4873, H-A:GLU:543:OE2:4910, V-A:LEU:363:CD1:3189, V-A:ILE:538:CG2:4863, V-A:ILE:538:CB:4862, H-A:GLU:543:OE1:4909, V-B:LEU:475:CD2:9230, V-A:ALA:541:CB:4892, V-A:PRO:540:CA:4883, V-A:PRO:540:CB:4885, H-B:GLU:543:OE2:9882, V-A:TYR:539:CE1:4875, V-A:TYR:539:C:4867, H-A:TYR:539:N:4870, V-A:PRO:540:N:4884, H-B:TYR:484:OH:9319, V-A:PRO:540:CD:4887, V-A:ILE:538:CA:4860, V-A:TYR:539:CG:4872, V-A:TYR:539:CA:4869"]

$$$$
RR29_Rahimova_2017-again1
     RDKit          3D

 34 35  0  0  0  0  0  0  0  0999 V2000
  128.9320  132.2520   64.7010 C   0  0  0  0  0  0  0  0  0  0  0  0
  129.3560  132.1880   63.2410 C   0  0  0  0  0  0  0  0  0  0  0  0
  128.1830  131.9460   62.2710 C   0  0  0  0  0  0  0  0  0  0  0  0
  127.9300  133.1740   61.3710 C   0  0  0  0  0  0  0  0  0  0  0  0
  128.1900  132.8740   59.9020 C   0  0  0  0  0  0  0  0  0  0  0  0
  127.2460  132.1420   59.1570 C   0  0  0  0  0  0  0  0  0  0  0  0
  127.4640  131.8560   57.8020 C   0  0  0  0  0  0  0  0  0  0  0  0
  128.6460  132.3130   57.2300 C   0  0  0  0  0  0  0  0  0  0  0  0
  129.5670  133.0220   57.9490 C   0  0  0  0  0  0  0  0  0  0  0  0
  129.3720  133.3280   59.2910 C   0  0  0  0  0  0  0  0  0  0  0  0
  130.6010  133.3670   57.1380 O   0  0  0  0  0  0  0  0  0  0  0  0
  130.3960  132.6630   55.9430 C   0  0  0  0  0  0  0  0  0  0  0  0
  129.0740  132.1920   55.9460 O   0  0  0  0  0  0  0  0  0  0  0  0
  130.6000  132.3170   62.9420 N   0  0  0  0  0  0  0  0  0  0  0  0
  130.9220  132.2280   61.6920 N   0  0  0  0  0  0  0  0  0  0  0  0
  131.9260  131.4870   61.3930 C   0  0  0  0  0  0  0  0  0  0  0  0
  132.7540  130.7360   62.2730 N   0  0  0  0  0  0  0  0  0  0  0  0
  132.3450  131.3270   60.0550 N   0  0  0  0  0  0  0  0  0  0  0  0
  129.8137  132.1189   65.3451 H   0  0  0  0  0  0  0  0  0  0  0  0
  128.4719  133.2298   64.9067 H   0  0  0  0  0  0  0  0  0  0  0  0
  128.2038  131.4536   64.9067 H   0  0  0  0  0  0  0  0  0  0  0  0
  128.4178  131.0795   61.6354 H   0  0  0  0  0  0  0  0  0  0  0  0
  127.2762  131.7615   62.8656 H   0  0  0  0  0  0  0  0  0  0  0  0
  126.8826  133.4892   61.4881 H   0  0  0  0  0  0  0  0  0  0  0  0
  128.6245  133.9686   61.6812 H   0  0  0  0  0  0  0  0  0  0  0  0
  126.3250  131.7898   59.6446 H   0  0  0  0  0  0  0  0  0  0  0  0
  126.7269  131.2907   57.2129 H   0  0  0  0  0  0  0  0  0  0  0  0
  130.1179  133.9062   59.8561 H   0  0  0  0  0  0  0  0  0  0  0  0
  130.5538  133.3307   55.0832 H   0  0  0  0  0  0  0  0  0  0  0  0
  131.1033  131.8243   55.8640 H   0  0  0  0  0  0  0  0  0  0  0  0
  132.6100  130.7330   63.2720 H   0  0  0  0  0  0  0  0  0  0  0  0
  133.5300  130.1810   61.9460 H   0  0  0  0  0  0  0  0  0  0  0  0
  131.8790  131.7890   59.2880 H   0  0  0  0  0  0  0  0  0  0  0  0
  133.1340  130.7530   59.7980 H   0  0  0  0  0  0  0  0  0  0  0  0
  1  2  1  0
  2  3  1  0
  3  4  1  0
  4  5  1  0
  5  6  2  0
  6  7  1  0
  7  8  2  0
  8  9  1  0
  9 10  2  0
  9 11  1  0
 11 12  1  0
 12 13  1  0
  2 14  2  0
 14 15  1  0
 15 16  2  0
 16 17  1  0
 16 18  1  0
 10  5  1  0
 13  8  1  0
  1 19  1  0
  1 20  1  0
  1 21  1  0
  3 22  1  0
  3 23  1  0
  4 24  1  0
  4 25  1  0
  6 26  1  0
  7 27  1  0
 10 28  1  0
 12 29  1  0
 12 30  1  0
 17 31  1  0
 17 32  1  0
 18 33  1  0
 18 34  1  0
M  END
>  <Binding energies>  (1) 
[-6.74]

>  <Ligand effiencies>  (1) 
[-0.3063636363636364]

>  <Interactions>  (1) 
["V-A:GLU:543:CD:4908, V-B:TYR:484:CE2:9317, V-A:GLU:543:CG:4907, V-A:TYR:539:CD1:4873, V-A:ILE:538:CG2:4863, V-A:ILE:538:CB:4862, H-A:GLU:543:OE1:4909, V-A:ALA:541:CB:4892, V-A:PRO:540:CA:4883, V-A:PRO:540:CB:4885, H-A:ASP:366:OD2:3215, V-A:TYR:539:CE1:4875, V-A:TYR:539:C:4867, H-A:TYR:539:N:4870, V-A:PRO:540:N:4884, V-A:MET:535:CE:4835, V-A:ASP:366:CG:3213, H-A:ASP:366:OD1:3214, H-A:ALA:541:N:4891, V-A:ILE:538:CA:4860, V-A:TYR:539:CZ:4877, V-A:ASN:362:CB:3176, H-A:ALA:541:O:4889"]

$$$$
RR2_Rahimova_2017
     RDKit          3D

 76 80  0  0  0  0  0  0  0  0999 V2000
  122.8390  131.9390   62.1630 C   0  0  0  0  0  0  0  0  0  0  0  0
  124.1160  132.0700   61.5480 O   0  0  0  0  0  0  0  0  0  0  0  0
  124.6350  131.0040   60.8360 C   0  0  0  0  0  0  0  0  0  0  0  0
  125.3800  129.9610   61.4030 C   0  0  0  0  0  0  0  0  0  0  0  0
  125.8660  128.9300   60.6050 C   0  0  0  0  0  0  0  0  0  0  0  0
  125.6220  128.9170   59.2240 C   0  0  0  0  0  0  0  0  0  0  0  0
  126.1680  127.7850   58.3760 C   0  0  0  0  0  0  0  0  0  0  0  0
  127.1290  127.9790   57.6230 O   0  0  0  0  0  0  0  0  0  0  0  0
  125.5310  126.5970   58.4960 N   0  0  0  0  0  0  0  0  0  0  0  0
  125.9330  125.5510   57.6720 N   0  0  0  0  0  0  0  0  0  0  0  0
  125.2280  124.4020   57.7120 C   0  0  0  0  0  0  0  0  0  0  0  0
  124.3610  124.1340   58.5490 O   0  0  0  0  0  0  0  0  0  0  0  0
  125.5470  123.3920   56.6010 C   0  0  0  0  0  0  0  0  0  0  0  0
  127.3010  122.8790   56.5000 S   0  0  0  0  0  0  0  0  0  0  0  0
  128.1090  124.4270   56.7770 C   0  0  0  0  0  0  0  0  0  0  0  0
  128.4550  125.2340   55.8060 N   0  0  0  0  0  0  0  0  0  0  0  0
  129.1250  126.3080   56.3760 N   0  0  0  0  0  0  0  0  0  0  0  0
  129.1320  126.1240   57.6750 C   0  0  0  0  0  0  0  0  0  0  0  0
  129.7510  127.0850   58.6380 C   0  0  0  0  0  0  0  0  0  0  0  0
  130.9190  127.7650   58.2850 C   0  0  0  0  0  0  0  0  0  0  0  0
  131.5070  128.6560   59.1770 C   0  0  0  0  0  0  0  0  0  0  0  0
  130.9220  128.8880   60.4270 C   0  0  0  0  0  0  0  0  0  0  0  0
  131.4760  129.7660   61.3710 N   0  0  0  0  0  0  0  0  0  0  0  0
  131.8020  131.4900   61.0800 S   0  0  0  0  0  0  0  0  0  0  0  0
  133.2170  131.5740   60.6990 O   0  0  0  0  0  0  0  0  0  0  0  0
  131.2850  132.2500   62.2240 O   0  0  0  0  0  0  0  0  0  0  0  0
  130.8490  131.9080   59.6220 C   0  0  0  0  0  0  0  0  0  0  0  0
  131.4580  131.9660   58.3670 C   0  0  0  0  0  0  0  0  0  0  0  0
  130.7030  132.3080   57.2480 C   0  0  0  0  0  0  0  0  0  0  0  0
  129.3410  132.5850   57.3840 C   0  0  0  0  0  0  0  0  0  0  0  0
  128.5220  132.9730   56.1660 C   0  0  0  0  0  0  0  0  0  0  0  0
  128.7360  132.5300   58.6420 C   0  0  0  0  0  0  0  0  0  0  0  0
  129.4900  132.1890   59.7610 C   0  0  0  0  0  0  0  0  0  0  0  0
  129.7540  128.2100   60.7770 C   0  0  0  0  0  0  0  0  0  0  0  0
  129.1680  127.3140   59.8870 C   0  0  0  0  0  0  0  0  0  0  0  0
  128.5010  124.9350   58.0010 N   0  0  0  0  0  0  0  0  0  0  0  0
  128.3350  124.3510   59.2750 C   0  0  0  0  0  0  0  0  0  0  0  0
  129.2000  123.3400   59.6960 C   0  0  0  0  0  0  0  0  0  0  0  0
  129.0330  122.7720   60.9560 C   0  0  0  0  0  0  0  0  0  0  0  0
  128.0090  123.2030   61.8000 C   0  0  0  0  0  0  0  0  0  0  0  0
  127.9220  122.5790   63.0290 O   0  0  0  0  0  0  0  0  0  0  0  0
  129.0010  122.7040   63.9500 C   0  0  0  0  0  0  0  0  0  0  0  0
  127.1430  124.2210   61.3670 C   0  0  0  0  0  0  0  0  0  0  0  0
  127.3070  124.7940   60.1100 C   0  0  0  0  0  0  0  0  0  0  0  0
  124.8700  129.9610   58.6650 C   0  0  0  0  0  0  0  0  0  0  0  0
  124.3840  130.9910   59.4660 C   0  0  0  0  0  0  0  0  0  0  0  0
  122.9558  131.9510   63.2567 H   0  0  0  0  0  0  0  0  0  0  0  0
  122.1955  132.7758   61.8538 H   0  0  0  0  0  0  0  0  0  0  0  0
  122.3788  130.9889   61.8538 H   0  0  0  0  0  0  0  0  0  0  0  0
  125.5815  129.9575   62.4844 H   0  0  0  0  0  0  0  0  0  0  0  0
  126.4480  128.1162   61.0623 H   0  0  0  0  0  0  0  0  0  0  0  0
  124.5460  126.5450   58.7130 H   0  0  0  0  0  0  0  0  0  0  0  0
  126.4530  125.8570   56.8620 H   0  0  0  0  0  0  0  0  0  0  0  0
  124.9380  122.4923   56.7730 H   0  0  0  0  0  0  0  0  0  0  0  0
  125.3204  123.8988   55.6514 H   0  0  0  0  0  0  0  0  0  0  0  0
  131.3753  127.5954   57.2986 H   0  0  0  0  0  0  0  0  0  0  0  0
  132.4338  129.1793   58.8992 H   0  0  0  0  0  0  0  0  0  0  0  0
  131.6820  129.4000   62.2890 H   0  0  0  0  0  0  0  0  0  0  0  0
  132.5300  131.7424   58.2626 H   0  0  0  0  0  0  0  0  0  0  0  0
  131.1790  132.3599   56.2577 H   0  0  0  0  0  0  0  0  0  0  0  0
  127.5723  133.4229   56.4909 H   0  0  0  0  0  0  0  0  0  0  0  0
  129.0847  133.7003   55.5623 H   0  0  0  0  0  0  0  0  0  0  0  0
  128.3156  132.0769   55.5623 H   0  0  0  0  0  0  0  0  0  0  0  0
  127.6647  132.7560   58.7480 H   0  0  0  0  0  0  0  0  0  0  0  0
  129.0154  132.1412   60.7522 H   0  0  0  0  0  0  0  0  0  0  0  0
  129.2939  128.3842   61.7608 H   0  0  0  0  0  0  0  0  0  0  0  0
  128.2448  126.7857   60.1675 H   0  0  0  0  0  0  0  0  0  0  0  0
  130.0091  122.9939   59.0360 H   0  0  0  0  0  0  0  0  0  0  0  0
  129.7149  121.9758   61.2893 H   0  0  0  0  0  0  0  0  0  0  0  0
  128.6126  122.6590   64.9781 H   0  0  0  0  0  0  0  0  0  0  0  0
  129.7153  121.8826   63.7916 H   0  0  0  0  0  0  0  0  0  0  0  0
  129.5086  123.6670   63.7916 H   0  0  0  0  0  0  0  0  0  0  0  0
  126.3318  124.5665   62.0247 H   0  0  0  0  0  0  0  0  0  0  0  0
  126.6294  125.5931   59.7750 H   0  0  0  0  0  0  0  0  0  0  0  0
  124.6625  129.9660   57.5848 H   0  0  0  0  0  0  0  0  0  0  0  0
  123.7960  131.8025   59.0124 H   0  0  0  0  0  0  0  0  0  0  0  0
  1  2  1  0
  2  3  1  0
  3  4  2  0
  4  5  1  0
  5  6  2  0
  6  7  1  0
  7  8  2  0
  7  9  1  0
  9 10  1  0
 10 11  1  0
 11 12  2  0
 11 13  1  0
 13 14  1  0
 14 15  1  0
 15 16  2  0
 16 17  1  0
 17 18  2  0
 18 19  1  0
 19 20  2  0
 20 21  1  0
 21 22  2  0
 22 23  1  0
 23 24  1  0
 24 25  2  0
 24 26  2  0
 24 27  1  0
 27 28  2  0
 28 29  1  0
 29 30  2  0
 30 31  1  0
 30 32  1  0
 32 33  2  0
 22 34  1  0
 34 35  2  0
 18 36  1  0
 36 37  1  0
 37 38  2  0
 38 39  1  0
 39 40  2  0
 40 41  1  0
 41 42  1  0
 40 43  1  0
 43 44  2  0
  6 45  1  0
 45 46  2  0
 46  3  1  0
 36 15  1  0
 44 37  1  0
 35 19  1  0
 33 27  1  0
  1 47  1  0
  1 48  1  0
  1 49  1  0
  4 50  1  0
  5 51  1  0
  9 52  1  0
 10 53  1  0
 13 54  1  0
 13 55  1  0
 20 56  1  0
 21 57  1  0
 23 58  1  0
 28 59  1  0
 29 60  1  0
 31 61  1  0
 31 62  1  0
 31 63  1  0
 32 64  1  0
 33 65  1  0
 34 66  1  0
 35 67  1  0
 38 68  1  0
 39 69  1  0
 42 70  1  0
 42 71  1  0
 42 72  1  0
 43 73  1  0
 44 74  1  0
 45 75  1  0
 46 76  1  0
M  END
>  <Binding energies>  (1) 
[-10.09]

>  <Ligand effiencies>  (1) 
[-0.20591836734693877]

>  <Interactions>  (1) 
["V-A:GLU:543:CD:4908, V-B:TYR:539:CE2:9848, H-B:TYR:539:OH:9850, V-B:LEU:363:CD1:8160, V-B:MET:535:CE:9807, V-B:ASP:366:CB:8183, H-B:ALA:541:N:9863, V-B:ASP:366:CG:8184, V-B:TYR:539:CZ:9849, V-B:TYR:539:CD2:9846, V-B:TYR:539:CE1:9847, V-B:TYR:531:CE2:9765, V-B:GLU:543:CG:9879, V-B:GLU:543:CD:9880, V-B:ALA:541:CB:9864, V-A:TYR:539:CD1:4873, V-B:GLY:454:CA:9020, H-A:GLU:543:OE1:4909, V-A:PRO:540:CA:4883, V-B:ILE:369:CG2:8208, V-A:PRO:540:CB:4885, H-A:ASP:366:OD2:3215, V-A:ASP:366:CB:3212, V-B:ILE:369:CG1:8209, V-A:TYR:539:CE1:4875, H-A:TYR:531:OH:4795, H-B:MET:535:SD:9806, V-A:MET:535:CE:4835, H-B:TYR:531:OH:9767, V-A:ASP:366:CG:3213, V-B:ASP:366:CA:8181, H-A:ALA:541:N:4891, V-B:TYR:531:CZ:9766, H-B:ASP:366:OD1:8185, V-A:ILE:538:CA:4860, V-A:TYR:539:CZ:4877, V-A:TYR:539:CG:4872, V-A:TYR:539:CE2:4876, H-B:ASP:366:OD2:8186, V-B:GLY:453:C:9013, V-A:TYR:539:CD2:4874"]

$$$$
RR30_Rahimova_2017
     RDKit          3D

 29 30  0  0  0  0  0  0  0  0999 V2000
  126.7070  131.4580   56.4190 C   0  0  0  0  0  0  0  0  0  0  0  0
  127.4980  132.6020   55.7680 C   0  0  0  0  0  0  0  0  0  0  0  0
  128.8910  132.7350   56.3430 C   0  0  0  0  0  0  0  0  0  0  0  0
  129.3730  133.7030   57.0820 N   0  0  0  0  0  0  0  0  0  0  0  0
  130.6970  133.3620   57.3430 N   0  0  0  0  0  0  0  0  0  0  0  0
  130.9050  132.2240   56.7310 C   0  0  0  0  0  0  0  0  0  0  0  0
  132.3910  131.2750   56.7000 S   0  0  0  0  0  0  0  0  0  0  0  0
  131.9610  129.9810   57.9070 C   0  0  0  0  0  0  0  0  0  0  0  0
  131.1190  130.5260   59.0640 C   0  0  0  0  0  0  0  0  0  0  0  0
  129.9150  130.7270   58.8900 O   0  0  0  0  0  0  0  0  0  0  0  0
  131.7880  130.7840   60.2100 N   0  0  0  0  0  0  0  0  0  0  0  0
  131.2450  131.2820   61.3860 C   0  0  0  0  0  0  0  0  0  0  0  0
  131.8620  131.8940   62.3710 N   0  0  0  0  0  0  0  0  0  0  0  0
  130.9940  132.2540   63.3950 N   0  0  0  0  0  0  0  0  0  0  0  0
  129.7480  131.9100   63.1660 C   0  0  0  0  0  0  0  0  0  0  0  0
  128.6210  132.1900   64.1330 C   0  0  0  0  0  0  0  0  0  0  0  0
  129.5370  131.1000   61.6380 S   0  0  0  0  0  0  0  0  0  0  0  0
  129.8040  131.7660   56.0820 O   0  0  0  0  0  0  0  0  0  0  0  0
  126.7682  131.5465   57.5137 H   0  0  0  0  0  0  0  0  0  0  0  0
  125.6544  131.5148   56.1048 H   0  0  0  0  0  0  0  0  0  0  0  0
  127.1319  130.4932   56.1048 H   0  0  0  0  0  0  0  0  0  0  0  0
  127.5778  132.4076   54.6883 H   0  0  0  0  0  0  0  0  0  0  0  0
  126.9598  133.5403   55.9678 H   0  0  0  0  0  0  0  0  0  0  0  0
  131.3900  129.1934   57.3936 H   0  0  0  0  0  0  0  0  0  0  0  0
  132.8979  129.5868   58.3276 H   0  0  0  0  0  0  0  0  0  0  0  0
  132.7810  130.6060   60.2230 H   0  0  0  0  0  0  0  0  0  0  0  0
  128.9916  132.0979   65.1646 H   0  0  0  0  0  0  0  0  0  0  0  0
  128.2421  133.2096   63.9692 H   0  0  0  0  0  0  0  0  0  0  0  0
  127.8090  131.4663   63.9692 H   0  0  0  0  0  0  0  0  0  0  0  0
  1  2  1  0
  2  3  1  0
  3  4  2  0
  4  5  1  0
  5  6  2  0
  6  7  1  0
  7  8  1  0
  8  9  1  0
  9 10  2  0
  9 11  1  0
 11 12  1  0
 12 13  2  0
 13 14  1  0
 14 15  2  0
 15 16  1  0
 15 17  1  0
  6 18  1  0
 18  3  1  0
 17 12  1  0
  1 19  1  0
  1 20  1  0
  1 21  1  0
  2 22  1  0
  2 23  1  0
  8 24  1  0
  8 25  1  0
 11 26  1  0
 16 27  1  0
 16 28  1  0
 16 29  1  0
M  END
>  <Binding energies>  (1) 
[-6.84]

>  <Ligand effiencies>  (1) 
[-0.36]

>  <Interactions>  (1) 
["V-A:GLU:543:CD:4908, V-B:TYR:484:CE2:9317, V-A:GLU:543:CG:4907, V-A:TYR:539:CD1:4873, V-A:TYR:531:CE2:4793, V-A:TYR:531:CZ:4794, V-A:ALA:541:CB:4892, V-A:PRO:540:CA:4883, H-A:ASP:366:OD2:3215, V-A:ASP:366:CB:3212, V-A:TYR:539:CE1:4875, H-A:TYR:531:OH:4795, H-A:TYR:539:N:4870, V-A:MET:535:CE:4835, H-A:ALA:541:N:4891, V-A:TYR:539:CZ:4877, V-A:TYR:539:CE2:4876, V-A:TYR:539:CD2:4874"]

$$$$
RR31_Rahimova_2017
     RDKit          3D

 44 45  0  0  0  0  0  0  0  0999 V2000
  122.6220  131.1250   61.0240 C   0  0  0  0  0  0  0  0  0  0  0  0
  123.9610  131.3930   60.3500 C   0  0  0  0  0  0  0  0  0  0  0  0
  124.2570  130.7540   59.1450 C   0  0  0  0  0  0  0  0  0  0  0  0
  125.4720  130.9810   58.5020 C   0  0  0  0  0  0  0  0  0  0  0  0
  126.4260  131.8590   59.0400 C   0  0  0  0  0  0  0  0  0  0  0  0
  127.6520  132.0890   58.4130 N   0  0  0  0  0  0  0  0  0  0  0  0
  127.7660  132.2390   56.9490 C   0  0  0  0  0  0  0  0  0  0  0  0
  129.2060  132.0740   56.4080 C   0  0  0  0  0  0  0  0  0  0  0  0
  130.1240  133.0050   57.0690 N   0  0  0  0  0  0  0  0  0  0  0  0
  131.4910  132.8960   56.5520 C   0  0  0  0  0  0  0  0  0  0  0  0
  131.9830  131.4380   56.4510 C   0  0  0  0  0  0  0  0  0  0  0  0
  132.6190  130.9450   57.7610 C   0  0  0  0  0  0  0  0  0  0  0  0
  132.4890  129.4210   57.8650 N   0  0  0  0  0  0  0  0  0  0  0  0
  130.1120  132.6910   58.4980 C   0  0  0  0  0  0  0  0  0  0  0  0
  128.6970  132.8840   59.0900 C   0  0  0  0  0  0  0  0  0  0  0  0
  126.1200  132.4880   60.2570 C   0  0  0  0  0  0  0  0  0  0  0  0
  124.9030  132.2680   60.9130 C   0  0  0  0  0  0  0  0  0  0  0  0
  124.6330  132.9790   62.2330 C   0  0  0  0  0  0  0  0  0  0  0  0
  122.7497  131.1506   62.1163 H   0  0  0  0  0  0  0  0  0  0  0  0
  121.8983  131.8961   60.7213 H   0  0  0  0  0  0  0  0  0  0  0  0
  122.2508  130.1348   60.7213 H   0  0  0  0  0  0  0  0  0  0  0  0
  123.5246  130.0651   58.6990 H   0  0  0  0  0  0  0  0  0  0  0  0
  125.6875  130.4629   57.5559 H   0  0  0  0  0  0  0  0  0  0  0  0
  127.1289  131.4790   56.4731 H   0  0  0  0  0  0  0  0  0  0  0  0
  127.4527  133.2659   56.7097 H   0  0  0  0  0  0  0  0  0  0  0  0
  129.5439  131.0435   56.5924 H   0  0  0  0  0  0  0  0  0  0  0  0
  129.2027  132.2908   55.3296 H   0  0  0  0  0  0  0  0  0  0  0  0
  131.5234  133.3471   55.5493 H   0  0  0  0  0  0  0  0  0  0  0  0
  132.1526  133.4181   57.2590 H   0  0  0  0  0  0  0  0  0  0  0  0
  131.1267  130.7917   56.2083 H   0  0  0  0  0  0  0  0  0  0  0  0
  132.7529  131.3961   55.6664 H   0  0  0  0  0  0  0  0  0  0  0  0
  133.6835  131.2218   57.7760 H   0  0  0  0  0  0  0  0  0  0  0  0
  132.1007  131.4109   58.6121 H   0  0  0  0  0  0  0  0  0  0  0  0
  132.7560  129.1120   58.7890 H   0  0  0  0  0  0  0  0  0  0  0  0
  133.0880  128.9740   57.1870 H   0  0  0  0  0  0  0  0  0  0  0  0
  131.5340  129.1390   57.6920 H   0  0  0  0  0  0  0  0  0  0  0  0
  130.4230  131.6455   58.6402 H   0  0  0  0  0  0  0  0  0  0  0  0
  130.8062  133.3703   59.0144 H   0  0  0  0  0  0  0  0  0  0  0  0
  128.7222  132.5919   60.1502 H   0  0  0  0  0  0  0  0  0  0  0  0
  128.4338  133.9429   58.9502 H   0  0  0  0  0  0  0  0  0  0  0  0
  126.8554  133.1713   60.7068 H   0  0  0  0  0  0  0  0  0  0  0  0
  124.8870  132.3101   63.0684 H   0  0  0  0  0  0  0  0  0  0  0  0
  125.2481  133.8890   62.2918 H   0  0  0  0  0  0  0  0  0  0  0  0
  123.5689  133.2513   62.2918 H   0  0  0  0  0  0  0  0  0  0  0  0
  1  2  1  0
  2  3  2  0
  3  4  1  0
  4  5  2  0
  5  6  1  0
  6  7  1  0
  7  8  1  0
  8  9  1  0
  9 10  1  0
 10 11  1  0
 11 12  1  0
 12 13  1  0
  9 14  1  0
 14 15  1  0
  5 16  1  0
 16 17  2  0
 17 18  1  0
 17  2  1  0
 15  6  1  0
  1 19  1  0
  1 20  1  0
  1 21  1  0
  3 22  1  0
  4 23  1  0
  7 24  1  0
  7 25  1  0
  8 26  1  0
  8 27  1  0
 10 28  1  0
 10 29  1  0
 11 30  1  0
 11 31  1  0
 12 32  1  0
 12 33  1  0
 13 34  1  0
 13 35  1  0
 13 36  1  0
 14 37  1  0
 14 38  1  0
 15 39  1  0
 15 40  1  0
 16 41  1  0
 18 42  1  0
 18 43  1  0
 18 44  1  0
M  CHG  1  13   1
M  END
>  <Binding energies>  (1) 
[-6.8]

>  <Ligand effiencies>  (1) 
[-0.3238095238095238]

>  <Interactions>  (1) 
["V-B:ASP:366:CB:8183, V-B:ASP:366:CG:8184, V-A:TYR:539:CD1:4873, V-A:LEU:363:CD1:3189, V-A:TYR:531:CE2:4793, V-A:ILE:538:CG2:4863, V-A:ILE:538:CB:4862, V-A:TYR:531:CZ:4794, V-A:PRO:540:CA:4883, V-B:ILE:369:CG2:8208, V-A:PRO:540:CB:4885, H-A:ASP:366:OD2:3215, V-A:ASP:366:CB:3212, V-B:ILE:369:CG1:8209, V-A:TYR:539:CE1:4875, H-A:TYR:531:OH:4795, V-A:TYR:539:C:4867, H-A:TYR:539:N:4870, V-B:ILE:369:CB:8207, V-A:PRO:540:N:4884, V-A:MET:535:CE:4835, V-A:ASP:366:CG:3213, V-B:ASP:366:CA:8181, V-A:PRO:540:CD:4887, V-A:ILE:538:CA:4860, V-A:TYR:539:CZ:4877"]

$$$$
RR32_Rahimova_2017
     RDKit          3D

 37 39  0  0  0  0  0  0  0  0999 V2000
  123.5570  132.4240   61.7350 C   0  0  0  0  0  0  0  0  0  0  0  0
  124.8360  133.2440   61.5990 C   0  0  0  0  0  0  0  0  0  0  0  0
  126.0590  132.5830   61.7170 C   0  0  0  0  0  0  0  0  0  0  0  0
  127.2470  133.2980   61.5960 C   0  0  0  0  0  0  0  0  0  0  0  0
  128.4580  132.6390   61.7140 N   0  0  0  0  0  0  0  0  0  0  0  0
  129.4170  132.7850   60.6040 C   0  0  0  0  0  0  0  0  0  0  0  0
  130.6570  131.8710   60.7450 C   0  0  0  0  0  0  0  0  0  0  0  0
  131.3510  132.1500   62.0010 N   0  0  0  0  0  0  0  0  0  0  0  0
  132.5380  131.3100   62.1190 C   0  0  0  0  0  0  0  0  0  0  0  0
  130.4260  131.8750   63.0980 C   0  0  0  0  0  0  0  0  0  0  0  0
  129.1810  132.7870   62.9920 C   0  0  0  0  0  0  0  0  0  0  0  0
  127.2750  134.6370   61.3670 N   0  0  0  0  0  0  0  0  0  0  0  0
  126.0990  135.3100   61.2500 C   0  0  0  0  0  0  0  0  0  0  0  0
  126.1590  136.7050   61.0130 C   0  0  0  0  0  0  0  0  0  0  0  0
  124.9880  137.4450   60.8850 C   0  0  0  0  0  0  0  0  0  0  0  0
  123.7490  136.8250   60.9870 C   0  0  0  0  0  0  0  0  0  0  0  0
  123.6540  135.4560   61.2190 C   0  0  0  0  0  0  0  0  0  0  0  0
  124.8270  134.6580   61.3580 C   0  0  0  0  0  0  0  0  0  0  0  0
  123.3274  132.2768   62.8007 H   0  0  0  0  0  0  0  0  0  0  0  0
  122.7259  132.9580   61.2512 H   0  0  0  0  0  0  0  0  0  0  0  0
  123.6954  131.4458   61.2512 H   0  0  0  0  0  0  0  0  0  0  0  0
  126.0843  131.4995   61.9052 H   0  0  0  0  0  0  0  0  0  0  0  0
  128.9038  132.5352   59.6636 H   0  0  0  0  0  0  0  0  0  0  0  0
  129.7748  133.8251   60.6162 H   0  0  0  0  0  0  0  0  0  0  0  0
  130.3359  130.8190   60.7335 H   0  0  0  0  0  0  0  0  0  0  0  0
  131.3420  132.0644   59.9064 H   0  0  0  0  0  0  0  0  0  0  0  0
  132.7678  131.1473   63.1823 H   0  0  0  0  0  0  0  0  0  0  0  0
  132.3517  130.3415   61.6318 H   0  0  0  0  0  0  0  0  0  0  0  0
  133.3894  131.8078   61.6318 H   0  0  0  0  0  0  0  0  0  0  0  0
  130.1099  130.8225   63.0508 H   0  0  0  0  0  0  0  0  0  0  0  0
  130.9345  132.0733   64.0530 H   0  0  0  0  0  0  0  0  0  0  0  0
  128.4935  132.5367   63.8134 H   0  0  0  0  0  0  0  0  0  0  0  0
  129.5327  133.8277   63.0495 H   0  0  0  0  0  0  0  0  0  0  0  0
  127.1352  137.2052   60.9298 H   0  0  0  0  0  0  0  0  0  0  0  0
  125.0435  138.5282   60.7018 H   0  0  0  0  0  0  0  0  0  0  0  0
  122.8319  137.4234   60.8831 H   0  0  0  0  0  0  0  0  0  0  0  0
  122.6631  134.9847   61.2959 H   0  0  0  0  0  0  0  0  0  0  0  0
  1  2  1  0
  2  3  2  0
  3  4  1  0
  4  5  1  0
  5  6  1  0
  6  7  1  0
  7  8  1  0
  8  9  1  0
  8 10  1  0
 10 11  1  0
  4 12  2  0
 12 13  1  0
 13 14  2  0
 14 15  1  0
 15 16  2  0
 16 17  1  0
 17 18  2  0
 18  2  1  0
 11  5  1  0
 18 13  1  0
  1 19  1  0
  1 20  1  0
  1 21  1  0
  3 22  1  0
  6 23  1  0
  6 24  1  0
  7 25  1  0
  7 26  1  0
  9 27  1  0
  9 28  1  0
  9 29  1  0
 10 30  1  0
 10 31  1  0
 11 32  1  0
 11 33  1  0
 14 34  1  0
 15 35  1  0
 16 36  1  0
 17 37  1  0
M  END
>  <Binding energies>  (1) 
[-6.35]

>  <Ligand effiencies>  (1) 
[-0.35277777777777775]

>  <Interactions>  (1) 
["V-A:GLU:543:CD:4908, V-A:GLU:543:CG:4907, V-A:TYR:539:CD1:4873, V-B:LEU:475:CD2:9230, V-A:ALA:541:CB:4892, V-A:PRO:540:CA:4883, V-B:ILE:369:CG2:8208, V-A:PRO:540:CB:4885, V-B:ILE:369:CG1:8209, V-A:TYR:539:CE1:4875, V-A:TYR:539:C:4867, V-A:ALA:541:CA:4890, V-A:PRO:540:N:4884, V-A:PRO:540:C:4881, H-A:ALA:541:N:4891, V-B:SER:385:CA:8378, V-B:HIS:383:CD2:8363, V-B:SER:385:CB:8380, V-A:TYR:539:CB:4871, V-B:LEU:373:CD1:8251, V-A:ASN:362:CB:3176, V-B:SER:385:C:8376"]

$$$$
RR32_Rahimova_2017-again1
     RDKit          3D

 38 40  0  0  0  0  0  0  0  0999 V2000
  123.6780  132.6210   61.9320 C   0  0  0  0  0  0  0  0  0  0  0  0
  124.9600  133.4380   61.8580 C   0  0  0  0  0  0  0  0  0  0  0  0
  126.1800  132.8650   62.2160 C   0  0  0  0  0  0  0  0  0  0  0  0
  127.3580  133.6170   62.1430 C   0  0  0  0  0  0  0  0  0  0  0  0
  128.5920  133.0660   62.5070 N   0  0  0  0  0  0  0  0  0  0  0  0
  128.7100  132.2390   63.7250 C   0  0  0  0  0  0  0  0  0  0  0  0
  128.3710  130.7520   63.4680 C   0  0  0  0  0  0  0  0  0  0  0  0
  129.3640  130.1950   62.4280 N   0  0  0  0  0  0  0  0  0  0  0  0
  129.0610  128.7160   62.1200 C   0  0  0  0  0  0  0  0  0  0  0  0
  129.2680  131.0490   61.1470 C   0  0  0  0  0  0  0  0  0  0  0  0
  129.5470  132.5250   61.5170 C   0  0  0  0  0  0  0  0  0  0  0  0
  127.3430  134.9210   61.7510 N   0  0  0  0  0  0  0  0  0  0  0  0
  126.1690  135.5060   61.3920 C   0  0  0  0  0  0  0  0  0  0  0  0
  126.1930  136.8580   60.9750 C   0  0  0  0  0  0  0  0  0  0  0  0
  125.0140  137.4950   60.5970 C   0  0  0  0  0  0  0  0  0  0  0  0
  123.8020  136.8140   60.6250 C   0  0  0  0  0  0  0  0  0  0  0  0
  123.7460  135.4830   61.0330 C   0  0  0  0  0  0  0  0  0  0  0  0
  124.9280  134.7980   61.4250 C   0  0  0  0  0  0  0  0  0  0  0  0
  123.4117  132.4513   62.9857 H   0  0  0  0  0  0  0  0  0  0  0  0
  122.8652  133.1680   61.4319 H   0  0  0  0  0  0  0  0  0  0  0  0
  123.8306  131.6532   61.4319 H   0  0  0  0  0  0  0  0  0  0  0  0
  126.2164  131.8197   62.5565 H   0  0  0  0  0  0  0  0  0  0  0  0
  129.7428  132.3058   64.0978 H   0  0  0  0  0  0  0  0  0  0  0  0
  127.9881  132.6235   64.4606 H   0  0  0  0  0  0  0  0  0  0  0  0
  128.4590  130.1841   64.4060 H   0  0  0  0  0  0  0  0  0  0  0  0
  127.3413  130.6603   63.0920 H   0  0  0  0  0  0  0  0  0  0  0  0
  130.2990  130.2790   62.8010 H   0  0  0  0  0  0  0  0  0  0  0  0
  128.9473  128.1610   63.0629 H   0  0  0  0  0  0  0  0  0  0  0  0
  128.1298  128.6458   61.5386 H   0  0  0  0  0  0  0  0  0  0  0  0
  129.8896  128.2853   61.5386 H   0  0  0  0  0  0  0  0  0  0  0  0
  130.0122  130.7034   60.4144 H   0  0  0  0  0  0  0  0  0  0  0  0
  128.2645  130.9548   60.7064 H   0  0  0  0  0  0  0  0  0  0  0  0
  130.5619  132.5950   61.9353 H   0  0  0  0  0  0  0  0  0  0  0  0
  129.4379  133.1194   60.5979 H   0  0  0  0  0  0  0  0  0  0  0  0
  127.1457  137.4073   60.9494 H   0  0  0  0  0  0  0  0  0  0  0  0
  125.0416  138.5460   60.2734 H   0  0  0  0  0  0  0  0  0  0  0  0
  122.8793  137.3307   60.3224 H   0  0  0  0  0  0  0  0  0  0  0  0
  122.7794  134.9582   61.0519 H   0  0  0  0  0  0  0  0  0  0  0  0
  1  2  1  0
  2  3  2  0
  3  4  1  0
  4  5  1  0
  5  6  1  0
  6  7  1  0
  7  8  1  0
  8  9  1  0
  8 10  1  0
 10 11  1  0
  4 12  2  0
 12 13  1  0
 13 14  2  0
 14 15  1  0
 15 16  2  0
 16 17  1  0
 17 18  2  0
 18  2  1  0
 11  5  1  0
 18 13  1  0
  1 19  1  0
  1 20  1  0
  1 21  1  0
  3 22  1  0
  6 23  1  0
  6 24  1  0
  7 25  1  0
  7 26  1  0
  8 27  1  0
  9 28  1  0
  9 29  1  0
  9 30  1  0
 10 31  1  0
 10 32  1  0
 11 33  1  0
 11 34  1  0
 14 35  1  0
 15 36  1  0
 16 37  1  0
 17 38  1  0
M  CHG  1   8   1
M  END
>  <Binding energies>  (1) 
[-6.58]

>  <Ligand effiencies>  (1) 
[-0.3463157894736842]

>  <Interactions>  (1) 
["V-A:GLU:543:CD:4908, V-A:GLU:543:CG:4907, V-A:TYR:539:CD1:4873, H-A:GLU:543:OE1:4909, V-B:LEU:475:CD2:9230, V-A:ALA:541:CB:4892, V-A:PRO:540:CA:4883, V-B:ILE:369:CG2:8208, V-B:ILE:369:CG1:8209, V-A:TYR:539:CE1:4875, V-A:PRO:540:C:4881, V-A:TYR:539:CG:4872, V-B:SER:385:CA:8378, V-B:HIS:383:CD2:8363, V-B:SER:385:CB:8380, V-A:TYR:539:CB:4871, V-B:LEU:373:CD1:8251"]

$$$$
RR32_Rahimova_2017-again2
     RDKit          3D

 39 41  0  0  0  0  0  0  0  0999 V2000
  123.7820  132.5680   61.9060 C   0  0  0  0  0  0  0  0  0  0  0  0
  125.0700  133.3770   61.8240 C   0  0  0  0  0  0  0  0  0  0  0  0
  126.2960  132.7770   62.1260 C   0  0  0  0  0  0  0  0  0  0  0  0
  127.4910  133.5060   62.0620 C   0  0  0  0  0  0  0  0  0  0  0  0
  128.7810  132.9320   62.3490 N   0  0  0  0  0  0  0  0  0  0  0  0
  129.0420  132.2520   63.6460 C   0  0  0  0  0  0  0  0  0  0  0  0
  128.5930  130.7670   63.5870 C   0  0  0  0  0  0  0  0  0  0  0  0
  129.3660  130.0390   62.4610 N   0  0  0  0  0  0  0  0  0  0  0  0
  128.9050  128.5740   62.3340 C   0  0  0  0  0  0  0  0  0  0  0  0
  129.1920  130.7920   61.1210 C   0  0  0  0  0  0  0  0  0  0  0  0
  129.6130  132.2740   61.3090 C   0  0  0  0  0  0  0  0  0  0  0  0
  127.4200  134.8010   61.6920 N   0  0  0  0  0  0  0  0  0  0  0  0
  126.2630  135.4740   61.3760 C   0  0  0  0  0  0  0  0  0  0  0  0
  126.3010  136.8360   61.0010 C   0  0  0  0  0  0  0  0  0  0  0  0
  125.1100  137.4840   60.6840 C   0  0  0  0  0  0  0  0  0  0  0  0
  123.8960  136.8040   60.7360 C   0  0  0  0  0  0  0  0  0  0  0  0
  123.8440  135.4590   61.1050 C   0  0  0  0  0  0  0  0  0  0  0  0
  125.0340  134.7530   61.4380 C   0  0  0  0  0  0  0  0  0  0  0  0
  123.5192  132.4030   62.9613 H   0  0  0  0  0  0  0  0  0  0  0  0
  122.9706  133.1190   61.4079 H   0  0  0  0  0  0  0  0  0  0  0  0
  123.9260  131.5978   61.4079 H   0  0  0  0  0  0  0  0  0  0  0  0
  126.3230  131.7169   62.4182 H   0  0  0  0  0  0  0  0  0  0  0  0
  130.1189  132.2952   63.8661 H   0  0  0  0  0  0  0  0  0  0  0  0
  128.4705  132.7632   64.4347 H   0  0  0  0  0  0  0  0  0  0  0  0
  128.8051  130.2812   64.5508 H   0  0  0  0  0  0  0  0  0  0  0  0
  127.5134  130.7181   63.3817 H   0  0  0  0  0  0  0  0  0  0  0  0
  130.3490  130.0580   62.7000 H   0  0  0  0  0  0  0  0  0  0  0  0
  128.7697  128.1439   63.3373 H   0  0  0  0  0  0  0  0  0  0  0  0
  127.9514  128.5358   61.7870 H   0  0  0  0  0  0  0  0  0  0  0  0
  129.6649  127.9966   61.7870 H   0  0  0  0  0  0  0  0  0  0  0  0
  129.8245  130.3248   60.3518 H   0  0  0  0  0  0  0  0  0  0  0  0
  128.1395  130.7444   60.8047 H   0  0  0  0  0  0  0  0  0  0  0  0
  130.6690  132.3127   61.6145 H   0  0  0  0  0  0  0  0  0  0  0  0
  129.4698  132.8043   60.3560 H   0  0  0  0  0  0  0  0  0  0  0  0
  128.2870  135.3150   61.6380 H   0  0  0  0  0  0  0  0  0  0  0  0
  127.2581  137.3767   60.9601 H   0  0  0  0  0  0  0  0  0  0  0  0
  125.1283  138.5437   60.3895 H   0  0  0  0  0  0  0  0  0  0  0  0
  122.9658  137.3338   60.4829 H   0  0  0  0  0  0  0  0  0  0  0  0
  122.8747  134.9400   61.1387 H   0  0  0  0  0  0  0  0  0  0  0  0
  1  2  1  0
  2  3  2  0
  3  4  1  0
  4  5  1  0
  5  6  1  0
  6  7  1  0
  7  8  1  0
  8  9  1  0
  8 10  1  0
 10 11  1  0
  4 12  2  0
 12 13  1  0
 13 14  2  0
 14 15  1  0
 15 16  2  0
 16 17  1  0
 17 18  2  0
 18  2  1  0
 11  5  1  0
 18 13  1  0
  1 19  1  0
  1 20  1  0
  1 21  1  0
  3 22  1  0
  6 23  1  0
  6 24  1  0
  7 25  1  0
  7 26  1  0
  8 27  1  0
  9 28  1  0
  9 29  1  0
  9 30  1  0
 10 31  1  0
 10 32  1  0
 11 33  1  0
 11 34  1  0
 12 35  1  0
 14 36  1  0
 15 37  1  0
 16 38  1  0
 17 39  1  0
M  CHG  2   8   1  12   1
M  END
>  <Binding energies>  (1) 
[-7.11]

>  <Ligand effiencies>  (1) 
[-0.35550000000000004]

>  <Interactions>  (1) 
["V-A:GLU:543:CD:4908, V-A:GLU:543:CG:4907, V-A:TYR:539:CD1:4873, H-A:GLU:543:OE1:4909, V-B:LEU:475:CD2:9230, V-A:ALA:541:CB:4892, V-A:PRO:540:CA:4883, V-B:ILE:369:CG2:8208, V-A:TYR:539:CE1:4875, H-A:TYR:539:O:4868, V-A:TYR:539:CG:4872, V-B:SER:385:CA:8378, V-B:HIS:383:CD2:8363, V-B:SER:385:CB:8380, V-A:TYR:539:CB:4871, V-B:LEU:373:CD1:8251"]

$$$$
RR33_Rahimova_2017
     RDKit          3D

 36 37  0  0  0  0  0  0  0  0999 V2000
  129.1450  138.6220   61.7350 C   0  0  0  0  0  0  0  0  0  0  0  0
  127.9320  138.8000   62.6540 C   0  0  0  0  0  0  0  0  0  0  0  0
  126.7470  138.7280   61.8660 O   0  0  0  0  0  0  0  0  0  0  0  0
  126.1460  137.5020   61.6540 C   0  0  0  0  0  0  0  0  0  0  0  0
  126.9930  136.3970   61.5930 C   0  0  0  0  0  0  0  0  0  0  0  0
  126.4790  135.1210   61.3800 C   0  0  0  0  0  0  0  0  0  0  0  0
  125.1020  134.9320   61.2240 C   0  0  0  0  0  0  0  0  0  0  0  0
  124.5510  133.5610   60.9950 C   0  0  0  0  0  0  0  0  0  0  0  0
  124.5080  132.8930   59.8640 N   0  0  0  0  0  0  0  0  0  0  0  0
  123.9350  131.7370   60.1620 C   0  0  0  0  0  0  0  0  0  0  0  0
  123.7190  130.6790   59.1020 C   0  0  0  0  0  0  0  0  0  0  0  0
  123.6710  131.2810   57.7780 N   0  0  0  0  0  0  0  0  0  0  0  0
  124.7300  130.7510   56.9340 C   0  0  0  0  0  0  0  0  0  0  0  0
  123.6230  131.7070   61.5160 C   0  0  0  0  0  0  0  0  0  0  0  0
  122.9830  130.7070   62.4480 C   0  0  0  0  0  0  0  0  0  0  0  0
  124.0210  132.8860   62.0470 O   0  0  0  0  0  0  0  0  0  0  0  0
  124.2480  136.0370   61.2890 C   0  0  0  0  0  0  0  0  0  0  0  0
  124.7630  137.3140   61.5020 C   0  0  0  0  0  0  0  0  0  0  0  0
  130.0507  138.4891   62.3449 H   0  0  0  0  0  0  0  0  0  0  0  0
  128.9972  137.7359   61.1002 H   0  0  0  0  0  0  0  0  0  0  0  0
  129.2580  139.5132   61.1002 H   0  0  0  0  0  0  0  0  0  0  0  0
  127.9216  138.0027   63.4117 H   0  0  0  0  0  0  0  0  0  0  0  0
  127.9860  139.7746   63.1612 H   0  0  0  0  0  0  0  0  0  0  0  0
  128.0776  136.5344   61.7143 H   0  0  0  0  0  0  0  0  0  0  0  0
  127.1589  134.2575   61.3342 H   0  0  0  0  0  0  0  0  0  0  0  0
  124.5465  129.9553   59.1400 H   0  0  0  0  0  0  0  0  0  0  0  0
  122.7614  130.1736   59.2961 H   0  0  0  0  0  0  0  0  0  0  0  0
  123.7910  132.2810   57.8630 H   0  0  0  0  0  0  0  0  0  0  0  0
  125.5353  130.3480   57.5657 H   0  0  0  0  0  0  0  0  0  0  0  0
  124.3259  129.9489   56.2989 H   0  0  0  0  0  0  0  0  0  0  0  0
  125.1299  131.5552   56.2989 H   0  0  0  0  0  0  0  0  0  0  0  0
  123.1727  131.0034   63.4902 H   0  0  0  0  0  0  0  0  0  0  0  0
  121.8984  130.6785   62.2665 H   0  0  0  0  0  0  0  0  0  0  0  0
  123.4114  129.7102   62.2665 H   0  0  0  0  0  0  0  0  0  0  0  0
  123.1633  135.8974   61.1713 H   0  0  0  0  0  0  0  0  0  0  0  0
  124.0837  138.1778   61.5512 H   0  0  0  0  0  0  0  0  0  0  0  0
  1  2  1  0
  2  3  1  0
  3  4  1  0
  4  5  2  0
  5  6  1  0
  6  7  2  0
  7  8  1  0
  8  9  2  0
  9 10  1  0
 10 11  1  0
 11 12  1  0
 12 13  1  0
 10 14  2  0
 14 15  1  0
 14 16  1  0
  7 17  1  0
 17 18  2  0
 18  4  1  0
 16  8  1  0
  1 19  1  0
  1 20  1  0
  1 21  1  0
  2 22  1  0
  2 23  1  0
  5 24  1  0
  6 25  1  0
 11 26  1  0
 11 27  1  0
 12 28  1  0
 13 29  1  0
 13 30  1  0
 13 31  1  0
 15 32  1  0
 15 33  1  0
 15 34  1  0
 17 35  1  0
 18 36  1  0
M  END
>  <Binding energies>  (1) 
[-5.01]

>  <Ligand effiencies>  (1) 
[-0.2636842105263158]

>  <Interactions>  (1) 
["V-B:ASP:366:CB:8183, V-B:ASP:366:CG:8184, V-A:TYR:539:CD1:4873, V-B:LEU:475:CD2:9230, V-B:ILE:369:CG2:8208, V-B:ILE:369:CG1:8209, V-A:TYR:539:CE1:4875, V-A:TYR:539:C:4867, V-B:ILE:369:CB:8207, V-A:PRO:540:C:4881, V-B:ASP:366:CA:8181, V-B:TYR:531:CZ:9766, V-A:TYR:539:CZ:4877, V-B:LEU:475:CG:9228, V-B:PRO:482:CB:9297, V-B:LEU:475:CD1:9229, V-B:SER:385:CA:8378, V-B:HIS:383:CD2:8363, V-A:VAL:344:CG1:3001, V-B:ASP:366:C:8179, V-B:SER:385:CB:8380, V-B:GLY:453:C:9013, H-B:ASP:366:O:8180, H-A:TYR:539:OH:4878, H-B:HIS:383:NE2:8365, V-B:TYR:531:CE1:9764, V-B:GLY:453:CA:9015, V-A:VAL:344:CB:3000, V-A:VAL:344:CG2:3002, V-B:PRO:482:CG:9298"]

$$$$
RR33_Rahimova_2017-again1
     RDKit          3D

 37 38  0  0  0  0  0  0  0  0999 V2000
  132.3940  126.6240   74.1350 C   0  0  0  0  0  0  0  0  0  0  0  0
  130.8730  126.5430   74.2960 C   0  0  0  0  0  0  0  0  0  0  0  0
  130.2890  127.7110   73.7290 O   0  0  0  0  0  0  0  0  0  0  0  0
  129.9070  127.7030   72.4010 C   0  0  0  0  0  0  0  0  0  0  0  0
  130.8670  128.1100   71.4740 C   0  0  0  0  0  0  0  0  0  0  0  0
  130.5750  128.1330   70.1130 C   0  0  0  0  0  0  0  0  0  0  0  0
  129.3090  127.7490   69.6570 C   0  0  0  0  0  0  0  0  0  0  0  0
  128.9920  127.7720   68.1970 C   0  0  0  0  0  0  0  0  0  0  0  0
  129.4600  126.9760   67.2610 N   0  0  0  0  0  0  0  0  0  0  0  0
  128.8910  127.3810   66.1360 C   0  0  0  0  0  0  0  0  0  0  0  0
  129.1970  126.7040   64.8140 C   0  0  0  0  0  0  0  0  0  0  0  0
  130.6660  126.2490   64.8090 N   0  0  0  0  0  0  0  0  0  0  0  0
  130.8690  124.8360   64.2440 C   0  0  0  0  0  0  0  0  0  0  0  0
  128.0600  128.4630   66.4000 C   0  0  0  0  0  0  0  0  0  0  0  0
  127.1630  129.3560   65.5780 C   0  0  0  0  0  0  0  0  0  0  0  0
  128.1270  128.7080   67.7300 O   0  0  0  0  0  0  0  0  0  0  0  0
  128.3430  127.3400   70.5840 C   0  0  0  0  0  0  0  0  0  0  0  0
  128.6370  127.3160   71.9440 C   0  0  0  0  0  0  0  0  0  0  0  0
  132.8670  126.6492   75.1278 H   0  0  0  0  0  0  0  0  0  0  0  0
  132.7515  125.7436   73.5808 H   0  0  0  0  0  0  0  0  0  0  0  0
  132.6559  127.5374   73.5808 H   0  0  0  0  0  0  0  0  0  0  0  0
  130.4933  125.6505   73.7770 H   0  0  0  0  0  0  0  0  0  0  0  0
  130.6131  126.4752   75.3627 H   0  0  0  0  0  0  0  0  0  0  0  0
  131.8647  128.4158   71.8220 H   0  0  0  0  0  0  0  0  0  0  0  0
  131.3424  128.4543   69.3933 H   0  0  0  0  0  0  0  0  0  0  0  0
  128.5405  125.8305   64.6870 H   0  0  0  0  0  0  0  0  0  0  0  0
  129.0252  127.4098   63.9880 H   0  0  0  0  0  0  0  0  0  0  0  0
  131.2080  126.9030   64.2630 H   0  0  0  0  0  0  0  0  0  0  0  0
  131.0130  126.2740   65.7580 H   0  0  0  0  0  0  0  0  0  0  0  0
  130.9718  124.1207   65.0734 H   0  0  0  0  0  0  0  0  0  0  0  0
  130.0013  124.5597   63.6269 H   0  0  0  0  0  0  0  0  0  0  0  0
  131.7794  124.8151   63.6269 H   0  0  0  0  0  0  0  0  0  0  0  0
  126.5448  129.9715   66.2481 H   0  0  0  0  0  0  0  0  0  0  0  0
  127.7789  130.0102   64.9434 H   0  0  0  0  0  0  0  0  0  0  0  0
  126.5116  128.7372   64.9434 H   0  0  0  0  0  0  0  0  0  0  0  0
  127.3452  127.0356   70.2352 H   0  0  0  0  0  0  0  0  0  0  0  0
  127.8711  126.9924   72.6642 H   0  0  0  0  0  0  0  0  0  0  0  0
  1  2  1  0
  2  3  1  0
  3  4  1  0
  4  5  2  0
  5  6  1  0
  6  7  2  0
  7  8  1  0
  8  9  2  0
  9 10  1  0
 10 11  1  0
 11 12  1  0
 12 13  1  0
 10 14  2  0
 14 15  1  0
 14 16  1  0
  7 17  1  0
 17 18  2  0
 18  4  1  0
 16  8  1  0
  1 19  1  0
  1 20  1  0
  1 21  1  0
  2 22  1  0
  2 23  1  0
  5 24  1  0
  6 25  1  0
 11 26  1  0
 11 27  1  0
 12 28  1  0
 12 29  1  0
 13 30  1  0
 13 31  1  0
 13 32  1  0
 15 33  1  0
 15 34  1  0
 15 35  1  0
 17 36  1  0
 18 37  1  0
M  CHG  1  12   1
M  END
>  <Binding energies>  (1) 
[-6.1]

>  <Ligand effiencies>  (1) 
[-0.305]

>  <Interactions>  (1) 
["H-A:LYS:547:NZ:4951, V-A:GLU:543:CD:4908, V-A:GLU:543:C:4902, V-A:HIS:456:CE1:4070, V-A:GLU:543:CB:4906, V-B:HIS:456:CE1:9041, V-A:GLY:544:C:4912, V-B:GLU:543:CB:9878, V-A:GLY:544:CA:4914, V-A:HIS:456:CG:4066, V-A:HIS:456:CD2:4068, V-A:HIS:456:CB:4065, V-B:GLU:543:CG:9879, V-B:GLU:543:CD:9880, V-A:GLU:543:CG:4907, H-A:GLU:543:OE2:4910, H-A:GLU:543:OE1:4909"]

$$$$
RR3_Rahimova_2017
     RDKit          3D

 63 69  0  0  0  0  0  0  0  0999 V2000
  129.4970  126.8210   72.2080 C   0  0  0  0  0  0  0  0  0  0  0  0
  128.2610  126.5870   71.6130 C   0  0  0  0  0  0  0  0  0  0  0  0
  127.9920  127.1120   70.3530 C   0  0  0  0  0  0  0  0  0  0  0  0
  128.9510  127.8750   69.6710 C   0  0  0  0  0  0  0  0  0  0  0  0
  128.6610  128.4390   68.3150 C   0  0  0  0  0  0  0  0  0  0  0  0
  128.5180  127.5990   67.2010 C   0  0  0  0  0  0  0  0  0  0  0  0
  128.2510  128.1240   65.9400 C   0  0  0  0  0  0  0  0  0  0  0  0
  128.1280  129.5040   65.7610 C   0  0  0  0  0  0  0  0  0  0  0  0
  127.8470  130.0750   64.4070 C   0  0  0  0  0  0  0  0  0  0  0  0
  127.4990  131.3510   64.2820 N   0  0  0  0  0  0  0  0  0  0  0  0
  127.3620  131.5790   62.9990 C   0  0  0  0  0  0  0  0  0  0  0  0
  126.9840  132.8600   62.4070 C   0  0  0  0  0  0  0  0  0  0  0  0
  127.8530  133.7790   61.8430 C   0  0  0  0  0  0  0  0  0  0  0  0
  127.1570  134.8640   61.3770 N   0  0  0  0  0  0  0  0  0  0  0  0
  125.8110  134.6970   61.6200 C   0  0  0  0  0  0  0  0  0  0  0  0
  124.7210  135.5250   61.3320 C   0  0  0  0  0  0  0  0  0  0  0  0
  123.4600  135.0680   61.7130 C   0  0  0  0  0  0  0  0  0  0  0  0
  123.2850  133.8450   62.3520 C   0  0  0  0  0  0  0  0  0  0  0  0
  124.3710  133.0190   62.6390 C   0  0  0  0  0  0  0  0  0  0  0  0
  125.6650  133.4340   62.2760 C   0  0  0  0  0  0  0  0  0  0  0  0
  127.6130  130.4490   62.2720 N   0  0  0  0  0  0  0  0  0  0  0  0
  127.9100  129.4420   63.1540 C   0  0  0  0  0  0  0  0  0  0  0  0
  128.1830  128.0390   62.7210 C   0  0  0  0  0  0  0  0  0  0  0  0
  127.3390  127.4120   61.8030 C   0  0  0  0  0  0  0  0  0  0  0  0
  127.5820  126.1010   61.4070 C   0  0  0  0  0  0  0  0  0  0  0  0
  128.6760  125.3860   61.9150 C   0  0  0  0  0  0  0  0  0  0  0  0
  128.9240  123.9700   61.5020 C   0  0  0  0  0  0  0  0  0  0  0  0
  129.6740  123.1040   62.3130 C   0  0  0  0  0  0  0  0  0  0  0  0
  129.9000  121.7840   61.9300 C   0  0  0  0  0  0  0  0  0  0  0  0
  129.3770  121.3150   60.7300 C   0  0  0  0  0  0  0  0  0  0  0  0
  128.6300  122.1550   59.9110 C   0  0  0  0  0  0  0  0  0  0  0  0
  128.4070  123.4740   60.2960 C   0  0  0  0  0  0  0  0  0  0  0  0
  129.5270  126.0330   62.8230 C   0  0  0  0  0  0  0  0  0  0  0  0
  129.2860  127.3440   63.2220 C   0  0  0  0  0  0  0  0  0  0  0  0
  128.2560  130.3480   66.8660 C   0  0  0  0  0  0  0  0  0  0  0  0
  128.5230  129.8200   68.1270 C   0  0  0  0  0  0  0  0  0  0  0  0
  130.1900  128.0990   70.2900 C   0  0  0  0  0  0  0  0  0  0  0  0
  130.4640  127.5750   71.5500 C   0  0  0  0  0  0  0  0  0  0  0  0
  129.7110  126.4074   73.2046 H   0  0  0  0  0  0  0  0  0  0  0  0
  127.5001  125.9896   72.1366 H   0  0  0  0  0  0  0  0  0  0  0  0
  127.0139  126.9261   69.8853 H   0  0  0  0  0  0  0  0  0  0  0  0
  128.6182  126.5107   67.3256 H   0  0  0  0  0  0  0  0  0  0  0  0
  128.1362  127.4485   65.0795 H   0  0  0  0  0  0  0  0  0  0  0  0
  128.9442  133.6560   61.7783 H   0  0  0  0  0  0  0  0  0  0  0  0
  127.6090  135.6460   60.9280 H   0  0  0  0  0  0  0  0  0  0  0  0
  124.8528  136.4935   60.8274 H   0  0  0  0  0  0  0  0  0  0  0  0
  122.5790  135.6921   61.5024 H   0  0  0  0  0  0  0  0  0  0  0  0
  122.2720  133.5238   62.6359 H   0  0  0  0  0  0  0  0  0  0  0  0
  124.2175  132.0537   63.1436 H   0  0  0  0  0  0  0  0  0  0  0  0
  127.5610  130.3630   61.2670 H   0  0  0  0  0  0  0  0  0  0  0  0
  126.4773  127.9574   61.3906 H   0  0  0  0  0  0  0  0  0  0  0  0
  126.9066  125.6184   60.6853 H   0  0  0  0  0  0  0  0  0  0  0  0
  130.0885  123.4724   63.2630 H   0  0  0  0  0  0  0  0  0  0  0  0
  130.4898  121.1153   62.5742 H   0  0  0  0  0  0  0  0  0  0  0  0
  129.5552  120.2728   60.4265 H   0  0  0  0  0  0  0  0  0  0  0  0
  128.2173  121.7788   58.9633 H   0  0  0  0  0  0  0  0  0  0  0  0
  127.8172  124.1365   59.6455 H   0  0  0  0  0  0  0  0  0  0  0  0
  130.3983  125.4958   63.2258 H   0  0  0  0  0  0  0  0  0  0  0  0
  129.9661  127.8344   63.9340 H   0  0  0  0  0  0  0  0  0  0  0  0
  128.1454  131.4352   66.7401 H   0  0  0  0  0  0  0  0  0  0  0  0
  128.6270  130.4973   68.9875 H   0  0  0  0  0  0  0  0  0  0  0  0
  130.9550  128.6966   69.7727 H   0  0  0  0  0  0  0  0  0  0  0  0
  131.4403  127.7560   72.0234 H   0  0  0  0  0  0  0  0  0  0  0  0
  1  2  2  0
  2  3  1  0
  3  4  2  0
  4  5  1  0
  5  6  2  0
  6  7  1  0
  7  8  2  0
  8  9  1  0
  9 10  1  0
 10 11  2  0
 11 12  1  0
 12 13  2  0
 13 14  1  0
 14 15  1  0
 15 16  2  0
 16 17  1  0
 17 18  2  0
 18 19  1  0
 19 20  2  0
 11 21  1  0
 21 22  1  0
 22 23  1  0
 23 24  2  0
 24 25  1  0
 25 26  2  0
 26 27  1  0
 27 28  2  0
 28 29  1  0
 29 30  2  0
 30 31  1  0
 31 32  2  0
 26 33  1  0
 33 34  2  0
  8 35  1  0
 35 36  2  0
  4 37  1  0
 37 38  2  0
 38  1  1  0
 36  5  1  0
 22  9  2  0
 34 23  1  0
 20 12  1  0
 32 27  1  0
 20 15  1  0
  1 39  1  0
  2 40  1  0
  3 41  1  0
  6 42  1  0
  7 43  1  0
 13 44  1  0
 14 45  1  0
 16 46  1  0
 17 47  1  0
 18 48  1  0
 19 49  1  0
 21 50  1  0
 24 51  1  0
 25 52  1  0
 28 53  1  0
 29 54  1  0
 30 55  1  0
 31 56  1  0
 32 57  1  0
 33 58  1  0
 34 59  1  0
 35 60  1  0
 36 61  1  0
 37 62  1  0
 38 63  1  0
M  END
>  <Binding energies>  (1) 
[-9.87]

>  <Ligand effiencies>  (1) 
[-0.24674999999999997]

>  <Interactions>  (1) 
["V-B:GLU:543:C:9874, V-A:GLU:543:CD:4908, V-A:GLU:543:C:4902, V-A:HIS:456:CE1:4070, V-A:GLU:543:CB:4906, V-B:HIS:456:CE1:9041, V-A:GLY:544:C:4912, V-B:GLU:543:CB:9878, V-B:TYR:539:CE2:9848, V-A:LEU:475:CD2:4259, V-B:TYR:539:CD2:9846, V-B:PRO:540:CA:9855, V-B:TYR:484:CE2:9317, V-A:HIS:456:CD2:4068, V-B:TYR:484:CZ:9318, V-B:GLU:543:CD:9880, V-A:GLU:543:CG:4907, V-A:GLU:543:CA:4904, V-B:ALA:541:CB:9864, V-A:TYR:539:CD1:4873, V-B:GLY:454:CA:9020, V-B:LEU:475:CD2:9230, V-A:ALA:541:CB:4892, V-B:ILE:369:CG2:8208, V-B:PRO:540:N:9856, V-B:ILE:369:CG1:8209, V-A:TYR:539:CE1:4875, V-A:TYR:539:C:4867, V-B:TYR:539:C:9839, H-B:TYR:484:OH:9319, H-A:TYR:539:O:4868, V-B:SER:385:CA:8378, V-B:SER:385:CB:8380, V-B:SER:385:C:8376"]

$$$$
RR4_Rahimova_2017
     RDKit          3D

 66 70  0  0  0  0  0  0  0  0999 V2000
  128.3200  128.7090   74.0180 C   0  0  0  0  0  0  0  0  0  0  0  0
  128.2810  127.4420   73.3730 O   0  0  0  0  0  0  0  0  0  0  0  0
  128.5160  127.3700   72.0130 C   0  0  0  0  0  0  0  0  0  0  0  0
  127.4330  127.0250   71.2080 C   0  0  0  0  0  0  0  0  0  0  0  0
  127.5760  126.9300   69.8270 C   0  0  0  0  0  0  0  0  0  0  0  0
  128.8120  127.1740   69.2090 C   0  0  0  0  0  0  0  0  0  0  0  0
  128.9630  127.0700   67.7190 C   0  0  0  0  0  0  0  0  0  0  0  0
  129.8420  126.1690   67.1080 C   0  0  0  0  0  0  0  0  0  0  0  0
  129.9440  126.1060   65.7120 C   0  0  0  0  0  0  0  0  0  0  0  0
  130.8830  125.1000   65.1310 C   0  0  0  0  0  0  0  0  0  0  0  0
  130.4150  123.8360   64.7590 C   0  0  0  0  0  0  0  0  0  0  0  0
  131.2810  122.8960   64.2060 C   0  0  0  0  0  0  0  0  0  0  0  0
  132.6260  123.2030   64.0070 C   0  0  0  0  0  0  0  0  0  0  0  0
  133.4090  122.2090   63.4520 O   0  0  0  0  0  0  0  0  0  0  0  0
  133.7930  122.3090   62.0840 C   0  0  0  0  0  0  0  0  0  0  0  0
  133.0990  124.4720   64.3740 C   0  0  0  0  0  0  0  0  0  0  0  0
  132.2320  125.4100   64.9270 C   0  0  0  0  0  0  0  0  0  0  0  0
  129.1600  126.9960   64.9370 C   0  0  0  0  0  0  0  0  0  0  0  0
  129.2270  126.9710   63.4730 C   0  0  0  0  0  0  0  0  0  0  0  0
  129.2810  126.9530   62.3180 N   0  0  0  0  0  0  0  0  0  0  0  0
  128.3150  127.9000   65.6210 C   0  0  0  0  0  0  0  0  0  0  0  0
  127.2710  129.0930   64.8120 S   0  0  0  0  0  0  0  0  0  0  0  0
  128.3500  130.2760   63.9390 C   0  0  0  0  0  0  0  0  0  0  0  0
  127.7770  131.6950   63.8210 C   0  0  0  0  0  0  0  0  0  0  0  0
  127.9090  132.5020   64.7440 O   0  0  0  0  0  0  0  0  0  0  0  0
  127.1310  131.9500   62.6600 N   0  0  0  0  0  0  0  0  0  0  0  0
  126.5090  133.1330   62.2540 C   0  0  0  0  0  0  0  0  0  0  0  0
  127.3970  134.5410   61.7340 S   0  0  0  0  0  0  0  0  0  0  0  0
  125.9320  135.4320   61.4590 C   0  0  0  0  0  0  0  0  0  0  0  0
  124.7960  134.6650   61.7630 C   0  0  0  0  0  0  0  0  0  0  0  0
  125.1250  133.3590   62.1980 C   0  0  0  0  0  0  0  0  0  0  0  0
  124.1270  132.3560   62.5580 C   0  0  0  0  0  0  0  0  0  0  0  0
  123.3350  131.5620   62.8440 N   0  0  0  0  0  0  0  0  0  0  0  0
  123.3790  135.2170   61.5660 C   0  0  0  0  0  0  0  0  0  0  0  0
  123.4020  136.4690   60.6600 C   0  0  0  0  0  0  0  0  0  0  0  0
  124.5130  137.4550   61.0620 C   0  0  0  0  0  0  0  0  0  0  0  0
  125.9200  136.8450   60.8880 C   0  0  0  0  0  0  0  0  0  0  0  0
  128.2110  127.9170   66.9710 N   0  0  0  0  0  0  0  0  0  0  0  0
  129.8960  127.5250   70.0290 C   0  0  0  0  0  0  0  0  0  0  0  0
  129.7560  127.6210   71.4100 C   0  0  0  0  0  0  0  0  0  0  0  0
  128.3156  128.5655   75.1086 H   0  0  0  0  0  0  0  0  0  0  0  0
  129.2350  129.2431   73.7221 H   0  0  0  0  0  0  0  0  0  0  0  0
  127.4396  129.2983   73.7221 H   0  0  0  0  0  0  0  0  0  0  0  0
  126.4543  126.8255   71.6687 H   0  0  0  0  0  0  0  0  0  0  0  0
  126.7064  126.6594   69.2101 H   0  0  0  0  0  0  0  0  0  0  0  0
  130.4590  125.5036   67.7297 H   0  0  0  0  0  0  0  0  0  0  0  0
  129.3546  123.5821   64.9043 H   0  0  0  0  0  0  0  0  0  0  0  0
  130.9005  121.9032   63.9240 H   0  0  0  0  0  0  0  0  0  0  0  0
  134.8557  122.5858   62.0208 H   0  0  0  0  0  0  0  0  0  0  0  0
  133.6362  121.3401   61.5874 H   0  0  0  0  0  0  0  0  0  0  0  0
  133.1836  123.0784   61.5874 H   0  0  0  0  0  0  0  0  0  0  0  0
  134.1586  124.7264   64.2242 H   0  0  0  0  0  0  0  0  0  0  0  0
  132.6109  126.4042   65.2062 H   0  0  0  0  0  0  0  0  0  0  0  0
  129.3047  130.3354   64.4822 H   0  0  0  0  0  0  0  0  0  0  0  0
  128.4613  129.8979   62.9120 H   0  0  0  0  0  0  0  0  0  0  0  0
  127.0970  131.1990   61.9870 H   0  0  0  0  0  0  0  0  0  0  0  0
  122.7521  134.4439   61.0978 H   0  0  0  0  0  0  0  0  0  0  0  0
  122.9690  135.4978   62.5474 H   0  0  0  0  0  0  0  0  0  0  0  0
  123.5691  136.1512   59.6202 H   0  0  0  0  0  0  0  0  0  0  0  0
  122.4363  136.9841   60.7700 H   0  0  0  0  0  0  0  0  0  0  0  0
  124.4353  138.3533   60.4320 H   0  0  0  0  0  0  0  0  0  0  0  0
  124.3793  137.7014   62.1257 H   0  0  0  0  0  0  0  0  0  0  0  0
  126.1759  136.8111   59.8187 H   0  0  0  0  0  0  0  0  0  0  0  0
  126.6575  137.4633   61.4206 H   0  0  0  0  0  0  0  0  0  0  0  0
  130.8752  127.7281   69.5708 H   0  0  0  0  0  0  0  0  0  0  0  0
  130.6218  127.8949   72.0308 H   0  0  0  0  0  0  0  0  0  0  0  0
  1  2  1  0
  2  3  1  0
  3  4  2  0
  4  5  1  0
  5  6  2  0
  6  7  1  0
  7  8  2  0
  8  9  1  0
  9 10  1  0
 10 11  2  0
 11 12  1  0
 12 13  2  0
 13 14  1  0
 14 15  1  0
 13 16  1  0
 16 17  2  0
  9 18  2  0
 18 19  1  0
 19 20  3  0
 18 21  1  0
 21 22  1  0
 22 23  1  0
 23 24  1  0
 24 25  2  0
 24 26  1  0
 26 27  1  0
 27 28  1  0
 28 29  1  0
 29 30  2  0
 30 31  1  0
 31 32  1  0
 32 33  3  0
 30 34  1  0
 34 35  1  0
 35 36  1  0
 36 37  1  0
 21 38  2  0
  6 39  1  0
 39 40  2  0
 40  3  1  0
 38  7  1  0
 17 10  1  0
 31 27  2  0
 37 29  1  0
  1 41  1  0
  1 42  1  0
  1 43  1  0
  4 44  1  0
  5 45  1  0
  8 46  1  0
 11 47  1  0
 12 48  1  0
 15 49  1  0
 15 50  1  0
 15 51  1  0
 16 52  1  0
 17 53  1  0
 23 54  1  0
 23 55  1  0
 26 56  1  0
 34 57  1  0
 34 58  1  0
 35 59  1  0
 35 60  1  0
 36 61  1  0
 36 62  1  0
 37 63  1  0
 37 64  1  0
 39 65  1  0
 40 66  1  0
M  END
>  <Binding energies>  (1) 
[-11.03]

>  <Ligand effiencies>  (1) 
[-0.2690243902439024]

>  <Interactions>  (1) 
["V-B:GLU:543:C:9874, V-A:GLU:543:CD:4908, V-A:HIS:456:CE1:4070, V-B:GLY:544:C:9884, V-B:HIS:456:CE1:9041, V-B:HIS:456:CD2:9039, V-B:GLU:543:CB:9878, V-A:LEU:475:CD2:4259, H-B:LYS:547:NZ:9923, V-B:GLY:544:CA:9886, V-B:GLU:543:CG:9879, V-B:GLU:543:CD:9880, V-A:GLU:543:CG:4907, V-A:TYR:484:CE2:4346, V-A:TYR:484:CZ:4347, V-A:ILE:369:CD1:3239, V-A:TYR:539:CD1:4873, V-B:GLY:454:CA:9020, V-B:LEU:475:CD2:9230, V-B:ILE:369:CG2:8208, V-A:TYR:539:CE1:4875, H-B:TYR:484:OH:9319, H-B:GLY:454:N:9021, V-A:ARG:545:CZ:4926, H-A:GLY:454:N:4050, H-A:TYR:484:OH:4348, V-A:GLY:454:CA:4049, V-A:TYR:539:CG:4872, V-B:SER:385:CA:8378, V-B:HIS:383:CD2:8363, V-B:SER:385:CB:8380, V-A:TYR:539:CB:4871, V-B:LEU:373:CD1:8251, V-B:SER:385:C:8376"]

$$$$
RR5_Rahimova_2017
     RDKit          3D

 77 82  0  0  0  0  0  0  0  0999 V2000
  131.1490  129.3890   59.4270 O   0  0  0  0  0  0  0  0  0  0  0  0
  130.0190  129.3960   59.9130 C   0  0  0  0  0  0  0  0  0  0  0  0
  129.8430  129.2510   61.4360 C   0  0  0  0  0  0  0  0  0  0  0  0
  128.5720  129.9780   62.0040 C   0  0  2  0  0  0  0  0  0  0  0  0
  128.3520  131.3440   61.4870 N   0  0  0  0  0  0  0  0  0  0  0  0
  129.3410  132.3160   61.5560 C   0  0  0  0  0  0  0  0  0  0  0  0
  130.4880  132.1710   61.9870 O   0  0  0  0  0  0  0  0  0  0  0  0
  128.8370  133.4680   61.0810 O   0  0  0  0  0  0  0  0  0  0  0  0
  127.5190  133.5370   60.5450 C   0  0  0  0  0  0  0  0  0  0  0  0
  126.5000  133.9240   61.6400 C   0  0  0  0  0  0  0  0  0  0  0  0
  125.6820  135.1570   61.3020 C   0  0  0  0  0  0  0  0  0  0  0  0
  126.1090  136.4550   61.0060 C   0  0  0  0  0  0  0  0  0  0  0  0
  125.1710  137.4420   60.6980 C   0  0  0  0  0  0  0  0  0  0  0  0
  123.8090  137.1370   60.6860 C   0  0  0  0  0  0  0  0  0  0  0  0
  123.3800  135.8420   60.9840 C   0  0  0  0  0  0  0  0  0  0  0  0
  124.3190  134.8560   61.2930 C   0  0  0  0  0  0  0  0  0  0  0  0
  124.1530  133.4380   61.6470 C   0  0  0  0  0  0  0  0  0  0  0  0
  123.0050  132.6540   61.7900 C   0  0  0  0  0  0  0  0  0  0  0  0
  123.1270  131.3150   62.1630 C   0  0  0  0  0  0  0  0  0  0  0  0
  124.3890  130.7620   62.3900 C   0  0  0  0  0  0  0  0  0  0  0  0
  125.5320  131.5470   62.2430 C   0  0  0  0  0  0  0  0  0  0  0  0
  125.4160  132.8870   61.8660 C   0  0  0  0  0  0  0  0  0  0  0  0
  128.6000  130.0050   63.5530 C   0  0  0  0  0  0  0  0  0  0  0  0
  128.1510  129.1320   64.2680 O   0  0  0  0  0  0  0  0  0  0  0  0
  129.2210  131.1440   63.9810 O   0  0  0  0  0  0  0  0  0  0  0  0
  128.8770  129.5560   59.2070 N   0  0  0  0  0  0  0  0  0  0  0  0
  128.5840  129.7310   57.7530 C   0  0  0  0  0  0  0  0  0  0  0  0
  129.6010  130.8500   57.3470 C   0  0  0  0  0  0  0  0  0  0  0  0
  129.4800  132.1630   57.8310 C   0  0  0  0  0  0  0  0  0  0  0  0
  130.3920  133.1490   57.4640 C   0  0  0  0  0  0  0  0  0  0  0  0
  131.4350  132.8410   56.5970 C   0  0  0  0  0  0  0  0  0  0  0  0
  131.5800  131.5490   56.1030 C   0  0  0  0  0  0  0  0  0  0  0  0
  130.6740  130.5620   56.4790 C   0  0  0  0  0  0  0  0  0  0  0  0
  128.8780  128.3650   57.0500 C   0  0  0  0  0  0  0  0  0  0  0  0
  128.2650  128.0110   55.8370 C   0  0  0  0  0  0  0  0  0  0  0  0
  128.5270  126.7810   55.2390 C   0  0  0  0  0  0  0  0  0  0  0  0
  129.4040  125.8880   55.8460 C   0  0  0  0  0  0  0  0  0  0  0  0
  130.0270  126.2170   57.0450 C   0  0  0  0  0  0  0  0  0  0  0  0
  129.7710  127.4500   57.6370 C   0  0  0  0  0  0  0  0  0  0  0  0
  127.0930  130.2040   57.6650 C   0  0  0  0  0  0  0  0  0  0  0  0
  126.5490  130.6590   56.4500 C   0  0  0  0  0  0  0  0  0  0  0  0
  125.2270  131.0880   56.3660 C   0  0  0  0  0  0  0  0  0  0  0  0
  124.4210  131.0620   57.4980 C   0  0  0  0  0  0  0  0  0  0  0  0
  124.9260  130.6040   58.7090 C   0  0  0  0  0  0  0  0  0  0  0  0
  126.2480  130.1770   58.7890 C   0  0  0  0  0  0  0  0  0  0  0  0
  129.7646  128.1801   61.6748 H   0  0  0  0  0  0  0  0  0  0  0  0
  130.7175  129.7264   61.9042 H   0  0  0  0  0  0  0  0  0  0  0  0
  127.7232  129.3782   61.6437 H   0  0  0  0  0  0  0  0  0  0  0  0
  127.4120  131.6160   61.2390 H   0  0  0  0  0  0  0  0  0  0  0  0
  127.4939  134.2926   59.7460 H   0  0  0  0  0  0  0  0  0  0  0  0
  127.2488  132.5481   60.1461 H   0  0  0  0  0  0  0  0  0  0  0  0
  127.1600  134.0592   62.5095 H   0  0  0  0  0  0  0  0  0  0  0  0
  127.1818  136.6980   61.0158 H   0  0  0  0  0  0  0  0  0  0  0  0
  125.5063  138.4632   60.4641 H   0  0  0  0  0  0  0  0  0  0  0  0
  123.0731  137.9172   60.4416 H   0  0  0  0  0  0  0  0  0  0  0  0
  122.3070  135.5998   60.9753 H   0  0  0  0  0  0  0  0  0  0  0  0
  122.0113  133.0898   61.6096 H   0  0  0  0  0  0  0  0  0  0  0  0
  122.2268  130.6935   62.2785 H   0  0  0  0  0  0  0  0  0  0  0  0
  124.4815  129.7063   62.6850 H   0  0  0  0  0  0  0  0  0  0  0  0
  126.5255  131.1108   62.4240 H   0  0  0  0  0  0  0  0  0  0  0  0
  130.1680  131.1200   63.8320 H   0  0  0  0  0  0  0  0  0  0  0  0
  128.0360  129.4380   59.7530 H   0  0  0  0  0  0  0  0  0  0  0  0
  128.6525  132.4161   58.5101 H   0  0  0  0  0  0  0  0  0  0  0  0
  130.2877  134.1702   57.8592 H   0  0  0  0  0  0  0  0  0  0  0  0
  132.1490  133.6234   56.3004 H   0  0  0  0  0  0  0  0  0  0  0  0
  132.4068  131.3085   55.4184 H   0  0  0  0  0  0  0  0  0  0  0  0
  130.7971  129.5396   56.0924 H   0  0  0  0  0  0  0  0  0  0  0  0
  127.5699  128.7134   55.3538 H   0  0  0  0  0  0  0  0  0  0  0  0
  128.0413  126.5160   54.2883 H   0  0  0  0  0  0  0  0  0  0  0  0
  129.6061  124.9150   55.3744 H   0  0  0  0  0  0  0  0  0  0  0  0
  130.7180  125.5068   57.5226 H   0  0  0  0  0  0  0  0  0  0  0  0
  130.2748  127.7134   58.5787 H   0  0  0  0  0  0  0  0  0  0  0  0
  127.1801  130.6762   55.5492 H   0  0  0  0  0  0  0  0  0  0  0  0
  124.8223  131.4459   55.4078 H   0  0  0  0  0  0  0  0  0  0  0  0
  123.3780  131.4057   57.4350 H   0  0  0  0  0  0  0  0  0  0  0  0
  124.2830  130.5791   59.6011 H   0  0  0  0  0  0  0  0  0  0  0  0
  126.6396  129.8114   59.7497 H   0  0  0  0  0  0  0  0  0  0  0  0
  1  2  2  0
  2  3  1  0
  3  4  1  0
  4  5  1  0
  5  6  1  0
  6  7  2  0
  6  8  1  0
  8  9  1  0
  9 10  1  0
 10 11  1  0
 11 12  2  0
 12 13  1  0
 13 14  2  0
 14 15  1  0
 15 16  2  0
 16 17  1  0
 17 18  2  0
 18 19  1  0
 19 20  2  0
 20 21  1  0
 21 22  2  0
  4 23  1  0
 23 24  2  0
 23 25  1  0
  2 26  1  0
 26 27  1  0
 27 28  1  0
 28 29  2  0
 29 30  1  0
 30 31  2  0
 31 32  1  0
 32 33  2  0
 27 34  1  0
 34 35  2  0
 35 36  1  0
 36 37  2  0
 37 38  1  0
 38 39  2  0
 27 40  1  0
 40 41  2  0
 41 42  1  0
 42 43  2  0
 43 44  1  0
 44 45  2  0
 22 10  1  0
 33 28  1  0
 39 34  1  0
 45 40  1  0
 16 11  1  0
 22 17  1  0
  3 46  1  0
  3 47  1  0
  4 48  1  1
  5 49  1  0
  9 50  1  0
  9 51  1  0
 10 52  1  0
 12 53  1  0
 13 54  1  0
 14 55  1  0
 15 56  1  0
 18 57  1  0
 19 58  1  0
 20 59  1  0
 21 60  1  0
 25 61  1  0
 26 62  1  0
 29 63  1  0
 30 64  1  0
 31 65  1  0
 32 66  1  0
 33 67  1  0
 35 68  1  0
 36 69  1  0
 37 70  1  0
 38 71  1  0
 39 72  1  0
 41 73  1  0
 42 74  1  0
 43 75  1  0
 44 76  1  0
 45 77  1  0
M  END
>  <Binding energies>  (1) 
[-10.02]

>  <Ligand effiencies>  (1) 
[-0.20875]

>  <Interactions>  (1) 
["V-A:GLU:543:CD:4908, V-B:ASP:366:CB:8183, V-B:TYR:539:CZ:9849, V-A:GLU:543:CG:4907, V-A:TYR:539:CD1:4873, V-A:LEU:363:CD1:3189, V-A:TYR:531:CE2:4793, V-A:ILE:538:CG2:4863, V-A:ILE:538:CB:4862, V-A:TYR:531:CZ:4794, H-A:GLU:543:OE1:4909, V-B:LEU:475:CD2:9230, V-A:PRO:540:CA:4883, V-B:ILE:369:CG2:8208, V-A:PRO:540:CB:4885, V-B:ILE:369:CG1:8209, V-A:TYR:539:CE1:4875, V-A:TYR:539:C:4867, V-B:ILE:369:CB:8207, V-A:PRO:540:N:4884, V-A:MET:535:CE:4835, H-A:ALA:541:N:4891, V-B:TYR:531:CZ:9766, V-A:PRO:540:CD:4887, V-A:ILE:538:CA:4860, V-A:TYR:539:CZ:4877, V-B:SER:385:CA:8378, V-B:HIS:383:CD2:8363, V-B:SER:385:CB:8380, V-B:LEU:373:CD1:8251, V-A:TYR:539:CA:4869, V-B:SER:385:C:8376, V-B:TYR:531:CE1:9764, V-B:VAL:384:C:8368"]

$$$$
RR5_Rahimova_2017-again1
     RDKit          3D

 76 81  0  0  0  0  0  0  0  0999 V2000
  129.4340  129.9940   58.3710 O   0  0  0  0  0  0  0  0  0  0  0  0
  130.6510  129.8070   58.3460 C   0  0  0  0  0  0  0  0  0  0  0  0
  131.5870  131.0260   58.2060 C   0  0  0  0  0  0  0  0  0  0  0  0
  130.9750  132.4240   58.5460 C   0  0  2  0  0  0  0  0  0  0  0  0
  129.7790  132.2360   59.3940 N   0  0  0  0  0  0  0  0  0  0  0  0
  129.8560  132.2670   60.7820 C   0  0  0  0  0  0  0  0  0  0  0  0
  130.8780  132.4240   61.4580 O   0  0  0  0  0  0  0  0  0  0  0  0
  128.6200  132.0960   61.2870 O   0  0  0  0  0  0  0  0  0  0  0  0
  127.4660  132.4360   60.5260 C   0  0  0  0  0  0  0  0  0  0  0  0
  126.6220  131.1760   60.2530 C   0  0  0  0  0  0  0  0  0  0  0  0
  125.2990  131.1590   60.9990 C   0  0  0  0  0  0  0  0  0  0  0  0
  125.0500  131.2020   62.3730 C   0  0  0  0  0  0  0  0  0  0  0  0
  123.7350  131.1900   62.8430 C   0  0  0  0  0  0  0  0  0  0  0  0
  122.6690  131.1320   61.9440 C   0  0  0  0  0  0  0  0  0  0  0  0
  122.9150  131.0830   60.5710 C   0  0  0  0  0  0  0  0  0  0  0  0
  124.2300  131.0960   60.1030 C   0  0  0  0  0  0  0  0  0  0  0  0
  124.7710  131.0430   58.7360 C   0  0  0  0  0  0  0  0  0  0  0  0
  124.1320  130.9630   57.4970 C   0  0  0  0  0  0  0  0  0  0  0  0
  124.8940  130.9120   56.3290 C   0  0  0  0  0  0  0  0  0  0  0  0
  126.2880  130.9420   56.3990 C   0  0  0  0  0  0  0  0  0  0  0  0
  126.9250  131.0240   57.6390 C   0  0  0  0  0  0  0  0  0  0  0  0
  126.1640  131.0780   58.8110 C   0  0  0  0  0  0  0  0  0  0  0  0
  130.6470  133.2610   57.2440 C   0  0  0  0  0  0  0  0  0  0  0  0
  131.6570  133.6860   56.6360 O   0  0  0  0  0  0  0  0  0  0  0  0
  129.4370  133.3780   56.9370 O   0  0  0  0  0  0  0  0  0  0  0  0
  131.2110  128.5980   58.5590 N   0  0  0  0  0  0  0  0  0  0  0  0
  130.5630  127.2740   58.7440 C   0  0  0  0  0  0  0  0  0  0  0  0
  129.8320  126.8470   57.4320 C   0  0  0  0  0  0  0  0  0  0  0  0
  129.6350  125.4890   57.1240 C   0  0  0  0  0  0  0  0  0  0  0  0
  128.9720  125.1060   55.9610 C   0  0  0  0  0  0  0  0  0  0  0  0
  128.4920  126.0780   55.0900 C   0  0  0  0  0  0  0  0  0  0  0  0
  128.6690  127.4280   55.3730 C   0  0  0  0  0  0  0  0  0  0  0  0
  129.3330  127.8100   56.5360 C   0  0  0  0  0  0  0  0  0  0  0  0
  131.5400  126.0870   59.0230 C   0  0  0  0  0  0  0  0  0  0  0  0
  132.6050  125.8090   58.1490 C   0  0  0  0  0  0  0  0  0  0  0  0
  133.4770  124.7510   58.3940 C   0  0  0  0  0  0  0  0  0  0  0  0
  133.2990  123.9590   59.5230 C   0  0  0  0  0  0  0  0  0  0  0  0
  132.2580  124.2200   60.4100 C   0  0  0  0  0  0  0  0  0  0  0  0
  131.3890  125.2780   60.1610 C   0  0  0  0  0  0  0  0  0  0  0  0
  129.5300  127.5110   59.9000 C   0  0  0  0  0  0  0  0  0  0  0  0
  129.9110  128.0860   61.1250 C   0  0  0  0  0  0  0  0  0  0  0  0
  128.9790  128.3060   62.1340 C   0  0  0  0  0  0  0  0  0  0  0  0
  127.6460  127.9670   61.9290 C   0  0  0  0  0  0  0  0  0  0  0  0
  127.2380  127.4180   60.7180 C   0  0  0  0  0  0  0  0  0  0  0  0
  128.1730  127.1980   59.7100 C   0  0  0  0  0  0  0  0  0  0  0  0
  132.4450  130.8660   58.8755 H   0  0  0  0  0  0  0  0  0  0  0  0
  131.8411  131.0740   57.1368 H   0  0  0  0  0  0  0  0  0  0  0  0
  131.7204  133.0111   59.1025 H   0  0  0  0  0  0  0  0  0  0  0  0
  128.8780  132.1480   58.9470 H   0  0  0  0  0  0  0  0  0  0  0  0
  126.8618  133.1642   61.0869 H   0  0  0  0  0  0  0  0  0  0  0  0
  127.7826  132.8722   59.5671 H   0  0  0  0  0  0  0  0  0  0  0  0
  127.3027  130.3686   60.5608 H   0  0  0  0  0  0  0  0  0  0  0  0
  125.8885  131.2452   63.0836 H   0  0  0  0  0  0  0  0  0  0  0  0
  123.5388  131.2264   63.9248 H   0  0  0  0  0  0  0  0  0  0  0  0
  121.6345  131.1249   62.3177 H   0  0  0  0  0  0  0  0  0  0  0  0
  122.0763  131.0344   59.8609 H   0  0  0  0  0  0  0  0  0  0  0  0
  123.0336  130.9403   57.4419 H   0  0  0  0  0  0  0  0  0  0  0  0
  124.3950  130.8480   55.3508 H   0  0  0  0  0  0  0  0  0  0  0  0
  126.8853  130.9010   55.4762 H   0  0  0  0  0  0  0  0  0  0  0  0
  128.0234  131.0461   57.6938 H   0  0  0  0  0  0  0  0  0  0  0  0
  132.2140  128.5510   58.4530 H   0  0  0  0  0  0  0  0  0  0  0  0
  130.0104  124.7176   57.8124 H   0  0  0  0  0  0  0  0  0  0  0  0
  128.8286  124.0396   55.7323 H   0  0  0  0  0  0  0  0  0  0  0  0
  127.9686  125.7769   54.1706 H   0  0  0  0  0  0  0  0  0  0  0  0
  128.2857  128.1918   54.6804 H   0  0  0  0  0  0  0  0  0  0  0  0
  129.4691  128.8789   56.7570 H   0  0  0  0  0  0  0  0  0  0  0  0
  132.7521  126.4367   57.2577 H   0  0  0  0  0  0  0  0  0  0  0  0
  134.3027  124.5429   57.6976 H   0  0  0  0  0  0  0  0  0  0  0  0
  133.9849  123.1211   59.7165 H   0  0  0  0  0  0  0  0  0  0  0  0
  132.1231  123.5928   61.3035 H   0  0  0  0  0  0  0  0  0  0  0  0
  130.5708  125.4839   60.8668 H   0  0  0  0  0  0  0  0  0  0  0  0
  130.9621  128.3662   61.2881 H   0  0  0  0  0  0  0  0  0  0  0  0
  129.2954  128.7467   63.0909 H   0  0  0  0  0  0  0  0  0  0  0  0
  126.9100  128.1340   62.7293 H   0  0  0  0  0  0  0  0  0  0  0  0
  126.1812  127.1587   60.5572 H   0  0  0  0  0  0  0  0  0  0  0  0
  127.8446  126.7727   58.7502 H   0  0  0  0  0  0  0  0  0  0  0  0
  1  2  2  0
  2  3  1  0
  3  4  1  0
  4  5  1  0
  5  6  1  0
  6  7  2  0
  6  8  1  0
  8  9  1  0
  9 10  1  0
 10 11  1  0
 11 12  2  0
 12 13  1  0
 13 14  2  0
 14 15  1  0
 15 16  2  0
 16 17  1  0
 17 18  2  0
 18 19  1  0
 19 20  2  0
 20 21  1  0
 21 22  2  0
  4 23  1  0
 23 24  2  0
 23 25  1  0
  2 26  1  0
 26 27  1  0
 27 28  1  0
 28 29  2  0
 29 30  1  0
 30 31  2  0
 31 32  1  0
 32 33  2  0
 27 34  1  0
 34 35  2  0
 35 36  1  0
 36 37  2  0
 37 38  1  0
 38 39  2  0
 27 40  1  0
 40 41  2  0
 41 42  1  0
 42 43  2  0
 43 44  1  0
 44 45  2  0
 22 10  1  0
 33 28  1  0
 39 34  1  0
 45 40  1  0
 16 11  1  0
 22 17  1  0
  3 46  1  0
  3 47  1  0
  4 48  1  1
  5 49  1  0
  9 50  1  0
  9 51  1  0
 10 52  1  0
 12 53  1  0
 13 54  1  0
 14 55  1  0
 15 56  1  0
 18 57  1  0
 19 58  1  0
 20 59  1  0
 21 60  1  0
 26 61  1  0
 29 62  1  0
 30 63  1  0
 31 64  1  0
 32 65  1  0
 33 66  1  0
 35 67  1  0
 36 68  1  0
 37 69  1  0
 38 70  1  0
 39 71  1  0
 41 72  1  0
 42 73  1  0
 43 74  1  0
 44 75  1  0
 45 76  1  0
M  CHG  1  25  -1
M  END
>  <Binding energies>  (1) 
[-9.64]

>  <Ligand effiencies>  (1) 
[-0.2051063829787234]

>  <Interactions>  (1) 
["V-B:TYR:539:CE2:9848, V-B:ASP:366:CB:8183, V-A:ILE:369:CG2:3237, V-B:ASP:366:CG:8184, V-B:TYR:539:CZ:9849, V-B:TYR:539:CE1:9847, V-B:GLY:454:CA:9020, V-A:ILE:538:CB:4862, V-A:PRO:540:CA:4883, V-B:ILE:369:CG2:8208, V-A:PRO:540:CB:4885, H-A:ASP:366:OD2:3215, V-A:ASP:366:CB:3212, V-B:ILE:369:CG1:8209, V-A:TYR:539:CE1:4875, H-A:TYR:531:OH:4795, V-A:TYR:539:C:4867, H-A:TYR:539:N:4870, V-B:ILE:369:CB:8207, V-A:PRO:540:N:4884, V-A:MET:535:CE:4835, V-A:ASP:366:CG:3213, V-B:ASP:366:CA:8181, H-A:ALA:541:N:4891, V-B:TYR:531:CZ:9766, V-A:PRO:540:CD:4887, V-A:ILE:538:CA:4860, V-A:TYR:539:CZ:4877, V-A:ASP:366:CA:3210, V-B:ASP:366:C:8179, V-B:GLY:453:C:9013, V-A:ASP:366:C:3208, V-A:TYR:539:CA:4869, V-B:TYR:531:CE1:9764, V-B:GLY:453:CA:9015, V-B:MET:535:CG:9805"]

$$$$
RR6_Rahimova_2017
     RDKit          3D

 63 66  0  0  0  0  0  0  0  0999 V2000
  123.7400  129.8700   66.1870 C   0  0  0  0  0  0  0  0  0  0  0  0
  123.8860  129.9760   64.7780 O   0  0  0  0  0  0  0  0  0  0  0  0
  125.0770  129.7170   64.1780 C   0  0  0  0  0  0  0  0  0  0  0  0
  126.0810  129.3460   64.7930 O   0  0  0  0  0  0  0  0  0  0  0  0
  125.0500  129.9270   62.6910 C   0  0  0  0  0  0  0  0  0  0  0  0
  124.0810  130.7280   62.0710 C   0  0  0  0  0  0  0  0  0  0  0  0
  124.0780  130.8960   60.6880 C   0  0  0  0  0  0  0  0  0  0  0  0
  125.0480  130.2590   59.9000 C   0  0  0  0  0  0  0  0  0  0  0  0
  125.1210  130.3380   58.4970 N   0  0  0  0  0  0  0  0  0  0  0  0
  124.3850  131.0820   57.6420 C   0  0  0  0  0  0  0  0  0  0  0  0
  123.4900  131.8640   57.9640 O   0  0  0  0  0  0  0  0  0  0  0  0
  124.6770  130.8630   56.1540 C   0  0  0  0  0  0  0  0  0  0  0  0
  126.3370  131.4190   55.6420 S   0  0  0  0  0  0  0  0  0  0  0  0
  127.5100  130.4700   56.5870 C   0  0  0  0  0  0  0  0  0  0  0  0
  127.2610  129.1390   56.6100 N   0  0  0  0  0  0  0  0  0  0  0  0
  128.1030  128.3080   57.2750 C   0  0  0  0  0  0  0  0  0  0  0  0
  127.7910  126.8420   57.2000 C   0  0  0  0  0  0  0  0  0  0  0  0
  126.7430  126.2870   57.9520 C   0  0  0  0  0  0  0  0  0  0  0  0
  126.4610  124.9250   57.8930 C   0  0  0  0  0  0  0  0  0  0  0  0
  127.2210  124.0910   57.0740 C   0  0  0  0  0  0  0  0  0  0  0  0
  126.9170  122.6050   57.0200 C   0  0  0  0  0  0  0  0  0  0  0  0
  128.2640  124.6220   56.3190 C   0  0  0  0  0  0  0  0  0  0  0  0
  128.5410  125.9840   56.3810 C   0  0  0  0  0  0  0  0  0  0  0  0
  129.2210  128.8110   57.9490 C   0  0  0  0  0  0  0  0  0  0  0  0
  129.4970  130.1860   57.9430 C   0  0  0  0  0  0  0  0  0  0  0  0
  130.7170  130.6530   58.6670 C   0  0  0  0  0  0  0  0  0  0  0  0
  130.6400  131.0060   60.0180 C   0  0  0  0  0  0  0  0  0  0  0  0
  131.7760  131.4280   60.7050 C   0  0  0  0  0  0  0  0  0  0  0  0
  133.0090  131.4990   60.0580 C   0  0  0  0  0  0  0  0  0  0  0  0
  134.0800  131.9250   60.8190 O   0  0  0  0  0  0  0  0  0  0  0  0
  133.8340  132.5880   62.0540 C   0  0  0  0  0  0  0  0  0  0  0  0
  133.0920  131.1400   58.7040 C   0  0  0  0  0  0  0  0  0  0  0  0
  131.9550  130.7190   58.0210 C   0  0  0  0  0  0  0  0  0  0  0  0
  128.6140  131.0470   57.2470 C   0  0  0  0  0  0  0  0  0  0  0  0
  128.8290  132.4980   57.2250 C   0  0  0  0  0  0  0  0  0  0  0  0
  128.9990  133.6420   57.2070 N   0  0  0  0  0  0  0  0  0  0  0  0
  126.0250  129.4750   60.5150 C   0  0  0  0  0  0  0  0  0  0  0  0
  126.0230  129.3060   61.8980 C   0  0  0  0  0  0  0  0  0  0  0  0
  124.5347  130.4470   66.6824 H   0  0  0  0  0  0  0  0  0  0  0  0
  122.7584  130.2672   66.4848 H   0  0  0  0  0  0  0  0  0  0  0  0
  123.8138  128.8137   66.4848 H   0  0  0  0  0  0  0  0  0  0  0  0
  123.3157  131.2287   62.6823 H   0  0  0  0  0  0  0  0  0  0  0  0
  123.3139  131.5291   60.2133 H   0  0  0  0  0  0  0  0  0  0  0  0
  125.7600  129.6800   58.0760 H   0  0  0  0  0  0  0  0  0  0  0  0
  124.5888  129.7881   55.9375 H   0  0  0  0  0  0  0  0  0  0  0  0
  123.9488  131.4660   55.5917 H   0  0  0  0  0  0  0  0  0  0  0  0
  126.1356  126.9384   58.5976 H   0  0  0  0  0  0  0  0  0  0  0  0
  125.6388  124.5069   58.4924 H   0  0  0  0  0  0  0  0  0  0  0  0
  126.8362  122.2099   58.0434 H   0  0  0  0  0  0  0  0  0  0  0  0
  125.9673  122.4441   56.4887 H   0  0  0  0  0  0  0  0  0  0  0  0
  127.7272  122.0841   56.4887 H   0  0  0  0  0  0  0  0  0  0  0  0
  128.8676  123.9657   55.6749 H   0  0  0  0  0  0  0  0  0  0  0  0
  129.3629  126.3959   55.7770 H   0  0  0  0  0  0  0  0  0  0  0  0
  129.8887  128.1227   58.4878 H   0  0  0  0  0  0  0  0  0  0  0  0
  129.6747  130.9500   60.5424 H   0  0  0  0  0  0  0  0  0  0  0  0
  131.6997  131.7074   61.7662 H   0  0  0  0  0  0  0  0  0  0  0  0
  134.0837  131.9150   62.8875 H   0  0  0  0  0  0  0  0  0  0  0  0
  134.4561  133.4931   62.1145 H   0  0  0  0  0  0  0  0  0  0  0  0
  132.7720  132.8683   62.1145 H   0  0  0  0  0  0  0  0  0  0  0  0
  134.0584  131.1915   58.1811 H   0  0  0  0  0  0  0  0  0  0  0  0
  132.0312  130.4350   56.9610 H   0  0  0  0  0  0  0  0  0  0  0  0
  126.8003  128.9882   59.9051 H   0  0  0  0  0  0  0  0  0  0  0  0
  126.7929  128.6790   62.3714 H   0  0  0  0  0  0  0  0  0  0  0  0
  1  2  1  0
  2  3  1  0
  3  4  2  0
  3  5  1  0
  5  6  2  0
  6  7  1  0
  7  8  2  0
  8  9  1  0
  9 10  1  0
 10 11  2  0
 10 12  1  0
 12 13  1  0
 13 14  1  0
 14 15  2  0
 15 16  1  0
 16 17  1  0
 17 18  2  0
 18 19  1  0
 19 20  2  0
 20 21  1  0
 20 22  1  0
 22 23  2  0
 16 24  2  0
 24 25  1  0
 25 26  1  0
 26 27  2  0
 27 28  1  0
 28 29  2  0
 29 30  1  0
 30 31  1  0
 29 32  1  0
 32 33  2  0
 25 34  2  0
 34 35  1  0
 35 36  3  0
  8 37  1  0
 37 38  2  0
 38  5  1  0
 34 14  1  0
 23 17  1  0
 33 26  1  0
  1 39  1  0
  1 40  1  0
  1 41  1  0
  6 42  1  0
  7 43  1  0
  9 44  1  0
 12 45  1  0
 12 46  1  0
 18 47  1  0
 19 48  1  0
 21 49  1  0
 21 50  1  0
 21 51  1  0
 22 52  1  0
 23 53  1  0
 24 54  1  0
 27 55  1  0
 28 56  1  0
 31 57  1  0
 31 58  1  0
 31 59  1  0
 32 60  1  0
 33 61  1  0
 37 62  1  0
 38 63  1  0
M  END
>  <Binding energies>  (1) 
[-9.71]

>  <Ligand effiencies>  (1) 
[-0.248974358974359]

>  <Interactions>  (1) 
["V-B:ASP:366:CB:8183, V-B:ASP:366:CG:8184, V-B:TYR:539:CZ:9849, V-B:TYR:539:CE1:9847, V-B:PRO:540:CA:9855, V-B:ARG:545:CG:9894, V-A:TYR:539:CD1:4873, V-B:GLY:454:CA:9020, V-A:LEU:363:CD1:3189, V-A:PRO:540:CA:4883, V-A:PRO:540:CB:4885, V-A:ASP:366:CB:3212, H-B:ARG:545:NH2:9900, V-B:PRO:540:N:9856, V-A:TYR:539:CE1:4875, H-A:TYR:539:N:4870, V-B:TYR:539:C:9839, H-B:TYR:484:OH:9319, V-B:PRO:540:CD:9859, V-A:MET:535:CE:4835, H-B:TYR:531:OH:9767, H-B:GLY:454:N:9021, V-A:ASP:366:CG:3213, V-A:PRO:540:C:4881, V-B:TYR:531:CZ:9766, V-B:ARG:545:CZ:9898, H-B:ARG:545:NE:9896, V-A:TYR:539:CZ:4877, H-A:LEU:363:N:3186, V-A:ALA:541:C:4888, V-B:ARG:545:CD:9895, V-B:GLY:453:C:9013, H-A:TYR:539:OH:4878, V-A:ASN:362:CB:3176, V-A:ASN:362:C:3172, V-A:LEU:363:CA:3185, V-B:TYR:531:CE1:9764, V-B:GLY:454:C:9018"]

$$$$
RR7_Rahimova_2017
     RDKit          3D

 80 86  0  0  0  0  0  0  0  0999 V2000
  125.1820  129.9090   62.4750 C   0  0  0  0  0  0  0  0  0  0  0  0
  126.0750  129.8660   61.3660 O   0  0  0  0  0  0  0  0  0  0  0  0
  126.5190  128.6410   60.9060 C   0  0  0  0  0  0  0  0  0  0  0  0
  126.1010  128.2650   59.6310 C   0  0  0  0  0  0  0  0  0  0  0  0
  126.5010  127.0520   59.0820 C   0  0  0  0  0  0  0  0  0  0  0  0
  127.3250  126.1750   59.8040 C   0  0  0  0  0  0  0  0  0  0  0  0
  127.8160  124.8230   59.2000 C   0  0  0  0  0  0  0  0  0  0  0  0
  128.9670  125.1360   58.3840 O   0  0  0  0  0  0  0  0  0  0  0  0
  128.8790  126.1530   57.3800 C   0  0  0  0  0  0  0  0  0  0  0  0
  130.2450  126.8450   57.2480 C   0  0  1  0  0  0  0  0  0  0  0  0
  130.0010  128.2490   57.2700 O   0  0  0  0  0  0  0  0  0  0  0  0
  130.6760  128.8810   58.3190 C   0  0  1  0  0  0  0  0  0  0  0  0
  129.8980  130.0020   58.8100 N   0  0  0  0  0  0  0  0  0  0  0  0
  128.8090  130.6120   58.2110 C   0  0  0  0  0  0  0  0  0  0  0  0
  128.3200  131.6430   58.8540 N   0  0  0  0  0  0  0  0  0  0  0  0
  129.1490  131.7780   59.9350 C   0  0  0  0  0  0  0  0  0  0  0  0
  129.1690  132.7010   60.9980 C   0  0  0  0  0  0  0  0  0  0  0  0
  128.1790  133.7010   61.0430 N   0  0  0  0  0  0  0  0  0  0  0  0
  126.8670  133.5870   61.3570 C   0  0  0  0  0  0  0  0  0  0  0  0
  126.3120  132.5250   61.6490 O   0  0  0  0  0  0  0  0  0  0  0  0
  126.0670  134.8710   61.3010 C   0  0  0  0  0  0  0  0  0  0  0  0
  126.7320  136.1060   61.3330 C   0  0  0  0  0  0  0  0  0  0  0  0
  126.0160  137.2980   61.2770 C   0  0  0  0  0  0  0  0  0  0  0  0
  124.6290  137.2660   61.1840 C   0  0  0  0  0  0  0  0  0  0  0  0
  123.9490  136.0520   61.1470 C   0  0  0  0  0  0  0  0  0  0  0  0
  124.6650  134.8580   61.2040 C   0  0  0  0  0  0  0  0  0  0  0  0
  130.1470  132.6040   61.9480 N   0  0  0  0  0  0  0  0  0  0  0  0
  131.0620  131.6080   61.8160 C   0  0  0  0  0  0  0  0  0  0  0  0
  131.1330  130.6660   60.8380 N   0  0  0  0  0  0  0  0  0  0  0  0
  130.1590  130.7820   59.9260 C   0  0  0  0  0  0  0  0  0  0  0  0
  130.9410  127.7840   59.3440 C   0  0  0  0  0  0  0  0  0  0  0  0
  131.2090  126.6090   58.4200 C   0  0  2  0  0  0  0  0  0  0  0  0
  132.5640  126.5580   58.0040 O   0  0  0  0  0  0  0  0  0  0  0  0
  128.2930  123.8270   60.2920 C   0  0  0  0  0  0  0  0  0  0  0  0
  129.5740  123.2580   60.2200 C   0  0  0  0  0  0  0  0  0  0  0  0
  130.0060  122.3540   61.1850 C   0  0  0  0  0  0  0  0  0  0  0  0
  129.1600  122.0080   62.2340 C   0  0  0  0  0  0  0  0  0  0  0  0
  127.8850  122.5600   62.3250 C   0  0  0  0  0  0  0  0  0  0  0  0
  127.4530  123.4640   61.3580 C   0  0  0  0  0  0  0  0  0  0  0  0
  126.7740  124.0420   58.3500 C   0  0  0  0  0  0  0  0  0  0  0  0
  127.1940  123.2050   57.3040 C   0  0  0  0  0  0  0  0  0  0  0  0
  126.2690  122.5100   56.5310 C   0  0  0  0  0  0  0  0  0  0  0  0
  124.9090  122.6530   56.7910 C   0  0  0  0  0  0  0  0  0  0  0  0
  124.4690  123.4880   57.8130 C   0  0  0  0  0  0  0  0  0  0  0  0
  125.3960  124.1820   58.5850 C   0  0  0  0  0  0  0  0  0  0  0  0
  127.7550  126.5650   61.0810 C   0  0  0  0  0  0  0  0  0  0  0  0
  127.3550  127.7790   61.6300 C   0  0  0  0  0  0  0  0  0  0  0  0
  125.7586  129.8812   63.4114 H   0  0  0  0  0  0  0  0  0  0  0  0
  124.5921  130.8366   62.4350 H   0  0  0  0  0  0  0  0  0  0  0  0
  124.5057  129.0424   62.4350 H   0  0  0  0  0  0  0  0  0  0  0  0
  125.4477  128.9350   59.0528 H   0  0  0  0  0  0  0  0  0  0  0  0
  126.1679  126.7766   58.0705 H   0  0  0  0  0  0  0  0  0  0  0  0
  128.6014  125.6982   56.4177 H   0  0  0  0  0  0  0  0  0  0  0  0
  128.1144  126.8909   57.6644 H   0  0  0  0  0  0  0  0  0  0  0  0
  130.7027  126.4414   56.3328 H   0  0  0  0  0  0  0  0  0  0  0  0
  131.6344  129.3328   58.0234 H   0  0  0  0  0  0  0  0  0  0  0  0
  128.3840  130.2556   57.2611 H   0  0  0  0  0  0  0  0  0  0  0  0
  128.5070  134.6250   60.8020 H   0  0  0  0  0  0  0  0  0  0  0  0
  127.8295  136.1323   61.4030 H   0  0  0  0  0  0  0  0  0  0  0  0
  126.5453  138.2619   61.3062 H   0  0  0  0  0  0  0  0  0  0  0  0
  124.0639  138.2087   61.1393 H   0  0  0  0  0  0  0  0  0  0  0  0
  122.8516  136.0353   61.0731 H   0  0  0  0  0  0  0  0  0  0  0  0
  124.1289  133.8980   61.1728 H   0  0  0  0  0  0  0  0  0  0  0  0
  131.8384  131.5578   62.5936 H   0  0  0  0  0  0  0  0  0  0  0  0
  131.8141  128.0157   59.9717 H   0  0  0  0  0  0  0  0  0  0  0  0
  130.1287  127.6244   60.0683 H   0  0  0  0  0  0  0  0  0  0  0  0
  131.0442  125.6372   58.9084 H   0  0  0  0  0  0  0  0  0  0  0  0
  132.6620  127.0970   57.2150 H   0  0  0  0  0  0  0  0  0  0  0  0
  130.2440  123.5300   59.3911 H   0  0  0  0  0  0  0  0  0  0  0  0
  131.0122  121.9145   61.1190 H   0  0  0  0  0  0  0  0  0  0  0  0
  129.5010  121.2930   62.9972 H   0  0  0  0  0  0  0  0  0  0  0  0
  127.2216  122.2830   63.1576 H   0  0  0  0  0  0  0  0  0  0  0  0
  126.4447  123.8979   61.4294 H   0  0  0  0  0  0  0  0  0  0  0  0
  128.2681  123.0972   57.0928 H   0  0  0  0  0  0  0  0  0  0  0  0
  126.6106  121.8512   55.7190 H   0  0  0  0  0  0  0  0  0  0  0  0
  124.1764  122.1014   56.1835 H   0  0  0  0  0  0  0  0  0  0  0  0
  123.3926  123.5993   58.0102 H   0  0  0  0  0  0  0  0  0  0  0  0
  125.0459  124.8474   59.3879 H   0  0  0  0  0  0  0  0  0  0  0  0
  128.4177  125.9017   61.6562 H   0  0  0  0  0  0  0  0  0  0  0  0
  127.6960  128.0639   62.6363 H   0  0  0  0  0  0  0  0  0  0  0  0
  1  2  1  0
  2  3  1  0
  3  4  2  0
  4  5  1  0
  5  6  2  0
  6  7  1  0
  7  8  1  0
  8  9  1  0
  9 10  1  0
 10 11  1  0
 11 12  1  0
 12 13  1  0
 13 14  1  0
 14 15  2  0
 15 16  1  0
 16 17  2  0
 17 18  1  0
 18 19  1  0
 19 20  2  0
 19 21  1  0
 21 22  2  0
 22 23  1  0
 23 24  2  0
 24 25  1  0
 25 26  2  0
 17 27  1  0
 27 28  2  0
 28 29  1  0
 29 30  2  0
 12 31  1  0
 31 32  1  0
 32 33  1  0
  7 34  1  0
 34 35  2  0
 35 36  1  0
 36 37  2  0
 37 38  1  0
 38 39  2  0
  7 40  1  0
 40 41  2  0
 41 42  1  0
 42 43  2  0
 43 44  1  0
 44 45  2  0
  6 46  1  0
 46 47  2  0
 47  3  1  0
 32 10  1  0
 39 34  1  0
 45 40  1  0
 30 13  1  0
 30 16  1  0
 26 21  1  0
  1 48  1  0
  1 49  1  0
  1 50  1  0
  4 51  1  0
  5 52  1  0
  9 53  1  0
  9 54  1  0
 10 55  1  6
 12 56  1  6
 14 57  1  0
 18 58  1  0
 22 59  1  0
 23 60  1  0
 24 61  1  0
 25 62  1  0
 26 63  1  0
 28 64  1  0
 31 65  1  0
 31 66  1  0
 32 67  1  1
 33 68  1  0
 35 69  1  0
 36 70  1  0
 37 71  1  0
 38 72  1  0
 39 73  1  0
 41 74  1  0
 42 75  1  0
 43 76  1  0
 44 77  1  0
 45 78  1  0
 46 79  1  0
 47 80  1  0
M  END
>  <Binding energies>  (1) 
[-10.03]

>  <Ligand effiencies>  (1) 
[-0.2046938775510204]

>  <Interactions>  (1) 
["V-B:TYR:539:CE2:9848, V-B:LEU:363:CA:8156, V-B:LEU:363:CD1:8160, V-B:MET:535:CE:9807, V-B:ASP:366:CB:8183, V-B:PRO:540:CB:9857, V-B:LEU:363:CB:8158, V-B:ASP:366:CG:8184, V-B:TYR:539:CD2:9846, V-B:PRO:540:C:9853, V-B:PRO:540:CA:9855, V-B:ALA:541:CB:9864, V-A:TYR:539:CD1:4873, V-B:LEU:475:CD2:9230, V-A:PRO:540:CA:4883, V-B:ILE:369:CG2:8208, V-B:ALA:541:CA:9862, V-B:PRO:540:N:9856, V-A:TYR:539:CE1:4875, H-A:TYR:531:OH:4795, V-A:TYR:539:C:4867, V-B:PRO:540:CD:9859, V-A:ASP:366:CG:3213, H-A:ALA:541:N:4891, H-A:TYR:539:O:4868, V-B:SER:385:CA:8378, V-B:HIS:383:CD2:8363, V-B:SER:385:CB:8380, V-B:ILE:538:CG2:9835, H-A:ASP:366:O:3209, V-B:PRO:540:CG:9858"]

$$$$
RR8_A_Rahimova_2017
     RDKit          3D

 73 77  0  0  0  0  0  0  0  0999 V2000
  128.2690  126.0910   61.2160 O   0  0  0  0  0  0  0  0  0  0  0  0
  127.3850  126.2210   60.3620 C   0  0  0  0  0  0  0  0  0  0  0  0
  126.5390  127.2940   60.2820 O   0  0  0  0  0  0  0  0  0  0  0  0
  126.8620  128.3090   59.3730 C   0  0  1  0  0  0  0  0  0  0  0  0
  125.7820  129.1690   59.1530 O   0  0  0  0  0  0  0  0  0  0  0  0
  126.2020  130.5250   59.0250 C   0  0  2  0  0  0  0  0  0  0  0  0
  125.6870  131.0720   57.6830 C   0  0  0  0  0  0  0  0  0  0  0  0
  124.4740  131.7770   57.9110 O   0  0  0  0  0  0  0  0  0  0  0  0
  123.5660  131.1020   58.7710 C   0  0  0  0  0  0  0  0  0  0  0  0
  123.6520  131.6850   60.1730 C   0  0  0  0  0  0  0  0  0  0  0  0
  124.5050  132.7620   60.4290 C   0  0  0  0  0  0  0  0  0  0  0  0
  124.5810  133.3020   61.7110 C   0  0  0  0  0  0  0  0  0  0  0  0
  123.8010  132.7650   62.7330 C   0  0  0  0  0  0  0  0  0  0  0  0
  122.9440  131.6950   62.4860 C   0  0  0  0  0  0  0  0  0  0  0  0
  122.8670  131.1560   61.2040 C   0  0  0  0  0  0  0  0  0  0  0  0
  127.7280  130.4490   59.1650 C   0  0  1  0  0  0  0  0  0  0  0  0
  128.2780  131.5360   59.9050 O   0  0  0  0  0  0  0  0  0  0  0  0
  128.1340  132.8220   59.3130 C   0  0  0  0  0  0  0  0  0  0  0  0
  128.9330  132.8890   58.0190 C   0  0  0  0  0  0  0  0  0  0  0  0
  128.2670  132.8510   56.7900 C   0  0  0  0  0  0  0  0  0  0  0  0
  128.9920  132.9030   55.6020 C   0  0  0  0  0  0  0  0  0  0  0  0
  130.3830  132.9900   55.6460 C   0  0  0  0  0  0  0  0  0  0  0  0
  131.0540  133.0220   56.8650 C   0  0  0  0  0  0  0  0  0  0  0  0
  130.3300  132.9680   58.0530 C   0  0  0  0  0  0  0  0  0  0  0  0
  127.9420  129.1900   59.9850 C   0  0  2  0  0  0  0  0  0  0  0  0
  129.2640  128.6890   59.8000 O   0  0  0  0  0  0  0  0  0  0  0  0
  129.9140  129.0920   58.5990 C   0  0  0  0  0  0  0  0  0  0  0  0
  131.1230  129.9540   58.9290 C   0  0  0  0  0  0  0  0  0  0  0  0
  131.1880  130.6390   60.1470 C   0  0  0  0  0  0  0  0  0  0  0  0
  132.3010  131.4190   60.4480 C   0  0  0  0  0  0  0  0  0  0  0  0
  133.3480  131.5110   59.5340 C   0  0  0  0  0  0  0  0  0  0  0  0
  133.2930  130.8280   58.3210 C   0  0  0  0  0  0  0  0  0  0  0  0
  132.1800  130.0470   58.0190 C   0  0  0  0  0  0  0  0  0  0  0  0
  127.1370  125.2060   59.2840 C   0  0  0  0  0  0  0  0  0  0  0  0
  125.9590  124.4440   59.2400 C   0  0  0  0  0  0  0  0  0  0  0  0
  125.7580  123.5100   58.2270 C   0  0  0  0  0  0  0  0  0  0  0  0
  126.7270  123.3120   57.2350 C   0  0  0  0  0  0  0  0  0  0  0  0
  126.5120  122.3180   56.1560 N   0  0  0  0  0  0  0  0  0  0  0  0
  127.4260  122.0980   55.3670 O   0  0  0  0  0  0  0  0  0  0  0  0
  125.4260  121.7480   56.0900 O   0  0  0  0  0  0  0  0  0  0  0  0
  127.9030  124.0720   57.2810 C   0  0  0  0  0  0  0  0  0  0  0  0
  128.1060  125.0060   58.2930 C   0  0  0  0  0  0  0  0  0  0  0  0
  127.1693  127.8182   58.4378 H   0  0  0  0  0  0  0  0  0  0  0  0
  125.8059  131.2251   59.7753 H   0  0  0  0  0  0  0  0  0  0  0  0
  126.4346  131.7529   57.2499 H   0  0  0  0  0  0  0  0  0  0  0  0
  125.5108  130.2414   56.9837 H   0  0  0  0  0  0  0  0  0  0  0  0
  122.5420  131.2228   58.3877 H   0  0  0  0  0  0  0  0  0  0  0  0
  123.8258  130.0337   58.8060 H   0  0  0  0  0  0  0  0  0  0  0  0
  125.1167  133.1836   59.6178 H   0  0  0  0  0  0  0  0  0  0  0  0
  125.2535  134.1482   61.9154 H   0  0  0  0  0  0  0  0  0  0  0  0
  123.8626  133.1905   63.7455 H   0  0  0  0  0  0  0  0  0  0  0  0
  122.3314  131.2780   63.2989 H   0  0  0  0  0  0  0  0  0  0  0  0
  122.1888  130.3140   61.0017 H   0  0  0  0  0  0  0  0  0  0  0  0
  128.2064  130.4668   58.1746 H   0  0  0  0  0  0  0  0  0  0  0  0
  127.0716  133.0066   59.0957 H   0  0  0  0  0  0  0  0  0  0  0  0
  128.5090  133.5857   60.0102 H   0  0  0  0  0  0  0  0  0  0  0  0
  127.1697  132.7800   56.7615 H   0  0  0  0  0  0  0  0  0  0  0  0
  128.4701  132.8756   54.6341 H   0  0  0  0  0  0  0  0  0  0  0  0
  130.9558  133.0338   54.7079 H   0  0  0  0  0  0  0  0  0  0  0  0
  132.1516  133.0897   56.8897 H   0  0  0  0  0  0  0  0  0  0  0  0
  130.8562  132.9874   59.0188 H   0  0  0  0  0  0  0  0  0  0  0  0
  127.8639  129.2925   61.0774 H   0  0  0  0  0  0  0  0  0  0  0  0
  130.2422  128.2002   58.0449 H   0  0  0  0  0  0  0  0  0  0  0  0
  129.2112  129.6738   57.9845 H   0  0  0  0  0  0  0  0  0  0  0  0
  130.3598  130.5613   60.8667 H   0  0  0  0  0  0  0  0  0  0  0  0
  132.3534  131.9606   61.4040 H   0  0  0  0  0  0  0  0  0  0  0  0
  134.2265  132.1287   59.7722 H   0  0  0  0  0  0  0  0  0  0  0  0
  134.1246  130.9052   57.6052 H   0  0  0  0  0  0  0  0  0  0  0  0
  132.1327  129.5032   57.0640 H   0  0  0  0  0  0  0  0  0  0  0  0
  125.1884  124.5858   60.0120 H   0  0  0  0  0  0  0  0  0  0  0  0
  124.8288  122.9216   58.2055 H   0  0  0  0  0  0  0  0  0  0  0  0
  128.6739  123.9292   56.5094 H   0  0  0  0  0  0  0  0  0  0  0  0
  129.0364  125.5925   58.3145 H   0  0  0  0  0  0  0  0  0  0  0  0
  1  2  2  0
  2  3  1  0
  3  4  1  0
  4  5  1  0
  5  6  1  0
  6  7  1  0
  7  8  1  0
  8  9  1  0
  9 10  1  0
 10 11  2  0
 11 12  1  0
 12 13  2  0
 13 14  1  0
 14 15  2  0
  6 16  1  0
 16 17  1  0
 17 18  1  0
 18 19  1  0
 19 20  2  0
 20 21  1  0
 21 22  2  0
 22 23  1  0
 23 24  2  0
 16 25  1  0
 25 26  1  0
 26 27  1  0
 27 28  1  0
 28 29  2  0
 29 30  1  0
 30 31  2  0
 31 32  1  0
 32 33  2  0
  2 34  1  0
 34 35  2  0
 35 36  1  0
 36 37  2  0
 37 38  1  0
 38 39  2  0
 38 40  1  0
 37 41  1  0
 41 42  2  0
 25  4  1  0
 33 28  1  0
 42 34  1  0
 15 10  1  0
 24 19  1  0
  4 43  1  6
  6 44  1  1
  7 45  1  0
  7 46  1  0
  9 47  1  0
  9 48  1  0
 11 49  1  0
 12 50  1  0
 13 51  1  0
 14 52  1  0
 15 53  1  0
 16 54  1  6
 18 55  1  0
 18 56  1  0
 20 57  1  0
 21 58  1  0
 22 59  1  0
 23 60  1  0
 24 61  1  0
 25 62  1  1
 27 63  1  0
 27 64  1  0
 29 65  1  0
 30 66  1  0
 31 67  1  0
 32 68  1  0
 33 69  1  0
 35 70  1  0
 36 71  1  0
 41 72  1  0
 42 73  1  0
M  CHG  2  38   1  40  -1
M  END
>  <Binding energies>  (1) 
[-9.4]

>  <Ligand effiencies>  (1) 
[-0.22380952380952382]

>  <Interactions>  (1) 
["V-B:TYR:539:CE2:9848, V-B:MET:535:CE:9807, V-B:ASP:366:CB:8183, V-B:PRO:540:CB:9857, V-B:ASP:366:CG:8184, V-B:TYR:539:CZ:9849, H-B:TYR:539:N:9842, V-B:PRO:540:CA:9855, V-A:TYR:539:CD1:4873, V-B:GLY:454:CA:9020, V-A:LEU:363:CD1:3189, V-A:TYR:531:CE2:4793, V-A:ILE:538:CG2:4863, V-A:ILE:538:CB:4862, V-A:PRO:540:CA:4883, V-B:ILE:369:CG2:8208, V-A:PRO:540:CB:4885, V-A:ASP:366:CB:3212, V-B:PRO:540:N:9856, V-B:ILE:369:CG1:8209, V-A:TYR:539:CE1:4875, V-A:TYR:539:C:4867, V-B:ILE:369:CB:8207, V-B:TYR:539:CD1:9845, V-A:PRO:540:N:4884, V-B:PRO:540:CD:9859, V-A:MET:535:CE:4835, H-B:TYR:531:OH:9767, V-A:ASP:366:CG:3213, V-B:ASP:366:CA:8181, V-A:PRO:540:CD:4887, V-A:ILE:538:CA:4860, V-B:ILE:538:CA:9832, V-A:TYR:539:CZ:4877, V-A:TYR:539:CG:4872, V-B:ASP:366:C:8179, V-A:TYR:539:CE2:4876, V-A:ILE:538:C:4858, V-B:GLY:453:C:9013, H-A:TYR:539:OH:4878, V-A:TYR:539:CD2:4874, V-A:LEU:363:CA:3185, V-A:LEU:363:CB:3187, V-B:GLY:453:CA:9015"]

$$$$
RR8_B_Rahimova_2017
     RDKit          3D

 73 77  0  0  0  0  0  0  0  0999 V2000
  131.4760  132.1950   62.9340 O   0  0  0  0  0  0  0  0  0  0  0  0
  130.4770  131.8200   62.3120 C   0  0  0  0  0  0  0  0  0  0  0  0
  129.5230  130.9800   62.8170 O   0  0  0  0  0  0  0  0  0  0  0  0
  128.3870  131.5500   63.4200 C   0  0  2  0  0  0  0  0  0  0  0  0
  128.2690  131.1800   64.7650 O   0  0  0  0  0  0  0  0  0  0  0  0
  127.4750  130.0030   64.9140 C   0  0  2  0  0  0  0  0  0  0  0  0
  128.2990  128.9140   65.6240 C   0  0  0  0  0  0  0  0  0  0  0  0
  127.9010  128.8420   66.9880 O   0  0  0  0  0  0  0  0  0  0  0  0
  127.9130  127.5360   67.5450 C   0  0  0  0  0  0  0  0  0  0  0  0
  128.5820  127.5800   68.9110 C   0  0  0  0  0  0  0  0  0  0  0  0
  129.8730  128.1010   69.0340 C   0  0  0  0  0  0  0  0  0  0  0  0
  130.5010  128.1220   70.2770 C   0  0  0  0  0  0  0  0  0  0  0  0
  129.8330  127.6230   71.3940 C   0  0  0  0  0  0  0  0  0  0  0  0
  128.5440  127.1080   71.2800 C   0  0  0  0  0  0  0  0  0  0  0  0
  127.9170  127.0840   70.0360 C   0  0  0  0  0  0  0  0  0  0  0  0
  127.0260  129.6650   63.4880 C   0  0  1  0  0  0  0  0  0  0  0  0
  125.7000  129.1290   63.5100 O   0  0  0  0  0  0  0  0  0  0  0  0
  124.7110  129.8720   64.2280 C   0  0  0  0  0  0  0  0  0  0  0  0
  124.1320  131.0150   63.3990 C   0  0  0  0  0  0  0  0  0  0  0  0
  124.5670  132.3260   63.6120 C   0  0  0  0  0  0  0  0  0  0  0  0
  124.0610  133.3620   62.8320 C   0  0  0  0  0  0  0  0  0  0  0  0
  123.1180  133.0840   61.8440 C   0  0  0  0  0  0  0  0  0  0  0  0
  122.6760  131.7810   61.6290 C   0  0  0  0  0  0  0  0  0  0  0  0
  123.1850  130.7430   62.4070 C   0  0  0  0  0  0  0  0  0  0  0  0
  127.1270  130.9990   62.7560 C   0  0  2  0  0  0  0  0  0  0  0  0
  127.2620  130.7870   61.3530 O   0  0  0  0  0  0  0  0  0  0  0  0
  126.4420  129.7660   60.8040 C   0  0  0  0  0  0  0  0  0  0  0  0
  125.9620  130.2250   59.4380 C   0  0  0  0  0  0  0  0  0  0  0  0
  126.8780  130.4470   58.4060 C   0  0  0  0  0  0  0  0  0  0  0  0
  126.4280  130.8860   57.1630 C   0  0  0  0  0  0  0  0  0  0  0  0
  125.0680  131.1010   56.9570 C   0  0  0  0  0  0  0  0  0  0  0  0
  124.1490  130.8800   57.9820 C   0  0  0  0  0  0  0  0  0  0  0  0
  124.5980  130.4410   59.2240 C   0  0  0  0  0  0  0  0  0  0  0  0
  130.1970  132.2160   60.8910 C   0  0  0  0  0  0  0  0  0  0  0  0
  129.0780  132.9880   60.5450 C   0  0  0  0  0  0  0  0  0  0  0  0
  128.8390  133.3320   59.2200 C   0  0  0  0  0  0  0  0  0  0  0  0
  129.7050  132.9070   58.2050 C   0  0  0  0  0  0  0  0  0  0  0  0
  129.4340  133.2530   56.7880 N   0  0  0  0  0  0  0  0  0  0  0  0
  130.3850  133.3840   56.0220 O   0  0  0  0  0  0  0  0  0  0  0  0
  128.2670  133.3930   56.4290 O   0  0  0  0  0  0  0  0  0  0  0  0
  130.8260  132.1410   58.5510 C   0  0  0  0  0  0  0  0  0  0  0  0
  131.0700  131.8020   59.8780 C   0  0  0  0  0  0  0  0  0  0  0  0
  128.4947  132.6399   63.3171 H   0  0  0  0  0  0  0  0  0  0  0  0
  126.5864  130.1182   65.5521 H   0  0  0  0  0  0  0  0  0  0  0  0
  128.1228  127.9433   65.1375 H   0  0  0  0  0  0  0  0  0  0  0  0
  129.3691  129.1615   65.5635 H   0  0  0  0  0  0  0  0  0  0  0  0
  126.8804  127.1726   67.6527 H   0  0  0  0  0  0  0  0  0  0  0  0
  128.4702  126.8572   66.8826 H   0  0  0  0  0  0  0  0  0  0  0  0
  130.3935  128.4947   68.1485 H   0  0  0  0  0  0  0  0  0  0  0  0
  131.5177  128.5298   70.3766 H   0  0  0  0  0  0  0  0  0  0  0  0
  130.3290  127.6361   72.3757 H   0  0  0  0  0  0  0  0  0  0  0  0
  128.0231  126.7218   72.1685 H   0  0  0  0  0  0  0  0  0  0  0  0
  126.9003  126.6754   69.9393 H   0  0  0  0  0  0  0  0  0  0  0  0
  127.6331  128.8946   62.9901 H   0  0  0  0  0  0  0  0  0  0  0  0
  123.8945  129.1919   64.5122 H   0  0  0  0  0  0  0  0  0  0  0  0
  125.1952  130.3095   65.1135 H   0  0  0  0  0  0  0  0  0  0  0  0
  125.3089  132.5391   64.3957 H   0  0  0  0  0  0  0  0  0  0  0  0
  124.4036  134.3946   62.9945 H   0  0  0  0  0  0  0  0  0  0  0  0
  122.7186  133.9027   61.2274 H   0  0  0  0  0  0  0  0  0  0  0  0
  121.9289  131.5723   60.8491 H   0  0  0  0  0  0  0  0  0  0  0  0
  122.8422  129.7111   62.2409 H   0  0  0  0  0  0  0  0  0  0  0  0
  126.2599  131.6722   62.8266 H   0  0  0  0  0  0  0  0  0  0  0  0
  127.0223  128.8371   60.7019 H   0  0  0  0  0  0  0  0  0  0  0  0
  125.5828  129.5735   61.4634 H   0  0  0  0  0  0  0  0  0  0  0  0
  127.9513  130.2755   58.5749 H   0  0  0  0  0  0  0  0  0  0  0  0
  127.1445  131.0622   56.3472 H   0  0  0  0  0  0  0  0  0  0  0  0
  124.7147  131.4489   55.9751 H   0  0  0  0  0  0  0  0  0  0  0  0
  123.0761  131.0515   57.8101 H   0  0  0  0  0  0  0  0  0  0  0  0
  123.8790  130.2640   60.0375 H   0  0  0  0  0  0  0  0  0  0  0  0
  128.3837  133.3240   61.3293 H   0  0  0  0  0  0  0  0  0  0  0  0
  127.9610  133.9441   58.9660 H   0  0  0  0  0  0  0  0  0  0  0  0
  131.5195  131.8046   57.7662 H   0  0  0  0  0  0  0  0  0  0  0  0
  131.9568  131.2034   60.1335 H   0  0  0  0  0  0  0  0  0  0  0  0
  1  2  2  0
  2  3  1  0
  3  4  1  0
  4  5  1  0
  5  6  1  0
  6  7  1  0
  7  8  1  0
  8  9  1  0
  9 10  1  0
 10 11  2  0
 11 12  1  0
 12 13  2  0
 13 14  1  0
 14 15  2  0
  6 16  1  0
 16 17  1  0
 17 18  1  0
 18 19  1  0
 19 20  2  0
 20 21  1  0
 21 22  2  0
 22 23  1  0
 23 24  2  0
 16 25  1  0
 25 26  1  0
 26 27  1  0
 27 28  1  0
 28 29  2  0
 29 30  1  0
 30 31  2  0
 31 32  1  0
 32 33  2  0
  2 34  1  0
 34 35  2  0
 35 36  1  0
 36 37  2  0
 37 38  1  0
 38 39  2  0
 38 40  1  0
 37 41  1  0
 41 42  2  0
 25  4  1  0
 33 28  1  0
 42 34  1  0
 15 10  1  0
 24 19  1  0
  4 43  1  1
  6 44  1  1
  7 45  1  0
  7 46  1  0
  9 47  1  0
  9 48  1  0
 11 49  1  0
 12 50  1  0
 13 51  1  0
 14 52  1  0
 15 53  1  0
 16 54  1  6
 18 55  1  0
 18 56  1  0
 20 57  1  0
 21 58  1  0
 22 59  1  0
 23 60  1  0
 24 61  1  0
 25 62  1  6
 27 63  1  0
 27 64  1  0
 29 65  1  0
 30 66  1  0
 31 67  1  0
 32 68  1  0
 33 69  1  0
 35 70  1  0
 36 71  1  0
 41 72  1  0
 42 73  1  0
M  CHG  2  38   1  40  -1
M  END
>  <Binding energies>  (1) 
[-10.65]

>  <Ligand effiencies>  (1) 
[-0.25357142857142856]

>  <Interactions>  (1) 
["V-B:GLU:543:C:9874, V-A:GLU:543:CD:4908, V-A:GLU:543:C:4902, V-A:HIS:456:CE1:4070, V-A:GLU:543:CB:4906, V-B:HIS:456:CE1:9041, V-A:GLY:544:C:4912, V-B:GLU:543:CB:9878, V-B:ASP:366:CB:8183, V-B:ASP:366:CG:8184, V-B:GLU:543:CG:9879, V-B:GLU:543:CD:9880, V-A:GLU:543:CG:4907, V-A:TYR:539:CD1:4873, V-B:GLY:454:CA:9020, V-B:LEU:475:CD2:9230, V-A:PRO:540:CA:4883, V-B:ILE:369:CG2:8208, V-A:PRO:540:CB:4885, H-B:ARG:545:NH2:9900, V-B:ILE:369:CG1:8209, V-A:TYR:539:CE1:4875, V-A:TYR:539:C:4867, H-A:TYR:539:N:4870, V-B:ILE:369:CB:8207, V-A:PRO:540:N:4884, H-B:TYR:484:OH:9319, V-A:PRO:540:C:4881, V-B:ASP:366:CA:8181, H-A:ALA:541:N:4891, V-B:ARG:545:CZ:9898, V-A:ILE:538:CA:4860, V-A:TYR:539:CZ:4877, V-A:TYR:539:CG:4872, V-B:ASP:366:C:8179, V-A:ILE:538:C:4858, V-A:TYR:539:CA:4869, V-B:GLY:453:CA:9015"]

$$$$
RR9_Rahimova_2017
     RDKit          3D

 64 68  0  0  0  0  0  0  0  0999 V2000
  128.7630  126.7960   71.7510 C   0  0  0  0  0  0  0  0  0  0  0  0
  130.0860  127.5680   71.7160 C   0  0  0  0  0  0  0  0  0  0  0  0
  130.6990  127.3690   70.4460 O   0  0  0  0  0  0  0  0  0  0  0  0
  129.9760  127.6220   69.2970 C   0  0  0  0  0  0  0  0  0  0  0  0
  129.3820  128.8780   69.1980 C   0  0  0  0  0  0  0  0  0  0  0  0
  128.6310  129.2220   68.0770 C   0  0  0  0  0  0  0  0  0  0  0  0
  128.4540  128.3150   67.0220 C   0  0  0  0  0  0  0  0  0  0  0  0
  127.6420  128.6780   65.8130 C   0  0  0  0  0  0  0  0  0  0  0  0
  128.0880  128.3910   64.5140 C   0  0  0  0  0  0  0  0  0  0  0  0
  127.3180  128.7220   63.3850 C   0  0  0  0  0  0  0  0  0  0  0  0
  127.8030  128.2970   62.0250 C   0  0  0  0  0  0  0  0  0  0  0  0
  128.4540  129.0730   61.3260 O   0  0  0  0  0  0  0  0  0  0  0  0
  127.4560  127.0520   61.6430 N   0  0  0  0  0  0  0  0  0  0  0  0
  127.6960  126.4610   60.3220 C   0  0  0  0  0  0  0  0  0  0  0  0
  126.3930  126.1830   59.5380 C   0  0  0  0  0  0  0  0  0  0  0  0
  126.4170  124.9150   58.6910 C   0  0  0  0  0  0  0  0  0  0  0  0
  127.5070  124.0420   58.7660 C   0  0  0  0  0  0  0  0  0  0  0  0
  127.5110  122.8680   58.0170 C   0  0  0  0  0  0  0  0  0  0  0  0
  126.4270  122.5730   57.1930 C   0  0  0  0  0  0  0  0  0  0  0  0
  125.3400  123.4400   57.1090 C   0  0  0  0  0  0  0  0  0  0  0  0
  125.3350  124.6140   57.8590 C   0  0  0  0  0  0  0  0  0  0  0  0
  126.0920  129.3870   63.6350 C   0  0  0  0  0  0  0  0  0  0  0  0
  124.9930  129.9560   62.8910 C   0  0  0  0  0  0  0  0  0  0  0  0
  124.8210  130.1010   61.4150 C   0  0  0  0  0  0  0  0  0  0  0  0
  125.5050  129.2530   60.5400 C   0  0  0  0  0  0  0  0  0  0  0  0
  125.3560  129.4000   59.1630 C   0  0  0  0  0  0  0  0  0  0  0  0
  124.5170  130.3950   58.6570 C   0  0  0  0  0  0  0  0  0  0  0  0
  124.3680  130.5680   57.1560 C   0  0  0  0  0  0  0  0  0  0  0  0
  123.8340  131.2450   59.5270 C   0  0  0  0  0  0  0  0  0  0  0  0
  123.9830  131.0950   60.9030 C   0  0  0  0  0  0  0  0  0  0  0  0
  124.0680  130.4070   63.7080 N   0  0  0  0  0  0  0  0  0  0  0  0
  124.5030  130.2270   64.9650 N   0  0  0  0  0  0  0  0  0  0  0  0
  125.7370  129.6200   64.9850 C   0  0  0  0  0  0  0  0  0  0  0  0
  126.4560  129.3010   66.0600 N   0  0  0  0  0  0  0  0  0  0  0  0
  129.0530  127.0520   67.1290 C   0  0  0  0  0  0  0  0  0  0  0  0
  129.8050  126.7060   68.2490 C   0  0  0  0  0  0  0  0  0  0  0  0
  128.4669  126.6232   72.7962 H   0  0  0  0  0  0  0  0  0  0  0  0
  127.9835  127.3810   71.2410 H   0  0  0  0  0  0  0  0  0  0  0  0
  128.8888  125.8295   71.2410 H   0  0  0  0  0  0  0  0  0  0  0  0
  129.8929  128.6400   71.8696 H   0  0  0  0  0  0  0  0  0  0  0  0
  130.7516  127.2061   72.5135 H   0  0  0  0  0  0  0  0  0  0  0  0
  129.5074  129.6054   70.0135 H   0  0  0  0  0  0  0  0  0  0  0  0
  128.1701  130.2191   68.0181 H   0  0  0  0  0  0  0  0  0  0  0  0
  129.0608  127.8965   64.3759 H   0  0  0  0  0  0  0  0  0  0  0  0
  126.9960  126.4570   62.3170 H   0  0  0  0  0  0  0  0  0  0  0  0
  128.3167  127.1544   59.7355 H   0  0  0  0  0  0  0  0  0  0  0  0
  128.1969  125.4945   60.4804 H   0  0  0  0  0  0  0  0  0  0  0  0
  125.5695  126.0959   60.2620 H   0  0  0  0  0  0  0  0  0  0  0  0
  126.2668  127.0219   58.8378 H   0  0  0  0  0  0  0  0  0  0  0  0
  128.3609  124.2826   59.4164 H   0  0  0  0  0  0  0  0  0  0  0  0
  128.3652  122.1774   58.0756 H   0  0  0  0  0  0  0  0  0  0  0  0
  126.4296  121.6451   56.6022 H   0  0  0  0  0  0  0  0  0  0  0  0
  124.4899  123.1989   56.4538 H   0  0  0  0  0  0  0  0  0  0  0  0
  124.4802  125.3035   57.7965 H   0  0  0  0  0  0  0  0  0  0  0  0
  126.1629  128.4673   60.9398 H   0  0  0  0  0  0  0  0  0  0  0  0
  125.8980  128.7338   58.4757 H   0  0  0  0  0  0  0  0  0  0  0  0
  123.6629  131.3867   56.9495 H   0  0  0  0  0  0  0  0  0  0  0  0
  125.3471  130.8075   56.7155 H   0  0  0  0  0  0  0  0  0  0  0  0
  123.9860  129.6352   56.7155 H   0  0  0  0  0  0  0  0  0  0  0  0
  123.1787  132.0325   59.1265 H   0  0  0  0  0  0  0  0  0  0  0  0
  123.4394  131.7610   61.5892 H   0  0  0  0  0  0  0  0  0  0  0  0
  123.9410  130.5210   65.7520 H   0  0  0  0  0  0  0  0  0  0  0  0
  128.9270  126.3226   66.3153 H   0  0  0  0  0  0  0  0  0  0  0  0
  130.2669  125.7097   68.3119 H   0  0  0  0  0  0  0  0  0  0  0  0
  1  2  1  0
  2  3  1  0
  3  4  1  0
  4  5  2  0
  5  6  1  0
  6  7  2  0
  7  8  1  0
  8  9  2  0
  9 10  1  0
 10 11  1  0
 11 12  2  0
 11 13  1  0
 13 14  1  0
 14 15  1  0
 15 16  1  0
 16 17  2  0
 17 18  1  0
 18 19  2  0
 19 20  1  0
 20 21  2  0
 10 22  2  0
 22 23  1  0
 23 24  1  0
 24 25  2  0
 25 26  1  0
 26 27  2  0
 27 28  1  0
 27 29  1  0
 29 30  2  0
 23 31  2  0
 31 32  1  0
 32 33  1  0
 33 34  2  0
  7 35  1  0
 35 36  2  0
 36  4  1  0
 34  8  1  0
 21 16  1  0
 33 22  1  0
 30 24  1  0
  1 37  1  0
  1 38  1  0
  1 39  1  0
  2 40  1  0
  2 41  1  0
  5 42  1  0
  6 43  1  0
  9 44  1  0
 13 45  1  0
 14 46  1  0
 14 47  1  0
 15 48  1  0
 15 49  1  0
 17 50  1  0
 18 51  1  0
 19 52  1  0
 20 53  1  0
 21 54  1  0
 25 55  1  0
 26 56  1  0
 28 57  1  0
 28 58  1  0
 28 59  1  0
 29 60  1  0
 30 61  1  0
 32 62  1  0
 35 63  1  0
 36 64  1  0
M  END
>  <Binding energies>  (1) 
[-9.24]

>  <Ligand effiencies>  (1) 
[-0.2431578947368421]

>  <Interactions>  (1) 
["V-A:GLU:543:CD:4908, V-A:GLU:543:C:4902, V-A:HIS:456:CE1:4070, V-A:GLU:543:CB:4906, V-B:HIS:456:CE1:9041, V-B:GLU:543:CB:9878, V-B:TYR:539:CE2:9848, V-B:LEU:363:CD1:8160, V-B:MET:535:CE:9807, V-B:ASP:366:CB:8183, V-B:PRO:540:CB:9857, V-B:ASP:366:CG:8184, V-B:TYR:539:CD2:9846, V-B:PRO:540:CA:9855, V-A:HIS:456:CD2:4068, V-B:GLU:543:CG:9879, V-B:GLU:543:CD:9880, V-A:GLU:543:CG:4907, V-A:GLU:543:CA:4904, H-B:GLU:543:OE1:9881, V-B:GLY:454:CA:9020, V-B:ILE:369:CG2:8208, H-B:GLU:543:OE2:9882, H-B:ARG:545:NH2:9900, V-B:PRO:540:N:9856, V-B:ILE:369:CB:8207, V-B:TYR:539:C:9839, H-B:TYR:484:OH:9319, V-B:PRO:540:CD:9859, H-B:GLY:454:N:9021, V-B:ASP:366:CA:8181, V-B:TYR:531:CZ:9766, V-B:ARG:545:CZ:9898, V-B:ASP:366:C:8179, V-B:TYR:531:CE1:9764"]

$$$$
