1a_Grossjean_2025
     RDKit          3D

 26 27  0  0  0  0  0  0  0  0999 V2000
  128.5490  138.5140   61.8730 C   0  0  0  0  0  0  0  0  0  0  0  0
  127.0630  138.3090   62.1820 C   0  0  0  0  0  0  0  0  0  0  0  0
  126.3890  137.8810   61.0050 O   0  0  0  0  0  0  0  0  0  0  0  0
  125.3370  137.0240   61.0720 C   0  0  0  0  0  0  0  0  0  0  0  0
  124.1630  137.3760   60.9180 O   0  0  0  0  0  0  0  0  0  0  0  0
  125.7420  135.6090   61.3680 C   0  0  0  0  0  0  0  0  0  0  0  0
  127.1020  135.2740   61.3680 C   0  0  0  0  0  0  0  0  0  0  0  0
  127.5090  133.9700   61.6350 C   0  0  0  0  0  0  0  0  0  0  0  0
  126.5690  132.9750   61.9050 C   0  0  0  0  0  0  0  0  0  0  0  0
  127.0920  131.6920   62.1580 N   0  0  0  0  0  0  0  0  0  0  0  0
  127.6580  131.1910   63.2760 C   0  0  0  0  0  0  0  0  0  0  0  0
  127.8230  131.8030   64.3310 O   0  0  0  0  0  0  0  0  0  0  0  0
  128.1200  129.7350   63.1810 C   0  0  0  0  0  0  0  0  0  0  0  0
  126.7340  128.5940   62.8940 S   0  0  0  0  0  0  0  0  0  0  0  0
  125.5090  129.4680   61.9460 C   0  0  0  0  0  0  0  0  0  0  0  0
  125.7510  129.4730   60.6110 N   0  0  0  0  0  0  0  0  0  0  0  0
  124.8820  130.1160   59.7950 C   0  0  0  0  0  0  0  0  0  0  0  0
  125.2240  130.0910   58.3170 C   0  0  0  0  0  0  0  0  0  0  0  0
  123.7440  130.7650   60.2690 C   0  0  0  0  0  0  0  0  0  0  0  0
  123.4740  130.7480   61.6420 C   0  0  0  0  0  0  0  0  0  0  0  0
  122.2130  131.4520   62.1370 C   0  0  0  0  0  0  0  0  0  0  0  0
  124.3650  130.0800   62.5130 C   0  0  0  0  0  0  0  0  0  0  0  0
  124.0780  130.0070   63.9480 C   0  0  0  0  0  0  0  0  0  0  0  0
  123.8490  129.9510   65.0810 N   0  0  0  0  0  0  0  0  0  0  0  0
  125.2050  133.3040   61.9150 C   0  0  0  0  0  0  0  0  0  0  0  0
  124.7990  134.6080   61.6480 C   0  0  0  0  0  0  0  0  0  0  0  0
  1  2  1  0
  2  3  1  0
  3  4  1  0
  4  5  2  0
  4  6  1  0
  6  7  2  0
  7  8  1  0
  8  9  2  0
  9 10  1  0
 10 11  1  0
 11 12  2  0
 11 13  1  0
 13 14  1  0
 14 15  1  0
 15 16  2  0
 16 17  1  0
 17 18  1  0
 17 19  2  0
 19 20  1  0
 20 21  1  0
 20 22  2  0
 22 23  1  0
 23 24  3  0
  9 25  1  0
 25 26  2  0
 26  6  1  0
 22 15  1  0
M  END
>  <Binding energies>  (1) 
[-7.76]

>  <Ligand effiencies>  (1) 
[-0.2874074074074074]

>  <Interactions>  (1) 
["V-A:GLU:543:CD:4908, V-B:ASP:366:CB:8183, V-B:ASP:366:CG:8184, V-A:TYR:539:CD1:4873, V-B:GLY:454:CA:9020, V-B:LEU:475:CD2:9230, V-B:ILE:369:CG2:8208, H-B:ARG:545:NH2:9900, V-B:ILE:369:CG1:8209, V-A:TYR:539:CE1:4875, V-A:TYR:539:C:4867, V-B:ILE:369:CB:8207, H-B:TYR:484:OH:9319, H-B:GLY:454:N:9021, V-B:ASP:366:CA:8181, V-B:ARG:545:CZ:9898, H-B:ARG:545:NE:9896, V-B:LEU:475:CG:9228, V-B:PRO:482:CB:9297, V-B:HIS:383:CD2:8363, V-B:HIS:383:CE1:8364, V-A:VAL:344:CG1:3001, V-B:SER:385:CB:8380, V-B:GLY:453:C:9013, H-B:HIS:383:NE2:8365, V-B:GLY:453:CA:9015, V-B:PRO:482:CG:9298"]

$$$$
1aa_Ghoteimi_2023
     RDKit          3D

 40 43  0  0  0  0  0  0  0  0999 V2000
  127.9630  138.2510   61.9050 C   0  0  0  0  0  0  0  0  0  0  0  0
  126.4850  137.9070   62.1110 C   0  0  0  0  0  0  0  0  0  0  0  0
  125.9480  137.3790   60.9040 O   0  0  0  0  0  0  0  0  0  0  0  0
  124.9360  136.4740   60.9240 C   0  0  0  0  0  0  0  0  0  0  0  0
  123.8100  136.7030   60.4710 O   0  0  0  0  0  0  0  0  0  0  0  0
  125.3200  135.1660   61.5530 C   0  0  0  0  0  0  0  0  0  0  0  0
  126.6100  134.6300   61.4220 C   0  0  0  0  0  0  0  0  0  0  0  0
  126.9380  133.4140   62.0170 C   0  0  0  0  0  0  0  0  0  0  0  0
  125.9770  132.7120   62.7600 C   0  0  0  0  0  0  0  0  0  0  0  0
  126.1930  131.4790   63.4030 N   0  0  0  0  0  0  0  0  0  0  0  0
  125.3140  130.6210   63.9720 C   0  0  0  0  0  0  0  0  0  0  0  0
  124.0960  130.7890   64.0170 O   0  0  0  0  0  0  0  0  0  0  0  0
  125.8870  129.3430   64.6040 C   0  0  0  0  0  0  0  0  0  0  0  0
  127.2590  129.5370   64.9720 O   0  0  0  0  0  0  0  0  0  0  0  0
  127.9740  128.5130   65.5770 C   0  0  0  0  0  0  0  0  0  0  0  0
  127.9790  128.4530   66.9380 N   0  0  0  0  0  0  0  0  0  0  0  0
  128.6800  127.4730   67.5680 C   0  0  0  0  0  0  0  0  0  0  0  0
  128.6330  127.4750   69.0690 C   0  0  0  0  0  0  0  0  0  0  0  0
  129.7020  127.9790   69.8250 C   0  0  0  0  0  0  0  0  0  0  0  0
  129.6610  127.9790   71.2160 C   0  0  0  0  0  0  0  0  0  0  0  0
  128.5520  127.4780   71.8950 C   0  0  0  0  0  0  0  0  0  0  0  0
  128.6010  127.5180   73.2750 O   0  0  0  0  0  0  0  0  0  0  0  0
  127.8140  128.4800   73.9700 C   0  0  0  0  0  0  0  0  0  0  0  0
  127.4740  126.9760   71.1540 C   0  0  0  0  0  0  0  0  0  0  0  0
  127.5170  126.9770   69.7630 C   0  0  0  0  0  0  0  0  0  0  0  0
  129.3830  126.5120   66.8320 C   0  0  0  0  0  0  0  0  0  0  0  0
  129.3850  126.5450   65.4310 C   0  0  0  0  0  0  0  0  0  0  0  0
  130.1450  125.4850   64.7030 C   0  0  0  0  0  0  0  0  0  0  0  0
  131.5430  125.4730   64.7380 C   0  0  0  0  0  0  0  0  0  0  0  0
  132.2580  124.4830   64.0700 C   0  0  0  0  0  0  0  0  0  0  0  0
  131.5930  123.4830   63.3610 C   0  0  0  0  0  0  0  0  0  0  0  0
  132.3850  122.5430   62.7300 O   0  0  0  0  0  0  0  0  0  0  0  0
  133.7480  122.8500   62.4620 C   0  0  0  0  0  0  0  0  0  0  0  0
  130.1910  123.4860   63.3310 C   0  0  0  0  0  0  0  0  0  0  0  0
  129.4770  124.4780   63.9990 C   0  0  0  0  0  0  0  0  0  0  0  0
  128.6680  127.5800   64.7870 C   0  0  0  0  0  0  0  0  0  0  0  0
  128.6480  127.7220   63.3310 C   0  0  0  0  0  0  0  0  0  0  0  0
  128.6320  127.8350   62.1790 N   0  0  0  0  0  0  0  0  0  0  0  0
  124.6930  133.2420   62.8910 C   0  0  0  0  0  0  0  0  0  0  0  0
  124.3660  134.4560   62.2950 C   0  0  0  0  0  0  0  0  0  0  0  0
  1  2  1  0
  2  3  1  0
  3  4  1  0
  4  5  2  0
  4  6  1  0
  6  7  2  0
  7  8  1  0
  8  9  2  0
  9 10  1  0
 10 11  1  0
 11 12  2  0
 11 13  1  0
 13 14  1  0
 14 15  1  0
 15 16  2  0
 16 17  1  0
 17 18  1  0
 18 19  2  0
 19 20  1  0
 20 21  2  0
 21 22  1  0
 22 23  1  0
 21 24  1  0
 24 25  2  0
 17 26  2  0
 26 27  1  0
 27 28  1  0
 28 29  2  0
 29 30  1  0
 30 31  2  0
 31 32  1  0
 32 33  1  0
 31 34  1  0
 34 35  2  0
 27 36  2  0
 36 37  1  0
 37 38  3  0
  9 39  1  0
 39 40  2  0
 40  6  1  0
 36 15  1  0
 25 18  1  0
 35 28  1  0
M  END
>  <Binding energies>  (2) 
[-9.48]

>  <Ligand effiencies>  (2) 
[-0.23121951219512196]

>  <Interactions>  (2) 
["V-B:GLU:543:C:9874, V-A:GLU:543:CD:4908, V-A:GLU:543:C:4902, V-A:HIS:456:CE1:4070, V-B:GLY:544:C:9884, V-A:GLU:543:CB:4906, V-B:HIS:456:CE1:9041, V-B:HIS:456:CD2:9039, V-B:GLU:543:CB:9878, V-A:LEU:475:CD2:4259, H-B:LYS:547:NZ:9923, V-B:GLY:544:CA:9886, V-B:GLU:543:CG:9879, V-B:GLU:543:CD:9880, V-A:GLU:543:CG:4907, V-A:ILE:369:CD1:3239, V-A:TYR:539:CD1:4873, V-B:GLY:454:CA:9020, V-B:LEU:475:CD2:9230, V-A:TYR:539:CE1:4875, H-B:TYR:484:OH:9319, H-B:GLY:454:N:9021, V-B:ARG:545:CZ:9898, V-A:GLY:454:CA:4049, V-B:LEU:475:CG:9228, V-B:PRO:482:CB:9297, V-A:VAL:344:CG1:3001, V-B:SER:385:CB:8380, H-B:HIS:383:NE2:8365"]

$$$$
1b_Grossjean_2025
     RDKit          3D

 25 26  0  0  0  0  0  0  0  0999 V2000
  132.0010  132.4900   57.4840 C   0  0  0  0  0  0  0  0  0  0  0  0
  131.1370  133.3890   56.8010 O   0  0  0  0  0  0  0  0  0  0  0  0
  130.0610  132.9340   56.1110 C   0  0  0  0  0  0  0  0  0  0  0  0
  130.0390  132.8220   54.8810 O   0  0  0  0  0  0  0  0  0  0  0  0
  128.9000  132.5720   56.9920 C   0  0  0  0  0  0  0  0  0  0  0  0
  128.8410  132.9590   58.3390 C   0  0  0  0  0  0  0  0  0  0  0  0
  127.7520  132.6060   59.1290 C   0  0  0  0  0  0  0  0  0  0  0  0
  126.7000  131.8620   58.5940 C   0  0  0  0  0  0  0  0  0  0  0  0
  125.6520  131.5620   59.4850 N   0  0  0  0  0  0  0  0  0  0  0  0
  124.3140  131.5810   59.2930 C   0  0  0  0  0  0  0  0  0  0  0  0
  123.7460  131.8770   58.2430 O   0  0  0  0  0  0  0  0  0  0  0  0
  123.4730  131.1840   60.5080 C   0  0  0  0  0  0  0  0  0  0  0  0
  123.3620  132.5240   61.7320 S   0  0  0  0  0  0  0  0  0  0  0  0
  124.9200  133.3850   61.7200 C   0  0  0  0  0  0  0  0  0  0  0  0
  125.9630  132.6320   62.1490 N   0  0  0  0  0  0  0  0  0  0  0  0
  127.1970  133.1880   62.1790 C   0  0  0  0  0  0  0  0  0  0  0  0
  128.3180  132.2820   62.6560 C   0  0  0  0  0  0  0  0  0  0  0  0
  127.4370  134.5060   61.7970 C   0  0  0  0  0  0  0  0  0  0  0  0
  126.3640  135.2970   61.3740 C   0  0  0  0  0  0  0  0  0  0  0  0
  126.6490  136.7440   60.9760 C   0  0  0  0  0  0  0  0  0  0  0  0
  125.0670  134.7380   61.3350 C   0  0  0  0  0  0  0  0  0  0  0  0
  123.9210  135.5600   60.9370 C   0  0  0  0  0  0  0  0  0  0  0  0
  123.0180  136.2120   60.6230 N   0  0  0  0  0  0  0  0  0  0  0  0
  126.7500  131.4710   57.2480 C   0  0  0  0  0  0  0  0  0  0  0  0
  127.8410  131.8250   56.4580 C   0  0  0  0  0  0  0  0  0  0  0  0
  1  2  1  0
  2  3  1  0
  3  4  2  0
  3  5  1  0
  5  6  2  0
  6  7  1  0
  7  8  2  0
  8  9  1  0
  9 10  1  0
 10 11  2  0
 10 12  1  0
 12 13  1  0
 13 14  1  0
 14 15  2  0
 15 16  1  0
 16 17  1  0
 16 18  2  0
 18 19  1  0
 19 20  1  0
 19 21  2  0
 21 22  1  0
 22 23  3  0
  8 24  1  0
 24 25  2  0
 25  5  1  0
 21 14  1  0
M  END
>  <Binding energies>  (3) 
[-7.39]

>  <Ligand effiencies>  (3) 
[-0.28423076923076923]

>  <Interactions>  (3) 
["V-B:ASP:366:CG:8184, V-A:TYR:539:CD1:4873, V-A:LEU:363:CD1:3189, V-A:ILE:538:CG2:4863, V-A:ILE:538:CB:4862, V-B:LEU:475:CD2:9230, V-A:ALA:541:CB:4892, V-A:PRO:540:CA:4883, V-B:ILE:369:CG2:8208, V-A:PRO:540:CB:4885, V-B:ILE:369:CG1:8209, V-A:TYR:539:CE1:4875, V-A:TYR:539:C:4867, H-A:TYR:539:N:4870, V-B:ILE:369:CB:8207, V-A:PRO:540:N:4884, V-A:MET:535:CE:4835, V-B:ASP:366:CA:8181, V-A:PRO:540:CD:4887, V-A:ILE:538:CA:4860, V-A:TYR:539:CZ:4877, V-A:TYR:539:CG:4872, V-B:SER:385:CA:8378, V-B:SER:385:CB:8380, V-A:ILE:538:C:4858, V-A:TYR:539:CB:4871, H-A:TYR:539:OH:4878"]

$$$$
1c_Grossjean_2025
     RDKit          3D

 23 24  0  0  0  0  0  0  0  0999 V2000
  131.5730  132.6170   56.2500 C   0  0  0  0  0  0  0  0  0  0  0  0
  130.3530  133.3490   56.1990 O   0  0  0  0  0  0  0  0  0  0  0  0
  129.3110  132.9790   57.0280 C   0  0  0  0  0  0  0  0  0  0  0  0
  128.2490  132.3030   56.4280 C   0  0  0  0  0  0  0  0  0  0  0  0
  127.1530  131.8880   57.1800 C   0  0  0  0  0  0  0  0  0  0  0  0
  127.1120  132.1440   58.5590 C   0  0  0  0  0  0  0  0  0  0  0  0
  126.0510  131.7800   59.4100 N   0  0  0  0  0  0  0  0  0  0  0  0
  124.7320  131.6750   59.1390 C   0  0  0  0  0  0  0  0  0  0  0  0
  124.2100  131.8740   58.0420 O   0  0  0  0  0  0  0  0  0  0  0  0
  123.8510  131.2660   60.3210 C   0  0  0  0  0  0  0  0  0  0  0  0
  123.5810  132.6450   61.4740 S   0  0  0  0  0  0  0  0  0  0  0  0
  125.0790  133.6050   61.5620 C   0  0  0  0  0  0  0  0  0  0  0  0
  126.1500  132.8960   62.0000 N   0  0  0  0  0  0  0  0  0  0  0  0
  127.3450  133.5210   62.1080 C   0  0  0  0  0  0  0  0  0  0  0  0
  128.4970  132.6610   62.5940 C   0  0  0  0  0  0  0  0  0  0  0  0
  127.5200  134.8670   61.7990 C   0  0  0  0  0  0  0  0  0  0  0  0
  126.4180  135.6150   61.3710 C   0  0  0  0  0  0  0  0  0  0  0  0
  126.6310  137.0940   61.0540 C   0  0  0  0  0  0  0  0  0  0  0  0
  125.1590  134.9830   61.2520 C   0  0  0  0  0  0  0  0  0  0  0  0
  123.9820  135.7630   60.8570 C   0  0  0  0  0  0  0  0  0  0  0  0
  123.0540  136.3780   60.5450 N   0  0  0  0  0  0  0  0  0  0  0  0
  128.1680  132.8320   59.1600 C   0  0  0  0  0  0  0  0  0  0  0  0
  129.2610  133.2450   58.4050 C   0  0  0  0  0  0  0  0  0  0  0  0
  1  2  1  0
  2  3  1  0
  3  4  2  0
  4  5  1  0
  5  6  2  0
  6  7  1  0
  7  8  1  0
  8  9  2  0
  8 10  1  0
 10 11  1  0
 11 12  1  0
 12 13  2  0
 13 14  1  0
 14 15  1  0
 14 16  2  0
 16 17  1  0
 17 18  1  0
 17 19  2  0
 19 20  1  0
 20 21  3  0
  6 22  1  0
 22 23  2  0
 23  3  1  0
 19 12  1  0
M  END
>  <Binding energies>  (4) 
[-7.0]

>  <Ligand effiencies>  (4) 
[-0.2916666666666667]

>  <Interactions>  (4) 
["V-B:ASP:366:CG:8184, V-A:TYR:539:CD1:4873, V-A:LEU:363:CD1:3189, V-A:ILE:538:CG2:4863, V-A:ILE:538:CB:4862, V-B:LEU:475:CD2:9230, V-A:ALA:541:CB:4892, V-A:PRO:540:CA:4883, V-B:ILE:369:CG2:8208, V-A:TYR:539:CE1:4875, V-A:TYR:539:C:4867, H-A:TYR:539:N:4870, V-B:ILE:369:CB:8207, V-A:PRO:540:N:4884, V-A:MET:535:CE:4835, V-A:ILE:538:CA:4860, V-A:TYR:539:CZ:4877, V-B:SER:385:CA:8378, V-B:SER:385:CB:8380, V-A:TYR:539:CB:4871, V-B:LEU:373:CD1:8251, V-A:TYR:539:CA:4869, H-A:TYR:539:OH:4878"]

$$$$
1d_Grossjean_2025
     RDKit          3D

 21 22  0  0  0  0  0  0  0  0999 V2000
  124.1390  131.6450   62.1560 C   0  0  0  0  0  0  0  0  0  0  0  0
  124.6600  133.0360   61.8530 C   0  0  0  0  0  0  0  0  0  0  0  0
  123.8190  134.0440   61.3840 C   0  0  0  0  0  0  0  0  0  0  0  0
  124.3530  135.3120   61.1310 C   0  0  0  0  0  0  0  0  0  0  0  0
  123.4090  136.4040   60.6320 C   0  0  0  0  0  0  0  0  0  0  0  0
  125.7320  135.5380   61.3490 C   0  0  0  0  0  0  0  0  0  0  0  0
  126.3030  136.8690   61.1370 C   0  0  0  0  0  0  0  0  0  0  0  0
  126.7510  137.9230   60.9680 N   0  0  0  0  0  0  0  0  0  0  0  0
  126.5140  134.4500   61.8030 C   0  0  0  0  0  0  0  0  0  0  0  0
  128.2600  134.5550   62.1270 S   0  0  0  0  0  0  0  0  0  0  0  0
  128.8840  132.8550   62.2980 C   0  0  0  0  0  0  0  0  0  0  0  0
  129.9730  132.5350   61.2730 C   0  0  0  0  0  0  0  0  0  0  0  0
  131.1000  132.2380   61.6680 O   0  0  0  0  0  0  0  0  0  0  0  0
  129.5830  132.5840   59.9810 N   0  0  0  0  0  0  0  0  0  0  0  0
  130.3250  132.3650   58.8060 C   0  0  0  0  0  0  0  0  0  0  0  0
  129.8240  132.9720   57.6510 C   0  0  0  0  0  0  0  0  0  0  0  0
  130.4860  132.8240   56.4350 C   0  0  0  0  0  0  0  0  0  0  0  0
  131.6560  132.0720   56.3740 C   0  0  0  0  0  0  0  0  0  0  0  0
  132.1710  131.4680   57.5180 C   0  0  0  0  0  0  0  0  0  0  0  0
  131.5110  131.6140   58.7360 C   0  0  0  0  0  0  0  0  0  0  0  0
  125.9820  133.2290   62.0650 N   0  0  0  0  0  0  0  0  0  0  0  0
  1  2  1  0
  2  3  2  0
  3  4  1  0
  4  5  1  0
  4  6  2  0
  6  7  1  0
  7  8  3  0
  6  9  1  0
  9 10  1  0
 10 11  1  0
 11 12  1  0
 12 13  2  0
 12 14  1  0
 14 15  1  0
 15 16  2  0
 16 17  1  0
 17 18  2  0
 18 19  1  0
 19 20  2  0
  9 21  2  0
 21  2  1  0
 20 15  1  0
M  END
>  <Binding energies>  (5) 
[-7.64]

>  <Ligand effiencies>  (5) 
[-0.34727272727272723]

>  <Interactions>  (5) 
["V-A:TYR:539:CD1:4873, V-A:LEU:363:CD1:3189, V-A:ILE:538:CG2:4863, V-A:ILE:538:CB:4862, V-B:LEU:475:CD2:9230, V-A:ALA:541:CB:4892, V-A:PRO:540:CA:4883, V-B:ILE:369:CG2:8208, V-A:PRO:540:CB:4885, V-A:TYR:539:CE1:4875, V-A:TYR:539:C:4867, V-A:PRO:540:N:4884, V-A:PRO:540:C:4881, H-A:ALA:541:N:4891, H-A:TYR:539:O:4868, V-A:ILE:538:CA:4860, V-B:SER:385:CA:8378, V-B:SER:385:CB:8380, V-A:TYR:539:CB:4871, V-B:LEU:373:CD1:8251, H-B:HIS:383:NE2:8365"]

$$$$
1e_Grossjean_2025
     RDKit          3D

 22 23  0  0  0  0  0  0  0  0999 V2000
  128.5740  133.3780   55.4560 C   0  0  0  0  0  0  0  0  0  0  0  0
  129.3530  132.9630   56.6900 C   0  0  0  0  0  0  0  0  0  0  0  0
  130.7310  132.7360   56.6430 C   0  0  0  0  0  0  0  0  0  0  0  0
  131.3800  132.3550   57.8180 C   0  0  0  0  0  0  0  0  0  0  0  0
  130.6470  132.2100   58.9970 C   0  0  0  0  0  0  0  0  0  0  0  0
  129.2690  132.4590   58.9760 C   0  0  0  0  0  0  0  0  0  0  0  0
  128.5820  132.2860   60.1900 N   0  0  0  0  0  0  0  0  0  0  0  0
  129.0630  132.3800   61.4490 C   0  0  0  0  0  0  0  0  0  0  0  0
  130.2330  132.6330   61.7420 O   0  0  0  0  0  0  0  0  0  0  0  0
  128.0540  132.1170   62.5690 C   0  0  0  0  0  0  0  0  0  0  0  0
  127.2490  130.4960   62.3930 S   0  0  0  0  0  0  0  0  0  0  0  0
  125.7200  130.7130   61.5030 C   0  0  0  0  0  0  0  0  0  0  0  0
  125.8960  130.9960   60.1870 N   0  0  0  0  0  0  0  0  0  0  0  0
  124.8060  131.1840   59.4080 C   0  0  0  0  0  0  0  0  0  0  0  0
  125.0810  131.4880   57.9480 C   0  0  0  0  0  0  0  0  0  0  0  0
  123.5060  131.1110   59.9050 C   0  0  0  0  0  0  0  0  0  0  0  0
  123.3120  130.8450   61.2640 C   0  0  0  0  0  0  0  0  0  0  0  0
  121.8780  130.7890   61.7870 C   0  0  0  0  0  0  0  0  0  0  0  0
  124.4370  130.6480   62.0980 C   0  0  0  0  0  0  0  0  0  0  0  0
  124.2530  130.4270   63.5340 C   0  0  0  0  0  0  0  0  0  0  0  0
  124.1050  130.2520   64.6690 N   0  0  0  0  0  0  0  0  0  0  0  0
  128.6260  132.8280   57.8280 N   0  0  0  0  0  0  0  0  0  0  0  0
  1  2  1  0
  2  3  2  0
  3  4  1  0
  4  5  2  0
  5  6  1  0
  6  7  1  0
  7  8  1  0
  8  9  2  0
  8 10  1  0
 10 11  1  0
 11 12  1  0
 12 13  2  0
 13 14  1  0
 14 15  1  0
 14 16  2  0
 16 17  1  0
 17 18  1  0
 17 19  2  0
 19 20  1  0
 20 21  3  0
  6 22  2  0
 22  2  1  0
 19 12  1  0
M  END
>  <Binding energies>  (6) 
[-6.85]

>  <Ligand effiencies>  (6) 
[-0.29782608695652174]

>  <Interactions>  (6) 
["V-B:ASP:366:CB:8183, V-B:ASP:366:CG:8184, V-A:TYR:539:CD1:4873, V-B:GLY:454:CA:9020, V-A:LEU:363:CD1:3189, V-A:ILE:538:CB:4862, V-A:PRO:540:CA:4883, V-B:ILE:369:CG2:8208, V-A:PRO:540:CB:4885, V-B:ILE:369:CG1:8209, V-A:TYR:539:CE1:4875, V-A:TYR:539:C:4867, V-B:ILE:369:CB:8207, V-A:PRO:540:N:4884, H-B:TYR:484:OH:9319, V-A:MET:535:CE:4835, H-B:GLY:454:N:9021, V-B:ASP:366:CA:8181, H-A:ALA:541:N:4891, V-B:ARG:545:CZ:9898, H-B:ARG:545:NE:9896, V-A:ILE:538:CA:4860, V-A:TYR:539:CZ:4877, V-A:TYR:539:CG:4872, V-A:TYR:539:CE2:4876, V-A:ILE:538:C:4858, V-B:GLY:453:C:9013, V-A:TYR:539:CD2:4874, V-B:GLY:453:CA:9015"]

$$$$
1f_Grossjean_2025
     RDKit          3D

 21 22  0  0  0  0  0  0  0  0999 V2000
  123.6850  132.4640   61.7680 C   0  0  0  0  0  0  0  0  0  0  0  0
  124.4320  133.7750   61.6040 C   0  0  0  0  0  0  0  0  0  0  0  0
  123.7800  134.9420   61.2180 C   0  0  0  0  0  0  0  0  0  0  0  0
  124.5230  136.1180   61.0720 C   0  0  0  0  0  0  0  0  0  0  0  0
  123.7880  137.3830   60.6290 C   0  0  0  0  0  0  0  0  0  0  0  0
  125.9130  136.0950   61.3270 C   0  0  0  0  0  0  0  0  0  0  0  0
  126.7170  137.3030   61.1250 C   0  0  0  0  0  0  0  0  0  0  0  0
  127.3510  138.2580   60.9660 N   0  0  0  0  0  0  0  0  0  0  0  0
  126.4870  134.8710   61.7430 C   0  0  0  0  0  0  0  0  0  0  0  0
  128.2170  134.6490   62.1090 S   0  0  0  0  0  0  0  0  0  0  0  0
  128.5570  132.8590   62.2230 C   0  0  0  0  0  0  0  0  0  0  0  0
  129.2960  132.2640   61.0150 C   0  0  0  0  0  0  0  0  0  0  0  0
  129.7820  131.1340   61.0760 O   0  0  0  0  0  0  0  0  0  0  0  0
  129.3730  133.0820   59.9450 N   0  0  0  0  0  0  0  0  0  0  0  0
  129.9620  132.8620   58.6850 C   0  0  0  0  0  0  0  0  0  0  0  0
  131.1670  132.1720   58.4540 C   0  0  0  0  0  0  0  0  0  0  0  0
  131.6370  132.0220   57.1470 C   0  0  0  0  0  0  0  0  0  0  0  0
  130.8900  132.5640   56.1010 C   0  0  0  0  0  0  0  0  0  0  0  0
  129.7240  133.2290   56.2970 N   0  0  0  0  0  0  0  0  0  0  0  0
  129.2800  133.3660   57.5730 C   0  0  0  0  0  0  0  0  0  0  0  0
  125.7610  133.7300   61.8580 N   0  0  0  0  0  0  0  0  0  0  0  0
  1  2  1  0
  2  3  2  0
  3  4  1  0
  4  5  1  0
  4  6  2  0
  6  7  1  0
  7  8  3  0
  6  9  1  0
  9 10  1  0
 10 11  1  0
 11 12  1  0
 12 13  2  0
 12 14  1  0
 14 15  1  0
 15 16  2  0
 16 17  1  0
 17 18  2  0
 18 19  1  0
 19 20  2  0
  9 21  2  0
 21  2  1  0
 20 15  1  0
M  END
>  <Binding energies>  (7) 
[-7.35]

>  <Ligand effiencies>  (7) 
[-0.33409090909090905]

>  <Interactions>  (7) 
["V-A:TYR:539:CD1:4873, V-A:LEU:363:CD1:3189, V-A:ILE:538:CG2:4863, V-A:ILE:538:CB:4862, V-B:LEU:475:CD2:9230, V-A:ALA:541:CB:4892, V-A:PRO:540:CA:4883, V-B:ILE:369:CG2:8208, V-A:PRO:540:CB:4885, V-B:ILE:369:CG1:8209, V-A:TYR:539:CE1:4875, V-A:TYR:539:C:4867, H-A:TYR:539:N:4870, V-A:PRO:540:N:4884, V-A:MET:535:CE:4835, V-A:PRO:540:C:4881, H-A:ALA:541:N:4891, H-A:TYR:539:O:4868, V-A:ILE:538:CA:4860, V-A:TYR:539:CG:4872, V-B:SER:385:CA:8378, V-B:HIS:383:CD2:8363, V-B:SER:385:CB:8380, V-A:TYR:539:CB:4871, V-B:LEU:373:CD1:8251, V-A:TYR:539:CA:4869, H-B:HIS:383:NE2:8365, V-B:VAL:384:C:8368"]

$$$$
1g_Grossjean_2025
     RDKit          3D

 22 23  0  0  0  0  0  0  0  0999 V2000
  132.6710  131.2540   62.5090 C   0  0  0  0  0  0  0  0  0  0  0  0
  131.8910  131.6610   61.2730 C   0  0  0  0  0  0  0  0  0  0  0  0
  132.4130  131.4900   59.9920 C   0  0  0  0  0  0  0  0  0  0  0  0
  131.6540  131.8990   58.8900 C   0  0  0  0  0  0  0  0  0  0  0  0
  132.2530  131.7160   57.4960 C   0  0  0  0  0  0  0  0  0  0  0  0
  130.3770  132.4660   59.1010 C   0  0  0  0  0  0  0  0  0  0  0  0
  129.5870  132.9490   57.9650 C   0  0  0  0  0  0  0  0  0  0  0  0
  128.9660  133.3310   57.0670 N   0  0  0  0  0  0  0  0  0  0  0  0
  129.9170  132.5770   60.4340 C   0  0  0  0  0  0  0  0  0  0  0  0
  128.3340  133.2560   60.8800 S   0  0  0  0  0  0  0  0  0  0  0  0
  128.3920  133.6390   62.6560 C   0  0  0  0  0  0  0  0  0  0  0  0
  128.3820  132.3730   63.5150 C   0  0  0  0  0  0  0  0  0  0  0  0
  128.2370  132.4570   64.7350 O   0  0  0  0  0  0  0  0  0  0  0  0
  128.5450  131.2090   62.8620 N   0  0  0  0  0  0  0  0  0  0  0  0
  128.5110  129.8810   63.4750 C   0  0  0  0  0  0  0  0  0  0  0  0
  127.3330  129.6540   64.4170 C   0  0  0  0  0  0  0  0  0  0  0  0
  127.5640  129.3230   65.7560 C   0  0  0  0  0  0  0  0  0  0  0  0
  126.4890  129.1160   66.6160 C   0  0  0  0  0  0  0  0  0  0  0  0
  125.1870  129.2470   66.1360 C   0  0  0  0  0  0  0  0  0  0  0  0
  124.9500  129.5810   64.8050 C   0  0  0  0  0  0  0  0  0  0  0  0
  126.0240  129.7860   63.9440 C   0  0  0  0  0  0  0  0  0  0  0  0
  130.6690  132.1990   61.4990 N   0  0  0  0  0  0  0  0  0  0  0  0
  1  2  1  0
  2  3  2  0
  3  4  1  0
  4  5  1  0
  4  6  2  0
  6  7  1  0
  7  8  3  0
  6  9  1  0
  9 10  1  0
 10 11  1  0
 11 12  1  0
 12 13  2  0
 12 14  1  0
 14 15  1  0
 15 16  1  0
 16 17  2  0
 17 18  1  0
 18 19  2  0
 19 20  1  0
 20 21  2  0
  9 22  2  0
 22  2  1  0
 21 16  1  0
M  END
>  <Binding energies>  (8) 
[-7.07]

>  <Ligand effiencies>  (8) 
[-0.3073913043478261]

>  <Interactions>  (8) 
["V-A:GLU:543:CD:4908, V-B:HIS:456:CE1:9041, V-B:ARG:545:CG:9894, V-B:TYR:484:CZ:9318, V-A:GLU:543:CG:4907, V-A:LEU:363:CD1:3189, V-B:LEU:475:CD2:9230, V-A:ALA:541:CB:4892, V-A:PRO:540:CA:4883, V-A:PRO:540:CB:4885, V-A:TYR:539:C:4867, V-A:ALA:541:CA:4890, H-A:TYR:539:N:4870, V-A:PRO:540:N:4884, H-B:TYR:484:OH:9319, V-A:PRO:540:C:4881, H-A:ALA:541:N:4891, V-B:ARG:545:CZ:9898, V-B:ARG:545:CD:9895, V-A:ASN:362:CB:3176"]

$$$$
1h_Grossjean_2025
     RDKit          3D

 28 29  0  0  0  0  0  0  0  0999 V2000
  128.0380  127.7300   67.8460 C   0  0  0  0  0  0  0  0  0  0  0  0
  126.8540  128.4610   67.5450 O   0  0  0  0  0  0  0  0  0  0  0  0
  126.6960  129.0060   66.2840 C   0  0  0  0  0  0  0  0  0  0  0  0
  127.7610  129.3040   65.4190 C   0  0  0  0  0  0  0  0  0  0  0  0
  127.5270  129.8670   64.1640 C   0  0  0  0  0  0  0  0  0  0  0  0
  128.6930  130.1640   63.2250 C   0  0  0  0  0  0  0  0  0  0  0  0
  128.5720  131.4350   62.5110 N   0  0  0  0  0  0  0  0  0  0  0  0
  128.4070  132.6390   63.0900 C   0  0  0  0  0  0  0  0  0  0  0  0
  128.3630  132.8110   64.3070 O   0  0  0  0  0  0  0  0  0  0  0  0
  128.2620  133.8330   62.1470 C   0  0  0  0  0  0  0  0  0  0  0  0
  128.2500  133.3250   60.4010 S   0  0  0  0  0  0  0  0  0  0  0  0
  129.8440  132.6170   60.0190 C   0  0  0  0  0  0  0  0  0  0  0  0
  130.5800  132.2110   61.0870 N   0  0  0  0  0  0  0  0  0  0  0  0
  131.7970  131.6610   60.8680 C   0  0  0  0  0  0  0  0  0  0  0  0
  132.5560  131.2280   62.1090 C   0  0  0  0  0  0  0  0  0  0  0  0
  132.3300  131.4960   59.5920 C   0  0  0  0  0  0  0  0  0  0  0  0
  131.5840  131.9130   58.4850 C   0  0  0  0  0  0  0  0  0  0  0  0
  132.1850  131.7210   57.0940 C   0  0  0  0  0  0  0  0  0  0  0  0
  130.3090  132.4890   58.6900 C   0  0  0  0  0  0  0  0  0  0  0  0
  129.5060  132.9370   57.5490 C   0  0  0  0  0  0  0  0  0  0  0  0
  128.8720  133.2920   56.6480 N   0  0  0  0  0  0  0  0  0  0  0  0
  126.2160  130.1040   63.7490 C   0  0  0  0  0  0  0  0  0  0  0  0
  125.1320  129.8110   64.5910 C   0  0  0  0  0  0  0  0  0  0  0  0
  123.8090  130.0210   64.2460 O   0  0  0  0  0  0  0  0  0  0  0  0
  123.4820  130.3700   62.9050 C   0  0  0  0  0  0  0  0  0  0  0  0
  125.3850  129.2720   65.8600 C   0  0  0  0  0  0  0  0  0  0  0  0
  124.3340  128.9750   66.6920 O   0  0  0  0  0  0  0  0  0  0  0  0
  123.7510  130.1110   67.3160 C   0  0  0  0  0  0  0  0  0  0  0  0
  1  2  1  0
  2  3  1  0
  3  4  2  0
  4  5  1  0
  5  6  1  0
  6  7  1  0
  7  8  1  0
  8  9  2  0
  8 10  1  0
 10 11  1  0
 11 12  1  0
 12 13  2  0
 13 14  1  0
 14 15  1  0
 14 16  2  0
 16 17  1  0
 17 18  1  0
 17 19  2  0
 19 20  1  0
 20 21  3  0
  5 22  2  0
 22 23  1  0
 23 24  1  0
 24 25  1  0
 23 26  2  0
 26 27  1  0
 27 28  1  0
 26  3  1  0
 19 12  1  0
M  END
>  <Binding energies>  (9) 
[-7.09]

>  <Ligand effiencies>  (9) 
[-0.24448275862068966]

>  <Interactions>  (9) 
["V-A:GLU:543:CD:4908, V-B:HIS:456:CE1:9041, V-B:GLU:543:CB:9878, V-B:ARG:545:CG:9894, V-B:TYR:484:CZ:9318, V-B:GLU:543:CD:9880, V-A:GLU:543:CG:4907, V-A:TYR:539:CD1:4873, V-B:GLY:454:CA:9020, V-A:LEU:363:CD1:3189, V-B:LEU:475:CD2:9230, V-A:ALA:541:CB:4892, V-A:PRO:540:CA:4883, V-A:PRO:540:CB:4885, H-B:ARG:545:NH2:9900, V-A:TYR:539:C:4867, H-A:TYR:539:N:4870, V-A:PRO:540:N:4884, H-B:TYR:484:OH:9319, H-B:GLY:454:N:9021, H-A:ALA:541:N:4891, V-B:ARG:545:CZ:9898, H-B:ARG:545:NH1:9899, H-B:ARG:545:NE:9896, V-B:ARG:545:CD:9895, V-A:ASN:362:CB:3176, V-B:GLY:453:CA:9015, V-B:TYR:484:CE1:9316, V-B:GLY:454:C:9018, V-B:ILE:455:C:9023"]

$$$$
1i_Grossjean_2025
     RDKit          3D

 20 21  0  0  0  0  0  0  0  0999 V2000
  123.6770  132.0400   62.4170 C   0  0  0  0  0  0  0  0  0  0  0  0
  124.3340  133.3470   62.0130 C   0  0  0  0  0  0  0  0  0  0  0  0
  123.5920  134.4090   61.5020 C   0  0  0  0  0  0  0  0  0  0  0  0
  124.2500  135.5940   61.1560 C   0  0  0  0  0  0  0  0  0  0  0  0
  123.4130  136.7510   60.6140 C   0  0  0  0  0  0  0  0  0  0  0  0
  125.6510  135.6820   61.3270 C   0  0  0  0  0  0  0  0  0  0  0  0
  126.3530  136.9300   61.0190 C   0  0  0  0  0  0  0  0  0  0  0  0
  126.9060  137.9180   60.7750 N   0  0  0  0  0  0  0  0  0  0  0  0
  126.3270  134.5450   61.8300 C   0  0  0  0  0  0  0  0  0  0  0  0
  128.0830  134.4800   62.1060 S   0  0  0  0  0  0  0  0  0  0  0  0
  128.6180  132.7620   61.8440 C   0  0  0  0  0  0  0  0  0  0  0  0
  129.6050  132.6380   60.6810 C   0  0  0  0  0  0  0  0  0  0  0  0
  130.7370  132.2000   60.8940 O   0  0  0  0  0  0  0  0  0  0  0  0
  129.1360  133.0280   59.4750 N   0  0  0  0  0  0  0  0  0  0  0  0
  129.8180  133.0230   58.2670 C   0  0  0  0  0  0  0  0  0  0  0  0
  131.0850  132.4640   58.1100 C   0  0  0  0  0  0  0  0  0  0  0  0
  131.4030  132.6620   56.7860 C   0  0  0  0  0  0  0  0  0  0  0  0
  130.3810  133.3100   56.1780 O   0  0  0  0  0  0  0  0  0  0  0  0
  129.3820  133.5340   57.1270 N   0  0  0  0  0  0  0  0  0  0  0  0
  125.6760  133.4070   62.1810 N   0  0  0  0  0  0  0  0  0  0  0  0
  1  2  1  0
  2  3  2  0
  3  4  1  0
  4  5  1  0
  4  6  2  0
  6  7  1  0
  7  8  3  0
  6  9  1  0
  9 10  1  0
 10 11  1  0
 11 12  1  0
 12 13  2  0
 12 14  1  0
 14 15  1  0
 15 16  1  0
 16 17  2  0
 17 18  1  0
 18 19  1  0
  9 20  2  0
 20  2  1  0
 19 15  2  0
M  END
>  <Binding energies>  (10) 
[-7.58]

>  <Ligand effiencies>  (10) 
[-0.36095238095238097]

>  <Interactions>  (10) 
["V-A:TYR:539:CD1:4873, V-B:GLY:454:CA:9020, V-A:LEU:363:CD1:3189, V-A:ILE:538:CB:4862, V-B:LEU:475:CD2:9230, V-A:PRO:540:CA:4883, V-B:ILE:369:CG2:8208, V-A:PRO:540:CB:4885, V-B:ILE:369:CG1:8209, V-A:TYR:539:CE1:4875, V-A:TYR:539:C:4867, H-A:TYR:539:N:4870, V-A:PRO:540:N:4884, V-A:PRO:540:C:4881, H-A:ALA:541:N:4891, H-A:TYR:539:O:4868, V-A:PRO:540:CD:4887, V-B:SER:385:CA:8378, V-B:HIS:383:CD2:8363, V-B:SER:385:CB:8380, V-A:TYR:539:CB:4871, V-B:LEU:373:CD1:8251, H-B:HIS:383:NE2:8365, V-B:VAL:384:C:8368"]

$$$$
1k_Grossjean_2025
     RDKit          3D

 25 25  0  0  0  0  0  0  0  0999 V2000
  130.9510  131.8360   62.6390 C   0  0  0  0  0  0  0  0  0  0  0  0
  132.2060  132.2610   62.1330 O   0  0  0  0  0  0  0  0  0  0  0  0
  132.6110  131.5630   60.9630 C   0  0  0  0  0  0  0  0  0  0  0  0
  131.3850  131.2820   60.0840 C   0  0  0  0  0  0  0  0  0  0  0  0
  131.3600  132.2010   58.9990 O   0  0  0  0  0  0  0  0  0  0  0  0
  132.2250  131.8460   57.9290 C   0  0  0  0  0  0  0  0  0  0  0  0
  131.5930  132.2770   56.5990 C   0  0  0  0  0  0  0  0  0  0  0  0
  130.6060  133.2710   56.8430 O   0  0  0  0  0  0  0  0  0  0  0  0
  129.3950  133.0610   56.1290 C   0  0  0  0  0  0  0  0  0  0  0  0
  128.2420  132.8330   57.1240 C   0  0  0  0  0  0  0  0  0  0  0  0
  128.6340  132.9620   58.5290 N   0  0  0  0  0  0  0  0  0  0  0  0
  127.8320  132.7250   59.5820 C   0  0  0  0  0  0  0  0  0  0  0  0
  126.6600  132.3610   59.4660 O   0  0  0  0  0  0  0  0  0  0  0  0
  128.4700  132.9420   60.9630 C   0  0  0  0  0  0  0  0  0  0  0  0
  127.9090  134.4260   61.8680 S   0  0  0  0  0  0  0  0  0  0  0  0
  126.1420  134.6030   61.6670 C   0  0  0  0  0  0  0  0  0  0  0  0
  125.3980  133.5060   61.9650 N   0  0  0  0  0  0  0  0  0  0  0  0
  124.0540  133.5690   61.8250 C   0  0  0  0  0  0  0  0  0  0  0  0
  123.2950  132.3020   62.1680 C   0  0  0  0  0  0  0  0  0  0  0  0
  123.3970  134.7190   61.3940 C   0  0  0  0  0  0  0  0  0  0  0  0
  124.1500  135.8580   61.0920 C   0  0  0  0  0  0  0  0  0  0  0  0
  123.4100  137.1090   60.6210 C   0  0  0  0  0  0  0  0  0  0  0  0
  125.5550  135.8120   61.2270 C   0  0  0  0  0  0  0  0  0  0  0  0
  126.3700  136.9890   60.9130 C   0  0  0  0  0  0  0  0  0  0  0  0
  127.0130  137.9200   60.6650 N   0  0  0  0  0  0  0  0  0  0  0  0
  1  2  1  0
  2  3  1  0
  3  4  1  0
  4  5  1  0
  5  6  1  0
  6  7  1  0
  7  8  1  0
  8  9  1  0
  9 10  1  0
 10 11  1  0
 11 12  1  0
 12 13  2  0
 12 14  1  0
 14 15  1  0
 15 16  1  0
 16 17  2  0
 17 18  1  0
 18 19  1  0
 18 20  2  0
 20 21  1  0
 21 22  1  0
 21 23  2  0
 23 24  1  0
 24 25  3  0
 23 16  1  0
M  END
>  <Binding energies>  (11) 
[-6.59]

>  <Ligand effiencies>  (11) 
[-0.25346153846153846]

>  <Interactions>  (11) 
["V-A:GLU:543:CD:4908, V-A:GLU:543:CG:4907, V-A:TYR:539:CD1:4873, V-B:GLY:454:CA:9020, V-A:LEU:363:CD1:3189, V-A:ILE:538:CG2:4863, V-A:ILE:538:CB:4862, V-B:LEU:475:CD2:9230, V-A:ALA:541:CB:4892, V-A:PRO:540:CA:4883, V-B:ILE:369:CG2:8208, V-A:PRO:540:CB:4885, V-B:ILE:369:CG1:8209, V-A:TYR:539:CE1:4875, V-A:TYR:539:C:4867, V-A:ALA:541:CA:4890, H-A:TYR:539:N:4870, V-A:PRO:540:N:4884, V-A:MET:535:CE:4835, H-A:ALA:541:N:4891, H-A:TYR:539:O:4868, V-A:ILE:538:CA:4860, V-A:TYR:539:CZ:4877, V-A:TYR:539:CG:4872, V-B:SER:385:CA:8378, V-B:HIS:383:CD2:8363, V-B:SER:385:CB:8380, V-A:ILE:538:C:4858, V-A:TYR:539:CB:4871, V-B:LEU:373:CD1:8251, H-B:HIS:383:NE2:8365, V-B:SER:385:C:8376, V-B:VAL:384:C:8368"]

$$$$
1l_Grossjean_2025
     RDKit          3D

 17 17  0  0  0  0  0  0  0  0999 V2000
  128.2560  138.1960   62.0990 C   0  0  0  0  0  0  0  0  0  0  0  0
  127.2630  138.2500   61.0850 O   0  0  0  0  0  0  0  0  0  0  0  0
  126.7470  136.9750   60.8580 N   0  0  0  0  0  0  0  0  0  0  0  0
  125.4340  136.7550   61.0620 C   0  0  0  0  0  0  0  0  0  0  0  0
  124.6070  137.6570   61.2200 O   0  0  0  0  0  0  0  0  0  0  0  0
  125.0140  135.2790   61.0720 C   0  0  0  0  0  0  0  0  0  0  0  0
  126.2560  134.1270   61.7530 S   0  0  0  0  0  0  0  0  0  0  0  0
  125.4130  132.6380   62.2610 C   0  0  0  0  0  0  0  0  0  0  0  0
  124.2250  132.3950   61.6480 N   0  0  0  0  0  0  0  0  0  0  0  0
  123.5310  131.2820   61.9870 C   0  0  0  0  0  0  0  0  0  0  0  0
  122.2150  131.0790   61.2600 C   0  0  0  0  0  0  0  0  0  0  0  0
  123.9870  130.3730   62.9390 C   0  0  0  0  0  0  0  0  0  0  0  0
  125.2090  130.6120   63.5760 C   0  0  0  0  0  0  0  0  0  0  0  0
  125.6900  129.6020   64.6160 C   0  0  0  0  0  0  0  0  0  0  0  0
  125.9480  131.7670   63.2380 C   0  0  0  0  0  0  0  0  0  0  0  0
  127.2330  132.0430   63.8890 C   0  0  0  0  0  0  0  0  0  0  0  0
  128.2460  132.2590   64.4040 N   0  0  0  0  0  0  0  0  0  0  0  0
  1  2  1  0
  2  3  1  0
  3  4  1  0
  4  5  2  0
  4  6  1  0
  6  7  1  0
  7  8  1  0
  8  9  2  0
  9 10  1  0
 10 11  1  0
 10 12  2  0
 12 13  1  0
 13 14  1  0
 13 15  2  0
 15 16  1  0
 16 17  3  0
 15  8  1  0
M  END
>  <Binding energies>  (12) 
[-6.31]

>  <Ligand effiencies>  (12) 
[-0.3505555555555555]

>  <Interactions>  (12) 
["V-B:ASP:366:CG:8184, V-B:TYR:484:CZ:9318, V-A:TYR:539:CD1:4873, V-B:LEU:475:CD2:9230, V-B:ILE:369:CG2:8208, V-B:ILE:369:CG1:8209, V-A:TYR:539:CE1:4875, V-A:TYR:539:C:4867, V-B:ILE:369:CB:8207, H-B:TYR:484:OH:9319, V-B:ASP:366:CA:8181, H-A:TYR:539:O:4868, V-B:ARG:545:CZ:9898, V-B:PRO:482:CB:9297, V-A:TYR:539:CG:4872, V-A:VAL:344:CG1:3001, V-A:TYR:539:CB:4871, H-B:HIS:383:NE2:8365"]

$$$$
1m_Grossjean_2025
     RDKit          3D

 20 20  0  0  0  0  0  0  0  0999 V2000
  127.5120  138.1840   61.7450 C   0  0  0  0  0  0  0  0  0  0  0  0
  126.6880  137.5890   60.7530 O   0  0  0  0  0  0  0  0  0  0  0  0
  125.4640  137.1200   61.0700 C   0  0  0  0  0  0  0  0  0  0  0  0
  124.4690  137.8130   61.3040 O   0  0  0  0  0  0  0  0  0  0  0  0
  125.4380  135.5780   61.0980 C   0  0  0  0  0  0  0  0  0  0  0  0
  126.7820  134.9840   61.0230 N   0  0  0  0  0  0  0  0  0  0  0  0
  127.0650  133.6700   61.0940 C   0  0  0  0  0  0  0  0  0  0  0  0
  126.2020  132.8040   61.2510 O   0  0  0  0  0  0  0  0  0  0  0  0
  128.5510  133.3060   60.9760 C   0  0  0  0  0  0  0  0  0  0  0  0
  128.8880  131.7620   60.0620 S   0  0  0  0  0  0  0  0  0  0  0  0
  127.9880  131.8240   58.5270 C   0  0  0  0  0  0  0  0  0  0  0  0
  126.7770  131.2130   58.5830 N   0  0  0  0  0  0  0  0  0  0  0  0
  126.0010  131.2020   57.4750 C   0  0  0  0  0  0  0  0  0  0  0  0
  124.6550  130.5190   57.6190 C   0  0  0  0  0  0  0  0  0  0  0  0
  126.3990  131.7840   56.2730 C   0  0  0  0  0  0  0  0  0  0  0  0
  127.6570  132.3930   56.1960 C   0  0  0  0  0  0  0  0  0  0  0  0
  128.0780  133.0090   54.8640 C   0  0  0  0  0  0  0  0  0  0  0  0
  128.4850  132.4150   57.3410 C   0  0  0  0  0  0  0  0  0  0  0  0
  129.8250  133.0040   57.2690 C   0  0  0  0  0  0  0  0  0  0  0  0
  130.8820  133.4690   57.2110 N   0  0  0  0  0  0  0  0  0  0  0  0
  1  2  1  0
  2  3  1  0
  3  4  2  0
  3  5  1  0
  5  6  1  0
  6  7  1  0
  7  8  2  0
  7  9  1  0
  9 10  1  0
 10 11  1  0
 11 12  2  0
 12 13  1  0
 13 14  1  0
 13 15  2  0
 15 16  1  0
 16 17  1  0
 16 18  2  0
 18 19  1  0
 19 20  3  0
 18 11  1  0
M  END
>  <Binding energies>  (13) 
[-6.32]

>  <Ligand effiencies>  (13) 
[-0.30095238095238097]

>  <Interactions>  (13) 
["V-B:ASP:366:CB:8183, V-A:TYR:539:CD1:4873, V-B:LEU:475:CD2:9230, V-A:PRO:540:CA:4883, V-A:TYR:539:CE1:4875, V-A:TYR:539:C:4867, H-A:TYR:539:N:4870, V-A:PRO:540:N:4884, V-A:MET:535:CE:4835, V-B:TYR:531:CZ:9766, H-A:TYR:539:O:4868, V-A:ILE:538:CA:4860, V-A:TYR:539:CZ:4877, V-B:HIS:383:CD2:8363, V-B:HIS:383:CE1:8364, V-A:TYR:539:CE2:4876, V-A:TYR:539:CD2:4874, H-B:HIS:383:NE2:8365"]

$$$$
1n_Grossjean_2025
     RDKit          3D

 27 28  0  0  0  0  0  0  0  0999 V2000
  127.5130  139.3270   63.1980 C   0  0  0  0  0  0  0  0  0  0  0  0
  126.2490  138.6300   62.6840 C   0  0  0  0  0  0  0  0  0  0  0  0
  126.5070  138.0700   61.4020 O   0  0  0  0  0  0  0  0  0  0  0  0
  125.6830  137.1320   60.8680 C   0  0  0  0  0  0  0  0  0  0  0  0
  124.7940  137.3920   60.0530 O   0  0  0  0  0  0  0  0  0  0  0  0
  125.9700  135.7420   61.3600 C   0  0  0  0  0  0  0  0  0  0  0  0
  127.2740  135.3110   61.6490 C   0  0  0  0  0  0  0  0  0  0  0  0
  127.5060  134.0150   62.1000 C   0  0  0  0  0  0  0  0  0  0  0  0
  126.4470  133.1220   62.2640 C   0  0  0  0  0  0  0  0  0  0  0  0
  126.7950  131.8360   62.7200 N   0  0  0  0  0  0  0  0  0  0  0  0
  127.5230  131.4690   63.7960 C   0  0  0  0  0  0  0  0  0  0  0  0
  128.0290  132.2400   64.6120 O   0  0  0  0  0  0  0  0  0  0  0  0
  127.7110  129.9580   63.9860 C   0  0  0  0  0  0  0  0  0  0  0  0
  127.8700  129.1950   62.6540 C   0  0  0  0  0  0  0  0  0  0  0  0
  126.4010  128.2550   62.1430 S   0  0  0  0  0  0  0  0  0  0  0  0
  125.2500  129.4040   61.4200 C   0  0  0  0  0  0  0  0  0  0  0  0
  125.4010  129.5530   60.0800 N   0  0  0  0  0  0  0  0  0  0  0  0
  124.5670  130.3910   59.4200 C   0  0  0  0  0  0  0  0  0  0  0  0
  124.7890  130.4990   57.9240 C   0  0  0  0  0  0  0  0  0  0  0  0
  123.5630  131.1130   60.0620 C   0  0  0  0  0  0  0  0  0  0  0  0
  123.4130  130.9820   61.4470 C   0  0  0  0  0  0  0  0  0  0  0  0
  122.3140  131.7930   62.1320 C   0  0  0  0  0  0  0  0  0  0  0  0
  124.2750  130.1160   62.1580 C   0  0  0  0  0  0  0  0  0  0  0  0
  124.1690  130.0030   63.6130 C   0  0  0  0  0  0  0  0  0  0  0  0
  124.0840  129.9160   64.7640 N   0  0  0  0  0  0  0  0  0  0  0  0
  125.1400  133.5480   61.9860 C   0  0  0  0  0  0  0  0  0  0  0  0
  124.9090  134.8460   61.5380 C   0  0  0  0  0  0  0  0  0  0  0  0
  1  2  1  0
  2  3  1  0
  3  4  1  0
  4  5  2  0
  4  6  1  0
  6  7  2  0
  7  8  1  0
  8  9  2  0
  9 10  1  0
 10 11  1  0
 11 12  2  0
 11 13  1  0
 13 14  1  0
 14 15  1  0
 15 16  1  0
 16 17  2  0
 17 18  1  0
 18 19  1  0
 18 20  2  0
 20 21  1  0
 21 22  1  0
 21 23  2  0
 23 24  1  0
 24 25  3  0
  9 26  1  0
 26 27  2  0
 27  6  1  0
 23 16  1  0
M  END
>  <Binding energies>  (14) 
[-7.74]

>  <Ligand effiencies>  (14) 
[-0.2764285714285714]

>  <Interactions>  (14) 
["V-A:GLU:543:CD:4908, V-B:ASP:366:CB:8183, V-B:ASP:366:CG:8184, V-A:TYR:539:CD1:4873, V-B:GLY:454:CA:9020, V-B:LEU:475:CD2:9230, V-A:ALA:541:CB:4892, V-B:ILE:369:CG2:8208, H-B:ARG:545:NH2:9900, V-B:ILE:369:CG1:8209, V-A:TYR:539:CE1:4875, V-A:TYR:539:C:4867, V-B:ILE:369:CB:8207, H-B:TYR:484:OH:9319, H-B:GLY:454:N:9021, V-B:ASP:366:CA:8181, V-B:ARG:545:CZ:9898, H-B:ARG:545:NE:9896, V-B:LEU:475:CG:9228, V-B:PRO:482:CB:9297, V-B:LEU:475:CD1:9229, V-B:HIS:383:CD2:8363, V-B:HIS:383:CE1:8364, V-B:GLY:453:C:9013, H-B:HIS:383:NE2:8365, V-B:GLY:453:CA:9015, V-B:THR:477:CG2:9244"]

$$$$
1q_Grossjean_2025
     RDKit          3D

 21 21  0  0  0  0  0  0  0  0999 V2000
  128.3680  133.1150   56.0650 C   0  0  0  0  0  0  0  0  0  0  0  0
  129.1550  133.3510   57.2230 O   0  0  0  0  0  0  0  0  0  0  0  0
  130.4920  133.1290   57.2050 C   0  0  0  0  0  0  0  0  0  0  0  0
  131.2500  133.4010   56.2720 O   0  0  0  0  0  0  0  0  0  0  0  0
  131.0340  132.4490   58.4800 C   0  0  0  0  0  0  0  0  0  0  0  0
  129.9880  132.1850   59.4790 N   0  0  0  0  0  0  0  0  0  0  0  0
  130.1720  132.1020   60.8110 C   0  0  0  0  0  0  0  0  0  0  0  0
  131.2710  132.2440   61.3490 O   0  0  0  0  0  0  0  0  0  0  0  0
  128.9130  131.8310   61.6480 C   0  0  0  0  0  0  0  0  0  0  0  0
  128.6560  132.8670   62.7600 C   0  0  0  0  0  0  0  0  0  0  0  0
  128.2270  134.5180   62.1310 S   0  0  0  0  0  0  0  0  0  0  0  0
  126.4780  134.5610   61.7980 C   0  0  0  0  0  0  0  0  0  0  0  0
  125.8470  133.3930   62.0790 N   0  0  0  0  0  0  0  0  0  0  0  0
  124.5140  133.3030   61.8640 C   0  0  0  0  0  0  0  0  0  0  0  0
  123.8830  131.9610   62.1850 C   0  0  0  0  0  0  0  0  0  0  0  0
  123.7580  134.3670   61.3770 C   0  0  0  0  0  0  0  0  0  0  0  0
  124.3920  135.5840   61.1080 C   0  0  0  0  0  0  0  0  0  0  0  0
  123.5380  136.7410   60.5910 C   0  0  0  0  0  0  0  0  0  0  0  0
  125.7830  135.7030   61.3260 C   0  0  0  0  0  0  0  0  0  0  0  0
  126.4540  136.9850   61.1050 C   0  0  0  0  0  0  0  0  0  0  0  0
  126.9800  138.0010   60.9290 N   0  0  0  0  0  0  0  0  0  0  0  0
  1  2  1  0
  2  3  1  0
  3  4  2  0
  3  5  1  0
  5  6  1  0
  6  7  1  0
  7  8  2  0
  7  9  1  0
  9 10  1  0
 10 11  1  0
 11 12  1  0
 12 13  2  0
 13 14  1  0
 14 15  1  0
 14 16  2  0
 16 17  1  0
 17 18  1  0
 17 19  2  0
 19 20  1  0
 20 21  3  0
 19 12  1  0
M  END
>  <Binding energies>  (15) 
[-6.68]

>  <Ligand effiencies>  (15) 
[-0.30363636363636365]

>  <Interactions>  (15) 
["V-A:TYR:539:CD1:4873, V-A:ILE:538:CB:4862, V-B:LEU:475:CD2:9230, V-A:ALA:541:CB:4892, V-A:PRO:540:CA:4883, V-B:ILE:369:CG2:8208, V-A:PRO:540:CB:4885, V-A:TYR:539:CE1:4875, V-A:TYR:539:C:4867, H-A:TYR:539:N:4870, V-A:PRO:540:N:4884, V-A:MET:535:CE:4835, H-A:ALA:541:N:4891, V-A:PRO:540:CD:4887, V-A:ILE:538:CA:4860, V-A:TYR:539:CZ:4877, V-A:TYR:539:CG:4872, V-B:SER:385:CA:8378, V-B:HIS:383:CD2:8363, V-B:SER:385:CB:8380, V-A:TYR:539:CE2:4876, V-A:TYR:539:CB:4871, V-B:LEU:373:CD1:8251, V-A:TYR:539:CD2:4874, H-B:HIS:383:NE2:8365, V-B:VAL:384:C:8368"]

$$$$
2a_Grossjean_2025
     RDKit          3D

 29 30  0  0  0  0  0  0  0  0999 V2000
  131.8900  131.4140   55.9190 C   0  0  0  0  0  0  0  0  0  0  0  0
  131.9790  132.6180   56.8620 C   0  0  0  0  0  0  0  0  0  0  0  0
  130.8620  133.4720   56.6410 O   0  0  0  0  0  0  0  0  0  0  0  0
  129.7700  133.0350   55.9610 C   0  0  0  0  0  0  0  0  0  0  0  0
  129.7140  132.9770   54.7300 O   0  0  0  0  0  0  0  0  0  0  0  0
  128.6460  132.6090   56.8610 C   0  0  0  0  0  0  0  0  0  0  0  0
  127.5290  131.9140   56.3740 C   0  0  0  0  0  0  0  0  0  0  0  0
  126.5030  131.5350   57.2350 C   0  0  0  0  0  0  0  0  0  0  0  0
  126.5660  131.8470   58.5930 C   0  0  0  0  0  0  0  0  0  0  0  0
  125.4670  131.4270   59.3660 N   0  0  0  0  0  0  0  0  0  0  0  0
  124.1480  131.4410   59.0780 C   0  0  0  0  0  0  0  0  0  0  0  0
  123.6480  131.8710   58.0390 O   0  0  0  0  0  0  0  0  0  0  0  0
  123.2290  130.8670   60.1630 C   0  0  0  0  0  0  0  0  0  0  0  0
  123.0050  131.9870   61.5840 S   0  0  0  0  0  0  0  0  0  0  0  0
  124.2410  133.2800   61.5360 C   0  0  0  0  0  0  0  0  0  0  0  0
  123.8100  134.4910   61.0990 N   0  0  0  0  0  0  0  0  0  0  0  0
  124.6930  135.5120   61.0240 C   0  0  0  0  0  0  0  0  0  0  0  0
  124.1430  136.8250   60.5010 C   0  0  0  0  0  0  0  0  0  0  0  0
  126.0300  135.3750   61.3860 C   0  0  0  0  0  0  0  0  0  0  0  0
  126.4970  134.1350   61.8490 C   0  0  0  0  0  0  0  0  0  0  0  0
  127.9790  134.0010   62.2470 C   0  0  0  0  0  0  0  0  0  0  0  0
  128.5910  135.1800   62.1340 F   0  0  0  0  0  0  0  0  0  0  0  0
  128.0750  133.5800   63.5090 F   0  0  0  0  0  0  0  0  0  0  0  0
  128.6410  133.1290   61.4810 F   0  0  0  0  0  0  0  0  0  0  0  0
  125.5810  133.0550   61.9290 C   0  0  0  0  0  0  0  0  0  0  0  0
  126.0150  131.7370   62.4020 C   0  0  0  0  0  0  0  0  0  0  0  0
  126.3570  130.6960   62.7760 N   0  0  0  0  0  0  0  0  0  0  0  0
  127.6830  132.5340   59.0890 C   0  0  0  0  0  0  0  0  0  0  0  0
  128.7110  132.9090   58.2280 C   0  0  0  0  0  0  0  0  0  0  0  0
  1  2  1  0
  2  3  1  0
  3  4  1  0
  4  5  2  0
  4  6  1  0
  6  7  2  0
  7  8  1  0
  8  9  2  0
  9 10  1  0
 10 11  1  0
 11 12  2  0
 11 13  1  0
 13 14  1  0
 14 15  1  0
 15 16  2  0
 16 17  1  0
 17 18  1  0
 17 19  2  0
 19 20  1  0
 20 21  1  0
 21 22  1  0
 21 23  1  0
 21 24  1  0
 20 25  2  0
 25 26  1  0
 26 27  3  0
  9 28  1  0
 28 29  2  0
 29  6  1  0
 25 15  1  0
M  END
>  <Binding energies>  (16) 
[-7.34]

>  <Ligand effiencies>  (16) 
[-0.24466666666666667]

>  <Interactions>  (16) 
["V-B:ASP:366:CB:8183, V-B:ASP:366:CG:8184, V-A:TYR:539:CD1:4873, V-A:LEU:363:CD1:3189, V-A:TYR:531:CE2:4793, V-A:ILE:538:CG2:4863, V-A:ILE:538:CB:4862, V-A:TYR:531:CZ:4794, V-B:LEU:475:CD2:9230, V-A:ALA:541:CB:4892, V-A:PRO:540:CA:4883, V-B:ILE:369:CG2:8208, V-A:PRO:540:CB:4885, V-B:ILE:369:CG1:8209, V-A:TYR:539:CE1:4875, V-A:TYR:539:C:4867, V-A:ALA:541:CA:4890, H-A:TYR:539:N:4870, V-B:ILE:369:CB:8207, V-A:MET:535:CE:4835, V-A:PRO:540:C:4881, V-B:ASP:366:CA:8181, V-A:PRO:540:CD:4887, V-A:ILE:538:CA:4860, V-A:TYR:539:CZ:4877, V-A:TYR:539:CG:4872, V-B:SER:385:CA:8378, V-B:HIS:383:CD2:8363, V-B:SER:385:CB:8380, V-A:ILE:538:C:4858, V-B:LEU:373:CD1:8251, H-A:TYR:539:OH:4878"]

$$$$
2b_Grossjean_2025
     RDKit          3D

 28 29  0  0  0  0  0  0  0  0999 V2000
  131.8820  132.5320   57.1070 C   0  0  0  0  0  0  0  0  0  0  0  0
  130.8620  133.4340   56.7010 O   0  0  0  0  0  0  0  0  0  0  0  0
  129.7890  133.0030   55.9900 C   0  0  0  0  0  0  0  0  0  0  0  0
  129.7530  132.9850   54.7550 O   0  0  0  0  0  0  0  0  0  0  0  0
  128.6470  132.5530   56.8540 C   0  0  0  0  0  0  0  0  0  0  0  0
  128.6500  132.7380   58.2450 C   0  0  0  0  0  0  0  0  0  0  0  0
  127.5760  132.3080   59.0180 C   0  0  0  0  0  0  0  0  0  0  0  0
  126.4770  131.6910   58.4210 C   0  0  0  0  0  0  0  0  0  0  0  0
  125.4490  131.2900   59.2960 N   0  0  0  0  0  0  0  0  0  0  0  0
  124.1100  131.3720   59.1480 C   0  0  0  0  0  0  0  0  0  0  0  0
  123.5290  131.8630   58.1790 O   0  0  0  0  0  0  0  0  0  0  0  0
  123.2880  130.8130   60.3130 C   0  0  0  0  0  0  0  0  0  0  0  0
  123.0210  132.0250   61.6490 S   0  0  0  0  0  0  0  0  0  0  0  0
  124.2430  133.3260   61.5460 C   0  0  0  0  0  0  0  0  0  0  0  0
  123.7790  134.5400   61.1560 N   0  0  0  0  0  0  0  0  0  0  0  0
  124.6490  135.5700   61.0510 C   0  0  0  0  0  0  0  0  0  0  0  0
  124.0530  136.8890   60.5980 C   0  0  0  0  0  0  0  0  0  0  0  0
  126.0050  135.4390   61.3350 C   0  0  0  0  0  0  0  0  0  0  0  0
  126.5060  134.1940   61.7470 C   0  0  0  0  0  0  0  0  0  0  0  0
  128.0080  134.0670   62.0620 C   0  0  0  0  0  0  0  0  0  0  0  0
  128.5590  135.2790   62.1560 F   0  0  0  0  0  0  0  0  0  0  0  0
  128.1820  133.4230   63.2170 F   0  0  0  0  0  0  0  0  0  0  0  0
  128.6780  133.3940   61.1230 F   0  0  0  0  0  0  0  0  0  0  0  0
  125.6060  133.1040   61.8550 C   0  0  0  0  0  0  0  0  0  0  0  0
  126.0750  131.7800   62.2740 C   0  0  0  0  0  0  0  0  0  0  0  0
  126.4460  130.7350   62.6060 N   0  0  0  0  0  0  0  0  0  0  0  0
  126.4680  131.4950   57.0320 C   0  0  0  0  0  0  0  0  0  0  0  0
  127.5440  131.9250   56.2600 C   0  0  0  0  0  0  0  0  0  0  0  0
  1  2  1  0
  2  3  1  0
  3  4  2  0
  3  5  1  0
  5  6  2  0
  6  7  1  0
  7  8  2  0
  8  9  1  0
  9 10  1  0
 10 11  2  0
 10 12  1  0
 12 13  1  0
 13 14  1  0
 14 15  2  0
 15 16  1  0
 16 17  1  0
 16 18  2  0
 18 19  1  0
 19 20  1  0
 20 21  1  0
 20 22  1  0
 20 23  1  0
 19 24  2  0
 24 25  1  0
 25 26  3  0
  8 27  1  0
 27 28  2  0
 28  5  1  0
 24 14  1  0
M  END
>  <Binding energies>  (17) 
[-7.23]

>  <Ligand effiencies>  (17) 
[-0.2493103448275862]

>  <Interactions>  (17) 
["V-B:ASP:366:CB:8183, V-B:ASP:366:CG:8184, V-A:TYR:539:CD1:4873, V-A:LEU:363:CD1:3189, V-A:ILE:538:CG2:4863, V-A:ILE:538:CB:4862, V-B:LEU:475:CD2:9230, V-A:ALA:541:CB:4892, V-A:PRO:540:CA:4883, V-B:ILE:369:CG2:8208, V-A:PRO:540:CB:4885, V-B:ILE:369:CG1:8209, V-A:TYR:539:CE1:4875, V-A:TYR:539:C:4867, V-A:ALA:541:CA:4890, H-A:TYR:539:N:4870, V-B:ILE:369:CB:8207, V-A:PRO:540:N:4884, V-A:MET:535:CE:4835, V-A:PRO:540:C:4881, V-B:ASP:366:CA:8181, V-A:PRO:540:CD:4887, V-A:ILE:538:CA:4860, V-A:TYR:539:CZ:4877, V-B:SER:385:CA:8378, V-B:HIS:383:CD2:8363, V-B:SER:385:CB:8380, V-A:ILE:538:C:4858, V-B:LEU:373:CD1:8251, H-A:TYR:539:OH:4878"]

$$$$
2c_Grossjean_2025
     RDKit          3D

 26 27  0  0  0  0  0  0  0  0999 V2000
  131.8290  132.4320   55.7560 C   0  0  0  0  0  0  0  0  0  0  0  0
  131.0420  133.3740   56.4780 O   0  0  0  0  0  0  0  0  0  0  0  0
  130.4630  132.9930   57.6730 C   0  0  0  0  0  0  0  0  0  0  0  0
  131.2340  132.1850   58.5080 C   0  0  0  0  0  0  0  0  0  0  0  0
  130.7370  131.7490   59.7330 C   0  0  0  0  0  0  0  0  0  0  0  0
  129.4430  132.1140   60.1330 C   0  0  0  0  0  0  0  0  0  0  0  0
  128.8620  131.7380   61.3580 N   0  0  0  0  0  0  0  0  0  0  0  0
  129.3710  131.8550   62.6030 C   0  0  0  0  0  0  0  0  0  0  0  0
  130.4990  132.2810   62.8620 O   0  0  0  0  0  0  0  0  0  0  0  0
  128.4450  131.3710   63.7290 C   0  0  0  0  0  0  0  0  0  0  0  0
  127.4770  129.8670   63.3570 S   0  0  0  0  0  0  0  0  0  0  0  0
  126.1710  130.2710   62.2040 C   0  0  0  0  0  0  0  0  0  0  0  0
  126.5590  130.4440   60.9140 N   0  0  0  0  0  0  0  0  0  0  0  0
  125.6270  130.7600   59.9890 C   0  0  0  0  0  0  0  0  0  0  0  0
  126.1420  130.9540   58.5750 C   0  0  0  0  0  0  0  0  0  0  0  0
  124.2770  130.9080   60.3010 C   0  0  0  0  0  0  0  0  0  0  0  0
  123.8530  130.7260   61.6250 C   0  0  0  0  0  0  0  0  0  0  0  0
  122.3560  130.8910   61.9550 C   0  0  0  0  0  0  0  0  0  0  0  0
  122.1310  132.1070   62.4550 F   0  0  0  0  0  0  0  0  0  0  0  0
  121.6240  130.7340   60.8520 F   0  0  0  0  0  0  0  0  0  0  0  0
  121.9260  130.0020   62.8530 F   0  0  0  0  0  0  0  0  0  0  0  0
  124.8210  130.3990   62.6080 C   0  0  0  0  0  0  0  0  0  0  0  0
  124.4340  130.2000   64.0090 C   0  0  0  0  0  0  0  0  0  0  0  0
  124.1280  130.0420   65.1140 N   0  0  0  0  0  0  0  0  0  0  0  0
  128.6730  132.9350   59.3080 C   0  0  0  0  0  0  0  0  0  0  0  0
  129.1740  133.3690   58.0840 C   0  0  0  0  0  0  0  0  0  0  0  0
  1  2  1  0
  2  3  1  0
  3  4  2  0
  4  5  1  0
  5  6  2  0
  6  7  1  0
  7  8  1  0
  8  9  2  0
  8 10  1  0
 10 11  1  0
 11 12  1  0
 12 13  2  0
 13 14  1  0
 14 15  1  0
 14 16  2  0
 16 17  1  0
 17 18  1  0
 18 19  1  0
 18 20  1  0
 18 21  1  0
 17 22  2  0
 22 23  1  0
 23 24  3  0
  6 25  1  0
 25 26  2  0
 26  3  1  0
 22 12  1  0
M  END
>  <Binding energies>  (18) 
[-6.55]

>  <Ligand effiencies>  (18) 
[-0.24259259259259258]

>  <Interactions>  (18) 
["V-A:GLU:543:CD:4908, V-B:ASP:366:CB:8183, V-B:ASP:366:CG:8184, V-A:GLU:543:CG:4907, V-A:TYR:539:CD1:4873, V-B:GLY:454:CA:9020, V-A:LEU:363:CD1:3189, V-A:ILE:538:CG2:4863, V-A:ILE:538:CB:4862, V-A:PRO:540:CA:4883, V-B:ILE:369:CG2:8208, V-A:PRO:540:CB:4885, V-B:ILE:369:CG1:8209, V-A:TYR:539:CE1:4875, V-A:TYR:539:C:4867, H-A:TYR:539:N:4870, V-B:ILE:369:CB:8207, V-A:PRO:540:N:4884, H-B:TYR:484:OH:9319, H-B:GLY:454:N:9021, V-B:ASP:366:CA:8181, H-A:ALA:541:N:4891, V-B:ARG:545:CZ:9898, H-B:ARG:545:NE:9896, V-A:PRO:540:CD:4887, V-A:ILE:538:CA:4860, V-A:TYR:539:CG:4872, V-B:GLY:453:C:9013, V-B:ILE:369:CD1:8210, V-A:TYR:539:CA:4869, V-B:GLY:453:CA:9015, V-B:CYS:365:C:8175"]

$$$$
2d_Ghoteimi_2023
     RDKit          3D

 38 42  0  0  0  0  0  0  0  0999 V2000
  132.5570  131.4910   62.3850 C   0  0  0  0  0  0  0  0  0  0  0  0
  131.3140  132.1700   62.4830 O   0  0  0  0  0  0  0  0  0  0  0  0
  130.4540  132.1800   61.4440 C   0  0  0  0  0  0  0  0  0  0  0  0
  130.6220  131.5960   60.3700 O   0  0  0  0  0  0  0  0  0  0  0  0
  129.2060  133.0170   61.7620 C   0  0  0  0  0  0  0  0  0  0  0  0
  127.6790  132.1210   61.3160 S   0  0  0  0  0  0  0  0  0  0  0  0
  127.7290  130.5140   62.0820 C   0  0  0  0  0  0  0  0  0  0  0  0
  127.5110  129.4990   61.2100 N   0  0  0  0  0  0  0  0  0  0  0  0
  127.5140  128.2180   61.6580 C   0  0  0  0  0  0  0  0  0  0  0  0
  127.2490  127.1530   60.6420 C   0  0  0  0  0  0  0  0  0  0  0  0
  126.7730  127.4860   59.3690 C   0  0  0  0  0  0  0  0  0  0  0  0
  126.5240  126.5000   58.4180 C   0  0  0  0  0  0  0  0  0  0  0  0
  126.7530  125.1450   58.7030 C   0  0  0  0  0  0  0  0  0  0  0  0
  126.4910  124.1400   57.7650 N   0  0  0  0  0  0  0  0  0  0  0  0
  127.5650  123.2740   57.2400 C   0  0  0  0  0  0  0  0  0  0  0  0
  127.1670  122.4970   55.9680 C   0  0  0  0  0  0  0  0  0  0  0  0
  125.9860  121.7480   56.2090 O   0  0  0  0  0  0  0  0  0  0  0  0
  124.8990  122.5870   56.5620 C   0  0  0  0  0  0  0  0  0  0  0  0
  125.2320  123.3720   57.8490 C   0  0  0  0  0  0  0  0  0  0  0  0
  127.2170  124.8150   59.9840 C   0  0  0  0  0  0  0  0  0  0  0  0
  127.4640  125.8010   60.9350 C   0  0  0  0  0  0  0  0  0  0  0  0
  127.7430  127.9250   63.0050 C   0  0  0  0  0  0  0  0  0  0  0  0
  128.0040  128.9530   63.9200 C   0  0  0  0  0  0  0  0  0  0  0  0
  128.2670  128.5640   65.3380 C   0  0  0  0  0  0  0  0  0  0  0  0
  127.8580  129.3960   66.3810 C   0  0  0  0  0  0  0  0  0  0  0  0
  128.0880  129.0370   67.7060 C   0  0  0  0  0  0  0  0  0  0  0  0
  128.7380  127.8340   68.0260 C   0  0  0  0  0  0  0  0  0  0  0  0
  128.9670  127.4470   69.3490 N   0  0  0  0  0  0  0  0  0  0  0  0
  127.8560  127.0690   70.2440 C   0  0  0  0  0  0  0  0  0  0  0  0
  128.3170  126.3390   71.5230 C   0  0  0  0  0  0  0  0  0  0  0  0
  129.2780  127.1250   72.2110 O   0  0  0  0  0  0  0  0  0  0  0  0
  130.4220  127.3760   71.4100 C   0  0  0  0  0  0  0  0  0  0  0  0
  130.0140  128.1360   70.1290 C   0  0  0  0  0  0  0  0  0  0  0  0
  129.1290  126.9970   66.9720 C   0  0  0  0  0  0  0  0  0  0  0  0
  128.8980  127.3550   65.6470 C   0  0  0  0  0  0  0  0  0  0  0  0
  128.0040  130.2900   63.4510 C   0  0  0  0  0  0  0  0  0  0  0  0
  128.2910  131.3990   64.3660 C   0  0  0  0  0  0  0  0  0  0  0  0
  128.5180  132.2720   65.0920 N   0  0  0  0  0  0  0  0  0  0  0  0
  1  2  1  0
  2  3  1  0
  3  4  2  0
  3  5  1  0
  5  6  1  0
  6  7  1  0
  7  8  2  0
  8  9  1  0
  9 10  1  0
 10 11  2  0
 11 12  1  0
 12 13  2  0
 13 14  1  0
 14 15  1  0
 15 16  1  0
 16 17  1  0
 17 18  1  0
 18 19  1  0
 13 20  1  0
 20 21  2  0
  9 22  2  0
 22 23  1  0
 23 24  1  0
 24 25  2  0
 25 26  1  0
 26 27  2  0
 27 28  1  0
 28 29  1  0
 29 30  1  0
 30 31  1  0
 31 32  1  0
 32 33  1  0
 27 34  1  0
 34 35  2  0
 23 36  2  0
 36 37  1  0
 37 38  3  0
 36  7  1  0
 21 10  1  0
 35 24  1  0
 19 14  1  0
 33 28  1  0
M  END
>  <Binding energies>  (19) 
[-9.97]

>  <Ligand effiencies>  (19) 
[-0.2623684210526316]

>  <Interactions>  (19) 
["V-B:GLU:543:C:9874, V-A:GLU:543:CD:4908, V-A:GLU:543:C:4902, V-A:HIS:456:CE1:4070, V-A:GLU:543:CB:4906, V-B:HIS:456:CE1:9041, V-B:GLU:543:CB:9878, V-B:TYR:539:CE2:9848, V-B:LEU:363:CD1:8160, V-B:MET:535:CE:9807, V-B:PRO:540:CB:9857, V-B:TYR:539:CZ:9849, V-B:TYR:539:CG:9844, V-B:TYR:539:CE1:9847, H-B:TYR:539:N:9842, V-B:PRO:540:CA:9855, V-A:HIS:456:CD2:4068, V-B:TYR:484:CZ:9318, V-B:GLU:543:CG:9879, V-B:GLU:543:CD:9880, V-A:GLU:543:CG:4907, V-A:ALA:541:CB:4892, V-A:PRO:540:CA:4883, V-A:PRO:540:CB:4885, V-B:PRO:540:N:9856, V-B:TYR:539:CD1:9845, H-B:TYR:484:OH:9319, V-B:PRO:540:CD:9859, V-A:PRO:540:C:4881, H-A:ALA:541:N:4891, V-B:ILE:538:CA:9832, V-B:ILE:538:CG2:9835, V-A:ASN:362:CB:3176, V-B:PRO:540:CG:9858"]

$$$$
2d_Grossjean_2025
     RDKit          3D

 24 25  0  0  0  0  0  0  0  0999 V2000
  129.2190  122.7380   61.2770 C   0  0  0  0  0  0  0  0  0  0  0  0
  129.0810  123.3900   59.9150 C   0  0  0  0  0  0  0  0  0  0  0  0
  128.2100  122.8880   58.9510 C   0  0  0  0  0  0  0  0  0  0  0  0
  128.1140  123.5300   57.7070 C   0  0  0  0  0  0  0  0  0  0  0  0
  127.1380  122.9660   56.6570 C   0  0  0  0  0  0  0  0  0  0  0  0
  127.7500  122.8570   55.4770 F   0  0  0  0  0  0  0  0  0  0  0  0
  126.7070  121.7610   57.0330 F   0  0  0  0  0  0  0  0  0  0  0  0
  126.0640  123.7390   56.4820 F   0  0  0  0  0  0  0  0  0  0  0  0
  128.9200  124.6730   57.4700 C   0  0  0  0  0  0  0  0  0  0  0  0
  128.8230  125.4060   56.2040 C   0  0  0  0  0  0  0  0  0  0  0  0
  128.7450  125.9850   55.2060 N   0  0  0  0  0  0  0  0  0  0  0  0
  129.7940  125.0960   58.4990 C   0  0  0  0  0  0  0  0  0  0  0  0
  130.8970  126.4900   58.3580 S   0  0  0  0  0  0  0  0  0  0  0  0
  132.4580  125.9280   57.6030 C   0  0  0  0  0  0  0  0  0  0  0  0
  133.0870  124.7410   58.3400 C   0  0  0  0  0  0  0  0  0  0  0  0
  133.9030  124.0340   57.7480 O   0  0  0  0  0  0  0  0  0  0  0  0
  132.6590  124.5470   59.6050 N   0  0  0  0  0  0  0  0  0  0  0  0
  133.0430  123.5590   60.5310 C   0  0  0  0  0  0  0  0  0  0  0  0
  133.4740  124.0220   61.7770 C   0  0  0  0  0  0  0  0  0  0  0  0
  133.8810  123.1220   62.7580 C   0  0  0  0  0  0  0  0  0  0  0  0
  133.8650  121.7550   62.4890 C   0  0  0  0  0  0  0  0  0  0  0  0
  133.4510  121.2820   61.2460 C   0  0  0  0  0  0  0  0  0  0  0  0
  133.0430  122.1790   60.2640 C   0  0  0  0  0  0  0  0  0  0  0  0
  129.8580  124.4770   59.7020 N   0  0  0  0  0  0  0  0  0  0  0  0
  1  2  1  0
  2  3  2  0
  3  4  1  0
  4  5  1  0
  5  6  1  0
  5  7  1  0
  5  8  1  0
  4  9  2  0
  9 10  1  0
 10 11  3  0
  9 12  1  0
 12 13  1  0
 13 14  1  0
 14 15  1  0
 15 16  2  0
 15 17  1  0
 17 18  1  0
 18 19  2  0
 19 20  1  0
 20 21  2  0
 21 22  1  0
 22 23  2  0
 12 24  2  0
 24  2  1  0
 23 18  1  0
M  END
>  <Binding energies>  (20) 
[-6.35]

>  <Ligand effiencies>  (20) 
[-0.254]

>  <Interactions>  (20) 
["V-B:TYR:539:CE2:9848, H-B:TYR:539:OH:9850, V-A:LEU:475:CD2:4259, V-B:MET:535:CE:9807, V-B:PRO:540:CB:9857, V-A:ILE:369:CG2:3237, V-B:TYR:539:CZ:9849, V-B:TYR:539:CD2:9846, V-B:TYR:539:CG:9844, V-B:TYR:539:CE1:9847, V-B:PRO:540:CA:9855, V-A:TYR:531:CZ:4794, V-A:ASP:366:CB:3212, V-B:PRO:540:N:9856, H-A:TYR:531:OH:4795, V-B:TYR:539:CD1:9845, V-B:TYR:539:C:9839, V-B:PRO:540:CD:9859, V-A:GLY:454:CA:4049, V-A:ASP:366:CA:3210, V-B:TYR:539:CA:9841, V-A:ASP:366:C:3208, V-B:ILE:538:C:9830, V-A:SER:385:CB:3409, H-A:ASN:370:N:3244"]

$$$$
2e_Grossjean_2025
     RDKit          3D

 25 26  0  0  0  0  0  0  0  0999 V2000
  132.5220  131.7030   62.7970 C   0  0  0  0  0  0  0  0  0  0  0  0
  132.4290  131.6670   61.2840 C   0  0  0  0  0  0  0  0  0  0  0  0
  133.5630  131.5040   60.4840 C   0  0  0  0  0  0  0  0  0  0  0  0
  133.3990  131.4680   59.0990 C   0  0  0  0  0  0  0  0  0  0  0  0
  132.1200  131.5950   58.5510 C   0  0  0  0  0  0  0  0  0  0  0  0
  131.0280  131.7640   59.4100 C   0  0  0  0  0  0  0  0  0  0  0  0
  129.7600  131.8420   58.8090 N   0  0  0  0  0  0  0  0  0  0  0  0
  129.3700  132.6340   57.7850 C   0  0  0  0  0  0  0  0  0  0  0  0
  130.1120  133.3850   57.1510 O   0  0  0  0  0  0  0  0  0  0  0  0
  127.8760  132.5990   57.4470 C   0  0  0  0  0  0  0  0  0  0  0  0
  127.1520  130.9500   57.7190 S   0  0  0  0  0  0  0  0  0  0  0  0
  126.4680  130.9970   59.3610 C   0  0  0  0  0  0  0  0  0  0  0  0
  127.3630  130.7660   60.3530 N   0  0  0  0  0  0  0  0  0  0  0  0
  126.9190  130.7380   61.6300 C   0  0  0  0  0  0  0  0  0  0  0  0
  127.9720  130.4750   62.6890 C   0  0  0  0  0  0  0  0  0  0  0  0
  125.5800  130.9320   61.9650 C   0  0  0  0  0  0  0  0  0  0  0  0
  124.6400  131.1630   60.9500 C   0  0  0  0  0  0  0  0  0  0  0  0
  123.1610  131.3540   61.3350 C   0  0  0  0  0  0  0  0  0  0  0  0
  122.8670  132.6530   61.3930 F   0  0  0  0  0  0  0  0  0  0  0  0
  122.3760  130.7720   60.4270 F   0  0  0  0  0  0  0  0  0  0  0  0
  122.8650  130.8220   62.5230 F   0  0  0  0  0  0  0  0  0  0  0  0
  125.0910  131.2000   59.6070 C   0  0  0  0  0  0  0  0  0  0  0  0
  124.1540  131.4080   58.4990 C   0  0  0  0  0  0  0  0  0  0  0  0
  123.4130  131.5710   57.6240 N   0  0  0  0  0  0  0  0  0  0  0  0
  131.1790  131.7920   60.7660 N   0  0  0  0  0  0  0  0  0  0  0  0
  1  2  1  0
  2  3  2  0
  3  4  1  0
  4  5  2  0
  5  6  1  0
  6  7  1  0
  7  8  1  0
  8  9  2  0
  8 10  1  0
 10 11  1  0
 11 12  1  0
 12 13  2  0
 13 14  1  0
 14 15  1  0
 14 16  2  0
 16 17  1  0
 17 18  1  0
 18 19  1  0
 18 20  1  0
 18 21  1  0
 17 22  2  0
 22 23  1  0
 23 24  3  0
  6 25  2  0
 25  2  1  0
 22 12  1  0
M  END
>  <Binding energies>  (21) 
[-6.39]

>  <Ligand effiencies>  (21) 
[-0.24576923076923077]

>  <Interactions>  (21) 
["V-A:GLU:543:CD:4908, V-B:ASP:366:CB:8183, V-B:ASP:366:CG:8184, V-A:GLU:543:CG:4907, V-A:TYR:539:CD1:4873, V-A:LEU:363:CD1:3189, V-A:PRO:540:CA:4883, V-B:ILE:369:CG2:8208, V-A:PRO:540:CB:4885, V-B:ILE:369:CG1:8209, V-A:TYR:539:CE1:4875, V-A:TYR:539:C:4867, H-A:TYR:539:N:4870, V-B:ILE:369:CB:8207, V-A:ASP:366:CG:3213, V-B:ASP:366:CA:8181, V-A:TYR:539:CZ:4877, V-A:ALA:541:C:4888, V-A:TYR:539:CG:4872, V-B:GLY:453:C:9013, V-B:ILE:369:CD1:8210, H-A:TYR:539:OH:4878, V-A:ASN:362:CB:3176, V-A:ASN:362:C:3172, V-A:LEU:363:CA:3185, V-A:LEU:363:CB:3187, V-B:GLY:453:CA:9015"]

$$$$
2f_Grossjean_2025
     RDKit          3D

 24 25  0  0  0  0  0  0  0  0999 V2000
  128.3350  133.2340   60.8840 C   0  0  0  0  0  0  0  0  0  0  0  0
  127.7440  132.6830   59.6000 C   0  0  0  0  0  0  0  0  0  0  0  0
  126.5520  131.9640   59.5950 C   0  0  0  0  0  0  0  0  0  0  0  0
  126.0490  131.4670   58.3830 C   0  0  0  0  0  0  0  0  0  0  0  0
  124.7350  130.6630   58.4000 C   0  0  0  0  0  0  0  0  0  0  0  0
  124.2180  130.6570   59.6300 F   0  0  0  0  0  0  0  0  0  0  0  0
  123.8540  131.2140   57.5640 F   0  0  0  0  0  0  0  0  0  0  0  0
  124.9010  129.3920   58.0300 F   0  0  0  0  0  0  0  0  0  0  0  0
  126.7770  131.7240   57.1920 C   0  0  0  0  0  0  0  0  0  0  0  0
  126.3240  131.1790   55.9090 C   0  0  0  0  0  0  0  0  0  0  0  0
  125.9650  130.7490   54.8960 N   0  0  0  0  0  0  0  0  0  0  0  0
  127.9650  132.4870   57.2890 C   0  0  0  0  0  0  0  0  0  0  0  0
  128.9950  132.9140   55.8990 S   0  0  0  0  0  0  0  0  0  0  0  0
  130.5650  131.9970   56.0560 C   0  0  0  0  0  0  0  0  0  0  0  0
  131.4260  132.3830   57.2680 C   0  0  0  0  0  0  0  0  0  0  0  0
  132.1700  133.3640   57.2230 O   0  0  0  0  0  0  0  0  0  0  0  0
  131.3010  131.5580   58.3290 N   0  0  0  0  0  0  0  0  0  0  0  0
  131.9250  131.6200   59.5890 C   0  0  0  0  0  0  0  0  0  0  0  0
  133.3100  131.5230   59.8200 C   0  0  0  0  0  0  0  0  0  0  0  0
  133.8010  131.6060   61.1240 C   0  0  0  0  0  0  0  0  0  0  0  0
  132.8940  131.7870   62.1690 C   0  0  0  0  0  0  0  0  0  0  0  0
  131.5550  131.8910   61.9730 N   0  0  0  0  0  0  0  0  0  0  0  0
  131.0940  131.8100   60.6990 C   0  0  0  0  0  0  0  0  0  0  0  0
  128.4460  132.9390   58.4730 N   0  0  0  0  0  0  0  0  0  0  0  0
  1  2  1  0
  2  3  2  0
  3  4  1  0
  4  5  1  0
  5  6  1  0
  5  7  1  0
  5  8  1  0
  4  9  2  0
  9 10  1  0
 10 11  3  0
  9 12  1  0
 12 13  1  0
 13 14  1  0
 14 15  1  0
 15 16  2  0
 15 17  1  0
 17 18  1  0
 18 19  2  0
 19 20  1  0
 20 21  2  0
 21 22  1  0
 22 23  2  0
 12 24  2  0
 24  2  1  0
 23 18  1  0
M  END
>  <Binding energies>  (22) 
[-6.53]

>  <Ligand effiencies>  (22) 
[-0.2612]

>  <Interactions>  (22) 
["V-B:ASP:366:CB:8183, V-B:ASP:366:CG:8184, V-A:TYR:539:CD1:4873, V-A:LEU:363:CD1:3189, V-A:ILE:538:CG2:4863, V-A:PRO:540:CA:4883, V-B:ILE:369:CG2:8208, V-A:PRO:540:CB:4885, V-A:TYR:539:CE1:4875, H-A:TYR:539:N:4870, V-B:ILE:369:CB:8207, V-A:PRO:540:N:4884, V-A:MET:535:CE:4835, H-B:TYR:531:OH:9767, V-A:ASP:366:CG:3213, V-B:ASP:366:CA:8181, H-A:ALA:541:N:4891, V-B:TYR:531:CZ:9766, V-A:TYR:539:CZ:4877, V-A:TYR:539:CG:4872, V-B:ASP:366:C:8179, H-A:TYR:539:OH:4878, V-A:ASN:362:CB:3176, V-A:ASN:362:C:3172, V-A:LEU:363:CA:3185, V-A:LEU:363:CB:3187"]

$$$$
2g_Grossjean_2025
     RDKit          3D

 25 26  0  0  0  0  0  0  0  0999 V2000
  128.4430  129.5640   61.7060 C   0  0  0  0  0  0  0  0  0  0  0  0
  127.2930  130.0980   60.8740 C   0  0  0  0  0  0  0  0  0  0  0  0
  126.0480  130.3660   61.4370 C   0  0  0  0  0  0  0  0  0  0  0  0
  125.0130  130.8510   60.6240 C   0  0  0  0  0  0  0  0  0  0  0  0
  123.6390  131.1340   61.2630 C   0  0  0  0  0  0  0  0  0  0  0  0
  123.5150  132.4340   61.5360 F   0  0  0  0  0  0  0  0  0  0  0  0
  122.6670  130.7740   60.4240 F   0  0  0  0  0  0  0  0  0  0  0  0
  123.4540  130.4680   62.4050 F   0  0  0  0  0  0  0  0  0  0  0  0
  125.2750  131.0620   59.2460 C   0  0  0  0  0  0  0  0  0  0  0  0
  124.2130  131.5140   58.3420 C   0  0  0  0  0  0  0  0  0  0  0  0
  123.3750  131.8700   57.6290 N   0  0  0  0  0  0  0  0  0  0  0  0
  126.5800  130.7910   58.7670 C   0  0  0  0  0  0  0  0  0  0  0  0
  127.0860  131.0220   57.0770 S   0  0  0  0  0  0  0  0  0  0  0  0
  127.9560  132.6240   56.9800 C   0  0  0  0  0  0  0  0  0  0  0  0
  129.4790  132.5380   57.1500 C   0  0  0  0  0  0  0  0  0  0  0  0
  130.2310  133.3670   56.6330 O   0  0  0  0  0  0  0  0  0  0  0  0
  129.9210  131.5030   57.8880 N   0  0  0  0  0  0  0  0  0  0  0  0
  131.3220  131.2170   58.1970 C   0  0  0  0  0  0  0  0  0  0  0  0
  131.7000  131.4290   59.6590 C   0  0  0  0  0  0  0  0  0  0  0  0
  133.0480  131.4990   60.0260 C   0  0  0  0  0  0  0  0  0  0  0  0
  133.3950  131.7310   61.3550 C   0  0  0  0  0  0  0  0  0  0  0  0
  132.3950  131.9020   62.3100 C   0  0  0  0  0  0  0  0  0  0  0  0
  131.0500  131.8470   61.9470 C   0  0  0  0  0  0  0  0  0  0  0  0
  130.7030  131.6150   60.6200 C   0  0  0  0  0  0  0  0  0  0  0  0
  127.5610  130.3000   59.5640 N   0  0  0  0  0  0  0  0  0  0  0  0
  1  2  1  0
  2  3  2  0
  3  4  1  0
  4  5  1  0
  5  6  1  0
  5  7  1  0
  5  8  1  0
  4  9  2  0
  9 10  1  0
 10 11  3  0
  9 12  1  0
 12 13  1  0
 13 14  1  0
 14 15  1  0
 15 16  2  0
 15 17  1  0
 17 18  1  0
 18 19  1  0
 19 20  2  0
 20 21  1  0
 21 22  2  0
 22 23  1  0
 23 24  2  0
 12 25  2  0
 25  2  1  0
 24 19  1  0
M  END
>  <Binding energies>  (23) 
[-6.18]

>  <Ligand effiencies>  (23) 
[-0.23769230769230767]

>  <Interactions>  (23) 
["V-B:ASP:366:CB:8183, V-B:ASP:366:CG:8184, V-A:TYR:539:CD1:4873, V-A:PRO:540:CA:4883, V-B:ILE:369:CG2:8208, V-A:PRO:540:CB:4885, V-B:ILE:369:CG1:8209, V-A:TYR:539:CE1:4875, H-A:TYR:539:N:4870, V-B:ILE:369:CB:8207, V-A:ASP:366:CG:3213, V-B:ASP:366:CA:8181, V-B:ARG:545:CZ:9898, V-A:TYR:539:CZ:4877, V-A:ALA:541:C:4888, V-A:TYR:539:CG:4872, V-A:TYR:539:CE2:4876, H-A:TYR:539:OH:4878, V-A:ASN:362:CB:3176, H-B:ASN:370:N:8215, V-A:ASN:362:C:3172, V-A:LEU:363:CA:3185"]

$$$$
2h_Grossjean_2025
     RDKit          3D

 31 32  0  0  0  0  0  0  0  0999 V2000
  128.2180  132.9920   55.6550 C   0  0  0  0  0  0  0  0  0  0  0  0
  129.3650  133.5280   56.3050 O   0  0  0  0  0  0  0  0  0  0  0  0
  129.7960  132.9680   57.4940 C   0  0  0  0  0  0  0  0  0  0  0  0
  128.9800  132.8030   58.6240 C   0  0  0  0  0  0  0  0  0  0  0  0
  129.4830  132.2220   59.7850 C   0  0  0  0  0  0  0  0  0  0  0  0
  130.8100  131.7920   59.8450 C   0  0  0  0  0  0  0  0  0  0  0  0
  131.3330  131.1390   61.1220 C   0  0  0  0  0  0  0  0  0  0  0  0
  130.2880  130.8500   62.1050 N   0  0  0  0  0  0  0  0  0  0  0  0
  129.5630  131.7790   62.7540 C   0  0  0  0  0  0  0  0  0  0  0  0
  129.7640  132.9900   62.6450 O   0  0  0  0  0  0  0  0  0  0  0  0
  128.4410  131.2360   63.6500 C   0  0  0  0  0  0  0  0  0  0  0  0
  127.6600  129.6960   63.0600 S   0  0  0  0  0  0  0  0  0  0  0  0
  126.3600  130.1750   61.9430 C   0  0  0  0  0  0  0  0  0  0  0  0
  126.7580  130.2670   60.6500 N   0  0  0  0  0  0  0  0  0  0  0  0
  125.8540  130.6420   59.7190 C   0  0  0  0  0  0  0  0  0  0  0  0
  126.3710  130.7320   58.2950 C   0  0  0  0  0  0  0  0  0  0  0  0
  124.5270  130.9320   60.0320 C   0  0  0  0  0  0  0  0  0  0  0  0
  124.0910  130.8220   61.3610 C   0  0  0  0  0  0  0  0  0  0  0  0
  122.6190  131.1370   61.6870 C   0  0  0  0  0  0  0  0  0  0  0  0
  122.1920  130.3490   62.6740 F   0  0  0  0  0  0  0  0  0  0  0  0
  122.4360  132.4010   62.0770 F   0  0  0  0  0  0  0  0  0  0  0  0
  121.8580  130.9350   60.6110 F   0  0  0  0  0  0  0  0  0  0  0  0
  125.0270  130.4220   62.3490 C   0  0  0  0  0  0  0  0  0  0  0  0
  124.6090  130.2350   63.7410 C   0  0  0  0  0  0  0  0  0  0  0  0
  124.2760  130.0850   64.8390 N   0  0  0  0  0  0  0  0  0  0  0  0
  131.6440  131.9720   58.7310 C   0  0  0  0  0  0  0  0  0  0  0  0
  132.9530  131.5550   58.7830 O   0  0  0  0  0  0  0  0  0  0  0  0
  133.2220  130.3740   58.0370 C   0  0  0  0  0  0  0  0  0  0  0  0
  131.1290  132.5410   57.5540 C   0  0  0  0  0  0  0  0  0  0  0  0
  131.9390  132.7020   56.4550 O   0  0  0  0  0  0  0  0  0  0  0  0
  131.6750  131.7870   55.4000 C   0  0  0  0  0  0  0  0  0  0  0  0
  1  2  1  0
  2  3  1  0
  3  4  2  0
  4  5  1  0
  5  6  2  0
  6  7  1  0
  7  8  1  0
  8  9  1  0
  9 10  2  0
  9 11  1  0
 11 12  1  0
 12 13  1  0
 13 14  2  0
 14 15  1  0
 15 16  1  0
 15 17  2  0
 17 18  1  0
 18 19  1  0
 19 20  1  0
 19 21  1  0
 19 22  1  0
 18 23  2  0
 23 24  1  0
 24 25  3  0
  6 26  1  0
 26 27  1  0
 27 28  1  0
 26 29  2  0
 29 30  1  0
 30 31  1  0
 29  3  1  0
 23 13  1  0
M  END
>  <Binding energies>  (24) 
[-7.0]

>  <Ligand effiencies>  (24) 
[-0.21875]

>  <Interactions>  (24) 
["V-A:GLU:543:CD:4908, V-B:ASP:366:CB:8183, V-B:ASP:366:CG:8184, V-A:GLU:543:CG:4907, V-A:TYR:539:CD1:4873, V-B:GLY:454:CA:9020, V-A:LEU:363:CD1:3189, V-A:TYR:531:CE2:4793, V-A:ILE:538:CG2:4863, V-A:ILE:538:CB:4862, V-A:TYR:531:CZ:4794, H-A:GLU:543:OE1:4909, V-A:ALA:541:CB:4892, V-A:PRO:540:CA:4883, V-B:ILE:369:CG2:8208, V-A:PRO:540:CB:4885, V-A:ASP:366:CB:3212, H-B:ARG:545:NH2:9900, V-B:ILE:369:CG1:8209, V-A:TYR:539:CE1:4875, V-A:TYR:539:C:4867, H-A:TYR:539:N:4870, V-B:ILE:369:CB:8207, V-A:PRO:540:N:4884, H-B:TYR:484:OH:9319, V-A:MET:535:CE:4835, H-B:GLY:454:N:9021, V-A:ASP:366:CG:3213, V-B:ASP:366:CA:8181, H-A:ALA:541:N:4891, V-B:ARG:545:CZ:9898, H-B:ARG:545:NE:9896, V-A:PRO:540:CD:4887, V-A:ILE:538:CA:4860, V-A:TYR:539:CZ:4877, V-A:TYR:539:CG:4872, V-A:TYR:539:CE2:4876, V-B:GLY:453:C:9013, V-B:ILE:369:CD1:8210, V-A:MET:535:CG:4833, V-A:TYR:539:CD2:4874, V-A:LEU:363:CA:3185, V-B:GLY:453:CA:9015, V-B:CYS:365:C:8175"]

$$$$
2i_Grossjean_2025
     RDKit          3D

 23 24  0  0  0  0  0  0  0  0999 V2000
  125.3800  130.9790   57.6290 C   0  0  0  0  0  0  0  0  0  0  0  0
  125.1210  131.4780   59.0390 C   0  0  0  0  0  0  0  0  0  0  0  0
  123.9630  131.1380   59.7320 C   0  0  0  0  0  0  0  0  0  0  0  0
  123.7710  131.6230   61.0340 C   0  0  0  0  0  0  0  0  0  0  0  0
  122.4830  131.2380   61.7860 C   0  0  0  0  0  0  0  0  0  0  0  0
  121.5870  130.7400   60.9320 F   0  0  0  0  0  0  0  0  0  0  0  0
  122.7520  130.3200   62.7150 F   0  0  0  0  0  0  0  0  0  0  0  0
  121.9140  132.2770   62.4030 F   0  0  0  0  0  0  0  0  0  0  0  0
  124.7730  132.4490   61.6040 C   0  0  0  0  0  0  0  0  0  0  0  0
  124.6250  132.9820   62.9620 C   0  0  0  0  0  0  0  0  0  0  0  0
  124.5080  133.4030   64.0330 N   0  0  0  0  0  0  0  0  0  0  0  0
  125.9170  132.7460   60.8280 C   0  0  0  0  0  0  0  0  0  0  0  0
  127.2390  133.7810   61.4370 S   0  0  0  0  0  0  0  0  0  0  0  0
  128.6390  132.7090   61.8770 C   0  0  0  0  0  0  0  0  0  0  0  0
  129.6880  132.6390   60.7650 C   0  0  0  0  0  0  0  0  0  0  0  0
  130.8800  132.5600   61.0700 O   0  0  0  0  0  0  0  0  0  0  0  0
  129.2120  132.6980   59.5030 N   0  0  0  0  0  0  0  0  0  0  0  0
  129.9560  132.6710   58.3360 C   0  0  0  0  0  0  0  0  0  0  0  0
  130.9310  131.7580   57.9070 C   0  0  0  0  0  0  0  0  0  0  0  0
  131.3280  132.2240   56.6750 C   0  0  0  0  0  0  0  0  0  0  0  0
  130.6290  133.3450   56.3780 O   0  0  0  0  0  0  0  0  0  0  0  0
  129.7590  133.6110   57.4380 N   0  0  0  0  0  0  0  0  0  0  0  0
  126.0840  132.2650   59.5690 N   0  0  0  0  0  0  0  0  0  0  0  0
  1  2  1  0
  2  3  2  0
  3  4  1  0
  4  5  1  0
  5  6  1  0
  5  7  1  0
  5  8  1  0
  4  9  2  0
  9 10  1  0
 10 11  3  0
  9 12  1  0
 12 13  1  0
 13 14  1  0
 14 15  1  0
 15 16  2  0
 15 17  1  0
 17 18  1  0
 18 19  1  0
 19 20  2  0
 20 21  1  0
 21 22  1  0
 12 23  2  0
 23  2  1  0
 22 18  2  0
M  END
>  <Binding energies>  (25) 
[-6.33]

>  <Ligand effiencies>  (25) 
[-0.26375]

>  <Interactions>  (25) 
["V-B:ASP:366:CB:8183, V-B:ASP:366:CG:8184, V-A:TYR:539:CD1:4873, V-B:GLY:454:CA:9020, V-A:LEU:363:CD1:3189, V-B:LEU:475:CD2:9230, V-A:PRO:540:CA:4883, V-B:ILE:369:CG2:8208, V-B:ILE:369:CG1:8209, V-A:TYR:539:CE1:4875, V-A:TYR:539:C:4867, H-A:TYR:539:N:4870, V-B:ILE:369:CB:8207, V-A:PRO:540:N:4884, H-B:TYR:484:OH:9319, H-B:GLY:454:N:9021, V-A:PRO:540:C:4881, V-B:ASP:366:CA:8181, H-A:ALA:541:N:4891, H-A:TYR:539:O:4868, V-B:ARG:545:CZ:9898, V-A:TYR:539:CZ:4877, V-B:GLY:453:C:9013, V-B:ILE:369:CD1:8210, V-B:GLY:453:CA:9015, V-B:CYS:365:C:8175"]

$$$$
2k_Grossjean_2025
     RDKit          3D

 28 28  0  0  0  0  0  0  0  0999 V2000
  124.1450  137.0420   60.5960 C   0  0  0  0  0  0  0  0  0  0  0  0
  123.5110  135.8500   61.0310 O   0  0  0  0  0  0  0  0  0  0  0  0
  124.2730  135.1170   61.9820 C   0  0  0  0  0  0  0  0  0  0  0  0
  124.6120  133.7320   61.4180 C   0  0  0  0  0  0  0  0  0  0  0  0
  124.3970  132.7560   62.4270 O   0  0  0  0  0  0  0  0  0  0  0  0
  123.3340  131.8520   62.1490 C   0  0  0  0  0  0  0  0  0  0  0  0
  123.8620  130.4200   62.3090 C   0  0  0  0  0  0  0  0  0  0  0  0
  123.7020  130.0480   63.6700 O   0  0  0  0  0  0  0  0  0  0  0  0
  124.8520  130.2260   64.4830 C   0  0  0  0  0  0  0  0  0  0  0  0
  126.1110  130.0300   63.6180 C   0  0  0  0  0  0  0  0  0  0  0  0
  126.6560  131.2900   63.1070 N   0  0  0  0  0  0  0  0  0  0  0  0
  127.6400  132.0090   63.6810 C   0  0  0  0  0  0  0  0  0  0  0  0
  128.2220  131.6600   64.7100 O   0  0  0  0  0  0  0  0  0  0  0  0
  127.9940  133.3300   62.9830 C   0  0  0  0  0  0  0  0  0  0  0  0
  128.1330  133.2420   61.1640 S   0  0  0  0  0  0  0  0  0  0  0  0
  129.7230  132.5550   60.7220 C   0  0  0  0  0  0  0  0  0  0  0  0
  130.5420  132.2510   61.7610 N   0  0  0  0  0  0  0  0  0  0  0  0
  131.7630  131.7320   61.5000 C   0  0  0  0  0  0  0  0  0  0  0  0
  132.6220  131.4300   62.7130 C   0  0  0  0  0  0  0  0  0  0  0  0
  132.2130  131.4840   60.2070 C   0  0  0  0  0  0  0  0  0  0  0  0
  131.3800  131.7830   59.1170 C   0  0  0  0  0  0  0  0  0  0  0  0
  131.8910  131.4970   57.6920 C   0  0  0  0  0  0  0  0  0  0  0  0
  133.0880  130.9080   57.6820 F   0  0  0  0  0  0  0  0  0  0  0  0
  131.0410  130.6910   57.0550 F   0  0  0  0  0  0  0  0  0  0  0  0
  132.0000  132.6370   57.0090 F   0  0  0  0  0  0  0  0  0  0  0  0
  130.0990  132.3350   59.3760 C   0  0  0  0  0  0  0  0  0  0  0  0
  129.1890  132.6700   58.2760 C   0  0  0  0  0  0  0  0  0  0  0  0
  128.4710  132.9340   57.4070 N   0  0  0  0  0  0  0  0  0  0  0  0
  1  2  1  0
  2  3  1  0
  3  4  1  0
  4  5  1  0
  5  6  1  0
  6  7  1  0
  7  8  1  0
  8  9  1  0
  9 10  1  0
 10 11  1  0
 11 12  1  0
 12 13  2  0
 12 14  1  0
 14 15  1  0
 15 16  1  0
 16 17  2  0
 17 18  1  0
 18 19  1  0
 18 20  2  0
 20 21  1  0
 21 22  1  0
 22 23  1  0
 22 24  1  0
 22 25  1  0
 21 26  2  0
 26 27  1  0
 27 28  3  0
 26 16  1  0
M  END
>  <Binding energies>  (26) 
[-6.03]

>  <Ligand effiencies>  (26) 
[-0.20793103448275863]

>  <Interactions>  (26) 
["V-A:GLU:543:CD:4908, V-B:ASP:366:CG:8184, V-A:GLU:543:CG:4907, V-A:TYR:539:CD1:4873, V-B:GLY:454:CA:9020, V-A:LEU:363:CD1:3189, V-A:TYR:531:CE2:4793, V-A:ILE:538:CB:4862, V-B:LEU:475:CD2:9230, V-A:ALA:541:CB:4892, V-A:PRO:540:CA:4883, V-B:ILE:369:CG2:8208, V-A:PRO:540:CB:4885, V-A:ASP:366:CB:3212, H-B:ARG:545:NH2:9900, V-B:ILE:369:CG1:8209, V-A:TYR:539:C:4867, V-A:PRO:540:N:4884, H-B:TYR:484:OH:9319, H-B:GLY:454:N:9021, V-A:PRO:540:C:4881, H-A:ALA:541:N:4891, V-B:ARG:545:CZ:9898, H-B:ARG:545:NH1:9899, V-A:PRO:540:CD:4887, V-B:SER:385:CA:8378, V-B:HIS:383:CD2:8363, V-B:SER:385:CB:8380, V-B:LEU:373:CD1:8251, V-A:ASN:362:CB:3176"]

$$$$
3aa_Grossjean_2025
     RDKit          3D

 34 36  0  0  0  0  0  0  0  0999 V2000
  127.5440  138.2510   61.8970 C   0  0  0  0  0  0  0  0  0  0  0  0
  126.0740  137.8860   62.1250 C   0  0  0  0  0  0  0  0  0  0  0  0
  125.5040  137.4300   60.9050 O   0  0  0  0  0  0  0  0  0  0  0  0
  124.5400  136.4740   60.8980 C   0  0  0  0  0  0  0  0  0  0  0  0
  123.4310  136.6290   60.3760 O   0  0  0  0  0  0  0  0  0  0  0  0
  124.9500  135.2130   61.6030 C   0  0  0  0  0  0  0  0  0  0  0  0
  124.0910  134.5430   62.4880 C   0  0  0  0  0  0  0  0  0  0  0  0
  124.5010  133.3730   63.1210 C   0  0  0  0  0  0  0  0  0  0  0  0
  125.7710  132.8460   62.8800 C   0  0  0  0  0  0  0  0  0  0  0  0
  126.0840  131.6570   63.5690 N   0  0  0  0  0  0  0  0  0  0  0  0
  125.2730  130.6500   63.9620 C   0  0  0  0  0  0  0  0  0  0  0  0
  124.0540  130.6090   63.7950 O   0  0  0  0  0  0  0  0  0  0  0  0
  125.9630  129.4900   64.6790 C   0  0  0  0  0  0  0  0  0  0  0  0
  127.6730  129.9030   65.1420 S   0  0  0  0  0  0  0  0  0  0  0  0
  128.3910  128.4360   65.8470 C   0  0  0  0  0  0  0  0  0  0  0  0
  128.4310  128.4470   67.2010 N   0  0  0  0  0  0  0  0  0  0  0  0
  128.9570  127.3880   67.8680 C   0  0  0  0  0  0  0  0  0  0  0  0
  128.9510  127.4700   69.3640 C   0  0  0  0  0  0  0  0  0  0  0  0
  127.8510  127.0040   70.1020 C   0  0  0  0  0  0  0  0  0  0  0  0
  127.8390  127.0750   71.4930 C   0  0  0  0  0  0  0  0  0  0  0  0
  128.9300  127.6150   72.1650 C   0  0  0  0  0  0  0  0  0  0  0  0
  130.0330  128.0820   71.4580 C   0  0  0  0  0  0  0  0  0  0  0  0
  130.0430  128.0060   70.0680 C   0  0  0  0  0  0  0  0  0  0  0  0
  129.4520  126.2780   67.1770 C   0  0  0  0  0  0  0  0  0  0  0  0
  129.4380  126.2510   65.7730 C   0  0  0  0  0  0  0  0  0  0  0  0
  130.0040  125.0150   65.0480 C   0  0  0  0  0  0  0  0  0  0  0  0
  129.2480  124.6270   64.0190 F   0  0  0  0  0  0  0  0  0  0  0  0
  131.2210  125.2790   64.5710 F   0  0  0  0  0  0  0  0  0  0  0  0
  130.0860  123.9890   65.8960 F   0  0  0  0  0  0  0  0  0  0  0  0
  128.9040  127.3650   65.0820 C   0  0  0  0  0  0  0  0  0  0  0  0
  128.9160  127.4170   63.6170 C   0  0  0  0  0  0  0  0  0  0  0  0
  128.9260  127.4580   62.4600 N   0  0  0  0  0  0  0  0  0  0  0  0
  126.6400  133.5170   62.0070 C   0  0  0  0  0  0  0  0  0  0  0  0
  126.2290  134.6870   61.3770 C   0  0  0  0  0  0  0  0  0  0  0  0
  1  2  1  0
  2  3  1  0
  3  4  1  0
  4  5  2  0
  4  6  1  0
  6  7  2  0
  7  8  1  0
  8  9  2  0
  9 10  1  0
 10 11  1  0
 11 12  2  0
 11 13  1  0
 13 14  1  0
 14 15  1  0
 15 16  2  0
 16 17  1  0
 17 18  1  0
 18 19  2  0
 19 20  1  0
 20 21  2  0
 21 22  1  0
 22 23  2  0
 17 24  2  0
 24 25  1  0
 25 26  1  0
 26 27  1  0
 26 28  1  0
 26 29  1  0
 25 30  2  0
 30 31  1  0
 31 32  3  0
  9 33  1  0
 33 34  2  0
 34  6  1  0
 30 15  1  0
 23 18  1  0
M  END
>  <Binding energies>  (27) 
[-8.87]

>  <Ligand effiencies>  (27) 
[-0.2534285714285714]

>  <Interactions>  (27) 
["V-B:GLU:543:C:9874, V-A:GLU:543:CD:4908, V-A:GLU:543:C:4902, V-A:HIS:456:CE1:4070, V-B:GLY:544:C:9884, V-A:GLU:543:CB:4906, V-B:HIS:456:CE1:9041, V-B:HIS:456:CD2:9039, V-B:GLU:543:CB:9878, V-B:GLU:543:CG:9879, V-B:GLU:543:CD:9880, V-A:GLU:543:CG:4907, V-A:TYR:484:CE2:4346, V-A:TYR:484:CZ:4347, V-A:TYR:539:CD1:4873, V-B:GLY:454:CA:9020, V-B:LEU:475:CD2:9230, V-A:TYR:539:CE1:4875, H-B:TYR:484:OH:9319, H-B:GLY:454:N:9021, V-B:LEU:475:CG:9228, V-B:SER:385:CA:8378, V-B:HIS:383:CE1:8364, V-B:SER:385:CB:8380, V-B:LEU:373:CD1:8251, H-B:HIS:383:NE2:8365"]

$$$$
3ad_Grossjean_2025
     RDKit          3D

 29 31  0  0  0  0  0  0  0  0999 V2000
  129.3490  126.2400   54.9670 N   0  0  0  0  0  0  0  0  0  0  0  0
  129.3820  125.7490   56.0140 C   0  0  0  0  0  0  0  0  0  0  0  0
  129.4200  125.1240   57.3400 C   0  0  0  0  0  0  0  0  0  0  0  0
  128.4890  124.1170   57.6930 C   0  0  0  0  0  0  0  0  0  0  0  0
  127.4230  123.5890   56.7140 C   0  0  0  0  0  0  0  0  0  0  0  0
  126.7990  122.4990   57.1650 F   0  0  0  0  0  0  0  0  0  0  0  0
  126.4960  124.5250   56.5030 F   0  0  0  0  0  0  0  0  0  0  0  0
  127.9890  123.2710   55.5480 F   0  0  0  0  0  0  0  0  0  0  0  0
  128.5380  123.5840   58.9900 C   0  0  0  0  0  0  0  0  0  0  0  0
  129.4870  124.0450   59.9090 C   0  0  0  0  0  0  0  0  0  0  0  0
  129.5740  123.5210   61.3110 C   0  0  0  0  0  0  0  0  0  0  0  0
  129.6810  122.1430   61.5570 C   0  0  0  0  0  0  0  0  0  0  0  0
  129.7630  121.6500   62.8560 C   0  0  0  0  0  0  0  0  0  0  0  0
  129.7400  122.5330   63.9320 C   0  0  0  0  0  0  0  0  0  0  0  0
  129.6380  123.9030   63.7150 C   0  0  0  0  0  0  0  0  0  0  0  0
  129.5570  124.3920   62.4140 C   0  0  0  0  0  0  0  0  0  0  0  0
  130.3730  125.0140   59.5670 N   0  0  0  0  0  0  0  0  0  0  0  0
  130.3590  125.5290   58.3150 C   0  0  0  0  0  0  0  0  0  0  0  0
  131.5970  126.7770   58.0420 S   0  0  0  0  0  0  0  0  0  0  0  0
  133.0460  125.9510   57.3200 C   0  0  0  0  0  0  0  0  0  0  0  0
  133.4950  124.7440   58.1470 C   0  0  0  0  0  0  0  0  0  0  0  0
  134.2010  123.8850   57.6180 O   0  0  0  0  0  0  0  0  0  0  0  0
  133.0630  124.7250   59.4260 N   0  0  0  0  0  0  0  0  0  0  0  0
  133.3010  123.7820   60.4440 C   0  0  0  0  0  0  0  0  0  0  0  0
  133.6760  124.3110   61.6830 C   0  0  0  0  0  0  0  0  0  0  0  0
  133.9390  123.4650   62.7570 C   0  0  0  0  0  0  0  0  0  0  0  0
  133.8310  122.0870   62.5930 C   0  0  0  0  0  0  0  0  0  0  0  0
  133.4650  121.5470   61.3630 C   0  0  0  0  0  0  0  0  0  0  0  0
  133.2010  122.3890   60.2850 C   0  0  0  0  0  0  0  0  0  0  0  0
  1  2  3  0
  2  3  1  0
  3  4  2  0
  4  5  1  0
  5  6  1  0
  5  7  1  0
  5  8  1  0
  4  9  1  0
  9 10  2  0
 10 11  1  0
 11 12  2  0
 12 13  1  0
 13 14  2  0
 14 15  1  0
 15 16  2  0
 10 17  1  0
 17 18  2  0
 18 19  1  0
 19 20  1  0
 20 21  1  0
 21 22  2  0
 21 23  1  0
 23 24  1  0
 24 25  2  0
 25 26  1  0
 26 27  2  0
 27 28  1  0
 28 29  2  0
 18  3  1  0
 29 24  1  0
 16 11  1  0
M  END
>  <Binding energies>  (28) 
[-7.23]

>  <Ligand effiencies>  (28) 
[-0.24100000000000002]

>  <Interactions>  (28) 
["V-B:TYR:539:CE2:9848, H-B:TYR:539:OH:9850, V-A:LEU:475:CD2:4259, V-B:MET:535:CE:9807, V-B:PRO:540:CB:9857, V-A:ILE:369:CG2:3237, V-B:TYR:539:CZ:9849, V-B:TYR:539:CD2:9846, V-B:TYR:539:CE1:9847, V-B:PRO:540:CA:9855, V-B:GLU:543:CG:9879, V-B:GLU:543:CD:9880, V-B:ALA:541:CB:9864, V-A:ILE:369:CD1:3239, V-A:TYR:531:CZ:4794, V-A:ASP:366:CB:3212, V-B:PRO:540:N:9856, H-A:TYR:531:OH:4795, V-B:TYR:539:CD1:9845, V-B:TYR:539:C:9839, V-B:PRO:540:CD:9859, V-A:ASP:366:CG:3213, H-A:ASP:366:OD1:3214, V-A:GLY:453:C:4042, V-A:GLY:454:CA:4049, V-A:ASP:366:CA:3210, V-A:ASP:366:C:3208, H-A:ASN:370:N:3244"]

$$$$
3ai_Grossjean_2025
     RDKit          3D

 28 30  0  0  0  0  0  0  0  0999 V2000
  122.9850  131.5770   61.0680 N   0  0  0  0  0  0  0  0  0  0  0  0
  123.9850  131.7250   60.5040 C   0  0  0  0  0  0  0  0  0  0  0  0
  125.2490  131.9140   59.7870 C   0  0  0  0  0  0  0  0  0  0  0  0
  125.4450  131.3500   58.5030 C   0  0  0  0  0  0  0  0  0  0  0  0
  124.3480  130.5550   57.7680 C   0  0  0  0  0  0  0  0  0  0  0  0
  123.1160  130.9140   58.1350 F   0  0  0  0  0  0  0  0  0  0  0  0
  124.4490  130.7510   56.4520 F   0  0  0  0  0  0  0  0  0  0  0  0
  124.4760  129.2530   58.0220 F   0  0  0  0  0  0  0  0  0  0  0  0
  126.6900  131.5180   57.8790 C   0  0  0  0  0  0  0  0  0  0  0  0
  127.7120  132.2270   58.5190 C   0  0  0  0  0  0  0  0  0  0  0  0
  129.0650  132.4280   57.9040 C   0  0  0  0  0  0  0  0  0  0  0  0
  129.1910  132.8030   56.5570 C   0  0  0  0  0  0  0  0  0  0  0  0
  130.4430  132.9960   55.9810 C   0  0  0  0  0  0  0  0  0  0  0  0
  131.5900  132.8170   56.7470 C   0  0  0  0  0  0  0  0  0  0  0  0
  131.4930  132.4490   58.0850 C   0  0  0  0  0  0  0  0  0  0  0  0
  130.2390  132.2570   58.6580 C   0  0  0  0  0  0  0  0  0  0  0  0
  127.5240  132.7580   59.7540 N   0  0  0  0  0  0  0  0  0  0  0  0
  126.3220  132.6300   60.3660 C   0  0  0  0  0  0  0  0  0  0  0  0
  126.2540  133.4100   61.9650 S   0  0  0  0  0  0  0  0  0  0  0  0
  126.6450  132.1450   63.2220 C   0  0  0  0  0  0  0  0  0  0  0  0
  128.1410  131.9740   63.5260 C   0  0  0  0  0  0  0  0  0  0  0  0
  128.5440  131.9070   64.6900 O   0  0  0  0  0  0  0  0  0  0  0  0
  128.9350  131.9100   62.4340 N   0  0  0  0  0  0  0  0  0  0  0  0
  130.3150  131.7520   62.4060 C   0  0  0  0  0  0  0  0  0  0  0  0
  130.9790  131.0240   61.4190 C   0  0  0  0  0  0  0  0  0  0  0  0
  132.3120  131.1070   61.7480 C   0  0  0  0  0  0  0  0  0  0  0  0
  132.4450  131.8470   62.8740 O   0  0  0  0  0  0  0  0  0  0  0  0
  131.1720  132.2510   63.2810 N   0  0  0  0  0  0  0  0  0  0  0  0
  1  2  3  0
  2  3  1  0
  3  4  2  0
  4  5  1  0
  5  6  1  0
  5  7  1  0
  5  8  1  0
  4  9  1  0
  9 10  2  0
 10 11  1  0
 11 12  2  0
 12 13  1  0
 13 14  2  0
 14 15  1  0
 15 16  2  0
 10 17  1  0
 17 18  2  0
 18 19  1  0
 19 20  1  0
 20 21  1  0
 21 22  2  0
 21 23  1  0
 23 24  1  0
 24 25  1  0
 25 26  2  0
 26 27  1  0
 27 28  1  0
 18  3  1  0
 28 24  2  0
 16 11  1  0
M  END
>  <Binding energies>  (29) 
[-7.75]

>  <Ligand effiencies>  (29) 
[-0.2672413793103448]

>  <Interactions>  (29) 
["V-A:GLU:543:CD:4908, V-B:ASP:366:CB:8183, V-B:ASP:366:CG:8184, V-A:GLU:543:CG:4907, V-A:TYR:539:CD1:4873, V-A:LEU:363:CD1:3189, V-A:ILE:538:CG2:4863, V-A:ILE:538:CB:4862, V-B:LEU:475:CD2:9230, V-A:ALA:541:CB:4892, V-A:PRO:540:CA:4883, V-B:ILE:369:CG2:8208, V-A:PRO:540:CB:4885, V-A:TYR:539:CE1:4875, V-B:ILE:369:CB:8207, V-A:PRO:540:N:4884, H-B:TYR:484:OH:9319, V-A:MET:535:CE:4835, V-B:ASP:366:CA:8181, H-A:ALA:541:N:4891, V-B:TYR:531:CZ:9766, V-A:PRO:540:CD:4887, V-A:ILE:538:CA:4860, V-A:TYR:539:CZ:4877, V-B:ASP:366:C:8179, V-A:ILE:538:C:4858, V-B:TYR:531:CE1:9764"]

$$$$
3aj_Grossjean_2025
     RDKit          3D

 28 30  0  0  0  0  0  0  0  0999 V2000
  124.3850  130.3990   64.8480 N   0  0  0  0  0  0  0  0  0  0  0  0
  124.5180  130.5190   63.7050 C   0  0  0  0  0  0  0  0  0  0  0  0
  124.6830  130.6730   62.2560 C   0  0  0  0  0  0  0  0  0  0  0  0
  123.5580  130.8330   61.4120 C   0  0  0  0  0  0  0  0  0  0  0  0
  122.1160  130.9000   61.9520 C   0  0  0  0  0  0  0  0  0  0  0  0
  121.8730  129.9850   62.8940 F   0  0  0  0  0  0  0  0  0  0  0  0
  121.8840  132.0990   62.4870 F   0  0  0  0  0  0  0  0  0  0  0  0
  121.2470  130.6930   60.9620 F   0  0  0  0  0  0  0  0  0  0  0  0
  123.7670  130.9280   60.0280 C   0  0  0  0  0  0  0  0  0  0  0  0
  125.0610  130.8610   59.5010 C   0  0  0  0  0  0  0  0  0  0  0  0
  125.3390  130.9470   58.0310 C   0  0  0  0  0  0  0  0  0  0  0  0
  124.2860  131.0070   57.1060 C   0  0  0  0  0  0  0  0  0  0  0  0
  124.5370  131.0920   55.7380 C   0  0  0  0  0  0  0  0  0  0  0  0
  125.8500  131.1160   55.2780 C   0  0  0  0  0  0  0  0  0  0  0  0
  126.9110  131.0590   56.1760 C   0  0  0  0  0  0  0  0  0  0  0  0
  126.6550  130.9760   57.5410 C   0  0  0  0  0  0  0  0  0  0  0  0
  126.1360  130.6990   60.3140 N   0  0  0  0  0  0  0  0  0  0  0  0
  125.9620  130.6290   61.6550 C   0  0  0  0  0  0  0  0  0  0  0  0
  127.4840  130.4410   62.5590 S   0  0  0  0  0  0  0  0  0  0  0  0
  128.3090  132.0680   62.6090 C   0  0  0  0  0  0  0  0  0  0  0  0
  129.3580  132.2990   61.5120 C   0  0  0  0  0  0  0  0  0  0  0  0
  130.5210  132.5920   61.8010 O   0  0  0  0  0  0  0  0  0  0  0  0
  128.8960  132.1520   60.2500 N   0  0  0  0  0  0  0  0  0  0  0  0
  129.6270  132.2940   59.0780 C   0  0  0  0  0  0  0  0  0  0  0  0
  130.7690  131.7220   58.7630 N   0  0  0  0  0  0  0  0  0  0  0  0
  131.1780  132.0820   57.5620 C   0  0  0  0  0  0  0  0  0  0  0  0
  130.3560  132.9690   56.8730 C   0  0  0  0  0  0  0  0  0  0  0  0
  128.9780  133.3470   57.8610 S   0  0  0  0  0  0  0  0  0  0  0  0
  1  2  3  0
  2  3  1  0
  3  4  2  0
  4  5  1  0
  5  6  1  0
  5  7  1  0
  5  8  1  0
  4  9  1  0
  9 10  2  0
 10 11  1  0
 11 12  2  0
 12 13  1  0
 13 14  2  0
 14 15  1  0
 15 16  2  0
 10 17  1  0
 17 18  2  0
 18 19  1  0
 19 20  1  0
 20 21  1  0
 21 22  2  0
 21 23  1  0
 23 24  1  0
 24 25  2  0
 25 26  1  0
 26 27  2  0
 27 28  1  0
 18  3  1  0
 28 24  1  0
 16 11  1  0
M  END
>  <Binding energies>  (30) 
[-6.78]

>  <Ligand effiencies>  (30) 
[-0.23379310344827586]

>  <Interactions>  (30) 
["V-B:ASP:366:CB:8183, V-B:ASP:366:CG:8184, V-A:TYR:539:CD1:4873, V-B:GLY:454:CA:9020, V-A:ILE:538:CB:4862, V-A:PRO:540:CA:4883, V-B:ILE:369:CG2:8208, V-A:PRO:540:CB:4885, V-B:ILE:369:CG1:8209, V-A:TYR:539:CE1:4875, V-A:TYR:539:C:4867, V-B:ILE:369:CB:8207, V-A:PRO:540:N:4884, H-B:TYR:484:OH:9319, V-A:MET:535:CE:4835, H-B:GLY:454:N:9021, V-B:ASP:366:CA:8181, H-A:ALA:541:N:4891, V-B:TYR:531:CZ:9766, V-B:ARG:545:CZ:9898, V-A:ILE:538:CA:4860, V-A:TYR:539:CZ:4877, V-A:TYR:539:CG:4872, V-B:GLY:453:C:9013, V-B:ILE:369:CD1:8210, V-A:TYR:539:CA:4869, V-B:TYR:531:CE1:9764, V-B:GLY:453:CA:9015, V-B:ASN:370:CB:8216, V-B:CYS:365:C:8175"]

$$$$
3ak_Grossjean_2025
     RDKit          3D

 33 34  0  0  0  0  0  0  0  0999 V2000
  131.7000  132.3940   57.2550 C   0  0  0  0  0  0  0  0  0  0  0  0
  131.0020  133.3850   56.5170 O   0  0  0  0  0  0  0  0  0  0  0  0
  129.9220  132.8640   55.7540 C   0  0  0  0  0  0  0  0  0  0  0  0
  128.6340  132.9590   56.5810 C   0  0  0  0  0  0  0  0  0  0  0  0
  128.9100  133.6600   57.7890 O   0  0  0  0  0  0  0  0  0  0  0  0
  128.5280  132.9920   58.9880 C   0  0  0  0  0  0  0  0  0  0  0  0
  128.0700  131.5390   58.7690 C   0  0  0  0  0  0  0  0  0  0  0  0
  126.8620  131.3170   59.4840 O   0  0  0  0  0  0  0  0  0  0  0  0
  125.6880  131.4960   58.7020 C   0  0  0  0  0  0  0  0  0  0  0  0
  124.4910  131.8280   59.6110 C   0  0  0  0  0  0  0  0  0  0  0  0
  124.4590  131.0450   60.8480 N   0  0  0  0  0  0  0  0  0  0  0  0
  123.3740  130.8250   61.6150 C   0  0  0  0  0  0  0  0  0  0  0  0
  122.2580  131.2610   61.3330 O   0  0  0  0  0  0  0  0  0  0  0  0
  123.5320  129.9930   62.8990 C   0  0  0  0  0  0  0  0  0  0  0  0
  124.7340  130.6140   64.1330 S   0  0  0  0  0  0  0  0  0  0  0  0
  125.9200  131.6590   63.3020 C   0  0  0  0  0  0  0  0  0  0  0  0
  125.4160  132.7860   62.7390 N   0  0  0  0  0  0  0  0  0  0  0  0
  126.2380  133.6410   62.0800 C   0  0  0  0  0  0  0  0  0  0  0  0
  125.5970  134.8610   61.4900 C   0  0  0  0  0  0  0  0  0  0  0  0
  124.2240  134.8820   61.2010 C   0  0  0  0  0  0  0  0  0  0  0  0
  123.6230  136.0140   60.6570 C   0  0  0  0  0  0  0  0  0  0  0  0
  124.3890  137.1450   60.3950 C   0  0  0  0  0  0  0  0  0  0  0  0
  125.7510  137.1510   60.6740 C   0  0  0  0  0  0  0  0  0  0  0  0
  126.3490  136.0180   61.2190 C   0  0  0  0  0  0  0  0  0  0  0  0
  127.6110  133.3850   61.9840 C   0  0  0  0  0  0  0  0  0  0  0  0
  128.1580  132.2290   62.5570 C   0  0  0  0  0  0  0  0  0  0  0  0
  129.6740  131.9800   62.4290 C   0  0  0  0  0  0  0  0  0  0  0  0
  130.2740  132.2030   63.5980 F   0  0  0  0  0  0  0  0  0  0  0  0
  129.9000  130.7190   62.0600 F   0  0  0  0  0  0  0  0  0  0  0  0
  130.2530  132.7720   61.5230 F   0  0  0  0  0  0  0  0  0  0  0  0
  127.2930  131.3360   63.2350 C   0  0  0  0  0  0  0  0  0  0  0  0
  127.8090  130.1110   63.8550 C   0  0  0  0  0  0  0  0  0  0  0  0
  128.2160  129.1430   64.3430 N   0  0  0  0  0  0  0  0  0  0  0  0
  1  2  1  0
  2  3  1  0
  3  4  1  0
  4  5  1  0
  5  6  1  0
  6  7  1  0
  7  8  1  0
  8  9  1  0
  9 10  1  0
 10 11  1  0
 11 12  1  0
 12 13  2  0
 12 14  1  0
 14 15  1  0
 15 16  1  0
 16 17  2  0
 17 18  1  0
 18 19  1  0
 19 20  2  0
 20 21  1  0
 21 22  2  0
 22 23  1  0
 23 24  2  0
 18 25  2  0
 25 26  1  0
 26 27  1  0
 27 28  1  0
 27 29  1  0
 27 30  1  0
 26 31  2  0
 31 32  1  0
 32 33  3  0
 31 16  1  0
 24 19  1  0
M  END
>  <Binding energies>  (31) 
[-6.14]

>  <Ligand effiencies>  (31) 
[-0.18058823529411763]

>  <Interactions>  (31) 
["V-A:GLU:543:CD:4908, V-B:ASP:366:CG:8184, V-A:GLU:543:CG:4907, V-A:TYR:539:CD1:4873, V-A:LEU:363:CD1:3189, V-A:ILE:538:CG2:4863, V-A:ILE:538:CB:4862, V-B:LEU:475:CD2:9230, V-A:ALA:541:CB:4892, V-A:PRO:540:CA:4883, V-B:ILE:369:CG2:8208, V-A:PRO:540:CB:4885, V-A:TYR:539:CE1:4875, V-A:TYR:539:C:4867, V-A:ALA:541:CA:4890, H-A:TYR:539:N:4870, V-A:PRO:540:N:4884, H-B:TYR:484:OH:9319, V-A:MET:535:CE:4835, H-B:GLY:454:N:9021, V-A:PRO:540:C:4881, V-B:ARG:545:CZ:9898, V-A:PRO:540:CD:4887, V-A:ILE:538:CA:4860, V-A:TYR:539:CZ:4877, V-A:ALA:541:C:4888, V-A:TYR:539:CG:4872, V-B:SER:385:CA:8378, V-B:HIS:383:CD2:8363, V-B:SER:385:CB:8380, V-A:TYR:539:CE2:4876, V-A:ILE:538:C:4858, V-A:TYR:539:CB:4871, V-B:LEU:373:CD1:8251, V-A:TYR:539:CD2:4874, V-B:GLY:453:CA:9015"]

$$$$
3bk_Grossjean_2025
     RDKit          3D

 30 31  0  0  0  0  0  0  0  0999 V2000
  127.6010  138.1730   61.7920 C   0  0  0  0  0  0  0  0  0  0  0  0
  126.5040  137.8140   60.9660 O   0  0  0  0  0  0  0  0  0  0  0  0
  125.3220  137.5080   61.6950 C   0  0  0  0  0  0  0  0  0  0  0  0
  124.1340  137.4010   60.7290 C   0  0  0  0  0  0  0  0  0  0  0  0
  123.5150  136.1310   60.8840 O   0  0  0  0  0  0  0  0  0  0  0  0
  124.3830  135.0340   60.6280 C   0  0  0  0  0  0  0  0  0  0  0  0
  124.4540  134.1440   61.8760 C   0  0  0  0  0  0  0  0  0  0  0  0
  125.8120  133.8330   62.1560 O   0  0  0  0  0  0  0  0  0  0  0  0
  126.7450  134.6010   61.4060 C   0  0  0  0  0  0  0  0  0  0  0  0
  128.1580  134.0400   61.6220 C   0  0  0  0  0  0  0  0  0  0  0  0
  128.1510  132.6050   61.9070 N   0  0  0  0  0  0  0  0  0  0  0  0
  129.2410  131.8320   62.0520 C   0  0  0  0  0  0  0  0  0  0  0  0
  130.3950  132.2570   61.9770 O   0  0  0  0  0  0  0  0  0  0  0  0
  128.9930  130.3520   62.3520 C   0  0  0  0  0  0  0  0  0  0  0  0
  127.4310  130.0910   63.2510 S   0  0  0  0  0  0  0  0  0  0  0  0
  126.0650  130.4410   62.1560 C   0  0  0  0  0  0  0  0  0  0  0  0
  126.3880  130.6650   60.8570 N   0  0  0  0  0  0  0  0  0  0  0  0
  125.4140  130.9430   59.9510 C   0  0  0  0  0  0  0  0  0  0  0  0
  125.8550  131.1560   58.5350 C   0  0  0  0  0  0  0  0  0  0  0  0
  127.1400  131.6450   58.2490 C   0  0  0  0  0  0  0  0  0  0  0  0
  127.5530  131.8500   56.9350 C   0  0  0  0  0  0  0  0  0  0  0  0
  126.6850  131.5680   55.8860 C   0  0  0  0  0  0  0  0  0  0  0  0
  125.4080  131.0790   56.1410 C   0  0  0  0  0  0  0  0  0  0  0  0
  124.9990  130.8740   57.4560 C   0  0  0  0  0  0  0  0  0  0  0  0
  124.0700  130.9960   60.3380 C   0  0  0  0  0  0  0  0  0  0  0  0
  123.7180  130.7690   61.6730 C   0  0  0  0  0  0  0  0  0  0  0  0
  122.2400  130.8370   62.0530 C   0  0  0  0  0  0  0  0  0  0  0  0
  124.7300  130.4840   62.6140 C   0  0  0  0  0  0  0  0  0  0  0  0
  124.3920  130.2400   64.0190 C   0  0  0  0  0  0  0  0  0  0  0  0
  124.1250  130.0470   65.1280 N   0  0  0  0  0  0  0  0  0  0  0  0
  1  2  1  0
  2  3  1  0
  3  4  1  0
  4  5  1  0
  5  6  1  0
  6  7  1  0
  7  8  1  0
  8  9  1  0
  9 10  1  0
 10 11  1  0
 11 12  1  0
 12 13  2  0
 12 14  1  0
 14 15  1  0
 15 16  1  0
 16 17  2  0
 17 18  1  0
 18 19  1  0
 19 20  2  0
 20 21  1  0
 21 22  2  0
 22 23  1  0
 23 24  2  0
 18 25  2  0
 25 26  1  0
 26 27  1  0
 26 28  2  0
 28 29  1  0
 29 30  3  0
 28 16  1  0
 24 19  1  0
M  END
>  <Binding energies>  (32) 
[-6.8]

>  <Ligand effiencies>  (32) 
[-0.21935483870967742]

>  <Interactions>  (32) 
["V-A:GLU:543:CD:4908, V-B:ASP:366:CB:8183, V-B:ASP:366:CG:8184, V-A:TYR:539:CD1:4873, V-B:GLY:454:CA:9020, V-B:LEU:475:CD2:9230, V-A:ALA:541:CB:4892, V-A:PRO:540:CA:4883, V-B:ILE:369:CG2:8208, V-B:ILE:369:CG1:8209, V-A:TYR:539:CE1:4875, V-A:TYR:539:C:4867, H-B:TYR:484:OH:9319, V-A:MET:535:CE:4835, H-B:GLY:454:N:9021, V-A:PRO:540:C:4881, H-A:ALA:541:N:4891, V-B:TYR:531:CZ:9766, V-B:ARG:545:CZ:9898, H-B:ARG:545:NE:9896, V-A:TYR:539:CZ:4877, V-B:SER:385:CA:8378, V-B:HIS:383:CD2:8363, V-B:SER:385:CB:8380, V-A:TYR:539:CE2:4876, V-B:GLY:453:C:9013, V-B:LEU:373:CD1:8251, H-B:HIS:383:NE2:8365, V-B:TYR:531:CE1:9764, V-B:GLY:453:CA:9015"]

$$$$
3cb_Grossjean_2025
     RDKit          3D

 30 32  0  0  0  0  0  0  0  0999 V2000
  127.2530  127.3820   73.0310 C   0  0  0  0  0  0  0  0  0  0  0  0
  128.6250  127.0160   72.9930 O   0  0  0  0  0  0  0  0  0  0  0  0
  129.5320  127.7750   72.3260 C   0  0  0  0  0  0  0  0  0  0  0  0
  130.1640  128.6970   72.8490 O   0  0  0  0  0  0  0  0  0  0  0  0
  129.6900  127.3800   70.8850 C   0  0  0  0  0  0  0  0  0  0  0  0
  128.7170  126.6300   70.2080 C   0  0  0  0  0  0  0  0  0  0  0  0
  128.8940  126.2840   68.8720 C   0  0  0  0  0  0  0  0  0  0  0  0
  130.0440  126.6730   68.1840 C   0  0  0  0  0  0  0  0  0  0  0  0
  130.1170  126.2710   66.8360 N   0  0  0  0  0  0  0  0  0  0  0  0
  129.8250  125.0810   66.2670 C   0  0  0  0  0  0  0  0  0  0  0  0
  129.4020  124.0950   66.8730 O   0  0  0  0  0  0  0  0  0  0  0  0
  130.0430  125.0310   64.7470 C   0  0  0  0  0  0  0  0  0  0  0  0
  130.0170  123.3560   64.0210 S   0  0  0  0  0  0  0  0  0  0  0  0
  129.9620  123.5310   62.2500 C   0  0  0  0  0  0  0  0  0  0  0  0
  131.1520  123.8820   61.7050 N   0  0  0  0  0  0  0  0  0  0  0  0
  131.2300  124.0430   60.3660 C   0  0  0  0  0  0  0  0  0  0  0  0
  132.5950  124.4230   59.8250 C   0  0  0  0  0  0  0  0  0  0  0  0
  130.1340  123.8690   59.5250 C   0  0  0  0  0  0  0  0  0  0  0  0
  128.8900  123.5230   60.0670 C   0  0  0  0  0  0  0  0  0  0  0  0
  127.7430  123.3530   59.1230 C   0  0  0  0  0  0  0  0  0  0  0  0
  127.8670  122.5140   58.0090 C   0  0  0  0  0  0  0  0  0  0  0  0
  126.8010  122.3410   57.1290 C   0  0  0  0  0  0  0  0  0  0  0  0
  125.6010  123.0060   57.3650 C   0  0  0  0  0  0  0  0  0  0  0  0
  125.4570  123.8380   58.4710 C   0  0  0  0  0  0  0  0  0  0  0  0
  126.5250  124.0080   59.3490 C   0  0  0  0  0  0  0  0  0  0  0  0
  128.7890  123.3630   61.4730 C   0  0  0  0  0  0  0  0  0  0  0  0
  127.4930  123.0930   62.1040 C   0  0  0  0  0  0  0  0  0  0  0  0
  126.4700  122.8790   62.6010 N   0  0  0  0  0  0  0  0  0  0  0  0
  131.0200  127.4280   68.8530 C   0  0  0  0  0  0  0  0  0  0  0  0
  130.8420  127.7740   70.1900 C   0  0  0  0  0  0  0  0  0  0  0  0
  1  2  1  0
  2  3  1  0
  3  4  2  0
  3  5  1  0
  5  6  2  0
  6  7  1  0
  7  8  2  0
  8  9  1  0
  9 10  1  0
 10 11  2  0
 10 12  1  0
 12 13  1  0
 13 14  1  0
 14 15  2  0
 15 16  1  0
 16 17  1  0
 16 18  2  0
 18 19  1  0
 19 20  1  0
 20 21  2  0
 21 22  1  0
 22 23  2  0
 23 24  1  0
 24 25  2  0
 19 26  2  0
 26 27  1  0
 27 28  3  0
  8 29  1  0
 29 30  2  0
 30  5  1  0
 26 14  1  0
 25 20  1  0
M  END
>  <Binding energies>  (33) 
[-9.03]

>  <Ligand effiencies>  (33) 
[-0.29129032258064513]

>  <Interactions>  (33) 
["V-B:HIS:456:CG:9037, H-A:LYS:547:NZ:4951, V-B:GLU:543:C:9874, V-A:GLU:543:CD:4908, V-A:GLU:543:C:4902, V-B:LYS:547:CE:9922, V-A:HIS:456:CE1:4070, V-B:GLY:544:C:9884, V-A:GLU:543:CB:4906, V-A:GLY:544:C:4912, V-B:HIS:456:CD2:9039, V-B:GLU:543:CB:9878, V-A:ARG:545:CG:4922, V-B:TYR:539:CE2:9848, V-B:LEU:363:CD1:8160, V-B:PRO:540:CB:9857, H-B:ALA:541:N:9863, V-B:TYR:539:CZ:9849, V-B:TYR:539:CD2:9846, V-B:TYR:539:CG:9844, V-B:TYR:539:CE1:9847, V-B:PRO:540:CA:9855, V-B:GLU:543:CA:9876, H-B:LYS:547:NZ:9923, V-B:GLU:543:CG:9879, V-B:GLU:543:CD:9880, V-B:ALA:541:CB:9864, H-A:GLU:543:OE2:4910, H-A:GLU:543:OE1:4909, V-B:PRO:540:N:9856, V-B:TYR:539:CD1:9845, V-B:TYR:539:C:9839, V-B:PRO:540:CD:9859, H-A:TYR:484:OH:4348, V-B:TYR:539:CA:9841"]

$$$$
3ch_Grossjean_2025
     RDKit          3D

 32 34  0  0  0  0  0  0  0  0999 V2000
  122.5880  133.1900   62.4870 C   0  0  0  0  0  0  0  0  0  0  0  0
  122.4020  131.7980   62.2520 O   0  0  0  0  0  0  0  0  0  0  0  0
  123.4140  131.0640   61.6610 C   0  0  0  0  0  0  0  0  0  0  0  0
  123.7780  131.1750   60.3090 C   0  0  0  0  0  0  0  0  0  0  0  0
  124.8230  130.4030   59.7800 C   0  0  0  0  0  0  0  0  0  0  0  0
  125.2630  130.4490   58.4430 N   0  0  0  0  0  0  0  0  0  0  0  0
  124.6540  130.9620   57.3520 C   0  0  0  0  0  0  0  0  0  0  0  0
  123.5560  131.5200   57.3430 O   0  0  0  0  0  0  0  0  0  0  0  0
  125.4430  130.8600   56.0470 C   0  0  0  0  0  0  0  0  0  0  0  0
  127.0340  131.7320   56.1370 S   0  0  0  0  0  0  0  0  0  0  0  0
  128.0520  130.7910   57.2530 C   0  0  0  0  0  0  0  0  0  0  0  0
  127.6130  129.5250   57.4620 N   0  0  0  0  0  0  0  0  0  0  0  0
  128.3130  128.7290   58.3010 C   0  0  0  0  0  0  0  0  0  0  0  0
  127.7640  127.3280   58.4940 C   0  0  0  0  0  0  0  0  0  0  0  0
  129.4630  129.1580   58.9580 C   0  0  0  0  0  0  0  0  0  0  0  0
  129.9380  130.4610   58.7490 C   0  0  0  0  0  0  0  0  0  0  0  0
  131.1700  130.8800   59.4830 C   0  0  0  0  0  0  0  0  0  0  0  0
  131.1300  131.0820   60.8680 C   0  0  0  0  0  0  0  0  0  0  0  0
  132.2720  131.4810   61.5570 C   0  0  0  0  0  0  0  0  0  0  0  0
  133.4610  131.6840   60.8620 C   0  0  0  0  0  0  0  0  0  0  0  0
  133.5160  131.4950   59.4840 C   0  0  0  0  0  0  0  0  0  0  0  0
  132.3710  131.0960   58.7970 C   0  0  0  0  0  0  0  0  0  0  0  0
  129.2250  131.3020   57.8570 C   0  0  0  0  0  0  0  0  0  0  0  0
  129.7270  132.6390   57.5280 C   0  0  0  0  0  0  0  0  0  0  0  0
  130.1220  133.6960   57.2690 N   0  0  0  0  0  0  0  0  0  0  0  0
  125.4910  129.5020   60.6120 C   0  0  0  0  0  0  0  0  0  0  0  0
  125.1440  129.3720   61.9650 C   0  0  0  0  0  0  0  0  0  0  0  0
  125.7700  128.5040   62.8440 O   0  0  0  0  0  0  0  0  0  0  0  0
  127.1350  128.1580   62.6320 C   0  0  0  0  0  0  0  0  0  0  0  0
  124.1020  130.1570   62.4770 C   0  0  0  0  0  0  0  0  0  0  0  0
  123.7640  130.0510   63.8050 O   0  0  0  0  0  0  0  0  0  0  0  0
  124.8360  130.3180   64.6990 C   0  0  0  0  0  0  0  0  0  0  0  0
  1  2  1  0
  2  3  1  0
  3  4  2  0
  4  5  1  0
  5  6  1  0
  6  7  1  0
  7  8  2  0
  7  9  1  0
  9 10  1  0
 10 11  1  0
 11 12  2  0
 12 13  1  0
 13 14  1  0
 13 15  2  0
 15 16  1  0
 16 17  1  0
 17 18  2  0
 18 19  1  0
 19 20  2  0
 20 21  1  0
 21 22  2  0
 16 23  2  0
 23 24  1  0
 24 25  3  0
  5 26  2  0
 26 27  1  0
 27 28  1  0
 28 29  1  0
 27 30  2  0
 30 31  1  0
 31 32  1  0
 30  3  1  0
 23 11  1  0
 22 17  1  0
M  END
>  <Binding energies>  (34) 
[-7.62]

>  <Ligand effiencies>  (34) 
[-0.23090909090909092]

>  <Interactions>  (34) 
["V-B:ASP:366:CB:8183, V-B:ASP:366:CG:8184, V-B:GLU:543:CD:9880, V-B:GLY:454:CA:9020, V-A:LEU:363:CD1:3189, V-A:PRO:540:CA:4883, V-B:ILE:369:CG2:8208, V-A:PRO:540:CB:4885, H-B:ARG:545:NH2:9900, V-B:ILE:369:CG1:8209, V-A:TYR:539:CE1:4875, H-A:TYR:539:N:4870, V-B:ILE:369:CB:8207, V-A:PRO:540:N:4884, V-A:MET:535:CE:4835, H-B:TYR:531:OH:9767, H-B:GLY:454:N:9021, V-A:ASP:366:CG:3213, V-B:ASP:366:CA:8181, V-B:TYR:531:CZ:9766, V-B:ARG:545:CZ:9898, H-B:ARG:545:NH1:9899, H-B:ARG:545:NE:9896, V-A:TYR:539:CZ:4877, V-B:GLY:453:C:9013, V-B:ILE:369:CD1:8210, H-A:TYR:539:OH:4878, V-A:ASN:362:CB:3176, V-A:ASN:362:C:3172, V-B:SER:385:C:8376, V-A:LEU:363:CA:3185, V-A:LEU:363:CB:3187, V-B:TYR:531:CE1:9764"]

$$$$
3ci_Grossjean_2025
     RDKit          3D

 25 27  0  0  0  0  0  0  0  0999 V2000
  133.4460  130.9750   62.5780 C   0  0  0  0  0  0  0  0  0  0  0  0
  132.2550  131.4800   61.7840 C   0  0  0  0  0  0  0  0  0  0  0  0
  132.2500  131.4760   60.3920 C   0  0  0  0  0  0  0  0  0  0  0  0
  131.1200  131.9380   59.7030 C   0  0  0  0  0  0  0  0  0  0  0  0
  131.1540  131.9010   58.2100 C   0  0  0  0  0  0  0  0  0  0  0  0
  131.6640  130.7860   57.5320 C   0  0  0  0  0  0  0  0  0  0  0  0
  131.7010  130.7610   56.1400 C   0  0  0  0  0  0  0  0  0  0  0  0
  131.2320  131.8550   55.4190 C   0  0  0  0  0  0  0  0  0  0  0  0
  130.7300  132.9740   56.0770 C   0  0  0  0  0  0  0  0  0  0  0  0
  130.6940  132.9970   57.4690 C   0  0  0  0  0  0  0  0  0  0  0  0
  130.0160  132.4080   60.4580 C   0  0  0  0  0  0  0  0  0  0  0  0
  128.8230  132.9430   59.7910 C   0  0  0  0  0  0  0  0  0  0  0  0
  127.8830  133.3640   59.2640 N   0  0  0  0  0  0  0  0  0  0  0  0
  130.1030  132.3720   61.8710 C   0  0  0  0  0  0  0  0  0  0  0  0
  128.7620  132.9200   62.9200 S   0  0  0  0  0  0  0  0  0  0  0  0
  127.1750  132.3510   62.2250 C   0  0  0  0  0  0  0  0  0  0  0  0
  126.1510  133.4770   62.0480 C   0  0  0  0  0  0  0  0  0  0  0  0
  125.0130  133.3330   62.5000 O   0  0  0  0  0  0  0  0  0  0  0  0
  126.5860  134.5660   61.3760 N   0  0  0  0  0  0  0  0  0  0  0  0
  125.8750  135.7270   61.1050 C   0  0  0  0  0  0  0  0  0  0  0  0
  124.4980  135.7420   60.8890 C   0  0  0  0  0  0  0  0  0  0  0  0
  124.1860  137.0620   60.6550 C   0  0  0  0  0  0  0  0  0  0  0  0
  125.3180  137.8030   60.7280 O   0  0  0  0  0  0  0  0  0  0  0  0
  126.3820  136.9460   61.0130 N   0  0  0  0  0  0  0  0  0  0  0  0
  131.2090  131.9210   62.5150 N   0  0  0  0  0  0  0  0  0  0  0  0
  1  2  1  0
  2  3  2  0
  3  4  1  0
  4  5  1  0
  5  6  2  0
  6  7  1  0
  7  8  2  0
  8  9  1  0
  9 10  2  0
  4 11  2  0
 11 12  1  0
 12 13  3  0
 11 14  1  0
 14 15  1  0
 15 16  1  0
 16 17  1  0
 17 18  2  0
 17 19  1  0
 19 20  1  0
 20 21  1  0
 21 22  2  0
 22 23  1  0
 23 24  1  0
 14 25  2  0
 25  2  1  0
 10  5  1  0
 24 20  2  0
M  END
>  <Binding energies>  (35) 
[-8.27]

>  <Ligand effiencies>  (35) 
[-0.31807692307692303]

>  <Interactions>  (35) 
["V-A:GLU:543:CD:4908, V-A:TYR:539:CD1:4873, V-A:TYR:531:CE2:4793, V-A:ILE:538:CG2:4863, V-A:ILE:538:CB:4862, V-A:TYR:531:CZ:4794, V-B:LEU:475:CD2:9230, V-A:ALA:541:CB:4892, V-A:PRO:540:CA:4883, V-B:ILE:369:CG2:8208, V-A:PRO:540:CB:4885, V-A:TYR:539:CE1:4875, V-A:TYR:539:C:4867, V-A:PRO:540:N:4884, V-A:MET:535:CE:4835, V-A:ASP:366:CG:3213, V-A:PRO:540:C:4881, V-A:ARG:545:CZ:4926, H-A:ALA:541:N:4891, H-A:TYR:539:O:4868, V-A:PRO:540:CD:4887, V-A:ILE:538:CA:4860, V-B:SER:385:CA:8378, V-B:HIS:383:CD2:8363, V-B:SER:385:CB:8380, V-A:ILE:538:C:4858, V-B:LEU:373:CD1:8251, V-A:ASN:362:CB:3176, V-A:MET:535:CG:4833, V-A:ASN:362:CG:3177, H-B:HIS:383:NE2:8365"]

$$$$
3ck_Grossjean_2025
     RDKit          3D

 30 31  0  0  0  0  0  0  0  0999 V2000
  129.7460  125.9530   67.2380 C   0  0  0  0  0  0  0  0  0  0  0  0
  130.8230  125.0780   66.9430 O   0  0  0  0  0  0  0  0  0  0  0  0
  131.2340  125.1230   65.5840 C   0  0  0  0  0  0  0  0  0  0  0  0
  132.7380  125.4160   65.5120 C   0  0  0  0  0  0  0  0  0  0  0  0
  133.3870  124.3710   64.8000 O   0  0  0  0  0  0  0  0  0  0  0  0
  132.5440  123.6890   63.8810 C   0  0  0  0  0  0  0  0  0  0  0  0
  132.4730  124.4920   62.5760 C   0  0  0  0  0  0  0  0  0  0  0  0
  133.7190  125.1460   62.3840 O   0  0  0  0  0  0  0  0  0  0  0  0
  134.7440  124.3280   61.8420 C   0  0  0  0  0  0  0  0  0  0  0  0
  134.3100  123.8060   60.4590 C   0  0  0  0  0  0  0  0  0  0  0  0
  133.4740  124.7480   59.7090 N   0  0  0  0  0  0  0  0  0  0  0  0
  133.3330  124.7780   58.3720 C   0  0  0  0  0  0  0  0  0  0  0  0
  133.8870  123.9780   57.6150 O   0  0  0  0  0  0  0  0  0  0  0  0
  132.4170  125.8870   57.8280 C   0  0  0  0  0  0  0  0  0  0  0  0
  131.2750  126.6260   59.0450 S   0  0  0  0  0  0  0  0  0  0  0  0
  129.9730  125.4590   59.4100 C   0  0  0  0  0  0  0  0  0  0  0  0
  129.8950  125.0530   60.7020 N   0  0  0  0  0  0  0  0  0  0  0  0
  128.9360  124.1660   61.0490 C   0  0  0  0  0  0  0  0  0  0  0  0
  128.9130  123.7560   62.5090 C   0  0  0  0  0  0  0  0  0  0  0  0
  128.0220  123.6520   60.1320 C   0  0  0  0  0  0  0  0  0  0  0  0
  128.0870  124.0530   58.7910 C   0  0  0  0  0  0  0  0  0  0  0  0
  127.1020  123.4590   57.8390 C   0  0  0  0  0  0  0  0  0  0  0  0
  125.7280  123.6160   58.0580 C   0  0  0  0  0  0  0  0  0  0  0  0
  124.8040  123.0550   57.1790 C   0  0  0  0  0  0  0  0  0  0  0  0
  125.2510  122.3290   56.0800 C   0  0  0  0  0  0  0  0  0  0  0  0
  126.6150  122.1560   55.8520 C   0  0  0  0  0  0  0  0  0  0  0  0
  127.5360  122.7180   56.7320 C   0  0  0  0  0  0  0  0  0  0  0  0
  129.0820  124.9930   58.4160 C   0  0  0  0  0  0  0  0  0  0  0  0
  129.1700  125.4800   57.0350 C   0  0  0  0  0  0  0  0  0  0  0  0
  129.2390  125.8650   55.9450 N   0  0  0  0  0  0  0  0  0  0  0  0
  1  2  1  0
  2  3  1  0
  3  4  1  0
  4  5  1  0
  5  6  1  0
  6  7  1  0
  7  8  1  0
  8  9  1  0
  9 10  1  0
 10 11  1  0
 11 12  1  0
 12 13  2  0
 12 14  1  0
 14 15  1  0
 15 16  1  0
 16 17  2  0
 17 18  1  0
 18 19  1  0
 18 20  2  0
 20 21  1  0
 21 22  1  0
 22 23  2  0
 23 24  1  0
 24 25  2  0
 25 26  1  0
 26 27  2  0
 21 28  2  0
 28 29  1  0
 29 30  3  0
 28 16  1  0
 27 22  1  0
M  END
>  <Binding energies>  (36) 
[-6.7]

>  <Ligand effiencies>  (36) 
[-0.2161290322580645]

>  <Interactions>  (36) 
["V-A:HIS:456:CE1:4070, V-B:GLU:543:CB:9878, V-B:TYR:539:CE2:9848, H-B:TYR:539:OH:9850, V-B:LEU:363:CD1:8160, V-B:MET:535:CE:9807, V-B:PRO:540:CB:9857, V-A:ILE:369:CG2:3237, V-B:TYR:539:CZ:9849, V-B:TYR:539:CD2:9846, V-B:TYR:539:CG:9844, V-B:TYR:539:CE1:9847, V-B:PRO:540:CA:9855, V-B:GLU:543:CG:9879, V-A:ILE:369:CD1:3239, H-A:ASP:366:OD2:3215, H-A:ARG:545:NH2:4928, V-A:ASP:366:CB:3212, V-B:PRO:540:N:9856, H-A:TYR:531:OH:4795, V-B:TYR:539:CD1:9845, V-B:TYR:539:C:9839, V-B:PRO:540:CD:9859, V-A:ASP:366:CG:3213, V-A:ARG:545:CZ:4926, H-A:ASP:366:OD1:3214, H-A:GLY:454:N:4050, H-A:TYR:484:OH:4348, V-B:ILE:538:CA:9832, V-A:ASP:366:CA:3210, V-A:GLY:453:CA:4044, V-A:ASP:366:C:3208, V-B:ILE:538:C:9830, V-B:ILE:538:CG2:9835, V-B:PRO:540:CG:9858, V-A:ARG:545:CD:4923, H-A:ASN:370:N:3244, V-A:ILE:369:CB:3236, V-A:ILE:369:CG1:3238"]

$$$$
4aa_Grossjean_2025
     RDKit          3D

 26 28  0  0  0  0  0  0  0  0999 V2000
  131.2680  131.9180   55.4400 C   0  0  0  0  0  0  0  0  0  0  0  0
  131.7120  132.3280   56.8480 C   0  0  0  0  0  0  0  0  0  0  0  0
  130.9000  133.4010   57.3060 O   0  0  0  0  0  0  0  0  0  0  0  0
  129.6120  133.1930   57.6840 C   0  0  0  0  0  0  0  0  0  0  0  0
  128.6420  133.6740   57.0900 O   0  0  0  0  0  0  0  0  0  0  0  0
  129.4840  132.3230   58.9010 C   0  0  0  0  0  0  0  0  0  0  0  0
  129.0410  132.8890   60.1040 C   0  0  0  0  0  0  0  0  0  0  0  0
  128.9170  132.1100   61.2510 C   0  0  0  0  0  0  0  0  0  0  0  0
  129.2240  130.7490   61.2170 C   0  0  0  0  0  0  0  0  0  0  0  0
  129.0710  130.0580   62.4350 N   0  0  0  0  0  0  0  0  0  0  0  0
  127.9710  129.4870   62.9830 C   0  0  0  0  0  0  0  0  0  0  0  0
  126.8480  129.5270   62.4810 O   0  0  0  0  0  0  0  0  0  0  0  0
  128.1890  128.8160   64.2660 C   0  0  0  0  0  0  0  0  0  0  0  0
  127.4620  129.4570   65.7420 S   0  0  0  0  0  0  0  0  0  0  0  0
  128.2020  128.2010   66.7080 C   0  0  0  0  0  0  0  0  0  0  0  0
  128.0210  128.1270   68.0270 N   0  0  0  0  0  0  0  0  0  0  0  0
  128.6540  127.1080   68.6580 C   0  0  0  0  0  0  0  0  0  0  0  0
  128.4380  127.0440   70.1590 C   0  0  0  0  0  0  0  0  0  0  0  0
  129.4520  126.1690   68.0070 C   0  0  0  0  0  0  0  0  0  0  0  0
  129.6390  126.2500   66.6230 C   0  0  0  0  0  0  0  0  0  0  0  0
  130.5190  125.2020   65.9570 C   0  0  0  0  0  0  0  0  0  0  0  0
  128.9940  127.3080   65.9260 C   0  0  0  0  0  0  0  0  0  0  0  0
  128.9730  127.6840   64.5380 C   0  0  0  0  0  0  0  0  0  0  0  0
  129.6620  126.9830   63.5800 N   0  0  0  0  0  0  0  0  0  0  0  0
  129.6740  130.1740   60.0200 C   0  0  0  0  0  0  0  0  0  0  0  0
  129.8010  130.9560   58.8740 C   0  0  0  0  0  0  0  0  0  0  0  0
  1  2  1  0
  2  3  1  0
  3  4  1  0
  4  5  2  0
  4  6  1  0
  6  7  2  0
  7  8  1  0
  8  9  2  0
  9 10  1  0
 10 11  1  0
 11 12  2  0
 11 13  1  0
 13 14  1  0
 14 15  1  0
 15 16  2  0
 16 17  1  0
 17 18  1  0
 17 19  2  0
 19 20  1  0
 20 21  1  0
 20 22  2  0
 22 23  1  0
 23 24  1  0
  9 25  1  0
 25 26  2  0
 26  6  1  0
 23 13  2  0
 22 15  1  0
M  END
>  <Binding energies>  (37) 
[-7.21]

>  <Ligand effiencies>  (37) 
[-0.24862068965517242]

>  <Interactions>  (37) 
["V-B:GLU:543:C:9874, V-A:GLU:543:CD:4908, V-A:HIS:456:CE1:4070, V-B:HIS:456:CE1:9041, V-B:GLU:543:CB:9878, V-B:TYR:484:CZ:9318, V-B:GLU:543:CG:9879, V-B:GLU:543:CD:9880, V-A:GLU:543:CG:4907, H-B:GLU:543:OE1:9881, V-A:TYR:539:CD1:4873, H-A:GLU:543:OE2:4910, V-A:LEU:363:CD1:3189, V-A:ILE:538:CG2:4863, V-A:ILE:538:CB:4862, H-A:GLU:543:OE1:4909, V-A:PRO:540:CA:4883, V-A:TYR:539:C:4867, H-A:TYR:539:N:4870, V-A:PRO:540:N:4884, V-A:MET:535:CE:4835, V-A:TYR:539:CA:4869, V-A:MET:535:CG:4833"]

$$$$
4ab_Grossjean_2025
     RDKit          3D

 25 27  0  0  0  0  0  0  0  0999 V2000
  128.6300  133.0020   55.6980 C   0  0  0  0  0  0  0  0  0  0  0  0
  128.8890  133.4970   57.0040 O   0  0  0  0  0  0  0  0  0  0  0  0
  130.0120  133.1390   57.6770 C   0  0  0  0  0  0  0  0  0  0  0  0
  131.1550  133.3630   57.2620 O   0  0  0  0  0  0  0  0  0  0  0  0
  129.7290  132.4360   58.9730 C   0  0  0  0  0  0  0  0  0  0  0  0
  130.5070  131.3280   59.3340 C   0  0  0  0  0  0  0  0  0  0  0  0
  130.2670  130.6540   60.5290 C   0  0  0  0  0  0  0  0  0  0  0  0
  129.2540  131.0770   61.3880 C   0  0  0  0  0  0  0  0  0  0  0  0
  129.0940  130.3190   62.5640 N   0  0  0  0  0  0  0  0  0  0  0  0
  128.0330  129.5990   63.0020 C   0  0  0  0  0  0  0  0  0  0  0  0
  126.9540  129.5270   62.4130 O   0  0  0  0  0  0  0  0  0  0  0  0
  128.2330  128.9030   64.2740 C   0  0  0  0  0  0  0  0  0  0  0  0
  127.5310  129.5450   65.7610 S   0  0  0  0  0  0  0  0  0  0  0  0
  128.2320  128.2520   66.7070 C   0  0  0  0  0  0  0  0  0  0  0  0
  128.0530  128.1650   68.0260 N   0  0  0  0  0  0  0  0  0  0  0  0
  128.6530  127.1160   68.6400 C   0  0  0  0  0  0  0  0  0  0  0  0
  128.4410  127.0380   70.1410 C   0  0  0  0  0  0  0  0  0  0  0  0
  129.4160  126.1600   67.9730 C   0  0  0  0  0  0  0  0  0  0  0  0
  129.6020  126.2550   66.5890 C   0  0  0  0  0  0  0  0  0  0  0  0
  130.4450  125.1880   65.9060 C   0  0  0  0  0  0  0  0  0  0  0  0
  128.9920  127.3440   65.9100 C   0  0  0  0  0  0  0  0  0  0  0  0
  128.9810  127.7420   64.5280 C   0  0  0  0  0  0  0  0  0  0  0  0
  129.6460  127.0350   63.5580 N   0  0  0  0  0  0  0  0  0  0  0  0
  128.4650  132.1820   61.0330 C   0  0  0  0  0  0  0  0  0  0  0  0
  128.7050  132.8540   59.8370 C   0  0  0  0  0  0  0  0  0  0  0  0
  1  2  1  0
  2  3  1  0
  3  4  2  0
  3  5  1  0
  5  6  2  0
  6  7  1  0
  7  8  2  0
  8  9  1  0
  9 10  1  0
 10 11  2  0
 10 12  1  0
 12 13  1  0
 13 14  1  0
 14 15  2  0
 15 16  1  0
 16 17  1  0
 16 18  2  0
 18 19  1  0
 19 20  1  0
 19 21  2  0
 21 22  1  0
 22 23  1  0
  8 24  1  0
 24 25  2  0
 25  5  1  0
 22 12  2  0
 21 14  1  0
M  END
>  <Binding energies>  (38) 
[-7.04]

>  <Ligand effiencies>  (38) 
[-0.25142857142857145]

>  <Interactions>  (38) 
["V-B:GLU:543:C:9874, V-A:GLU:543:CD:4908, V-A:HIS:456:CE1:4070, V-A:GLU:543:CB:4906, V-B:HIS:456:CE1:9041, V-B:GLU:543:CB:9878, V-B:TYR:484:CZ:9318, V-B:GLU:543:CG:9879, V-B:GLU:543:CD:9880, V-A:GLU:543:CG:4907, H-B:GLU:543:OE1:9881, V-A:TYR:539:CD1:4873, H-A:GLU:543:OE2:4910, H-A:GLU:543:OE1:4909, V-A:PRO:540:CA:4883, V-A:TYR:539:C:4867, H-A:TYR:539:N:4870, V-A:PRO:540:N:4884, V-A:MET:535:CE:4835, V-A:PRO:540:CD:4887, V-A:ILE:538:CA:4860, V-A:TYR:539:CZ:4877, V-A:TYR:539:CG:4872, V-A:TYR:539:CE2:4876, V-A:TYR:539:CA:4869, V-A:TYR:539:CD2:4874"]

$$$$
4ac_Grossjean_2025
     RDKit          3D

 23 25  0  0  0  0  0  0  0  0999 V2000
  130.1160  127.0110   68.1530 C   0  0  0  0  0  0  0  0  0  0  0  0
  130.8250  125.9390   67.5400 O   0  0  0  0  0  0  0  0  0  0  0  0
  130.3600  125.4170   66.3490 C   0  0  0  0  0  0  0  0  0  0  0  0
  129.7620  126.3170   65.4670 C   0  0  0  0  0  0  0  0  0  0  0  0
  129.2640  125.8840   64.2410 C   0  0  0  0  0  0  0  0  0  0  0  0
  129.3670  124.5410   63.8770 C   0  0  0  0  0  0  0  0  0  0  0  0
  128.8250  124.1930   62.6250 N   0  0  0  0  0  0  0  0  0  0  0  0
  127.8680  123.2810   62.3300 C   0  0  0  0  0  0  0  0  0  0  0  0
  127.3250  122.5560   63.1660 O   0  0  0  0  0  0  0  0  0  0  0  0
  127.5030  123.1900   60.9140 C   0  0  0  0  0  0  0  0  0  0  0  0
  128.5370  122.3190   59.7800 S   0  0  0  0  0  0  0  0  0  0  0  0
  127.4620  122.6800   58.4480 C   0  0  0  0  0  0  0  0  0  0  0  0
  127.7100  122.2600   57.2070 N   0  0  0  0  0  0  0  0  0  0  0  0
  126.7980  122.6090   56.2680 C   0  0  0  0  0  0  0  0  0  0  0  0
  127.0970  122.1210   54.8630 C   0  0  0  0  0  0  0  0  0  0  0  0
  125.6560  123.3620   56.5370 C   0  0  0  0  0  0  0  0  0  0  0  0
  125.3990  123.8020   57.8410 C   0  0  0  0  0  0  0  0  0  0  0  0
  124.1410  124.6200   58.0850 C   0  0  0  0  0  0  0  0  0  0  0  0
  126.3330  123.4530   58.8530 C   0  0  0  0  0  0  0  0  0  0  0  0
  126.3800  123.7280   60.2650 C   0  0  0  0  0  0  0  0  0  0  0  0
  125.4060  124.4550   60.9010 N   0  0  0  0  0  0  0  0  0  0  0  0
  129.9560  123.6270   64.7620 C   0  0  0  0  0  0  0  0  0  0  0  0
  130.4530  124.0640   65.9880 C   0  0  0  0  0  0  0  0  0  0  0  0
  1  2  1  0
  2  3  1  0
  3  4  2  0
  4  5  1  0
  5  6  2  0
  6  7  1  0
  7  8  1  0
  8  9  2  0
  8 10  1  0
 10 11  1  0
 11 12  1  0
 12 13  2  0
 13 14  1  0
 14 15  1  0
 14 16  2  0
 16 17  1  0
 17 18  1  0
 17 19  2  0
 19 20  1  0
 20 21  1  0
  6 22  1  0
 22 23  2  0
 23  3  1  0
 20 10  2  0
 19 12  1  0
M  END
>  <Binding energies>  (39) 
[-7.21]

>  <Ligand effiencies>  (39) 
[-0.2773076923076923]

>  <Interactions>  (39) 
["V-A:GLU:543:CD:4908, V-A:HIS:456:CE1:4070, V-A:GLU:543:CB:4906, V-B:TYR:539:CE2:9848, V-B:LEU:363:CA:8156, V-B:LEU:363:CD1:8160, V-B:MET:535:CE:9807, V-B:ASP:366:CB:8183, V-B:PRO:540:CB:9857, H-B:ALA:541:N:9863, V-B:ASP:366:CG:8184, V-B:TYR:539:CD2:9846, V-B:TYR:539:CE1:9847, H-B:TYR:539:N:9842, V-B:TYR:531:CE2:9765, V-B:PRO:540:CA:9855, V-B:GLU:543:CG:9879, V-B:GLU:543:CD:9880, V-A:TYR:484:CE2:4346, H-B:GLU:543:OE1:9881, V-A:TYR:484:CZ:4347, V-B:PRO:540:N:9856, V-B:TYR:539:CD1:9845, V-B:TYR:539:C:9839, H-B:ASP:366:OD1:8185, V-B:ILE:538:CA:9832, V-B:ILE:538:C:9830, V-B:ILE:538:CG2:9835, V-B:ILE:538:CB:9834"]

$$$$
4ad_Grossjean_2025
     RDKit          3D

 21 23  0  0  0  0  0  0  0  0999 V2000
  126.8160  122.1280   54.9900 C   0  0  0  0  0  0  0  0  0  0  0  0
  126.6400  122.6010   56.4210 C   0  0  0  0  0  0  0  0  0  0  0  0
  125.4810  123.2630   56.8210 C   0  0  0  0  0  0  0  0  0  0  0  0
  125.3410  123.6920   58.1470 C   0  0  0  0  0  0  0  0  0  0  0  0
  124.0590  124.4130   58.5350 C   0  0  0  0  0  0  0  0  0  0  0  0
  126.4100  123.4280   59.0450 C   0  0  0  0  0  0  0  0  0  0  0  0
  126.5980  123.7190   60.4410 C   0  0  0  0  0  0  0  0  0  0  0  0
  125.6470  124.3690   61.1870 N   0  0  0  0  0  0  0  0  0  0  0  0
  127.8280  123.2790   60.9550 C   0  0  0  0  0  0  0  0  0  0  0  0
  128.3510  123.4220   62.3150 C   0  0  0  0  0  0  0  0  0  0  0  0
  127.7350  122.9570   63.2760 O   0  0  0  0  0  0  0  0  0  0  0  0
  129.5350  124.0750   62.4170 N   0  0  0  0  0  0  0  0  0  0  0  0
  130.2750  124.4120   63.5670 C   0  0  0  0  0  0  0  0  0  0  0  0
  131.6170  124.7420   63.3540 C   0  0  0  0  0  0  0  0  0  0  0  0
  132.4300  125.0990   64.4270 C   0  0  0  0  0  0  0  0  0  0  0  0
  131.8990  125.1360   65.7130 C   0  0  0  0  0  0  0  0  0  0  0  0
  130.5600  124.8230   65.9360 C   0  0  0  0  0  0  0  0  0  0  0  0
  129.7450  124.4640   64.8660 C   0  0  0  0  0  0  0  0  0  0  0  0
  128.7900  122.4810   59.7090 S   0  0  0  0  0  0  0  0  0  0  0  0
  127.5430  122.7430   58.5110 C   0  0  0  0  0  0  0  0  0  0  0  0
  127.6780  122.3320   57.2490 N   0  0  0  0  0  0  0  0  0  0  0  0
  1  2  1  0
  2  3  2  0
  3  4  1  0
  4  5  1  0
  4  6  2  0
  6  7  1  0
  7  8  1  0
  7  9  2  0
  9 10  1  0
 10 11  2  0
 10 12  1  0
 12 13  1  0
 13 14  2  0
 14 15  1  0
 15 16  2  0
 16 17  1  0
 17 18  2  0
  9 19  1  0
 19 20  1  0
 20 21  2  0
 21  2  1  0
 20  6  1  0
 18 13  1  0
M  END
>  <Binding energies>  (40) 
[-7.31]

>  <Ligand effiencies>  (40) 
[-0.3045833333333333]

>  <Interactions>  (40) 
["V-B:TYR:539:CE2:9848, V-B:LEU:363:CA:8156, V-B:LEU:363:CD1:8160, V-B:MET:535:CE:9807, V-B:ASP:366:CB:8183, V-B:PRO:540:CB:9857, V-B:LEU:363:CB:8158, H-B:ALA:541:N:9863, V-B:ASP:366:CG:8184, V-B:TYR:539:CD2:9846, V-B:TYR:539:CE1:9847, H-B:TYR:539:N:9842, V-B:PRO:540:CA:9855, V-B:GLU:543:CG:9879, V-B:GLU:543:CD:9880, V-A:TYR:484:CE2:4346, H-B:GLU:543:OE1:9881, V-A:TYR:484:CZ:4347, V-B:PRO:540:N:9856, V-B:TYR:539:CD1:9845, V-B:TYR:539:C:9839, V-B:PRO:540:CD:9859, V-A:ARG:545:CZ:4926, H-B:ASP:366:OD1:8185, V-B:ILE:538:CA:9832, V-B:ILE:538:C:9830, V-B:ILE:538:CG2:9835, V-B:ILE:538:CB:9834, V-B:ILE:538:CG1:9836"]

$$$$
4ae_Grossjean_2025
     RDKit          3D

 22 24  0  0  0  0  0  0  0  0999 V2000
  129.7870  124.9360   67.1540 C   0  0  0  0  0  0  0  0  0  0  0  0
  130.4970  124.8630   65.8170 C   0  0  0  0  0  0  0  0  0  0  0  0
  131.8630  125.1330   65.6980 C   0  0  0  0  0  0  0  0  0  0  0  0
  132.4470  125.0540   64.4330 C   0  0  0  0  0  0  0  0  0  0  0  0
  131.6610  124.7130   63.3300 C   0  0  0  0  0  0  0  0  0  0  0  0
  130.3010  124.4470   63.5210 C   0  0  0  0  0  0  0  0  0  0  0  0
  129.5580  124.1300   62.3700 N   0  0  0  0  0  0  0  0  0  0  0  0
  128.3780  123.4680   62.2790 C   0  0  0  0  0  0  0  0  0  0  0  0
  127.7640  123.0230   63.2500 O   0  0  0  0  0  0  0  0  0  0  0  0
  127.8560  123.3000   60.9210 C   0  0  0  0  0  0  0  0  0  0  0  0
  128.8340  122.5090   59.6830 S   0  0  0  0  0  0  0  0  0  0  0  0
  127.5900  122.7490   58.4780 C   0  0  0  0  0  0  0  0  0  0  0  0
  127.7390  122.3390   57.2190 N   0  0  0  0  0  0  0  0  0  0  0  0
  126.7030  122.5910   56.3840 C   0  0  0  0  0  0  0  0  0  0  0  0
  126.8960  122.1220   54.9530 C   0  0  0  0  0  0  0  0  0  0  0  0
  125.5310  123.2370   56.7750 C   0  0  0  0  0  0  0  0  0  0  0  0
  125.3780  123.6660   58.0990 C   0  0  0  0  0  0  0  0  0  0  0  0
  124.0830  124.3690   58.4770 C   0  0  0  0  0  0  0  0  0  0  0  0
  126.4450  123.4200   59.0040 C   0  0  0  0  0  0  0  0  0  0  0  0
  126.6220  123.7210   60.4000 C   0  0  0  0  0  0  0  0  0  0  0  0
  125.6610  124.3630   61.1390 N   0  0  0  0  0  0  0  0  0  0  0  0
  129.7210  124.5290   64.7540 N   0  0  0  0  0  0  0  0  0  0  0  0
  1  2  1  0
  2  3  2  0
  3  4  1  0
  4  5  2  0
  5  6  1  0
  6  7  1  0
  7  8  1  0
  8  9  2  0
  8 10  1  0
 10 11  1  0
 11 12  1  0
 12 13  2  0
 13 14  1  0
 14 15  1  0
 14 16  2  0
 16 17  1  0
 17 18  1  0
 17 19  2  0
 19 20  1  0
 20 21  1  0
  6 22  2  0
 22  2  1  0
 20 10  2  0
 19 12  1  0
M  END
>  <Binding energies>  (41) 
[-7.52]

>  <Ligand effiencies>  (41) 
[-0.30079999999999996]

>  <Interactions>  (41) 
["V-A:HIS:456:CE1:4070, V-B:GLU:543:CB:9878, V-B:TYR:539:CE2:9848, V-B:LEU:363:CA:8156, V-B:LEU:363:CD1:8160, V-B:MET:535:CE:9807, V-B:ASP:366:CB:8183, V-B:PRO:540:CB:9857, V-B:LEU:363:CB:8158, H-B:ALA:541:N:9863, V-B:ASP:366:CG:8184, V-B:TYR:539:CD2:9846, V-B:TYR:539:CE1:9847, H-B:TYR:539:N:9842, V-B:PRO:540:CA:9855, V-B:GLU:543:CA:9876, V-B:GLU:543:CG:9879, V-B:GLU:543:CD:9880, V-A:TYR:484:CE2:4346, H-B:GLU:543:OE1:9881, V-A:TYR:484:CZ:4347, V-B:PRO:540:N:9856, V-B:TYR:539:CD1:9845, V-B:TYR:539:C:9839, V-B:PRO:540:CD:9859, V-A:ARG:545:CZ:4926, H-B:ASP:366:OD1:8185, V-B:ILE:538:CA:9832, V-B:ILE:538:C:9830, V-B:ILE:538:CG2:9835, V-B:ILE:538:CB:9834, V-B:ILE:538:CG1:9836"]

$$$$
4af_Grossjean_2025
     RDKit          3D

 21 23  0  0  0  0  0  0  0  0999 V2000
  126.9810  122.1150   54.9650 C   0  0  0  0  0  0  0  0  0  0  0  0
  126.7510  122.5850   56.3900 C   0  0  0  0  0  0  0  0  0  0  0  0
  125.5920  123.2750   56.7390 C   0  0  0  0  0  0  0  0  0  0  0  0
  125.4020  123.7010   58.0590 C   0  0  0  0  0  0  0  0  0  0  0  0
  124.1230  124.4520   58.3920 C   0  0  0  0  0  0  0  0  0  0  0  0
  126.4220  123.4060   59.0040 C   0  0  0  0  0  0  0  0  0  0  0  0
  126.5540  123.6890   60.4090 C   0  0  0  0  0  0  0  0  0  0  0  0
  125.5890  124.3650   61.1130 N   0  0  0  0  0  0  0  0  0  0  0  0
  127.7450  123.2120   60.9780 C   0  0  0  0  0  0  0  0  0  0  0  0
  128.2150  123.3480   62.3580 C   0  0  0  0  0  0  0  0  0  0  0  0
  127.5610  122.8810   63.2910 O   0  0  0  0  0  0  0  0  0  0  0  0
  129.3960  123.9950   62.5070 N   0  0  0  0  0  0  0  0  0  0  0  0
  130.0910  124.3300   63.6850 C   0  0  0  0  0  0  0  0  0  0  0  0
  129.7160  123.9560   64.9880 C   0  0  0  0  0  0  0  0  0  0  0  0
  130.4870  124.3720   66.0750 C   0  0  0  0  0  0  0  0  0  0  0  0
  131.6150  125.1570   65.8330 C   0  0  0  0  0  0  0  0  0  0  0  0
  131.9940  125.5370   64.5870 N   0  0  0  0  0  0  0  0  0  0  0  0
  131.2340  125.1260   63.5410 C   0  0  0  0  0  0  0  0  0  0  0  0
  128.7440  122.3940   59.7720 S   0  0  0  0  0  0  0  0  0  0  0  0
  127.5600  122.6930   58.5200 C   0  0  0  0  0  0  0  0  0  0  0  0
  127.7430  122.2850   57.2640 N   0  0  0  0  0  0  0  0  0  0  0  0
  1  2  1  0
  2  3  2  0
  3  4  1  0
  4  5  1  0
  4  6  2  0
  6  7  1  0
  7  8  1  0
  7  9  2  0
  9 10  1  0
 10 11  2  0
 10 12  1  0
 12 13  1  0
 13 14  2  0
 14 15  1  0
 15 16  2  0
 16 17  1  0
 17 18  2  0
  9 19  1  0
 19 20  1  0
 20 21  2  0
 21  2  1  0
 20  6  1  0
 18 13  1  0
M  END
>  <Binding energies>  (42) 
[-7.1]

>  <Ligand effiencies>  (42) 
[-0.29583333333333334]

>  <Interactions>  (42) 
["V-B:GLU:543:CB:9878, V-B:TYR:539:CE2:9848, V-B:LEU:363:CA:8156, V-B:LEU:363:CD1:8160, V-B:MET:535:CE:9807, V-B:ASP:366:CB:8183, V-B:PRO:540:CB:9857, H-B:ALA:541:N:9863, V-B:ASP:366:CG:8184, V-B:TYR:539:CD2:9846, V-B:TYR:539:CE1:9847, H-B:TYR:539:N:9842, V-B:PRO:540:CA:9855, V-B:GLU:543:CG:9879, V-B:GLU:543:CD:9880, V-A:TYR:484:CE2:4346, H-B:GLU:543:OE1:9881, V-A:TYR:484:CZ:4347, H-A:ARG:545:NH2:4928, V-B:PRO:540:N:9856, V-B:TYR:539:CD1:9845, V-B:TYR:539:C:9839, V-B:PRO:540:CD:9859, H-A:ARG:545:NE:4924, H-B:ASP:366:OD1:8185, V-B:ILE:538:CA:9832, V-B:ILE:538:C:9830, V-B:ILE:538:CG2:9835, V-B:ILE:538:CB:9834"]

$$$$
4ag_Grossjean_2025
     RDKit          3D

 22 24  0  0  0  0  0  0  0  0999 V2000
  127.3130  122.1270   54.8740 C   0  0  0  0  0  0  0  0  0  0  0  0
  126.9620  122.5630   56.2850 C   0  0  0  0  0  0  0  0  0  0  0  0
  125.8330  123.3400   56.5350 C   0  0  0  0  0  0  0  0  0  0  0  0
  125.5270  123.7300   57.8440 C   0  0  0  0  0  0  0  0  0  0  0  0
  124.2830  124.5770   58.0670 C   0  0  0  0  0  0  0  0  0  0  0  0
  126.4010  123.3090   58.8820 C   0  0  0  0  0  0  0  0  0  0  0  0
  126.3890  123.5230   60.3040 C   0  0  0  0  0  0  0  0  0  0  0  0
  125.4100  124.2540   60.9290 N   0  0  0  0  0  0  0  0  0  0  0  0
  127.4630  122.9230   60.9780 C   0  0  0  0  0  0  0  0  0  0  0  0
  127.7540  122.9290   62.4110 C   0  0  0  0  0  0  0  0  0  0  0  0
  126.8520  122.8730   63.2500 O   0  0  0  0  0  0  0  0  0  0  0  0
  129.0570  123.0180   62.7530 N   0  0  0  0  0  0  0  0  0  0  0  0
  129.5760  123.0150   64.1200 C   0  0  0  0  0  0  0  0  0  0  0  0
  130.9510  123.6590   64.2610 C   0  0  0  0  0  0  0  0  0  0  0  0
  132.0140  123.2100   63.4730 C   0  0  0  0  0  0  0  0  0  0  0  0
  133.2640  123.8130   63.5820 C   0  0  0  0  0  0  0  0  0  0  0  0
  133.4440  124.8720   64.4700 C   0  0  0  0  0  0  0  0  0  0  0  0
  132.3850  125.3350   65.2470 C   0  0  0  0  0  0  0  0  0  0  0  0
  131.1350  124.7320   65.1380 C   0  0  0  0  0  0  0  0  0  0  0  0
  128.5190  122.0600   59.8590 S   0  0  0  0  0  0  0  0  0  0  0  0
  127.5230  122.5160   58.4960 C   0  0  0  0  0  0  0  0  0  0  0  0
  127.8160  122.1420   57.2490 N   0  0  0  0  0  0  0  0  0  0  0  0
  1  2  1  0
  2  3  2  0
  3  4  1  0
  4  5  1  0
  4  6  2  0
  6  7  1  0
  7  8  1  0
  7  9  2  0
  9 10  1  0
 10 11  2  0
 10 12  1  0
 12 13  1  0
 13 14  1  0
 14 15  2  0
 15 16  1  0
 16 17  2  0
 17 18  1  0
 18 19  2  0
  9 20  1  0
 20 21  1  0
 21 22  2  0
 22  2  1  0
 21  6  1  0
 19 14  1  0
M  END
>  <Binding energies>  (43) 
[-7.72]

>  <Ligand effiencies>  (43) 
[-0.30879999999999996]

>  <Interactions>  (43) 
["V-B:TYR:539:CE2:9848, V-B:LEU:363:CA:8156, V-B:LEU:363:CD1:8160, V-A:LEU:475:CD2:4259, V-B:MET:535:CE:9807, V-B:ASP:366:CB:8183, V-B:PRO:540:CB:9857, H-B:ALA:541:N:9863, V-B:ASP:366:CG:8184, V-B:TYR:539:CD2:9846, V-B:TYR:539:CG:9844, V-B:TYR:539:CE1:9847, H-B:TYR:539:N:9842, V-B:PRO:540:C:9853, V-B:TYR:531:CE2:9765, V-B:PRO:540:CA:9855, V-B:GLU:543:CG:9879, V-B:GLU:543:CD:9880, V-B:ALA:541:CB:9864, H-B:GLU:543:OE1:9881, V-B:ALA:541:CA:9862, V-B:PRO:540:N:9856, V-B:TYR:539:CD1:9845, V-B:TYR:539:C:9839, V-A:ARG:545:CZ:4926, H-B:ASP:366:OD1:8185, V-A:GLY:454:CA:4049, V-B:ILE:538:CA:9832, V-B:ILE:538:C:9830, V-B:ILE:538:CB:9834"]

$$$$
4ah_Grossjean_2025
     RDKit          3D

 28 30  0  0  0  0  0  0  0  0999 V2000
  126.6630  130.6890   61.7140 C   0  0  0  0  0  0  0  0  0  0  0  0
  127.9880  130.4390   62.1690 O   0  0  0  0  0  0  0  0  0  0  0  0
  128.1960  129.5180   63.1800 C   0  0  0  0  0  0  0  0  0  0  0  0
  128.5220  128.1710   62.9590 C   0  0  0  0  0  0  0  0  0  0  0  0
  128.7170  127.2970   64.0300 C   0  0  0  0  0  0  0  0  0  0  0  0
  129.1160  125.8490   63.7700 C   0  0  0  0  0  0  0  0  0  0  0  0
  128.6240  125.3250   62.4960 N   0  0  0  0  0  0  0  0  0  0  0  0
  128.3040  124.0370   62.2520 C   0  0  0  0  0  0  0  0  0  0  0  0
  128.4380  123.1480   63.0940 O   0  0  0  0  0  0  0  0  0  0  0  0
  127.8250  123.7410   60.9020 C   0  0  0  0  0  0  0  0  0  0  0  0
  128.9010  122.9840   59.7260 S   0  0  0  0  0  0  0  0  0  0  0  0
  127.6600  123.0320   58.4940 C   0  0  0  0  0  0  0  0  0  0  0  0
  127.8670  122.5600   57.2640 N   0  0  0  0  0  0  0  0  0  0  0  0
  126.8240  122.6550   56.4060 C   0  0  0  0  0  0  0  0  0  0  0  0
  127.0820  122.1150   55.0110 C   0  0  0  0  0  0  0  0  0  0  0  0
  125.5890  123.2040   56.7450 C   0  0  0  0  0  0  0  0  0  0  0  0
  125.3740  123.7000   58.0360 C   0  0  0  0  0  0  0  0  0  0  0  0
  124.0100  124.2900   58.3590 C   0  0  0  0  0  0  0  0  0  0  0  0
  126.4470  123.6200   58.9650 C   0  0  0  0  0  0  0  0  0  0  0  0
  126.5730  124.0270   60.3380 C   0  0  0  0  0  0  0  0  0  0  0  0
  125.5490  124.6290   61.0230 N   0  0  0  0  0  0  0  0  0  0  0  0
  128.6130  127.7760   65.3360 C   0  0  0  0  0  0  0  0  0  0  0  0
  128.2830  129.1170   65.5880 C   0  0  0  0  0  0  0  0  0  0  0  0
  128.1490  129.6550   66.8550 O   0  0  0  0  0  0  0  0  0  0  0  0
  128.5580  128.8890   67.9840 C   0  0  0  0  0  0  0  0  0  0  0  0
  128.0710  129.9760   64.5000 C   0  0  0  0  0  0  0  0  0  0  0  0
  127.7650  131.2960   64.7320 O   0  0  0  0  0  0  0  0  0  0  0  0
  128.8220  132.1960   64.4300 C   0  0  0  0  0  0  0  0  0  0  0  0
  1  2  1  0
  2  3  1  0
  3  4  2  0
  4  5  1  0
  5  6  1  0
  6  7  1  0
  7  8  1  0
  8  9  2  0
  8 10  1  0
 10 11  1  0
 11 12  1  0
 12 13  2  0
 13 14  1  0
 14 15  1  0
 14 16  2  0
 16 17  1  0
 17 18  1  0
 17 19  2  0
 19 20  1  0
 20 21  1  0
  5 22  2  0
 22 23  1  0
 23 24  1  0
 24 25  1  0
 23 26  2  0
 26 27  1  0
 27 28  1  0
 26  3  1  0
 20 10  2  0
 19 12  1  0
M  END
>  <Binding energies>  (44) 
[-6.61]

>  <Ligand effiencies>  (44) 
[-0.2132258064516129]

>  <Interactions>  (44) 
["V-A:GLU:543:CD:4908, V-A:GLU:543:CB:4906, V-B:HIS:456:CE1:9041, V-B:TYR:539:CE2:9848, V-B:LEU:363:CA:8156, V-B:LEU:363:CD1:8160, V-B:MET:535:CE:9807, V-B:ASP:366:CB:8183, V-B:PRO:540:CB:9857, V-B:LEU:363:CB:8158, V-B:ASP:366:CG:8184, V-B:TYR:539:CD2:9846, V-B:TYR:539:CG:9844, V-B:TYR:539:CE1:9847, V-B:PRO:540:CA:9855, V-B:TYR:484:CE2:9317, V-B:GLU:543:CG:9879, V-B:GLU:543:CD:9880, V-A:GLU:543:CG:4907, H-B:GLU:543:OE1:9881, V-A:ALA:541:CB:4892, V-B:PRO:540:N:9856, V-B:TYR:539:CD1:9845, V-B:TYR:539:C:9839, H-B:TYR:484:OH:9319, H-B:ASP:366:OD1:8185, V-B:ILE:538:CA:9832, V-B:ILE:538:C:9830, V-B:ILE:538:CG2:9835, V-B:ILE:538:CB:9834"]

$$$$
4ai_Grossjean_2025
     RDKit          3D

 20 22  0  0  0  0  0  0  0  0999 V2000
  127.1220  122.1300   54.9090 C   0  0  0  0  0  0  0  0  0  0  0  0
  126.8020  122.6180   56.3110 C   0  0  0  0  0  0  0  0  0  0  0  0
  125.6360  123.3340   56.5710 C   0  0  0  0  0  0  0  0  0  0  0  0
  125.3570  123.7690   57.8720 C   0  0  0  0  0  0  0  0  0  0  0  0
  124.0710  124.5450   58.1070 C   0  0  0  0  0  0  0  0  0  0  0  0
  126.2960  123.4530   58.8920 C   0  0  0  0  0  0  0  0  0  0  0  0
  126.3270  123.7350   60.3020 C   0  0  0  0  0  0  0  0  0  0  0  0
  125.3310  124.4410   60.9290 N   0  0  0  0  0  0  0  0  0  0  0  0
  127.4540  123.2210   60.9620 C   0  0  0  0  0  0  0  0  0  0  0  0
  127.8070  123.3290   62.3790 C   0  0  0  0  0  0  0  0  0  0  0  0
  127.0710  122.8610   63.2490 O   0  0  0  0  0  0  0  0  0  0  0  0
  128.9850  123.9520   62.6380 N   0  0  0  0  0  0  0  0  0  0  0  0
  129.5630  124.1810   63.8790 C   0  0  0  0  0  0  0  0  0  0  0  0
  129.8430  125.4590   64.3660 C   0  0  0  0  0  0  0  0  0  0  0  0
  130.4060  125.2550   65.6050 C   0  0  0  0  0  0  0  0  0  0  0  0
  130.4610  123.9250   65.8530 O   0  0  0  0  0  0  0  0  0  0  0  0
  129.9230  123.2550   64.7530 N   0  0  0  0  0  0  0  0  0  0  0  0
  128.5270  122.3880   59.8360 S   0  0  0  0  0  0  0  0  0  0  0  0
  127.4510  122.7150   58.4950 C   0  0  0  0  0  0  0  0  0  0  0  0
  127.7200  122.3000   57.2560 N   0  0  0  0  0  0  0  0  0  0  0  0
  1  2  1  0
  2  3  2  0
  3  4  1  0
  4  5  1  0
  4  6  2  0
  6  7  1  0
  7  8  1  0
  7  9  2  0
  9 10  1  0
 10 11  2  0
 10 12  1  0
 12 13  1  0
 13 14  1  0
 14 15  2  0
 15 16  1  0
 16 17  1  0
  9 18  1  0
 18 19  1  0
 19 20  2  0
 20  2  1  0
 19  6  1  0
 17 13  2  0
M  END
>  <Binding energies>  (45) 
[-7.1]

>  <Ligand effiencies>  (45) 
[-0.30869565217391304]

>  <Interactions>  (45) 
["V-B:TYR:539:CE2:9848, V-B:LEU:363:CA:8156, V-B:LEU:363:CD1:8160, V-B:MET:535:CE:9807, V-B:ASP:366:CB:8183, V-B:PRO:540:CB:9857, H-B:ALA:541:N:9863, V-B:ASP:366:CG:8184, V-B:TYR:539:CD2:9846, V-B:TYR:539:CG:9844, V-B:TYR:539:CE1:9847, H-B:TYR:539:N:9842, V-B:TYR:531:CE2:9765, V-B:PRO:540:CA:9855, V-B:GLU:543:CG:9879, V-B:GLU:543:CD:9880, H-B:GLU:543:OE1:9881, V-B:PRO:540:N:9856, V-B:TYR:539:CD1:9845, V-B:TYR:539:C:9839, H-A:TYR:484:OH:4348, H-B:ASP:366:OD1:8185, V-B:ILE:538:CA:9832, V-B:ILE:538:C:9830, V-B:ILE:538:CG2:9835, V-B:ILE:538:CB:9834"]

$$$$
4aj_Grossjean_2025
     RDKit          3D

 20 22  0  0  0  0  0  0  0  0999 V2000
  127.0760  122.1210   54.9650 C   0  0  0  0  0  0  0  0  0  0  0  0
  126.7670  122.6030   56.3700 C   0  0  0  0  0  0  0  0  0  0  0  0
  125.5950  123.3040   56.6460 C   0  0  0  0  0  0  0  0  0  0  0  0
  125.3320  123.7440   57.9480 C   0  0  0  0  0  0  0  0  0  0  0  0
  124.0390  124.5060   58.1980 C   0  0  0  0  0  0  0  0  0  0  0  0
  126.2910  123.4500   58.9540 C   0  0  0  0  0  0  0  0  0  0  0  0
  126.3410  123.7450   60.3610 C   0  0  0  0  0  0  0  0  0  0  0  0
  125.3460  124.4400   61.0000 N   0  0  0  0  0  0  0  0  0  0  0  0
  127.4880  123.2550   61.0050 C   0  0  0  0  0  0  0  0  0  0  0  0
  127.8660  123.3810   62.4140 C   0  0  0  0  0  0  0  0  0  0  0  0
  127.3070  122.7030   63.2790 O   0  0  0  0  0  0  0  0  0  0  0  0
  128.8580  124.2670   62.6740 N   0  0  0  0  0  0  0  0  0  0  0  0
  129.4070  124.5650   63.9140 C   0  0  0  0  0  0  0  0  0  0  0  0
  129.6900  125.7510   64.4080 N   0  0  0  0  0  0  0  0  0  0  0  0
  130.1990  125.6620   65.6210 C   0  0  0  0  0  0  0  0  0  0  0  0
  130.3390  124.3760   66.1370 C   0  0  0  0  0  0  0  0  0  0  0  0
  129.7690  123.2310   64.9600 S   0  0  0  0  0  0  0  0  0  0  0  0
  128.5500  122.4220   59.8680 S   0  0  0  0  0  0  0  0  0  0  0  0
  127.4490  122.7230   58.5430 C   0  0  0  0  0  0  0  0  0  0  0  0
  127.7030  122.3030   57.3040 N   0  0  0  0  0  0  0  0  0  0  0  0
  1  2  1  0
  2  3  2  0
  3  4  1  0
  4  5  1  0
  4  6  2  0
  6  7  1  0
  7  8  1  0
  7  9  2  0
  9 10  1  0
 10 11  2  0
 10 12  1  0
 12 13  1  0
 13 14  2  0
 14 15  1  0
 15 16  2  0
 16 17  1  0
  9 18  1  0
 18 19  1  0
 19 20  2  0
 20  2  1  0
 19  6  1  0
 17 13  1  0
M  END
>  <Binding energies>  (46) 
[-7.15]

>  <Ligand effiencies>  (46) 
[-0.31086956521739134]

>  <Interactions>  (46) 
["V-A:GLU:543:CD:4908, V-B:TYR:539:CE2:9848, V-B:LEU:363:CA:8156, V-B:LEU:363:CD1:8160, V-B:MET:535:CE:9807, V-B:ASP:366:CB:8183, V-B:PRO:540:CB:9857, V-B:LEU:363:CB:8158, H-B:ALA:541:N:9863, V-B:ASP:366:CG:8184, V-B:TYR:539:CD2:9846, V-B:TYR:539:CG:9844, V-B:TYR:539:CE1:9847, H-B:TYR:539:N:9842, V-B:TYR:531:CE2:9765, V-B:PRO:540:CA:9855, V-B:GLU:543:CG:9879, V-B:GLU:543:CD:9880, V-A:TYR:484:CE2:4346, H-B:GLU:543:OE1:9881, V-A:TYR:484:CZ:4347, V-B:PRO:540:N:9856, V-B:TYR:539:CD1:9845, V-B:TYR:539:C:9839, H-B:ASP:366:OD1:8185, V-B:ILE:538:CA:9832, V-B:ILE:538:C:9830, V-B:ILE:538:CG2:9835, V-B:ILE:538:CB:9834"]

$$$$
4ak_Grossjean_2025
     RDKit          3D

 25 26  0  0  0  0  0  0  0  0999 V2000
  126.5210  130.7480   58.3240 C   0  0  0  0  0  0  0  0  0  0  0  0
  127.8210  131.3020   58.4530 O   0  0  0  0  0  0  0  0  0  0  0  0
  128.0970  132.3260   57.5060 C   0  0  0  0  0  0  0  0  0  0  0  0
  129.0410  133.3600   58.1310 C   0  0  0  0  0  0  0  0  0  0  0  0
  130.1740  133.5340   57.2900 O   0  0  0  0  0  0  0  0  0  0  0  0
  130.2380  132.6050   56.2160 C   0  0  0  0  0  0  0  0  0  0  0  0
  131.5280  131.7830   56.3320 C   0  0  0  0  0  0  0  0  0  0  0  0
  131.5370  131.0980   57.5770 O   0  0  0  0  0  0  0  0  0  0  0  0
  132.1800  131.8140   58.6230 C   0  0  0  0  0  0  0  0  0  0  0  0
  131.7440  131.2330   59.9800 C   0  0  0  0  0  0  0  0  0  0  0  0
  130.3270  131.4390   60.2790 N   0  0  0  0  0  0  0  0  0  0  0  0
  129.8380  131.9630   61.4210 C   0  0  0  0  0  0  0  0  0  0  0  0
  130.5680  132.3480   62.3370 O   0  0  0  0  0  0  0  0  0  0  0  0
  128.3830  132.0610   61.5130 C   0  0  0  0  0  0  0  0  0  0  0  0
  127.4060  130.6110   61.7450 S   0  0  0  0  0  0  0  0  0  0  0  0
  125.9310  131.5510   61.7570 C   0  0  0  0  0  0  0  0  0  0  0  0
  124.7340  130.9830   61.9050 N   0  0  0  0  0  0  0  0  0  0  0  0
  123.6710  131.8240   61.8940 C   0  0  0  0  0  0  0  0  0  0  0  0
  122.3170  131.1580   62.0650 C   0  0  0  0  0  0  0  0  0  0  0  0
  123.7760  133.2050   61.7420 C   0  0  0  0  0  0  0  0  0  0  0  0
  125.0350  133.7980   61.5880 C   0  0  0  0  0  0  0  0  0  0  0  0
  125.0990  135.3090   61.4210 C   0  0  0  0  0  0  0  0  0  0  0  0
  126.1730  132.9480   61.5920 C   0  0  0  0  0  0  0  0  0  0  0  0
  127.5810  133.2120   61.4610 C   0  0  0  0  0  0  0  0  0  0  0  0
  128.0770  134.4810   61.2980 N   0  0  0  0  0  0  0  0  0  0  0  0
  1  2  1  0
  2  3  1  0
  3  4  1  0
  4  5  1  0
  5  6  1  0
  6  7  1  0
  7  8  1  0
  8  9  1  0
  9 10  1  0
 10 11  1  0
 11 12  1  0
 12 13  2  0
 12 14  1  0
 14 15  1  0
 15 16  1  0
 16 17  2  0
 17 18  1  0
 18 19  1  0
 18 20  2  0
 20 21  1  0
 21 22  1  0
 21 23  2  0
 23 24  1  0
 24 25  1  0
 24 14  2  0
 23 16  1  0
M  END
>  <Binding energies>  (47) 
[-5.21]

>  <Ligand effiencies>  (47) 
[-0.18607142857142858]

>  <Interactions>  (47) 
["V-A:TYR:539:CD1:4873, V-A:LEU:363:CD1:3189, V-A:ILE:538:CG2:4863, V-A:ILE:538:CB:4862, V-B:LEU:475:CD2:9230, V-A:PRO:540:CA:4883, V-B:ILE:369:CG2:8208, V-A:PRO:540:CB:4885, V-B:ILE:369:CG1:8209, V-A:TYR:539:CE1:4875, H-A:TYR:531:OH:4795, V-A:TYR:539:C:4867, H-A:TYR:539:N:4870, V-B:ILE:369:CB:8207, V-A:PRO:540:N:4884, V-A:MET:535:CE:4835, V-A:PRO:540:C:4881, H-A:ALA:541:N:4891, H-A:TYR:539:O:4868, V-A:ILE:538:CA:4860, V-A:TYR:539:CZ:4877, V-A:TYR:539:CG:4872, V-B:GLY:453:C:9013, V-A:TYR:539:CA:4869, V-B:GLY:453:CA:9015"]

$$$$
4al_Grossjean_2025
     RDKit          3D

 16 17  0  0  0  0  0  0  0  0999 V2000
  132.9140  131.2180   62.8510 C   0  0  0  0  0  0  0  0  0  0  0  0
  131.9540  132.2180   62.5410 O   0  0  0  0  0  0  0  0  0  0  0  0
  130.7000  131.8800   62.1430 C   0  0  0  0  0  0  0  0  0  0  0  0
  129.8170  131.4840   62.9080 O   0  0  0  0  0  0  0  0  0  0  0  0
  130.4950  132.0370   60.6870 C   0  0  0  0  0  0  0  0  0  0  0  0
  129.1210  132.9660   60.0840 S   0  0  0  0  0  0  0  0  0  0  0  0
  129.5950  132.6700   58.4270 C   0  0  0  0  0  0  0  0  0  0  0  0
  128.8970  133.1510   57.3980 N   0  0  0  0  0  0  0  0  0  0  0  0
  129.3710  132.8500   56.1630 C   0  0  0  0  0  0  0  0  0  0  0  0
  128.5630  133.4070   55.0070 C   0  0  0  0  0  0  0  0  0  0  0  0
  130.5150  132.0870   55.9380 C   0  0  0  0  0  0  0  0  0  0  0  0
  131.2450  131.5830   57.0200 C   0  0  0  0  0  0  0  0  0  0  0  0
  132.4860  130.7560   56.7250 C   0  0  0  0  0  0  0  0  0  0  0  0
  130.7780  131.8790   58.3290 C   0  0  0  0  0  0  0  0  0  0  0  0
  131.2690  131.5320   59.6340 C   0  0  0  0  0  0  0  0  0  0  0  0
  132.3960  130.7750   59.8220 N   0  0  0  0  0  0  0  0  0  0  0  0
  1  2  1  0
  2  3  1  0
  3  4  2  0
  3  5  1  0
  5  6  1  0
  6  7  1  0
  7  8  2  0
  8  9  1  0
  9 10  1  0
  9 11  2  0
 11 12  1  0
 12 13  1  0
 12 14  2  0
 14 15  1  0
 15 16  1  0
 15  5  2  0
 14  7  1  0
M  END
>  <Binding energies>  (48) 
[-5.97]

>  <Ligand effiencies>  (48) 
[-0.33166666666666667]

>  <Interactions>  (48) 
["V-A:GLU:543:CD:4908, V-A:GLU:543:CG:4907, V-A:LEU:363:CD1:3189, V-A:TYR:531:CE2:4793, V-A:ILE:538:CG2:4863, V-A:ILE:538:CB:4862, V-A:TYR:531:CZ:4794, V-A:PRO:540:CA:4883, V-A:PRO:540:CB:4885, H-A:ASP:366:OD2:3215, V-A:TYR:539:C:4867, H-A:TYR:539:N:4870, V-A:PRO:540:N:4884, V-A:MET:535:CE:4835, V-A:ASP:366:CG:3213, H-A:ALA:541:N:4891, V-A:ILE:538:CA:4860, V-A:TYR:539:CZ:4877, V-A:TYR:539:CG:4872, V-A:TYR:539:CE2:4876, V-A:ILE:538:C:4858, V-A:ASN:362:CB:3176, V-A:TYR:539:CD2:4874, V-A:VAL:537:C:4850"]

$$$$
4bc_Grossjean_2025
     RDKit          3D

 26 28  0  0  0  0  0  0  0  0999 V2000
  129.9820  127.0340   68.2960 C   0  0  0  0  0  0  0  0  0  0  0  0
  130.7130  125.9670   67.7010 O   0  0  0  0  0  0  0  0  0  0  0  0
  130.2820  125.4460   66.4960 C   0  0  0  0  0  0  0  0  0  0  0  0
  129.7460  126.3520   65.5820 C   0  0  0  0  0  0  0  0  0  0  0  0
  129.2850  125.9190   64.3410 C   0  0  0  0  0  0  0  0  0  0  0  0
  129.3640  124.5700   63.9940 C   0  0  0  0  0  0  0  0  0  0  0  0
  128.8600  124.2240   62.7260 N   0  0  0  0  0  0  0  0  0  0  0  0
  127.9490  123.2770   62.3950 C   0  0  0  0  0  0  0  0  0  0  0  0
  127.4250  122.5130   63.2070 O   0  0  0  0  0  0  0  0  0  0  0  0
  127.6110  123.1990   60.9710 C   0  0  0  0  0  0  0  0  0  0  0  0
  128.6310  122.2790   59.8670 S   0  0  0  0  0  0  0  0  0  0  0  0
  127.6050  122.6810   58.5100 C   0  0  0  0  0  0  0  0  0  0  0  0
  127.8710  122.2390   57.2820 N   0  0  0  0  0  0  0  0  0  0  0  0
  127.0050  122.6180   56.3130 C   0  0  0  0  0  0  0  0  0  0  0  0
  127.3230  122.0990   54.9230 C   0  0  0  0  0  0  0  0  0  0  0  0
  125.8910  123.4220   56.5420 C   0  0  0  0  0  0  0  0  0  0  0  0
  125.6060  123.8910   57.8340 C   0  0  0  0  0  0  0  0  0  0  0  0
  124.3700  124.7750   58.0350 C   0  0  0  0  0  0  0  0  0  0  0  0
  123.5540  124.7790   56.9780 F   0  0  0  0  0  0  0  0  0  0  0  0
  123.6690  124.3370   59.0800 F   0  0  0  0  0  0  0  0  0  0  0  0
  124.7460  126.0350   58.2530 F   0  0  0  0  0  0  0  0  0  0  0  0
  126.4990  123.5080   58.8790 C   0  0  0  0  0  0  0  0  0  0  0  0
  126.5290  123.7840   60.2950 C   0  0  0  0  0  0  0  0  0  0  0  0
  125.5800  124.5530   60.9190 N   0  0  0  0  0  0  0  0  0  0  0  0
  129.8900  123.6490   64.9130 C   0  0  0  0  0  0  0  0  0  0  0  0
  130.3490  124.0850   66.1530 C   0  0  0  0  0  0  0  0  0  0  0  0
  1  2  1  0
  2  3  1  0
  3  4  2  0
  4  5  1  0
  5  6  2  0
  6  7  1  0
  7  8  1  0
  8  9  2  0
  8 10  1  0
 10 11  1  0
 11 12  1  0
 12 13  2  0
 13 14  1  0
 14 15  1  0
 14 16  2  0
 16 17  1  0
 17 18  1  0
 18 19  1  0
 18 20  1  0
 18 21  1  0
 17 22  2  0
 22 23  1  0
 23 24  1  0
  6 25  1  0
 25 26  2  0
 26  3  1  0
 23 10  2  0
 22 12  1  0
M  END
>  <Binding energies>  (49) 
[-6.56]

>  <Ligand effiencies>  (49) 
[-0.22620689655172413]

>  <Interactions>  (49) 
["V-A:GLU:543:CD:4908, V-A:HIS:456:CE1:4070, V-A:GLU:543:CB:4906, V-B:GLU:543:CB:9878, V-B:TYR:539:CE2:9848, V-B:LEU:363:CA:8156, V-B:LEU:363:CD1:8160, V-B:ASN:362:C:8143, V-B:MET:535:CE:9807, V-B:ASP:366:CB:8183, V-B:PRO:540:CB:9857, V-B:LEU:363:CB:8158, H-B:ALA:541:N:9863, V-B:ASP:366:CG:8184, V-B:TYR:539:CZ:9849, V-B:TYR:539:CD2:9846, V-B:TYR:539:CG:9844, V-B:TYR:539:CE1:9847, H-B:TYR:539:N:9842, V-B:TYR:531:CE2:9765, V-B:PRO:540:CA:9855, V-B:GLU:543:CG:9879, V-B:GLU:543:CD:9880, V-A:TYR:484:CE2:4346, V-B:ALA:541:CB:9864, H-B:GLU:543:OE1:9881, V-A:TYR:484:CZ:4347, V-B:PRO:540:N:9856, V-B:TYR:539:CD1:9845, V-B:TYR:539:C:9839, V-B:TYR:531:CZ:9766, H-B:ASP:366:OD1:8185, V-B:ILE:538:CA:9832, V-B:ILE:538:C:9830, V-B:ILE:538:CB:9834, V-B:LEU:363:CG:8159, V-B:TYR:531:CD2:9763"]

$$$$
4bf_Grossjean_2025
     RDKit          3D

 24 26  0  0  0  0  0  0  0  0999 V2000
  127.1330  122.1070   54.9270 C   0  0  0  0  0  0  0  0  0  0  0  0
  126.9130  122.6360   56.3340 C   0  0  0  0  0  0  0  0  0  0  0  0
  125.8110  123.4310   56.6370 C   0  0  0  0  0  0  0  0  0  0  0  0
  125.6220  123.9150   57.9400 C   0  0  0  0  0  0  0  0  0  0  0  0
  124.3950  124.7890   58.2260 C   0  0  0  0  0  0  0  0  0  0  0  0
  123.4880  124.7520   57.2460 F   0  0  0  0  0  0  0  0  0  0  0  0
  123.7950  124.3730   59.3410 F   0  0  0  0  0  0  0  0  0  0  0  0
  124.7710  126.0600   58.3740 F   0  0  0  0  0  0  0  0  0  0  0  0
  126.5980  123.5580   58.9180 C   0  0  0  0  0  0  0  0  0  0  0  0
  126.7380  123.8610   60.3210 C   0  0  0  0  0  0  0  0  0  0  0  0
  125.8320  124.6310   61.0050 N   0  0  0  0  0  0  0  0  0  0  0  0
  127.8750  123.2950   60.9200 C   0  0  0  0  0  0  0  0  0  0  0  0
  128.3380  123.4230   62.3050 C   0  0  0  0  0  0  0  0  0  0  0  0
  127.7470  122.8470   63.2190 O   0  0  0  0  0  0  0  0  0  0  0  0
  129.4410  124.1920   62.4800 N   0  0  0  0  0  0  0  0  0  0  0  0
  130.1020  124.5520   63.6700 C   0  0  0  0  0  0  0  0  0  0  0  0
  129.5090  125.1980   64.7680 C   0  0  0  0  0  0  0  0  0  0  0  0
  130.2850  125.5150   65.8860 C   0  0  0  0  0  0  0  0  0  0  0  0
  131.6400  125.1810   65.8740 C   0  0  0  0  0  0  0  0  0  0  0  0
  132.2370  124.5650   64.8250 N   0  0  0  0  0  0  0  0  0  0  0  0
  131.4700  124.2640   63.7450 C   0  0  0  0  0  0  0  0  0  0  0  0
  128.8150  122.3690   59.7530 S   0  0  0  0  0  0  0  0  0  0  0  0
  127.6810  122.7370   58.4750 C   0  0  0  0  0  0  0  0  0  0  0  0
  127.8550  122.2790   57.2370 N   0  0  0  0  0  0  0  0  0  0  0  0
  1  2  1  0
  2  3  2  0
  3  4  1  0
  4  5  1  0
  5  6  1  0
  5  7  1  0
  5  8  1  0
  4  9  2  0
  9 10  1  0
 10 11  1  0
 10 12  2  0
 12 13  1  0
 13 14  2  0
 13 15  1  0
 15 16  1  0
 16 17  2  0
 17 18  1  0
 18 19  2  0
 19 20  1  0
 20 21  2  0
 12 22  1  0
 22 23  1  0
 23 24  2  0
 24  2  1  0
 23  9  1  0
 21 16  1  0
M  END
>  <Binding energies>  (50) 
[-6.47]

>  <Ligand effiencies>  (50) 
[-0.2396296296296296]

>  <Interactions>  (50) 
["V-B:GLU:543:CB:9878, V-B:TYR:539:CE2:9848, V-B:LEU:363:CA:8156, V-B:LEU:363:CD1:8160, V-B:ASN:362:C:8143, V-B:MET:535:CE:9807, V-B:ASP:366:CB:8183, V-B:PRO:540:CB:9857, V-B:LEU:363:CB:8158, H-B:ALA:541:N:9863, V-B:ASP:366:CG:8184, V-B:TYR:539:CD2:9846, V-B:TYR:539:CG:9844, V-B:TYR:539:CE1:9847, H-B:TYR:539:N:9842, V-B:TYR:531:CE2:9765, V-B:PRO:540:CA:9855, V-B:GLU:543:CG:9879, V-B:GLU:543:CD:9880, H-B:GLU:543:OE1:9881, V-A:TYR:484:CZ:4347, V-B:PRO:540:N:9856, V-B:TYR:539:CD1:9845, V-B:TYR:539:C:9839, V-B:TYR:531:CZ:9766, H-A:TYR:484:OH:4348, H-B:ASP:366:OD1:8185, V-B:ILE:538:CA:9832, V-B:ILE:538:C:9830, V-B:ILE:538:CG2:9835, V-B:ILE:538:CB:9834, V-B:LEU:363:CG:8159, V-B:TYR:531:CD2:9763"]

$$$$
4bh_Grossjean_2025
     RDKit          3D

 31 33  0  0  0  0  0  0  0  0999 V2000
  127.0960  128.5600   63.4460 C   0  0  0  0  0  0  0  0  0  0  0  0
  128.4420  128.4780   63.9020 O   0  0  0  0  0  0  0  0  0  0  0  0
  128.8710  127.3330   64.5480 C   0  0  0  0  0  0  0  0  0  0  0  0
  129.2340  126.1490   63.8860 C   0  0  0  0  0  0  0  0  0  0  0  0
  129.6570  125.0290   64.6030 C   0  0  0  0  0  0  0  0  0  0  0  0
  130.0900  123.7680   63.8650 C   0  0  0  0  0  0  0  0  0  0  0  0
  129.4590  123.6120   62.5540 N   0  0  0  0  0  0  0  0  0  0  0  0
  128.1980  123.1830   62.3390 C   0  0  0  0  0  0  0  0  0  0  0  0
  127.4520  122.8350   63.2550 O   0  0  0  0  0  0  0  0  0  0  0  0
  127.7740  123.1100   60.9400 C   0  0  0  0  0  0  0  0  0  0  0  0
  128.7300  122.1980   59.7760 S   0  0  0  0  0  0  0  0  0  0  0  0
  127.6450  122.6370   58.4770 C   0  0  0  0  0  0  0  0  0  0  0  0
  127.8450  122.2110   57.2310 N   0  0  0  0  0  0  0  0  0  0  0  0
  126.9360  122.6140   56.3130 C   0  0  0  0  0  0  0  0  0  0  0  0
  127.1840  122.1200   54.8990 C   0  0  0  0  0  0  0  0  0  0  0  0
  125.8430  123.4230   56.6080 C   0  0  0  0  0  0  0  0  0  0  0  0
  125.6280  123.8770   57.9190 C   0  0  0  0  0  0  0  0  0  0  0  0
  124.4090  124.7630   58.1970 C   0  0  0  0  0  0  0  0  0  0  0  0
  123.5150  124.7500   57.2050 F   0  0  0  0  0  0  0  0  0  0  0  0
  123.7870  124.3430   59.2980 F   0  0  0  0  0  0  0  0  0  0  0  0
  124.8000  126.0260   58.3670 F   0  0  0  0  0  0  0  0  0  0  0  0
  126.5690  123.4720   58.9120 C   0  0  0  0  0  0  0  0  0  0  0  0
  126.6790  123.7360   60.3250 C   0  0  0  0  0  0  0  0  0  0  0  0
  125.7860  124.5230   61.0060 N   0  0  0  0  0  0  0  0  0  0  0  0
  129.7470  125.0970   65.9940 C   0  0  0  0  0  0  0  0  0  0  0  0
  129.3830  126.2650   66.6830 C   0  0  0  0  0  0  0  0  0  0  0  0
  129.4340  126.3980   68.0590 O   0  0  0  0  0  0  0  0  0  0  0  0
  130.3330  127.3380   68.6360 C   0  0  0  0  0  0  0  0  0  0  0  0
  128.9410  127.3740   65.9470 C   0  0  0  0  0  0  0  0  0  0  0  0
  128.5990  128.5310   66.6080 O   0  0  0  0  0  0  0  0  0  0  0  0
  127.2580  128.5530   67.0760 C   0  0  0  0  0  0  0  0  0  0  0  0
  1  2  1  0
  2  3  1  0
  3  4  2  0
  4  5  1  0
  5  6  1  0
  6  7  1  0
  7  8  1  0
  8  9  2  0
  8 10  1  0
 10 11  1  0
 11 12  1  0
 12 13  2  0
 13 14  1  0
 14 15  1  0
 14 16  2  0
 16 17  1  0
 17 18  1  0
 18 19  1  0
 18 20  1  0
 18 21  1  0
 17 22  2  0
 22 23  1  0
 23 24  1  0
  5 25  2  0
 25 26  1  0
 26 27  1  0
 27 28  1  0
 26 29  2  0
 29 30  1  0
 30 31  1  0
 29  3  1  0
 23 10  2  0
 22 12  1  0
M  END
>  <Binding energies>  (51) 
[-6.25]

>  <Ligand effiencies>  (51) 
[-0.18382352941176472]

>  <Interactions>  (51) 
["V-A:GLU:543:CD:4908, V-A:HIS:456:CE1:4070, V-A:GLU:543:CB:4906, V-B:HIS:456:CE1:9041, V-B:GLU:543:CB:9878, V-B:TYR:539:CE2:9848, V-B:LEU:363:CA:8156, V-B:LEU:363:CD1:8160, V-B:ASN:362:C:8143, V-B:MET:535:CE:9807, V-B:ASP:366:CB:8183, V-B:PRO:540:CB:9857, V-B:LEU:363:CB:8158, H-B:ALA:541:N:9863, V-B:ASP:366:CG:8184, V-B:TYR:539:CD2:9846, V-B:TYR:539:CG:9844, V-B:TYR:539:CE1:9847, H-B:TYR:539:N:9842, V-B:TYR:531:CE2:9765, V-B:PRO:540:CA:9855, V-B:GLU:543:CG:9879, V-B:GLU:543:CD:9880, V-B:ALA:541:CB:9864, H-B:GLU:543:OE1:9881, V-B:PRO:540:N:9856, V-B:TYR:539:CD1:9845, V-B:TYR:539:C:9839, V-B:TYR:531:CZ:9766, H-B:ASP:366:OD1:8185, V-B:ILE:538:CA:9832, V-B:ILE:538:C:9830, V-B:ILE:538:CG2:9835, V-B:ILE:538:CB:9834, V-B:LEU:363:CG:8159, V-B:TYR:531:CD2:9763"]

$$$$
4bi_Grossjean_2025
     RDKit          3D

 23 25  0  0  0  0  0  0  0  0999 V2000
  133.4630  130.8360   62.5360 C   0  0  0  0  0  0  0  0  0  0  0  0
  132.3030  131.3550   61.7060 C   0  0  0  0  0  0  0  0  0  0  0  0
  132.3210  131.2700   60.3160 C   0  0  0  0  0  0  0  0  0  0  0  0
  131.2380  131.7500   59.5610 C   0  0  0  0  0  0  0  0  0  0  0  0
  131.3000  131.6280   58.0350 C   0  0  0  0  0  0  0  0  0  0  0  0
  132.4370  131.0790   57.6000 F   0  0  0  0  0  0  0  0  0  0  0  0
  130.2980  130.8640   57.6010 F   0  0  0  0  0  0  0  0  0  0  0  0
  131.2040  132.8370   57.4800 F   0  0  0  0  0  0  0  0  0  0  0  0
  130.1450  132.3200   60.2780 C   0  0  0  0  0  0  0  0  0  0  0  0
  128.8950  132.9050   59.8580 C   0  0  0  0  0  0  0  0  0  0  0  0
  128.5350  133.0180   58.5390 N   0  0  0  0  0  0  0  0  0  0  0  0
  128.0800  133.3400   60.9160 C   0  0  0  0  0  0  0  0  0  0  0  0
  126.7660  133.9850   60.8520 C   0  0  0  0  0  0  0  0  0  0  0  0
  125.7440  133.3170   60.6850 O   0  0  0  0  0  0  0  0  0  0  0  0
  126.7700  135.3330   61.0070 N   0  0  0  0  0  0  0  0  0  0  0  0
  125.6760  136.1890   61.0010 C   0  0  0  0  0  0  0  0  0  0  0  0
  124.4050  135.7960   60.5870 C   0  0  0  0  0  0  0  0  0  0  0  0
  123.6190  136.9170   60.7310 C   0  0  0  0  0  0  0  0  0  0  0  0
  124.3780  137.9310   61.2090 O   0  0  0  0  0  0  0  0  0  0  0  0
  125.6810  137.4570   61.3760 N   0  0  0  0  0  0  0  0  0  0  0  0
  128.8550  133.0590   62.4740 S   0  0  0  0  0  0  0  0  0  0  0  0
  130.2520  132.3460   61.7020 C   0  0  0  0  0  0  0  0  0  0  0  0
  131.2810  131.8870   62.4140 N   0  0  0  0  0  0  0  0  0  0  0  0
  1  2  1  0
  2  3  2  0
  3  4  1  0
  4  5  1  0
  5  6  1  0
  5  7  1  0
  5  8  1  0
  4  9  2  0
  9 10  1  0
 10 11  1  0
 10 12  2  0
 12 13  1  0
 13 14  2  0
 13 15  1  0
 15 16  1  0
 16 17  1  0
 17 18  2  0
 18 19  1  0
 19 20  1  0
 12 21  1  0
 21 22  1  0
 22 23  2  0
 23  2  1  0
 22  9  1  0
 20 16  2  0
M  END
>  <Binding energies>  (52) 
[-6.72]

>  <Ligand effiencies>  (52) 
[-0.25846153846153846]

>  <Interactions>  (52) 
["V-A:GLU:543:CD:4908, V-A:TYR:539:CD1:4873, V-A:LEU:363:CD1:3189, V-A:TYR:531:CE2:4793, V-B:LEU:475:CD2:9230, V-A:ALA:541:CB:4892, V-A:PRO:540:CA:4883, V-B:ILE:369:CG2:8208, V-A:PRO:540:CB:4885, V-A:TYR:539:CE1:4875, V-A:TYR:539:C:4867, V-A:ALA:541:CA:4890, V-A:PRO:540:N:4884, V-A:ASP:366:CG:3213, V-A:PRO:540:C:4881, V-A:ARG:545:CZ:4926, H-A:ALA:541:N:4891, H-A:TYR:539:O:4868, V-A:PRO:540:CD:4887, V-A:TYR:539:CG:4872, V-B:SER:385:CA:8378, V-B:HIS:383:CD2:8363, V-B:SER:385:CB:8380, V-B:LEU:373:CD1:8251, V-A:ASN:362:CB:3176, V-A:ASN:362:CG:3177, V-A:ASN:362:C:3172, H-B:HIS:383:NE2:8365, V-B:VAL:384:C:8368"]

$$$$
4bj_Grossjean_2025
     RDKit          3D

 23 25  0  0  0  0  0  0  0  0999 V2000
  133.5110  130.8360   62.5190 C   0  0  0  0  0  0  0  0  0  0  0  0
  132.3330  131.3330   61.7010 C   0  0  0  0  0  0  0  0  0  0  0  0
  132.3320  131.2350   60.3120 C   0  0  0  0  0  0  0  0  0  0  0  0
  131.2380  131.7040   59.5680 C   0  0  0  0  0  0  0  0  0  0  0  0
  131.2830  131.5780   58.0410 C   0  0  0  0  0  0  0  0  0  0  0  0
  132.4070  131.0100   57.5970 F   0  0  0  0  0  0  0  0  0  0  0  0
  130.2640  130.8300   57.6200 F   0  0  0  0  0  0  0  0  0  0  0  0
  131.2010  132.7880   57.4870 F   0  0  0  0  0  0  0  0  0  0  0  0
  130.1490  132.2710   60.2950 C   0  0  0  0  0  0  0  0  0  0  0  0
  128.8900  132.8460   59.8870 C   0  0  0  0  0  0  0  0  0  0  0  0
  128.5120  132.9470   58.5720 N   0  0  0  0  0  0  0  0  0  0  0  0
  128.0880  133.2840   60.9530 C   0  0  0  0  0  0  0  0  0  0  0  0
  126.7690  133.9190   60.9020 C   0  0  0  0  0  0  0  0  0  0  0  0
  125.7450  133.2400   60.7910 O   0  0  0  0  0  0  0  0  0  0  0  0
  126.7680  135.2710   60.9990 N   0  0  0  0  0  0  0  0  0  0  0  0
  125.6610  136.1080   60.9890 C   0  0  0  0  0  0  0  0  0  0  0  0
  125.6120  137.3880   61.2880 N   0  0  0  0  0  0  0  0  0  0  0  0
  124.3910  137.8680   61.1640 C   0  0  0  0  0  0  0  0  0  0  0  0
  123.4130  136.9670   60.7560 C   0  0  0  0  0  0  0  0  0  0  0  0
  124.1430  135.4060   60.5280 S   0  0  0  0  0  0  0  0  0  0  0  0
  128.8830  133.0170   62.5030 S   0  0  0  0  0  0  0  0  0  0  0  0
  130.2740  132.3070   61.7180 C   0  0  0  0  0  0  0  0  0  0  0  0
  131.3160  131.8630   62.4200 N   0  0  0  0  0  0  0  0  0  0  0  0
  1  2  1  0
  2  3  2  0
  3  4  1  0
  4  5  1  0
  5  6  1  0
  5  7  1  0
  5  8  1  0
  4  9  2  0
  9 10  1  0
 10 11  1  0
 10 12  2  0
 12 13  1  0
 13 14  2  0
 13 15  1  0
 15 16  1  0
 16 17  2  0
 17 18  1  0
 18 19  2  0
 19 20  1  0
 12 21  1  0
 21 22  1  0
 22 23  2  0
 23  2  1  0
 22  9  1  0
 20 16  1  0
M  END
>  <Binding energies>  (53) 
[-6.02]

>  <Ligand effiencies>  (53) 
[-0.23153846153846153]

>  <Interactions>  (53) 
["V-A:GLU:543:CD:4908, V-A:TYR:539:CD1:4873, V-A:LEU:363:CD1:3189, V-A:TYR:531:CE2:4793, V-B:LEU:475:CD2:9230, V-A:ALA:541:CB:4892, V-A:PRO:540:CA:4883, V-B:ILE:369:CG2:8208, V-A:PRO:540:CB:4885, V-A:TYR:539:CE1:4875, V-A:TYR:539:C:4867, V-A:ALA:541:CA:4890, V-A:PRO:540:N:4884, V-A:ASP:366:CG:3213, V-A:PRO:540:C:4881, V-A:ARG:545:CZ:4926, H-A:ALA:541:N:4891, H-A:TYR:539:O:4868, V-A:PRO:540:CD:4887, V-A:TYR:539:CG:4872, V-B:SER:385:CA:8378, V-B:HIS:383:CD2:8363, V-B:SER:385:CB:8380, V-B:LEU:373:CD1:8251, V-A:ASN:362:CB:3176, V-A:ASN:362:CG:3177, V-A:ASN:362:C:3172, H-B:HIS:383:NE2:8365, V-A:ASN:362:CA:3174, V-B:VAL:384:C:8368"]

$$$$
4bk_Grossjean_2025
     RDKit          3D

 28 29  0  0  0  0  0  0  0  0999 V2000
  133.8920  124.0100   58.0560 C   0  0  0  0  0  0  0  0  0  0  0  0
  133.3730  124.9840   58.9480 O   0  0  0  0  0  0  0  0  0  0  0  0
  132.8340  124.4290   60.1410 C   0  0  0  0  0  0  0  0  0  0  0  0
  133.8410  123.4410   60.7450 C   0  0  0  0  0  0  0  0  0  0  0  0
  134.1560  123.8410   62.0720 O   0  0  0  0  0  0  0  0  0  0  0  0
  133.4440  124.9910   62.5090 C   0  0  0  0  0  0  0  0  0  0  0  0
  133.0620  124.8230   63.9860 C   0  0  0  0  0  0  0  0  0  0  0  0
  131.6460  124.8200   64.1070 O   0  0  0  0  0  0  0  0  0  0  0  0
  131.0930  123.5330   64.3530 C   0  0  0  0  0  0  0  0  0  0  0  0
  129.5600  123.6080   64.2450 C   0  0  0  0  0  0  0  0  0  0  0  0
  129.0620  123.5200   62.8720 N   0  0  0  0  0  0  0  0  0  0  0  0
  127.8770  122.9900   62.5050 C   0  0  0  0  0  0  0  0  0  0  0  0
  127.0750  122.5360   63.3230 O   0  0  0  0  0  0  0  0  0  0  0  0
  127.5870  122.9920   61.0700 C   0  0  0  0  0  0  0  0  0  0  0  0
  128.6080  122.0800   59.9620 S   0  0  0  0  0  0  0  0  0  0  0  0
  127.6290  122.5600   58.5960 C   0  0  0  0  0  0  0  0  0  0  0  0
  127.9160  122.1570   57.3590 N   0  0  0  0  0  0  0  0  0  0  0  0
  127.0840  122.5920   56.3840 C   0  0  0  0  0  0  0  0  0  0  0  0
  127.4290  122.1190   54.9830 C   0  0  0  0  0  0  0  0  0  0  0  0
  125.9840  123.4140   56.6150 C   0  0  0  0  0  0  0  0  0  0  0  0
  125.6780  123.8440   57.9150 C   0  0  0  0  0  0  0  0  0  0  0  0
  124.4590  124.7500   58.1190 C   0  0  0  0  0  0  0  0  0  0  0  0
  123.6500  124.7840   57.0580 F   0  0  0  0  0  0  0  0  0  0  0  0
  123.7420  124.3160   59.1550 F   0  0  0  0  0  0  0  0  0  0  0  0
  124.8600  125.9990   58.3540 F   0  0  0  0  0  0  0  0  0  0  0  0
  126.5340  123.4010   58.9670 C   0  0  0  0  0  0  0  0  0  0  0  0
  126.5350  123.6260   60.3920 C   0  0  0  0  0  0  0  0  0  0  0  0
  125.5910  124.3950   61.0230 N   0  0  0  0  0  0  0  0  0  0  0  0
  1  2  1  0
  2  3  1  0
  3  4  1  0
  4  5  1  0
  5  6  1  0
  6  7  1  0
  7  8  1  0
  8  9  1  0
  9 10  1  0
 10 11  1  0
 11 12  1  0
 12 13  2  0
 12 14  1  0
 14 15  1  0
 15 16  1  0
 16 17  2  0
 17 18  1  0
 18 19  1  0
 18 20  2  0
 20 21  1  0
 21 22  1  0
 22 23  1  0
 22 24  1  0
 22 25  1  0
 21 26  2  0
 26 27  1  0
 27 28  1  0
 27 14  2  0
 26 16  1  0
M  END
>  <Binding energies>  (54) 
[-5.47]

>  <Ligand effiencies>  (54) 
[-0.1764516129032258]

>  <Interactions>  (54) 
["V-B:TYR:539:CE2:9848, V-B:LEU:363:CA:8156, V-B:LEU:363:CD1:8160, V-B:ASN:362:C:8143, V-B:MET:535:CE:9807, V-B:ASP:366:CB:8183, V-B:PRO:540:CB:9857, V-B:LEU:363:CB:8158, V-A:ILE:369:CG2:3237, H-B:ALA:541:N:9863, V-B:ASP:366:CG:8184, V-B:TYR:539:CZ:9849, V-B:TYR:539:CD2:9846, V-B:TYR:539:CG:9844, V-B:TYR:539:CE1:9847, H-B:TYR:539:N:9842, V-B:PRO:540:C:9853, V-B:TYR:531:CE2:9765, V-B:PRO:540:CA:9855, V-B:GLU:543:CG:9879, V-B:GLU:543:CD:9880, V-B:ALA:541:CB:9864, H-B:GLU:543:OE1:9881, V-A:ILE:369:CD1:3239, V-B:PRO:540:N:9856, V-B:TYR:539:CD1:9845, V-B:TYR:539:C:9839, V-A:ASP:366:CG:3213, V-A:ARG:545:CZ:4926, H-A:GLY:454:N:4050, V-B:TYR:531:CZ:9766, H-A:TYR:484:OH:4348, H-B:ASP:366:OD1:8185, V-B:ILE:538:CA:9832, V-A:ASP:366:CA:3210, V-A:ASP:366:C:3208, V-B:ILE:538:C:9830, V-A:ILE:369:CB:3236, V-B:LEU:363:CG:8159, V-B:TYR:531:CD2:9763"]

$$$$
4cd_Grossjean_2025
     RDKit          3D

 29 32  0  0  0  0  0  0  0  0999 V2000
  126.0020  127.6360   61.3350 N   0  0  0  0  0  0  0  0  0  0  0  0
  126.1020  128.7120   60.4910 C   0  0  0  0  0  0  0  0  0  0  0  0
  126.4500  128.5970   59.1350 C   0  0  0  0  0  0  0  0  0  0  0  0
  126.7790  127.3870   58.3760 C   0  0  0  0  0  0  0  0  0  0  0  0
  127.7430  127.3690   57.6100 O   0  0  0  0  0  0  0  0  0  0  0  0
  125.9620  126.3270   58.5900 N   0  0  0  0  0  0  0  0  0  0  0  0
  125.9700  125.0530   57.9920 C   0  0  0  0  0  0  0  0  0  0  0  0
  127.2080  124.4070   57.9440 C   0  0  0  0  0  0  0  0  0  0  0  0
  127.3160  123.1380   57.3840 C   0  0  0  0  0  0  0  0  0  0  0  0
  126.1830  122.5090   56.8750 C   0  0  0  0  0  0  0  0  0  0  0  0
  124.9410  123.1350   56.9280 C   0  0  0  0  0  0  0  0  0  0  0  0
  124.8280  124.4060   57.4880 C   0  0  0  0  0  0  0  0  0  0  0  0
  126.4740  130.1740   58.3490 S   0  0  0  0  0  0  0  0  0  0  0  0
  126.0300  130.9740   59.8380 C   0  0  0  0  0  0  0  0  0  0  0  0
  125.8810  132.2950   59.8990 N   0  0  0  0  0  0  0  0  0  0  0  0
  125.5480  132.8270   61.1040 C   0  0  0  0  0  0  0  0  0  0  0  0
  125.3890  134.3190   61.1430 C   0  0  0  0  0  0  0  0  0  0  0  0
  124.1250  134.9120   60.9870 C   0  0  0  0  0  0  0  0  0  0  0  0
  123.9710  136.2950   61.0230 C   0  0  0  0  0  0  0  0  0  0  0  0
  125.0820  137.1080   61.2160 C   0  0  0  0  0  0  0  0  0  0  0  0
  126.3440  136.5480   61.3770 C   0  0  0  0  0  0  0  0  0  0  0  0
  126.4940  135.1650   61.3430 C   0  0  0  0  0  0  0  0  0  0  0  0
  125.3470  132.0300   62.2350 C   0  0  0  0  0  0  0  0  0  0  0  0
  125.4980  130.6340   62.1790 C   0  0  0  0  0  0  0  0  0  0  0  0
  125.2670  129.8200   63.4580 C   0  0  0  0  0  0  0  0  0  0  0  0
  126.1470  128.8280   63.6140 F   0  0  0  0  0  0  0  0  0  0  0  0
  125.3680  130.6140   64.5230 F   0  0  0  0  0  0  0  0  0  0  0  0
  124.0510  129.2730   63.4300 F   0  0  0  0  0  0  0  0  0  0  0  0
  125.8600  130.0670   60.9240 C   0  0  0  0  0  0  0  0  0  0  0  0
  1  2  1  0
  2  3  2  0
  3  4  1  0
  4  5  2  0
  4  6  1  0
  6  7  1  0
  7  8  2  0
  8  9  1  0
  9 10  2  0
 10 11  1  0
 11 12  2  0
  3 13  1  0
 13 14  1  0
 14 15  2  0
 15 16  1  0
 16 17  1  0
 17 18  2  0
 18 19  1  0
 19 20  2  0
 20 21  1  0
 21 22  2  0
 16 23  2  0
 23 24  1  0
 24 25  1  0
 25 26  1  0
 25 27  1  0
 25 28  1  0
 24 29  2  0
 29  2  1  0
 12  7  1  0
 29 14  1  0
 22 17  1  0
M  END
>  <Binding energies>  (55) 
[-7.51]

>  <Ligand effiencies>  (55) 
[-0.2346875]

>  <Interactions>  (55) 
["V-B:LEU:363:CD1:8160, V-B:MET:535:CE:9807, V-B:ASP:366:CB:8183, V-B:PRO:540:CB:9857, V-B:ASP:366:CG:8184, V-B:TYR:531:CE2:9765, V-B:PRO:540:CA:9855, V-B:TYR:484:CZ:9318, V-B:GLU:543:CD:9880, H-B:GLU:543:OE1:9881, V-A:TYR:539:CD1:4873, V-B:LEU:475:CD2:9230, V-B:ILE:369:CG2:8208, H-B:GLU:543:OE2:9882, V-B:PRO:540:N:9856, V-A:TYR:539:CE1:4875, V-B:TYR:539:C:9839, V-B:PRO:540:CD:9859, H-B:TYR:531:OH:9767, H-B:ASP:366:OD1:8185, V-B:ARG:545:CZ:9898, V-B:SER:385:CA:8378, V-B:HIS:383:CD2:8363, V-B:SER:385:CB:8380, H-B:ASP:366:OD2:8186, V-B:LEU:373:CD1:8251"]

$$$$
4cg_Grossjean_2025
     RDKit          3D

 30 33  0  0  0  0  0  0  0  0999 V2000
  128.6950  127.3550   63.6510 N   0  0  0  0  0  0  0  0  0  0  0  0
  129.0730  126.5940   64.7270 C   0  0  0  0  0  0  0  0  0  0  0  0
  129.5500  125.2810   64.6090 C   0  0  0  0  0  0  0  0  0  0  0  0
  129.7840  124.5010   63.3940 C   0  0  0  0  0  0  0  0  0  0  0  0
  130.9250  124.2420   63.0070 O   0  0  0  0  0  0  0  0  0  0  0  0
  128.6820  124.1230   62.7120 N   0  0  0  0  0  0  0  0  0  0  0  0
  128.6760  123.3220   61.4890 C   0  0  0  0  0  0  0  0  0  0  0  0
  127.4270  123.5240   60.6380 C   0  0  0  0  0  0  0  0  0  0  0  0
  126.2000  123.7780   61.2570 C   0  0  0  0  0  0  0  0  0  0  0  0
  125.0620  123.9940   60.4820 C   0  0  0  0  0  0  0  0  0  0  0  0
  125.1590  123.9670   59.0930 C   0  0  0  0  0  0  0  0  0  0  0  0
  126.3830  123.7310   58.4710 C   0  0  0  0  0  0  0  0  0  0  0  0
  127.5210  123.5160   59.2440 C   0  0  0  0  0  0  0  0  0  0  0  0
  129.9620  124.6030   66.1820 S   0  0  0  0  0  0  0  0  0  0  0  0
  129.4710  126.0740   66.9890 C   0  0  0  0  0  0  0  0  0  0  0  0
  129.5470  126.1980   68.3110 N   0  0  0  0  0  0  0  0  0  0  0  0
  129.1470  127.3800   68.8500 C   0  0  0  0  0  0  0  0  0  0  0  0
  129.2430  127.4880   70.3450 C   0  0  0  0  0  0  0  0  0  0  0  0
  130.3670  128.0700   70.9560 C   0  0  0  0  0  0  0  0  0  0  0  0
  130.4610  128.1710   72.3400 C   0  0  0  0  0  0  0  0  0  0  0  0
  129.4300  127.6880   73.1400 C   0  0  0  0  0  0  0  0  0  0  0  0
  128.3070  127.1050   72.5630 C   0  0  0  0  0  0  0  0  0  0  0  0
  128.2170  127.0060   71.1770 C   0  0  0  0  0  0  0  0  0  0  0  0
  128.6560  128.4240   68.0580 C   0  0  0  0  0  0  0  0  0  0  0  0
  128.5710  128.3030   66.6620 C   0  0  0  0  0  0  0  0  0  0  0  0
  128.0230  129.4850   65.8540 C   0  0  0  0  0  0  0  0  0  0  0  0
  128.5850  129.6020   64.6490 F   0  0  0  0  0  0  0  0  0  0  0  0
  126.7110  129.3350   65.6710 F   0  0  0  0  0  0  0  0  0  0  0  0
  128.2480  130.6220   66.5100 F   0  0  0  0  0  0  0  0  0  0  0  0
  129.0020  127.0730   66.0860 C   0  0  0  0  0  0  0  0  0  0  0  0
  1  2  1  0
  2  3  2  0
  3  4  1  0
  4  5  2  0
  4  6  1  0
  6  7  1  0
  7  8  1  0
  8  9  2  0
  9 10  1  0
 10 11  2  0
 11 12  1  0
 12 13  2  0
  3 14  1  0
 14 15  1  0
 15 16  2  0
 16 17  1  0
 17 18  1  0
 18 19  2  0
 19 20  1  0
 20 21  2  0
 21 22  1  0
 22 23  2  0
 17 24  2  0
 24 25  1  0
 25 26  1  0
 26 27  1  0
 26 28  1  0
 26 29  1  0
 25 30  2  0
 30  2  1  0
 13  8  1  0
 30 15  1  0
 23 18  1  0
M  END
>  <Binding energies>  (56) 
[-7.58]

>  <Ligand effiencies>  (56) 
[-0.2296969696969697]

>  <Interactions>  (56) 
["V-A:GLU:543:CD:4908, V-A:GLU:543:C:4902, V-A:HIS:456:CE1:4070, V-A:GLU:543:CB:4906, V-B:HIS:456:CE1:9041, V-A:GLY:544:C:4912, V-B:GLU:543:CB:9878, V-B:PRO:540:CB:9857, V-B:PRO:540:CA:9855, V-B:TYR:484:CE2:9317, V-B:TYR:484:CZ:9318, V-B:GLU:543:CG:9879, V-B:GLU:543:CD:9880, V-A:GLU:543:CG:4907, V-A:TYR:484:CE2:4346, V-A:GLU:543:CA:4904, H-B:GLU:543:OE1:9881, V-A:TYR:484:CZ:4347, H-A:GLU:543:OE2:4910, H-A:GLU:543:OE1:4909, H-B:GLU:543:OE2:9882"]

$$$$
4ch_Grossjean_2025
     RDKit          3D

 36 39  0  0  0  0  0  0  0  0999 V2000
  124.3800  123.5500   61.9650 C   0  0  0  0  0  0  0  0  0  0  0  0
  124.6970  123.7580   60.5920 O   0  0  0  0  0  0  0  0  0  0  0  0
  126.0090  123.6370   60.1740 C   0  0  0  0  0  0  0  0  0  0  0  0
  127.1050  123.5450   61.0470 C   0  0  0  0  0  0  0  0  0  0  0  0
  128.4050  123.4230   60.5540 C   0  0  0  0  0  0  0  0  0  0  0  0
  129.5850  123.3530   61.5170 C   0  0  0  0  0  0  0  0  0  0  0  0
  129.4000  124.1190   62.7500 N   0  0  0  0  0  0  0  0  0  0  0  0
  130.3290  124.2900   63.7130 C   0  0  0  0  0  0  0  0  0  0  0  0
  131.4670  123.8230   63.6280 O   0  0  0  0  0  0  0  0  0  0  0  0
  129.9210  125.1010   64.8610 C   0  0  0  0  0  0  0  0  0  0  0  0
  130.1810  124.5060   66.4980 S   0  0  0  0  0  0  0  0  0  0  0  0
  129.5010  125.9630   67.1820 C   0  0  0  0  0  0  0  0  0  0  0  0
  129.4020  126.1320   68.4980 N   0  0  0  0  0  0  0  0  0  0  0  0
  128.8650  127.3000   68.9370 C   0  0  0  0  0  0  0  0  0  0  0  0
  128.7620  127.4570   70.4270 C   0  0  0  0  0  0  0  0  0  0  0  0
  127.6310  126.9990   71.1220 C   0  0  0  0  0  0  0  0  0  0  0  0
  127.5280  127.1420   72.5030 C   0  0  0  0  0  0  0  0  0  0  0  0
  128.5590  127.7490   73.2120 C   0  0  0  0  0  0  0  0  0  0  0  0
  129.6900  128.2160   72.5490 C   0  0  0  0  0  0  0  0  0  0  0  0
  129.7870  128.0720   71.1670 C   0  0  0  0  0  0  0  0  0  0  0  0
  128.4150  128.2850   68.0520 C   0  0  0  0  0  0  0  0  0  0  0  0
  128.5120  128.1170   66.6610 C   0  0  0  0  0  0  0  0  0  0  0  0
  127.9990  129.2350   65.7470 C   0  0  0  0  0  0  0  0  0  0  0  0
  128.6260  129.2790   64.5690 F   0  0  0  0  0  0  0  0  0  0  0  0
  126.7020  129.0580   65.5020 F   0  0  0  0  0  0  0  0  0  0  0  0
  128.1770  130.4170   66.3380 F   0  0  0  0  0  0  0  0  0  0  0  0
  129.0860  126.9000   66.1900 C   0  0  0  0  0  0  0  0  0  0  0  0
  129.3500  126.3830   64.8700 C   0  0  0  0  0  0  0  0  0  0  0  0
  129.0580  127.0810   63.7250 N   0  0  0  0  0  0  0  0  0  0  0  0
  128.6200  123.4100   59.1750 C   0  0  0  0  0  0  0  0  0  0  0  0
  127.5420  123.5020   58.2790 C   0  0  0  0  0  0  0  0  0  0  0  0
  127.6810  123.4930   56.9030 O   0  0  0  0  0  0  0  0  0  0  0  0
  127.0590  122.4620   56.1440 C   0  0  0  0  0  0  0  0  0  0  0  0
  126.2420  123.6090   58.7920 C   0  0  0  0  0  0  0  0  0  0  0  0
  125.1800  123.7150   57.9260 O   0  0  0  0  0  0  0  0  0  0  0  0
  124.5680  124.9970   57.9150 C   0  0  0  0  0  0  0  0  0  0  0  0
  1  2  1  0
  2  3  1  0
  3  4  2  0
  4  5  1  0
  5  6  1  0
  6  7  1  0
  7  8  1  0
  8  9  2  0
  8 10  1  0
 10 11  1  0
 11 12  1  0
 12 13  2  0
 13 14  1  0
 14 15  1  0
 15 16  2  0
 16 17  1  0
 17 18  2  0
 18 19  1  0
 19 20  2  0
 14 21  2  0
 21 22  1  0
 22 23  1  0
 23 24  1  0
 23 25  1  0
 23 26  1  0
 22 27  2  0
 27 28  1  0
 28 29  1  0
  5 30  2  0
 30 31  1  0
 31 32  1  0
 32 33  1  0
 31 34  2  0
 34 35  1  0
 35 36  1  0
 34  3  1  0
 28 10  2  0
 27 12  1  0
 20 15  1  0
M  END
>  <Binding energies>  (57) 
[-7.57]

>  <Ligand effiencies>  (57) 
[-0.1941025641025641]

>  <Interactions>  (57) 
["V-B:GLU:543:C:9874, V-A:GLU:543:CD:4908, V-B:LYS:547:CE:9922, V-A:HIS:456:CE1:4070, V-B:GLY:544:C:9884, V-A:GLU:543:CB:4906, V-B:HIS:456:CE1:9041, V-B:HIS:456:CD2:9039, V-B:GLU:543:CB:9878, V-B:TYR:539:CE2:9848, V-B:LEU:363:CD1:8160, V-B:ASP:366:CB:8183, V-B:PRO:540:CB:9857, V-B:ASP:366:CG:8184, V-B:TYR:539:CD2:9846, V-B:TYR:539:CG:9844, V-B:TYR:539:CE1:9847, V-B:TYR:531:CE2:9765, V-B:PRO:540:CA:9855, V-B:TYR:484:CE2:9317, V-B:TYR:484:CZ:9318, V-B:GLU:543:CG:9879, V-B:GLU:543:CD:9880, V-A:GLU:543:CG:4907, V-A:TYR:484:CE2:4346, V-A:GLU:543:CA:4904, V-B:ASN:362:CB:8147, H-B:GLU:543:OE1:9881, V-A:TYR:484:CZ:4347, H-A:GLU:543:OE2:4910, H-A:GLU:543:OE1:4909, H-B:GLU:543:OE2:9882, V-B:PRO:540:N:9856, V-B:TYR:539:CD1:9845"]

$$$$
4cj_Grossjean_2025
     RDKit          3D

 28 31  0  0  0  0  0  0  0  0999 V2000
  129.0920  127.1760   63.8590 N   0  0  0  0  0  0  0  0  0  0  0  0
  129.4830  126.5190   64.9980 C   0  0  0  0  0  0  0  0  0  0  0  0
  130.2520  125.3440   64.9830 C   0  0  0  0  0  0  0  0  0  0  0  0
  130.7800  124.6130   63.8280 C   0  0  0  0  0  0  0  0  0  0  0  0
  130.3550  124.8360   62.6920 O   0  0  0  0  0  0  0  0  0  0  0  0
  131.7360  123.6930   64.1090 N   0  0  0  0  0  0  0  0  0  0  0  0
  132.3940  122.8710   63.2040 C   0  0  0  0  0  0  0  0  0  0  0  0
  133.6770  122.5800   63.1630 N   0  0  0  0  0  0  0  0  0  0  0  0
  133.9560  121.7630   62.1670 C   0  0  0  0  0  0  0  0  0  0  0  0
  132.8830  121.3720   61.3710 C   0  0  0  0  0  0  0  0  0  0  0  0
  131.4330  122.1210   61.9700 S   0  0  0  0  0  0  0  0  0  0  0  0
  130.5830  124.7790   66.6180 S   0  0  0  0  0  0  0  0  0  0  0  0
  129.6900  126.1130   67.3080 C   0  0  0  0  0  0  0  0  0  0  0  0
  129.5670  126.2600   68.6250 N   0  0  0  0  0  0  0  0  0  0  0  0
  128.8620  127.3310   69.0690 C   0  0  0  0  0  0  0  0  0  0  0  0
  128.7540  127.4740   70.5600 C   0  0  0  0  0  0  0  0  0  0  0  0
  127.6180  127.0140   71.2450 C   0  0  0  0  0  0  0  0  0  0  0  0
  127.5090  127.1490   72.6270 C   0  0  0  0  0  0  0  0  0  0  0  0
  128.5380  127.7500   73.3450 C   0  0  0  0  0  0  0  0  0  0  0  0
  129.6720  128.2160   72.6910 C   0  0  0  0  0  0  0  0  0  0  0  0
  129.7770  128.0780   71.3100 C   0  0  0  0  0  0  0  0  0  0  0  0
  128.2620  128.2370   68.1870 C   0  0  0  0  0  0  0  0  0  0  0  0
  128.3830  128.0910   66.7960 C   0  0  0  0  0  0  0  0  0  0  0  0
  127.7020  129.1220   65.8880 C   0  0  0  0  0  0  0  0  0  0  0  0
  127.3180  128.6140   64.7150 F   0  0  0  0  0  0  0  0  0  0  0  0
  126.6150  129.6040   66.4900 F   0  0  0  0  0  0  0  0  0  0  0  0
  128.5440  130.1240   65.6330 F   0  0  0  0  0  0  0  0  0  0  0  0
  129.1370  126.9810   66.3200 C   0  0  0  0  0  0  0  0  0  0  0  0
  1  2  1  0
  2  3  2  0
  3  4  1  0
  4  5  2  0
  4  6  1  0
  6  7  1  0
  7  8  2  0
  8  9  1  0
  9 10  2  0
 10 11  1  0
  3 12  1  0
 12 13  1  0
 13 14  2  0
 14 15  1  0
 15 16  1  0
 16 17  2  0
 17 18  1  0
 18 19  2  0
 19 20  1  0
 20 21  2  0
 15 22  2  0
 22 23  1  0
 23 24  1  0
 24 25  1  0
 24 26  1  0
 24 27  1  0
 23 28  2  0
 28  2  1  0
 11  7  1  0
 28 13  1  0
 21 16  1  0
M  END
>  <Binding energies>  (58) 
[-6.89]

>  <Ligand effiencies>  (58) 
[-0.22225806451612903]

>  <Interactions>  (58) 
["V-B:GLU:543:C:9874, V-A:GLU:543:CD:4908, V-B:LYS:547:CE:9922, V-A:HIS:456:CE1:4070, V-B:GLY:544:C:9884, V-A:GLU:543:CB:4906, V-B:HIS:456:CE1:9041, V-B:HIS:456:CD2:9039, V-B:GLU:543:CB:9878, V-A:LEU:475:CD2:4259, V-B:TYR:484:CE2:9317, V-B:TYR:484:CZ:9318, V-B:GLU:543:CG:9879, V-B:GLU:543:CD:9880, V-A:GLU:543:CG:4907, V-A:TYR:484:CE2:4346, H-B:GLU:543:OE1:9881, V-A:TYR:484:CZ:4347, V-A:ILE:369:CD1:3239, H-A:GLU:543:OE2:4910, H-A:GLU:543:OE1:4909, H-B:GLU:543:OE2:9882, H-A:GLY:454:N:4050, H-A:TYR:484:OH:4348, V-A:GLY:454:CA:4049, V-A:SER:385:C:3405"]

$$$$
4ck_Grossjean_2025
     RDKit          3D

 33 35  0  0  0  0  0  0  0  0999 V2000
  125.5460  122.1350   55.7370 C   0  0  0  0  0  0  0  0  0  0  0  0
  126.7470  122.0860   56.4920 O   0  0  0  0  0  0  0  0  0  0  0  0
  126.7990  123.0500   57.5340 C   0  0  0  0  0  0  0  0  0  0  0  0
  125.3780  123.5490   57.8260 C   0  0  0  0  0  0  0  0  0  0  0  0
  125.4370  124.5540   58.8290 O   0  0  0  0  0  0  0  0  0  0  0  0
  125.1980  124.0600   60.1410 C   0  0  0  0  0  0  0  0  0  0  0  0
  126.3990  124.4010   61.0320 C   0  0  0  0  0  0  0  0  0  0  0  0
  126.7420  123.2520   61.7960 O   0  0  0  0  0  0  0  0  0  0  0  0
  127.8290  122.5090   61.2600 C   0  0  0  0  0  0  0  0  0  0  0  0
  129.1500  123.2230   61.5840 C   0  0  0  0  0  0  0  0  0  0  0  0
  129.0530  124.0370   62.7960 N   0  0  0  0  0  0  0  0  0  0  0  0
  130.0910  124.4700   63.5420 C   0  0  0  0  0  0  0  0  0  0  0  0
  131.2650  124.2380   63.2470 O   0  0  0  0  0  0  0  0  0  0  0  0
  129.7430  125.2520   64.7290 C   0  0  0  0  0  0  0  0  0  0  0  0
  130.0820  124.6160   66.3370 S   0  0  0  0  0  0  0  0  0  0  0  0
  129.4680  126.0700   67.0880 C   0  0  0  0  0  0  0  0  0  0  0  0
  129.4530  126.2150   68.4100 N   0  0  0  0  0  0  0  0  0  0  0  0
  128.9560  127.3800   68.9030 C   0  0  0  0  0  0  0  0  0  0  0  0
  128.9710  127.5210   70.3980 C   0  0  0  0  0  0  0  0  0  0  0  0
  130.0680  128.0990   71.0550 C   0  0  0  0  0  0  0  0  0  0  0  0
  130.0890  128.2300   72.4420 C   0  0  0  0  0  0  0  0  0  0  0  0
  129.0070  127.7830   73.1930 C   0  0  0  0  0  0  0  0  0  0  0  0
  127.9050  127.2110   72.5670 C   0  0  0  0  0  0  0  0  0  0  0  0
  127.8880  127.0830   71.1800 C   0  0  0  0  0  0  0  0  0  0  0  0
  128.4860  128.3960   68.0640 C   0  0  0  0  0  0  0  0  0  0  0  0
  128.4960  128.2520   66.6680 C   0  0  0  0  0  0  0  0  0  0  0  0
  127.9600  129.4040   65.8080 C   0  0  0  0  0  0  0  0  0  0  0  0
  128.1420  130.6020   66.3650 F   0  0  0  0  0  0  0  0  0  0  0  0
  128.5820  129.4130   64.6290 F   0  0  0  0  0  0  0  0  0  0  0  0
  126.6510  129.2480   65.6130 F   0  0  0  0  0  0  0  0  0  0  0  0
  129.0120  127.0340   66.1410 C   0  0  0  0  0  0  0  0  0  0  0  0
  129.1900  126.5400   64.7960 C   0  0  0  0  0  0  0  0  0  0  0  0
  128.8430  127.2660   63.6860 N   0  0  0  0  0  0  0  0  0  0  0  0
  1  2  1  0
  2  3  1  0
  3  4  1  0
  4  5  1  0
  5  6  1  0
  6  7  1  0
  7  8  1  0
  8  9  1  0
  9 10  1  0
 10 11  1  0
 11 12  1  0
 12 13  2  0
 12 14  1  0
 14 15  1  0
 15 16  1  0
 16 17  2  0
 17 18  1  0
 18 19  1  0
 19 20  2  0
 20 21  1  0
 21 22  2  0
 22 23  1  0
 23 24  2  0
 18 25  2  0
 25 26  1  0
 26 27  1  0
 27 28  1  0
 27 29  1  0
 27 30  1  0
 26 31  2  0
 31 32  1  0
 32 33  1  0
 32 14  2  0
 31 16  1  0
 24 19  1  0
M  END
>  <Binding energies>  (59) 
[-7.14]

>  <Ligand effiencies>  (59) 
[-0.19833333333333333]

>  <Interactions>  (59) 
["V-A:GLU:543:CD:4908, V-A:GLU:543:C:4902, V-B:LYS:547:CE:9922, V-A:HIS:456:CE1:4070, V-B:GLY:544:C:9884, V-A:GLU:543:CB:4906, V-B:HIS:456:CE1:9041, V-A:GLY:544:C:4912, V-B:HIS:456:CD2:9039, V-B:GLU:543:CB:9878, V-B:LEU:363:CD1:8160, V-B:MET:535:CE:9807, V-B:PRO:540:CB:9857, H-B:ALA:541:N:9863, H-B:TYR:539:N:9842, V-B:PRO:540:C:9853, V-B:PRO:540:CA:9855, V-B:TYR:484:CE2:9317, V-B:TYR:484:CZ:9318, V-B:GLU:543:CG:9879, V-B:GLU:543:CD:9880, V-A:GLU:543:CG:4907, V-A:TYR:484:CE2:4346, V-A:GLU:543:CA:4904, H-B:GLU:543:OE1:9881, V-A:TYR:484:CZ:4347, H-A:GLU:543:OE2:4910, H-A:GLU:543:OE1:4909, H-B:GLU:543:OE2:9882, V-B:PRO:540:N:9856, V-B:PRO:540:CD:9859, V-B:ILE:538:CA:9832, V-B:ILE:538:C:9830, V-B:ILE:538:CG2:9835, V-B:ILE:538:CB:9834"]

$$$$
4dd_Grossjean_2025
     RDKit          3D

 26 29  0  0  0  0  0  0  0  0999 V2000
  125.1590  129.5540   63.7570 C   0  0  0  0  0  0  0  0  0  0  0  0
  125.4260  130.3390   62.4820 C   0  0  0  0  0  0  0  0  0  0  0  0
  125.2500  131.7280   62.5120 C   0  0  0  0  0  0  0  0  0  0  0  0
  125.4810  132.5070   61.3720 C   0  0  0  0  0  0  0  0  0  0  0  0
  125.2940  133.9960   61.3740 C   0  0  0  0  0  0  0  0  0  0  0  0
  126.4010  134.8600   61.3570 C   0  0  0  0  0  0  0  0  0  0  0  0
  126.2360  136.2420   61.3560 C   0  0  0  0  0  0  0  0  0  0  0  0
  124.9550  136.7830   61.3740 C   0  0  0  0  0  0  0  0  0  0  0  0
  123.8400  135.9510   61.3890 C   0  0  0  0  0  0  0  0  0  0  0  0
  124.0110  134.5690   61.3880 C   0  0  0  0  0  0  0  0  0  0  0  0
  125.8710  131.9550   60.1910 N   0  0  0  0  0  0  0  0  0  0  0  0
  126.0450  130.6350   60.1620 C   0  0  0  0  0  0  0  0  0  0  0  0
  126.5620  129.7980   58.7160 S   0  0  0  0  0  0  0  0  0  0  0  0
  126.5280  128.2410   59.5480 C   0  0  0  0  0  0  0  0  0  0  0  0
  126.9030  127.0150   58.8410 C   0  0  0  0  0  0  0  0  0  0  0  0
  128.0590  126.8430   58.4520 O   0  0  0  0  0  0  0  0  0  0  0  0
  125.9030  126.1160   58.6670 N   0  0  0  0  0  0  0  0  0  0  0  0
  125.9150  124.8810   57.9940 C   0  0  0  0  0  0  0  0  0  0  0  0
  127.1680  124.4300   57.5670 C   0  0  0  0  0  0  0  0  0  0  0  0
  127.2860  123.2120   56.9030 C   0  0  0  0  0  0  0  0  0  0  0  0
  126.1520  122.4390   56.6720 C   0  0  0  0  0  0  0  0  0  0  0  0
  124.9000  122.8700   57.1030 C   0  0  0  0  0  0  0  0  0  0  0  0
  124.7780  124.0880   57.7670 C   0  0  0  0  0  0  0  0  0  0  0  0
  126.1250  128.3910   60.8840 C   0  0  0  0  0  0  0  0  0  0  0  0
  126.0030  127.3470   61.7670 N   0  0  0  0  0  0  0  0  0  0  0  0
  125.8460  129.7510   61.2610 C   0  0  0  0  0  0  0  0  0  0  0  0
  1  2  1  0
  2  3  2  0
  3  4  1  0
  4  5  1  0
  5  6  2  0
  6  7  1  0
  7  8  2  0
  8  9  1  0
  9 10  2  0
  4 11  2  0
 11 12  1  0
 12 13  1  0
 13 14  1  0
 14 15  1  0
 15 16  2  0
 15 17  1  0
 17 18  1  0
 18 19  2  0
 19 20  1  0
 20 21  2  0
 21 22  1  0
 22 23  2  0
 14 24  2  0
 24 25  1  0
 24 26  1  0
 26  2  1  0
 10  5  1  0
 26 12  2  0
 23 18  1  0
M  END
>  <Binding energies>  (60) 
[-8.11]

>  <Ligand effiencies>  (60) 
[-0.27965517241379306]

>  <Interactions>  (60) 
["V-B:LEU:363:CD1:8160, V-B:MET:535:CE:9807, V-B:ASP:366:CB:8183, V-B:PRO:540:CB:9857, V-B:ASP:366:CG:8184, V-B:TYR:539:CZ:9849, V-B:TYR:539:CE1:9847, V-B:PRO:540:CA:9855, V-B:GLU:543:CD:9880, H-B:GLU:543:OE1:9881, V-A:TYR:539:CD1:4873, V-B:LEU:475:CD2:9230, V-B:ILE:369:CG2:8208, H-B:GLU:543:OE2:9882, V-B:PRO:540:N:9856, V-A:TYR:539:CE1:4875, V-B:TYR:539:C:9839, V-B:PRO:540:CD:9859, H-B:TYR:531:OH:9767, H-B:ASP:366:OD1:8185, V-B:ARG:545:CZ:9898, V-B:SER:385:CA:8378, V-B:SER:385:CB:8380, H-B:ASP:366:OD2:8186, V-B:SER:385:C:8376, V-B:PRO:540:CG:9858"]

$$$$
4dg_Grossjean_2025
     RDKit          3D

 27 30  0  0  0  0  0  0  0  0999 V2000
  127.9710  129.4410   65.9090 C   0  0  0  0  0  0  0  0  0  0  0  0
  128.5430  128.2860   66.7180 C   0  0  0  0  0  0  0  0  0  0  0  0
  128.6210  128.4290   68.1080 C   0  0  0  0  0  0  0  0  0  0  0  0
  129.1380  127.4030   68.9090 C   0  0  0  0  0  0  0  0  0  0  0  0
  129.2330  127.5270   70.4040 C   0  0  0  0  0  0  0  0  0  0  0  0
  130.4000  128.0170   71.0130 C   0  0  0  0  0  0  0  0  0  0  0  0
  130.4950  128.1300   72.3990 C   0  0  0  0  0  0  0  0  0  0  0  0
  129.4210  127.7540   73.1970 C   0  0  0  0  0  0  0  0  0  0  0  0
  128.2540  127.2620   72.6200 C   0  0  0  0  0  0  0  0  0  0  0  0
  128.1640  127.1500   71.2360 C   0  0  0  0  0  0  0  0  0  0  0  0
  129.5650  126.2250   68.3790 N   0  0  0  0  0  0  0  0  0  0  0  0
  129.4920  126.0880   67.0560 C   0  0  0  0  0  0  0  0  0  0  0  0
  130.0130  124.6290   66.2460 S   0  0  0  0  0  0  0  0  0  0  0  0
  129.5790  125.2950   64.6720 C   0  0  0  0  0  0  0  0  0  0  0  0
  129.8230  124.5230   63.4550 C   0  0  0  0  0  0  0  0  0  0  0  0
  130.9670  124.2500   63.0870 O   0  0  0  0  0  0  0  0  0  0  0  0
  128.7270  124.1690   62.7520 N   0  0  0  0  0  0  0  0  0  0  0  0
  128.7290  123.3790   61.5210 C   0  0  0  0  0  0  0  0  0  0  0  0
  127.4720  123.5680   60.6780 C   0  0  0  0  0  0  0  0  0  0  0  0
  126.2460  123.8080   61.3050 C   0  0  0  0  0  0  0  0  0  0  0  0
  125.1020  124.0120   60.5380 C   0  0  0  0  0  0  0  0  0  0  0  0
  125.1900  123.9870   59.1480 C   0  0  0  0  0  0  0  0  0  0  0  0
  126.4120  123.7660   58.5170 C   0  0  0  0  0  0  0  0  0  0  0  0
  127.5570  123.5630   59.2830 C   0  0  0  0  0  0  0  0  0  0  0  0
  129.0690  126.5970   64.7930 C   0  0  0  0  0  0  0  0  0  0  0  0
  128.6650  127.3590   63.7270 N   0  0  0  0  0  0  0  0  0  0  0  0
  128.9980  127.0690   66.1500 C   0  0  0  0  0  0  0  0  0  0  0  0
  1  2  1  0
  2  3  2  0
  3  4  1  0
  4  5  1  0
  5  6  2  0
  6  7  1  0
  7  8  2  0
  8  9  1  0
  9 10  2  0
  4 11  2  0
 11 12  1  0
 12 13  1  0
 13 14  1  0
 14 15  1  0
 15 16  2  0
 15 17  1  0
 17 18  1  0
 18 19  1  0
 19 20  2  0
 20 21  1  0
 21 22  2  0
 22 23  1  0
 23 24  2  0
 14 25  2  0
 25 26  1  0
 25 27  1  0
 27  2  1  0
 10  5  1  0
 27 12  2  0
 24 19  1  0
M  END
>  <Binding energies>  (61) 
[-7.79]

>  <Ligand effiencies>  (61) 
[-0.25966666666666666]

>  <Interactions>  (61) 
["V-A:GLU:543:CD:4908, V-A:GLU:543:C:4902, V-A:HIS:456:CE1:4070, V-A:GLU:543:CB:4906, V-B:HIS:456:CE1:9041, V-A:GLY:544:C:4912, V-B:HIS:456:CD2:9039, V-B:GLU:543:CB:9878, V-B:PRO:540:CB:9857, V-B:PRO:540:CA:9855, V-B:GLU:543:CG:9879, V-B:GLU:543:CD:9880, V-A:GLU:543:CG:4907, V-A:TYR:484:CE2:4346, H-B:GLU:543:OE1:9881, V-A:TYR:484:CZ:4347, H-A:GLU:543:OE2:4910, H-A:GLU:543:OE1:4909, H-B:GLU:543:OE2:9882"]

$$$$
4dj_Grossjean_2025
     RDKit          3D

 25 28  0  0  0  0  0  0  0  0999 V2000
  125.2800  129.4250   63.7650 C   0  0  0  0  0  0  0  0  0  0  0  0
  125.5000  130.2050   62.4780 C   0  0  0  0  0  0  0  0  0  0  0  0
  125.3360  131.5950   62.5130 C   0  0  0  0  0  0  0  0  0  0  0  0
  125.5220  132.3710   61.3620 C   0  0  0  0  0  0  0  0  0  0  0  0
  125.3570  133.8640   61.3710 C   0  0  0  0  0  0  0  0  0  0  0  0
  124.0800  134.4480   61.3850 C   0  0  0  0  0  0  0  0  0  0  0  0
  123.9200  135.8310   61.3920 C   0  0  0  0  0  0  0  0  0  0  0  0
  125.0410  136.6540   61.3820 C   0  0  0  0  0  0  0  0  0  0  0  0
  126.3180  136.1040   61.3640 C   0  0  0  0  0  0  0  0  0  0  0  0
  126.4730  134.7210   61.3570 C   0  0  0  0  0  0  0  0  0  0  0  0
  125.8840  131.8170   60.1730 N   0  0  0  0  0  0  0  0  0  0  0  0
  126.0410  130.4940   60.1380 C   0  0  0  0  0  0  0  0  0  0  0  0
  126.4970  129.6510   58.6750 S   0  0  0  0  0  0  0  0  0  0  0  0
  126.4680  128.0950   59.5060 C   0  0  0  0  0  0  0  0  0  0  0  0
  126.7770  126.8620   58.7800 C   0  0  0  0  0  0  0  0  0  0  0  0
  127.8930  126.6860   58.2830 O   0  0  0  0  0  0  0  0  0  0  0  0
  125.7640  125.9660   58.6940 N   0  0  0  0  0  0  0  0  0  0  0  0
  125.7930  124.7310   58.0630 C   0  0  0  0  0  0  0  0  0  0  0  0
  124.8660  124.1900   57.3010 N   0  0  0  0  0  0  0  0  0  0  0  0
  125.2300  123.0000   56.8660 C   0  0  0  0  0  0  0  0  0  0  0  0
  126.4810  122.5500   57.2740 C   0  0  0  0  0  0  0  0  0  0  0  0
  127.2130  123.7600   58.2860 S   0  0  0  0  0  0  0  0  0  0  0  0
  126.1150  128.2490   60.8550 C   0  0  0  0  0  0  0  0  0  0  0  0
  126.0100  127.2060   61.7410 N   0  0  0  0  0  0  0  0  0  0  0  0
  125.8670  129.6120   61.2430 C   0  0  0  0  0  0  0  0  0  0  0  0
  1  2  1  0
  2  3  2  0
  3  4  1  0
  4  5  1  0
  5  6  2  0
  6  7  1  0
  7  8  2  0
  8  9  1  0
  9 10  2  0
  4 11  2  0
 11 12  1  0
 12 13  1  0
 13 14  1  0
 14 15  1  0
 15 16  2  0
 15 17  1  0
 17 18  1  0
 18 19  2  0
 19 20  1  0
 20 21  2  0
 21 22  1  0
 14 23  2  0
 23 24  1  0
 23 25  1  0
 25  2  1  0
 10  5  1  0
 25 12  2  0
 22 18  1  0
M  END
>  <Binding energies>  (62) 
[-7.31]

>  <Ligand effiencies>  (62) 
[-0.26107142857142857]

>  <Interactions>  (62) 
["V-B:LEU:363:CD1:8160, V-B:MET:535:CE:9807, V-B:ASP:366:CB:8183, V-B:PRO:540:CB:9857, V-B:ASP:366:CG:8184, V-B:PRO:540:CA:9855, V-B:GLU:543:CD:9880, H-B:GLU:543:OE1:9881, V-A:TYR:539:CD1:4873, V-B:LEU:475:CD2:9230, V-B:ILE:369:CG2:8208, H-B:GLU:543:OE2:9882, V-B:PRO:540:N:9856, V-A:TYR:539:CE1:4875, V-B:TYR:539:C:9839, V-B:PRO:540:CD:9859, H-B:ASP:366:OD1:8185, V-B:ARG:545:CZ:9898, V-B:SER:385:CA:8378, V-B:SER:385:CB:8380, H-B:ASP:366:OD2:8186"]

$$$$
4ea_Grossjean_2025
     RDKit          3D

 31 34  0  0  0  0  0  0  0  0999 V2000
  131.6720  131.9230   55.7900 C   0  0  0  0  0  0  0  0  0  0  0  0
  131.6290  132.5720   57.1760 C   0  0  0  0  0  0  0  0  0  0  0  0
  130.5130  133.4500   57.2520 O   0  0  0  0  0  0  0  0  0  0  0  0
  129.2720  132.9830   57.5460 C   0  0  0  0  0  0  0  0  0  0  0  0
  128.3030  133.1080   56.7900 O   0  0  0  0  0  0  0  0  0  0  0  0
  129.1950  132.3010   58.8800 C   0  0  0  0  0  0  0  0  0  0  0  0
  129.0170  130.9120   58.9280 C   0  0  0  0  0  0  0  0  0  0  0  0
  128.9410  130.2490   60.1500 C   0  0  0  0  0  0  0  0  0  0  0  0
  129.0420  130.9590   61.3480 C   0  0  0  0  0  0  0  0  0  0  0  0
  128.9520  130.1850   62.5210 N   0  0  0  0  0  0  0  0  0  0  0  0
  127.8680  129.6710   63.1530 C   0  0  0  0  0  0  0  0  0  0  0  0
  126.7080  129.8140   62.7670 O   0  0  0  0  0  0  0  0  0  0  0  0
  128.1590  128.9050   64.3680 C   0  0  0  0  0  0  0  0  0  0  0  0
  127.5430  129.4430   65.9320 S   0  0  0  0  0  0  0  0  0  0  0  0
  128.2860  128.0860   66.7470 C   0  0  0  0  0  0  0  0  0  0  0  0
  128.1770  127.9090   68.0640 N   0  0  0  0  0  0  0  0  0  0  0  0
  128.8010  126.8170   68.5720 C   0  0  0  0  0  0  0  0  0  0  0  0
  128.6640  126.6350   70.0720 C   0  0  0  0  0  0  0  0  0  0  0  0
  129.5230  125.9090   67.8020 C   0  0  0  0  0  0  0  0  0  0  0  0
  129.6350  126.0980   66.4200 C   0  0  0  0  0  0  0  0  0  0  0  0
  130.4050  125.1240   65.6150 C   0  0  0  0  0  0  0  0  0  0  0  0
  129.8570  123.8740   65.3100 C   0  0  0  0  0  0  0  0  0  0  0  0
  130.5800  122.9590   64.5500 C   0  0  0  0  0  0  0  0  0  0  0  0
  131.8550  123.2920   64.0990 C   0  0  0  0  0  0  0  0  0  0  0  0
  132.4130  124.5320   64.4020 C   0  0  0  0  0  0  0  0  0  0  0  0
  131.6880  125.4460   65.1610 C   0  0  0  0  0  0  0  0  0  0  0  0
  128.9950  127.2320   65.8480 C   0  0  0  0  0  0  0  0  0  0  0  0
  128.9060  127.7230   64.4970 C   0  0  0  0  0  0  0  0  0  0  0  0
  129.5040  127.0790   63.4440 N   0  0  0  0  0  0  0  0  0  0  0  0
  129.2200  132.3510   61.3090 C   0  0  0  0  0  0  0  0  0  0  0  0
  129.2960  133.0110   60.0860 C   0  0  0  0  0  0  0  0  0  0  0  0
  1  2  1  0
  2  3  1  0
  3  4  1  0
  4  5  2  0
  4  6  1  0
  6  7  2  0
  7  8  1  0
  8  9  2  0
  9 10  1  0
 10 11  1  0
 11 12  2  0
 11 13  1  0
 13 14  1  0
 14 15  1  0
 15 16  2  0
 16 17  1  0
 17 18  1  0
 17 19  2  0
 19 20  1  0
 20 21  1  0
 21 22  2  0
 22 23  1  0
 23 24  2  0
 24 25  1  0
 25 26  2  0
 20 27  2  0
 27 28  1  0
 28 29  1  0
  9 30  1  0
 30 31  2  0
 31  6  1  0
 28 13  2  0
 27 15  1  0
 26 21  1  0
M  END
>  <Binding energies>  (63) 
[-8.45]

>  <Ligand effiencies>  (63) 
[-0.24852941176470586]

>  <Interactions>  (63) 
["V-B:GLU:543:C:9874, V-A:GLU:543:CD:4908, V-A:HIS:456:CE1:4070, V-A:GLU:543:CB:4906, V-B:GLU:543:CB:9878, V-A:LEU:475:CD2:4259, V-B:GLU:543:CA:9876, V-B:TYR:484:CZ:9318, V-B:GLU:543:CG:9879, V-B:GLU:543:CD:9880, V-A:GLU:543:CG:4907, V-A:TYR:484:CE2:4346, H-B:GLU:543:OE1:9881, V-A:TYR:484:CZ:4347, V-A:TYR:539:CD1:4873, H-A:GLU:543:OE2:4910, V-A:LEU:363:CD1:3189, V-A:TYR:531:CE2:4793, V-A:ILE:538:CG2:4863, V-A:ILE:538:CB:4862, H-A:GLU:543:OE1:4909, V-A:PRO:540:CA:4883, V-A:PRO:540:CB:4885, V-A:TYR:539:C:4867, H-A:TYR:539:N:4870, V-A:PRO:540:N:4884, V-A:MET:535:CE:4835, V-A:PRO:540:CD:4887"]

$$$$
4eb_Grossjean_2025
     RDKit          3D

 30 33  0  0  0  0  0  0  0  0999 V2000
  128.6820  132.9860   55.5500 C   0  0  0  0  0  0  0  0  0  0  0  0
  128.8550  133.4370   56.8850 O   0  0  0  0  0  0  0  0  0  0  0  0
  129.9820  133.1390   57.5830 C   0  0  0  0  0  0  0  0  0  0  0  0
  131.1170  133.4280   57.1950 O   0  0  0  0  0  0  0  0  0  0  0  0
  129.7070  132.4240   58.8740 C   0  0  0  0  0  0  0  0  0  0  0  0
  130.4910  131.3150   59.2210 C   0  0  0  0  0  0  0  0  0  0  0  0
  130.2620  130.6310   60.4110 C   0  0  0  0  0  0  0  0  0  0  0  0
  129.2470  131.0380   61.2780 C   0  0  0  0  0  0  0  0  0  0  0  0
  129.1070  130.2710   62.4510 N   0  0  0  0  0  0  0  0  0  0  0  0
  128.0160  129.6600   62.9750 C   0  0  0  0  0  0  0  0  0  0  0  0
  126.8950  129.6840   62.4660 O   0  0  0  0  0  0  0  0  0  0  0  0
  128.2460  128.9400   64.2300 C   0  0  0  0  0  0  0  0  0  0  0  0
  127.5750  129.5490   65.7450 S   0  0  0  0  0  0  0  0  0  0  0  0
  128.2640  128.2150   66.6430 C   0  0  0  0  0  0  0  0  0  0  0  0
  128.0990  128.0930   67.9610 N   0  0  0  0  0  0  0  0  0  0  0  0
  128.6840  127.0150   68.5370 C   0  0  0  0  0  0  0  0  0  0  0  0
  128.4830  126.8950   70.0370 C   0  0  0  0  0  0  0  0  0  0  0  0
  129.4230  126.0660   67.8340 C   0  0  0  0  0  0  0  0  0  0  0  0
  129.5940  126.1990   66.4510 C   0  0  0  0  0  0  0  0  0  0  0  0
  130.3830  125.1820   65.7180 C   0  0  0  0  0  0  0  0  0  0  0  0
  129.8290  123.9280   65.4430 C   0  0  0  0  0  0  0  0  0  0  0  0
  130.5690  122.9720   64.7510 C   0  0  0  0  0  0  0  0  0  0  0  0
  131.8660  123.2700   64.3380 C   0  0  0  0  0  0  0  0  0  0  0  0
  132.4270  124.5160   64.6110 C   0  0  0  0  0  0  0  0  0  0  0  0
  131.6860  125.4710   65.3020 C   0  0  0  0  0  0  0  0  0  0  0  0
  128.9960  127.3170   65.8090 C   0  0  0  0  0  0  0  0  0  0  0  0
  128.9690  127.7540   64.4380 C   0  0  0  0  0  0  0  0  0  0  0  0
  129.6000  127.0610   63.4360 N   0  0  0  0  0  0  0  0  0  0  0  0
  128.4570  132.1470   60.9390 C   0  0  0  0  0  0  0  0  0  0  0  0
  128.6880  132.8300   59.7480 C   0  0  0  0  0  0  0  0  0  0  0  0
  1  2  1  0
  2  3  1  0
  3  4  2  0
  3  5  1  0
  5  6  2  0
  6  7  1  0
  7  8  2  0
  8  9  1  0
  9 10  1  0
 10 11  2  0
 10 12  1  0
 12 13  1  0
 13 14  1  0
 14 15  2  0
 15 16  1  0
 16 17  1  0
 16 18  2  0
 18 19  1  0
 19 20  1  0
 20 21  2  0
 21 22  1  0
 22 23  2  0
 23 24  1  0
 24 25  2  0
 19 26  2  0
 26 27  1  0
 27 28  1  0
  8 29  1  0
 29 30  2  0
 30  5  1  0
 27 12  2  0
 26 14  1  0
 25 20  1  0
M  END
>  <Binding energies>  (64) 
[-8.35]

>  <Ligand effiencies>  (64) 
[-0.253030303030303]

>  <Interactions>  (64) 
["V-B:GLU:543:C:9874, V-A:GLU:543:CD:4908, V-A:HIS:456:CE1:4070, V-A:GLU:543:CB:4906, V-B:HIS:456:CE1:9041, V-B:GLU:543:CB:9878, V-A:LEU:475:CD2:4259, V-B:GLU:543:CA:9876, V-B:TYR:484:CZ:9318, V-B:GLU:543:CG:9879, V-B:GLU:543:CD:9880, V-A:GLU:543:CG:4907, V-A:TYR:484:CE2:4346, H-B:GLU:543:OE1:9881, V-A:TYR:484:CZ:4347, V-A:TYR:539:CD1:4873, H-A:GLU:543:OE2:4910, H-A:GLU:543:OE1:4909, V-A:PRO:540:CA:4883, V-A:TYR:539:C:4867, H-A:TYR:539:N:4870, V-A:PRO:540:N:4884, V-A:MET:535:CE:4835, V-A:PRO:540:CD:4887, V-A:ILE:538:CA:4860, V-A:TYR:539:CZ:4877, V-A:TYR:539:CE2:4876, V-A:TYR:539:CA:4869, V-A:TYR:539:CD2:4874"]

$$$$
8b_Ghoteimi_2023
     RDKit          3D

 34 38  0  0  0  0  0  0  0  0999 V2000
  130.8550  126.9790   73.9760 C   0  0  0  0  0  0  0  0  0  0  0  0
  130.1790  128.0480   73.3210 O   0  0  0  0  0  0  0  0  0  0  0  0
  129.8560  127.9220   71.9840 C   0  0  0  0  0  0  0  0  0  0  0  0
  130.8650  128.2140   71.0680 C   0  0  0  0  0  0  0  0  0  0  0  0
  130.6310  128.1160   69.7010 C   0  0  0  0  0  0  0  0  0  0  0  0
  129.3770  127.7200   69.2110 C   0  0  0  0  0  0  0  0  0  0  0  0
  129.1190  127.6140   67.7420 C   0  0  0  0  0  0  0  0  0  0  0  0
  128.4590  128.6250   67.0350 C   0  0  0  0  0  0  0  0  0  0  0  0
  128.2300  128.5020   65.6610 C   0  0  0  0  0  0  0  0  0  0  0  0
  127.5200  129.5860   64.9440 C   0  0  0  0  0  0  0  0  0  0  0  0
  128.2130  130.7220   64.5220 C   0  0  0  0  0  0  0  0  0  0  0  0
  127.5460  131.7350   63.8400 C   0  0  0  0  0  0  0  0  0  0  0  0
  126.1800  131.6310   63.5720 C   0  0  0  0  0  0  0  0  0  0  0  0
  125.6030  132.6840   62.8880 O   0  0  0  0  0  0  0  0  0  0  0  0
  124.1840  132.7990   62.8600 C   0  0  0  0  0  0  0  0  0  0  0  0
  125.4850  130.4900   64.0010 C   0  0  0  0  0  0  0  0  0  0  0  0
  126.1540  129.4760   64.6820 C   0  0  0  0  0  0  0  0  0  0  0  0
  128.6940  127.3280   65.0090 C   0  0  0  0  0  0  0  0  0  0  0  0
  128.6370  126.8840   63.6400 C   0  0  0  0  0  0  0  0  0  0  0  0
  128.0520  127.6320   62.6500 N   0  0  0  0  0  0  0  0  0  0  0  0
  129.2320  125.6320   63.4240 C   0  0  0  0  0  0  0  0  0  0  0  0
  129.3580  124.8870   62.1690 C   0  0  0  0  0  0  0  0  0  0  0  0
  130.4630  124.7160   61.6470 O   0  0  0  0  0  0  0  0  0  0  0  0
  128.1940  124.4220   61.6490 N   0  0  0  0  0  0  0  0  0  0  0  0
  128.0230  123.6890   60.4830 C   0  0  0  0  0  0  0  0  0  0  0  0
  127.2970  124.1570   59.3890 C   0  0  0  0  0  0  0  0  0  0  0  0
  127.3610  123.1460   58.4570 C   0  0  0  0  0  0  0  0  0  0  0  0
  128.0910  122.1240   58.9620 O   0  0  0  0  0  0  0  0  0  0  0  0
  128.5060  122.4790   60.2470 N   0  0  0  0  0  0  0  0  0  0  0  0
  129.8840  124.9690   64.9230 S   0  0  0  0  0  0  0  0  0  0  0  0
  129.3570  126.3690   65.8270 C   0  0  0  0  0  0  0  0  0  0  0  0
  129.5730  126.4840   67.1370 N   0  0  0  0  0  0  0  0  0  0  0  0
  128.3680  127.4250   70.1370 C   0  0  0  0  0  0  0  0  0  0  0  0
  128.5990  127.5240   71.5060 C   0  0  0  0  0  0  0  0  0  0  0  0
  1  2  1  0
  2  3  1  0
  3  4  2  0
  4  5  1  0
  5  6  2  0
  6  7  1  0
  7  8  2  0
  8  9  1  0
  9 10  1  0
 10 11  2  0
 11 12  1  0
 12 13  2  0
 13 14  1  0
 14 15  1  0
 13 16  1  0
 16 17  2  0
  9 18  2  0
 18 19  1  0
 19 20  1  0
 19 21  2  0
 21 22  1  0
 22 23  2  0
 22 24  1  0
 24 25  1  0
 25 26  1  0
 26 27  2  0
 27 28  1  0
 28 29  1  0
 21 30  1  0
 30 31  1  0
 31 32  2  0
  6 33  1  0
 33 34  2  0
 34  3  1  0
 32  7  1  0
 17 10  1  0
 31 18  1  0
 29 25  2  0
M  END
>  <Binding energies>  (65) 
[-7.45]

>  <Ligand effiencies>  (65) 
[-0.20135135135135135]

>  <Interactions>  (65) 
["H-A:LYS:547:NZ:4951, V-A:GLU:543:CD:4908, V-A:GLU:543:C:4902, V-A:HIS:456:CE1:4070, V-A:GLU:543:CB:4906, V-B:HIS:456:CE1:9041, V-A:GLY:544:C:4912, V-B:HIS:456:CD2:9039, V-B:GLU:543:CB:9878, V-A:GLY:544:CA:4914, V-B:PRO:540:CA:9855, V-A:HIS:456:CD2:4068, V-B:GLU:543:CG:9879, V-B:GLU:543:CD:9880, V-A:GLU:543:CG:4907, V-A:GLU:543:CA:4904, H-B:GLU:543:OE1:9881, V-B:GLY:454:CA:9020, H-A:GLU:543:OE1:4909, H-B:GLU:543:OE2:9882, V-B:PRO:540:N:9856"]

$$$$
9d_Ghoteimi_2023
     RDKit          3D

 38 43  0  0  0  0  0  0  0  0999 V2000
  132.8560  124.5580   64.3780 C   0  0  0  0  0  0  0  0  0  0  0  0
  132.1400  123.3320   64.3380 O   0  0  0  0  0  0  0  0  0  0  0  0
  130.8580  123.2590   64.7830 C   0  0  0  0  0  0  0  0  0  0  0  0
  130.2660  122.2010   65.0090 O   0  0  0  0  0  0  0  0  0  0  0  0
  130.2360  124.5890   64.9660 C   0  0  0  0  0  0  0  0  0  0  0  0
  129.7100  125.5140   63.5600 S   0  0  0  0  0  0  0  0  0  0  0  0
  129.1220  126.8050   64.5800 C   0  0  0  0  0  0  0  0  0  0  0  0
  128.5270  127.8820   64.0680 N   0  0  0  0  0  0  0  0  0  0  0  0
  128.0890  128.8210   64.9470 C   0  0  0  0  0  0  0  0  0  0  0  0
  127.4020  130.0090   64.3520 C   0  0  0  0  0  0  0  0  0  0  0  0
  126.0290  129.9750   64.0860 C   0  0  0  0  0  0  0  0  0  0  0  0
  125.3810  131.0740   63.5310 C   0  0  0  0  0  0  0  0  0  0  0  0
  126.0800  132.2540   63.2310 C   0  0  0  0  0  0  0  0  0  0  0  0
  125.4460  133.3610   62.6570 N   0  0  0  0  0  0  0  0  0  0  0  0
  126.1100  134.1740   61.6180 C   0  0  0  0  0  0  0  0  0  0  0  0
  125.4250  135.5310   61.3540 C   0  0  0  0  0  0  0  0  0  0  0  0
  124.0560  135.3310   61.0450 O   0  0  0  0  0  0  0  0  0  0  0  0
  123.3680  134.7010   62.1130 C   0  0  0  0  0  0  0  0  0  0  0  0
  123.9900  133.3180   62.4030 C   0  0  0  0  0  0  0  0  0  0  0  0
  127.4590  132.2770   63.4860 C   0  0  0  0  0  0  0  0  0  0  0  0
  128.1080  131.1760   64.0390 C   0  0  0  0  0  0  0  0  0  0  0  0
  128.2770  128.6970   66.3260 C   0  0  0  0  0  0  0  0  0  0  0  0
  128.9190  127.5770   66.8670 C   0  0  0  0  0  0  0  0  0  0  0  0
  129.1170  127.5090   68.3390 C   0  0  0  0  0  0  0  0  0  0  0  0
  130.3520  127.8280   68.9070 C   0  0  0  0  0  0  0  0  0  0  0  0
  130.5270  127.7800   70.2880 C   0  0  0  0  0  0  0  0  0  0  0  0
  129.4660  127.4270   71.1370 C   0  0  0  0  0  0  0  0  0  0  0  0
  129.6190  127.3630   72.5240 N   0  0  0  0  0  0  0  0  0  0  0  0
  128.9450  128.3690   73.3680 C   0  0  0  0  0  0  0  0  0  0  0  0
  128.8700  127.9650   74.8560 C   0  0  0  0  0  0  0  0  0  0  0  0
  130.1710  127.6790   75.3480 O   0  0  0  0  0  0  0  0  0  0  0  0
  130.7810  126.6150   74.6330 C   0  0  0  0  0  0  0  0  0  0  0  0
  130.9070  126.9900   73.1400 C   0  0  0  0  0  0  0  0  0  0  0  0
  128.2310  127.1080   70.5540 C   0  0  0  0  0  0  0  0  0  0  0  0
  128.0570  127.1540   69.1750 C   0  0  0  0  0  0  0  0  0  0  0  0
  129.3470  126.5620   65.9670 C   0  0  0  0  0  0  0  0  0  0  0  0
  129.9690  125.2770   66.1560 C   0  0  0  0  0  0  0  0  0  0  0  0
  130.2530  124.7620   67.3950 N   0  0  0  0  0  0  0  0  0  0  0  0
  1  2  1  0
  2  3  1  0
  3  4  2  0
  3  5  1  0
  5  6  1  0
  6  7  1  0
  7  8  2  0
  8  9  1  0
  9 10  1  0
 10 11  2  0
 11 12  1  0
 12 13  2  0
 13 14  1  0
 14 15  1  0
 15 16  1  0
 16 17  1  0
 17 18  1  0
 18 19  1  0
 13 20  1  0
 20 21  2  0
  9 22  2  0
 22 23  1  0
 23 24  1  0
 24 25  2  0
 25 26  1  0
 26 27  2  0
 27 28  1  0
 28 29  1  0
 29 30  1  0
 30 31  1  0
 31 32  1  0
 32 33  1  0
 27 34  1  0
 34 35  2  0
 23 36  2  0
 36 37  1  0
 37 38  1  0
 37  5  2  0
 36  7  1  0
 21 10  1  0
 35 24  1  0
 19 14  1  0
 33 28  1  0
M  END
>  <Binding energies>  (66) 
[-8.85]

>  <Ligand effiencies>  (66) 
[-0.22125]

>  <Interactions>  (66) 
["H-A:LYS:547:NZ:4951, V-B:GLU:543:C:9874, V-A:GLU:543:CD:4908, V-A:GLU:543:C:4902, V-A:HIS:456:CE1:4070, V-A:GLU:543:CB:4906, V-B:HIS:456:CE1:9041, V-A:GLY:544:C:4912, V-B:HIS:456:CD2:9039, V-B:GLU:543:CB:9878, V-A:LEU:475:CD2:4259, V-B:GLU:543:CA:9876, H-B:LYS:547:NZ:9923, V-A:HIS:456:CG:4066, V-A:HIS:456:CD2:4068, V-B:GLU:543:CG:9879, V-B:GLU:543:CD:9880, V-A:GLU:543:CG:4907, V-A:TYR:484:CE2:4346, V-A:TYR:484:CZ:4347, V-A:TYR:539:CD1:4873, V-B:GLY:454:CA:9020, V-B:LEU:475:CD2:9230, V-B:ILE:369:CG2:8208, H-B:GLU:543:O:9875, H-A:HIS:456:NE2:4071, V-A:TYR:539:CE1:4875, V-A:ARG:545:CZ:4926, H-A:TYR:484:OH:4348, V-B:SER:385:CA:8378, V-B:SER:385:CB:8380, V-B:SER:385:C:8376"]

$$$$
RR10_Rahimova_2017
     RDKit          3D

 34 38  0  0  0  0  0  0  0  0999 V2000
  133.6460  124.4490   58.3860 C   0  0  0  0  0  0  0  0  0  0  0  0
  133.4390  123.9600   59.8300 C   0  0  1  0  0  0  0  0  0  0  0  0
  132.5440  124.9240   60.6430 C   0  0  0  0  0  0  0  0  0  0  0  0
  132.3780  124.4320   62.0990 C   0  0  0  0  0  0  0  0  0  0  0  0
  131.7800  123.0030   62.1680 C   0  0  1  0  0  0  0  0  0  0  0  0
  130.3830  123.0010   61.7140 N   0  0  0  0  0  0  0  0  0  0  0  0
  129.7000  121.9200   61.2960 C   0  0  0  0  0  0  0  0  0  0  0  0
  130.1860  120.7860   61.2720 O   0  0  0  0  0  0  0  0  0  0  0  0
  128.2510  122.1550   60.8210 C   0  0  1  0  0  0  0  0  0  0  0  0
  127.5490  123.1490   61.7820 C   0  0  0  0  0  0  0  0  0  0  0  0
  126.1270  123.4580   61.2570 C   0  0  0  0  0  0  0  0  0  0  0  0
  126.1260  123.9080   59.7780 C   0  0  0  0  0  0  0  0  0  0  0  0
  126.8720  122.9360   58.9330 N   0  0  0  0  0  0  0  0  0  0  0  0
  126.6860  123.1860   57.1890 S   0  0  0  0  0  0  0  0  0  0  0  0
  125.2670  123.4380   56.9130 O   0  0  0  0  0  0  0  0  0  0  0  0
  127.3910  122.0980   56.5000 O   0  0  0  0  0  0  0  0  0  0  0  0
  127.5580  124.7140   56.8420 C   0  0  0  0  0  0  0  0  0  0  0  0
  128.5900  124.7140   55.8970 C   0  0  0  0  0  0  0  0  0  0  0  0
  129.3090  125.8700   55.5830 C   0  0  0  0  0  0  0  0  0  0  0  0
  128.9440  127.0360   56.2600 C   0  0  0  0  0  0  0  0  0  0  0  0
  129.3980  128.3330   56.2370 N   0  0  0  0  0  0  0  0  0  0  0  0
  128.6480  129.0630   57.1360 C   0  0  0  0  0  0  0  0  0  0  0  0
  128.8570  130.5260   57.3980 C   0  0  0  0  0  0  0  0  0  0  0  0
  128.0390  131.2080   58.3100 C   0  0  0  0  0  0  0  0  0  0  0  0
  128.2340  132.5640   58.5560 C   0  0  0  0  0  0  0  0  0  0  0  0
  129.2480  133.2480   57.8910 C   0  0  0  0  0  0  0  0  0  0  0  0
  130.0690  132.5860   56.9830 C   0  0  0  0  0  0  0  0  0  0  0  0
  129.8740  131.2290   56.7370 C   0  0  0  0  0  0  0  0  0  0  0  0
  127.7380  128.3240   57.7320 N   0  0  0  0  0  0  0  0  0  0  0  0
  127.8980  127.0650   57.2140 C   0  0  0  0  0  0  0  0  0  0  0  0
  127.1920  125.8900   57.5070 C   0  0  0  0  0  0  0  0  0  0  0  0
  128.2720  122.7180   59.3790 C   0  0  0  0  0  0  0  0  0  0  0  0
  132.6790  122.0500   61.3340 C   0  0  0  0  0  0  0  0  0  0  0  0
  132.8400  122.5350   59.8760 C   0  0  0  0  0  0  0  0  0  0  0  0
  2  1  1  6
  2  3  1  0
  3  4  1  0
  4  5  1  0
  5  6  1  6
  6  7  1  0
  7  8  2  0
  9  7  1  1
  9 10  1  0
 10 11  1  0
 11 12  1  0
 12 13  1  0
 13 14  1  0
 14 15  2  0
 14 16  2  0
 14 17  1  0
 17 18  2  0
 18 19  1  0
 19 20  2  0
 20 21  1  0
 21 22  1  0
 22 23  1  0
 23 24  2  0
 24 25  1  0
 25 26  2  0
 26 27  1  0
 27 28  2  0
 22 29  2  0
 29 30  1  0
 30 31  2  0
 13 32  1  0
  5 33  1  0
 33 34  1  0
 34  2  1  0
 32  9  1  0
 31 17  1  0
 30 20  1  0
 28 23  1  0
M  END
>  <Binding energies>  (67) 
[-10.39]

>  <Ligand effiencies>  (67) 
[-0.28861111111111115]

>  <Interactions>  (67) 
["V-B:TYR:539:CE2:9848, V-A:LEU:475:CD2:4259, V-B:PRO:540:CB:9857, V-A:ILE:369:CG2:3237, V-B:TYR:539:CZ:9849, V-B:TYR:539:CD2:9846, V-B:TYR:539:CE1:9847, H-B:TYR:539:N:9842, V-B:PRO:540:C:9853, V-B:PRO:540:CA:9855, V-A:TYR:539:CD1:4873, V-A:TYR:531:CZ:4794, V-A:PRO:540:CA:4883, V-A:ASP:366:CB:3212, V-B:PRO:540:N:9856, V-A:TYR:539:CE1:4875, H-A:TYR:531:OH:4795, V-A:TYR:539:C:4867, V-B:TYR:539:C:9839, V-A:PRO:540:N:4884, V-A:MET:535:CE:4835, H-B:TYR:531:OH:9767, V-A:ASP:366:CG:3213, V-A:ASP:366:CA:3210, V-A:TYR:539:CG:4872, V-A:ASP:366:C:3208, V-A:TYR:539:CA:4869, H-A:MET:535:SD:4834, V-A:ILE:369:CB:3236"]

$$$$
RR12_Rahimova_2017
     RDKit          3D

 26 28  0  0  0  0  0  0  0  0999 V2000
  128.2320  127.1440   71.5820 C   0  0  0  0  0  0  0  0  0  0  0  0
  127.3230  127.7200   72.6760 C   0  0  0  0  0  0  0  0  0  0  0  0
  128.1160  128.3920   73.8120 C   0  0  0  0  0  0  0  0  0  0  0  0
  127.2540  129.2740   74.5950 N   0  0  0  0  0  0  0  0  0  0  0  0
  127.4830  130.5990   74.9290 C   0  0  0  0  0  0  0  0  0  0  0  0
  128.7430  131.3620   74.5550 C   0  0  0  0  0  0  0  0  0  0  0  0
  128.4350  132.7480   73.9600 C   0  0  0  0  0  0  0  0  0  0  0  0
  129.1580  132.9950   72.6220 C   0  0  0  0  0  0  0  0  0  0  0  0
  130.5050  133.5440   72.7710 N   0  0  0  0  0  0  0  0  0  0  0  0
  131.0800  134.4180   71.9240 C   0  0  0  0  0  0  0  0  0  0  0  0
  130.5190  134.8490   70.9140 O   0  0  0  0  0  0  0  0  0  0  0  0
  132.5010  134.8620   72.2930 C   0  0  0  0  0  0  0  0  0  0  0  0
  133.0430  133.9670   73.2650 O   0  0  0  0  0  0  0  0  0  0  0  0
  134.3960  134.0090   73.5440 C   0  0  0  0  0  0  0  0  0  0  0  0
  134.7490  134.1090   74.8910 C   0  0  0  0  0  0  0  0  0  0  0  0
  136.0880  134.1540   75.2700 C   0  0  0  0  0  0  0  0  0  0  0  0
  137.0810  134.0980   74.2970 C   0  0  0  0  0  0  0  0  0  0  0  0
  136.7470  134.0010   72.9480 C   0  0  0  0  0  0  0  0  0  0  0  0
  135.4070  133.9570   72.5700 C   0  0  0  0  0  0  0  0  0  0  0  0
  126.5090  131.1370   75.6200 N   0  0  0  0  0  0  0  0  0  0  0  0
  125.5730  130.1470   75.7370 C   0  0  0  0  0  0  0  0  0  0  0  0
  124.3230  130.1840   76.3730 C   0  0  0  0  0  0  0  0  0  0  0  0
  123.5390  129.0310   76.3490 C   0  0  0  0  0  0  0  0  0  0  0  0
  123.9780  127.8690   75.7120 C   0  0  0  0  0  0  0  0  0  0  0  0
  125.2170  127.8000   75.0720 C   0  0  0  0  0  0  0  0  0  0  0  0
  126.0040  128.9580   75.0980 C   0  0  0  0  0  0  0  0  0  0  0  0
  1  2  1  0
  2  3  1  0
  3  4  1  0
  4  5  1  0
  5  6  1  0
  6  7  1  0
  7  8  1  0
  8  9  1  0
  9 10  1  0
 10 11  2  0
 10 12  1  0
 12 13  1  0
 13 14  1  0
 14 15  2  0
 15 16  1  0
 16 17  2  0
 17 18  1  0
 18 19  2  0
  5 20  2  0
 20 21  1  0
 21 22  2  0
 22 23  1  0
 23 24  2  0
 24 25  1  0
 25 26  2  0
 26  4  1  0
 19 14  1  0
 26 21  1  0
M  END
>  <Binding energies>  (68) 
[-7.31]

>  <Ligand effiencies>  (68) 
[-0.2707407407407407]

>  <Interactions>  (68) 
["V-B:HIS:456:CG:9037, V-B:VAL:458:CG2:9058, V-A:GLU:543:C:4902, V-B:HIS:456:CB:9036, V-B:LYS:547:CE:9922, V-B:GLY:544:C:9884, V-B:LYS:547:CD:9921, V-B:HIS:456:CE1:9041, V-B:HIS:456:CD2:9039, V-B:LYS:471:CD:9190, H-A:GLY:544:N:4915, V-A:GLY:544:CA:4914, V-B:HIS:456:C:9032, V-A:LYS:547:CE:4950, V-A:VAL:542:CG1:4899, V-B:TYR:484:CB:9312, V-B:TYR:484:CG:9313, H-B:LYS:471:NZ:9192, H-A:GLU:543:O:4903, V-A:LYS:547:CD:4949, V-A:GLU:357:CB:3134, V-B:LYS:547:CG:9920, H-B:SER:483:OG:9305, V-A:ILE:546:C:4934, H-B:TYR:484:N:9311, V-B:VAL:457:C:9044, V-B:LYS:471:CG:9189, V-B:VAL:457:CA:9046, V-A:GLU:357:CD:3136"]

$$$$
RR13_Rahimova_2017
     RDKit          3D

 48 54  0  0  0  0  0  0  0  0999 V2000
  125.8450  131.1740   58.7860 Cl  0  0  0  0  0  0  0  0  0  0  0  0
  124.9320  130.9980   60.2470 C   0  0  0  0  0  0  0  0  0  0  0  0
  123.5420  131.1130   60.1630 C   0  0  0  0  0  0  0  0  0  0  0  0
  122.7540  131.0020   61.3050 C   0  0  0  0  0  0  0  0  0  0  0  0
  123.3520  130.7790   62.5420 C   0  0  0  0  0  0  0  0  0  0  0  0
  124.7380  130.6640   62.6340 C   0  0  0  0  0  0  0  0  0  0  0  0
  125.5490  130.7600   61.4920 C   0  0  0  0  0  0  0  0  0  0  0  0
  127.0840  130.6540   61.6240 C   0  0  1  0  0  0  0  0  0  0  0  0
  127.5650  131.2360   62.9620 C   0  0  0  0  0  0  0  0  0  0  0  0
  127.9800  130.5590   64.0090 N   0  0  0  0  0  0  0  0  0  0  0  0
  128.2820  131.5070   64.9820 N   0  0  0  0  0  0  0  0  0  0  0  0
  128.0210  132.7760   64.5030 N   0  0  0  0  0  0  0  0  0  0  0  0
  127.5560  132.5810   63.2640 N   0  0  0  0  0  0  0  0  0  0  0  0
  127.2060  133.7170   62.4210 C   0  0  0  0  0  0  0  0  0  0  0  0
  125.6920  133.7210   62.1330 C   0  0  0  0  0  0  0  0  0  0  0  0
  125.2340  135.0200   61.4870 C   0  0  0  0  0  0  0  0  0  0  0  0
  126.1550  136.0430   61.2470 C   0  0  0  0  0  0  0  0  0  0  0  0
  125.7320  137.2340   60.6640 C   0  0  0  0  0  0  0  0  0  0  0  0
  124.3910  137.3980   60.3220 C   0  0  0  0  0  0  0  0  0  0  0  0
  123.4690  136.3820   60.5590 C   0  0  0  0  0  0  0  0  0  0  0  0
  123.8900  135.1900   61.1430 C   0  0  0  0  0  0  0  0  0  0  0  0
  127.6040  129.2860   61.3840 N   0  0  0  0  0  0  0  0  0  0  0  0
  127.1500  128.3670   62.4430 C   0  0  0  0  0  0  0  0  0  0  0  0
  127.5760  126.9140   62.1300 C   0  0  0  0  0  0  0  0  0  0  0  0
  129.0430  126.8070   62.0560 N   0  0  0  0  0  0  0  0  0  0  0  0
  129.5000  125.4150   61.8390 C   0  0  1  0  0  0  0  0  0  0  0  0
  130.7840  125.0100   62.5950 C   0  0  0  0  0  0  0  0  0  0  0  0
  130.8030  125.2170   63.9810 C   0  0  0  0  0  0  0  0  0  0  0  0
  131.9130  124.8650   64.7470 C   0  0  0  0  0  0  0  0  0  0  0  0
  133.0300  124.3040   64.1340 C   0  0  0  0  0  0  0  0  0  0  0  0
  133.0380  124.1050   62.7570 C   0  0  0  0  0  0  0  0  0  0  0  0
  131.9320  124.4580   61.9790 C   0  0  0  0  0  0  0  0  0  0  0  0
  132.0660  124.2360   60.2670 Cl  0  0  0  0  0  0  0  0  0  0  0  0
  128.4000  124.3770   62.0760 C   0  0  0  0  0  0  0  0  0  0  0  0
  128.3040  123.5970   63.1270 N   0  0  0  0  0  0  0  0  0  0  0  0
  127.1560  122.8350   62.9330 N   0  0  0  0  0  0  0  0  0  0  0  0
  126.5510  123.1850   61.7440 N   0  0  0  0  0  0  0  0  0  0  0  0
  127.3250  124.1550   61.2420 N   0  0  0  0  0  0  0  0  0  0  0  0
  126.9950  124.7610   59.9570 C   0  0  0  0  0  0  0  0  0  0  0  0
  127.9060  124.2010   58.8490 C   0  0  0  0  0  0  0  0  0  0  0  0
  127.1190  123.4720   57.7710 C   0  0  0  0  0  0  0  0  0  0  0  0
  127.7860  122.9000   56.6850 C   0  0  0  0  0  0  0  0  0  0  0  0
  127.0660  122.2270   55.7020 C   0  0  0  0  0  0  0  0  0  0  0  0
  125.6790  122.1290   55.8080 C   0  0  0  0  0  0  0  0  0  0  0  0
  125.0080  122.6980   56.8900 C   0  0  0  0  0  0  0  0  0  0  0  0
  125.7280  123.3700   57.8730 C   0  0  0  0  0  0  0  0  0  0  0  0
  129.4920  127.7240   60.9930 C   0  0  0  0  0  0  0  0  0  0  0  0
  129.0720  129.1760   61.3170 C   0  0  0  0  0  0  0  0  0  0  0  0
  1  2  1  0
  2  3  2  0
  3  4  1  0
  4  5  2  0
  5  6  1  0
  6  7  2  0
  7  8  1  0
  8  9  1  0
  9 10  2  0
 10 11  1  0
 11 12  2  0
 12 13  1  0
 13 14  1  0
 14 15  1  0
 15 16  1  0
 16 17  2  0
 17 18  1  0
 18 19  2  0
 19 20  1  0
 20 21  2  0
  8 22  1  1
 22 23  1  0
 23 24  1  0
 24 25  1  0
 26 25  1  1
 26 27  1  0
 27 28  2  0
 28 29  1  0
 29 30  2  0
 30 31  1  0
 31 32  2  0
 32 33  1  0
 26 34  1  0
 34 35  2  0
 35 36  1  0
 36 37  2  0
 37 38  1  0
 38 39  1  0
 39 40  1  0
 40 41  1  0
 41 42  2  0
 42 43  1  0
 43 44  2  0
 44 45  1  0
 45 46  2  0
 25 47  1  0
 47 48  1  0
  7  2  1  0
 13  9  1  0
 21 16  1  0
 48 22  1  0
 32 27  1  0
 38 34  1  0
 46 41  1  0
M  END
>  <Binding energies>  (69) 
[-13.01]

>  <Ligand effiencies>  (69) 
[-0.2710416666666667]

>  <Interactions>  (69) 
["V-B:TYR:539:CE2:9848, V-B:LEU:363:CD1:8160, V-B:MET:535:CE:9807, V-B:ASP:366:CB:8183, V-B:PRO:540:CB:9857, H-B:ALA:541:N:9863, V-B:ASP:366:CG:8184, V-B:TYR:539:CZ:9849, V-B:TYR:539:CD2:9846, V-B:TYR:539:CG:9844, V-B:TYR:539:CE1:9847, V-B:PRO:540:CA:9855, V-B:GLU:543:CD:9880, V-A:TYR:539:CD1:4873, V-B:LEU:475:CD2:9230, V-A:ALA:541:CB:4892, V-B:ILE:369:CG2:8208, V-B:PRO:540:N:9856, V-B:ILE:369:CG1:8209, V-A:TYR:539:CE1:4875, V-B:ILE:369:CB:8207, V-B:TYR:539:CD1:9845, H-B:TYR:484:OH:9319, V-B:PRO:540:CD:9859, V-A:ARG:545:CZ:4926, V-B:ASP:366:CA:8181, V-A:GLY:454:CA:4049, V-B:ILE:538:CA:9832, V-A:TYR:539:CG:4872, V-B:SER:385:CA:8378, V-B:HIS:383:CD2:8363, V-B:SER:385:CB:8380, V-A:TYR:539:CB:4871, V-B:LEU:373:CD1:8251, V-B:ILE:538:C:9830, V-B:ILE:538:CG2:9835, V-B:PRO:540:CG:9858, V-B:GLY:453:CA:9015, V-B:ILE:538:CB:9834"]

$$$$
RR14_Rahimova_2017
     RDKit          3D

 39 43  0  0  0  0  0  0  0  0999 V2000
  127.9100  133.0160   55.4900 C   0  0  0  0  0  0  0  0  0  0  0  0
  129.2870  133.3700   55.4450 O   0  0  0  0  0  0  0  0  0  0  0  0
  130.1490  132.8430   56.3870 C   0  0  0  0  0  0  0  0  0  0  0  0
  131.1700  132.0210   55.9060 C   0  0  0  0  0  0  0  0  0  0  0  0
  132.0710  131.4250   56.7830 C   0  0  0  0  0  0  0  0  0  0  0  0
  131.9560  131.6420   58.1580 C   0  0  0  0  0  0  0  0  0  0  0  0
  132.9000  130.9390   59.1250 C   0  0  0  0  0  0  0  0  0  0  0  0
  132.7860  131.4240   60.5010 N   0  0  0  0  0  0  0  0  0  0  0  0
  133.7070  132.2520   61.0050 N   0  0  0  0  0  0  0  0  0  0  0  0
  133.3050  132.4740   62.3070 N   0  0  0  0  0  0  0  0  0  0  0  0
  132.1390  131.7640   62.5750 N   0  0  0  0  0  0  0  0  0  0  0  0
  131.8460  131.1280   61.4650 C   0  0  0  0  0  0  0  0  0  0  0  0
  130.6590  130.1950   61.2770 C   0  0  0  0  0  0  0  0  0  0  0  0
  129.4790  130.8880   60.7350 N   0  0  0  0  0  0  0  0  0  0  0  0
  128.9400  130.2090   59.5490 C   0  0  0  0  0  0  0  0  0  0  0  0
  127.3990  130.1050   59.5490 C   0  0  0  0  0  0  0  0  0  0  0  0
  126.8160  129.5450   58.2350 C   0  0  0  0  0  0  0  0  0  0  0  0
  125.4170  129.9230   58.0130 N   0  0  0  0  0  0  0  0  0  0  0  0
  125.2810  130.6580   56.7490 C   0  0  0  0  0  0  0  0  0  0  0  0
  123.8270  131.1180   56.5100 C   0  0  0  0  0  0  0  0  0  0  0  0
  123.3620  131.8710   57.6250 O   0  0  0  0  0  0  0  0  0  0  0  0
  123.3880  131.1190   58.8330 C   0  0  0  0  0  0  0  0  0  0  0  0
  124.8300  130.6610   59.1430 C   0  0  0  0  0  0  0  0  0  0  0  0
  128.4440  131.0110   61.7720 C   0  0  0  0  0  0  0  0  0  0  0  0
  127.5640  132.2570   61.6970 C   0  0  0  0  0  0  0  0  0  0  0  0
  126.2180  132.1720   61.8320 C   0  0  0  0  0  0  0  0  0  0  0  0
  125.3410  133.3560   61.7240 C   0  0  0  0  0  0  0  0  0  0  0  0
  123.9450  133.3070   61.8790 C   0  0  0  0  0  0  0  0  0  0  0  0
  123.2200  132.0020   62.1750 C   0  0  0  0  0  0  0  0  0  0  0  0
  123.2070  134.4880   61.7590 C   0  0  0  0  0  0  0  0  0  0  0  0
  123.8410  135.7000   61.4910 C   0  0  0  0  0  0  0  0  0  0  0  0
  125.2290  135.7590   61.3380 C   0  0  0  0  0  0  0  0  0  0  0  0
  125.8920  137.0990   61.0480 C   0  0  0  0  0  0  0  0  0  0  0  0
  125.9810  134.5790   61.4560 C   0  0  0  0  0  0  0  0  0  0  0  0
  127.3840  134.5900   61.3060 N   0  0  0  0  0  0  0  0  0  0  0  0
  128.2260  133.5310   61.3970 C   0  0  0  0  0  0  0  0  0  0  0  0
  129.4360  133.6800   61.2280 O   0  0  0  0  0  0  0  0  0  0  0  0
  130.9570  132.4870   58.6460 C   0  0  0  0  0  0  0  0  0  0  0  0
  130.0550  133.0810   57.7680 C   0  0  0  0  0  0  0  0  0  0  0  0
  1  2  1  0
  2  3  1  0
  3  4  2  0
  4  5  1  0
  5  6  2  0
  6  7  1  0
  7  8  1  0
  8  9  1  0
  9 10  2  0
 10 11  1  0
 11 12  2  0
 12 13  1  0
 13 14  1  0
 14 15  1  0
 15 16  1  0
 16 17  1  0
 17 18  1  0
 18 19  1  0
 19 20  1  0
 20 21  1  0
 21 22  1  0
 22 23  1  0
 14 24  1  0
 24 25  1  0
 25 26  2  0
 26 27  1  0
 27 28  2  0
 28 29  1  0
 28 30  1  0
 30 31  2  0
 31 32  1  0
 32 33  1  0
 32 34  2  0
 34 35  1  0
 35 36  1  0
 36 37  2  0
  6 38  1  0
 38 39  2  0
 39  3  1  0
 12  8  1  0
 23 18  1  0
 36 25  1  0
 34 27  1  0
M  END
>  <Binding energies>  (70) 
[-11.06]

>  <Ligand effiencies>  (70) 
[-0.2765]

>  <Interactions>  (70) 
["V-B:ASP:366:CB:8183, V-B:ASP:366:CG:8184, V-A:TYR:539:CD1:4873, V-B:GLY:454:CA:9020, V-A:LEU:363:CD1:3189, V-A:TYR:531:CE2:4793, V-A:ILE:538:CG2:4863, V-A:ILE:538:CB:4862, V-B:LEU:475:CD2:9230, V-A:PRO:540:CA:4883, V-B:ILE:369:CG2:8208, V-A:PRO:540:CB:4885, V-A:ASP:366:CB:3212, V-B:ILE:369:CG1:8209, V-A:TYR:539:CE1:4875, V-A:TYR:539:C:4867, H-A:TYR:539:N:4870, V-B:ILE:369:CB:8207, V-A:PRO:540:N:4884, V-A:MET:535:CE:4835, H-B:TYR:531:OH:9767, V-A:ASP:366:CG:3213, V-B:ASP:366:CA:8181, H-A:ALA:541:N:4891, V-B:TYR:531:CZ:9766, H-A:TYR:539:O:4868, V-A:PRO:540:CD:4887, V-A:ILE:538:CA:4860, V-A:TYR:539:CZ:4877, H-A:LEU:363:N:3186, V-A:TYR:539:CG:4872, V-B:SER:385:CA:8378, V-B:ASP:366:C:8179, V-B:SER:385:CB:8380, V-A:TYR:539:CE2:4876, V-B:ILE:369:CD1:8210, V-A:TYR:539:CA:4869, H-A:TYR:539:OH:4878, H-B:ASN:370:N:8215, V-A:TYR:539:CD2:4874, V-B:SER:385:C:8376, V-A:LEU:363:CA:3185, V-B:TYR:531:CE1:9764, V-B:ASN:370:CB:8216"]

$$$$
RR15_Rahimova_2017
     RDKit          3D

 45 49  0  0  0  0  0  0  0  0999 V2000
  133.8490  125.1020   65.6190 C   0  0  0  0  0  0  0  0  0  0  0  0
  133.6100  124.0550   64.6840 O   0  0  0  0  0  0  0  0  0  0  0  0
  133.3070  124.3690   63.3710 C   0  0  0  0  0  0  0  0  0  0  0  0
  134.1080  124.0010   62.2780 C   0  0  0  0  0  0  0  0  0  0  0  0
  133.7450  124.3510   60.9800 C   0  0  0  0  0  0  0  0  0  0  0  0
  132.5760  125.0790   60.7350 C   0  0  0  0  0  0  0  0  0  0  0  0
  132.1880  125.4630   59.3340 C   0  0  0  0  0  0  0  0  0  0  0  0
  133.0260  125.3940   58.3090 N   0  0  0  0  0  0  0  0  0  0  0  0
  132.3200  125.8310   57.2080 N   0  0  0  0  0  0  0  0  0  0  0  0
  131.1030  126.0800   57.6930 N   0  0  0  0  0  0  0  0  0  0  0  0
  130.0660  126.7240   56.8900 C   0  0  0  0  0  0  0  0  0  0  0  0
  128.6150  126.3460   57.2790 C   0  0  0  0  0  0  0  0  0  0  0  0
  127.8510  125.9710   56.3860 O   0  0  0  0  0  0  0  0  0  0  0  0
  128.2270  126.4070   58.5900 N   0  0  0  0  0  0  0  0  0  0  0  0
  128.2490  127.6790   59.3390 C   0  0  0  0  0  0  0  0  0  0  0  0
  128.3730  128.9250   58.4360 C   0  0  0  0  0  0  0  0  0  0  0  0
  129.7650  129.5990   58.4480 C   0  0  0  0  0  0  0  0  0  0  0  0
  129.8900  130.7140   57.5040 N   0  0  0  0  0  0  0  0  0  0  0  0
  128.8950  131.7760   57.7150 C   0  0  0  0  0  0  0  0  0  0  0  0
  129.1230  132.9630   56.7530 C   0  0  0  0  0  0  0  0  0  0  0  0
  130.4570  133.4430   56.8740 O   0  0  0  0  0  0  0  0  0  0  0  0
  131.4230  132.4430   56.5690 C   0  0  0  0  0  0  0  0  0  0  0  0
  131.2600  131.2440   57.5280 C   0  0  0  0  0  0  0  0  0  0  0  0
  127.5790  125.2680   59.3090 C   0  0  2  0  0  0  0  0  0  0  0  0
  128.4590  124.6420   60.4350 C   0  0  0  0  0  0  0  0  0  0  0  0
  129.5770  124.1890   60.1900 O   0  0  0  0  0  0  0  0  0  0  0  0
  127.9300  124.6720   61.6710 N   0  0  0  0  0  0  0  0  0  0  0  0
  128.6070  124.2410   62.8890 C   0  0  0  0  0  0  0  0  0  0  0  0
  128.7030  122.7060   62.9600 C   0  0  2  0  0  0  0  0  0  0  0  0
  130.1310  122.1360   63.0270 C   0  0  0  0  0  0  0  0  0  0  0  0
  130.4170  121.6650   61.6220 C   0  0  0  0  0  0  0  0  0  0  0  0
  129.0400  121.2090   61.1730 C   0  0  0  0  0  0  0  0  0  0  0  0
  128.1910  122.2170   61.7130 O   0  0  0  0  0  0  0  0  0  0  0  0
  126.9200  124.3120   58.3200 C   0  0  0  0  0  0  0  0  0  0  0  0
  125.5840  124.5430   57.9700 C   0  0  0  0  0  0  0  0  0  0  0  0
  124.9320  123.7030   57.0720 C   0  0  0  0  0  0  0  0  0  0  0  0
  125.6130  122.6240   56.5150 C   0  0  0  0  0  0  0  0  0  0  0  0
  124.9790  121.8090   55.6420 F   0  0  0  0  0  0  0  0  0  0  0  0
  126.9420  122.3800   56.8500 C   0  0  0  0  0  0  0  0  0  0  0  0
  127.5930  123.2200   57.7490 C   0  0  0  0  0  0  0  0  0  0  0  0
  130.9860  125.9050   59.0150 N   0  0  0  0  0  0  0  0  0  0  0  0
  131.7770  125.4430   61.8280 C   0  0  0  0  0  0  0  0  0  0  0  0
  132.1280  125.0940   63.1430 C   0  0  0  0  0  0  0  0  0  0  0  0
  131.3710  125.4270   64.2530 O   0  0  0  0  0  0  0  0  0  0  0  0
  130.3430  126.4050   64.1360 C   0  0  0  0  0  0  0  0  0  0  0  0
  1  2  1  0
  2  3  1  0
  3  4  2  0
  4  5  1  0
  5  6  2  0
  6  7  1  0
  7  8  1  0
  8  9  2  0
  9 10  1  0
 10 11  1  0
 11 12  1  0
 12 13  2  0
 12 14  1  0
 14 15  1  0
 15 16  1  0
 16 17  1  0
 17 18  1  0
 18 19  1  0
 19 20  1  0
 20 21  1  0
 21 22  1  0
 22 23  1  0
 24 14  1  6
 24 25  1  0
 25 26  2  0
 25 27  1  0
 27 28  1  0
 29 28  1  6
 29 30  1  0
 30 31  1  0
 31 32  1  0
 32 33  1  0
 24 34  1  0
 34 35  2  0
 35 36  1  0
 36 37  2  0
 37 38  1  0
 37 39  1  0
 39 40  2  0
 10 41  1  0
  6 42  1  0
 42 43  2  0
 43 44  1  0
 44 45  1  0
 43  3  1  0
 41  7  2  0
 23 18  1  0
 33 29  1  0
 40 34  1  0
M  END
>  <Binding energies>  (71) 
[-8.85]

>  <Ligand effiencies>  (71) 
[-0.1923913043478261]

>  <Interactions>  (71) 
["V-A:GLU:543:CD:4908, V-A:ARG:545:CG:4922, V-B:TYR:539:CE2:9848, H-B:TYR:539:OH:9850, V-B:LEU:363:CD1:8160, V-A:LEU:475:CD2:4259, V-B:MET:535:CE:9807, V-B:PRO:540:CB:9857, H-B:ALA:541:N:9863, V-B:TYR:539:CZ:9849, V-B:TYR:539:CD2:9846, V-B:TYR:539:CG:9844, V-B:TYR:539:CE1:9847, V-B:PRO:540:C:9853, V-B:PRO:540:CA:9855, V-B:GLU:543:CG:9879, V-B:GLU:543:CD:9880, V-B:ALA:541:CB:9864, H-B:GLU:543:OE1:9881, V-A:ILE:369:CD1:3239, V-A:TYR:539:CD1:4873, V-A:LEU:363:CD1:3189, V-A:ILE:538:CG2:4863, V-A:ILE:538:CB:4862, H-A:ARG:545:NH2:4928, V-A:ASP:366:CB:3212, V-B:PRO:540:N:9856, H-A:TYR:531:OH:4795, H-A:TYR:539:N:4870, V-B:TYR:539:CD1:9845, V-B:TYR:539:C:9839, V-B:PRO:540:CD:9859, H-B:TYR:531:OH:9767, V-A:ASP:366:CG:3213, V-A:ARG:545:CZ:4926, H-A:GLY:454:N:4050, H-A:TYR:484:OH:4348, V-A:GLY:454:CA:4049, V-B:ILE:538:CA:9832, V-B:TYR:539:CA:9841, V-A:TYR:539:CG:4872, V-B:ILE:538:C:9830, V-B:ILE:538:CG2:9835, V-A:ARG:545:CD:4923, V-B:ILE:538:CB:9834, V-B:ILE:538:CG1:9836"]

$$$$
RR17_Rahimova_2017
     RDKit          3D

 38 41  0  0  0  0  0  0  0  0999 V2000
  132.0150  131.7560   57.9910 C   0  0  0  0  0  0  0  0  0  0  0  0
  131.5540  132.6400   56.8280 C   0  0  0  0  0  0  0  0  0  0  0  0
  130.4740  133.4550   57.2730 O   0  0  0  0  0  0  0  0  0  0  0  0
  129.2220  132.8920   57.4380 C   0  0  0  0  0  0  0  0  0  0  0  0
  128.7490  132.7960   58.7460 C   0  0  0  0  0  0  0  0  0  0  0  0
  127.5010  132.2410   59.0100 C   0  0  0  0  0  0  0  0  0  0  0  0
  126.6950  131.7680   57.9640 C   0  0  0  0  0  0  0  0  0  0  0  0
  125.3520  131.1760   58.2790 C   0  0  0  0  0  0  0  0  0  0  0  0
  124.4510  131.0960   57.4390 O   0  0  0  0  0  0  0  0  0  0  0  0
  125.1280  130.6740   59.7240 C   0  0  0  0  0  0  0  0  0  0  0  0
  124.3930  131.9630   60.7940 S   0  0  0  0  0  0  0  0  0  0  0  0
  124.3670  131.0970   62.3380 C   0  0  0  0  0  0  0  0  0  0  0  0
  123.2970  130.6000   62.9130 N   0  0  0  0  0  0  0  0  0  0  0  0
  123.6930  129.9940   64.0990 N   0  0  0  0  0  0  0  0  0  0  0  0
  124.9900  130.1450   64.1950 C   0  0  0  0  0  0  0  0  0  0  0  0
  125.8390  129.6180   65.3420 C   0  0  0  0  0  0  0  0  0  0  0  0
  127.2580  129.4950   65.0190 N   0  0  0  0  0  0  0  0  0  0  0  0
  128.0660  128.4250   65.4440 C   0  0  0  0  0  0  0  0  0  0  0  0
  128.6430  127.6250   64.4580 C   0  0  0  0  0  0  0  0  0  0  0  0
  129.4490  126.5470   64.8090 C   0  0  0  0  0  0  0  0  0  0  0  0
  129.6910  126.2570   66.1550 C   0  0  0  0  0  0  0  0  0  0  0  0
  130.5740  125.0650   66.5240 C   0  0  0  0  0  0  0  0  0  0  0  0
  130.6950  124.1960   65.5180 F   0  0  0  0  0  0  0  0  0  0  0  0
  131.7970  125.4780   66.8610 F   0  0  0  0  0  0  0  0  0  0  0  0
  130.0360  124.4290   67.5650 F   0  0  0  0  0  0  0  0  0  0  0  0
  129.1200  127.0630   67.1450 C   0  0  0  0  0  0  0  0  0  0  0  0
  128.3150  128.1420   66.7930 C   0  0  0  0  0  0  0  0  0  0  0  0
  125.4810  130.8480   63.1140 N   0  0  0  0  0  0  0  0  0  0  0  0
  126.8140  131.2000   62.8500 C   0  0  0  0  0  0  0  0  0  0  0  0
  127.6170  130.3380   62.1050 C   0  0  0  0  0  0  0  0  0  0  0  0
  128.9400  130.6850   61.8460 C   0  0  0  0  0  0  0  0  0  0  0  0
  129.4630  131.8950   62.3320 C   0  0  0  0  0  0  0  0  0  0  0  0
  130.7600  132.3210   62.1250 O   0  0  0  0  0  0  0  0  0  0  0  0
  131.7590  131.3650   61.7840 C   0  0  0  0  0  0  0  0  0  0  0  0
  128.6430  132.7440   63.0790 C   0  0  0  0  0  0  0  0  0  0  0  0
  127.3190  132.4040   63.3400 C   0  0  0  0  0  0  0  0  0  0  0  0
  127.1710  131.8650   56.6490 C   0  0  0  0  0  0  0  0  0  0  0  0
  128.4210  132.4210   56.3870 C   0  0  0  0  0  0  0  0  0  0  0  0
  1  2  1  0
  2  3  1  0
  3  4  1  0
  4  5  2  0
  5  6  1  0
  6  7  2  0
  7  8  1  0
  8  9  2  0
  8 10  1  0
 10 11  1  0
 11 12  1  0
 12 13  2  0
 13 14  1  0
 14 15  2  0
 15 16  1  0
 16 17  1  0
 17 18  1  0
 18 19  2  0
 19 20  1  0
 20 21  2  0
 21 22  1  0
 22 23  1  0
 22 24  1  0
 22 25  1  0
 21 26  1  0
 26 27  2  0
 15 28  1  0
 28 29  1  0
 29 30  2  0
 30 31  1  0
 31 32  2  0
 32 33  1  0
 33 34  1  0
 32 35  1  0
 35 36  2  0
  7 37  1  0
 37 38  2  0
 38  4  1  0
 28 12  1  0
 36 29  1  0
 27 18  1  0
M  END
>  <Binding energies>  (72) 
[-8.86]

>  <Ligand effiencies>  (72) 
[-0.22717948717948716]

>  <Interactions>  (72) 
["V-A:GLU:543:CD:4908, V-A:HIS:456:CE1:4070, V-A:GLU:543:CB:4906, V-B:GLU:543:CB:9878, V-B:ASP:366:CG:8184, V-B:GLU:543:CA:9876, V-B:TYR:484:CZ:9318, V-B:GLU:543:CG:9879, V-B:GLU:543:CD:9880, V-A:GLU:543:CG:4907, V-A:TYR:484:CE2:4346, V-A:TYR:484:CZ:4347, V-A:TYR:539:CD1:4873, V-A:LEU:363:CD1:3189, V-A:ILE:538:CB:4862, V-B:LEU:475:CD2:9230, V-A:ALA:541:CB:4892, V-A:PRO:540:CB:4885, H-B:ARG:545:NH2:9900, V-A:TYR:539:CE1:4875, V-A:TYR:539:C:4867, H-A:TYR:539:N:4870, H-B:TYR:484:OH:9319, V-A:MET:535:CE:4835, H-B:TYR:531:OH:9767, H-B:GLY:454:N:9021, H-A:ALA:541:N:4891, V-B:ARG:545:CZ:9898, H-B:ARG:545:NH1:9899, H-B:ARG:545:NE:9896, V-A:PRO:540:CD:4887, V-A:TYR:539:CZ:4877, H-A:TYR:539:OH:4878"]

$$$$
RR19_Rahimova_2017
     RDKit          3D

 46 51  0  0  0  0  0  0  0  0999 V2000
  133.5000  124.4170   64.2330 O   0  0  0  0  0  0  0  0  0  0  0  0
  132.3320  124.4780   63.8380 C   0  0  0  0  0  0  0  0  0  0  0  0
  131.9330  124.7740   62.5740 N   0  0  0  0  0  0  0  0  0  0  0  0
  132.6030  124.8670   61.3790 C   0  0  0  0  0  0  0  0  0  0  0  0
  134.1980  124.3730   61.1020 S   0  0  0  0  0  0  0  0  0  0  0  0
  131.7640  125.4270   60.4480 N   0  0  0  0  0  0  0  0  0  0  0  0
  131.8630  125.6120   59.1070 C   0  0  0  0  0  0  0  0  0  0  0  0
  132.7170  125.1250   58.3630 O   0  0  0  0  0  0  0  0  0  0  0  0
  130.7800  126.5520   58.5210 C   0  0  2  0  0  0  0  0  0  0  0  0
  130.6480  127.9250   59.2420 C   0  0  0  0  0  0  0  0  0  0  0  0
  131.0180  129.1360   58.4010 C   0  0  0  0  0  0  0  0  0  0  0  0
  132.3490  129.6040   58.3510 C   0  0  0  0  0  0  0  0  0  0  0  0
  132.6820  130.6620   57.5160 C   0  0  0  0  0  0  0  0  0  0  0  0
  131.7130  131.2540   56.7140 C   0  0  0  0  0  0  0  0  0  0  0  0
  130.4060  130.7850   56.7310 C   0  0  0  0  0  0  0  0  0  0  0  0
  130.0530  129.7260   57.5570 C   0  0  0  0  0  0  0  0  0  0  0  0
  129.4660  125.8620   58.4130 N   0  0  0  0  0  0  0  0  0  0  0  0
  128.6160  125.7860   59.4760 C   0  0  0  0  0  0  0  0  0  0  0  0
  128.8040  126.2180   60.6150 O   0  0  0  0  0  0  0  0  0  0  0  0
  127.4140  125.0770   58.9730 C   0  0  0  0  0  0  0  0  0  0  0  0
  126.2300  124.7130   59.6160 C   0  0  0  0  0  0  0  0  0  0  0  0
  125.2450  124.0460   58.8790 C   0  0  0  0  0  0  0  0  0  0  0  0
  125.4520  123.7550   57.5240 C   0  0  0  0  0  0  0  0  0  0  0  0
  126.6460  124.1290   56.8970 C   0  0  0  0  0  0  0  0  0  0  0  0
  127.6160  124.7920   57.6500 C   0  0  0  0  0  0  0  0  0  0  0  0
  128.9530  125.3130   57.2710 C   0  0  0  0  0  0  0  0  0  0  0  0
  129.4810  125.2660   56.1590 O   0  0  0  0  0  0  0  0  0  0  0  0
  131.1710  124.2170   64.8340 C   0  0  2  0  0  0  0  0  0  0  0  0
  130.3390  122.9420   64.5120 C   0  0  0  0  0  0  0  0  0  0  0  0
  129.8970  122.8440   63.0630 C   0  0  0  0  0  0  0  0  0  0  0  0
  130.7130  122.1890   62.1160 C   0  0  0  0  0  0  0  0  0  0  0  0
  130.2610  122.0120   60.8150 C   0  0  0  0  0  0  0  0  0  0  0  0
  128.9970  122.4510   60.4460 C   0  0  0  0  0  0  0  0  0  0  0  0
  128.1660  123.0620   61.3780 C   0  0  0  0  0  0  0  0  0  0  0  0
  128.6000  123.2510   62.6840 C   0  0  0  0  0  0  0  0  0  0  0  0
  130.2930  125.4040   65.0430 N   0  0  0  0  0  0  0  0  0  0  0  0
  129.9670  125.8430   66.2910 C   0  0  0  0  0  0  0  0  0  0  0  0
  130.3070  125.3510   67.3680 O   0  0  0  0  0  0  0  0  0  0  0  0
  129.1150  127.0390   66.0770 C   0  0  0  0  0  0  0  0  0  0  0  0
  128.4890  127.8910   66.9880 C   0  0  0  0  0  0  0  0  0  0  0  0
  127.7350  128.9620   66.4950 C   0  0  0  0  0  0  0  0  0  0  0  0
  127.6200  129.1670   65.1140 C   0  0  0  0  0  0  0  0  0  0  0  0
  128.2570  128.3030   64.2160 C   0  0  0  0  0  0  0  0  0  0  0  0
  129.0020  127.2390   64.7280 C   0  0  0  0  0  0  0  0  0  0  0  0
  129.7780  126.1780   64.0430 C   0  0  0  0  0  0  0  0  0  0  0  0
  129.9260  126.0280   62.8290 O   0  0  0  0  0  0  0  0  0  0  0  0
  1  2  2  0
  2  3  1  0
  3  4  1  0
  4  5  2  0
  4  6  1  0
  6  7  1  0
  7  8  2  0
  7  9  1  0
  9 10  1  1
 10 11  1  0
 11 12  2  0
 12 13  1  0
 13 14  2  0
 14 15  1  0
 15 16  2  0
  9 17  1  0
 17 18  1  0
 18 19  2  0
 18 20  1  0
 20 21  2  0
 21 22  1  0
 22 23  2  0
 23 24  1  0
 24 25  2  0
 25 26  1  0
 26 27  2  0
  2 28  1  0
 28 29  1  6
 29 30  1  0
 30 31  2  0
 31 32  1  0
 32 33  2  0
 33 34  1  0
 34 35  2  0
 28 36  1  0
 36 37  1  0
 37 38  2  0
 37 39  1  0
 39 40  2  0
 40 41  1  0
 41 42  2  0
 42 43  1  0
 43 44  2  0
 44 45  1  0
 45 46  2  0
 16 11  1  0
 26 17  1  0
 35 30  1  0
 45 36  1  0
 25 20  1  0
 44 39  1  0
M  END
>  <Binding energies>  (73) 
[-10.84]

>  <Ligand effiencies>  (73) 
[-0.22583333333333333]

>  <Interactions>  (73) 
["V-A:GLU:543:CD:4908, V-A:GLU:543:CB:4906, V-B:HIS:456:CE1:9041, V-B:GLU:543:CB:9878, V-B:TYR:539:CE2:9848, H-B:TYR:539:OH:9850, V-B:LEU:363:CD1:8160, V-A:LEU:475:CD2:4259, V-B:PRO:540:CB:9857, V-B:TYR:539:CZ:9849, V-B:TYR:539:CD2:9846, V-B:PRO:540:CA:9855, V-B:GLU:543:CG:9879, V-B:GLU:543:CD:9880, V-A:GLU:543:CG:4907, V-A:TYR:484:CE2:4346, V-B:ALA:541:CB:9864, V-A:TYR:484:CZ:4347, V-A:ILE:369:CD1:3239, V-A:LEU:363:CD1:3189, V-A:TYR:531:CE2:4793, V-A:TYR:531:CZ:4794, H-A:ARG:545:NH2:4928, V-A:ASP:366:CB:3212, V-A:MET:535:CE:4835, V-A:ASP:366:CG:3213, H-A:GLY:454:N:4050, H-A:TYR:484:OH:4348"]

$$$$
RR1_Rahimova_2017
     RDKit          3D

 41 44  0  0  0  0  0  0  0  0999 V2000
  125.3450  122.7650   56.7110 C   0  0  0  0  0  0  0  0  0  0  0  0
  126.6140  122.1310   56.8270 O   0  0  0  0  0  0  0  0  0  0  0  0
  127.5770  122.6940   57.6430 C   0  0  0  0  0  0  0  0  0  0  0  0
  127.9620  122.1720   58.8880 C   0  0  0  0  0  0  0  0  0  0  0  0
  128.9380  122.8130   59.6460 C   0  0  0  0  0  0  0  0  0  0  0  0
  129.5480  123.9760   59.1730 C   0  0  0  0  0  0  0  0  0  0  0  0
  130.4900  124.5750   60.0320 N   0  0  0  0  0  0  0  0  0  0  0  0
  131.8300  124.6690   59.8990 C   0  0  0  0  0  0  0  0  0  0  0  0
  132.4830  124.1570   58.9890 O   0  0  0  0  0  0  0  0  0  0  0  0
  132.5270  125.4810   61.0020 C   0  0  0  0  0  0  0  0  0  0  0  0
  132.4380  124.7630   62.6800 S   0  0  0  0  0  0  0  0  0  0  0  0
  130.9950  125.6110   63.2290 C   0  0  0  0  0  0  0  0  0  0  0  0
  130.1640  126.2400   62.4360 N   0  0  0  0  0  0  0  0  0  0  0  0
  129.2340  126.7110   63.2590 C   0  0  0  0  0  0  0  0  0  0  0  0
  128.0530  127.5010   62.7700 C   0  0  0  0  0  0  0  0  0  0  0  0
  127.4760  128.5170   63.5490 C   0  0  0  0  0  0  0  0  0  0  0  0
  126.3770  129.2320   63.0690 C   0  0  0  0  0  0  0  0  0  0  0  0
  125.8760  128.9130   61.8090 C   0  0  0  0  0  0  0  0  0  0  0  0
  126.4090  127.9380   61.0300 N   0  0  0  0  0  0  0  0  0  0  0  0
  127.4770  127.2550   61.5140 C   0  0  0  0  0  0  0  0  0  0  0  0
  129.4160  126.4340   64.5370 N   0  0  0  0  0  0  0  0  0  0  0  0
  130.5500  125.7270   64.5200 N   0  0  0  0  0  0  0  0  0  0  0  0
  131.1090  125.1900   65.7610 C   0  0  0  0  0  0  0  0  0  0  0  0
  130.2090  125.3430   66.9990 C   0  0  0  0  0  0  0  0  0  0  0  0
  129.5880  124.3760   67.4540 O   0  0  0  0  0  0  0  0  0  0  0  0
  130.1640  126.5850   67.5180 N   0  0  0  0  0  0  0  0  0  0  0  0
  129.4920  126.7680   68.7190 N   0  0  0  0  0  0  0  0  0  0  0  0
  130.0620  127.5710   69.6440 C   0  0  0  0  0  0  0  0  0  0  0  0
  131.0880  128.2320   69.4490 O   0  0  0  0  0  0  0  0  0  0  0  0
  129.3430  127.6500   70.9750 C   0  0  0  0  0  0  0  0  0  0  0  0
  128.2580  126.8060   71.2350 C   0  0  0  0  0  0  0  0  0  0  0  0
  127.5770  126.8700   72.4450 C   0  0  0  0  0  0  0  0  0  0  0  0
  127.9570  127.7900   73.4360 C   0  0  0  0  0  0  0  0  0  0  0  0
  127.3130  127.9140   74.6540 O   0  0  0  0  0  0  0  0  0  0  0  0
  125.9150  128.1780   74.6860 C   0  0  0  0  0  0  0  0  0  0  0  0
  129.0360  128.6490   73.1930 C   0  0  0  0  0  0  0  0  0  0  0  0
  129.3580  129.5510   74.1930 O   0  0  0  0  0  0  0  0  0  0  0  0
  128.8950  130.8940   74.1050 C   0  0  0  0  0  0  0  0  0  0  0  0
  129.7210  128.5700   71.9670 C   0  0  0  0  0  0  0  0  0  0  0  0
  129.1670  124.5000   57.9290 C   0  0  0  0  0  0  0  0  0  0  0  0
  128.1910  123.8550   57.1740 C   0  0  0  0  0  0  0  0  0  0  0  0
  1  2  1  0
  2  3  1  0
  3  4  2  0
  4  5  1  0
  5  6  2  0
  6  7  1  0
  7  8  1  0
  8  9  2  0
  8 10  1  0
 10 11  1  0
 11 12  1  0
 12 13  2  0
 13 14  1  0
 14 15  1  0
 15 16  2  0
 16 17  1  0
 17 18  2  0
 18 19  1  0
 19 20  2  0
 14 21  2  0
 21 22  1  0
 22 23  1  0
 23 24  1  0
 24 25  2  0
 24 26  1  0
 26 27  1  0
 27 28  1  0
 28 29  2  0
 28 30  1  0
 30 31  2  0
 31 32  1  0
 32 33  2  0
 33 34  1  0
 34 35  1  0
 33 36  1  0
 36 37  1  0
 37 38  1  0
 36 39  2  0
  6 40  1  0
 40 41  2  0
 41  3  1  0
 22 12  1  0
 39 30  1  0
 20 15  1  0
M  END
>  <Binding energies>  (74) 
[-8.46]

>  <Ligand effiencies>  (74) 
[-0.1922727272727273]

>  <Interactions>  (74) 
["V-B:HIS:456:CG:9037, H-A:LYS:547:NZ:4951, V-A:GLU:543:CD:4908, V-B:HIS:456:CB:9036, V-B:LYS:547:CE:9922, V-A:HIS:456:CE1:4070, V-B:GLY:544:C:9884, V-A:GLU:543:CB:4906, V-B:HIS:456:CE1:9041, V-B:HIS:456:CD2:9039, V-B:GLU:543:CB:9878, V-A:LYS:547:CE:4950, V-B:TYR:539:CE2:9848, H-B:TYR:539:OH:9850, V-B:LEU:363:CD1:8160, V-B:MET:535:CE:9807, V-B:PRO:540:CB:9857, V-B:ASP:366:CG:8184, V-B:TYR:539:CZ:9849, V-B:TYR:539:CD2:9846, V-B:TYR:539:CG:9844, V-B:TYR:539:CE1:9847, H-B:TYR:539:N:9842, V-B:PRO:540:CA:9855, H-B:LYS:547:NZ:9923, V-B:GLY:544:CA:9886, V-B:GLU:543:CG:9879, V-B:GLU:543:CD:9880, V-A:TYR:484:CE2:4346, H-A:GLU:543:OE2:4910, H-B:GLU:543:O:9875, H-A:ARG:545:NH2:4928, H-A:HIS:456:NE2:4071, H-B:ARG:545:NH2:9900, V-B:PRO:540:N:9856, V-B:TYR:539:CD1:9845, V-B:TYR:539:C:9839, V-B:PRO:540:CD:9859, V-A:ASP:366:CG:3213, H-A:TYR:484:OH:4348"]

$$$$
RR22_Rahimova_2017
     RDKit          3D

 31 36  0  0  0  0  0  0  0  0999 V2000
  123.3900  130.7580   55.3830 O   0  0  0  0  0  0  0  0  0  0  0  0
  124.2290  130.8090   56.2790 C   0  0  0  0  0  0  0  0  0  0  0  0
  124.0200  130.6730   57.6410 N   0  0  0  0  0  0  0  0  0  0  0  0
  125.1230  130.6970   58.5520 C   0  0  1  0  0  0  0  0  0  0  0  0
  124.8150  131.7360   59.4860 O   0  0  0  0  0  0  0  0  0  0  0  0
  124.7060  131.4030   60.8370 C   0  0  0  0  0  0  0  0  0  0  0  0
  124.0560  132.3270   61.6550 C   0  0  0  0  0  0  0  0  0  0  0  0
  123.9450  132.0820   63.0240 C   0  0  0  0  0  0  0  0  0  0  0  0
  124.4900  130.9210   63.5730 C   0  0  0  0  0  0  0  0  0  0  0  0
  125.1410  129.9970   62.7540 C   0  0  0  0  0  0  0  0  0  0  0  0
  125.2390  130.2170   61.3760 C   0  0  0  0  0  0  0  0  0  0  0  0
  125.9600  129.3010   60.4120 C   0  0  1  0  0  0  0  0  0  0  0  0
  126.0280  127.8010   60.6120 C   0  0  0  0  0  0  0  0  0  0  0  0
  126.1050  127.3460   59.1510 C   0  0  0  0  0  0  0  0  0  0  0  0
  126.5730  126.0030   58.7570 C   0  0  0  0  0  0  0  0  0  0  0  0
  126.3820  124.9030   59.6060 C   0  0  0  0  0  0  0  0  0  0  0  0
  126.8250  123.6380   59.2290 C   0  0  0  0  0  0  0  0  0  0  0  0
  127.4600  123.4650   58.0030 C   0  0  0  0  0  0  0  0  0  0  0  0
  127.6570  124.5460   57.1480 C   0  0  0  0  0  0  0  0  0  0  0  0
  127.2140  125.8110   57.5230 C   0  0  0  0  0  0  0  0  0  0  0  0
  125.6930  128.2640   58.3600 N   0  0  0  0  0  0  0  0  0  0  0  0
  125.3000  129.3620   59.1430 N   0  0  0  0  0  0  0  0  0  0  0  0
  126.3360  131.1570   57.7570 C   0  0  0  0  0  0  0  0  0  0  0  0
  127.4650  131.6240   58.3390 C   0  0  0  0  0  0  0  0  0  0  0  0
  128.7120  132.0800   57.6940 C   0  0  0  0  0  0  0  0  0  0  0  0
  129.9880  131.7390   58.1630 C   0  0  0  0  0  0  0  0  0  0  0  0
  131.1230  132.2080   57.5000 C   0  0  0  0  0  0  0  0  0  0  0  0
  130.9510  133.0190   56.3790 C   0  0  0  0  0  0  0  0  0  0  0  0
  129.7300  133.3730   55.9080 N   0  0  0  0  0  0  0  0  0  0  0  0
  128.6370  132.9050   56.5650 C   0  0  0  0  0  0  0  0  0  0  0  0
  126.0080  131.0860   56.0190 S   0  0  0  0  0  0  0  0  0  0  0  0
  1  2  2  0
  2  3  1  0
  4  3  1  6
  4  5  1  0
  5  6  1  0
  6  7  2  0
  7  8  1  0
  8  9  2  0
  9 10  1  0
 10 11  2  0
 11 12  1  0
 12 13  1  1
 13 14  1  0
 14 15  1  0
 15 16  2  0
 16 17  1  0
 17 18  2  0
 18 19  1  0
 19 20  2  0
 14 21  2  0
 21 22  1  0
  4 23  1  0
 23 24  2  0
 24 25  1  0
 25 26  2  0
 26 27  1  0
 27 28  2  0
 28 29  1  0
 29 30  2  0
 23 31  1  0
 31  2  1  0
 22  4  1  0
 30 25  1  0
 11  6  1  0
 22 12  1  0
 20 15  1  0
M  END
>  <Binding energies>  (75) 
[-9.48]

>  <Ligand effiencies>  (75) 
[-0.29625]

>  <Interactions>  (75) 
["V-B:ASP:366:CB:8183, V-B:PRO:540:CB:9857, V-B:ASP:366:CG:8184, V-B:PRO:540:CA:9855, V-A:TYR:539:CD1:4873, V-B:GLY:454:CA:9020, V-A:ILE:538:CG2:4863, V-A:ILE:538:CB:4862, V-B:ILE:369:CG2:8208, V-A:PRO:540:CB:4885, V-A:TYR:539:CE1:4875, H-A:TYR:539:N:4870, V-A:PRO:540:N:4884, V-A:MET:535:CE:4835, H-B:TYR:531:OH:9767, V-B:ASP:366:CA:8181, V-B:TYR:531:CZ:9766, V-A:PRO:540:CD:4887, V-A:ILE:538:CA:4860, V-A:TYR:539:CZ:4877, V-A:TYR:539:CG:4872, V-B:ASP:366:C:8179, V-A:ILE:538:C:4858, H-B:ASP:366:O:8180, H-A:TYR:539:OH:4878, H-B:ASN:370:N:8215, V-A:TYR:539:CD2:4874, V-B:TYR:531:CE1:9764"]

$$$$
RR24_Rahimova_2017
     RDKit          3D

 43 49  0  0  0  0  0  0  0  0999 V2000
  126.3180  131.1220   63.6220 C   0  0  0  0  0  0  0  0  0  0  0  0
  124.9210  131.7540   63.5580 C   0  0  2  0  0  0  0  0  0  0  0  0
  123.8270  130.7750   63.0390 C   0  0  0  0  0  0  0  0  0  0  0  0
  123.3400  129.8950   63.7560 O   0  0  0  0  0  0  0  0  0  0  0  0
  123.5110  130.9920   61.7280 O   0  0  0  0  0  0  0  0  0  0  0  0
  124.3380  130.5080   60.7400 C   0  0  0  0  0  0  0  0  0  0  0  0
  124.2000  130.9880   59.4360 C   0  0  0  0  0  0  0  0  0  0  0  0
  125.0370  130.5130   58.4310 C   0  0  0  0  0  0  0  0  0  0  0  0
  126.0200  129.5650   58.7250 C   0  0  0  0  0  0  0  0  0  0  0  0
  126.9270  129.0310   57.6090 C   0  0  1  0  0  0  0  0  0  0  0  0
  128.1280  129.9690   57.3430 C   0  0  0  0  0  0  0  0  0  0  0  0
  129.3990  129.5310   57.3040 C   0  0  0  0  0  0  0  0  0  0  0  0
  129.7250  128.2110   57.5010 N   0  0  0  0  0  0  0  0  0  0  0  0
  128.7590  127.2660   57.7510 C   0  0  0  0  0  0  0  0  0  0  0  0
  129.2450  126.0090   57.9140 N   0  0  0  0  0  0  0  0  0  0  0  0
  128.4470  124.9570   58.2460 C   0  0  0  0  0  0  0  0  0  0  0  0
  128.9600  123.9280   58.6890 O   0  0  0  0  0  0  0  0  0  0  0  0
  127.0910  125.2390   58.1970 N   0  0  0  0  0  0  0  0  0  0  0  0
  126.1770  124.1080   58.4610 C   0  0  0  0  0  0  0  0  0  0  0  0
  126.4900  126.4770   58.0420 C   0  0  0  0  0  0  0  0  0  0  0  0
  125.2690  126.6620   58.0610 O   0  0  0  0  0  0  0  0  0  0  0  0
  127.4370  127.5750   57.8240 C   0  0  0  0  0  0  0  0  0  0  0  0
  130.3160  130.6260   57.0360 C   0  0  0  0  0  0  0  0  0  0  0  0
  131.7040  130.6950   56.9060 C   0  0  0  0  0  0  0  0  0  0  0  0
  132.3040  131.9290   56.6420 C   0  0  0  0  0  0  0  0  0  0  0  0
  131.5190  133.0790   56.5090 C   0  0  0  0  0  0  0  0  0  0  0  0
  130.1300  133.0030   56.6410 C   0  0  0  0  0  0  0  0  0  0  0  0
  129.5370  131.7680   56.9060 C   0  0  0  0  0  0  0  0  0  0  0  0
  128.1150  131.4050   57.0870 C   0  0  0  0  0  0  0  0  0  0  0  0
  127.1110  132.1140   57.0430 O   0  0  0  0  0  0  0  0  0  0  0  0
  126.1690  129.1000   60.0360 C   0  0  0  0  0  0  0  0  0  0  0  0
  125.3330  129.5760   61.0430 C   0  0  0  0  0  0  0  0  0  0  0  0
  124.9240  133.0480   62.8150 N   0  0  0  0  0  0  0  0  0  0  0  0
  123.7640  133.6790   62.4750 C   0  0  0  0  0  0  0  0  0  0  0  0
  122.6130  133.3020   62.7040 O   0  0  0  0  0  0  0  0  0  0  0  0
  124.1790  134.9170   61.7700 C   0  0  0  0  0  0  0  0  0  0  0  0
  123.4220  135.9410   61.2000 C   0  0  0  0  0  0  0  0  0  0  0  0
  124.0910  137.0090   60.5910 C   0  0  0  0  0  0  0  0  0  0  0  0
  125.4910  137.0400   60.5620 C   0  0  0  0  0  0  0  0  0  0  0  0
  126.2330  136.0040   61.1400 C   0  0  0  0  0  0  0  0  0  0  0  0
  125.5470  134.9470   61.7400 C   0  0  0  0  0  0  0  0  0  0  0  0
  126.0450  133.7290   62.4260 C   0  0  0  0  0  0  0  0  0  0  0  0
  127.2190  133.4040   62.6100 O   0  0  0  0  0  0  0  0  0  0  0  0
  2  1  1  6
  2  3  1  0
  3  4  2  0
  3  5  1  0
  5  6  1  0
  6  7  2  0
  7  8  1  0
  8  9  2  0
 10  9  1  1
 10 11  1  0
 11 12  2  0
 12 13  1  0
 13 14  1  0
 14 15  1  0
 15 16  1  0
 16 17  2  0
 16 18  1  0
 18 19  1  0
 18 20  1  0
 20 21  2  0
 20 22  1  0
 12 23  1  0
 23 24  2  0
 24 25  1  0
 25 26  2  0
 26 27  1  0
 27 28  2  0
 28 29  1  0
 29 30  2  0
  9 31  1  0
 31 32  2  0
  2 33  1  0
 33 34  1  0
 34 35  2  0
 34 36  1  0
 36 37  2  0
 37 38  1  0
 38 39  2  0
 39 40  1  0
 40 41  2  0
 41 42  1  0
 42 43  2  0
 32  6  1  0
 42 33  1  0
 22 10  1  0
 28 23  1  0
 41 36  1  0
 29 11  1  0
 22 14  2  0
M  END
>  <Binding energies>  (76) 
[-10.49]

>  <Ligand effiencies>  (76) 
[-0.2331111111111111]

>  <Interactions>  (76) 
["H-B:TYR:539:OH:9850, V-B:ASP:366:CB:8183, V-B:PRO:540:CB:9857, V-B:ASP:366:CG:8184, V-A:TYR:539:CD1:4873, V-B:GLY:454:CA:9020, V-A:LEU:363:CD1:3189, V-A:TYR:531:CE2:4793, V-A:ILE:538:CG2:4863, V-A:ILE:538:CB:4862, V-A:TYR:531:CZ:4794, V-B:LEU:475:CD2:9230, V-B:ILE:369:CG2:8208, H-B:ARG:545:NH2:9900, V-A:TYR:539:CE1:4875, H-A:TYR:531:OH:4795, V-A:PRO:540:N:4884, V-A:MET:535:CE:4835, H-B:TYR:531:OH:9767, H-B:GLY:454:N:9021, V-B:ASP:366:CA:8181, H-B:ARG:545:NH1:9899, H-B:ARG:545:NE:9896, V-A:PRO:540:CD:4887, V-A:ILE:538:CA:4860, V-A:TYR:539:CG:4872, V-B:SER:385:CA:8378, V-B:HIS:383:CD2:8363, V-B:SER:385:CB:8380, V-A:ILE:538:C:4858, V-A:TYR:539:CB:4871, V-B:LEU:373:CD1:8251, H-A:TYR:539:OH:4878, V-B:SER:385:C:8376"]

$$$$
RR25_Rahimova_2017
     RDKit          3D

 39 44  0  0  0  0  0  0  0  0999 V2000
  126.8840  123.5000   61.3020 O   0  0  0  0  0  0  0  0  0  0  0  0
  127.8440  124.0570   61.8380 C   0  0  0  0  0  0  0  0  0  0  0  0
  128.6030  123.2810   62.6790 O   0  0  0  0  0  0  0  0  0  0  0  0
  129.8340  123.7090   63.1400 C   0  0  0  0  0  0  0  0  0  0  0  0
  130.7490  122.7190   63.4960 C   0  0  0  0  0  0  0  0  0  0  0  0
  132.0060  123.0800   63.9760 C   0  0  0  0  0  0  0  0  0  0  0  0
  132.3650  124.4290   64.1120 C   0  0  0  0  0  0  0  0  0  0  0  0
  133.7070  124.8100   64.6170 N   0  0  0  0  0  0  0  0  0  0  0  0
  134.5730  125.1230   63.8040 O   0  0  0  0  0  0  0  0  0  0  0  0
  133.9040  124.7990   65.8280 O   0  0  0  0  0  0  0  0  0  0  0  0
  131.4240  125.4110   63.7610 C   0  0  0  0  0  0  0  0  0  0  0  0
  130.1560  125.0660   63.2840 C   0  0  0  0  0  0  0  0  0  0  0  0
  129.1090  126.0890   62.8810 C   0  0  0  0  0  0  0  0  0  0  0  0
  128.2780  125.5440   61.6850 C   0  0  2  0  0  0  0  0  0  0  0  0
  127.1300  126.5240   61.3060 C   0  0  0  0  0  0  0  0  0  0  0  0
  126.0530  126.0040   60.9990 O   0  0  0  0  0  0  0  0  0  0  0  0
  127.2600  127.8790   61.4290 N   0  0  0  0  0  0  0  0  0  0  0  0
  128.5730  128.5560   61.4850 C   0  0  0  0  0  0  0  0  0  0  0  0
  128.4840  129.7450   62.4640 C   0  0  0  0  0  0  0  0  0  0  0  0
  127.3910  130.6530   62.1050 N   0  0  0  0  0  0  0  0  0  0  0  0
  127.3870  131.8520   62.9530 C   0  0  0  0  0  0  0  0  0  0  0  0
  128.5520  132.8250   62.6270 C   0  0  0  0  0  0  0  0  0  0  0  0
  129.2150  132.6350   61.3040 N   0  0  0  0  0  0  0  0  0  0  0  0
  130.4980  132.1340   61.3550 C   0  0  0  0  0  0  0  0  0  0  0  0
  131.0880  131.8900   62.4150 O   0  0  0  0  0  0  0  0  0  0  0  0
  131.1330  131.8850   60.0010 C   0  0  0  0  0  0  0  0  0  0  0  0
  132.4280  131.3520   59.9360 C   0  0  0  0  0  0  0  0  0  0  0  0
  133.0380  131.1030   58.7080 C   0  0  0  0  0  0  0  0  0  0  0  0
  132.3780  131.3720   57.5110 C   0  0  0  0  0  0  0  0  0  0  0  0
  131.0690  131.9110   57.5270 C   0  0  0  0  0  0  0  0  0  0  0  0
  130.3410  132.2070   56.3510 C   0  0  0  0  0  0  0  0  0  0  0  0
  129.0530  132.7330   56.4380 C   0  0  0  0  0  0  0  0  0  0  0  0
  128.4620  132.9770   57.6760 C   0  0  0  0  0  0  0  0  0  0  0  0
  129.1450  132.7000   58.8680 C   0  0  0  0  0  0  0  0  0  0  0  0
  130.4560  132.1630   58.7860 C   0  0  0  0  0  0  0  0  0  0  0  0
  128.4650  132.9720   60.1960 C   0  0  0  0  0  0  0  0  0  0  0  0
  127.3250  133.4420   60.2640 O   0  0  0  0  0  0  0  0  0  0  0  0
  126.1130  129.9420   62.1670 C   0  0  0  0  0  0  0  0  0  0  0  0
  126.0790  128.7400   61.1930 C   0  0  0  0  0  0  0  0  0  0  0  0
  1  2  2  0
  2  3  1  0
  3  4  1  0
  4  5  2  0
  5  6  1  0
  6  7  2  0
  7  8  1  0
  8  9  2  0
  8 10  1  0
  7 11  1  0
 11 12  2  0
 12 13  1  0
 13 14  1  0
 14 15  1  1
 15 16  2  0
 15 17  1  0
 17 18  1  0
 18 19  1  0
 19 20  1  0
 20 21  1  0
 21 22  1  0
 22 23  1  0
 23 24  1  0
 24 25  2  0
 24 26  1  0
 26 27  2  0
 27 28  1  0
 28 29  2  0
 29 30  1  0
 30 31  2  0
 31 32  1  0
 32 33  2  0
 33 34  1  0
 34 35  2  0
 34 36  1  0
 36 37  2  0
 20 38  1  0
 38 39  1  0
 14  2  1  0
 39 17  1  0
 12  4  1  0
 36 23  1  0
 35 26  1  0
 35 30  1  0
M  CHG  2   8   1  10  -1
M  END
>  <Binding energies>  (77) 
[-10.36]

>  <Ligand effiencies>  (77) 
[-0.26564102564102565]

>  <Interactions>  (77) 
["V-A:LEU:475:CD2:4259, H-B:ALA:541:N:9863, V-B:ASP:366:CG:8184, V-B:GLU:543:CD:9880, V-A:TYR:539:CD1:4873, V-A:LEU:363:CD1:3189, V-A:ALA:541:CB:4892, V-A:PRO:540:CA:4883, V-A:PRO:540:CB:4885, H-A:ARG:545:NH2:4928, V-A:ASP:366:CB:3212, H-B:ARG:545:NH2:9900, V-A:TYR:539:CE1:4875, V-A:TYR:539:C:4867, V-A:PRO:540:N:4884, V-A:MET:535:CE:4835, V-A:ASP:366:CG:3213, V-A:PRO:540:C:4881, V-A:ARG:545:CZ:4926, H-A:GLY:454:N:4050, H-A:ARG:545:NH1:4927, H-A:ALA:541:N:4891, H-A:ARG:545:NE:4924, H-A:TYR:484:OH:4348, V-A:GLY:453:C:4042, V-A:GLY:454:CA:4049, V-A:TYR:539:CZ:4877, V-A:TYR:539:CG:4872, V-A:GLY:453:CA:4044, V-A:LEU:363:CA:3185"]

$$$$
RR27_Rahimova_2017
     RDKit          3D

 39 44  0  0  0  0  0  0  0  0999 V2000
  130.9200  128.5920   58.0560 O   0  0  0  0  0  0  0  0  0  0  0  0
  129.9690  128.3960   57.2940 C   0  0  0  0  0  0  0  0  0  0  0  0
  129.1040  129.6170   56.8640 C   0  0  0  0  0  0  0  0  0  0  0  0
  129.8870  130.9430   56.8670 C   0  0  0  0  0  0  0  0  0  0  0  0
  131.0500  131.1180   56.1020 C   0  0  0  0  0  0  0  0  0  0  0  0
  131.7320  132.3320   56.1260 C   0  0  0  0  0  0  0  0  0  0  0  0
  131.2540  133.3750   56.9150 C   0  0  0  0  0  0  0  0  0  0  0  0
  130.1030  133.2150   57.6800 C   0  0  0  0  0  0  0  0  0  0  0  0
  129.4210  132.0020   57.6560 C   0  0  0  0  0  0  0  0  0  0  0  0
  127.7580  129.6550   57.6130 C   0  0  0  0  0  0  0  0  0  0  0  0
  126.6570  130.3650   57.1140 C   0  0  0  0  0  0  0  0  0  0  0  0
  125.4580  130.3880   57.8220 C   0  0  0  0  0  0  0  0  0  0  0  0
  125.3580  129.7080   59.0330 C   0  0  0  0  0  0  0  0  0  0  0  0
  126.4470  129.0090   59.5450 C   0  0  0  0  0  0  0  0  0  0  0  0
  127.6440  128.9860   58.8380 C   0  0  0  0  0  0  0  0  0  0  0  0
  129.7580  127.1810   56.7110 N   0  0  0  0  0  0  0  0  0  0  0  0
  128.5170  126.8240   56.0080 C   0  0  0  0  0  0  0  0  0  0  0  0
  127.5420  126.2720   57.0710 C   0  0  0  0  0  0  0  0  0  0  0  0
  128.1490  125.0870   57.8890 C   0  0  0  0  0  0  0  0  0  0  0  0
  127.2620  124.5740   59.0370 C   0  0  0  0  0  0  0  0  0  0  0  0
  125.9170  124.5530   58.8030 N   0  0  0  0  0  0  0  0  0  0  0  0
  125.0890  124.0820   59.7760 C   0  0  0  0  0  0  0  0  0  0  0  0
  123.7260  124.0070   59.6570 O   0  0  0  0  0  0  0  0  0  0  0  0
  125.6550  123.6380   60.9870 C   0  0  0  0  0  0  0  0  0  0  0  0
  125.1320  123.1170   62.1340 N   0  0  0  0  0  0  0  0  0  0  0  0
  126.1880  122.8710   62.9920 N   0  0  0  0  0  0  0  0  0  0  0  0
  127.3380  123.2260   62.3810 N   0  0  0  0  0  0  0  0  0  0  0  0
  128.6170  123.0950   63.0740 C   0  0  0  0  0  0  0  0  0  0  0  0
  129.7040  122.4380   62.2340 C   0  0  0  0  0  0  0  0  0  0  0  0
  129.5500  121.1220   61.7880 C   0  0  0  0  0  0  0  0  0  0  0  0
  130.5420  120.5240   61.0090 C   0  0  0  0  0  0  0  0  0  0  0  0
  131.6890  121.2400   60.6680 C   0  0  0  0  0  0  0  0  0  0  0  0
  131.8440  122.5570   61.1020 C   0  0  0  0  0  0  0  0  0  0  0  0
  133.2520  123.4540   60.6590 Cl  0  0  0  0  0  0  0  0  0  0  0  0
  130.8570  123.1530   61.8880 C   0  0  0  0  0  0  0  0  0  0  0  0
  127.0580  123.7190   61.1170 C   0  0  0  0  0  0  0  0  0  0  0  0
  127.8910  124.1830   60.1820 N   0  0  0  0  0  0  0  0  0  0  0  0
  129.6200  125.3740   58.3240 C   0  0  0  0  0  0  0  0  0  0  0  0
  130.4800  125.9940   57.1940 C   0  0  0  0  0  0  0  0  0  0  0  0
  1  2  2  0
  2  3  1  0
  3  4  1  0
  4  5  2  0
  5  6  1  0
  6  7  2  0
  7  8  1  0
  8  9  2  0
  3 10  1  0
 10 11  2  0
 11 12  1  0
 12 13  2  0
 13 14  1  0
 14 15  2  0
  2 16  1  0
 16 17  1  0
 17 18  1  0
 18 19  1  0
 19 20  1  0
 20 21  2  0
 21 22  1  0
 22 23  1  0
 22 24  2  0
 24 25  1  0
 25 26  2  0
 26 27  1  0
 27 28  1  0
 28 29  1  0
 29 30  2  0
 30 31  1  0
 31 32  2  0
 32 33  1  0
 33 34  1  0
 33 35  2  0
 27 36  1  0
 36 37  2  0
 19 38  1  0
 38 39  1  0
  9  4  1  0
 15 10  1  0
 39 16  1  0
 37 20  1  0
 36 24  1  0
 35 29  1  0
M  END
>  <Binding energies>  (78) 
[-9.95]

>  <Ligand effiencies>  (78) 
[-0.24874999999999997]

>  <Interactions>  (78) 
["V-B:TYR:539:CE2:9848, V-A:LEU:475:CD2:4259, V-B:ASP:366:CB:8183, V-B:PRO:540:CB:9857, V-A:ILE:369:CG2:3237, H-B:ALA:541:N:9863, V-B:ASP:366:CG:8184, V-B:TYR:539:CZ:9849, V-B:TYR:539:CD2:9846, V-B:PRO:540:CA:9855, V-B:GLU:543:CG:9879, V-B:GLU:543:CD:9880, V-B:ALA:541:CB:9864, V-A:LEU:363:CD1:3189, V-A:TYR:531:CE2:4793, V-A:ILE:538:CG2:4863, V-A:ILE:538:CB:4862, V-A:TYR:531:CZ:4794, V-A:PRO:540:CA:4883, V-A:PRO:540:CB:4885, H-A:TYR:531:OH:4795, V-A:TYR:539:C:4867, V-A:PRO:540:N:4884, V-A:MET:535:CE:4835, H-B:ASP:366:OD1:8185, V-A:PRO:540:CD:4887, V-A:ILE:538:CA:4860, V-A:ILE:538:C:4858, H-B:ASP:366:OD2:8186, V-A:TYR:539:CA:4869, H-B:LEU:363:N:8157, H-B:ASN:362:O:8144"]

$$$$
RR28_Rahimova_2017
     RDKit          3D

 46 49  0  0  0  0  0  0  0  0999 V2000
  123.8500  130.7460   56.0790 C   0  0  0  0  0  0  0  0  0  0  0  0
  124.6660  131.1990   57.2850 C   0  0  0  0  0  0  0  0  0  0  0  0
  124.1240  131.8530   58.1740 O   0  0  0  0  0  0  0  0  0  0  0  0
  125.9660  130.8420   57.2940 N   0  0  0  0  0  0  0  0  0  0  0  0
  126.9910  131.1440   58.3190 C   0  0  0  0  0  0  0  0  0  0  0  0
  126.3720  130.8750   59.7210 C   0  0  0  0  0  0  0  0  0  0  0  0
  126.0560  129.5590   60.0930 C   0  0  0  0  0  0  0  0  0  0  0  0
  125.4970  129.2820   61.3360 C   0  0  0  0  0  0  0  0  0  0  0  0
  125.2390  130.3160   62.2380 C   0  0  0  0  0  0  0  0  0  0  0  0
  124.6200  129.9930   63.5970 C   0  0  0  0  0  0  0  0  0  0  0  0
  123.3350  129.6470   63.5000 F   0  0  0  0  0  0  0  0  0  0  0  0
  125.2750  128.9870   64.1760 F   0  0  0  0  0  0  0  0  0  0  0  0
  124.7030  131.0670   64.3830 F   0  0  0  0  0  0  0  0  0  0  0  0
  125.5470  131.6310   61.8790 C   0  0  0  0  0  0  0  0  0  0  0  0
  126.1070  131.9070   60.6340 C   0  0  0  0  0  0  0  0  0  0  0  0
  127.5360  132.6060   58.1390 C   0  0  0  0  0  0  0  0  0  0  0  0
  128.3170  132.8110   56.8160 C   0  0  0  0  0  0  0  0  0  0  0  0
  129.4320  131.8490   56.8380 N   0  0  0  0  0  0  0  0  0  0  0  0
  130.6540  132.2240   57.3070 C   0  0  0  0  0  0  0  0  0  0  0  0
  130.9220  133.3990   57.5670 O   0  0  0  0  0  0  0  0  0  0  0  0
  131.7890  131.1730   57.3590 C   0  0  0  0  0  0  0  0  0  0  0  0
  132.4190  130.9250   58.7570 C   0  0  0  0  0  0  0  0  0  0  0  0
  131.5000  130.2080   59.7740 C   0  0  0  0  0  0  0  0  0  0  0  0
  131.4990  130.6140   60.9390 O   0  0  0  0  0  0  0  0  0  0  0  0
  130.6260  129.2560   59.3410 N   0  0  0  0  0  0  0  0  0  0  0  0
  130.7900  128.5240   58.0790 C   0  0  0  0  0  0  0  0  0  0  0  0
  131.7220  127.3300   58.3810 C   0  0  0  0  0  0  0  0  0  0  0  0
  131.2230  126.3800   59.5250 C   0  0  0  0  0  0  0  0  0  0  0  0
  132.3510  125.5430   59.9860 N   0  0  0  0  0  0  0  0  0  0  0  0
  133.1890  124.7930   59.2420 C   0  0  0  0  0  0  0  0  0  0  0  0
  134.2560  124.0140   60.0040 C   0  0  0  0  0  0  0  0  0  0  0  0
  133.1340  124.7090   58.0160 O   0  0  0  0  0  0  0  0  0  0  0  0
  130.1500  125.4260   58.9070 C   0  0  0  0  0  0  0  0  0  0  0  0
  129.6660  125.5720   57.5960 C   0  0  0  0  0  0  0  0  0  0  0  0
  128.7090  124.7000   57.0830 C   0  0  0  0  0  0  0  0  0  0  0  0
  128.2090  123.6600   57.8700 C   0  0  0  0  0  0  0  0  0  0  0  0
  127.1620  122.6920   57.3200 C   0  0  0  0  0  0  0  0  0  0  0  0
  126.0970  122.6460   58.1230 F   0  0  0  0  0  0  0  0  0  0  0  0
  126.7700  123.1100   56.1170 F   0  0  0  0  0  0  0  0  0  0  0  0
  127.6380  121.4520   57.1990 F   0  0  0  0  0  0  0  0  0  0  0  0
  128.6730  123.5070   59.1770 C   0  0  0  0  0  0  0  0  0  0  0  0
  129.6290  124.3810   59.6860 C   0  0  0  0  0  0  0  0  0  0  0  0
  130.6660  127.2560   60.7130 C   0  0  0  0  0  0  0  0  0  0  0  0
  129.8240  128.4960   60.3090 C   0  0  0  0  0  0  0  0  0  0  0  0
  128.9930  130.4470   56.8020 C   0  0  0  0  0  0  0  0  0  0  0  0
  128.2070  130.1830   58.1120 C   0  0  0  0  0  0  0  0  0  0  0  0
  1  2  1  0
  2  3  2  0
  2  4  1  0
  4  5  1  0
  5  6  1  0
  6  7  2  0
  7  8  1  0
  8  9  2  0
  9 10  1  0
 10 11  1  0
 10 12  1  0
 10 13  1  0
  9 14  1  0
 14 15  2  0
  5 16  1  0
 16 17  1  0
 17 18  1  0
 18 19  1  0
 19 20  2  0
 19 21  1  0
 21 22  1  0
 22 23  1  0
 23 24  2  0
 23 25  1  0
 25 26  1  0
 26 27  1  0
 27 28  1  0
 28 29  1  0
 29 30  1  0
 30 31  1  0
 30 32  2  0
 28 33  1  0
 33 34  2  0
 34 35  1  0
 35 36  2  0
 36 37  1  0
 37 38  1  0
 37 39  1  0
 37 40  1  0
 36 41  1  0
 41 42  2  0
 28 43  1  0
 43 44  1  0
 18 45  1  0
 45 46  1  0
 46  5  1  0
 15  6  1  0
 44 25  1  0
 42 33  1  0
M  END
>  <Binding energies>  (79) 
[-8.86]

>  <Ligand effiencies>  (79) 
[-0.18458333333333332]

>  <Interactions>  (79) 
["V-B:TYR:539:CE2:9848, H-B:TYR:539:OH:9850, V-B:MET:535:CE:9807, V-B:PRO:540:CB:9857, V-A:ILE:369:CG2:3237, V-B:ASP:366:CG:8184, V-B:TYR:539:CZ:9849, V-B:TYR:539:CD2:9846, V-B:TYR:539:CG:9844, V-B:TYR:539:CE1:9847, V-B:PRO:540:CA:9855, V-B:TYR:484:CZ:9318, V-B:GLU:543:CD:9880, V-A:ILE:369:CD1:3239, V-A:TYR:539:CD1:4873, V-B:GLY:454:CA:9020, V-A:LEU:363:CD1:3189, V-A:PRO:540:CB:4885, H-A:ASP:366:OD2:3215, V-A:ASP:366:CB:3212, V-B:PRO:540:N:9856, V-A:TYR:539:CE1:4875, H-A:TYR:539:N:4870, V-B:TYR:539:CD1:9845, V-B:TYR:539:C:9839, V-B:PRO:540:CD:9859, V-A:MET:535:CE:4835, H-B:TYR:531:OH:9767, V-A:ASP:366:CG:3213, H-A:ASP:366:OD1:3214, V-B:TYR:531:CZ:9766, V-B:ARG:545:CZ:9898, V-A:TYR:539:CZ:4877, V-A:ASP:366:CA:3210, V-B:TYR:539:CA:9841, V-A:TYR:539:CG:4872, V-B:ASP:366:C:8179, V-A:TYR:539:CE2:4876, V-B:TYR:539:CB:9843, V-B:GLY:453:C:9013, V-B:ILE:538:C:9830, H-A:TYR:539:OH:4878, V-A:TYR:539:CD2:4874, V-B:PRO:540:CG:9858, V-B:TYR:531:CE1:9764, V-B:GLY:453:CA:9015, V-A:ILE:369:CB:3236, V-B:ASN:370:CB:8216"]

$$$$
RR29_Rahimova_2017
     RDKit          3D

 18 19  0  0  0  0  0  0  0  0999 V2000
  127.4890  133.2300   63.4510 C   0  0  0  0  0  0  0  0  0  0  0  0
  128.0630  131.8270   63.5850 C   0  0  0  0  0  0  0  0  0  0  0  0
  128.5320  131.2350   62.2380 C   0  0  0  0  0  0  0  0  0  0  0  0
  129.9320  131.7520   61.8450 C   0  0  0  0  0  0  0  0  0  0  0  0
  129.9960  132.1950   60.3910 C   0  0  0  0  0  0  0  0  0  0  0  0
  128.9270  132.9200   59.8280 C   0  0  0  0  0  0  0  0  0  0  0  0
  128.9660  133.3390   58.4910 C   0  0  0  0  0  0  0  0  0  0  0  0
  130.0900  133.0020   57.7450 C   0  0  0  0  0  0  0  0  0  0  0  0
  131.1290  132.2970   58.2840 C   0  0  0  0  0  0  0  0  0  0  0  0
  131.1220  131.8780   59.6100 C   0  0  0  0  0  0  0  0  0  0  0  0
  132.1000  132.1400   57.3470 O   0  0  0  0  0  0  0  0  0  0  0  0
  131.5390  132.5850   56.1410 C   0  0  0  0  0  0  0  0  0  0  0  0
  130.3780  133.3090   56.4520 O   0  0  0  0  0  0  0  0  0  0  0  0
  128.0940  131.2850   64.7470 N   0  0  0  0  0  0  0  0  0  0  0  0
  128.5330  129.9840   64.8580 N   0  0  0  0  0  0  0  0  0  0  0  0
  127.9180  129.0440   65.5940 C   0  0  0  0  0  0  0  0  0  0  0  0
  126.8000  129.2350   66.2950 N   0  0  0  0  0  0  0  0  0  0  0  0
  128.4600  127.8350   65.6280 N   0  0  0  0  0  0  0  0  0  0  0  0
  1  2  1  0
  2  3  1  0
  3  4  1  0
  4  5  1  0
  5  6  2  0
  6  7  1  0
  7  8  2  0
  8  9  1  0
  9 10  2  0
  9 11  1  0
 11 12  1  0
 12 13  1  0
  2 14  2  0
 14 15  1  0
 15 16  1  0
 16 17  1  0
 16 18  2  0
 10  5  1  0
 13  8  1  0
M  CHG  1  18   1
M  END
>  <Binding energies>  (80) 
[-7.36]

>  <Ligand effiencies>  (80) 
[-0.32]

>  <Interactions>  (80) 
["V-A:GLU:543:CD:4908, V-A:GLU:543:CB:4906, V-B:HIS:456:CE1:9041, V-B:TYR:484:CZ:9318, V-B:GLU:543:CG:9879, V-B:GLU:543:CD:9880, V-A:GLU:543:CG:4907, H-B:GLU:543:OE1:9881, V-A:TYR:539:CD1:4873, H-A:GLU:543:OE2:4910, V-A:LEU:363:CD1:3189, V-A:ILE:538:CG2:4863, V-A:ILE:538:CB:4862, H-A:GLU:543:OE1:4909, V-B:LEU:475:CD2:9230, V-A:ALA:541:CB:4892, V-A:PRO:540:CA:4883, V-A:PRO:540:CB:4885, H-B:GLU:543:OE2:9882, V-A:TYR:539:CE1:4875, V-A:TYR:539:C:4867, H-A:TYR:539:N:4870, V-A:PRO:540:N:4884, H-B:TYR:484:OH:9319, V-A:PRO:540:CD:4887, V-A:ILE:538:CA:4860, V-A:TYR:539:CG:4872, V-A:TYR:539:CA:4869"]

$$$$
RR30_Rahimova_2017
     RDKit          3D

 18 19  0  0  0  0  0  0  0  0999 V2000
  126.7070  131.4580   56.4190 C   0  0  0  0  0  0  0  0  0  0  0  0
  127.4980  132.6020   55.7680 C   0  0  0  0  0  0  0  0  0  0  0  0
  128.8910  132.7350   56.3430 C   0  0  0  0  0  0  0  0  0  0  0  0
  129.3730  133.7030   57.0820 N   0  0  0  0  0  0  0  0  0  0  0  0
  130.6970  133.3620   57.3430 N   0  0  0  0  0  0  0  0  0  0  0  0
  130.9050  132.2240   56.7310 C   0  0  0  0  0  0  0  0  0  0  0  0
  132.3910  131.2750   56.7000 S   0  0  0  0  0  0  0  0  0  0  0  0
  131.9610  129.9810   57.9070 C   0  0  0  0  0  0  0  0  0  0  0  0
  131.1190  130.5260   59.0640 C   0  0  0  0  0  0  0  0  0  0  0  0
  129.9150  130.7270   58.8900 O   0  0  0  0  0  0  0  0  0  0  0  0
  131.7880  130.7840   60.2100 N   0  0  0  0  0  0  0  0  0  0  0  0
  131.2450  131.2820   61.3860 C   0  0  0  0  0  0  0  0  0  0  0  0
  131.8620  131.8940   62.3710 N   0  0  0  0  0  0  0  0  0  0  0  0
  130.9940  132.2540   63.3950 N   0  0  0  0  0  0  0  0  0  0  0  0
  129.7480  131.9100   63.1660 C   0  0  0  0  0  0  0  0  0  0  0  0
  128.6210  132.1900   64.1330 C   0  0  0  0  0  0  0  0  0  0  0  0
  129.5370  131.1000   61.6380 S   0  0  0  0  0  0  0  0  0  0  0  0
  129.8040  131.7660   56.0820 O   0  0  0  0  0  0  0  0  0  0  0  0
  1  2  1  0
  2  3  1  0
  3  4  2  0
  4  5  1  0
  5  6  2  0
  6  7  1  0
  7  8  1  0
  8  9  1  0
  9 10  2  0
  9 11  1  0
 11 12  1  0
 12 13  2  0
 13 14  1  0
 14 15  2  0
 15 16  1  0
 15 17  1  0
  6 18  1  0
 18  3  1  0
 17 12  1  0
M  END
>  <Binding energies>  (81) 
[-6.84]

>  <Ligand effiencies>  (81) 
[-0.36]

>  <Interactions>  (81) 
["V-A:GLU:543:CD:4908, V-B:TYR:484:CE2:9317, V-A:GLU:543:CG:4907, V-A:TYR:539:CD1:4873, V-A:TYR:531:CE2:4793, V-A:TYR:531:CZ:4794, V-A:ALA:541:CB:4892, V-A:PRO:540:CA:4883, H-A:ASP:366:OD2:3215, V-A:ASP:366:CB:3212, V-A:TYR:539:CE1:4875, H-A:TYR:531:OH:4795, H-A:TYR:539:N:4870, V-A:MET:535:CE:4835, H-A:ALA:541:N:4891, V-A:TYR:539:CZ:4877, V-A:TYR:539:CE2:4876, V-A:TYR:539:CD2:4874"]

$$$$
RR31_Rahimova_2017
     RDKit          3D

 18 19  0  0  0  0  0  0  0  0999 V2000
  122.6220  131.1250   61.0240 C   0  0  0  0  0  0  0  0  0  0  0  0
  123.9610  131.3930   60.3500 C   0  0  0  0  0  0  0  0  0  0  0  0
  124.2570  130.7540   59.1450 C   0  0  0  0  0  0  0  0  0  0  0  0
  125.4720  130.9810   58.5020 C   0  0  0  0  0  0  0  0  0  0  0  0
  126.4260  131.8590   59.0400 C   0  0  0  0  0  0  0  0  0  0  0  0
  127.6520  132.0890   58.4130 N   0  0  0  0  0  0  0  0  0  0  0  0
  127.7660  132.2390   56.9490 C   0  0  0  0  0  0  0  0  0  0  0  0
  129.2060  132.0740   56.4080 C   0  0  0  0  0  0  0  0  0  0  0  0
  130.1240  133.0050   57.0690 N   0  0  0  0  0  0  0  0  0  0  0  0
  131.4910  132.8960   56.5520 C   0  0  0  0  0  0  0  0  0  0  0  0
  131.9830  131.4380   56.4510 C   0  0  0  0  0  0  0  0  0  0  0  0
  132.6190  130.9450   57.7610 C   0  0  0  0  0  0  0  0  0  0  0  0
  132.4890  129.4210   57.8650 N   0  0  0  0  0  0  0  0  0  0  0  0
  130.1120  132.6910   58.4980 C   0  0  0  0  0  0  0  0  0  0  0  0
  128.6970  132.8840   59.0900 C   0  0  0  0  0  0  0  0  0  0  0  0
  126.1200  132.4880   60.2570 C   0  0  0  0  0  0  0  0  0  0  0  0
  124.9030  132.2680   60.9130 C   0  0  0  0  0  0  0  0  0  0  0  0
  124.6330  132.9790   62.2330 C   0  0  0  0  0  0  0  0  0  0  0  0
  1  2  1  0
  2  3  2  0
  3  4  1  0
  4  5  2  0
  5  6  1  0
  6  7  1  0
  7  8  1  0
  8  9  1  0
  9 10  1  0
 10 11  1  0
 11 12  1  0
 12 13  1  0
  9 14  1  0
 14 15  1  0
  5 16  1  0
 16 17  2  0
 17 18  1  0
 17  2  1  0
 15  6  1  0
M  CHG  1  13   1
M  END
>  <Binding energies>  (82) 
[-6.8]

>  <Ligand effiencies>  (82) 
[-0.3238095238095238]

>  <Interactions>  (82) 
["V-B:ASP:366:CB:8183, V-B:ASP:366:CG:8184, V-A:TYR:539:CD1:4873, V-A:LEU:363:CD1:3189, V-A:TYR:531:CE2:4793, V-A:ILE:538:CG2:4863, V-A:ILE:538:CB:4862, V-A:TYR:531:CZ:4794, V-A:PRO:540:CA:4883, V-B:ILE:369:CG2:8208, V-A:PRO:540:CB:4885, H-A:ASP:366:OD2:3215, V-A:ASP:366:CB:3212, V-B:ILE:369:CG1:8209, V-A:TYR:539:CE1:4875, H-A:TYR:531:OH:4795, V-A:TYR:539:C:4867, H-A:TYR:539:N:4870, V-B:ILE:369:CB:8207, V-A:PRO:540:N:4884, V-A:MET:535:CE:4835, V-A:ASP:366:CG:3213, V-B:ASP:366:CA:8181, V-A:PRO:540:CD:4887, V-A:ILE:538:CA:4860, V-A:TYR:539:CZ:4877"]

$$$$
RR32_Rahimova_2017
     RDKit          3D

 18 20  0  0  0  0  0  0  0  0999 V2000
  123.5570  132.4240   61.7350 C   0  0  0  0  0  0  0  0  0  0  0  0
  124.8360  133.2440   61.5990 C   0  0  0  0  0  0  0  0  0  0  0  0
  126.0590  132.5830   61.7170 C   0  0  0  0  0  0  0  0  0  0  0  0
  127.2470  133.2980   61.5960 C   0  0  0  0  0  0  0  0  0  0  0  0
  128.4580  132.6390   61.7140 N   0  0  0  0  0  0  0  0  0  0  0  0
  129.4170  132.7850   60.6040 C   0  0  0  0  0  0  0  0  0  0  0  0
  130.6570  131.8710   60.7450 C   0  0  0  0  0  0  0  0  0  0  0  0
  131.3510  132.1500   62.0010 N   0  0  0  0  0  0  0  0  0  0  0  0
  132.5380  131.3100   62.1190 C   0  0  0  0  0  0  0  0  0  0  0  0
  130.4260  131.8750   63.0980 C   0  0  0  0  0  0  0  0  0  0  0  0
  129.1810  132.7870   62.9920 C   0  0  0  0  0  0  0  0  0  0  0  0
  127.2750  134.6370   61.3670 N   0  0  0  0  0  0  0  0  0  0  0  0
  126.0990  135.3100   61.2500 C   0  0  0  0  0  0  0  0  0  0  0  0
  126.1590  136.7050   61.0130 C   0  0  0  0  0  0  0  0  0  0  0  0
  124.9880  137.4450   60.8850 C   0  0  0  0  0  0  0  0  0  0  0  0
  123.7490  136.8250   60.9870 C   0  0  0  0  0  0  0  0  0  0  0  0
  123.6540  135.4560   61.2190 C   0  0  0  0  0  0  0  0  0  0  0  0
  124.8270  134.6580   61.3580 C   0  0  0  0  0  0  0  0  0  0  0  0
  1  2  1  0
  2  3  2  0
  3  4  1  0
  4  5  1  0
  5  6  1  0
  6  7  1  0
  7  8  1  0
  8  9  1  0
  8 10  1  0
 10 11  1  0
  4 12  2  0
 12 13  1  0
 13 14  2  0
 14 15  1  0
 15 16  2  0
 16 17  1  0
 17 18  2  0
 18  2  1  0
 11  5  1  0
 18 13  1  0
M  END
>  <Binding energies>  (83) 
[-6.35]

>  <Ligand effiencies>  (83) 
[-0.35277777777777775]

>  <Interactions>  (83) 
["V-A:GLU:543:CD:4908, V-A:GLU:543:CG:4907, V-A:TYR:539:CD1:4873, V-B:LEU:475:CD2:9230, V-A:ALA:541:CB:4892, V-A:PRO:540:CA:4883, V-B:ILE:369:CG2:8208, V-A:PRO:540:CB:4885, V-B:ILE:369:CG1:8209, V-A:TYR:539:CE1:4875, V-A:TYR:539:C:4867, V-A:ALA:541:CA:4890, V-A:PRO:540:N:4884, V-A:PRO:540:C:4881, H-A:ALA:541:N:4891, V-B:SER:385:CA:8378, V-B:HIS:383:CD2:8363, V-B:SER:385:CB:8380, V-A:TYR:539:CB:4871, V-B:LEU:373:CD1:8251, V-A:ASN:362:CB:3176, V-B:SER:385:C:8376"]

$$$$
RR5_Rahimova_2017
     RDKit          3D

 45 50  0  0  0  0  0  0  0  0999 V2000
  131.1490  129.3890   59.4270 O   0  0  0  0  0  0  0  0  0  0  0  0
  130.0190  129.3960   59.9130 C   0  0  0  0  0  0  0  0  0  0  0  0
  129.8430  129.2510   61.4360 C   0  0  0  0  0  0  0  0  0  0  0  0
  128.5720  129.9780   62.0040 C   0  0  2  0  0  0  0  0  0  0  0  0
  128.3520  131.3440   61.4870 N   0  0  0  0  0  0  0  0  0  0  0  0
  129.3410  132.3160   61.5560 C   0  0  0  0  0  0  0  0  0  0  0  0
  130.4880  132.1710   61.9870 O   0  0  0  0  0  0  0  0  0  0  0  0
  128.8370  133.4680   61.0810 O   0  0  0  0  0  0  0  0  0  0  0  0
  127.5190  133.5370   60.5450 C   0  0  0  0  0  0  0  0  0  0  0  0
  126.5000  133.9240   61.6400 C   0  0  0  0  0  0  0  0  0  0  0  0
  125.6820  135.1570   61.3020 C   0  0  0  0  0  0  0  0  0  0  0  0
  126.1090  136.4550   61.0060 C   0  0  0  0  0  0  0  0  0  0  0  0
  125.1710  137.4420   60.6980 C   0  0  0  0  0  0  0  0  0  0  0  0
  123.8090  137.1370   60.6860 C   0  0  0  0  0  0  0  0  0  0  0  0
  123.3800  135.8420   60.9840 C   0  0  0  0  0  0  0  0  0  0  0  0
  124.3190  134.8560   61.2930 C   0  0  0  0  0  0  0  0  0  0  0  0
  124.1530  133.4380   61.6470 C   0  0  0  0  0  0  0  0  0  0  0  0
  123.0050  132.6540   61.7900 C   0  0  0  0  0  0  0  0  0  0  0  0
  123.1270  131.3150   62.1630 C   0  0  0  0  0  0  0  0  0  0  0  0
  124.3890  130.7620   62.3900 C   0  0  0  0  0  0  0  0  0  0  0  0
  125.5320  131.5470   62.2430 C   0  0  0  0  0  0  0  0  0  0  0  0
  125.4160  132.8870   61.8660 C   0  0  0  0  0  0  0  0  0  0  0  0
  128.6000  130.0050   63.5530 C   0  0  0  0  0  0  0  0  0  0  0  0
  128.1510  129.1320   64.2680 O   0  0  0  0  0  0  0  0  0  0  0  0
  129.2210  131.1440   63.9810 O   0  0  0  0  0  0  0  0  0  0  0  0
  128.8770  129.5560   59.2070 N   0  0  0  0  0  0  0  0  0  0  0  0
  128.5840  129.7310   57.7530 C   0  0  0  0  0  0  0  0  0  0  0  0
  129.6010  130.8500   57.3470 C   0  0  0  0  0  0  0  0  0  0  0  0
  129.4800  132.1630   57.8310 C   0  0  0  0  0  0  0  0  0  0  0  0
  130.3920  133.1490   57.4640 C   0  0  0  0  0  0  0  0  0  0  0  0
  131.4350  132.8410   56.5970 C   0  0  0  0  0  0  0  0  0  0  0  0
  131.5800  131.5490   56.1030 C   0  0  0  0  0  0  0  0  0  0  0  0
  130.6740  130.5620   56.4790 C   0  0  0  0  0  0  0  0  0  0  0  0
  128.8780  128.3650   57.0500 C   0  0  0  0  0  0  0  0  0  0  0  0
  128.2650  128.0110   55.8370 C   0  0  0  0  0  0  0  0  0  0  0  0
  128.5270  126.7810   55.2390 C   0  0  0  0  0  0  0  0  0  0  0  0
  129.4040  125.8880   55.8460 C   0  0  0  0  0  0  0  0  0  0  0  0
  130.0270  126.2170   57.0450 C   0  0  0  0  0  0  0  0  0  0  0  0
  129.7710  127.4500   57.6370 C   0  0  0  0  0  0  0  0  0  0  0  0
  127.0930  130.2040   57.6650 C   0  0  0  0  0  0  0  0  0  0  0  0
  126.5490  130.6590   56.4500 C   0  0  0  0  0  0  0  0  0  0  0  0
  125.2270  131.0880   56.3660 C   0  0  0  0  0  0  0  0  0  0  0  0
  124.4210  131.0620   57.4980 C   0  0  0  0  0  0  0  0  0  0  0  0
  124.9260  130.6040   58.7090 C   0  0  0  0  0  0  0  0  0  0  0  0
  126.2480  130.1770   58.7890 C   0  0  0  0  0  0  0  0  0  0  0  0
  1  2  2  0
  2  3  1  0
  4  3  1  6
  4  5  1  0
  5  6  1  0
  6  7  2  0
  6  8  1  0
  8  9  1  0
  9 10  1  0
 10 11  1  0
 11 12  2  0
 12 13  1  0
 13 14  2  0
 14 15  1  0
 15 16  2  0
 16 17  1  0
 17 18  2  0
 18 19  1  0
 19 20  2  0
 20 21  1  0
 21 22  2  0
  4 23  1  0
 23 24  2  0
 23 25  1  0
  2 26  1  0
 26 27  1  0
 27 28  1  0
 28 29  2  0
 29 30  1  0
 30 31  2  0
 31 32  1  0
 32 33  2  0
 27 34  1  0
 34 35  2  0
 35 36  1  0
 36 37  2  0
 37 38  1  0
 38 39  2  0
 27 40  1  0
 40 41  2  0
 41 42  1  0
 42 43  2  0
 43 44  1  0
 44 45  2  0
 22 10  1  0
 33 28  1  0
 39 34  1  0
 45 40  1  0
 16 11  1  0
 22 17  1  0
M  END
>  <Binding energies>  (84) 
[-10.02]

>  <Ligand effiencies>  (84) 
[-0.20875]

>  <Interactions>  (84) 
["V-A:GLU:543:CD:4908, V-B:ASP:366:CB:8183, V-B:TYR:539:CZ:9849, V-A:GLU:543:CG:4907, V-A:TYR:539:CD1:4873, V-A:LEU:363:CD1:3189, V-A:TYR:531:CE2:4793, V-A:ILE:538:CG2:4863, V-A:ILE:538:CB:4862, V-A:TYR:531:CZ:4794, H-A:GLU:543:OE1:4909, V-B:LEU:475:CD2:9230, V-A:PRO:540:CA:4883, V-B:ILE:369:CG2:8208, V-A:PRO:540:CB:4885, V-B:ILE:369:CG1:8209, V-A:TYR:539:CE1:4875, V-A:TYR:539:C:4867, V-B:ILE:369:CB:8207, V-A:PRO:540:N:4884, V-A:MET:535:CE:4835, H-A:ALA:541:N:4891, V-B:TYR:531:CZ:9766, V-A:PRO:540:CD:4887, V-A:ILE:538:CA:4860, V-A:TYR:539:CZ:4877, V-B:SER:385:CA:8378, V-B:HIS:383:CD2:8363, V-B:SER:385:CB:8380, V-B:LEU:373:CD1:8251, V-A:TYR:539:CA:4869, V-B:SER:385:C:8376, V-B:TYR:531:CE1:9764, V-B:VAL:384:C:8368"]

$$$$
