1a_Ghoteimi_2023
     RDKit          3D

 67 70  0  0  0  0  0  0  0  0999 V2000
  126.8160  131.4170   57.4140 C   0  0  0  0  0  0  0  0  0  0  0  0
  126.0390  130.2220   56.8530 C   0  0  0  0  0  0  0  0  0  0  0  0
  124.8090  130.0890   57.5540 O   0  0  0  0  0  0  0  0  0  0  0  0
  124.3990  131.0350   58.4370 C   0  0  0  0  0  0  0  0  0  0  0  0
  123.8560  132.0910   58.1000 O   0  0  0  0  0  0  0  0  0  0  0  0
  124.6690  130.6670   59.8680 C   0  0  0  0  0  0  0  0  0  0  0  0
  123.8190  131.0670   60.9100 C   0  0  0  0  0  0  0  0  0  0  0  0
  124.0970  130.7130   62.2280 C   0  0  0  0  0  0  0  0  0  0  0  0
  125.2330  129.9460   62.5270 C   0  0  0  0  0  0  0  0  0  0  0  0
  125.6120  129.5360   63.8200 N   0  0  0  0  0  0  0  0  0  0  0  0
  124.9760  129.6990   65.0000 C   0  0  0  0  0  0  0  0  0  0  0  0
  123.8870  130.2520   65.1570 O   0  0  0  0  0  0  0  0  0  0  0  0
  125.6990  129.1300   66.2200 C   0  0  0  0  0  0  0  0  0  0  0  0
  127.3390  129.8800   66.4420 S   0  0  0  0  0  0  0  0  0  0  0  0
  128.4330  128.5540   66.8970 C   0  0  0  0  0  0  0  0  0  0  0  0
  128.7520  128.5320   68.2130 N   0  0  0  0  0  0  0  0  0  0  0  0
  129.5770  127.5640   68.6920 C   0  0  0  0  0  0  0  0  0  0  0  0
  129.8660  127.5960   70.1650 C   0  0  0  0  0  0  0  0  0  0  0  0
  129.1410  126.8020   71.0680 C   0  0  0  0  0  0  0  0  0  0  0  0
  129.4120  126.8320   72.4330 C   0  0  0  0  0  0  0  0  0  0  0  0
  130.4130  127.6580   72.9390 C   0  0  0  0  0  0  0  0  0  0  0  0
  130.6150  127.6220   74.3050 O   0  0  0  0  0  0  0  0  0  0  0  0
  129.5050  127.8100   75.1760 C   0  0  0  0  0  0  0  0  0  0  0  0
  131.1440  128.4600   72.0510 C   0  0  0  0  0  0  0  0  0  0  0  0
  130.8700  128.4270   70.6870 C   0  0  0  0  0  0  0  0  0  0  0  0
  130.1030  126.5890   67.8360 C   0  0  0  0  0  0  0  0  0  0  0  0
  129.8070  126.6060   66.4660 C   0  0  0  0  0  0  0  0  0  0  0  0
  130.4290  125.5530   65.6080 C   0  0  0  0  0  0  0  0  0  0  0  0
  129.8510  124.2830   65.4980 C   0  0  0  0  0  0  0  0  0  0  0  0
  130.4290  123.3130   64.6840 C   0  0  0  0  0  0  0  0  0  0  0  0
  131.5880  123.5920   63.9600 C   0  0  0  0  0  0  0  0  0  0  0  0
  132.0880  122.5680   63.1800 O   0  0  0  0  0  0  0  0  0  0  0  0
  131.2490  121.9690   62.1990 C   0  0  0  0  0  0  0  0  0  0  0  0
  132.1660  124.8670   64.0620 C   0  0  0  0  0  0  0  0  0  0  0  0
  131.5870  125.8360   64.8770 C   0  0  0  0  0  0  0  0  0  0  0  0
  128.9430  127.6140   65.9760 C   0  0  0  0  0  0  0  0  0  0  0  0
  128.5840  127.6740   64.5550 C   0  0  0  0  0  0  0  0  0  0  0  0
  128.3020  127.7200   63.4340 N   0  0  0  0  0  0  0  0  0  0  0  0
  126.0820  129.5500   61.4930 C   0  0  0  0  0  0  0  0  0  0  0  0
  125.8030  129.9050   60.1760 C   0  0  0  0  0  0  0  0  0  0  0  0
  126.7949  131.3846   58.5133 H   0  0  0  0  0  0  0  0  0  0  0  0
  127.8585  131.3727   57.0658 H   0  0  0  0  0  0  0  0  0  0  0  0
  126.3525  132.3518   57.0658 H   0  0  0  0  0  0  0  0  0  0  0  0
  125.8368  130.3845   55.7840 H   0  0  0  0  0  0  0  0  0  0  0  0
  126.6341  129.3052   56.9767 H   0  0  0  0  0  0  0  0  0  0  0  0
  122.9245  131.6659   60.6839 H   0  0  0  0  0  0  0  0  0  0  0  0
  123.4243  131.0355   63.0364 H   0  0  0  0  0  0  0  0  0  0  0  0
  126.4760  129.0160   63.8500 H   0  0  0  0  0  0  0  0  0  0  0  0
  125.0931  129.3265   67.1168 H   0  0  0  0  0  0  0  0  0  0  0  0
  125.8350  128.0496   66.0641 H   0  0  0  0  0  0  0  0  0  0  0  0
  128.3444  126.1443   70.6899 H   0  0  0  0  0  0  0  0  0  0  0  0
  128.8305  126.1977   73.1182 H   0  0  0  0  0  0  0  0  0  0  0  0
  129.8448  127.7525   76.2206 H   0  0  0  0  0  0  0  0  0  0  0  0
  129.0562  128.7969   74.9902 H   0  0  0  0  0  0  0  0  0  0  0  0
  128.7562  127.0259   74.9902 H   0  0  0  0  0  0  0  0  0  0  0  0
  131.9376  129.1182   72.4343 H   0  0  0  0  0  0  0  0  0  0  0  0
  131.4514  129.0644   70.0046 H   0  0  0  0  0  0  0  0  0  0  0  0
  130.7550  125.8018   68.2426 H   0  0  0  0  0  0  0  0  0  0  0  0
  128.9338  124.0499   66.0586 H   0  0  0  0  0  0  0  0  0  0  0  0
  129.9674  122.3172   64.6111 H   0  0  0  0  0  0  0  0  0  0  0  0
  130.4510  121.3992   62.6975 H   0  0  0  0  0  0  0  0  0  0  0  0
  130.8019  122.7533   61.5706 H   0  0  0  0  0  0  0  0  0  0  0  0
  131.8456  121.2914   61.5706 H   0  0  0  0  0  0  0  0  0  0  0  0
  133.0796  125.1015   63.4960 H   0  0  0  0  0  0  0  0  0  0  0  0
  132.0449  126.8338   64.9465 H   0  0  0  0  0  0  0  0  0  0  0  0
  126.9778  128.9533   61.7199 H   0  0  0  0  0  0  0  0  0  0  0  0
  126.4794  129.5841   59.3701 H   0  0  0  0  0  0  0  0  0  0  0  0
  1  2  1  0
  2  3  1  0
  3  4  1  0
  4  5  2  0
  4  6  1  0
  6  7  2  0
  7  8  1  0
  8  9  2  0
  9 10  1  0
 10 11  1  0
 11 12  2  0
 11 13  1  0
 13 14  1  0
 14 15  1  0
 15 16  2  0
 16 17  1  0
 17 18  1  0
 18 19  2  0
 19 20  1  0
 20 21  2  0
 21 22  1  0
 22 23  1  0
 21 24  1  0
 24 25  2  0
 17 26  2  0
 26 27  1  0
 27 28  1  0
 28 29  2  0
 29 30  1  0
 30 31  2  0
 31 32  1  0
 32 33  1  0
 31 34  1  0
 34 35  2  0
 27 36  2  0
 36 37  1  0
 37 38  3  0
  9 39  1  0
 39 40  2  0
 40  6  1  0
 36 15  1  0
 25 18  1  0
 35 28  1  0
  1 41  1  0
  1 42  1  0
  1 43  1  0
  2 44  1  0
  2 45  1  0
  7 46  1  0
  8 47  1  0
 10 48  1  0
 13 49  1  0
 13 50  1  0
 19 51  1  0
 20 52  1  0
 23 53  1  0
 23 54  1  0
 23 55  1  0
 24 56  1  0
 25 57  1  0
 26 58  1  0
 29 59  1  0
 30 60  1  0
 33 61  1  0
 33 62  1  0
 33 63  1  0
 34 64  1  0
 35 65  1  0
 39 66  1  0
 40 67  1  0
M  END
>  <Binding energies>  (1) 
[-9.69]

>  <Ligand effiencies>  (1) 
[-0.23634146341463413]

>  <Interactions>  (1) 
["V-A:LEU:475:CD2:4258, H-B:GLU:543:OE2:9881, H-B:TYR:531:OH:9766, V-A:GLU:543:CD:4908, V-A:GLU:543:CG:4907, V-A:GLU:543:CB:4906, V-B:HIS:456:CE1:9041, V-A:HIS:456:CE1:4069, V-B:GLU:543:CG:9878, V-B:GLU:543:CD:9879, V-A:TYR:539:CZ:4877, V-A:TYR:539:CE2:4876, H-B:GLU:543:OE1:9880, V-B:ASP:366:CB:8183, V-B:ARG:545:CZ:9897, V-B:ASP:366:CG:8184, H-B:TYR:484:OH:9319, V-B:ASP:366:CA:8181, H-B:GLY:454:N:9021, H-B:ARG:545:NE:9895, V-B:ILE:369:CD1:8210, H-A:TYR:539:OH:4878, H-A:LYS:547:NZ:4951, V-A:LYS:547:CE:4950, V-A:GLY:544:C:4912"]

$$$$
1a_Grossjean_2025
     RDKit          3D

 45 46  0  0  0  0  0  0  0  0999 V2000
  128.1400  132.0270   73.0610 C   0  0  0  0  0  0  0  0  0  0  0  0
  128.5270  130.7720   72.2730 C   0  0  0  0  0  0  0  0  0  0  0  0
  129.7930  130.3030   72.7190 O   0  0  0  0  0  0  0  0  0  0  0  0
  130.0860  128.9760   72.7270 C   0  0  0  0  0  0  0  0  0  0  0  0
  130.2560  128.3240   73.7620 O   0  0  0  0  0  0  0  0  0  0  0  0
  130.2000  128.3850   71.3520 C   0  0  0  0  0  0  0  0  0  0  0  0
  129.1340  127.6320   70.8410 C   0  0  0  0  0  0  0  0  0  0  0  0
  129.2110  127.0680   69.5710 C   0  0  0  0  0  0  0  0  0  0  0  0
  130.3520  127.2410   68.7870 C   0  0  0  0  0  0  0  0  0  0  0  0
  130.3220  126.6240   67.5210 N   0  0  0  0  0  0  0  0  0  0  0  0
  129.9230  125.3840   67.1690 C   0  0  0  0  0  0  0  0  0  0  0  0
  129.4890  124.5270   67.9390 O   0  0  0  0  0  0  0  0  0  0  0  0
  130.0370  125.0560   65.6790 C   0  0  0  0  0  0  0  0  0  0  0  0
  130.2580  123.2770   65.3830 S   0  0  0  0  0  0  0  0  0  0  0  0
  130.7960  123.0780   63.6990 C   0  0  0  0  0  0  0  0  0  0  0  0
  129.9040  122.4230   62.9130 N   0  0  0  0  0  0  0  0  0  0  0  0
  130.2150  122.2120   61.6120 C   0  0  0  0  0  0  0  0  0  0  0  0
  129.1760  121.4620   60.7990 C   0  0  0  0  0  0  0  0  0  0  0  0
  131.4090  122.6500   61.0440 C   0  0  0  0  0  0  0  0  0  0  0  0
  132.3260  123.3450   61.8400 C   0  0  0  0  0  0  0  0  0  0  0  0
  133.6220  123.8290   61.1910 C   0  0  0  0  0  0  0  0  0  0  0  0
  132.0220  123.5800   63.2010 C   0  0  0  0  0  0  0  0  0  0  0  0
  132.9450  124.3480   64.0410 C   0  0  0  0  0  0  0  0  0  0  0  0
  133.6750  124.9540   64.7030 N   0  0  0  0  0  0  0  0  0  0  0  0
  131.4210  128.0010   69.2870 C   0  0  0  0  0  0  0  0  0  0  0  0
  131.3430  128.5640   70.5570 C   0  0  0  0  0  0  0  0  0  0  0  0
  128.2046  131.8176   74.1389 H   0  0  0  0  0  0  0  0  0  0  0  0
  128.8270  132.8471   72.8050 H   0  0  0  0  0  0  0  0  0  0  0  0
  127.1105  132.3177   72.8050 H   0  0  0  0  0  0  0  0  0  0  0  0
  127.7695  129.9906   72.4331 H   0  0  0  0  0  0  0  0  0  0  0  0
  128.5830  131.0149   71.2016 H   0  0  0  0  0  0  0  0  0  0  0  0
  128.2290  127.4856   71.4488 H   0  0  0  0  0  0  0  0  0  0  0  0
  128.3656  126.4812   69.1823 H   0  0  0  0  0  0  0  0  0  0  0  0
  130.6200  127.2240   66.7660 H   0  0  0  0  0  0  0  0  0  0  0  0
  129.1191  125.3882   65.1719 H   0  0  0  0  0  0  0  0  0  0  0  0
  130.9225  125.5765   65.2854 H   0  0  0  0  0  0  0  0  0  0  0  0
  128.4745  120.9556   61.4783 H   0  0  0  0  0  0  0  0  0  0  0  0
  128.6245  122.1716   60.1647 H   0  0  0  0  0  0  0  0  0  0  0  0
  129.6759  120.7151   60.1647 H   0  0  0  0  0  0  0  0  0  0  0  0
  131.6279  122.4522   59.9843 H   0  0  0  0  0  0  0  0  0  0  0  0
  134.3456  124.0992   61.9742 H   0  0  0  0  0  0  0  0  0  0  0  0
  134.0409  123.0267   60.5658 H   0  0  0  0  0  0  0  0  0  0  0  0
  133.4124  124.7095   60.5658 H   0  0  0  0  0  0  0  0  0  0  0  0
  132.3217  128.1517   68.6739 H   0  0  0  0  0  0  0  0  0  0  0  0
  132.1863  129.1559   70.9423 H   0  0  0  0  0  0  0  0  0  0  0  0
  1  2  1  0
  2  3  1  0
  3  4  1  0
  4  5  2  0
  4  6  1  0
  6  7  2  0
  7  8  1  0
  8  9  2  0
  9 10  1  0
 10 11  1  0
 11 12  2  0
 11 13  1  0
 13 14  1  0
 14 15  1  0
 15 16  2  0
 16 17  1  0
 17 18  1  0
 17 19  2  0
 19 20  1  0
 20 21  1  0
 20 22  2  0
 22 23  1  0
 23 24  3  0
  9 25  1  0
 25 26  2  0
 26  6  1  0
 22 15  1  0
  1 27  1  0
  1 28  1  0
  1 29  1  0
  2 30  1  0
  2 31  1  0
  7 32  1  0
  8 33  1  0
 10 34  1  0
 13 35  1  0
 13 36  1  0
 18 37  1  0
 18 38  1  0
 18 39  1  0
 19 40  1  0
 21 41  1  0
 21 42  1  0
 21 43  1  0
 25 44  1  0
 26 45  1  0
M  END
>  <Binding energies>  (1) 
[-7.4]

>  <Ligand effiencies>  (1) 
[-0.2740740740740741]

>  <Interactions>  (1) 
["V-B:TYR:539:CE2:9847, V-B:TYR:539:CD2:9845, V-B:ALA:541:CB:9863, H-A:GLY:454:N:4049, V-A:ILE:369:CD1:3238, V-A:ILE:369:CG2:3236, H-A:TYR:484:OH:4347, H-A:GLU:543:OE2:4910, V-A:GLU:543:CD:4908, V-A:GLU:543:CB:4906, V-B:HIS:456:CE1:9041, V-B:GLU:543:CB:9877, V-A:HIS:456:CE1:4069, V-B:HIS:456:CG:9037, V-B:GLU:543:CG:9878, V-B:HIS:456:CD2:9039, V-B:TYR:484:CD1:9314, V-B:GLU:543:CD:9879, V-A:ARG:545:CG:4922, V-A:GLY:454:CA:4048, V-A:ILE:369:CB:3235, H-A:LYS:547:NZ:4951, V-B:TYR:484:CG:9313, V-A:GLU:543:C:4902, V-A:ARG:545:CA:4919, V-A:GLY:544:C:4912"]

$$$$
1aa_Ghoteimi_2023
     RDKit          3D

 67 70  0  0  0  0  0  0  0  0999 V2000
  126.7930  130.9950   56.8220 C   0  0  0  0  0  0  0  0  0  0  0  0
  125.3810  130.6330   56.3510 C   0  0  0  0  0  0  0  0  0  0  0  0
  124.5740  130.3110   57.4770 O   0  0  0  0  0  0  0  0  0  0  0  0
  124.3250  131.2290   58.4460 C   0  0  0  0  0  0  0  0  0  0  0  0
  123.7910  132.3210   58.2270 O   0  0  0  0  0  0  0  0  0  0  0  0
  124.7650  130.7860   59.8120 C   0  0  0  0  0  0  0  0  0  0  0  0
  125.8360  129.8980   59.9950 C   0  0  0  0  0  0  0  0  0  0  0  0
  126.2220  129.5050   61.2750 C   0  0  0  0  0  0  0  0  0  0  0  0
  125.5410  129.9980   62.3980 C   0  0  0  0  0  0  0  0  0  0  0  0
  125.8400  129.6720   63.7330 N   0  0  0  0  0  0  0  0  0  0  0  0
  125.0600  129.7000   64.8390 C   0  0  0  0  0  0  0  0  0  0  0  0
  123.8760  130.0350   64.8550 O   0  0  0  0  0  0  0  0  0  0  0  0
  125.7070  129.2800   66.1680 C   0  0  0  0  0  0  0  0  0  0  0  0
  127.1290  129.4510   66.1100 O   0  0  0  0  0  0  0  0  0  0  0  0
  127.9760  128.4300   66.5180 C   0  0  0  0  0  0  0  0  0  0  0  0
  128.0250  128.1310   67.8460 N   0  0  0  0  0  0  0  0  0  0  0  0
  128.8530  127.1480   68.2870 C   0  0  0  0  0  0  0  0  0  0  0  0
  128.8480  126.8780   69.7640 C   0  0  0  0  0  0  0  0  0  0  0  0
  128.2000  125.7500   70.2890 C   0  0  0  0  0  0  0  0  0  0  0  0
  128.1920  125.4990   71.6590 C   0  0  0  0  0  0  0  0  0  0  0  0
  128.8310  126.3640   72.5440 C   0  0  0  0  0  0  0  0  0  0  0  0
  128.7690  126.0350   73.8850 O   0  0  0  0  0  0  0  0  0  0  0  0
  129.8420  125.3040   74.4700 C   0  0  0  0  0  0  0  0  0  0  0  0
  129.4860  127.4930   72.0340 C   0  0  0  0  0  0  0  0  0  0  0  0
  129.4940  127.7410   70.6640 C   0  0  0  0  0  0  0  0  0  0  0  0
  129.6430  126.4230   67.3860 C   0  0  0  0  0  0  0  0  0  0  0  0
  129.6030  126.7030   66.0130 C   0  0  0  0  0  0  0  0  0  0  0  0
  130.4610  125.8880   65.1040 C   0  0  0  0  0  0  0  0  0  0  0  0
  131.5970  126.4520   64.5160 C   0  0  0  0  0  0  0  0  0  0  0  0
  132.4080  125.6960   63.6740 C   0  0  0  0  0  0  0  0  0  0  0  0
  132.1050  124.3610   63.4080 C   0  0  0  0  0  0  0  0  0  0  0  0
  132.9650  123.6890   62.5610 O   0  0  0  0  0  0  0  0  0  0  0  0
  133.6220  124.4080   61.5240 C   0  0  0  0  0  0  0  0  0  0  0  0
  130.9700  123.7880   64.0020 C   0  0  0  0  0  0  0  0  0  0  0  0
  130.1600  124.5460   64.8430 C   0  0  0  0  0  0  0  0  0  0  0  0
  128.7520  127.7420   65.5700 C   0  0  0  0  0  0  0  0  0  0  0  0
  128.6760  128.1360   64.1620 C   0  0  0  0  0  0  0  0  0  0  0  0
  128.6140  128.4480   63.0490 N   0  0  0  0  0  0  0  0  0  0  0  0
  124.4750  130.8800   62.2180 C   0  0  0  0  0  0  0  0  0  0  0  0
  124.0900  131.2710   60.9400 C   0  0  0  0  0  0  0  0  0  0  0  0
  126.8221  131.0025   57.9216 H   0  0  0  0  0  0  0  0  0  0  0  0
  127.5085  130.2512   56.4413 H   0  0  0  0  0  0  0  0  0  0  0  0
  127.0624  131.9913   56.4413 H   0  0  0  0  0  0  0  0  0  0  0  0
  124.9416  131.4888   55.8176 H   0  0  0  0  0  0  0  0  0  0  0  0
  125.4306  129.7664   55.6754 H   0  0  0  0  0  0  0  0  0  0  0  0
  126.3761  129.5083   59.1195 H   0  0  0  0  0  0  0  0  0  0  0  0
  127.0622  128.8070   61.4051 H   0  0  0  0  0  0  0  0  0  0  0  0
  126.7910  129.3630   63.8780 H   0  0  0  0  0  0  0  0  0  0  0  0
  125.3006  129.9003   66.9805 H   0  0  0  0  0  0  0  0  0  0  0  0
  125.4834  128.2190   66.3530 H   0  0  0  0  0  0  0  0  0  0  0  0
  127.6901  125.0527   69.6079 H   0  0  0  0  0  0  0  0  0  0  0  0
  127.6756  124.6082   72.0461 H   0  0  0  0  0  0  0  0  0  0  0  0
  129.7662  125.3557   75.5662 H   0  0  0  0  0  0  0  0  0  0  0  0
  129.7886  124.2536   74.1479 H   0  0  0  0  0  0  0  0  0  0  0  0
  130.8000  125.7381   74.1479 H   0  0  0  0  0  0  0  0  0  0  0  0
  129.9960  128.1863   72.7190 H   0  0  0  0  0  0  0  0  0  0  0  0
  130.0161  128.6295   70.2794 H   0  0  0  0  0  0  0  0  0  0  0  0
  130.3019  125.6254   67.7597 H   0  0  0  0  0  0  0  0  0  0  0  0
  131.8523  127.5023   64.7204 H   0  0  0  0  0  0  0  0  0  0  0  0
  133.2955  126.1557   63.2146 H   0  0  0  0  0  0  0  0  0  0  0  0
  134.3013  125.1514   61.9667 H   0  0  0  0  0  0  0  0  0  0  0  0
  134.1994  123.7084   60.9017 H   0  0  0  0  0  0  0  0  0  0  0  0
  132.8733  124.9201   60.9017 H   0  0  0  0  0  0  0  0  0  0  0  0
  130.7194  122.7357   63.8023 H   0  0  0  0  0  0  0  0  0  0  0  0
  129.2750  124.0860   65.3069 H   0  0  0  0  0  0  0  0  0  0  0  0
  123.9349  131.2692   63.0937 H   0  0  0  0  0  0  0  0  0  0  0  0
  123.2479  131.9674   60.8136 H   0  0  0  0  0  0  0  0  0  0  0  0
  1  2  1  0
  2  3  1  0
  3  4  1  0
  4  5  2  0
  4  6  1  0
  6  7  2  0
  7  8  1  0
  8  9  2  0
  9 10  1  0
 10 11  1  0
 11 12  2  0
 11 13  1  0
 13 14  1  0
 14 15  1  0
 15 16  2  0
 16 17  1  0
 17 18  1  0
 18 19  2  0
 19 20  1  0
 20 21  2  0
 21 22  1  0
 22 23  1  0
 21 24  1  0
 24 25  2  0
 17 26  2  0
 26 27  1  0
 27 28  1  0
 28 29  2  0
 29 30  1  0
 30 31  2  0
 31 32  1  0
 32 33  1  0
 31 34  1  0
 34 35  2  0
 27 36  2  0
 36 37  1  0
 37 38  3  0
  9 39  1  0
 39 40  2  0
 40  6  1  0
 36 15  1  0
 25 18  1  0
 35 28  1  0
  1 41  1  0
  1 42  1  0
  1 43  1  0
  2 44  1  0
  2 45  1  0
  7 46  1  0
  8 47  1  0
 10 48  1  0
 13 49  1  0
 13 50  1  0
 19 51  1  0
 20 52  1  0
 23 53  1  0
 23 54  1  0
 23 55  1  0
 24 56  1  0
 25 57  1  0
 26 58  1  0
 29 59  1  0
 30 60  1  0
 33 61  1  0
 33 62  1  0
 33 63  1  0
 34 64  1  0
 35 65  1  0
 39 66  1  0
 40 67  1  0
M  END
>  <Binding energies>  (1) 
[-9.58]

>  <Ligand effiencies>  (1) 
[-0.23365853658536587]

>  <Interactions>  (1) 
["H-B:GLU:543:OE2:9881, H-B:TYR:531:OH:9766, V-A:ASP:366:CG:3212, V-A:ILE:369:CD1:3238, V-A:ILE:369:CG2:3236, V-A:ARG:545:CZ:4926, H-B:ARG:545:NH2:9899, V-B:TYR:531:CZ:9765, V-A:GLU:543:CD:4908, V-A:GLU:543:CG:4907, V-B:HIS:456:CE1:9041, V-B:GLU:543:CB:9877, V-A:HIS:456:CE1:4069, V-B:GLU:543:CG:9878, V-B:HIS:456:CD2:9039, V-B:GLU:543:CD:9879, V-A:HIS:456:CD2:4067, V-A:MET:535:CE:4835, V-A:TYR:539:CZ:4877, V-A:TYR:539:CE2:4876, V-B:ASP:366:CB:8183, V-B:ARG:545:CZ:9897, V-B:ASP:366:CG:8184, V-B:ASP:366:CA:8181, H-B:GLY:454:N:9021, H-B:ARG:545:NE:9895, V-B:ILE:369:CD1:8210, H-B:LYS:547:NZ:9922, V-B:LYS:547:CE:9921, V-B:GLU:543:C:9873, H-A:TYR:539:OH:4878, H-B:ARG:545:NH1:9898, V-B:TYR:531:CE1:9763"]

$$$$
1b_Ghoteimi_2023
     RDKit          3D

 54 57  0  0  0  0  0  0  0  0999 V2000
  129.8540  125.0990   74.4260 C   0  0  0  0  0  0  0  0  0  0  0  0
  128.7810  125.8560   73.8790 O   0  0  0  0  0  0  0  0  0  0  0  0
  128.8260  126.2230   72.5480 C   0  0  0  0  0  0  0  0  0  0  0  0
  128.0930  125.4390   71.6590 C   0  0  0  0  0  0  0  0  0  0  0  0
  128.0790  125.7320   70.2990 C   0  0  0  0  0  0  0  0  0  0  0  0
  128.7970  126.8220   69.7850 C   0  0  0  0  0  0  0  0  0  0  0  0
  128.7820  127.1340   68.3140 C   0  0  0  0  0  0  0  0  0  0  0  0
  127.9810  128.1360   67.7570 C   0  0  0  0  0  0  0  0  0  0  0  0
  128.0070  128.3900   66.3800 C   0  0  0  0  0  0  0  0  0  0  0  0
  127.1220  129.4720   65.8540 C   0  0  0  0  0  0  0  0  0  0  0  0
  125.7920  129.1960   65.5220 C   0  0  0  0  0  0  0  0  0  0  0  0
  124.9660  130.1990   65.0230 C   0  0  0  0  0  0  0  0  0  0  0  0
  125.4520  131.4940   64.8430 C   0  0  0  0  0  0  0  0  0  0  0  0
  124.5600  132.4240   64.3430 O   0  0  0  0  0  0  0  0  0  0  0  0
  124.0950  132.2890   63.0040 C   0  0  0  0  0  0  0  0  0  0  0  0
  126.7880  131.7730   65.1670 C   0  0  0  0  0  0  0  0  0  0  0  0
  127.6120  130.7680   65.6650 C   0  0  0  0  0  0  0  0  0  0  0  0
  128.8720  127.6160   65.5680 C   0  0  0  0  0  0  0  0  0  0  0  0
  129.0070  127.9060   64.1370 C   0  0  0  0  0  0  0  0  0  0  0  0
  129.1140  128.1350   63.0070 N   0  0  0  0  0  0  0  0  0  0  0  0
  129.6390  126.6060   66.1910 C   0  0  0  0  0  0  0  0  0  0  0  0
  130.7700  125.5330   65.3290 S   0  0  0  0  0  0  0  0  0  0  0  0
  130.1550  123.8230   65.4910 C   0  0  0  0  0  0  0  0  0  0  0  0
  129.6980  123.1710   64.1780 C   0  0  0  0  0  0  0  0  0  0  0  0
  130.2830  122.1830   63.7280 O   0  0  0  0  0  0  0  0  0  0  0  0
  128.6350  123.7670   63.5940 N   0  0  0  0  0  0  0  0  0  0  0  0
  128.0080  123.3960   62.4100 C   0  0  0  0  0  0  0  0  0  0  0  0
  128.6880  123.2530   61.2010 C   0  0  0  0  0  0  0  0  0  0  0  0
  127.7250  122.8810   60.2910 C   0  0  0  0  0  0  0  0  0  0  0  0
  126.5280  122.8020   60.9200 O   0  0  0  0  0  0  0  0  0  0  0  0
  126.7200  123.1310   62.2620 N   0  0  0  0  0  0  0  0  0  0  0  0
  129.6040  126.3910   67.5280 N   0  0  0  0  0  0  0  0  0  0  0  0
  129.5340  127.6040   70.6880 C   0  0  0  0  0  0  0  0  0  0  0  0
  129.5510  127.3140   72.0490 C   0  0  0  0  0  0  0  0  0  0  0  0
  129.8047  125.1338   75.5243 H   0  0  0  0  0  0  0  0  0  0  0  0
  129.7757  124.0550   74.0883 H   0  0  0  0  0  0  0  0  0  0  0  0
  130.8113  125.5228   74.0883 H   0  0  0  0  0  0  0  0  0  0  0  0
  127.5195  124.5796   72.0365 H   0  0  0  0  0  0  0  0  0  0  0  0
  127.4951  125.0983   69.6153 H   0  0  0  0  0  0  0  0  0  0  0  0
  127.3233  128.7311   68.4076 H   0  0  0  0  0  0  0  0  0  0  0  0
  125.3956  128.1787   65.6562 H   0  0  0  0  0  0  0  0  0  0  0  0
  123.9210  129.9685   64.7684 H   0  0  0  0  0  0  0  0  0  0  0  0
  123.0386  131.9823   63.0119 H   0  0  0  0  0  0  0  0  0  0  0  0
  124.1931  133.2527   62.4828 H   0  0  0  0  0  0  0  0  0  0  0  0
  124.6940  131.5277   62.4828 H   0  0  0  0  0  0  0  0  0  0  0  0
  127.1856  132.7891   65.0271 H   0  0  0  0  0  0  0  0  0  0  0  0
  128.6594  130.9955   65.9125 H   0  0  0  0  0  0  0  0  0  0  0  0
  130.9631  123.2083   65.9141 H   0  0  0  0  0  0  0  0  0  0  0  0
  129.2643  123.8761   66.1344 H   0  0  0  0  0  0  0  0  0  0  0  0
  128.2340  124.5640   64.0650 H   0  0  0  0  0  0  0  0  0  0  0  0
  129.7615  123.4047   61.0150 H   0  0  0  0  0  0  0  0  0  0  0  0
  127.8994  122.6800   59.2237 H   0  0  0  0  0  0  0  0  0  0  0  0
  130.1095  128.4630   70.3125 H   0  0  0  0  0  0  0  0  0  0  0  0
  130.1357  127.9435   72.7359 H   0  0  0  0  0  0  0  0  0  0  0  0
  1  2  1  0
  2  3  1  0
  3  4  2  0
  4  5  1  0
  5  6  2  0
  6  7  1  0
  7  8  2  0
  8  9  1  0
  9 10  1  0
 10 11  2  0
 11 12  1  0
 12 13  2  0
 13 14  1  0
 14 15  1  0
 13 16  1  0
 16 17  2  0
  9 18  2  0
 18 19  1  0
 19 20  3  0
 18 21  1  0
 21 22  1  0
 22 23  1  0
 23 24  1  0
 24 25  2  0
 24 26  1  0
 26 27  1  0
 27 28  1  0
 28 29  2  0
 29 30  1  0
 30 31  1  0
 21 32  2  0
  6 33  1  0
 33 34  2  0
 34  3  1  0
 32  7  1  0
 17 10  1  0
 31 27  2  0
  1 35  1  0
  1 36  1  0
  1 37  1  0
  4 38  1  0
  5 39  1  0
  8 40  1  0
 11 41  1  0
 12 42  1  0
 15 43  1  0
 15 44  1  0
 15 45  1  0
 16 46  1  0
 17 47  1  0
 23 48  1  0
 23 49  1  0
 26 50  1  0
 28 51  1  0
 29 52  1  0
 33 53  1  0
 34 54  1  0
M  END
>  <Binding energies>  (1) 
[-9.26]

>  <Ligand effiencies>  (1) 
[-0.26457142857142857]

>  <Interactions>  (1) 
["V-B:PRO:540:CA:9854, V-B:ALA:541:CB:9863, H-B:GLU:543:OE2:9881, H-B:ALA:541:N:9862, V-A:GLU:543:CD:4908, V-A:GLU:543:CG:4907, V-B:HIS:456:CE1:9041, V-B:GLU:543:CB:9877, V-A:TYR:484:CZ:4346, V-A:HIS:456:CE1:4069, V-B:GLU:543:CG:9878, V-B:GLU:543:CD:9879, V-A:TYR:484:CE1:4344, V-A:HIS:456:CD2:4067, V-B:LEU:475:CD1:9229, V-B:GLY:454:CA:9020, V-B:ARG:545:CZ:9897, H-B:GLY:454:N:9021, V-B:ILE:369:CD1:8210, H-B:LYS:547:NZ:9922, V-B:LYS:547:CE:9921, V-B:GLU:543:C:9873, V-B:GLY:544:C:9883"]

$$$$
1b_Grossjean_2025
     RDKit          3D

 42 43  0  0  0  0  0  0  0  0999 V2000
  124.3900  123.9050   57.9380 C   0  0  0  0  0  0  0  0  0  0  0  0
  125.2290  123.6980   56.8100 O   0  0  0  0  0  0  0  0  0  0  0  0
  126.2320  122.7840   56.8440 C   0  0  0  0  0  0  0  0  0  0  0  0
  126.1400  121.6530   56.3550 O   0  0  0  0  0  0  0  0  0  0  0  0
  127.4700  123.2860   57.5300 C   0  0  0  0  0  0  0  0  0  0  0  0
  128.1810  124.4000   57.0570 C   0  0  0  0  0  0  0  0  0  0  0  0
  129.3250  124.8390   57.7160 C   0  0  0  0  0  0  0  0  0  0  0  0
  129.7830  124.1800   58.8570 C   0  0  0  0  0  0  0  0  0  0  0  0
  130.9500  124.7100   59.4390 N   0  0  0  0  0  0  0  0  0  0  0  0
  132.2450  124.3740   59.2550 C   0  0  0  0  0  0  0  0  0  0  0  0
  132.6550  123.4980   58.4950 O   0  0  0  0  0  0  0  0  0  0  0  0
  133.2550  125.1840   60.0690 C   0  0  0  0  0  0  0  0  0  0  0  0
  133.9780  124.2140   61.4260 S   0  0  0  0  0  0  0  0  0  0  0  0
  132.6680  123.2420   62.1390 C   0  0  0  0  0  0  0  0  0  0  0  0
  132.2170  122.2540   61.3270 N   0  0  0  0  0  0  0  0  0  0  0  0
  131.2210  121.4510   61.7710 C   0  0  0  0  0  0  0  0  0  0  0  0
  130.7780  120.3590   60.8150 C   0  0  0  0  0  0  0  0  0  0  0  0
  130.6330  121.6060   63.0250 C   0  0  0  0  0  0  0  0  0  0  0  0
  131.0770  122.6360   63.8600 C   0  0  0  0  0  0  0  0  0  0  0  0
  130.4060  122.7960   65.2240 C   0  0  0  0  0  0  0  0  0  0  0  0
  132.1150  123.4860   63.4180 C   0  0  0  0  0  0  0  0  0  0  0  0
  132.5660  124.5990   64.2580 C   0  0  0  0  0  0  0  0  0  0  0  0
  132.9200  125.4760   64.9240 N   0  0  0  0  0  0  0  0  0  0  0  0
  129.0770  123.0660   59.3360 C   0  0  0  0  0  0  0  0  0  0  0  0
  127.9330  122.6280   58.6770 C   0  0  0  0  0  0  0  0  0  0  0  0
  124.9728  123.7612   58.8598 H   0  0  0  0  0  0  0  0  0  0  0  0
  123.9890  124.9290   57.9137 H   0  0  0  0  0  0  0  0  0  0  0  0
  123.5587  123.1850   57.9137 H   0  0  0  0  0  0  0  0  0  0  0  0
  127.8312  124.9298   56.1587 H   0  0  0  0  0  0  0  0  0  0  0  0
  129.8729  125.7130   57.3341 H   0  0  0  0  0  0  0  0  0  0  0  0
  130.7750  125.4480   60.1060 H   0  0  0  0  0  0  0  0  0  0  0  0
  134.0634  125.5163   59.4011 H   0  0  0  0  0  0  0  0  0  0  0  0
  132.7240  126.0400   60.5110 H   0  0  0  0  0  0  0  0  0  0  0  0
  130.4253  119.4897   61.3894 H   0  0  0  0  0  0  0  0  0  0  0  0
  129.9615  120.7355   60.1813 H   0  0  0  0  0  0  0  0  0  0  0  0
  131.6260  120.0602   60.1813 H   0  0  0  0  0  0  0  0  0  0  0  0
  129.8313  120.9280   63.3531 H   0  0  0  0  0  0  0  0  0  0  0  0
  131.1453  122.6197   66.0192 H   0  0  0  0  0  0  0  0  0  0  0  0
  130.0032  123.8154   65.3172 H   0  0  0  0  0  0  0  0  0  0  0  0
  129.5866  122.0681   65.3172 H   0  0  0  0  0  0  0  0  0  0  0  0
  129.4289  122.5380   60.2345 H   0  0  0  0  0  0  0  0  0  0  0  0
  127.3854  121.7547   59.0609 H   0  0  0  0  0  0  0  0  0  0  0  0
  1  2  1  0
  2  3  1  0
  3  4  2  0
  3  5  1  0
  5  6  2  0
  6  7  1  0
  7  8  2  0
  8  9  1  0
  9 10  1  0
 10 11  2  0
 10 12  1  0
 12 13  1  0
 13 14  1  0
 14 15  2  0
 15 16  1  0
 16 17  1  0
 16 18  2  0
 18 19  1  0
 19 20  1  0
 19 21  2  0
 21 22  1  0
 22 23  3  0
  8 24  1  0
 24 25  2  0
 25  5  1  0
 21 14  1  0
  1 26  1  0
  1 27  1  0
  1 28  1  0
  6 29  1  0
  7 30  1  0
  9 31  1  0
 12 32  1  0
 12 33  1  0
 17 34  1  0
 17 35  1  0
 17 36  1  0
 18 37  1  0
 20 38  1  0
 20 39  1  0
 20 40  1  0
 24 41  1  0
 25 42  1  0
M  END
>  <Binding energies>  (1) 
[-6.86]

>  <Ligand effiencies>  (1) 
[-0.26384615384615384]

>  <Interactions>  (1) 
["V-B:TYR:539:CE2:9847, V-B:PRO:540:CA:9854, V-B:TYR:539:CD2:9845, V-B:LEU:363:CD1:8160, V-B:PRO:540:CD:9858, V-B:PRO:540:CB:9856, V-B:ALA:541:CB:9863, V-B:TYR:539:C:9838, V-A:LEU:475:CD2:4258, V-B:PRO:540:N:9855, V-B:TYR:539:CE1:9846, V-B:TYR:539:CZ:9848, H-A:ARG:545:NH2:4928, H-A:ARG:545:NE:4924, V-A:ASP:366:CG:3212, V-A:ASP:366:CB:3211, V-A:ASP:366:CA:3209, V-A:ILE:369:CG2:3236, H-B:TYR:539:OH:9849, H-A:TYR:484:OH:4347, V-B:LEU:363:CA:8156, V-A:TYR:484:CZ:4346, V-A:TYR:484:CE1:4344, H-B:TYR:539:N:9841"]

$$$$
1c_Ghoteimi_2023
     RDKit          3D

 54 57  0  0  0  0  0  0  0  0999 V2000
  129.8920  125.0850   74.3980 C   0  0  0  0  0  0  0  0  0  0  0  0
  128.8180  125.8610   73.8770 O   0  0  0  0  0  0  0  0  0  0  0  0
  128.8290  126.2190   72.5430 C   0  0  0  0  0  0  0  0  0  0  0  0
  128.0440  125.4550   71.6840 C   0  0  0  0  0  0  0  0  0  0  0  0
  127.9970  125.7440   70.3230 C   0  0  0  0  0  0  0  0  0  0  0  0
  128.7360  126.8060   69.7800 C   0  0  0  0  0  0  0  0  0  0  0  0
  128.6920  127.1180   68.3120 C   0  0  0  0  0  0  0  0  0  0  0  0
  127.8880  128.1300   67.7770 C   0  0  0  0  0  0  0  0  0  0  0  0
  127.9000  128.4020   66.4040 C   0  0  0  0  0  0  0  0  0  0  0  0
  127.0680  129.5390   65.9120 C   0  0  0  0  0  0  0  0  0  0  0  0
  125.6730  129.4680   65.9480 C   0  0  0  0  0  0  0  0  0  0  0  0
  124.8990  130.5200   65.4690 C   0  0  0  0  0  0  0  0  0  0  0  0
  125.5030  131.6610   64.9420 C   0  0  0  0  0  0  0  0  0  0  0  0
  124.6560  132.6550   64.4900 O   0  0  0  0  0  0  0  0  0  0  0  0
  124.2460  132.6510   63.1260 C   0  0  0  0  0  0  0  0  0  0  0  0
  126.9040  131.7340   64.8980 C   0  0  0  0  0  0  0  0  0  0  0  0
  127.6760  130.6800   65.3770 C   0  0  0  0  0  0  0  0  0  0  0  0
  128.7230  127.6100   65.5680 C   0  0  0  0  0  0  0  0  0  0  0  0
  128.7560  127.8220   64.1170 C   0  0  0  0  0  0  0  0  0  0  0  0
  128.7810  127.9910   62.9720 N   0  0  0  0  0  0  0  0  0  0  0  0
  129.5210  126.6180   66.1750 C   0  0  0  0  0  0  0  0  0  0  0  0
  130.7240  125.6660   65.2730 S   0  0  0  0  0  0  0  0  0  0  0  0
  130.1210  123.9490   65.3610 C   0  0  0  0  0  0  0  0  0  0  0  0
  129.7190  123.4060   63.9850 C   0  0  0  0  0  0  0  0  0  0  0  0
  130.2840  122.4070   63.5370 O   0  0  0  0  0  0  0  0  0  0  0  0
  128.7120  124.0700   63.3760 N   0  0  0  0  0  0  0  0  0  0  0  0
  128.0610  123.6980   62.2100 C   0  0  0  0  0  0  0  0  0  0  0  0
  126.7780  123.4590   62.0420 N   0  0  0  0  0  0  0  0  0  0  0  0
  126.5010  123.1680   60.7860 C   0  0  0  0  0  0  0  0  0  0  0  0
  127.5760  123.1690   59.9030 C   0  0  0  0  0  0  0  0  0  0  0  0
  129.0250  123.5720   60.7740 S   0  0  0  0  0  0  0  0  0  0  0  0
  129.5100  126.3870   67.5100 N   0  0  0  0  0  0  0  0  0  0  0  0
  129.5180  127.5740   70.6560 C   0  0  0  0  0  0  0  0  0  0  0  0
  129.5690  127.2880   72.0170 C   0  0  0  0  0  0  0  0  0  0  0  0
  129.8610  125.1074   75.4973 H   0  0  0  0  0  0  0  0  0  0  0  0
  129.7964  124.0460   74.0496 H   0  0  0  0  0  0  0  0  0  0  0  0
  130.8484  125.5020   74.0496 H   0  0  0  0  0  0  0  0  0  0  0  0
  127.4559  124.6159   72.0840 H   0  0  0  0  0  0  0  0  0  0  0  0
  127.3693  125.1288   69.6615 H   0  0  0  0  0  0  0  0  0  0  0  0
  127.2393  128.7184   68.4425 H   0  0  0  0  0  0  0  0  0  0  0  0
  125.1828  128.5729   66.3585 H   0  0  0  0  0  0  0  0  0  0  0  0
  123.8018  130.4512   65.5063 H   0  0  0  0  0  0  0  0  0  0  0  0
  123.1473  132.6403   63.0734 H   0  0  0  0  0  0  0  0  0  0  0  0
  124.6283  133.5529   62.6256 H   0  0  0  0  0  0  0  0  0  0  0  0
  124.6458  131.7567   62.6256 H   0  0  0  0  0  0  0  0  0  0  0  0
  127.3935  132.6276   64.4834 H   0  0  0  0  0  0  0  0  0  0  0  0
  128.7733  130.7444   65.3347 H   0  0  0  0  0  0  0  0  0  0  0  0
  130.9189  123.3139   65.7733 H   0  0  0  0  0  0  0  0  0  0  0  0
  129.2280  123.9369   66.0032 H   0  0  0  0  0  0  0  0  0  0  0  0
  128.3400  124.8800   63.8460 H   0  0  0  0  0  0  0  0  0  0  0  0
  125.4776  122.9375   60.4551 H   0  0  0  0  0  0  0  0  0  0  0  0
  127.5182  122.9499   58.8266 H   0  0  0  0  0  0  0  0  0  0  0  0
  130.1017  128.4179   70.2596 H   0  0  0  0  0  0  0  0  0  0  0  0
  130.1922  127.9029   72.6829 H   0  0  0  0  0  0  0  0  0  0  0  0
  1  2  1  0
  2  3  1  0
  3  4  2  0
  4  5  1  0
  5  6  2  0
  6  7  1  0
  7  8  2  0
  8  9  1  0
  9 10  1  0
 10 11  2  0
 11 12  1  0
 12 13  2  0
 13 14  1  0
 14 15  1  0
 13 16  1  0
 16 17  2  0
  9 18  2  0
 18 19  1  0
 19 20  3  0
 18 21  1  0
 21 22  1  0
 22 23  1  0
 23 24  1  0
 24 25  2  0
 24 26  1  0
 26 27  1  0
 27 28  2  0
 28 29  1  0
 29 30  2  0
 30 31  1  0
 21 32  2  0
  6 33  1  0
 33 34  2  0
 34  3  1  0
 32  7  1  0
 17 10  1  0
 31 27  1  0
  1 35  1  0
  1 36  1  0
  1 37  1  0
  4 38  1  0
  5 39  1  0
  8 40  1  0
 11 41  1  0
 12 42  1  0
 15 43  1  0
 15 44  1  0
 15 45  1  0
 16 46  1  0
 17 47  1  0
 23 48  1  0
 23 49  1  0
 26 50  1  0
 29 51  1  0
 30 52  1  0
 33 53  1  0
 34 54  1  0
M  END
>  <Binding energies>  (1) 
[-8.5]

>  <Ligand effiencies>  (1) 
[-0.24285714285714285]

>  <Interactions>  (1) 
["V-B:PRO:540:CA:9854, V-B:PRO:540:CB:9856, V-B:ALA:541:CB:9863, H-B:GLU:543:OE2:9881, H-B:ALA:541:N:9862, V-A:GLU:543:CD:4908, V-A:GLU:543:CG:4907, V-B:HIS:456:CE1:9041, V-B:GLU:543:CB:9877, V-A:HIS:456:CE1:4069, V-B:GLU:543:CG:9878, V-B:GLU:543:CD:9879, V-A:TYR:484:CE1:4344, V-A:HIS:456:CD2:4067, V-B:PRO:540:C:9852, V-B:LEU:475:CD1:9229, V-B:GLY:454:CA:9020, H-B:GLY:454:N:9021, H-B:LYS:547:NZ:9922, V-B:LYS:547:CE:9921, V-B:GLU:543:C:9873, V-B:GLY:544:C:9883"]

$$$$
1c_Grossjean_2025
     RDKit          3D

 40 41  0  0  0  0  0  0  0  0999 V2000
  129.8540  130.4010   73.3420 C   0  0  0  0  0  0  0  0  0  0  0  0
  130.6200  129.2350   73.0590 O   0  0  0  0  0  0  0  0  0  0  0  0
  130.5570  128.6780   71.7960 C   0  0  0  0  0  0  0  0  0  0  0  0
  131.7170  128.7550   71.0240 C   0  0  0  0  0  0  0  0  0  0  0  0
  131.7530  128.2220   69.7390 C   0  0  0  0  0  0  0  0  0  0  0  0
  130.6170  127.5940   69.2080 C   0  0  0  0  0  0  0  0  0  0  0  0
  130.5410  127.0320   67.9190 N   0  0  0  0  0  0  0  0  0  0  0  0
  129.9410  125.8920   67.5150 C   0  0  0  0  0  0  0  0  0  0  0  0
  129.3110  125.1210   68.2380 O   0  0  0  0  0  0  0  0  0  0  0  0
  130.0730  125.5750   66.0230 C   0  0  0  0  0  0  0  0  0  0  0  0
  129.9850  123.7890   65.7010 S   0  0  0  0  0  0  0  0  0  0  0  0
  130.6010  123.4830   64.0580 C   0  0  0  0  0  0  0  0  0  0  0  0
  129.7210  122.8200   63.2660 N   0  0  0  0  0  0  0  0  0  0  0  0
  130.0790  122.5310   61.9930 C   0  0  0  0  0  0  0  0  0  0  0  0
  129.0390  121.7980   61.1660 C   0  0  0  0  0  0  0  0  0  0  0  0
  131.3200  122.8760   61.4650 C   0  0  0  0  0  0  0  0  0  0  0  0
  132.2450  123.5370   62.2790 C   0  0  0  0  0  0  0  0  0  0  0  0
  133.6060  123.8900   61.6830 C   0  0  0  0  0  0  0  0  0  0  0  0
  131.8940  123.8490   63.6130 C   0  0  0  0  0  0  0  0  0  0  0  0
  132.8690  124.4920   64.4980 C   0  0  0  0  0  0  0  0  0  0  0  0
  133.6390  125.0000   65.1950 N   0  0  0  0  0  0  0  0  0  0  0  0
  129.4510  127.5250   69.9730 C   0  0  0  0  0  0  0  0  0  0  0  0
  129.4190  128.0590   71.2580 C   0  0  0  0  0  0  0  0  0  0  0  0
  129.7699  130.5290   74.4313 H   0  0  0  0  0  0  0  0  0  0  0  0
  130.3507  131.2806   72.9067 H   0  0  0  0  0  0  0  0  0  0  0  0
  128.8494  130.2944   72.9067 H   0  0  0  0  0  0  0  0  0  0  0  0
  132.6130  129.2425   71.4358 H   0  0  0  0  0  0  0  0  0  0  0  0
  132.6726  128.2933   69.1397 H   0  0  0  0  0  0  0  0  0  0  0  0
  130.9600  127.5960   67.1940 H   0  0  0  0  0  0  0  0  0  0  0  0
  129.2579  126.0752   65.4795 H   0  0  0  0  0  0  0  0  0  0  0  0
  131.0551  125.9353   65.6830 H   0  0  0  0  0  0  0  0  0  0  0  0
  128.3257  121.2953   61.8357 H   0  0  0  0  0  0  0  0  0  0  0  0
  128.5013  122.5178   60.5314 H   0  0  0  0  0  0  0  0  0  0  0  0
  129.5361  121.0496   60.5314 H   0  0  0  0  0  0  0  0  0  0  0  0
  131.5695  122.6320   60.4218 H   0  0  0  0  0  0  0  0  0  0  0  0
  134.3246  124.0764   62.4948 H   0  0  0  0  0  0  0  0  0  0  0  0
  133.9624  123.0546   61.0625 H   0  0  0  0  0  0  0  0  0  0  0  0
  133.5114  124.7933   61.0625 H   0  0  0  0  0  0  0  0  0  0  0  0
  128.5522  127.0457   69.5576 H   0  0  0  0  0  0  0  0  0  0  0  0
  128.4969  127.9953   71.8544 H   0  0  0  0  0  0  0  0  0  0  0  0
  1  2  1  0
  2  3  1  0
  3  4  2  0
  4  5  1  0
  5  6  2  0
  6  7  1  0
  7  8  1  0
  8  9  2  0
  8 10  1  0
 10 11  1  0
 11 12  1  0
 12 13  2  0
 13 14  1  0
 14 15  1  0
 14 16  2  0
 16 17  1  0
 17 18  1  0
 17 19  2  0
 19 20  1  0
 20 21  3  0
  6 22  1  0
 22 23  2  0
 23  3  1  0
 19 12  1  0
  1 24  1  0
  1 25  1  0
  1 26  1  0
  4 27  1  0
  5 28  1  0
  7 29  1  0
 10 30  1  0
 10 31  1  0
 15 32  1  0
 15 33  1  0
 15 34  1  0
 16 35  1  0
 18 36  1  0
 18 37  1  0
 18 38  1  0
 22 39  1  0
 23 40  1  0
M  END
>  <Binding energies>  (1) 
[-6.88]

>  <Ligand effiencies>  (1) 
[-0.2866666666666667]

>  <Interactions>  (1) 
["V-B:ALA:541:CB:9863, V-B:ALA:541:CA:9861, H-A:GLY:454:N:4049, H-A:ARG:545:NE:4924, V-A:ILE:369:CD1:3238, V-A:ILE:369:CG2:3236, H-A:TYR:484:OH:4347, H-A:GLU:543:OE2:4910, V-A:GLU:543:CD:4908, V-A:GLU:543:CB:4906, V-B:HIS:456:CE1:9041, V-A:HIS:456:CE1:4069, V-B:GLU:543:CG:9878, V-B:GLU:543:CD:9879, H-A:GLU:543:OE1:4909, V-A:ARG:545:CG:4922, H-A:LYS:547:NZ:4951, V-A:LYS:547:CE:4950, V-A:GLU:543:C:4902, V-A:ARG:545:CA:4919, V-A:GLY:544:C:4912"]

$$$$
1d_Ghoteimi_2023
     RDKit          3D

 50 52  0  0  0  0  0  0  0  0999 V2000
  133.7450  125.3690   63.6240 C   0  0  0  0  0  0  0  0  0  0  0  0
  133.5570  124.6610   64.8390 O   0  0  0  0  0  0  0  0  0  0  0  0
  133.9510  125.1980   66.0130 C   0  0  0  0  0  0  0  0  0  0  0  0
  135.0430  125.0340   66.5590 O   0  0  0  0  0  0  0  0  0  0  0  0
  132.8690  126.0690   66.6440 C   0  0  0  0  0  0  0  0  0  0  0  0
  131.3070  125.7080   65.7880 S   0  0  0  0  0  0  0  0  0  0  0  0
  130.0350  126.6460   66.6070 C   0  0  0  0  0  0  0  0  0  0  0  0
  129.9890  126.4490   67.9460 N   0  0  0  0  0  0  0  0  0  0  0  0
  129.0620  127.1000   68.6950 C   0  0  0  0  0  0  0  0  0  0  0  0
  129.0820  126.8310   70.1720 C   0  0  0  0  0  0  0  0  0  0  0  0
  128.3780  125.7500   70.7250 C   0  0  0  0  0  0  0  0  0  0  0  0
  128.3920  125.5060   72.0940 C   0  0  0  0  0  0  0  0  0  0  0  0
  129.1090  126.3340   72.9550 C   0  0  0  0  0  0  0  0  0  0  0  0
  129.0630  126.0180   74.2990 O   0  0  0  0  0  0  0  0  0  0  0  0
  130.0870  125.2000   74.8540 C   0  0  0  0  0  0  0  0  0  0  0  0
  129.8170  127.4180   72.4180 C   0  0  0  0  0  0  0  0  0  0  0  0
  129.8010  127.6580   71.0470 C   0  0  0  0  0  0  0  0  0  0  0  0
  128.1570  127.9850   68.0970 C   0  0  0  0  0  0  0  0  0  0  0  0
  128.1720  128.1950   66.7130 C   0  0  0  0  0  0  0  0  0  0  0  0
  127.1730  129.1480   66.1400 C   0  0  0  0  0  0  0  0  0  0  0  0
  127.5510  130.0470   65.1390 C   0  0  0  0  0  0  0  0  0  0  0  0
  126.6250  130.9370   64.6010 C   0  0  0  0  0  0  0  0  0  0  0  0
  125.3040  130.9420   65.0470 C   0  0  0  0  0  0  0  0  0  0  0  0
  124.4570  131.8630   64.4610 O   0  0  0  0  0  0  0  0  0  0  0  0
  124.1170  131.7190   63.0870 C   0  0  0  0  0  0  0  0  0  0  0  0
  124.9160  130.0320   66.0420 C   0  0  0  0  0  0  0  0  0  0  0  0
  125.8440  129.1430   66.5780 C   0  0  0  0  0  0  0  0  0  0  0  0
  129.1250  127.4920   65.9340 C   0  0  0  0  0  0  0  0  0  0  0  0
  129.1180  127.5950   64.4720 C   0  0  0  0  0  0  0  0  0  0  0  0
  129.1120  127.6770   63.3170 N   0  0  0  0  0  0  0  0  0  0  0  0
  134.0215  126.4104   63.8455 H   0  0  0  0  0  0  0  0  0  0  0  0
  134.5477  124.8923   63.0422 H   0  0  0  0  0  0  0  0  0  0  0  0
  132.8116  125.3533   63.0422 H   0  0  0  0  0  0  0  0  0  0  0  0
  132.7738  125.8330   67.7142 H   0  0  0  0  0  0  0  0  0  0  0  0
  133.1253  127.1344   66.5484 H   0  0  0  0  0  0  0  0  0  0  0  0
  127.8048  125.0837   70.0635 H   0  0  0  0  0  0  0  0  0  0  0  0
  127.8317  124.6513   72.5009 H   0  0  0  0  0  0  0  0  0  0  0  0
  130.0348  125.2417   75.9520 H   0  0  0  0  0  0  0  0  0  0  0  0
  129.9482  124.1613   74.5195 H   0  0  0  0  0  0  0  0  0  0  0  0
  131.0694  125.5648   74.5195 H   0  0  0  0  0  0  0  0  0  0  0  0
  130.3881  128.0823   73.0833 H   0  0  0  0  0  0  0  0  0  0  0  0
  130.3630  128.5126   70.6422 H   0  0  0  0  0  0  0  0  0  0  0  0
  127.4266  128.5209   68.7210 H   0  0  0  0  0  0  0  0  0  0  0  0
  128.5884  130.0516   64.7732 H   0  0  0  0  0  0  0  0  0  0  0  0
  126.9385  131.6423   63.8172 H   0  0  0  0  0  0  0  0  0  0  0  0
  123.1071  131.2913   63.0021 H   0  0  0  0  0  0  0  0  0  0  0  0
  124.1402  132.7042   62.5983 H   0  0  0  0  0  0  0  0  0  0  0  0
  124.8408  131.0502   62.5983 H   0  0  0  0  0  0  0  0  0  0  0  0
  123.8758  130.0209   66.3996 H   0  0  0  0  0  0  0  0  0  0  0  0
  125.5292  128.4294   67.3537 H   0  0  0  0  0  0  0  0  0  0  0  0
  1  2  1  0
  2  3  1  0
  3  4  2  0
  3  5  1  0
  5  6  1  0
  6  7  1  0
  7  8  2  0
  8  9  1  0
  9 10  1  0
 10 11  2  0
 11 12  1  0
 12 13  2  0
 13 14  1  0
 14 15  1  0
 13 16  1  0
 16 17  2  0
  9 18  2  0
 18 19  1  0
 19 20  1  0
 20 21  2  0
 21 22  1  0
 22 23  2  0
 23 24  1  0
 24 25  1  0
 23 26  1  0
 26 27  2  0
 19 28  2  0
 28 29  1  0
 29 30  3  0
 28  7  1  0
 17 10  1  0
 27 20  1  0
  1 31  1  0
  1 32  1  0
  1 33  1  0
  5 34  1  0
  5 35  1  0
 11 36  1  0
 12 37  1  0
 15 38  1  0
 15 39  1  0
 15 40  1  0
 16 41  1  0
 17 42  1  0
 18 43  1  0
 21 44  1  0
 22 45  1  0
 25 46  1  0
 25 47  1  0
 25 48  1  0
 26 49  1  0
 27 50  1  0
M  END
>  <Binding energies>  (1) 
[-8.39]

>  <Ligand effiencies>  (1) 
[-0.2796666666666667]

>  <Interactions>  (1) 
["H-A:GLY:454:N:4049, H-A:ARG:545:NE:4924, H-A:TYR:484:OH:4347, V-A:ARG:545:CZ:4926, V-A:GLU:543:CD:4908, V-A:GLU:543:CG:4907, V-B:HIS:456:CE1:9041, V-A:HIS:456:CE1:4069, V-B:GLU:543:CD:9879, V-A:ARG:545:CG:4922, V-A:ARG:545:CD:4923, V-A:GLY:454:CA:4048, V-B:GLY:454:CA:9020, H-B:GLY:454:N:9021, H-B:LYS:547:NZ:9922, V-B:GLU:543:C:9873, H-A:ILE:455:N:4054"]

$$$$
1d_Grossjean_2025
     RDKit          3D

 36 37  0  0  0  0  0  0  0  0999 V2000
  132.7660  125.0170   58.1160 C   0  0  0  0  0  0  0  0  0  0  0  0
  132.7940  124.3960   59.4990 C   0  0  0  0  0  0  0  0  0  0  0  0
  133.5080  124.9770   60.5450 C   0  0  0  0  0  0  0  0  0  0  0  0
  133.4900  124.3660   61.8030 C   0  0  0  0  0  0  0  0  0  0  0  0
  134.2670  125.0300   62.9380 C   0  0  0  0  0  0  0  0  0  0  0  0
  132.7560  123.1710   61.9800 C   0  0  0  0  0  0  0  0  0  0  0  0
  132.6830  122.5390   63.3000 C   0  0  0  0  0  0  0  0  0  0  0  0
  132.6270  122.0430   64.3440 N   0  0  0  0  0  0  0  0  0  0  0  0
  132.0810  122.6380   60.8570 C   0  0  0  0  0  0  0  0  0  0  0  0
  131.1140  121.1460   60.8980 S   0  0  0  0  0  0  0  0  0  0  0  0
  129.5240  121.5510   61.6840 C   0  0  0  0  0  0  0  0  0  0  0  0
  128.5620  122.2400   60.7150 C   0  0  0  0  0  0  0  0  0  0  0  0
  127.3980  122.4410   61.0650 O   0  0  0  0  0  0  0  0  0  0  0  0
  129.0960  122.6010   59.5280 N   0  0  0  0  0  0  0  0  0  0  0  0
  128.4940  123.2270   58.4210 C   0  0  0  0  0  0  0  0  0  0  0  0
  127.2950  122.6600   57.9820 C   0  0  0  0  0  0  0  0  0  0  0  0
  126.6140  123.2050   56.8970 C   0  0  0  0  0  0  0  0  0  0  0  0
  127.1290  124.3270   56.2530 C   0  0  0  0  0  0  0  0  0  0  0  0
  128.3190  124.9090   56.6860 C   0  0  0  0  0  0  0  0  0  0  0  0
  129.0020  124.3640   57.7700 C   0  0  0  0  0  0  0  0  0  0  0  0
  132.0880  123.2510   59.6450 N   0  0  0  0  0  0  0  0  0  0  0  0
  132.7166  126.1121   58.2067 H   0  0  0  0  0  0  0  0  0  0  0  0
  133.6778  124.7351   57.5690 H   0  0  0  0  0  0  0  0  0  0  0  0
  131.8833  124.6542   57.5690 H   0  0  0  0  0  0  0  0  0  0  0  0
  134.0782  125.9037   60.3836 H   0  0  0  0  0  0  0  0  0  0  0  0
  133.8676  124.6887   63.9045 H   0  0  0  0  0  0  0  0  0  0  0  0
  135.3300  124.7570   62.8635 H   0  0  0  0  0  0  0  0  0  0  0  0
  134.1630  126.1225   62.8635 H   0  0  0  0  0  0  0  0  0  0  0  0
  129.0593  120.6212   62.0440 H   0  0  0  0  0  0  0  0  0  0  0  0
  129.7235  122.2449   62.5139 H   0  0  0  0  0  0  0  0  0  0  0  0
  130.0800  122.4100   59.4080 H   0  0  0  0  0  0  0  0  0  0  0  0
  126.8867  121.7778   58.4967 H   0  0  0  0  0  0  0  0  0  0  0  0
  125.6738  122.7515   56.5502 H   0  0  0  0  0  0  0  0  0  0  0  0
  126.5920  124.7577   55.3951 H   0  0  0  0  0  0  0  0  0  0  0  0
  128.7176  125.7965   56.1727 H   0  0  0  0  0  0  0  0  0  0  0  0
  129.9393  124.8235   58.1168 H   0  0  0  0  0  0  0  0  0  0  0  0
  1  2  1  0
  2  3  2  0
  3  4  1  0
  4  5  1  0
  4  6  2  0
  6  7  1  0
  7  8  3  0
  6  9  1  0
  9 10  1  0
 10 11  1  0
 11 12  1  0
 12 13  2  0
 12 14  1  0
 14 15  1  0
 15 16  2  0
 16 17  1  0
 17 18  2  0
 18 19  1  0
 19 20  2  0
  9 21  2  0
 21  2  1  0
 20 15  1  0
  1 22  1  0
  1 23  1  0
  1 24  1  0
  3 25  1  0
  5 26  1  0
  5 27  1  0
  5 28  1  0
 11 29  1  0
 11 30  1  0
 14 31  1  0
 16 32  1  0
 17 33  1  0
 18 34  1  0
 19 35  1  0
 20 36  1  0
M  END
>  <Binding energies>  (1) 
[-6.22]

>  <Ligand effiencies>  (1) 
[-0.2827272727272727]

>  <Interactions>  (1) 
["V-B:TYR:539:CE2:9847, V-B:PRO:540:CA:9854, V-B:TYR:539:CD2:9845, V-B:ALA:541:CB:9863, V-B:TYR:539:C:9838, V-A:LEU:475:CD2:4258, V-B:PRO:540:N:9855, V-B:ALA:541:CA:9861, H-B:ALA:541:N:9862, V-B:TYR:539:CZ:9848, H-A:GLY:454:N:4049, V-A:ASP:366:CG:3212, V-A:ILE:369:CD1:3238, V-A:ASP:366:CB:3211, V-A:ASP:366:CA:3209, V-A:ILE:369:CG2:3236, H-A:TYR:484:OH:4347, V-A:ARG:545:CZ:4926, V-B:MET:535:CE:9806, V-A:ASP:366:C:3207, V-B:PRO:540:C:9852, V-A:GLY:454:CA:4048, V-A:GLY:453:C:4041, V-A:GLY:453:CA:4043"]

$$$$
1e_Grossjean_2025
     RDKit          3D

 38 39  0  0  0  0  0  0  0  0999 V2000
  124.0130  124.2270   57.8400 C   0  0  0  0  0  0  0  0  0  0  0  0
  125.4140  123.6850   58.0520 C   0  0  0  0  0  0  0  0  0  0  0  0
  125.9850  122.7690   57.1640 C   0  0  0  0  0  0  0  0  0  0  0  0
  127.2770  122.3120   57.4240 C   0  0  0  0  0  0  0  0  0  0  0  0
  127.9600  122.7730   58.5520 C   0  0  0  0  0  0  0  0  0  0  0  0
  127.3300  123.6950   59.3970 C   0  0  0  0  0  0  0  0  0  0  0  0
  128.0620  124.1140   60.5230 N   0  0  0  0  0  0  0  0  0  0  0  0
  127.8550  123.8070   61.8220 C   0  0  0  0  0  0  0  0  0  0  0  0
  126.9470  123.0890   62.2430 O   0  0  0  0  0  0  0  0  0  0  0  0
  128.8270  124.4420   62.8190 C   0  0  0  0  0  0  0  0  0  0  0  0
  129.5630  123.2070   63.9320 S   0  0  0  0  0  0  0  0  0  0  0  0
  130.7370  122.2350   63.0090 C   0  0  0  0  0  0  0  0  0  0  0  0
  130.1610  121.2570   62.2640 N   0  0  0  0  0  0  0  0  0  0  0  0
  130.9530  120.4510   61.5200 C   0  0  0  0  0  0  0  0  0  0  0  0
  130.2380  119.3880   60.7090 C   0  0  0  0  0  0  0  0  0  0  0  0
  132.3410  120.5750   61.4970 C   0  0  0  0  0  0  0  0  0  0  0  0
  132.9480  121.5620   62.2800 C   0  0  0  0  0  0  0  0  0  0  0  0
  134.4720  121.6650   62.2510 C   0  0  0  0  0  0  0  0  0  0  0  0
  132.1400  122.4140   63.0670 C   0  0  0  0  0  0  0  0  0  0  0  0
  132.7630  123.4140   63.9370 C   0  0  0  0  0  0  0  0  0  0  0  0
  133.2580  124.2040   64.6240 N   0  0  0  0  0  0  0  0  0  0  0  0
  126.0640  124.1430   59.1510 N   0  0  0  0  0  0  0  0  0  0  0  0
  123.5392  124.4103   58.8157 H   0  0  0  0  0  0  0  0  0  0  0  0
  124.0660  125.1695   57.2753 H   0  0  0  0  0  0  0  0  0  0  0  0
  123.4179  123.4942   57.2753 H   0  0  0  0  0  0  0  0  0  0  0  0
  125.4294  122.4173   56.2822 H   0  0  0  0  0  0  0  0  0  0  0  0
  127.7558  121.5920   56.7440 H   0  0  0  0  0  0  0  0  0  0  0  0
  128.9771  122.4172   58.7731 H   0  0  0  0  0  0  0  0  0  0  0  0
  128.8040  124.7690   60.3240 H   0  0  0  0  0  0  0  0  0  0  0  0
  129.6323  124.9419   62.2608 H   0  0  0  0  0  0  0  0  0  0  0  0
  128.2637  125.1602   63.4329 H   0  0  0  0  0  0  0  0  0  0  0  0
  129.7555  118.6706   61.3891 H   0  0  0  0  0  0  0  0  0  0  0  0
  129.4746  119.8623   60.0747 H   0  0  0  0  0  0  0  0  0  0  0  0
  130.9651  118.8598   60.0747 H   0  0  0  0  0  0  0  0  0  0  0  0
  132.9505  119.9059   60.8718 H   0  0  0  0  0  0  0  0  0  0  0  0
  134.8574  121.6910   63.2809 H   0  0  0  0  0  0  0  0  0  0  0  0
  134.8885  120.7930   61.7256 H   0  0  0  0  0  0  0  0  0  0  0  0
  134.7674  122.5852   61.7256 H   0  0  0  0  0  0  0  0  0  0  0  0
  1  2  1  0
  2  3  2  0
  3  4  1  0
  4  5  2  0
  5  6  1  0
  6  7  1  0
  7  8  1  0
  8  9  2  0
  8 10  1  0
 10 11  1  0
 11 12  1  0
 12 13  2  0
 13 14  1  0
 14 15  1  0
 14 16  2  0
 16 17  1  0
 17 18  1  0
 17 19  2  0
 19 20  1  0
 20 21  3  0
  6 22  2  0
 22  2  1  0
 19 12  1  0
  1 23  1  0
  1 24  1  0
  1 25  1  0
  3 26  1  0
  4 27  1  0
  5 28  1  0
  7 29  1  0
 10 30  1  0
 10 31  1  0
 15 32  1  0
 15 33  1  0
 15 34  1  0
 16 35  1  0
 18 36  1  0
 18 37  1  0
 18 38  1  0
M  END
>  <Binding energies>  (1) 
[-6.75]

>  <Ligand effiencies>  (1) 
[-0.29347826086956524]

>  <Interactions>  (1) 
["V-A:PRO:482:CG:4326, V-B:TYR:539:CE2:9847, V-B:PRO:540:CA:9854, V-B:TYR:539:CD2:9845, V-B:LEU:363:CD1:8160, V-B:PRO:540:CD:9858, V-B:TYR:539:CG:9843, V-B:PRO:540:CB:9856, V-B:ALA:541:CB:9863, V-B:TYR:539:C:9838, V-A:LEU:475:CD2:4258, V-B:PRO:540:N:9855, V-B:TYR:539:CD1:9844, V-B:TYR:539:CE1:9846, H-B:ALA:541:N:9862, V-B:TYR:539:CA:9840, V-A:PRO:482:CB:4325, V-B:TYR:539:CZ:9848, H-A:GLY:454:N:4049, V-A:ILE:369:CD1:3238, V-A:ILE:369:CG2:3236, H-A:TYR:484:OH:4347, V-B:LEU:363:CA:8156, V-B:TYR:531:CE2:9764, V-B:GLU:543:CG:9878, V-B:GLU:543:CD:9879, V-A:GLY:454:CA:4048, V-A:TRP:381:CH2:3371, V-B:LEU:363:CB:8158, V-A:TRP:381:CZ2:3369, V-A:ILE:369:CB:3235, V-A:ILE:369:CG1:3237"]

$$$$
1f_Grossjean_2025
     RDKit          3D

 35 36  0  0  0  0  0  0  0  0999 V2000
  132.5970  131.6860   62.4540 C   0  0  0  0  0  0  0  0  0  0  0  0
  131.8880  131.9690   61.1430 C   0  0  0  0  0  0  0  0  0  0  0  0
  132.5100  131.7510   59.9160 C   0  0  0  0  0  0  0  0  0  0  0  0
  131.8110  132.0430   58.7400 C   0  0  0  0  0  0  0  0  0  0  0  0
  132.5200  131.8130   57.4070 C   0  0  0  0  0  0  0  0  0  0  0  0
  130.4910  132.5420   58.8250 C   0  0  0  0  0  0  0  0  0  0  0  0
  129.7640  132.9060   57.6060 C   0  0  0  0  0  0  0  0  0  0  0  0
  129.1910  133.1930   56.6420 N   0  0  0  0  0  0  0  0  0  0  0  0
  129.9290  132.7060   60.1130 C   0  0  0  0  0  0  0  0  0  0  0  0
  128.2840  133.3210   60.4160 S   0  0  0  0  0  0  0  0  0  0  0  0
  127.1370  131.9020   60.4580 C   0  0  0  0  0  0  0  0  0  0  0  0
  127.1400  131.1070   61.7720 C   0  0  0  0  0  0  0  0  0  0  0  0
  128.0900  130.3760   62.0580 O   0  0  0  0  0  0  0  0  0  0  0  0
  126.0330  131.2670   62.5280 N   0  0  0  0  0  0  0  0  0  0  0  0
  125.7070  130.7040   63.7770 C   0  0  0  0  0  0  0  0  0  0  0  0
  126.6170  130.4360   64.8170 C   0  0  0  0  0  0  0  0  0  0  0  0
  126.1550  129.8760   66.0110 C   0  0  0  0  0  0  0  0  0  0  0  0
  124.7940  129.6010   66.1380 C   0  0  0  0  0  0  0  0  0  0  0  0
  123.8960  129.8540   65.1530 N   0  0  0  0  0  0  0  0  0  0  0  0
  124.3600  130.3980   63.9980 C   0  0  0  0  0  0  0  0  0  0  0  0
  130.6240  132.4430   61.2480 N   0  0  0  0  0  0  0  0  0  0  0  0
  131.9360  131.9498   63.2927 H   0  0  0  0  0  0  0  0  0  0  0  0
  132.8516  130.6173   62.5099 H   0  0  0  0  0  0  0  0  0  0  0  0
  133.5175  132.2856   62.5099 H   0  0  0  0  0  0  0  0  0  0  0  0
  133.5354  131.3552   59.8724 H   0  0  0  0  0  0  0  0  0  0  0  0
  133.5512  131.4785   57.5931 H   0  0  0  0  0  0  0  0  0  0  0  0
  131.9826  131.0431   56.8339 H   0  0  0  0  0  0  0  0  0  0  0  0
  132.5369  132.7518   56.8339 H   0  0  0  0  0  0  0  0  0  0  0  0
  126.1181  132.2811   60.2903 H   0  0  0  0  0  0  0  0  0  0  0  0
  127.4771  131.2070   59.6761 H   0  0  0  0  0  0  0  0  0  0  0  0
  125.3160  131.8670   62.1440 H   0  0  0  0  0  0  0  0  0  0  0  0
  127.6852  130.6660   64.6906 H   0  0  0  0  0  0  0  0  0  0  0  0
  126.8510  129.6566   66.8341 H   0  0  0  0  0  0  0  0  0  0  0  0
  124.4324  129.1594   67.0783 H   0  0  0  0  0  0  0  0  0  0  0  0
  123.6389  130.6089   63.1946 H   0  0  0  0  0  0  0  0  0  0  0  0
  1  2  1  0
  2  3  2  0
  3  4  1  0
  4  5  1  0
  4  6  2  0
  6  7  1  0
  7  8  3  0
  6  9  1  0
  9 10  1  0
 10 11  1  0
 11 12  1  0
 12 13  2  0
 12 14  1  0
 14 15  1  0
 15 16  2  0
 16 17  1  0
 17 18  2  0
 18 19  1  0
 19 20  2  0
  9 21  2  0
 21  2  1  0
 20 15  1  0
  1 22  1  0
  1 23  1  0
  1 24  1  0
  3 25  1  0
  5 26  1  0
  5 27  1  0
  5 28  1  0
 11 29  1  0
 11 30  1  0
 14 31  1  0
 16 32  1  0
 17 33  1  0
 18 34  1  0
 20 35  1  0
M  END
>  <Binding energies>  (1) 
[-6.64]

>  <Ligand effiencies>  (1) 
[-0.3018181818181818]

>  <Interactions>  (1) 
["H-B:ARG:545:NH2:9899, V-A:GLU:543:CD:4908, V-A:PRO:540:N:4884, V-A:LEU:363:CD1:3188, V-A:TYR:539:C:4867, H-A:TYR:539:N:4870, V-A:PRO:540:CA:4883, V-A:ASN:362:CB:3175, V-A:PRO:540:CB:4885, V-A:PRO:540:C:4881, H-A:ALA:541:N:4891, V-B:ARG:545:CD:9894, V-B:ARG:545:CZ:9897, H-B:GLY:454:N:9021, H-B:ARG:545:NE:9895, H-B:ARG:545:NH1:9898"]

$$$$
1g_Grossjean_2025
     RDKit          3D

 39 40  0  0  0  0  0  0  0  0999 V2000
  125.0380  123.5130   62.7900 C   0  0  0  0  0  0  0  0  0  0  0  0
  125.4980  123.5150   61.3440 C   0  0  0  0  0  0  0  0  0  0  0  0
  124.6530  123.9110   60.3090 C   0  0  0  0  0  0  0  0  0  0  0  0
  125.1270  123.8770   58.9940 C   0  0  0  0  0  0  0  0  0  0  0  0
  124.1770  124.3000   57.8740 C   0  0  0  0  0  0  0  0  0  0  0  0
  126.4520  123.4520   58.7470 C   0  0  0  0  0  0  0  0  0  0  0  0
  126.9540  123.3590   57.3740 C   0  0  0  0  0  0  0  0  0  0  0  0
  127.3470  123.2850   56.2880 N   0  0  0  0  0  0  0  0  0  0  0  0
  127.2480  123.0930   59.8610 C   0  0  0  0  0  0  0  0  0  0  0  0
  128.9360  122.5460   59.7340 S   0  0  0  0  0  0  0  0  0  0  0  0
  129.0960  121.0480   60.7510 C   0  0  0  0  0  0  0  0  0  0  0  0
  130.3620  121.0720   61.6090 C   0  0  0  0  0  0  0  0  0  0  0  0
  131.2890  120.2990   61.3620 O   0  0  0  0  0  0  0  0  0  0  0  0
  130.3810  121.9600   62.6170 N   0  0  0  0  0  0  0  0  0  0  0  0
  131.5070  122.1920   63.5220 C   0  0  0  0  0  0  0  0  0  0  0  0
  131.3060  123.3560   64.4890 C   0  0  0  0  0  0  0  0  0  0  0  0
  132.2870  124.3450   64.6050 C   0  0  0  0  0  0  0  0  0  0  0  0
  132.1030  125.4070   65.4860 C   0  0  0  0  0  0  0  0  0  0  0  0
  130.9370  125.4790   66.2460 C   0  0  0  0  0  0  0  0  0  0  0  0
  129.9540  124.4990   66.1310 C   0  0  0  0  0  0  0  0  0  0  0  0
  130.1370  123.4360   65.2510 C   0  0  0  0  0  0  0  0  0  0  0  0
  126.7720  123.1080   61.1320 N   0  0  0  0  0  0  0  0  0  0  0  0
  125.9151  123.5168   63.4538 H   0  0  0  0  0  0  0  0  0  0  0  0
  124.4288  124.4085   62.9822 H   0  0  0  0  0  0  0  0  0  0  0  0
  124.4366  122.6122   62.9822 H   0  0  0  0  0  0  0  0  0  0  0  0
  123.6274  124.2457   60.5236 H   0  0  0  0  0  0  0  0  0  0  0  0
  123.2548  124.7106   58.3110 H   0  0  0  0  0  0  0  0  0  0  0  0
  124.6616  125.0674   57.2525 H   0  0  0  0  0  0  0  0  0  0  0  0
  123.9309  123.4264   57.2525 H   0  0  0  0  0  0  0  0  0  0  0  0
  128.2201  120.9720   61.4121 H   0  0  0  0  0  0  0  0  0  0  0  0
  129.1596  120.1828   60.0748 H   0  0  0  0  0  0  0  0  0  0  0  0
  129.5850  122.5700   62.7360 H   0  0  0  0  0  0  0  0  0  0  0  0
  131.6688  121.2779   64.1121 H   0  0  0  0  0  0  0  0  0  0  0  0
  132.3699  122.4518   62.8912 H   0  0  0  0  0  0  0  0  0  0  0  0
  133.2039  124.2841   64.0004 H   0  0  0  0  0  0  0  0  0  0  0  0
  132.8741  126.1856   65.5818 H   0  0  0  0  0  0  0  0  0  0  0  0
  130.7917  126.3175   66.9430 H   0  0  0  0  0  0  0  0  0  0  0  0
  129.0361  124.5648   66.7336 H   0  0  0  0  0  0  0  0  0  0  0  0
  129.3629  122.6603   65.1555 H   0  0  0  0  0  0  0  0  0  0  0  0
  1  2  1  0
  2  3  2  0
  3  4  1  0
  4  5  1  0
  4  6  2  0
  6  7  1  0
  7  8  3  0
  6  9  1  0
  9 10  1  0
 10 11  1  0
 11 12  1  0
 12 13  2  0
 12 14  1  0
 14 15  1  0
 15 16  1  0
 16 17  2  0
 17 18  1  0
 18 19  2  0
 19 20  1  0
 20 21  2  0
  9 22  2  0
 22  2  1  0
 21 16  1  0
  1 23  1  0
  1 24  1  0
  1 25  1  0
  3 26  1  0
  5 27  1  0
  5 28  1  0
  5 29  1  0
 11 30  1  0
 11 31  1  0
 14 32  1  0
 15 33  1  0
 15 34  1  0
 17 35  1  0
 18 36  1  0
 19 37  1  0
 20 38  1  0
 21 39  1  0
M  END
>  <Binding energies>  (1) 
[-7.23]

>  <Ligand effiencies>  (1) 
[-0.31434782608695655]

>  <Interactions>  (1) 
["V-B:TYR:539:CE2:9847, V-B:PRO:540:CA:9854, V-B:TYR:539:CD2:9845, V-B:LEU:363:CD1:8160, V-B:PRO:540:CB:9856, V-B:ALA:541:CB:9863, V-B:TYR:539:C:9838, V-A:LEU:475:CD2:4258, V-B:PRO:540:N:9855, V-B:ALA:541:CA:9861, H-B:ALA:541:N:9862, V-B:LEU:363:CA:8156, V-B:TYR:531:CE2:9764, V-B:GLU:543:CB:9877, V-A:TYR:484:CZ:4346, V-A:HIS:456:CE1:4069, V-B:GLU:543:CG:9878, V-B:GLU:543:CD:9879, V-A:TYR:484:CE1:4344, V-B:PRO:540:C:9852, V-B:ASN:362:CB:8147, V-B:ALA:541:C:9859, V-B:ASN:362:CG:8148"]

$$$$
1h_Grossjean_2025
     RDKit          3D

 51 52  0  0  0  0  0  0  0  0999 V2000
  128.8110  123.6380   72.7370 C   0  0  0  0  0  0  0  0  0  0  0  0
  128.0230  124.7020   72.2160 O   0  0  0  0  0  0  0  0  0  0  0  0
  128.6270  125.9090   71.9140 C   0  0  0  0  0  0  0  0  0  0  0  0
  128.7450  126.4220   70.6130 C   0  0  0  0  0  0  0  0  0  0  0  0
  129.3800  127.6430   70.3810 C   0  0  0  0  0  0  0  0  0  0  0  0
  129.4810  128.2000   68.9640 C   0  0  0  0  0  0  0  0  0  0  0  0
  130.2710  127.3710   68.0540 N   0  0  0  0  0  0  0  0  0  0  0  0
  129.8520  126.2260   67.4840 C   0  0  0  0  0  0  0  0  0  0  0  0
  128.7280  125.7540   67.6470 O   0  0  0  0  0  0  0  0  0  0  0  0
  130.8620  125.4990   66.5950 C   0  0  0  0  0  0  0  0  0  0  0  0
  130.2480  123.8730   66.0600 S   0  0  0  0  0  0  0  0  0  0  0  0
  130.7000  123.6470   64.3470 C   0  0  0  0  0  0  0  0  0  0  0  0
  129.7350  123.1240   63.5460 N   0  0  0  0  0  0  0  0  0  0  0  0
  130.0100  122.9310   62.2350 C   0  0  0  0  0  0  0  0  0  0  0  0
  128.8820  122.3490   61.4050 C   0  0  0  0  0  0  0  0  0  0  0  0
  131.2450  123.2440   61.6710 C   0  0  0  0  0  0  0  0  0  0  0  0
  132.2480  123.7810   62.4860 C   0  0  0  0  0  0  0  0  0  0  0  0
  133.5930  124.1190   61.8470 C   0  0  0  0  0  0  0  0  0  0  0  0
  131.9820  123.9910   63.8580 C   0  0  0  0  0  0  0  0  0  0  0  0
  133.0140  124.5500   64.7360 C   0  0  0  0  0  0  0  0  0  0  0  0
  133.8300  124.9900   65.4290 N   0  0  0  0  0  0  0  0  0  0  0  0
  129.8720  128.3790   71.4590 C   0  0  0  0  0  0  0  0  0  0  0  0
  129.7630  127.8930   72.7720 C   0  0  0  0  0  0  0  0  0  0  0  0
  130.2280  128.5670   73.8860 O   0  0  0  0  0  0  0  0  0  0  0  0
  129.4900  129.6730   74.3940 C   0  0  0  0  0  0  0  0  0  0  0  0
  129.1470  126.6510   72.9840 C   0  0  0  0  0  0  0  0  0  0  0  0
  129.0280  126.1650   74.2640 O   0  0  0  0  0  0  0  0  0  0  0  0
  130.2570  125.7480   74.8420 C   0  0  0  0  0  0  0  0  0  0  0  0
  128.7881  123.6690   73.8363 H   0  0  0  0  0  0  0  0  0  0  0  0
  128.4053  122.6767   72.3887 H   0  0  0  0  0  0  0  0  0  0  0  0
  129.8488  123.7458   72.3887 H   0  0  0  0  0  0  0  0  0  0  0  0
  128.3320  125.8548   69.7658 H   0  0  0  0  0  0  0  0  0  0  0  0
  128.4640  128.2906   68.5546 H   0  0  0  0  0  0  0  0  0  0  0  0
  129.9953  129.1695   69.0389 H   0  0  0  0  0  0  0  0  0  0  0  0
  131.2160  127.6800   67.8760 H   0  0  0  0  0  0  0  0  0  0  0  0
  131.0603  126.1146   65.7052 H   0  0  0  0  0  0  0  0  0  0  0  0
  131.7797  125.3409   67.1806 H   0  0  0  0  0  0  0  0  0  0  0  0
  128.1049  121.9480   62.0723 H   0  0  0  0  0  0  0  0  0  0  0  0
  128.4497  123.1366   60.7703 H   0  0  0  0  0  0  0  0  0  0  0  0
  129.2733  121.5402   60.7703 H   0  0  0  0  0  0  0  0  0  0  0  0
  131.4291  123.0715   60.6003 H   0  0  0  0  0  0  0  0  0  0  0  0
  134.3369  124.3059   62.6355 H   0  0  0  0  0  0  0  0  0  0  0  0
  133.9244  123.2762   61.2226 H   0  0  0  0  0  0  0  0  0  0  0  0
  133.4866  125.0183   61.2226 H   0  0  0  0  0  0  0  0  0  0  0  0
  130.3514  129.3524   71.2783 H   0  0  0  0  0  0  0  0  0  0  0  0
  129.5053  129.6500   75.4937 H   0  0  0  0  0  0  0  0  0  0  0  0
  129.9443  130.6104   74.0405 H   0  0  0  0  0  0  0  0  0  0  0  0
  128.4501  129.6133   74.0405 H   0  0  0  0  0  0  0  0  0  0  0  0
  130.1746  125.7759   75.9386 H   0  0  0  0  0  0  0  0  0  0  0  0
  130.4854  124.7221   74.5175 H   0  0  0  0  0  0  0  0  0  0  0  0
  131.0626  126.4231   74.5175 H   0  0  0  0  0  0  0  0  0  0  0  0
  1  2  1  0
  2  3  1  0
  3  4  2  0
  4  5  1  0
  5  6  1  0
  6  7  1  0
  7  8  1  0
  8  9  2  0
  8 10  1  0
 10 11  1  0
 11 12  1  0
 12 13  2  0
 13 14  1  0
 14 15  1  0
 14 16  2  0
 16 17  1  0
 17 18  1  0
 17 19  2  0
 19 20  1  0
 20 21  3  0
  5 22  2  0
 22 23  1  0
 23 24  1  0
 24 25  1  0
 23 26  2  0
 26 27  1  0
 27 28  1  0
 26  3  1  0
 19 12  1  0
  1 29  1  0
  1 30  1  0
  1 31  1  0
  4 32  1  0
  6 33  1  0
  6 34  1  0
  7 35  1  0
 10 36  1  0
 10 37  1  0
 15 38  1  0
 15 39  1  0
 15 40  1  0
 16 41  1  0
 18 42  1  0
 18 43  1  0
 18 44  1  0
 22 45  1  0
 25 46  1  0
 25 47  1  0
 25 48  1  0
 28 49  1  0
 28 50  1  0
 28 51  1  0
M  END
>  <Binding energies>  (1) 
[-7.25]

>  <Ligand effiencies>  (1) 
[-0.25]

>  <Interactions>  (1) 
["V-B:ALA:541:CB:9863, H-A:GLY:454:N:4049, H-A:ARG:545:NE:4924, V-A:ILE:369:CD1:3238, V-A:ILE:369:CG2:3236, H-A:TYR:484:OH:4347, H-A:GLU:543:OE2:4910, V-A:GLU:543:CD:4908, V-A:GLU:543:CG:4907, V-A:GLU:543:CB:4906, V-B:HIS:456:CE1:9041, V-A:HIS:456:CE1:4069, V-A:HIS:456:CD2:4067, V-A:GLY:454:CA:4048, H-B:LYS:547:NZ:9922, V-B:LYS:547:CE:9921, H-A:LYS:547:NZ:4951, V-A:LYS:547:CE:4950"]

$$$$
1i_Grossjean_2025
     RDKit          3D

 32 33  0  0  0  0  0  0  0  0999 V2000
  128.7670  126.1880   67.7810 C   0  0  0  0  0  0  0  0  0  0  0  0
  129.1500  126.4540   69.2250 C   0  0  0  0  0  0  0  0  0  0  0  0
  129.9940  127.5050   69.5740 C   0  0  0  0  0  0  0  0  0  0  0  0
  130.3050  127.7070   70.9230 C   0  0  0  0  0  0  0  0  0  0  0  0
  131.2200  128.8770   71.2830 C   0  0  0  0  0  0  0  0  0  0  0  0
  129.7600  126.8380   71.8970 C   0  0  0  0  0  0  0  0  0  0  0  0
  130.0320  127.0630   73.3190 C   0  0  0  0  0  0  0  0  0  0  0  0
  130.2470  127.2430   74.4420 N   0  0  0  0  0  0  0  0  0  0  0  0
  128.9320  125.7830   71.4480 C   0  0  0  0  0  0  0  0  0  0  0  0
  128.1650  124.5980   72.5320 S   0  0  0  0  0  0  0  0  0  0  0  0
  129.4860  123.5830   73.2600 C   0  0  0  0  0  0  0  0  0  0  0  0
  129.3410  122.1030   72.8960 C   0  0  0  0  0  0  0  0  0  0  0  0
  130.3080  121.3520   73.0290 O   0  0  0  0  0  0  0  0  0  0  0  0
  128.1230  121.7310   72.4460 N   0  0  0  0  0  0  0  0  0  0  0  0
  127.7260  120.4630   72.0460 C   0  0  0  0  0  0  0  0  0  0  0  0
  126.9650  119.6150   72.8490 C   0  0  0  0  0  0  0  0  0  0  0  0
  126.7890  118.4750   72.1000 C   0  0  0  0  0  0  0  0  0  0  0  0
  127.4130  118.6270   70.9080 O   0  0  0  0  0  0  0  0  0  0  0  0
  128.0060  119.8910   70.8860 N   0  0  0  0  0  0  0  0  0  0  0  0
  128.6200  125.6070   70.1390 N   0  0  0  0  0  0  0  0  0  0  0  0
  127.8639  125.5608   67.7508 H   0  0  0  0  0  0  0  0  0  0  0  0
  128.5674  127.1429   67.2727 H   0  0  0  0  0  0  0  0  0  0  0  0
  129.5921  125.6675   67.2727 H   0  0  0  0  0  0  0  0  0  0  0  0
  130.4102  128.1669   68.8003 H   0  0  0  0  0  0  0  0  0  0  0  0
  131.2890  128.9653   72.3773 H   0  0  0  0  0  0  0  0  0  0  0  0
  132.2223  128.7006   70.8654 H   0  0  0  0  0  0  0  0  0  0  0  0
  130.8073  129.8072   70.8654 H   0  0  0  0  0  0  0  0  0  0  0  0
  130.4566  123.9458   72.8907 H   0  0  0  0  0  0  0  0  0  0  0  0
  129.4174  123.6713   74.3543 H   0  0  0  0  0  0  0  0  0  0  0  0
  127.4220  122.4530   72.3550 H   0  0  0  0  0  0  0  0  0  0  0  0
  126.5870  119.8145   73.8626 H   0  0  0  0  0  0  0  0  0  0  0  0
  126.2306  117.5824   72.4184 H   0  0  0  0  0  0  0  0  0  0  0  0
  1  2  1  0
  2  3  2  0
  3  4  1  0
  4  5  1  0
  4  6  2  0
  6  7  1  0
  7  8  3  0
  6  9  1  0
  9 10  1  0
 10 11  1  0
 11 12  1  0
 12 13  2  0
 12 14  1  0
 14 15  1  0
 15 16  1  0
 16 17  2  0
 17 18  1  0
 18 19  1  0
  9 20  2  0
 20  2  1  0
 19 15  2  0
  1 21  1  0
  1 22  1  0
  1 23  1  0
  3 24  1  0
  5 25  1  0
  5 26  1  0
  5 27  1  0
 11 28  1  0
 11 29  1  0
 14 30  1  0
 16 31  1  0
 17 32  1  0
M  END
>  <Binding energies>  (1) 
[-6.6]

>  <Ligand effiencies>  (1) 
[-0.3142857142857143]

>  <Interactions>  (1) 
["V-A:GLU:543:CB:4906, V-B:GLU:543:CB:9877, V-A:HIS:456:CE1:4069, V-B:GLU:543:CG:9878, V-B:GLU:543:CD:9879, V-A:HIS:456:CD2:4067, H-B:LYS:547:NZ:9922, H-B:GLY:544:O:9884, H-B:GLU:543:O:9874, V-B:GLU:543:C:9873, V-B:GLY:544:CA:9885, V-A:TYR:484:CB:4340, H-A:LYS:547:NZ:4951, V-A:GLU:543:C:4902, V-A:GLY:544:C:4912, V-A:TYR:484:CG:4341, V-A:TYR:484:CD1:4342, H-A:TYR:484:N:4339"]

$$$$
1j_Grossjean_2025
     RDKit          3D

 32 33  0  0  0  0  0  0  0  0999 V2000
  126.7640  128.4840   58.7760 C   0  0  0  0  0  0  0  0  0  0  0  0
  126.7180  127.0690   58.2280 C   0  0  0  0  0  0  0  0  0  0  0  0
  127.7830  126.5310   57.5090 C   0  0  0  0  0  0  0  0  0  0  0  0
  127.6910  125.2180   57.0390 C   0  0  0  0  0  0  0  0  0  0  0  0
  128.8790  124.6430   56.2680 C   0  0  0  0  0  0  0  0  0  0  0  0
  126.5180  124.4720   57.2970 C   0  0  0  0  0  0  0  0  0  0  0  0
  126.4210  123.0770   56.8610 C   0  0  0  0  0  0  0  0  0  0  0  0
  126.3480  121.9750   56.5150 N   0  0  0  0  0  0  0  0  0  0  0  0
  125.4760  125.1080   58.0130 C   0  0  0  0  0  0  0  0  0  0  0  0
  123.9330  124.3220   58.4240 S   0  0  0  0  0  0  0  0  0  0  0  0
  123.8940  124.0890   60.2260 C   0  0  0  0  0  0  0  0  0  0  0  0
  125.2980  124.0830   60.8340 C   0  0  0  0  0  0  0  0  0  0  0  0
  125.7710  123.0250   61.2520 O   0  0  0  0  0  0  0  0  0  0  0  0
  125.9260  125.2790   60.8620 N   0  0  0  0  0  0  0  0  0  0  0  0
  127.1940  125.5370   61.3650 C   0  0  0  0  0  0  0  0  0  0  0  0
  127.6380  126.6570   61.8950 N   0  0  0  0  0  0  0  0  0  0  0  0
  128.8980  126.5470   62.2700 C   0  0  0  0  0  0  0  0  0  0  0  0
  129.5020  125.3130   62.0460 C   0  0  0  0  0  0  0  0  0  0  0  0
  128.3490  124.2450   61.3040 S   0  0  0  0  0  0  0  0  0  0  0  0
  125.5840  126.3760   58.4830 N   0  0  0  0  0  0  0  0  0  0  0  0
  126.7629  128.4516   59.8755 H   0  0  0  0  0  0  0  0  0  0  0  0
  127.6789  128.9837   58.4248 H   0  0  0  0  0  0  0  0  0  0  0  0
  125.8835  129.0420   58.4248 H   0  0  0  0  0  0  0  0  0  0  0  0
  128.6839  127.1313   57.3139 H   0  0  0  0  0  0  0  0  0  0  0  0
  129.6348  124.2772   56.9785 H   0  0  0  0  0  0  0  0  0  0  0  0
  128.5373  123.8106   55.6353 H   0  0  0  0  0  0  0  0  0  0  0  0
  129.3198  125.4274   55.6353 H   0  0  0  0  0  0  0  0  0  0  0  0
  123.3150  124.9081   60.6775 H   0  0  0  0  0  0  0  0  0  0  0  0
  123.4304  123.1130   60.4323 H   0  0  0  0  0  0  0  0  0  0  0  0
  125.4220  126.0800   60.5110 H   0  0  0  0  0  0  0  0  0  0  0  0
  129.4410  127.3837   62.7338 H   0  0  0  0  0  0  0  0  0  0  0  0
  130.5413  125.0554   62.2980 H   0  0  0  0  0  0  0  0  0  0  0  0
  1  2  1  0
  2  3  2  0
  3  4  1  0
  4  5  1  0
  4  6  2  0
  6  7  1  0
  7  8  3  0
  6  9  1  0
  9 10  1  0
 10 11  1  0
 11 12  1  0
 12 13  2  0
 12 14  1  0
 14 15  1  0
 15 16  2  0
 16 17  1  0
 17 18  2  0
 18 19  1  0
  9 20  2  0
 20  2  1  0
 19 15  1  0
  1 21  1  0
  1 22  1  0
  1 23  1  0
  3 24  1  0
  5 25  1  0
  5 26  1  0
  5 27  1  0
 11 28  1  0
 11 29  1  0
 14 30  1  0
 17 31  1  0
 18 32  1  0
M  END
>  <Binding energies>  (1) 
[-5.76]

>  <Ligand effiencies>  (1) 
[-0.2742857142857143]

>  <Interactions>  (1) 
["H-B:ASP:366:OD2:8186, V-B:PRO:540:CA:9854, V-B:PRO:540:CB:9856, V-B:PRO:540:N:9855, V-B:TYR:539:CE1:9846, H-B:TYR:531:OH:9766, H-B:ALA:541:N:9862, V-B:TYR:539:CZ:9848, V-B:LEU:363:CA:8156, V-B:ASN:362:CB:8147, V-B:ASP:366:CG:8184, V-B:ASN:362:C:8143, H-B:TYR:539:N:9841"]

$$$$
1k_Grossjean_2025
     RDKit          3D

 50 50  0  0  0  0  0  0  0  0999 V2000
  125.1380  123.4940   57.4640 C   0  0  0  0  0  0  0  0  0  0  0  0
  123.9030  123.4810   58.1610 O   0  0  0  0  0  0  0  0  0  0  0  0
  123.9020  124.2930   59.3270 C   0  0  0  0  0  0  0  0  0  0  0  0
  125.2590  124.1770   60.0330 C   0  0  0  0  0  0  0  0  0  0  0  0
  125.1570  123.2500   61.1060 O   0  0  0  0  0  0  0  0  0  0  0  0
  125.7500  123.7070   62.3150 C   0  0  0  0  0  0  0  0  0  0  0  0
  127.2770  123.6330   62.1920 C   0  0  0  0  0  0  0  0  0  0  0  0
  127.6450  122.4020   61.5830 O   0  0  0  0  0  0  0  0  0  0  0  0
  128.3700  122.5600   60.3700 C   0  0  0  0  0  0  0  0  0  0  0  0
  129.5030  121.5190   60.3070 C   0  0  0  0  0  0  0  0  0  0  0  0
  130.7880  122.0060   60.8090 N   0  0  0  0  0  0  0  0  0  0  0  0
  131.1750  121.9880   62.0960 C   0  0  0  0  0  0  0  0  0  0  0  0
  130.4700  121.5440   63.0040 O   0  0  0  0  0  0  0  0  0  0  0  0
  132.5690  122.5700   62.3780 C   0  0  0  0  0  0  0  0  0  0  0  0
  132.6790  124.3940   62.3790 S   0  0  0  0  0  0  0  0  0  0  0  0
  132.5870  124.9870   64.0620 C   0  0  0  0  0  0  0  0  0  0  0  0
  133.7540  124.9830   64.7570 N   0  0  0  0  0  0  0  0  0  0  0  0
  133.7520  125.4100   66.0400 C   0  0  0  0  0  0  0  0  0  0  0  0
  135.0910  125.3680   66.7510 C   0  0  0  0  0  0  0  0  0  0  0  0
  132.6000  125.8640   66.6800 C   0  0  0  0  0  0  0  0  0  0  0  0
  131.3930  125.8790   65.9740 C   0  0  0  0  0  0  0  0  0  0  0  0
  130.1430  126.3790   66.6930 C   0  0  0  0  0  0  0  0  0  0  0  0
  131.3730  125.4330   64.6330 C   0  0  0  0  0  0  0  0  0  0  0  0
  130.1210  125.4350   63.8700 C   0  0  0  0  0  0  0  0  0  0  0  0
  129.1330  125.4360   63.2680 N   0  0  0  0  0  0  0  0  0  0  0  0
  125.9670  123.5027   58.1870 H   0  0  0  0  0  0  0  0  0  0  0  0
  125.2119  122.5966   56.8322 H   0  0  0  0  0  0  0  0  0  0  0  0
  125.1930  124.3928   56.8322 H   0  0  0  0  0  0  0  0  0  0  0  0
  123.7246  125.3410   59.0437 H   0  0  0  0  0  0  0  0  0  0  0  0
  123.1054  123.9567   60.0069 H   0  0  0  0  0  0  0  0  0  0  0  0
  126.0164  123.8266   59.3164 H   0  0  0  0  0  0  0  0  0  0  0  0
  125.5535  125.1615   60.4256 H   0  0  0  0  0  0  0  0  0  0  0  0
  125.4467  124.7477   62.5023 H   0  0  0  0  0  0  0  0  0  0  0  0
  125.4171  123.0735   63.1504 H   0  0  0  0  0  0  0  0  0  0  0  0
  127.6359  124.4693   61.5741 H   0  0  0  0  0  0  0  0  0  0  0  0
  127.7287  123.6960   63.1930 H   0  0  0  0  0  0  0  0  0  0  0  0
  127.6916  122.4151   59.5163 H   0  0  0  0  0  0  0  0  0  0  0  0
  128.8003  123.5716   60.3303 H   0  0  0  0  0  0  0  0  0  0  0  0
  129.2051  120.6470   60.9077 H   0  0  0  0  0  0  0  0  0  0  0  0
  129.6494  121.2722   59.2451 H   0  0  0  0  0  0  0  0  0  0  0  0
  131.4200  122.3880   60.1200 H   0  0  0  0  0  0  0  0  0  0  0  0
  132.8917  122.2112   63.3665 H   0  0  0  0  0  0  0  0  0  0  0  0
  133.2092  122.2309   61.5503 H   0  0  0  0  0  0  0  0  0  0  0  0
  134.9288  125.3731   67.8390 H   0  0  0  0  0  0  0  0  0  0  0  0
  135.6295  124.4525   66.4649 H   0  0  0  0  0  0  0  0  0  0  0  0
  135.6859  126.2479   66.4649 H   0  0  0  0  0  0  0  0  0  0  0  0
  132.6397  126.2054   67.7249 H   0  0  0  0  0  0  0  0  0  0  0  0
  130.2963  126.3177   67.7805 H   0  0  0  0  0  0  0  0  0  0  0  0
  129.9495  127.4238   66.4083 H   0  0  0  0  0  0  0  0  0  0  0  0
  129.2823  125.7559   66.4083 H   0  0  0  0  0  0  0  0  0  0  0  0
  1  2  1  0
  2  3  1  0
  3  4  1  0
  4  5  1  0
  5  6  1  0
  6  7  1  0
  7  8  1  0
  8  9  1  0
  9 10  1  0
 10 11  1  0
 11 12  1  0
 12 13  2  0
 12 14  1  0
 14 15  1  0
 15 16  1  0
 16 17  2  0
 17 18  1  0
 18 19  1  0
 18 20  2  0
 20 21  1  0
 21 22  1  0
 21 23  2  0
 23 24  1  0
 24 25  3  0
 23 16  1  0
  1 26  1  0
  1 27  1  0
  1 28  1  0
  3 29  1  0
  3 30  1  0
  4 31  1  0
  4 32  1  0
  6 33  1  0
  6 34  1  0
  7 35  1  0
  7 36  1  0
  9 37  1  0
  9 38  1  0
 10 39  1  0
 10 40  1  0
 11 41  1  0
 14 42  1  0
 14 43  1  0
 19 44  1  0
 19 45  1  0
 19 46  1  0
 20 47  1  0
 22 48  1  0
 22 49  1  0
 22 50  1  0
M  END
>  <Binding energies>  (1) 
[-5.47]

>  <Ligand effiencies>  (1) 
[-0.21038461538461536]

>  <Interactions>  (1) 
["V-B:TYR:539:CE2:9847, V-B:PRO:540:CA:9854, V-B:TYR:539:CD2:9845, V-B:LEU:363:CD1:8160, V-B:PRO:540:CB:9856, V-B:ALA:541:CB:9863, V-A:LEU:475:CD2:4258, H-B:ALA:541:N:9862, H-A:GLY:454:N:4049, H-A:TYR:484:OH:4347, V-A:ARG:545:CZ:4926, V-B:LEU:363:CA:8156, V-A:GLU:543:CD:4908, V-A:HIS:456:CE1:4069, V-B:GLU:543:CG:9878, V-B:GLU:543:CD:9879, V-A:ARG:545:CG:4922, V-A:ARG:545:CD:4923, V-A:GLY:454:CA:4048, V-B:ASP:366:CG:8184, V-A:GLY:453:C:4041, V-A:GLY:453:CA:4043, V-A:ILE:455:C:4051, V-B:ASN:362:C:8143"]

$$$$
1l_Grossjean_2025
     RDKit          3D

 30 30  0  0  0  0  0  0  0  0999 V2000
  124.3910  123.9800   61.1690 C   0  0  0  0  0  0  0  0  0  0  0  0
  125.3190  123.1420   61.8440 O   0  0  0  0  0  0  0  0  0  0  0  0
  126.4410  123.8800   62.2190 N   0  0  0  0  0  0  0  0  0  0  0  0
  127.6650  123.3910   61.9440 C   0  0  0  0  0  0  0  0  0  0  0  0
  127.8680  122.4430   61.1810 O   0  0  0  0  0  0  0  0  0  0  0  0
  128.8260  124.1140   62.6420 C   0  0  0  0  0  0  0  0  0  0  0  0
  129.8470  123.0620   63.7310 S   0  0  0  0  0  0  0  0  0  0  0  0
  130.6930  124.1210   64.8910 C   0  0  0  0  0  0  0  0  0  0  0  0
  129.9010  124.7670   65.7870 N   0  0  0  0  0  0  0  0  0  0  0  0
  130.4780  125.5880   66.6960 C   0  0  0  0  0  0  0  0  0  0  0  0
  129.5300  126.2730   67.6610 C   0  0  0  0  0  0  0  0  0  0  0  0
  131.8540  125.7980   66.7530 C   0  0  0  0  0  0  0  0  0  0  0  0
  132.6800  125.1380   65.8370 C   0  0  0  0  0  0  0  0  0  0  0  0
  134.1860  125.3820   65.9180 C   0  0  0  0  0  0  0  0  0  0  0  0
  132.0990  124.2770   64.8790 C   0  0  0  0  0  0  0  0  0  0  0  0
  132.9400  123.5720   63.9070 C   0  0  0  0  0  0  0  0  0  0  0  0
  133.6060  123.0170   63.1410 N   0  0  0  0  0  0  0  0  0  0  0  0
  123.7859  124.5264   61.9074 H   0  0  0  0  0  0  0  0  0  0  0  0
  124.9363  124.6977   60.5385 H   0  0  0  0  0  0  0  0  0  0  0  0
  123.7324  123.3646   60.5385 H   0  0  0  0  0  0  0  0  0  0  0  0
  126.2450  124.5080   62.9850 H   0  0  0  0  0  0  0  0  0  0  0  0
  129.4801  124.5377   61.8658 H   0  0  0  0  0  0  0  0  0  0  0  0
  128.3684  124.8753   63.2908 H   0  0  0  0  0  0  0  0  0  0  0  0
  129.8357  126.0521   68.6943 H   0  0  0  0  0  0  0  0  0  0  0  0
  129.5593  127.3599   67.4944 H   0  0  0  0  0  0  0  0  0  0  0  0
  128.5072  125.9039   67.4944 H   0  0  0  0  0  0  0  0  0  0  0  0
  132.2847  126.4729   67.5073 H   0  0  0  0  0  0  0  0  0  0  0  0
  134.4932  125.4318   66.9731 H   0  0  0  0  0  0  0  0  0  0  0  0
  134.7182  124.5584   65.4196 H   0  0  0  0  0  0  0  0  0  0  0  0
  134.4309  126.3315   65.4196 H   0  0  0  0  0  0  0  0  0  0  0  0
  1  2  1  0
  2  3  1  0
  3  4  1  0
  4  5  2  0
  4  6  1  0
  6  7  1  0
  7  8  1  0
  8  9  2  0
  9 10  1  0
 10 11  1  0
 10 12  2  0
 12 13  1  0
 13 14  1  0
 13 15  2  0
 15 16  1  0
 16 17  3  0
 15  8  1  0
  1 18  1  0
  1 19  1  0
  1 20  1  0
  3 21  1  0
  6 22  1  0
  6 23  1  0
 11 24  1  0
 11 25  1  0
 11 26  1  0
 12 27  1  0
 14 28  1  0
 14 29  1  0
 14 30  1  0
M  END
>  <Binding energies>  (1) 
[-5.88]

>  <Ligand effiencies>  (1) 
[-0.32666666666666666]

>  <Interactions>  (1) 
["V-B:PRO:540:CB:9856, V-B:ALA:541:CB:9863, H-B:GLU:543:OE2:9881, H-B:ALA:541:N:9862, H-A:GLY:454:N:4049, H-A:TYR:484:OH:4347, V-A:ARG:545:CZ:4926, V-B:GLU:543:CB:9877, V-A:HIS:456:CE1:4069, V-B:GLU:543:CG:9878, V-B:GLU:543:CD:9879, V-B:ASN:362:CB:8147, V-A:ARG:545:CD:4923, V-A:GLY:454:CA:4048, V-A:GLY:453:C:4041, V-A:GLY:453:CA:4043, V-B:ASN:362:C:8143"]

$$$$
1m_Grossjean_2025
     RDKit          3D

 35 35  0  0  0  0  0  0  0  0999 V2000
  127.4530  123.7670   62.3980 C   0  0  0  0  0  0  0  0  0  0  0  0
  126.4150  123.1720   61.6320 O   0  0  0  0  0  0  0  0  0  0  0  0
  125.1210  123.3910   61.9450 C   0  0  0  0  0  0  0  0  0  0  0  0
  124.5970  123.1570   63.0380 O   0  0  0  0  0  0  0  0  0  0  0  0
  124.3450  123.9930   60.7540 C   0  0  0  0  0  0  0  0  0  0  0  0
  125.1940  124.2100   59.5730 N   0  0  0  0  0  0  0  0  0  0  0  0
  124.7710  124.6470   58.3710 C   0  0  0  0  0  0  0  0  0  0  0  0
  123.5900  124.9040   58.1280 O   0  0  0  0  0  0  0  0  0  0  0  0
  125.8600  124.8030   57.3030 C   0  0  0  0  0  0  0  0  0  0  0  0
  126.8700  123.3080   57.0200 S   0  0  0  0  0  0  0  0  0  0  0  0
  128.2350  123.3420   58.1620 C   0  0  0  0  0  0  0  0  0  0  0  0
  128.1590  122.3890   59.1260 N   0  0  0  0  0  0  0  0  0  0  0  0
  129.1470  122.3150   60.0480 C   0  0  0  0  0  0  0  0  0  0  0  0
  129.0040  121.2130   61.0810 C   0  0  0  0  0  0  0  0  0  0  0  0
  130.2350  123.1860   60.0560 C   0  0  0  0  0  0  0  0  0  0  0  0
  130.3100  124.1880   59.0830 C   0  0  0  0  0  0  0  0  0  0  0  0
  131.5030  125.1410   59.1210 C   0  0  0  0  0  0  0  0  0  0  0  0
  129.2890  124.2860   58.1100 C   0  0  0  0  0  0  0  0  0  0  0  0
  129.3220  125.3590   57.1130 C   0  0  0  0  0  0  0  0  0  0  0  0
  129.3480  126.2060   56.3260 N   0  0  0  0  0  0  0  0  0  0  0  0
  127.2358  123.6425   63.4691 H   0  0  0  0  0  0  0  0  0  0  0  0
  128.4101  123.2804   62.1590 H   0  0  0  0  0  0  0  0  0  0  0  0
  127.5168  124.8388   62.1590 H   0  0  0  0  0  0  0  0  0  0  0  0
  123.5314  123.3050   60.4806 H   0  0  0  0  0  0  0  0  0  0  0  0
  123.9603  124.9737   61.0706 H   0  0  0  0  0  0  0  0  0  0  0  0
  126.1740  123.9950   59.6860 H   0  0  0  0  0  0  0  0  0  0  0  0
  125.3733  125.0725   56.3541 H   0  0  0  0  0  0  0  0  0  0  0  0
  126.5482  125.5780   57.6715 H   0  0  0  0  0  0  0  0  0  0  0  0
  129.0603  121.6469   62.0902 H   0  0  0  0  0  0  0  0  0  0  0  0
  128.0333  120.7121   60.9509 H   0  0  0  0  0  0  0  0  0  0  0  0
  129.8147  120.4810   60.9509 H   0  0  0  0  0  0  0  0  0  0  0  0
  131.0234  123.0868   60.8166 H   0  0  0  0  0  0  0  0  0  0  0  0
  131.7692  125.3537   60.1669 H   0  0  0  0  0  0  0  0  0  0  0  0
  132.3600  124.6761   58.6117 H   0  0  0  0  0  0  0  0  0  0  0  0
  131.2389  126.0796   58.6117 H   0  0  0  0  0  0  0  0  0  0  0  0
  1  2  1  0
  2  3  1  0
  3  4  2  0
  3  5  1  0
  5  6  1  0
  6  7  1  0
  7  8  2  0
  7  9  1  0
  9 10  1  0
 10 11  1  0
 11 12  2  0
 12 13  1  0
 13 14  1  0
 13 15  2  0
 15 16  1  0
 16 17  1  0
 16 18  2  0
 18 19  1  0
 19 20  3  0
 18 11  1  0
  1 21  1  0
  1 22  1  0
  1 23  1  0
  5 24  1  0
  5 25  1  0
  6 26  1  0
  9 27  1  0
  9 28  1  0
 14 29  1  0
 14 30  1  0
 14 31  1  0
 15 32  1  0
 17 33  1  0
 17 34  1  0
 17 35  1  0
M  END
>  <Binding energies>  (1) 
[-5.32]

>  <Ligand effiencies>  (1) 
[-0.25333333333333335]

>  <Interactions>  (1) 
["V-B:TYR:539:CE2:9847, V-B:PRO:540:CA:9854, V-B:TYR:539:CD2:9845, V-B:PRO:540:CB:9856, V-B:ALA:541:CB:9863, V-B:ALA:541:CA:9861, H-B:TYR:531:OH:9766, H-B:ALA:541:N:9862, V-B:TYR:539:CZ:9848, H-B:TYR:539:OH:9849, V-B:GLU:543:CG:9878, V-B:GLU:543:CD:9879, H-A:TYR:531:OH:4795, V-B:PRO:540:C:9852, V-B:ASN:362:CB:8147, V-B:ASN:362:C:8143, H-B:ASN:362:ND2:8150"]

$$$$
1n_Grossjean_2025
     RDKit          3D

 48 49  0  0  0  0  0  0  0  0999 V2000
  129.1130  130.6520   73.1850 C   0  0  0  0  0  0  0  0  0  0  0  0
  129.4400  129.9210   74.4910 C   0  0  0  0  0  0  0  0  0  0  0  0
  130.1330  128.7140   74.1960 O   0  0  0  0  0  0  0  0  0  0  0  0
  129.4830  127.6430   73.6740 C   0  0  0  0  0  0  0  0  0  0  0  0
  128.7920  126.8720   74.3470 O   0  0  0  0  0  0  0  0  0  0  0  0
  129.6770  127.4960   72.1920 C   0  0  0  0  0  0  0  0  0  0  0  0
  128.8660  126.6530   71.4160 C   0  0  0  0  0  0  0  0  0  0  0  0
  129.0750  126.5380   70.0450 C   0  0  0  0  0  0  0  0  0  0  0  0
  130.0990  127.2520   69.4220 C   0  0  0  0  0  0  0  0  0  0  0  0
  130.2240  127.0570   68.0330 N   0  0  0  0  0  0  0  0  0  0  0  0
  130.0160  125.9450   67.2950 C   0  0  0  0  0  0  0  0  0  0  0  0
  129.6530  124.8540   67.7350 O   0  0  0  0  0  0  0  0  0  0  0  0
  130.2580  126.0950   65.7870 C   0  0  0  0  0  0  0  0  0  0  0  0
  129.6560  124.9400   64.9590 C   0  0  0  0  0  0  0  0  0  0  0  0
  130.6880  123.4450   64.8880 S   0  0  0  0  0  0  0  0  0  0  0  0
  131.2410  123.2510   63.2080 C   0  0  0  0  0  0  0  0  0  0  0  0
  130.4500  122.4360   62.4670 N   0  0  0  0  0  0  0  0  0  0  0  0
  130.7660  122.2280   61.1670 C   0  0  0  0  0  0  0  0  0  0  0  0
  129.8300  121.3150   60.3990 C   0  0  0  0  0  0  0  0  0  0  0  0
  131.8750  122.8120   60.5600 C   0  0  0  0  0  0  0  0  0  0  0  0
  132.7100  123.6380   61.3220 C   0  0  0  0  0  0  0  0  0  0  0  0
  133.9280  124.2560   60.6390 C   0  0  0  0  0  0  0  0  0  0  0  0
  132.4020  123.8650   62.6830 C   0  0  0  0  0  0  0  0  0  0  0  0
  133.2900  124.6840   63.5110 C   0  0  0  0  0  0  0  0  0  0  0  0
  133.9930  125.3300   64.1640 N   0  0  0  0  0  0  0  0  0  0  0  0
  130.9070  128.1040   70.1890 C   0  0  0  0  0  0  0  0  0  0  0  0
  130.6950  128.2210   71.5600 C   0  0  0  0  0  0  0  0  0  0  0  0
  128.6737  131.6340   73.4145 H   0  0  0  0  0  0  0  0  0  0  0  0
  130.0351  130.7902   72.6014 H   0  0  0  0  0  0  0  0  0  0  0  0
  128.3954  130.0567   72.6014 H   0  0  0  0  0  0  0  0  0  0  0  0
  130.0725  130.5625   75.1222 H   0  0  0  0  0  0  0  0  0  0  0  0
  128.5071  129.6880   75.0253 H   0  0  0  0  0  0  0  0  0  0  0  0
  128.0592  126.0790   71.8952 H   0  0  0  0  0  0  0  0  0  0  0  0
  128.4277  125.8789   69.4478 H   0  0  0  0  0  0  0  0  0  0  0  0
  130.4710  127.8900   67.5200 H   0  0  0  0  0  0  0  0  0  0  0  0
  129.8043  127.0394   65.4519 H   0  0  0  0  0  0  0  0  0  0  0  0
  131.3462  126.0809   65.6266 H   0  0  0  0  0  0  0  0  0  0  0  0
  128.6871  124.6678   65.4029 H   0  0  0  0  0  0  0  0  0  0  0  0
  129.5679  125.3084   63.9263 H   0  0  0  0  0  0  0  0  0  0  0  0
  129.2277  120.7275   61.1075 H   0  0  0  0  0  0  0  0  0  0  0  0
  129.1645  121.9205   59.7662 H   0  0  0  0  0  0  0  0  0  0  0  0
  130.4188  120.6347   59.7662 H   0  0  0  0  0  0  0  0  0  0  0  0
  132.0917  122.6270   59.4975 H   0  0  0  0  0  0  0  0  0  0  0  0
  134.6341  124.6143   61.4026 H   0  0  0  0  0  0  0  0  0  0  0  0
  134.4200  123.4985   60.0112 H   0  0  0  0  0  0  0  0  0  0  0  0
  133.6072  125.1004   60.0112 H   0  0  0  0  0  0  0  0  0  0  0  0
  131.7097  128.6809   69.7064 H   0  0  0  0  0  0  0  0  0  0  0  0
  131.3345  128.8907   72.1537 H   0  0  0  0  0  0  0  0  0  0  0  0
  1  2  1  0
  2  3  1  0
  3  4  1  0
  4  5  2  0
  4  6  1  0
  6  7  2  0
  7  8  1  0
  8  9  2  0
  9 10  1  0
 10 11  1  0
 11 12  2  0
 11 13  1  0
 13 14  1  0
 14 15  1  0
 15 16  1  0
 16 17  2  0
 17 18  1  0
 18 19  1  0
 18 20  2  0
 20 21  1  0
 21 22  1  0
 21 23  2  0
 23 24  1  0
 24 25  3  0
  9 26  1  0
 26 27  2  0
 27  6  1  0
 23 16  1  0
  1 28  1  0
  1 29  1  0
  1 30  1  0
  2 31  1  0
  2 32  1  0
  7 33  1  0
  8 34  1  0
 10 35  1  0
 13 36  1  0
 13 37  1  0
 14 38  1  0
 14 39  1  0
 19 40  1  0
 19 41  1  0
 19 42  1  0
 20 43  1  0
 22 44  1  0
 22 45  1  0
 22 46  1  0
 26 47  1  0
 27 48  1  0
M  END
>  <Binding energies>  (1) 
[-7.51]

>  <Ligand effiencies>  (1) 
[-0.2682142857142857]

>  <Interactions>  (1) 
["V-B:TYR:539:CE2:9847, V-B:TYR:539:CD2:9845, H-A:ARG:545:NH2:4928, H-A:GLY:454:N:4049, H-A:ARG:545:NE:4924, H-A:ARG:545:NH1:4927, V-A:ASP:366:CG:3212, V-A:ILE:369:CD1:3238, V-A:ASP:366:CA:3209, V-A:ILE:369:CG2:3236, H-A:TYR:484:OH:4347, H-A:GLU:543:OE2:4910, V-A:GLU:543:CD:4908, V-A:GLU:543:CB:4906, V-B:HIS:456:CE1:9041, V-A:HIS:456:CE1:4069, V-B:GLU:543:CG:9878, V-B:GLU:543:CD:9879, H-B:LYS:547:NZ:9922, V-A:ILE:369:CB:3235, V-A:ILE:369:CG1:3237, H-A:LYS:547:NZ:4951, V-A:LYS:547:CE:4950"]

$$$$
1o_Grossjean_2025
     RDKit          3D

 45 46  0  0  0  0  0  0  0  0999 V2000
  129.6770  129.8970   73.5130 C   0  0  0  0  0  0  0  0  0  0  0  0
  130.1660  128.5700   73.6490 O   0  0  0  0  0  0  0  0  0  0  0  0
  129.4620  127.5130   73.1700 C   0  0  0  0  0  0  0  0  0  0  0  0
  128.7500  126.7920   73.8770 O   0  0  0  0  0  0  0  0  0  0  0  0
  129.6300  127.3080   71.6920 C   0  0  0  0  0  0  0  0  0  0  0  0
  130.5840  128.0170   70.9480 C   0  0  0  0  0  0  0  0  0  0  0  0
  130.7170  127.8020   69.5790 C   0  0  0  0  0  0  0  0  0  0  0  0
  129.8980  126.8810   68.9250 C   0  0  0  0  0  0  0  0  0  0  0  0
  130.1230  126.7350   67.5420 N   0  0  0  0  0  0  0  0  0  0  0  0
  130.0690  125.6290   66.7670 C   0  0  0  0  0  0  0  0  0  0  0  0
  129.7530  124.5050   67.1570 O   0  0  0  0  0  0  0  0  0  0  0  0
  130.4070  125.8430   65.2850 C   0  0  0  0  0  0  0  0  0  0  0  0
  131.9030  126.1150   65.0330 C   0  0  0  0  0  0  0  0  0  0  0  0
  132.9150  124.6110   64.8990 S   0  0  0  0  0  0  0  0  0  0  0  0
  132.5500  123.8220   63.3440 C   0  0  0  0  0  0  0  0  0  0  0  0
  133.1410  124.4240   62.2810 N   0  0  0  0  0  0  0  0  0  0  0  0
  132.9420  123.9070   61.0460 C   0  0  0  0  0  0  0  0  0  0  0  0
  133.6460  124.6240   59.9100 C   0  0  0  0  0  0  0  0  0  0  0  0
  132.1450  122.7870   60.8200 C   0  0  0  0  0  0  0  0  0  0  0  0
  131.5100  122.1740   61.9050 C   0  0  0  0  0  0  0  0  0  0  0  0
  130.6290  120.9570   61.6290 C   0  0  0  0  0  0  0  0  0  0  0  0
  131.6990  122.6990   63.2040 C   0  0  0  0  0  0  0  0  0  0  0  0
  130.9960  122.1070   64.3440 C   0  0  0  0  0  0  0  0  0  0  0  0
  130.4400  121.6360   65.2430 N   0  0  0  0  0  0  0  0  0  0  0  0
  128.9450  126.1640   69.6630 C   0  0  0  0  0  0  0  0  0  0  0  0
  128.8140  126.3790   71.0320 C   0  0  0  0  0  0  0  0  0  0  0  0
  129.5165  130.3326   74.5102 H   0  0  0  0  0  0  0  0  0  0  0  0
  130.4107  130.5034   72.9617 H   0  0  0  0  0  0  0  0  0  0  0  0
  128.7252  129.8823   72.9617 H   0  0  0  0  0  0  0  0  0  0  0  0
  131.2329  128.7494   71.4505 H   0  0  0  0  0  0  0  0  0  0  0  0
  131.4729  128.3621   69.0090 H   0  0  0  0  0  0  0  0  0  0  0  0
  130.3330  127.6000   67.0650 H   0  0  0  0  0  0  0  0  0  0  0  0
  130.1177  124.9401   64.7272 H   0  0  0  0  0  0  0  0  0  0  0  0
  129.8536  126.7328   64.9502 H   0  0  0  0  0  0  0  0  0  0  0  0
  131.9985  126.6810   64.0946 H   0  0  0  0  0  0  0  0  0  0  0  0
  132.2763  126.6735   65.9041 H   0  0  0  0  0  0  0  0  0  0  0  0
  134.3604  125.3516   60.3225 H   0  0  0  0  0  0  0  0  0  0  0  0
  134.1850  123.8910   59.2918 H   0  0  0  0  0  0  0  0  0  0  0  0
  132.9032  125.1494   59.2918 H   0  0  0  0  0  0  0  0  0  0  0  0
  132.0168  122.3902   59.8021 H   0  0  0  0  0  0  0  0  0  0  0  0
  130.3077  120.5131   62.5828 H   0  0  0  0  0  0  0  0  0  0  0  0
  129.7449  121.2674   61.0527 H   0  0  0  0  0  0  0  0  0  0  0  0
  131.2000  120.2141   61.0527 H   0  0  0  0  0  0  0  0  0  0  0  0
  128.2994  125.4299   69.1587 H   0  0  0  0  0  0  0  0  0  0  0  0
  128.0620  125.8137   71.6020 H   0  0  0  0  0  0  0  0  0  0  0  0
  1  2  1  0
  2  3  1  0
  3  4  2  0
  3  5  1  0
  5  6  2  0
  6  7  1  0
  7  8  2  0
  8  9  1  0
  9 10  1  0
 10 11  2  0
 10 12  1  0
 12 13  1  0
 13 14  1  0
 14 15  1  0
 15 16  2  0
 16 17  1  0
 17 18  1  0
 17 19  2  0
 19 20  1  0
 20 21  1  0
 20 22  2  0
 22 23  1  0
 23 24  3  0
  8 25  1  0
 25 26  2  0
 26  5  1  0
 22 15  1  0
  1 27  1  0
  1 28  1  0
  1 29  1  0
  6 30  1  0
  7 31  1  0
  9 32  1  0
 12 33  1  0
 12 34  1  0
 13 35  1  0
 13 36  1  0
 18 37  1  0
 18 38  1  0
 18 39  1  0
 19 40  1  0
 21 41  1  0
 21 42  1  0
 21 43  1  0
 25 44  1  0
 26 45  1  0
M  END
>  <Binding energies>  (1) 
[-7.39]

>  <Ligand effiencies>  (1) 
[-0.27370370370370367]

>  <Interactions>  (1) 
["V-B:TYR:539:CE2:9847, V-B:ALA:541:CB:9863, V-A:LEU:475:CD2:4258, H-A:GLY:454:N:4049, V-A:ASP:366:CG:3212, V-A:ILE:369:CD1:3238, V-A:ASP:366:CB:3211, V-A:ASP:366:CA:3209, V-A:ILE:369:CG2:3236, H-A:TYR:484:OH:4347, H-A:GLU:543:OE2:4910, V-A:ARG:545:CZ:4926, V-A:GLU:543:CD:4908, V-A:GLU:543:CB:4906, V-B:HIS:456:CE1:9041, V-B:GLU:543:CB:9877, V-A:HIS:456:CE1:4069, V-B:GLU:543:CG:9878, V-B:GLU:543:CD:9879, V-A:LEU:475:CD1:4257, H-B:LYS:547:NZ:9922, V-A:ILE:369:CB:3235, H-A:LYS:547:NZ:4951, V-A:LYS:547:CE:4950"]

$$$$
1p_Grossjean_2025
     RDKit          3D

 35 36  0  0  0  0  0  0  0  0999 V2000
  125.0010  123.6430   62.7490 C   0  0  0  0  0  0  0  0  0  0  0  0
  125.5110  123.5680   61.3220 C   0  0  0  0  0  0  0  0  0  0  0  0
  124.7080  123.9310   60.2420 C   0  0  0  0  0  0  0  0  0  0  0  0
  125.2250  123.8290   58.9460 C   0  0  0  0  0  0  0  0  0  0  0  0
  124.3220  124.2190   57.7770 C   0  0  0  0  0  0  0  0  0  0  0  0
  126.5480  123.3690   58.7640 C   0  0  0  0  0  0  0  0  0  0  0  0
  127.0960  123.2070   57.4160 C   0  0  0  0  0  0  0  0  0  0  0  0
  127.5270  123.0810   56.3500 N   0  0  0  0  0  0  0  0  0  0  0  0
  127.2980  123.0440   59.9190 C   0  0  0  0  0  0  0  0  0  0  0  0
  128.9780  122.4600   59.8700 S   0  0  0  0  0  0  0  0  0  0  0  0
  129.3320  121.7390   61.5000 C   0  0  0  0  0  0  0  0  0  0  0  0
  130.8300  121.4800   61.7520 C   0  0  0  0  0  0  0  0  0  0  0  0
  131.3710  122.1800   63.0070 C   0  0  0  0  0  0  0  0  0  0  0  0
  131.1710  121.6800   64.1160 O   0  0  0  0  0  0  0  0  0  0  0  0
  132.0600  123.3220   62.7880 N   0  0  0  0  0  0  0  0  0  0  0  0
  132.6520  124.1430   63.7400 C   0  0  0  0  0  0  0  0  0  0  0  0
  131.9710  124.6250   64.8570 C   0  0  0  0  0  0  0  0  0  0  0  0
  132.8940  125.3860   65.5380 C   0  0  0  0  0  0  0  0  0  0  0  0
  134.0680  125.3650   64.8640 O   0  0  0  0  0  0  0  0  0  0  0  0
  133.9020  124.5740   63.7260 N   0  0  0  0  0  0  0  0  0  0  0  0
  126.7810  123.1260   61.1710 N   0  0  0  0  0  0  0  0  0  0  0  0
  125.8428  123.5192   63.4462 H   0  0  0  0  0  0  0  0  0  0  0  0
  124.5259  124.6207   62.9177 H   0  0  0  0  0  0  0  0  0  0  0  0
  124.2646  122.8435   62.9177 H   0  0  0  0  0  0  0  0  0  0  0  0
  123.6822  124.2926   60.4064 H   0  0  0  0  0  0  0  0  0  0  0  0
  123.3768  124.6272   58.1642 H   0  0  0  0  0  0  0  0  0  0  0  0
  124.8256  124.9798   57.1626 H   0  0  0  0  0  0  0  0  0  0  0  0
  124.1134  123.3308   57.1626 H   0  0  0  0  0  0  0  0  0  0  0  0
  128.9646  122.4305   62.2726 H   0  0  0  0  0  0  0  0  0  0  0  0
  128.8270  120.7624   61.5355 H   0  0  0  0  0  0  0  0  0  0  0  0
  130.9816  120.3964   61.8653 H   0  0  0  0  0  0  0  0  0  0  0  0
  131.3782  121.8907   60.8913 H   0  0  0  0  0  0  0  0  0  0  0  0
  132.1550  123.6290   61.8310 H   0  0  0  0  0  0  0  0  0  0  0  0
  130.9231  124.4377   65.1341 H   0  0  0  0  0  0  0  0  0  0  0  0
  132.7076  125.9247   66.4788 H   0  0  0  0  0  0  0  0  0  0  0  0
  1  2  1  0
  2  3  2  0
  3  4  1  0
  4  5  1  0
  4  6  2  0
  6  7  1  0
  7  8  3  0
  6  9  1  0
  9 10  1  0
 10 11  1  0
 11 12  1  0
 12 13  1  0
 13 14  2  0
 13 15  1  0
 15 16  1  0
 16 17  1  0
 17 18  2  0
 18 19  1  0
 19 20  1  0
  9 21  2  0
 21  2  1  0
 20 16  2  0
  1 22  1  0
  1 23  1  0
  1 24  1  0
  3 25  1  0
  5 26  1  0
  5 27  1  0
  5 28  1  0
 11 29  1  0
 11 30  1  0
 12 31  1  0
 12 32  1  0
 15 33  1  0
 17 34  1  0
 18 35  1  0
M  END
>  <Binding energies>  (1) 
[-7.64]

>  <Ligand effiencies>  (1) 
[-0.34727272727272723]

>  <Interactions>  (1) 
["V-B:PRO:540:CA:9854, V-B:LEU:363:CD1:8160, V-B:PRO:540:CB:9856, V-B:ALA:541:CB:9863, V-A:LEU:475:CD2:4258, V-B:PRO:540:N:9855, V-B:ALA:541:CA:9861, H-B:ALA:541:N:9862, H-A:ARG:545:NH2:4928, H-A:GLY:454:N:4049, H-A:ARG:545:NE:4924, H-A:ARG:545:NH1:4927, H-A:TYR:484:OH:4347, V-A:ARG:545:CZ:4926, V-B:LEU:363:CA:8156, V-B:TYR:531:CE2:9764, V-B:GLU:543:CG:9878, V-B:GLU:543:CD:9879, V-B:ASN:362:CB:8147, V-B:ALA:541:C:9859, V-B:ASN:362:CG:8148"]

$$$$
1q_Grossjean_2025
     RDKit          3D

 38 38  0  0  0  0  0  0  0  0999 V2000
  124.6570  124.1130   57.1680 C   0  0  0  0  0  0  0  0  0  0  0  0
  125.3060  122.9160   56.7630 O   0  0  0  0  0  0  0  0  0  0  0  0
  126.4270  122.4920   57.3960 C   0  0  0  0  0  0  0  0  0  0  0  0
  127.2150  121.6470   56.9680 O   0  0  0  0  0  0  0  0  0  0  0  0
  126.6540  123.1440   58.7770 C   0  0  0  0  0  0  0  0  0  0  0  0
  127.9060  122.7140   59.4160 N   0  0  0  0  0  0  0  0  0  0  0  0
  128.1310  122.6420   60.7420 C   0  0  0  0  0  0  0  0  0  0  0  0
  127.2830  122.9360   61.5860 O   0  0  0  0  0  0  0  0  0  0  0  0
  129.5230  122.1480   61.1620 C   0  0  0  0  0  0  0  0  0  0  0  0
  130.0090  122.6980   62.5180 C   0  0  0  0  0  0  0  0  0  0  0  0
  130.1260  124.5110   62.5670 S   0  0  0  0  0  0  0  0  0  0  0  0
  130.7840  124.9940   64.1510 C   0  0  0  0  0  0  0  0  0  0  0  0
  129.8300  125.3810   65.0360 N   0  0  0  0  0  0  0  0  0  0  0  0
  130.2100  125.7730   66.2740 C   0  0  0  0  0  0  0  0  0  0  0  0
  129.0890  126.2060   67.2000 C   0  0  0  0  0  0  0  0  0  0  0  0
  131.5410  125.7860   66.6830 C   0  0  0  0  0  0  0  0  0  0  0  0
  132.5300  125.3660   65.7890 C   0  0  0  0  0  0  0  0  0  0  0  0
  133.9820  125.3730   66.2680 C   0  0  0  0  0  0  0  0  0  0  0  0
  132.1590  124.9500   64.4900 C   0  0  0  0  0  0  0  0  0  0  0  0
  133.1750  124.4530   63.5610 C   0  0  0  0  0  0  0  0  0  0  0  0
  133.9810  124.0600   62.8280 N   0  0  0  0  0  0  0  0  0  0  0  0
  124.6304  124.1620   58.2666 H   0  0  0  0  0  0  0  0  0  0  0  0
  125.2086  124.9800   56.7755 H   0  0  0  0  0  0  0  0  0  0  0  0
  123.6295  124.1238   56.7755 H   0  0  0  0  0  0  0  0  0  0  0  0
  126.6830  124.2361   58.6486 H   0  0  0  0  0  0  0  0  0  0  0  0
  125.8263  122.8293   59.4296 H   0  0  0  0  0  0  0  0  0  0  0  0
  128.6640  122.4780   58.7910 H   0  0  0  0  0  0  0  0  0  0  0  0
  129.4942  121.0502   61.2259 H   0  0  0  0  0  0  0  0  0  0  0  0
  130.2295  122.5136   60.4023 H   0  0  0  0  0  0  0  0  0  0  0  0
  129.3042  122.3737   63.2978 H   0  0  0  0  0  0  0  0  0  0  0  0
  131.0231  122.3044   62.6813 H   0  0  0  0  0  0  0  0  0  0  0  0
  129.4086  126.0826   68.2453 H   0  0  0  0  0  0  0  0  0  0  0  0
  128.8464  127.2625   67.0131 H   0  0  0  0  0  0  0  0  0  0  0  0
  128.1992  125.5869   67.0131 H   0  0  0  0  0  0  0  0  0  0  0  0
  131.8103  126.1220   67.6952 H   0  0  0  0  0  0  0  0  0  0  0  0
  134.0053  125.3731   67.3678 H   0  0  0  0  0  0  0  0  0  0  0  0
  134.4970  124.4773   65.8904 H   0  0  0  0  0  0  0  0  0  0  0  0
  134.4883  126.2736   65.8904 H   0  0  0  0  0  0  0  0  0  0  0  0
  1  2  1  0
  2  3  1  0
  3  4  2  0
  3  5  1  0
  5  6  1  0
  6  7  1  0
  7  8  2  0
  7  9  1  0
  9 10  1  0
 10 11  1  0
 11 12  1  0
 12 13  2  0
 13 14  1  0
 14 15  1  0
 14 16  2  0
 16 17  1  0
 17 18  1  0
 17 19  2  0
 19 20  1  0
 20 21  3  0
 19 12  1  0
  1 22  1  0
  1 23  1  0
  1 24  1  0
  5 25  1  0
  5 26  1  0
  6 27  1  0
  9 28  1  0
  9 29  1  0
 10 30  1  0
 10 31  1  0
 15 32  1  0
 15 33  1  0
 15 34  1  0
 16 35  1  0
 18 36  1  0
 18 37  1  0
 18 38  1  0
M  END
>  <Binding energies>  (1) 
[-5.69]

>  <Ligand effiencies>  (1) 
[-0.25863636363636366]

>  <Interactions>  (1) 
["V-B:TYR:539:CE2:9847, V-B:PRO:540:CA:9854, V-B:LEU:363:CD1:8160, V-B:PRO:540:CD:9858, V-B:PRO:540:CB:9856, V-B:ALA:541:CB:9863, V-B:TYR:539:C:9838, V-B:PRO:540:N:9855, H-B:TYR:539:O:9839, H-B:ALA:541:N:9862, H-A:GLY:454:N:4049, V-A:ARG:545:CZ:4926, V-B:MET:535:CE:9806, V-B:TYR:531:CE2:9764, V-B:GLU:543:CB:9877, V-A:HIS:456:CE1:4069, V-B:GLU:543:CG:9878, V-B:GLU:543:CD:9879, V-B:PRO:540:C:9852, V-A:ARG:545:CG:4922, V-A:ARG:545:CD:4923, H-B:TYR:539:N:9841"]

$$$$
2a_Ghoteimi_2023
     RDKit          3D

 85 90  0  0  0  0  0  0  0  0999 V2000
  133.6020  131.0250   58.4980 C   0  0  0  0  0  0  0  0  0  0  0  0
  132.1530  131.1790   58.0260 C   0  0  0  0  0  0  0  0  0  0  0  0
  131.7190  132.5120   58.2640 O   0  0  0  0  0  0  0  0  0  0  0  0
  130.4080  132.8520   58.1610 C   0  0  0  0  0  0  0  0  0  0  0  0
  129.8950  133.2720   57.1190 O   0  0  0  0  0  0  0  0  0  0  0  0
  129.6440  132.6590   59.4400 C   0  0  0  0  0  0  0  0  0  0  0  0
  128.2520  132.8230   59.5040 C   0  0  0  0  0  0  0  0  0  0  0  0
  127.5740  132.6360   60.7050 C   0  0  0  0  0  0  0  0  0  0  0  0
  128.2680  132.2770   61.8620 C   0  0  0  0  0  0  0  0  0  0  0  0
  127.4830  132.1180   63.0200 N   0  0  0  0  0  0  0  0  0  0  0  0
  126.1960  132.4610   63.2480 C   0  0  0  0  0  0  0  0  0  0  0  0
  125.4670  133.0470   62.4460 O   0  0  0  0  0  0  0  0  0  0  0  0
  125.6630  132.1060   64.6420 C   0  0  0  0  0  0  0  0  0  0  0  0
  125.1070  130.3800   64.8190 S   0  0  0  0  0  0  0  0  0  0  0  0
  126.5900  129.4110   64.9640 C   0  0  0  0  0  0  0  0  0  0  0  0
  126.9720  129.1810   66.2420 N   0  0  0  0  0  0  0  0  0  0  0  0
  128.0960  128.4600   66.4830 C   0  0  0  0  0  0  0  0  0  0  0  0
  128.4610  128.2550   67.9180 C   0  0  0  0  0  0  0  0  0  0  0  0
  128.4670  126.9760   68.4890 C   0  0  0  0  0  0  0  0  0  0  0  0
  128.7960  126.7920   69.8290 C   0  0  0  0  0  0  0  0  0  0  0  0
  129.1410  127.8780   70.6470 C   0  0  0  0  0  0  0  0  0  0  0  0
  129.4410  127.6810   71.9990 N   0  0  0  0  0  0  0  0  0  0  0  0
  129.1270  128.7070   73.0140 C   0  0  0  0  0  0  0  0  0  0  0  0
  129.1880  128.1850   74.4650 C   0  0  0  0  0  0  0  0  0  0  0  0
  130.4510  127.5920   74.7160 O   0  0  0  0  0  0  0  0  0  0  0  0
  130.6880  126.4930   73.8520 C   0  0  0  0  0  0  0  0  0  0  0  0
  130.6730  126.9610   72.3810 C   0  0  0  0  0  0  0  0  0  0  0  0
  129.1220  129.1590   70.0720 C   0  0  0  0  0  0  0  0  0  0  0  0
  128.7950  129.3420   68.7320 C   0  0  0  0  0  0  0  0  0  0  0  0
  128.8580  127.9380   65.4350 C   0  0  0  0  0  0  0  0  0  0  0  0
  128.4820  128.1630   64.1030 C   0  0  0  0  0  0  0  0  0  0  0  0
  129.3470  127.5820   63.0310 C   0  0  0  0  0  0  0  0  0  0  0  0
  129.3910  126.1990   62.8370 C   0  0  0  0  0  0  0  0  0  0  0  0
  130.2070  125.6460   61.8550 C   0  0  0  0  0  0  0  0  0  0  0  0
  131.0030  126.4610   61.0350 C   0  0  0  0  0  0  0  0  0  0  0  0
  131.8430  125.9250   60.0550 N   0  0  0  0  0  0  0  0  0  0  0  0
  131.3370  125.7630   58.6770 C   0  0  0  0  0  0  0  0  0  0  0  0
  132.4570  125.5410   57.6380 C   0  0  0  0  0  0  0  0  0  0  0  0
  133.2570  124.4310   58.0160 O   0  0  0  0  0  0  0  0  0  0  0  0
  133.8670  124.6290   59.2810 C   0  0  0  0  0  0  0  0  0  0  0  0
  132.7860  124.8320   60.3630 C   0  0  0  0  0  0  0  0  0  0  0  0
  130.9610  127.8470   61.2440 C   0  0  0  0  0  0  0  0  0  0  0  0
  130.1460  128.3990   62.2270 C   0  0  0  0  0  0  0  0  0  0  0  0
  127.3100  128.9170   63.8530 C   0  0  0  0  0  0  0  0  0  0  0  0
  126.8350  129.1370   62.4830 C   0  0  0  0  0  0  0  0  0  0  0  0
  126.4640  129.3110   61.4010 N   0  0  0  0  0  0  0  0  0  0  0  0
  129.6600  132.1200   61.8070 C   0  0  0  0  0  0  0  0  0  0  0  0
  130.3380  132.3060   60.6050 C   0  0  0  0  0  0  0  0  0  0  0  0
  133.6311  131.0219   59.5976 H   0  0  0  0  0  0  0  0  0  0  0  0
  134.0128  130.0781   58.1177 H   0  0  0  0  0  0  0  0  0  0  0  0
  134.2027  131.8644   58.1177 H   0  0  0  0  0  0  0  0  0  0  0  0
  132.0921  130.9596   56.9498 H   0  0  0  0  0  0  0  0  0  0  0  0
  131.5097  130.4784   58.5786 H   0  0  0  0  0  0  0  0  0  0  0  0
  127.6927  133.1013   58.5986 H   0  0  0  0  0  0  0  0  0  0  0  0
  126.4831  132.7721   60.7429 H   0  0  0  0  0  0  0  0  0  0  0  0
  127.9760  131.7060   63.7980 H   0  0  0  0  0  0  0  0  0  0  0  0
  126.4652  132.2856   65.3729 H   0  0  0  0  0  0  0  0  0  0  0  0
  124.7793  132.7390   64.8105 H   0  0  0  0  0  0  0  0  0  0  0  0
  128.2080  126.1046   67.8697 H   0  0  0  0  0  0  0  0  0  0  0  0
  128.7852  125.7774   70.2538 H   0  0  0  0  0  0  0  0  0  0  0  0
  129.8495  129.5300   72.9106 H   0  0  0  0  0  0  0  0  0  0  0  0
  128.0916  129.0313   72.8329 H   0  0  0  0  0  0  0  0  0  0  0  0
  129.0351  129.0236   75.1602 H   0  0  0  0  0  0  0  0  0  0  0  0
  128.4006  127.4307   74.6100 H   0  0  0  0  0  0  0  0  0  0  0  0
  131.6692  126.0532   74.0838 H   0  0  0  0  0  0  0  0  0  0  0  0
  129.8971  125.7428   73.9989 H   0  0  0  0  0  0  0  0  0  0  0  0
  131.5305  127.6312   72.2211 H   0  0  0  0  0  0  0  0  0  0  0  0
  130.7239  126.0574   71.7558 H   0  0  0  0  0  0  0  0  0  0  0  0
  129.3700  130.0332   70.6919 H   0  0  0  0  0  0  0  0  0  0  0  0
  128.7993  130.3565   68.3067 H   0  0  0  0  0  0  0  0  0  0  0  0
  129.7588  127.3466   65.6561 H   0  0  0  0  0  0  0  0  0  0  0  0
  128.7744  125.5409   63.4668 H   0  0  0  0  0  0  0  0  0  0  0  0
  130.2286  124.5546   61.7193 H   0  0  0  0  0  0  0  0  0  0  0  0
  130.6612  124.8954   58.6528 H   0  0  0  0  0  0  0  0  0  0  0  0
  130.8221  126.6967   58.4069 H   0  0  0  0  0  0  0  0  0  0  0  0
  132.0070  125.3471   56.6532 H   0  0  0  0  0  0  0  0  0  0  0  0
  133.0879  126.4408   57.5894 H   0  0  0  0  0  0  0  0  0  0  0  0
  134.4746  123.7477   59.5342 H   0  0  0  0  0  0  0  0  0  0  0  0
  134.5061  125.5232   59.2373 H   0  0  0  0  0  0  0  0  0  0  0  0
  132.2148  123.8974   60.4642 H   0  0  0  0  0  0  0  0  0  0  0  0
  133.3061  125.1056   61.2928 H   0  0  0  0  0  0  0  0  0  0  0  0
  131.5819  128.5078   60.6212 H   0  0  0  0  0  0  0  0  0  0  0  0
  130.1304  129.4892   62.3727 H   0  0  0  0  0  0  0  0  0  0  0  0
  130.2180  131.8492   62.7155 H   0  0  0  0  0  0  0  0  0  0  0  0
  131.4295  132.1745   60.5697 H   0  0  0  0  0  0  0  0  0  0  0  0
  1  2  1  0
  2  3  1  0
  3  4  1  0
  4  5  2  0
  4  6  1  0
  6  7  2  0
  7  8  1  0
  8  9  2  0
  9 10  1  0
 10 11  1  0
 11 12  2  0
 11 13  1  0
 13 14  1  0
 14 15  1  0
 15 16  2  0
 16 17  1  0
 17 18  1  0
 18 19  2  0
 19 20  1  0
 20 21  2  0
 21 22  1  0
 22 23  1  0
 23 24  1  0
 24 25  1  0
 25 26  1  0
 26 27  1  0
 21 28  1  0
 28 29  2  0
 17 30  2  0
 30 31  1  0
 31 32  1  0
 32 33  2  0
 33 34  1  0
 34 35  2  0
 35 36  1  0
 36 37  1  0
 37 38  1  0
 38 39  1  0
 39 40  1  0
 40 41  1  0
 35 42  1  0
 42 43  2  0
 31 44  2  0
 44 45  1  0
 45 46  3  0
  9 47  1  0
 47 48  2  0
 48  6  1  0
 44 15  1  0
 29 18  1  0
 43 32  1  0
 27 22  1  0
 41 36  1  0
  1 49  1  0
  1 50  1  0
  1 51  1  0
  2 52  1  0
  2 53  1  0
  7 54  1  0
  8 55  1  0
 10 56  1  0
 13 57  1  0
 13 58  1  0
 19 59  1  0
 20 60  1  0
 23 61  1  0
 23 62  1  0
 24 63  1  0
 24 64  1  0
 26 65  1  0
 26 66  1  0
 27 67  1  0
 27 68  1  0
 28 69  1  0
 29 70  1  0
 30 71  1  0
 33 72  1  0
 34 73  1  0
 37 74  1  0
 37 75  1  0
 38 76  1  0
 38 77  1  0
 40 78  1  0
 40 79  1  0
 41 80  1  0
 41 81  1  0
 42 82  1  0
 43 83  1  0
 47 84  1  0
 48 85  1  0
M  END
>  <Binding energies>  (1) 
[-9.78]

>  <Ligand effiencies>  (1) 
[-0.19959183673469386]

>  <Interactions>  (1) 
["V-A:ASP:366:CG:3212, V-A:ILE:369:CD1:3238, V-A:ASP:366:CB:3211, V-A:ASP:366:CA:3209, V-A:ILE:369:CG2:3236, H-B:TYR:539:OH:9849, V-A:GLU:543:CD:4908, V-A:GLU:543:CG:4907, V-A:GLU:543:CB:4906, V-B:HIS:456:CE1:9041, V-B:GLU:543:CB:9877, V-A:HIS:456:CE1:4069, V-B:HIS:456:CD2:9039, V-A:ASP:366:C:3207, V-B:GLU:543:CD:9879, V-A:HIS:456:CD2:4067, V-A:PRO:540:N:4884, V-A:LEU:363:CD1:3188, V-A:TYR:539:C:4867, H-A:TYR:539:N:4870, V-A:LEU:363:CA:3184, V-A:PRO:540:CA:4883, V-A:TYR:539:CE2:4876, V-A:TYR:539:CD2:4874, V-A:TYR:531:CZ:4794, V-A:PRO:540:CB:4885, V-A:ALA:541:CB:4892, V-B:LEU:475:CD1:9229, V-B:GLY:454:CA:9020, V-A:ILE:369:CB:3235, V-A:HIS:456:CG:4065, H-A:LYS:547:NZ:4951"]

$$$$
2a_Grossjean_2025
     RDKit          3D

 45 46  0  0  0  0  0  0  0  0999 V2000
  124.2420  123.9140   58.4340 C   0  0  0  0  0  0  0  0  0  0  0  0
  125.2410  124.8890   57.8030 C   0  0  0  0  0  0  0  0  0  0  0  0
  125.9450  124.2300   56.7570 O   0  0  0  0  0  0  0  0  0  0  0  0
  126.5250  123.0190   56.9580 C   0  0  0  0  0  0  0  0  0  0  0  0
  126.1490  121.9830   56.4000 O   0  0  0  0  0  0  0  0  0  0  0  0
  127.6850  123.0690   57.9110 C   0  0  0  0  0  0  0  0  0  0  0  0
  127.8940  122.0750   58.8780 C   0  0  0  0  0  0  0  0  0  0  0  0
  128.9780  122.1530   59.7470 C   0  0  0  0  0  0  0  0  0  0  0  0
  129.8690  123.2250   59.6750 C   0  0  0  0  0  0  0  0  0  0  0  0
  130.9190  123.2080   60.6110 N   0  0  0  0  0  0  0  0  0  0  0  0
  131.9330  122.3290   60.7630 C   0  0  0  0  0  0  0  0  0  0  0  0
  132.1100  121.3170   60.0830 O   0  0  0  0  0  0  0  0  0  0  0  0
  132.9230  122.6500   61.8870 C   0  0  0  0  0  0  0  0  0  0  0  0
  133.2580  124.4340   62.0660 S   0  0  0  0  0  0  0  0  0  0  0  0
  132.8850  124.9540   63.7380 C   0  0  0  0  0  0  0  0  0  0  0  0
  133.9420  125.0000   64.5890 N   0  0  0  0  0  0  0  0  0  0  0  0
  133.7320  125.3720   65.8710 C   0  0  0  0  0  0  0  0  0  0  0  0
  134.9560  125.3740   66.7680 C   0  0  0  0  0  0  0  0  0  0  0  0
  132.4750  125.7200   66.3560 C   0  0  0  0  0  0  0  0  0  0  0  0
  131.3690  125.6870   65.4920 C   0  0  0  0  0  0  0  0  0  0  0  0
  129.9840  126.0750   66.0440 C   0  0  0  0  0  0  0  0  0  0  0  0
  129.4150  126.9850   65.2530 F   0  0  0  0  0  0  0  0  0  0  0  0
  129.1990  124.9990   66.1030 F   0  0  0  0  0  0  0  0  0  0  0  0
  130.0460  126.5940   67.2730 F   0  0  0  0  0  0  0  0  0  0  0  0
  131.5750  125.2950   64.1450 C   0  0  0  0  0  0  0  0  0  0  0  0
  130.4550  125.2410   63.2000 C   0  0  0  0  0  0  0  0  0  0  0  0
  129.5710  125.1980   62.4540 N   0  0  0  0  0  0  0  0  0  0  0  0
  129.6710  124.2180   58.7050 C   0  0  0  0  0  0  0  0  0  0  0  0
  128.5880  124.1370   57.8340 C   0  0  0  0  0  0  0  0  0  0  0  0
  124.3086  123.9790   59.5301 H   0  0  0  0  0  0  0  0  0  0  0  0
  123.2227  124.1742   58.1125 H   0  0  0  0  0  0  0  0  0  0  0  0
  124.4773  122.8887   58.1125 H   0  0  0  0  0  0  0  0  0  0  0  0
  124.7004  125.7550   57.3933 H   0  0  0  0  0  0  0  0  0  0  0  0
  125.9537  125.2322   58.5674 H   0  0  0  0  0  0  0  0  0  0  0  0
  127.1961  121.2278   58.9500 H   0  0  0  0  0  0  0  0  0  0  0  0
  129.1340  121.3634   60.4968 H   0  0  0  0  0  0  0  0  0  0  0  0
  130.9300  124.0030   61.2310 H   0  0  0  0  0  0  0  0  0  0  0  0
  132.5085  122.2758   62.8347 H   0  0  0  0  0  0  0  0  0  0  0  0
  133.8758  122.1638   61.6305 H   0  0  0  0  0  0  0  0  0  0  0  0
  134.6387  125.3735   67.8212 H   0  0  0  0  0  0  0  0  0  0  0  0
  135.5597  124.4768   66.5665 H   0  0  0  0  0  0  0  0  0  0  0  0
  135.5568  126.2731   66.5665 H   0  0  0  0  0  0  0  0  0  0  0  0
  132.3491  126.0184   67.4072 H   0  0  0  0  0  0  0  0  0  0  0  0
  130.3724  125.0622   58.6322 H   0  0  0  0  0  0  0  0  0  0  0  0
  128.4397  124.9208   57.0766 H   0  0  0  0  0  0  0  0  0  0  0  0
  1  2  1  0
  2  3  1  0
  3  4  1  0
  4  5  2  0
  4  6  1  0
  6  7  2  0
  7  8  1  0
  8  9  2  0
  9 10  1  0
 10 11  1  0
 11 12  2  0
 11 13  1  0
 13 14  1  0
 14 15  1  0
 15 16  2  0
 16 17  1  0
 17 18  1  0
 17 19  2  0
 19 20  1  0
 20 21  1  0
 21 22  1  0
 21 23  1  0
 21 24  1  0
 20 25  2  0
 25 26  1  0
 26 27  3  0
  9 28  1  0
 28 29  2  0
 29  6  1  0
 25 15  1  0
  1 30  1  0
  1 31  1  0
  1 32  1  0
  2 33  1  0
  2 34  1  0
  7 35  1  0
  8 36  1  0
 10 37  1  0
 13 38  1  0
 13 39  1  0
 18 40  1  0
 18 41  1  0
 18 42  1  0
 19 43  1  0
 28 44  1  0
 29 45  1  0
M  END
>  <Binding energies>  (1) 
[-6.91]

>  <Ligand effiencies>  (1) 
[-0.23033333333333333]

>  <Interactions>  (1) 
["V-B:TYR:539:CE2:9847, V-B:PRO:540:CA:9854, V-B:TYR:539:CD2:9845, V-B:LEU:363:CD1:8160, V-B:TYR:539:CG:9843, V-B:PRO:540:CB:9856, V-B:TYR:539:C:9838, V-B:PRO:540:N:9855, H-B:TYR:531:OH:9766, V-B:TYR:539:CZ:9848, H-A:GLY:454:N:4049, H-A:ARG:545:NH1:4927, V-A:ILE:369:CD1:3238, V-A:ILE:369:CG2:3236, V-A:ARG:545:CZ:4926, V-B:LEU:363:CA:8156, V-A:GLU:543:CD:4908, V-B:GLU:543:CB:9877, V-A:HIS:456:CE1:4069, V-B:GLU:543:CG:9878, V-B:GLU:543:CD:9879, V-A:ARG:545:CG:4922, V-A:ARG:545:CD:4923, V-A:GLY:454:CA:4048, V-A:GLY:453:C:4041, V-A:GLY:453:CA:4043, V-A:ILE:455:C:4051, V-B:LEU:363:CB:8158, H-B:TYR:539:N:9841"]

$$$$
2aa_Ghoteimi_2023
     RDKit          3D

 85 90  0  0  0  0  0  0  0  0999 V2000
  130.5730  132.8550   56.9320 C   0  0  0  0  0  0  0  0  0  0  0  0
  132.1030  132.8450   56.8460 C   0  0  0  0  0  0  0  0  0  0  0  0
  132.5720  131.5070   56.9510 O   0  0  0  0  0  0  0  0  0  0  0  0
  133.1830  131.0640   58.0810 C   0  0  0  0  0  0  0  0  0  0  0  0
  134.3810  130.7670   58.1340 O   0  0  0  0  0  0  0  0  0  0  0  0
  132.2600  130.9860   59.2630 C   0  0  0  0  0  0  0  0  0  0  0  0
  132.4790  131.7400   60.4250 C   0  0  0  0  0  0  0  0  0  0  0  0
  131.6030  131.6500   61.5020 C   0  0  0  0  0  0  0  0  0  0  0  0
  130.4970  130.7990   61.4450 C   0  0  0  0  0  0  0  0  0  0  0  0
  129.6760  130.7870   62.5890 N   0  0  0  0  0  0  0  0  0  0  0  0
  128.3610  130.5020   62.7070 C   0  0  0  0  0  0  0  0  0  0  0  0
  127.6250  130.1590   61.7800 O   0  0  0  0  0  0  0  0  0  0  0  0
  127.8090  130.6130   64.1340 C   0  0  0  0  0  0  0  0  0  0  0  0
  127.2500  129.3560   64.5330 O   0  0  0  0  0  0  0  0  0  0  0  0
  128.0460  128.4080   65.1610 C   0  0  0  0  0  0  0  0  0  0  0  0
  128.1890  128.4870   66.5140 N   0  0  0  0  0  0  0  0  0  0  0  0
  128.9560  127.5740   67.1600 C   0  0  0  0  0  0  0  0  0  0  0  0
  129.0720  127.7270   68.6440 C   0  0  0  0  0  0  0  0  0  0  0  0
  129.0720  128.9950   69.2330 C   0  0  0  0  0  0  0  0  0  0  0  0
  129.1720  129.1430   70.6150 C   0  0  0  0  0  0  0  0  0  0  0  0
  129.2630  128.0260   71.4590 C   0  0  0  0  0  0  0  0  0  0  0  0
  129.3770  128.1570   72.8480 N   0  0  0  0  0  0  0  0  0  0  0  0
  128.7560  129.2870   73.5690 C   0  0  0  0  0  0  0  0  0  0  0  0
  129.2730  129.4660   75.0110 C   0  0  0  0  0  0  0  0  0  0  0  0
  129.1190  128.2570   75.7360 O   0  0  0  0  0  0  0  0  0  0  0  0
  129.8520  127.1970   75.1400 C   0  0  0  0  0  0  0  0  0  0  0  0
  129.3510  126.9510   73.7010 C   0  0  0  0  0  0  0  0  0  0  0  0
  129.2840  126.7570   70.8620 C   0  0  0  0  0  0  0  0  0  0  0  0
  129.1860  126.6100   69.4810 C   0  0  0  0  0  0  0  0  0  0  0  0
  129.6170  126.5600   66.4600 C   0  0  0  0  0  0  0  0  0  0  0  0
  129.4950  126.4630   65.0680 C   0  0  0  0  0  0  0  0  0  0  0  0
  130.2450  125.3730   64.3720 C   0  0  0  0  0  0  0  0  0  0  0  0
  131.2500  125.6850   63.4520 C   0  0  0  0  0  0  0  0  0  0  0  0
  131.9390  124.6750   62.7850 C   0  0  0  0  0  0  0  0  0  0  0  0
  131.6330  123.3240   63.0090 C   0  0  0  0  0  0  0  0  0  0  0  0
  132.3140  122.2940   62.3540 N   0  0  0  0  0  0  0  0  0  0  0  0
  131.5900  121.2490   61.6050 C   0  0  0  0  0  0  0  0  0  0  0  0
  132.4980  120.4210   60.6710 C   0  0  0  0  0  0  0  0  0  0  0  0
  133.5730  119.8620   61.4100 O   0  0  0  0  0  0  0  0  0  0  0  0
  134.3680  120.8680   62.0190 C   0  0  0  0  0  0  0  0  0  0  0  0
  133.5100  121.7050   62.9890 C   0  0  0  0  0  0  0  0  0  0  0  0
  130.6280  123.0210   63.9390 C   0  0  0  0  0  0  0  0  0  0  0  0
  129.9400  124.0300   64.6060 C   0  0  0  0  0  0  0  0  0  0  0  0
  128.6750  127.4040   64.4040 C   0  0  0  0  0  0  0  0  0  0  0  0
  128.4490  127.3490   62.9570 C   0  0  0  0  0  0  0  0  0  0  0  0
  128.2710  127.3050   61.8150 N   0  0  0  0  0  0  0  0  0  0  0  0
  130.2680  130.0460   60.2850 C   0  0  0  0  0  0  0  0  0  0  0  0
  131.1430  130.1420   59.2070 C   0  0  0  0  0  0  0  0  0  0  0  0
  130.2651  132.8570   57.9880 H   0  0  0  0  0  0  0  0  0  0  0  0
  130.1837  133.7557   56.4348 H   0  0  0  0  0  0  0  0  0  0  0  0
  130.1719  131.9595   56.4348 H   0  0  0  0  0  0  0  0  0  0  0  0
  132.4194  133.2705   55.8822 H   0  0  0  0  0  0  0  0  0  0  0  0
  132.5215  133.4470   57.6660 H   0  0  0  0  0  0  0  0  0  0  0  0
  133.3507  132.4082   60.4854 H   0  0  0  0  0  0  0  0  0  0  0  0
  131.7826  132.2530   62.4043 H   0  0  0  0  0  0  0  0  0  0  0  0
  130.1650  130.9860   63.4500 H   0  0  0  0  0  0  0  0  0  0  0  0
  128.6234  130.8859   64.8212 H   0  0  0  0  0  0  0  0  0  0  0  0
  127.0270  131.3860   64.1637 H   0  0  0  0  0  0  0  0  0  0  0  0
  128.9919  129.8885   68.5964 H   0  0  0  0  0  0  0  0  0  0  0  0
  129.1797  130.1526   71.0515 H   0  0  0  0  0  0  0  0  0  0  0  0
  128.9630  130.2111   73.0093 H   0  0  0  0  0  0  0  0  0  0  0  0
  127.6801  129.0690   73.6396 H   0  0  0  0  0  0  0  0  0  0  0  0
  130.3376  129.7416   74.9845 H   0  0  0  0  0  0  0  0  0  0  0  0
  128.6939  130.2596   75.5059 H   0  0  0  0  0  0  0  0  0  0  0  0
  130.9192  127.4622   75.1136 H   0  0  0  0  0  0  0  0  0  0  0  0
  129.7090  126.2817   75.7330 H   0  0  0  0  0  0  0  0  0  0  0  0
  129.9892  126.1842   73.2376 H   0  0  0  0  0  0  0  0  0  0  0  0
  128.3005  126.6337   73.7766 H   0  0  0  0  0  0  0  0  0  0  0  0
  129.3795  125.8629   71.4956 H   0  0  0  0  0  0  0  0  0  0  0  0
  129.1983  125.6019   69.0410 H   0  0  0  0  0  0  0  0  0  0  0  0
  130.2369  125.8337   67.0061 H   0  0  0  0  0  0  0  0  0  0  0  0
  131.4990  126.7378   63.2530 H   0  0  0  0  0  0  0  0  0  0  0  0
  132.7342  124.9401   62.0726 H   0  0  0  0  0  0  0  0  0  0  0  0
  131.1183  120.5664   62.3272 H   0  0  0  0  0  0  0  0  0  0  0  0
  130.8510  121.7591   60.9696 H   0  0  0  0  0  0  0  0  0  0  0  0
  131.9096  119.6113   60.2147 H   0  0  0  0  0  0  0  0  0  0  0  0
  132.9020  121.0766   59.8856 H   0  0  0  0  0  0  0  0  0  0  0  0
  135.1902  120.3948   62.5759 H   0  0  0  0  0  0  0  0  0  0  0  0
  134.7760  121.5269   61.2383 H   0  0  0  0  0  0  0  0  0  0  0  0
  133.1827  121.0556   63.8143 H   0  0  0  0  0  0  0  0  0  0  0  0
  134.1358  122.5389   63.3397 H   0  0  0  0  0  0  0  0  0  0  0  0
  130.3797  121.9693   64.1444 H   0  0  0  0  0  0  0  0  0  0  0  0
  129.1489  123.7678   65.3239 H   0  0  0  0  0  0  0  0  0  0  0  0
  129.3957  129.3784   60.2267 H   0  0  0  0  0  0  0  0  0  0  0  0
  130.9554  129.5482   58.3002 H   0  0  0  0  0  0  0  0  0  0  0  0
  1  2  1  0
  2  3  1  0
  3  4  1  0
  4  5  2  0
  4  6  1  0
  6  7  2  0
  7  8  1  0
  8  9  2  0
  9 10  1  0
 10 11  1  0
 11 12  2  0
 11 13  1  0
 13 14  1  0
 14 15  1  0
 15 16  2  0
 16 17  1  0
 17 18  1  0
 18 19  2  0
 19 20  1  0
 20 21  2  0
 21 22  1  0
 22 23  1  0
 23 24  1  0
 24 25  1  0
 25 26  1  0
 26 27  1  0
 21 28  1  0
 28 29  2  0
 17 30  2  0
 30 31  1  0
 31 32  1  0
 32 33  2  0
 33 34  1  0
 34 35  2  0
 35 36  1  0
 36 37  1  0
 37 38  1  0
 38 39  1  0
 39 40  1  0
 40 41  1  0
 35 42  1  0
 42 43  2  0
 31 44  2  0
 44 45  1  0
 45 46  3  0
  9 47  1  0
 47 48  2  0
 48  6  1  0
 44 15  1  0
 29 18  1  0
 43 32  1  0
 27 22  1  0
 41 36  1  0
  1 49  1  0
  1 50  1  0
  1 51  1  0
  2 52  1  0
  2 53  1  0
  7 54  1  0
  8 55  1  0
 10 56  1  0
 13 57  1  0
 13 58  1  0
 19 59  1  0
 20 60  1  0
 23 61  1  0
 23 62  1  0
 24 63  1  0
 24 64  1  0
 26 65  1  0
 26 66  1  0
 27 67  1  0
 27 68  1  0
 28 69  1  0
 29 70  1  0
 30 71  1  0
 33 72  1  0
 34 73  1  0
 37 74  1  0
 37 75  1  0
 38 76  1  0
 38 77  1  0
 40 78  1  0
 40 79  1  0
 41 80  1  0
 41 81  1  0
 42 82  1  0
 43 83  1  0
 47 84  1  0
 48 85  1  0
M  END
>  <Binding energies>  (1) 
[-8.52]

>  <Ligand effiencies>  (1) 
[-0.17387755102040817]

>  <Interactions>  (1) 
["V-B:TYR:539:CE2:9847, V-B:TYR:539:CD2:9845, V-B:ALA:541:CB:9863, V-A:LEU:475:CD2:4258, V-A:ASP:366:CG:3212, V-A:ILE:369:CD1:3238, V-A:ASP:366:CB:3211, V-A:ILE:369:CG2:3236, V-A:GLU:543:CD:4908, V-A:GLU:543:CG:4907, V-A:GLU:543:CB:4906, V-B:HIS:456:CE1:9041, V-A:HIS:456:CE1:4069, V-B:GLU:543:CG:9878, V-B:HIS:456:CD2:9039, V-B:GLU:543:CD:9879, V-A:PRO:540:N:4884, V-A:LEU:363:CD1:3188, V-A:TYR:539:C:4867, V-A:LEU:363:CA:3184, V-A:PRO:540:CA:4883, H-A:GLU:543:OE1:4909, V-A:PRO:540:CD:4887, V-A:PRO:540:CB:4885, V-A:GLY:454:CA:4048, V-A:TRP:381:CH2:3371, V-A:ILE:369:CG1:3237, V-A:LYS:547:CE:4950, V-A:SER:385:C:3404, H-A:LEU:363:N:3185"]

$$$$
2b_Ghoteimi_2023
     RDKit          3D

 72 77  0  0  0  0  0  0  0  0999 V2000
  129.4130  123.1530   66.1520 N   0  0  0  0  0  0  0  0  0  0  0  0
  129.4880  124.0470   65.4210 C   0  0  0  0  0  0  0  0  0  0  0  0
  129.5850  125.1830   64.4990 C   0  0  0  0  0  0  0  0  0  0  0  0
  129.6170  126.5110   64.9940 C   0  0  0  0  0  0  0  0  0  0  0  0
  129.5580  126.8580   66.4460 C   0  0  0  0  0  0  0  0  0  0  0  0
  130.6760  126.6700   67.2600 C   0  0  0  0  0  0  0  0  0  0  0  0
  130.6270  126.9910   68.6140 C   0  0  0  0  0  0  0  0  0  0  0  0
  129.4500  127.4920   69.1940 C   0  0  0  0  0  0  0  0  0  0  0  0
  129.3800  127.8320   70.5460 N   0  0  0  0  0  0  0  0  0  0  0  0
  129.4630  126.7640   71.5620 C   0  0  0  0  0  0  0  0  0  0  0  0
  128.9980  127.2160   72.9630 C   0  0  0  0  0  0  0  0  0  0  0  0
  129.7220  128.3670   73.3710 O   0  0  0  0  0  0  0  0  0  0  0  0
  129.5330  129.4500   72.4740 C   0  0  0  0  0  0  0  0  0  0  0  0
  130.0210  129.0570   71.0650 C   0  0  0  0  0  0  0  0  0  0  0  0
  128.3320  127.6730   68.3690 C   0  0  0  0  0  0  0  0  0  0  0  0
  128.3820  127.3560   67.0140 C   0  0  0  0  0  0  0  0  0  0  0  0
  129.7150  127.5630   64.0760 C   0  0  0  0  0  0  0  0  0  0  0  0
  129.8110  127.3000   62.7060 C   0  0  0  0  0  0  0  0  0  0  0  0
  129.9480  128.3860   61.6870 C   0  0  0  0  0  0  0  0  0  0  0  0
  130.3710  128.0950   60.3860 C   0  0  0  0  0  0  0  0  0  0  0  0
  130.4850  129.0980   59.4270 C   0  0  0  0  0  0  0  0  0  0  0  0
  130.1920  130.4350   59.7380 C   0  0  0  0  0  0  0  0  0  0  0  0
  130.2730  131.4500   58.7770 N   0  0  0  0  0  0  0  0  0  0  0  0
  131.4760  131.5650   57.9280 C   0  0  0  0  0  0  0  0  0  0  0  0
  131.5970  132.9260   57.2090 C   0  0  0  0  0  0  0  0  0  0  0  0
  130.4190  133.1870   56.4620 O   0  0  0  0  0  0  0  0  0  0  0  0
  129.2750  133.2420   57.2980 C   0  0  0  0  0  0  0  0  0  0  0  0
  129.0840  131.8920   58.0220 C   0  0  0  0  0  0  0  0  0  0  0  0
  129.7610  130.7220   61.0410 C   0  0  0  0  0  0  0  0  0  0  0  0
  129.6450  129.7180   61.9980 C   0  0  0  0  0  0  0  0  0  0  0  0
  129.7820  126.0280   62.2340 N   0  0  0  0  0  0  0  0  0  0  0  0
  129.6540  124.9950   63.1010 C   0  0  0  0  0  0  0  0  0  0  0  0
  129.6290  123.4010   62.3100 S   0  0  0  0  0  0  0  0  0  0  0  0
  129.5700  123.6800   60.5140 C   0  0  0  0  0  0  0  0  0  0  0  0
  128.2820  123.1390   59.8910 C   0  0  0  0  0  0  0  0  0  0  0  0
  127.3980  122.6900   60.6240 O   0  0  0  0  0  0  0  0  0  0  0  0
  128.2210  123.1950   58.5430 N   0  0  0  0  0  0  0  0  0  0  0  0
  127.1730  122.7860   57.7300 C   0  0  0  0  0  0  0  0  0  0  0  0
  125.9400  123.4360   57.6930 C   0  0  0  0  0  0  0  0  0  0  0  0
  125.1920  122.7330   56.7780 C   0  0  0  0  0  0  0  0  0  0  0  0
  125.9350  121.7120   56.2900 O   0  0  0  0  0  0  0  0  0  0  0  0
  127.1910  121.7570   56.8990 N   0  0  0  0  0  0  0  0  0  0  0  0
  131.6032  126.2650   66.8285 H   0  0  0  0  0  0  0  0  0  0  0  0
  131.5221  126.8503   69.2378 H   0  0  0  0  0  0  0  0  0  0  0  0
  128.8304  125.9243   71.2383 H   0  0  0  0  0  0  0  0  0  0  0  0
  130.5215  126.4770   71.6471 H   0  0  0  0  0  0  0  0  0  0  0  0
  127.9246  127.4543   72.9305 H   0  0  0  0  0  0  0  0  0  0  0  0
  129.1801  126.4034   73.6817 H   0  0  0  0  0  0  0  0  0  0  0  0
  128.4640  129.7058   72.4314 H   0  0  0  0  0  0  0  0  0  0  0  0
  130.1096  130.3175   72.8276 H   0  0  0  0  0  0  0  0  0  0  0  0
  129.8009  129.8853   70.3755 H   0  0  0  0  0  0  0  0  0  0  0  0
  131.0997  128.8546   71.1382 H   0  0  0  0  0  0  0  0  0  0  0  0
  127.4009  128.0715   68.7982 H   0  0  0  0  0  0  0  0  0  0  0  0
  127.4899  127.4985   66.3864 H   0  0  0  0  0  0  0  0  0  0  0  0
  129.7165  128.6030   64.4344 H   0  0  0  0  0  0  0  0  0  0  0  0
  130.6175  127.0575   60.1162 H   0  0  0  0  0  0  0  0  0  0  0  0
  130.8101  128.8383   58.4087 H   0  0  0  0  0  0  0  0  0  0  0  0
  132.3639  131.4266   58.5624 H   0  0  0  0  0  0  0  0  0  0  0  0
  131.3952  130.7939   57.1477 H   0  0  0  0  0  0  0  0  0  0  0  0
  131.7384  133.7212   57.9558 H   0  0  0  0  0  0  0  0  0  0  0  0
  132.4588  132.8980   56.5259 H   0  0  0  0  0  0  0  0  0  0  0  0
  129.4070  134.0397   58.0438 H   0  0  0  0  0  0  0  0  0  0  0  0
  128.3876  133.4498   56.6821 H   0  0  0  0  0  0  0  0  0  0  0  0
  128.2434  131.9906   58.7246 H   0  0  0  0  0  0  0  0  0  0  0  0
  128.8961  131.1350   57.2463 H   0  0  0  0  0  0  0  0  0  0  0  0
  129.5103  131.7583   61.3115 H   0  0  0  0  0  0  0  0  0  0  0  0
  129.3103  129.9743   63.0140 H   0  0  0  0  0  0  0  0  0  0  0  0
  129.6310  124.7611   60.3206 H   0  0  0  0  0  0  0  0  0  0  0  0
  130.4173  123.1455   60.0596 H   0  0  0  0  0  0  0  0  0  0  0  0
  129.0090  123.6010   58.0600 H   0  0  0  0  0  0  0  0  0  0  0  0
  125.6322  124.3200   58.2708 H   0  0  0  0  0  0  0  0  0  0  0  0
  124.1560  122.9634   56.4889 H   0  0  0  0  0  0  0  0  0  0  0  0
  1  2  3  0
  2  3  1  0
  3  4  2  0
  4  5  1  0
  5  6  2  0
  6  7  1  0
  7  8  2  0
  8  9  1  0
  9 10  1  0
 10 11  1  0
 11 12  1  0
 12 13  1  0
 13 14  1  0
  8 15  1  0
 15 16  2  0
  4 17  1  0
 17 18  2  0
 18 19  1  0
 19 20  2  0
 20 21  1  0
 21 22  2  0
 22 23  1  0
 23 24  1  0
 24 25  1  0
 25 26  1  0
 26 27  1  0
 27 28  1  0
 22 29  1  0
 29 30  2  0
 18 31  1  0
 31 32  2  0
 32 33  1  0
 33 34  1  0
 34 35  1  0
 35 36  2  0
 35 37  1  0
 37 38  1  0
 38 39  1  0
 39 40  2  0
 40 41  1  0
 41 42  1  0
 32  3  1  0
 42 38  2  0
 16  5  1  0
 30 19  1  0
 14  9  1  0
 28 23  1  0
  6 43  1  0
  7 44  1  0
 10 45  1  0
 10 46  1  0
 11 47  1  0
 11 48  1  0
 13 49  1  0
 13 50  1  0
 14 51  1  0
 14 52  1  0
 15 53  1  0
 16 54  1  0
 17 55  1  0
 20 56  1  0
 21 57  1  0
 24 58  1  0
 24 59  1  0
 25 60  1  0
 25 61  1  0
 27 62  1  0
 27 63  1  0
 28 64  1  0
 28 65  1  0
 29 66  1  0
 30 67  1  0
 34 68  1  0
 34 69  1  0
 37 70  1  0
 39 71  1  0
 40 72  1  0
M  END
>  <Binding energies>  (1) 
[-9.9]

>  <Ligand effiencies>  (1) 
[-0.2302325581395349]

>  <Interactions>  (1) 
["V-B:TYR:539:CE2:9847, V-B:PRO:540:CA:9854, V-B:TYR:539:CD2:9845, V-B:LEU:363:CD1:8160, V-B:PRO:540:CD:9858, V-B:PRO:540:CB:9856, V-B:TYR:539:C:9838, V-B:PRO:540:N:9855, H-B:ALA:541:N:9862, V-B:TYR:539:CZ:9848, H-B:TYR:539:OH:9849, H-A:TYR:484:OH:4347, V-A:GLU:543:CD:4908, V-A:GLU:543:CB:4906, V-B:HIS:456:CE1:9041, V-B:GLU:543:CB:9877, V-A:HIS:456:CE1:4069, V-B:GLU:543:CG:9878, V-B:HIS:456:CD2:9039, V-B:GLU:543:CD:9879, V-A:HIS:456:CD2:4067, V-A:PRO:540:N:4884, V-A:LEU:363:CD1:3188, V-A:TYR:539:C:4867, H-A:TYR:539:N:4870, V-A:PRO:540:CA:4883, V-A:TYR:539:CE1:4875, V-A:TYR:539:CZ:4877, V-A:TYR:539:CA:4869, V-A:TYR:539:CE2:4876, V-A:PRO:540:CD:4887, V-A:TYR:539:CD2:4874, V-A:TYR:539:CD1:4873, V-A:TYR:539:CG:4872, V-A:PRO:540:CB:4885, H-B:TYR:539:N:9841, H-A:LYS:547:NZ:4951"]

$$$$
2b_Grossjean_2025
     RDKit          3D

 42 43  0  0  0  0  0  0  0  0999 V2000
  129.3540  129.6530   73.7840 C   0  0  0  0  0  0  0  0  0  0  0  0
  129.9800  128.3790   73.8370 O   0  0  0  0  0  0  0  0  0  0  0  0
  129.4110  127.2950   73.2510 C   0  0  0  0  0  0  0  0  0  0  0  0
  128.7790  126.4370   73.8760 O   0  0  0  0  0  0  0  0  0  0  0  0
  129.6300  127.2400   71.7660 C   0  0  0  0  0  0  0  0  0  0  0  0
  128.8610  126.4140   70.9330 C   0  0  0  0  0  0  0  0  0  0  0  0
  129.0910  126.3860   69.5600 C   0  0  0  0  0  0  0  0  0  0  0  0
  130.0850  127.1820   68.9930 C   0  0  0  0  0  0  0  0  0  0  0  0
  130.2370  127.0710   67.5970 N   0  0  0  0  0  0  0  0  0  0  0  0
  130.1040  125.9900   66.7990 C   0  0  0  0  0  0  0  0  0  0  0  0
  129.8380  124.8500   67.1810 O   0  0  0  0  0  0  0  0  0  0  0  0
  130.3290  126.2500   65.3060 C   0  0  0  0  0  0  0  0  0  0  0  0
  129.1970  125.3050   64.2350 S   0  0  0  0  0  0  0  0  0  0  0  0
  130.1140  124.0890   63.2990 C   0  0  0  0  0  0  0  0  0  0  0  0
  131.4620  124.1200   63.4550 N   0  0  0  0  0  0  0  0  0  0  0  0
  132.2190  123.2320   62.7730 C   0  0  0  0  0  0  0  0  0  0  0  0
  133.7160  123.3400   62.9920 C   0  0  0  0  0  0  0  0  0  0  0  0
  131.6730  122.2770   61.9210 C   0  0  0  0  0  0  0  0  0  0  0  0
  130.2810  122.2210   61.7500 C   0  0  0  0  0  0  0  0  0  0  0  0
  129.6920  121.1550   60.8070 C   0  0  0  0  0  0  0  0  0  0  0  0
  128.7610  120.4450   61.4460 F   0  0  0  0  0  0  0  0  0  0  0  0
  129.1350  121.7400   59.7450 F   0  0  0  0  0  0  0  0  0  0  0  0
  130.6110  120.2990   60.3560 F   0  0  0  0  0  0  0  0  0  0  0  0
  129.4740  123.1510   62.4540 C   0  0  0  0  0  0  0  0  0  0  0  0
  128.0150  123.1430   62.3090 C   0  0  0  0  0  0  0  0  0  0  0  0
  126.8640  123.1360   62.1940 N   0  0  0  0  0  0  0  0  0  0  0  0
  130.8640  128.0050   69.8200 C   0  0  0  0  0  0  0  0  0  0  0  0
  130.6340  128.0310   71.1920 C   0  0  0  0  0  0  0  0  0  0  0  0
  129.1753  130.0166   74.8067 H   0  0  0  0  0  0  0  0  0  0  0  0
  130.0070  130.3606   73.2521 H   0  0  0  0  0  0  0  0  0  0  0  0
  128.3949  129.5684   73.2521 H   0  0  0  0  0  0  0  0  0  0  0  0
  128.0708  125.7840   71.3674 H   0  0  0  0  0  0  0  0  0  0  0  0
  128.4838  125.7309   68.9180 H   0  0  0  0  0  0  0  0  0  0  0  0
  130.5340  127.9230   67.1440 H   0  0  0  0  0  0  0  0  0  0  0  0
  130.1808  127.3225   65.1115 H   0  0  0  0  0  0  0  0  0  0  0  0
  131.3525  125.9249   65.0679 H   0  0  0  0  0  0  0  0  0  0  0  0
  133.9285  123.3553   64.0712 H   0  0  0  0  0  0  0  0  0  0  0  0
  134.2172  122.4757   62.5318 H   0  0  0  0  0  0  0  0  0  0  0  0
  134.0879  124.2673   62.5318 H   0  0  0  0  0  0  0  0  0  0  0  0
  132.3265  121.5721   61.3862 H   0  0  0  0  0  0  0  0  0  0  0  0
  131.6570  128.6300   69.3836 H   0  0  0  0  0  0  0  0  0  0  0  0
  131.2477  128.6803   71.8337 H   0  0  0  0  0  0  0  0  0  0  0  0
  1  2  1  0
  2  3  1  0
  3  4  2  0
  3  5  1  0
  5  6  2  0
  6  7  1  0
  7  8  2  0
  8  9  1  0
  9 10  1  0
 10 11  2  0
 10 12  1  0
 12 13  1  0
 13 14  1  0
 14 15  2  0
 15 16  1  0
 16 17  1  0
 16 18  2  0
 18 19  1  0
 19 20  1  0
 20 21  1  0
 20 22  1  0
 20 23  1  0
 19 24  2  0
 24 25  1  0
 25 26  3  0
  8 27  1  0
 27 28  2  0
 28  5  1  0
 24 14  1  0
  1 29  1  0
  1 30  1  0
  1 31  1  0
  6 32  1  0
  7 33  1  0
  9 34  1  0
 12 35  1  0
 12 36  1  0
 17 37  1  0
 17 38  1  0
 17 39  1  0
 18 40  1  0
 27 41  1  0
 28 42  1  0
M  END
>  <Binding energies>  (1) 
[-6.85]

>  <Ligand effiencies>  (1) 
[-0.23620689655172414]

>  <Interactions>  (1) 
["V-B:TYR:539:CE2:9847, V-B:PRO:540:CA:9854, V-B:TYR:539:CD2:9845, V-B:TYR:539:CG:9843, V-B:ALA:541:CB:9863, V-B:TYR:539:C:9838, V-A:LEU:475:CD2:4258, V-B:ALA:541:CA:9861, H-B:ALA:541:N:9862, V-A:ILE:369:CD1:3238, H-A:TYR:484:OH:4347, H-A:GLU:543:OE2:4910, V-A:GLU:543:CD:4908, V-A:GLU:543:CB:4906, V-B:HIS:456:CE1:9041, V-A:HIS:456:CE1:4069, V-B:PRO:540:C:9852, H-A:GLU:543:OE1:4909, V-A:GLY:454:CA:4048, H-B:LYS:547:NZ:9922, H-A:LYS:547:NZ:4951"]

$$$$
2c_Ghoteimi_2023
     RDKit          3D

 72 77  0  0  0  0  0  0  0  0999 V2000
  131.8300  125.0220   58.8600 N   0  0  0  0  0  0  0  0  0  0  0  0
  131.5400  125.1630   59.9710 C   0  0  0  0  0  0  0  0  0  0  0  0
  131.1710  125.3470   61.3780 C   0  0  0  0  0  0  0  0  0  0  0  0
  130.7520  126.6140   61.8540 C   0  0  0  0  0  0  0  0  0  0  0  0
  130.6550  127.8340   60.9980 C   0  0  0  0  0  0  0  0  0  0  0  0
  130.9810  129.0870   61.5200 C   0  0  0  0  0  0  0  0  0  0  0  0
  130.8980  130.2290   60.7270 C   0  0  0  0  0  0  0  0  0  0  0  0
  130.4720  130.1510   59.3920 C   0  0  0  0  0  0  0  0  0  0  0  0
  130.4000  131.2790   58.5720 N   0  0  0  0  0  0  0  0  0  0  0  0
  131.4970  131.5550   57.6240 C   0  0  0  0  0  0  0  0  0  0  0  0
  131.4830  132.9980   57.0780 C   0  0  0  0  0  0  0  0  0  0  0  0
  130.2230  133.2840   56.4910 O   0  0  0  0  0  0  0  0  0  0  0  0
  129.1670  133.1630   57.4310 C   0  0  0  0  0  0  0  0  0  0  0  0
  129.1200  131.7240   57.9870 C   0  0  0  0  0  0  0  0  0  0  0  0
  130.1420  128.8880   58.8780 C   0  0  0  0  0  0  0  0  0  0  0  0
  130.2280  127.7470   59.6700 C   0  0  0  0  0  0  0  0  0  0  0  0
  130.4070  126.7380   63.2060 C   0  0  0  0  0  0  0  0  0  0  0  0
  130.4520  125.6260   64.0530 C   0  0  0  0  0  0  0  0  0  0  0  0
  130.0770  125.7020   65.4980 C   0  0  0  0  0  0  0  0  0  0  0  0
  130.1410  124.5680   66.3140 C   0  0  0  0  0  0  0  0  0  0  0  0
  129.7990  124.6330   67.6620 C   0  0  0  0  0  0  0  0  0  0  0  0
  129.3670  125.8360   68.2430 C   0  0  0  0  0  0  0  0  0  0  0  0
  129.0440  125.9250   69.6010 N   0  0  0  0  0  0  0  0  0  0  0  0
  129.6050  127.0180   70.4210 C   0  0  0  0  0  0  0  0  0  0  0  0
  129.4850  126.7770   71.9410 C   0  0  0  0  0  0  0  0  0  0  0  0
  128.1320  126.5290   72.2880 O   0  0  0  0  0  0  0  0  0  0  0  0
  127.6280  125.3800   71.6270 C   0  0  0  0  0  0  0  0  0  0  0  0
  127.6960  125.5750   70.0970 C   0  0  0  0  0  0  0  0  0  0  0  0
  129.3160  126.9740   67.4250 C   0  0  0  0  0  0  0  0  0  0  0  0
  129.6610  126.9070   66.0770 C   0  0  0  0  0  0  0  0  0  0  0  0
  130.8510  124.4130   63.5940 N   0  0  0  0  0  0  0  0  0  0  0  0
  131.2200  124.2750   62.2980 C   0  0  0  0  0  0  0  0  0  0  0  0
  131.7250  122.6240   61.8730 S   0  0  0  0  0  0  0  0  0  0  0  0
  130.7200  122.0940   60.4530 C   0  0  0  0  0  0  0  0  0  0  0  0
  129.2310  122.0300   60.7960 C   0  0  0  0  0  0  0  0  0  0  0  0
  128.7010  120.9340   60.9850 O   0  0  0  0  0  0  0  0  0  0  0  0
  128.5960  123.2200   60.8610 N   0  0  0  0  0  0  0  0  0  0  0  0
  127.2600  123.4320   61.1670 C   0  0  0  0  0  0  0  0  0  0  0  0
  126.6280  123.1270   62.2800 N   0  0  0  0  0  0  0  0  0  0  0  0
  125.3590  123.4790   62.2290 C   0  0  0  0  0  0  0  0  0  0  0  0
  124.9360  124.0860   61.0500 C   0  0  0  0  0  0  0  0  0  0  0  0
  126.2820  124.1970   59.9560 S   0  0  0  0  0  0  0  0  0  0  0  0
  131.3064  129.1732   62.5672 H   0  0  0  0  0  0  0  0  0  0  0  0
  131.1702  131.2059   61.1531 H   0  0  0  0  0  0  0  0  0  0  0  0
  132.4542  131.3857   58.1388 H   0  0  0  0  0  0  0  0  0  0  0  0
  131.3632  130.8804   56.7655 H   0  0  0  0  0  0  0  0  0  0  0  0
  131.6682  133.7013   57.9033 H   0  0  0  0  0  0  0  0  0  0  0  0
  132.2683  133.1023   56.3148 H   0  0  0  0  0  0  0  0  0  0  0  0
  129.3329  133.8684   58.2586 H   0  0  0  0  0  0  0  0  0  0  0  0
  128.2124  133.3903   56.9340 H   0  0  0  0  0  0  0  0  0  0  0  0
  128.3453  131.6766   58.7665 H   0  0  0  0  0  0  0  0  0  0  0  0
  128.9003  131.0562   57.1409 H   0  0  0  0  0  0  0  0  0  0  0  0
  129.8102  128.7983   57.8331 H   0  0  0  0  0  0  0  0  0  0  0  0
  129.9576  126.7682   59.2472 H   0  0  0  0  0  0  0  0  0  0  0  0
  130.0988  127.7161   63.6040 H   0  0  0  0  0  0  0  0  0  0  0  0
  130.4668  123.6094   65.8839 H   0  0  0  0  0  0  0  0  0  0  0  0
  129.8684  123.7270   68.2820 H   0  0  0  0  0  0  0  0  0  0  0  0
  130.6702  127.1291   70.1699 H   0  0  0  0  0  0  0  0  0  0  0  0
  129.0235  127.9232   70.1919 H   0  0  0  0  0  0  0  0  0  0  0  0
  130.0981  125.9078   72.2215 H   0  0  0  0  0  0  0  0  0  0  0  0
  129.8371  127.6707   72.4770 H   0  0  0  0  0  0  0  0  0  0  0  0
  128.2309  124.5043   71.9092 H   0  0  0  0  0  0  0  0  0  0  0  0
  126.5802  125.2247   71.9238 H   0  0  0  0  0  0  0  0  0  0  0  0
  127.3805  124.6388   69.6134 H   0  0  0  0  0  0  0  0  0  0  0  0
  127.0343  126.4187   69.8511 H   0  0  0  0  0  0  0  0  0  0  0  0
  128.9983  127.9354   67.8549 H   0  0  0  0  0  0  0  0  0  0  0  0
  129.6057  127.8146   65.4580 H   0  0  0  0  0  0  0  0  0  0  0  0
  130.8642  122.8089   59.6295 H   0  0  0  0  0  0  0  0  0  0  0  0
  131.0457  121.0836   60.1649 H   0  0  0  0  0  0  0  0  0  0  0  0
  129.1450  124.0520   60.6940 H   0  0  0  0  0  0  0  0  0  0  0  0
  124.6729  123.3030   63.0706 H   0  0  0  0  0  0  0  0  0  0  0  0
  123.9146  124.4386   60.8439 H   0  0  0  0  0  0  0  0  0  0  0  0
  1  2  3  0
  2  3  1  0
  3  4  2  0
  4  5  1  0
  5  6  2  0
  6  7  1  0
  7  8  2  0
  8  9  1  0
  9 10  1  0
 10 11  1  0
 11 12  1  0
 12 13  1  0
 13 14  1  0
  8 15  1  0
 15 16  2  0
  4 17  1  0
 17 18  2  0
 18 19  1  0
 19 20  2  0
 20 21  1  0
 21 22  2  0
 22 23  1  0
 23 24  1  0
 24 25  1  0
 25 26  1  0
 26 27  1  0
 27 28  1  0
 22 29  1  0
 29 30  2  0
 18 31  1  0
 31 32  2  0
 32 33  1  0
 33 34  1  0
 34 35  1  0
 35 36  2  0
 35 37  1  0
 37 38  1  0
 38 39  2  0
 39 40  1  0
 40 41  2  0
 41 42  1  0
 32  3  1  0
 42 38  1  0
 16  5  1  0
 30 19  1  0
 14  9  1  0
 28 23  1  0
  6 43  1  0
  7 44  1  0
 10 45  1  0
 10 46  1  0
 11 47  1  0
 11 48  1  0
 13 49  1  0
 13 50  1  0
 14 51  1  0
 14 52  1  0
 15 53  1  0
 16 54  1  0
 17 55  1  0
 20 56  1  0
 21 57  1  0
 24 58  1  0
 24 59  1  0
 25 60  1  0
 25 61  1  0
 27 62  1  0
 27 63  1  0
 28 64  1  0
 28 65  1  0
 29 66  1  0
 30 67  1  0
 34 68  1  0
 34 69  1  0
 37 70  1  0
 40 71  1  0
 41 72  1  0
M  END
>  <Binding energies>  (1) 
[-9.7]

>  <Ligand effiencies>  (1) 
[-0.2255813953488372]

>  <Interactions>  (1) 
["V-B:TYR:539:CE2:9847, V-B:PRO:540:CA:9854, V-B:TYR:539:CD2:9845, V-B:PRO:540:CB:9856, V-B:ALA:541:CB:9863, H-B:ALA:541:N:9862, V-A:ASP:366:CG:3212, H-B:TYR:539:OH:9849, V-A:GLU:543:CD:4908, V-B:HIS:456:CE1:9041, V-B:GLU:543:CB:9877, V-A:TYR:484:CZ:4346, V-A:HIS:456:CE1:4069, V-B:GLU:543:CG:9878, V-B:HIS:456:CD2:9039, V-B:GLU:543:CD:9879, V-A:TYR:484:CE1:4344, V-A:HIS:456:CD2:4067, V-A:PRO:540:N:4884, V-A:LEU:363:CD1:3188, V-A:TYR:539:C:4867, H-A:TYR:539:N:4870, V-A:PRO:540:CA:4883, V-B:ASN:362:CB:8147, V-A:TYR:539:CZ:4877, V-A:TYR:539:CA:4869, V-A:TYR:539:CE2:4876, V-A:PRO:540:CD:4887, V-A:TYR:539:CD2:4874, V-A:TYR:539:CD1:4873, V-A:TYR:539:CG:4872, V-A:PRO:540:CB:4885, H-B:LYS:547:NZ:9922, V-B:GLU:543:CA:9875, V-B:GLU:543:C:9873, V-B:GLY:544:C:9883, V-B:GLY:544:CA:9885"]

$$$$
2c_Grossjean_2025
     RDKit          3D

 40 41  0  0  0  0  0  0  0  0999 V2000
  129.9640  130.6830   73.5600 C   0  0  0  0  0  0  0  0  0  0  0  0
  130.6220  129.4440   73.3140 O   0  0  0  0  0  0  0  0  0  0  0  0
  130.5500  128.8820   72.0540 C   0  0  0  0  0  0  0  0  0  0  0  0
  131.7500  128.7740   71.3520 C   0  0  0  0  0  0  0  0  0  0  0  0
  131.7790  128.2220   70.0730 C   0  0  0  0  0  0  0  0  0  0  0  0
  130.5900  127.7790   69.4760 C   0  0  0  0  0  0  0  0  0  0  0  0
  130.5230  127.1920   68.1990 N   0  0  0  0  0  0  0  0  0  0  0  0
  129.8270  126.1020   67.8080 C   0  0  0  0  0  0  0  0  0  0  0  0
  129.1570  125.3920   68.5590 O   0  0  0  0  0  0  0  0  0  0  0  0
  129.9530  125.7560   66.3160 C   0  0  0  0  0  0  0  0  0  0  0  0
  129.9760  123.9710   65.9240 S   0  0  0  0  0  0  0  0  0  0  0  0
  130.3480  123.7490   64.1890 C   0  0  0  0  0  0  0  0  0  0  0  0
  129.3010  123.3810   63.4060 N   0  0  0  0  0  0  0  0  0  0  0  0
  129.5100  123.1860   62.0860 C   0  0  0  0  0  0  0  0  0  0  0  0
  128.2960  122.7610   61.2830 C   0  0  0  0  0  0  0  0  0  0  0  0
  130.7580  123.3550   61.4890 C   0  0  0  0  0  0  0  0  0  0  0  0
  131.8510  123.7420   62.2770 C   0  0  0  0  0  0  0  0  0  0  0  0
  133.2250  123.9270   61.6020 C   0  0  0  0  0  0  0  0  0  0  0  0
  134.0000  122.8690   61.8470 F   0  0  0  0  0  0  0  0  0  0  0  0
  133.0740  124.0570   60.2840 F   0  0  0  0  0  0  0  0  0  0  0  0
  133.8730  125.0090   62.0420 F   0  0  0  0  0  0  0  0  0  0  0  0
  131.6480  123.9450   63.6650 C   0  0  0  0  0  0  0  0  0  0  0  0
  132.7560  124.3480   64.5380 C   0  0  0  0  0  0  0  0  0  0  0  0
  133.6310  124.6660   65.2250 N   0  0  0  0  0  0  0  0  0  0  0  0
  129.3890  127.8700   70.1800 C   0  0  0  0  0  0  0  0  0  0  0  0
  129.3650  128.4220   71.4580 C   0  0  0  0  0  0  0  0  0  0  0  0
  129.8786  130.8438   74.6448 H   0  0  0  0  0  0  0  0  0  0  0  0
  130.5458  131.5023   73.1126 H   0  0  0  0  0  0  0  0  0  0  0  0
  128.9594  130.6598   73.1126 H   0  0  0  0  0  0  0  0  0  0  0  0
  132.6838  129.1284   71.8129 H   0  0  0  0  0  0  0  0  0  0  0  0
  132.7330  128.1339   69.5325 H   0  0  0  0  0  0  0  0  0  0  0  0
  131.1250  127.6150   67.5080 H   0  0  0  0  0  0  0  0  0  0  0  0
  129.0994  126.2080   65.7896 H   0  0  0  0  0  0  0  0  0  0  0  0
  130.9290  126.1492   65.9952 H   0  0  0  0  0  0  0  0  0  0  0  0
  127.4841  122.4768   61.9686 H   0  0  0  0  0  0  0  0  0  0  0  0
  127.9649  123.5967   60.6490 H   0  0  0  0  0  0  0  0  0  0  0  0
  128.5584  121.9013   60.6490 H   0  0  0  0  0  0  0  0  0  0  0  0
  130.8842  123.1863   60.4094 H   0  0  0  0  0  0  0  0  0  0  0  0
  128.4574  127.5042   69.7236 H   0  0  0  0  0  0  0  0  0  0  0  0
  128.4128  128.4981   72.0034 H   0  0  0  0  0  0  0  0  0  0  0  0
  1  2  1  0
  2  3  1  0
  3  4  2  0
  4  5  1  0
  5  6  2  0
  6  7  1  0
  7  8  1  0
  8  9  2  0
  8 10  1  0
 10 11  1  0
 11 12  1  0
 12 13  2  0
 13 14  1  0
 14 15  1  0
 14 16  2  0
 16 17  1  0
 17 18  1  0
 18 19  1  0
 18 20  1  0
 18 21  1  0
 17 22  2  0
 22 23  1  0
 23 24  3  0
  6 25  1  0
 25 26  2  0
 26  3  1  0
 22 12  1  0
  1 27  1  0
  1 28  1  0
  1 29  1  0
  4 30  1  0
  5 31  1  0
  7 32  1  0
 10 33  1  0
 10 34  1  0
 15 35  1  0
 15 36  1  0
 15 37  1  0
 16 38  1  0
 25 39  1  0
 26 40  1  0
M  END
>  <Binding energies>  (1) 
[-6.43]

>  <Ligand effiencies>  (1) 
[-0.23814814814814814]

>  <Interactions>  (1) 
["V-B:ALA:541:CB:9863, H-A:GLY:454:N:4049, V-A:ASP:366:CG:3212, V-A:ILE:369:CD1:3238, V-A:ILE:369:CG2:3236, H-A:TYR:484:OH:4347, H-A:GLU:543:OE2:4910, V-A:GLU:543:CD:4908, V-A:GLU:543:CB:4906, V-B:HIS:456:CE1:9041, V-A:HIS:456:CE1:4069, V-B:GLU:543:CG:9878, V-B:GLU:543:CD:9879, V-A:ARG:545:CG:4922, V-A:GLY:454:CA:4048, V-A:ILE:369:CB:3235, V-A:ILE:369:CG1:3237, H-A:LYS:547:NZ:4951, V-A:LYS:547:CE:4950, V-A:GLU:543:C:4902, V-A:ARG:545:CA:4919, V-A:GLY:544:C:4912"]

$$$$
2d_Ghoteimi_2023
     RDKit          3D

 68 72  0  0  0  0  0  0  0  0999 V2000
  127.6410  123.4890   57.9460 C   0  0  0  0  0  0  0  0  0  0  0  0
  127.4350  122.4270   58.8660 O   0  0  0  0  0  0  0  0  0  0  0  0
  128.0010  122.4610   60.0900 C   0  0  0  0  0  0  0  0  0  0  0  0
  127.4190  122.7490   61.1400 O   0  0  0  0  0  0  0  0  0  0  0  0
  129.4890  122.0840   60.0280 C   0  0  0  0  0  0  0  0  0  0  0  0
  130.3170  122.3960   61.6250 S   0  0  0  0  0  0  0  0  0  0  0  0
  130.1970  124.1350   61.9870 C   0  0  0  0  0  0  0  0  0  0  0  0
  130.0160  124.3960   63.3050 N   0  0  0  0  0  0  0  0  0  0  0  0
  129.9010  125.6810   63.7250 C   0  0  0  0  0  0  0  0  0  0  0  0
  129.6860  125.8900   65.1890 C   0  0  0  0  0  0  0  0  0  0  0  0
  129.9350  124.8570   66.1000 C   0  0  0  0  0  0  0  0  0  0  0  0
  129.7370  125.0450   67.4660 C   0  0  0  0  0  0  0  0  0  0  0  0
  129.2930  126.2760   67.9710 C   0  0  0  0  0  0  0  0  0  0  0  0
  129.0710  126.4750   69.3380 N   0  0  0  0  0  0  0  0  0  0  0  0
  128.7180  125.3560   70.2340 C   0  0  0  0  0  0  0  0  0  0  0  0
  128.1540  125.8100   71.5970 C   0  0  0  0  0  0  0  0  0  0  0  0
  129.0670  126.6940   72.2280 O   0  0  0  0  0  0  0  0  0  0  0  0
  129.2950  127.8540   71.4460 C   0  0  0  0  0  0  0  0  0  0  0  0
  129.8870  127.4610   70.0750 C   0  0  0  0  0  0  0  0  0  0  0  0
  129.0310  127.3030   67.0530 C   0  0  0  0  0  0  0  0  0  0  0  0
  129.2270  127.1150   65.6880 C   0  0  0  0  0  0  0  0  0  0  0  0
  129.9710  126.7440   62.8210 C   0  0  0  0  0  0  0  0  0  0  0  0
  130.1900  126.5040   61.4590 C   0  0  0  0  0  0  0  0  0  0  0  0
  130.2810  127.6900   60.5550 C   0  0  0  0  0  0  0  0  0  0  0  0
  131.3320  127.7980   59.6420 C   0  0  0  0  0  0  0  0  0  0  0  0
  131.4190  128.8920   58.7860 C   0  0  0  0  0  0  0  0  0  0  0  0
  130.4560  129.9140   58.8230 C   0  0  0  0  0  0  0  0  0  0  0  0
  130.5170  131.0160   57.9640 N   0  0  0  0  0  0  0  0  0  0  0  0
  131.7840  131.7300   57.7180 C   0  0  0  0  0  0  0  0  0  0  0  0
  131.7340  132.6680   56.4930 C   0  0  0  0  0  0  0  0  0  0  0  0
  130.6550  133.5800   56.6230 O   0  0  0  0  0  0  0  0  0  0  0  0
  129.4080  132.9080   56.7160 C   0  0  0  0  0  0  0  0  0  0  0  0
  129.3990  131.9790   57.9490 C   0  0  0  0  0  0  0  0  0  0  0  0
  129.3960  129.7890   59.7300 C   0  0  0  0  0  0  0  0  0  0  0  0
  129.3080  128.6930   60.5850 C   0  0  0  0  0  0  0  0  0  0  0  0
  130.3140  125.1620   61.0210 C   0  0  0  0  0  0  0  0  0  0  0  0
  130.5640  124.8600   59.6090 C   0  0  0  0  0  0  0  0  0  0  0  0
  130.7610  124.6260   58.4920 N   0  0  0  0  0  0  0  0  0  0  0  0
  127.8221  124.4228   58.4985 H   0  0  0  0  0  0  0  0  0  0  0  0
  128.5119  123.2624   57.3134 H   0  0  0  0  0  0  0  0  0  0  0  0
  126.7485  123.6044   57.3134 H   0  0  0  0  0  0  0  0  0  0  0  0
  129.5784  121.0160   59.7802 H   0  0  0  0  0  0  0  0  0  0  0  0
  129.9731  122.7029   59.2582 H   0  0  0  0  0  0  0  0  0  0  0  0
  130.2918  123.8836   65.7324 H   0  0  0  0  0  0  0  0  0  0  0  0
  129.9321  124.2143   68.1602 H   0  0  0  0  0  0  0  0  0  0  0  0
  127.9602  124.7354   69.7334 H   0  0  0  0  0  0  0  0  0  0  0  0
  129.6456  124.8008   70.4375 H   0  0  0  0  0  0  0  0  0  0  0  0
  127.1953  126.3263   71.4412 H   0  0  0  0  0  0  0  0  0  0  0  0
  128.0024  124.9287   72.2375 H   0  0  0  0  0  0  0  0  0  0  0  0
  128.3426  128.3828   71.2931 H   0  0  0  0  0  0  0  0  0  0  0  0
  130.0061  128.5086   71.9712 H   0  0  0  0  0  0  0  0  0  0  0  0
  129.9734  128.3693   69.4605 H   0  0  0  0  0  0  0  0  0  0  0  0
  130.8628  126.9914   70.2682 H   0  0  0  0  0  0  0  0  0  0  0  0
  128.6643  128.2738   67.4179 H   0  0  0  0  0  0  0  0  0  0  0  0
  129.0184  127.9404   64.9914 H   0  0  0  0  0  0  0  0  0  0  0  0
  129.8533  127.7765   63.1817 H   0  0  0  0  0  0  0  0  0  0  0  0
  132.0989  127.0106   59.5989 H   0  0  0  0  0  0  0  0  0  0  0  0
  132.2526  128.9572   58.0713 H   0  0  0  0  0  0  0  0  0  0  0  0
  132.0233  132.3313   58.6075 H   0  0  0  0  0  0  0  0  0  0  0  0
  132.5500  130.9681   57.5113 H   0  0  0  0  0  0  0  0  0  0  0  0
  132.6781  133.2283   56.4246 H   0  0  0  0  0  0  0  0  0  0  0  0
  131.5902  132.0662   55.5835 H   0  0  0  0  0  0  0  0  0  0  0  0
  128.6011  133.6493   56.8127 H   0  0  0  0  0  0  0  0  0  0  0  0
  129.2544  132.3052   55.8088 H   0  0  0  0  0  0  0  0  0  0  0  0
  129.4616  132.6004   58.8545 H   0  0  0  0  0  0  0  0  0  0  0  0
  128.4675  131.3953   57.9096 H   0  0  0  0  0  0  0  0  0  0  0  0
  128.6209  130.5686   59.7676 H   0  0  0  0  0  0  0  0  0  0  0  0
  128.4664  128.6162   61.2892 H   0  0  0  0  0  0  0  0  0  0  0  0
  1  2  1  0
  2  3  1  0
  3  4  2  0
  3  5  1  0
  5  6  1  0
  6  7  1  0
  7  8  2  0
  8  9  1  0
  9 10  1  0
 10 11  2  0
 11 12  1  0
 12 13  2  0
 13 14  1  0
 14 15  1  0
 15 16  1  0
 16 17  1  0
 17 18  1  0
 18 19  1  0
 13 20  1  0
 20 21  2  0
  9 22  2  0
 22 23  1  0
 23 24  1  0
 24 25  2  0
 25 26  1  0
 26 27  2  0
 27 28  1  0
 28 29  1  0
 29 30  1  0
 30 31  1  0
 31 32  1  0
 32 33  1  0
 27 34  1  0
 34 35  2  0
 23 36  2  0
 36 37  1  0
 37 38  3  0
 36  7  1  0
 21 10  1  0
 35 24  1  0
 19 14  1  0
 33 28  1  0
  1 39  1  0
  1 40  1  0
  1 41  1  0
  5 42  1  0
  5 43  1  0
 11 44  1  0
 12 45  1  0
 15 46  1  0
 15 47  1  0
 16 48  1  0
 16 49  1  0
 18 50  1  0
 18 51  1  0
 19 52  1  0
 19 53  1  0
 20 54  1  0
 21 55  1  0
 22 56  1  0
 25 57  1  0
 26 58  1  0
 29 59  1  0
 29 60  1  0
 30 61  1  0
 30 62  1  0
 32 63  1  0
 32 64  1  0
 33 65  1  0
 33 66  1  0
 34 67  1  0
 35 68  1  0
M  END
>  <Binding energies>  (1) 
[-7.95]

>  <Ligand effiencies>  (1) 
[-0.20921052631578949]

>  <Interactions>  (1) 
["V-B:TYR:539:CE2:9847, V-B:PRO:540:CA:9854, V-B:TYR:539:CD2:9845, V-B:TYR:539:C:9838, V-B:PRO:540:N:9855, H-B:ALA:541:N:9862, V-B:TYR:539:CZ:9848, V-A:ASP:366:CG:3212, V-A:ASP:366:CB:3211, H-B:TYR:539:OH:9849, V-A:GLU:543:CD:4908, V-B:HIS:456:CE1:9041, V-B:GLU:543:CB:9877, V-A:HIS:456:CE1:4069, V-B:GLU:543:CG:9878, V-B:HIS:456:CD2:9039, V-B:GLU:543:CD:9879, V-A:TYR:484:CE1:4344, V-A:HIS:456:CD2:4067, V-A:LEU:363:CD1:3188, V-A:TYR:539:C:4867, H-A:TYR:539:N:4870, V-B:PRO:540:C:9852, V-A:TYR:539:CE1:4875, V-A:TYR:539:CD2:4874, V-A:TYR:539:CD1:4873, V-A:TYR:539:CG:4872, V-B:GLU:543:C:9873, V-A:ILE:538:CB:4862"]

$$$$
2d_Grossjean_2025
     RDKit          3D

 36 37  0  0  0  0  0  0  0  0999 V2000
  129.1020  128.0990   62.6100 C   0  0  0  0  0  0  0  0  0  0  0  0
  128.9540  127.8940   64.1060 C   0  0  0  0  0  0  0  0  0  0  0  0
  128.1490  128.7270   64.8800 C   0  0  0  0  0  0  0  0  0  0  0  0
  128.0410  128.4930   66.2590 C   0  0  0  0  0  0  0  0  0  0  0  0
  127.1380  129.4190   67.0970 C   0  0  0  0  0  0  0  0  0  0  0  0
  126.7580  130.4680   66.3680 F   0  0  0  0  0  0  0  0  0  0  0  0
  126.0520  128.7560   67.5000 F   0  0  0  0  0  0  0  0  0  0  0  0
  127.7490  129.8870   68.1870 F   0  0  0  0  0  0  0  0  0  0  0  0
  128.7660  127.4130   66.8230 C   0  0  0  0  0  0  0  0  0  0  0  0
  128.6500  127.0990   68.2500 C   0  0  0  0  0  0  0  0  0  0  0  0
  128.5560  126.8510   69.3760 N   0  0  0  0  0  0  0  0  0  0  0  0
  129.5780  126.6350   65.9630 C   0  0  0  0  0  0  0  0  0  0  0  0
  130.5770  125.2640   66.5090 S   0  0  0  0  0  0  0  0  0  0  0  0
  132.3340  125.7390   66.3990 C   0  0  0  0  0  0  0  0  0  0  0  0
  132.9650  125.3900   65.0480 C   0  0  0  0  0  0  0  0  0  0  0  0
  134.1340  125.0010   65.0160 O   0  0  0  0  0  0  0  0  0  0  0  0
  132.1740  125.5700   63.9700 N   0  0  0  0  0  0  0  0  0  0  0  0
  132.4580  125.3390   62.6110 C   0  0  0  0  0  0  0  0  0  0  0  0
  131.6820  126.0500   61.6930 C   0  0  0  0  0  0  0  0  0  0  0  0
  131.8830  125.8840   60.3250 C   0  0  0  0  0  0  0  0  0  0  0  0
  132.8580  124.9960   59.8740 C   0  0  0  0  0  0  0  0  0  0  0  0
  133.6290  124.2720   60.7800 C   0  0  0  0  0  0  0  0  0  0  0  0
  133.4310  124.4370   62.1470 C   0  0  0  0  0  0  0  0  0  0  0  0
  129.6540  126.8620   64.6290 N   0  0  0  0  0  0  0  0  0  0  0  0
  129.7363  128.9776   62.4213 H   0  0  0  0  0  0  0  0  0  0  0  0
  129.5667  127.2083   62.1620 H   0  0  0  0  0  0  0  0  0  0  0  0
  128.1103  128.2597   62.1620 H   0  0  0  0  0  0  0  0  0  0  0  0
  127.6031  129.5606   64.4141 H   0  0  0  0  0  0  0  0  0  0  0  0
  132.4137  126.8253   66.5529 H   0  0  0  0  0  0  0  0  0  0  0  0
  132.8765  125.1738   67.1712 H   0  0  0  0  0  0  0  0  0  0  0  0
  131.2680  125.9810   64.1430 H   0  0  0  0  0  0  0  0  0  0  0  0
  130.9083  126.7445   62.0522 H   0  0  0  0  0  0  0  0  0  0  0  0
  131.2754  126.4508   59.6041 H   0  0  0  0  0  0  0  0  0  0  0  0
  133.0198  124.8660   58.7938 H   0  0  0  0  0  0  0  0  0  0  0  0
  134.3937  123.5705   60.4151 H   0  0  0  0  0  0  0  0  0  0  0  0
  134.0353  123.8621   62.8641 H   0  0  0  0  0  0  0  0  0  0  0  0
  1  2  1  0
  2  3  2  0
  3  4  1  0
  4  5  1  0
  5  6  1  0
  5  7  1  0
  5  8  1  0
  4  9  2  0
  9 10  1  0
 10 11  3  0
  9 12  1  0
 12 13  1  0
 13 14  1  0
 14 15  1  0
 15 16  2  0
 15 17  1  0
 17 18  1  0
 18 19  2  0
 19 20  1  0
 20 21  2  0
 21 22  1  0
 22 23  2  0
 12 24  2  0
 24  2  1  0
 23 18  1  0
  1 25  1  0
  1 26  1  0
  1 27  1  0
  3 28  1  0
 14 29  1  0
 14 30  1  0
 17 31  1  0
 19 32  1  0
 20 33  1  0
 21 34  1  0
 22 35  1  0
 23 36  1  0
M  END
>  <Binding energies>  (1) 
[-5.46]

>  <Ligand effiencies>  (1) 
[-0.2184]

>  <Interactions>  (1) 
["H-A:GLY:454:N:4049, H-A:ARG:545:NE:4924, V-A:ASP:366:CG:3212, V-A:ILE:369:CD1:3238, V-A:ASP:366:CB:3211, V-A:ASP:366:CA:3209, V-A:ILE:369:CG2:3236, H-A:TYR:484:OH:4347, H-A:GLU:543:OE2:4910, V-A:ARG:545:CZ:4926, V-A:GLU:543:CD:4908, V-A:GLU:543:CG:4907, V-A:GLU:543:CB:4906, V-B:HIS:456:CE1:9041, V-B:GLU:543:CB:9877, V-A:HIS:456:CE1:4069, V-B:GLU:543:CG:9878, V-B:TYR:484:CE1:9316, V-B:GLU:543:CD:9879, V-B:ARG:545:CG:9893, V-A:ILE:369:CB:3235, V-B:TYR:484:CZ:9318"]

$$$$
2e_Grossjean_2025
     RDKit          3D

 38 39  0  0  0  0  0  0  0  0999 V2000
  125.0500  124.2360   61.7220 C   0  0  0  0  0  0  0  0  0  0  0  0
  126.0640  123.8120   60.6780 C   0  0  0  0  0  0  0  0  0  0  0  0
  126.1220  124.4250   59.4230 C   0  0  0  0  0  0  0  0  0  0  0  0
  127.0910  123.9900   58.5170 C   0  0  0  0  0  0  0  0  0  0  0  0
  127.9670  122.9650   58.8810 C   0  0  0  0  0  0  0  0  0  0  0  0
  127.8470  122.3880   60.1510 C   0  0  0  0  0  0  0  0  0  0  0  0
  128.7810  121.3920   60.4810 N   0  0  0  0  0  0  0  0  0  0  0  0
  129.6730  121.3890   61.4960 C   0  0  0  0  0  0  0  0  0  0  0  0
  129.7600  122.2600   62.3630 O   0  0  0  0  0  0  0  0  0  0  0  0
  130.6630  120.2200   61.5100 C   0  0  0  0  0  0  0  0  0  0  0  0
  132.2540  120.6620   60.7400 S   0  0  0  0  0  0  0  0  0  0  0  0
  132.3830  122.4290   60.8960 C   0  0  0  0  0  0  0  0  0  0  0  0
  132.2890  123.1090   59.7260 N   0  0  0  0  0  0  0  0  0  0  0  0
  132.4220  124.4540   59.7490 C   0  0  0  0  0  0  0  0  0  0  0  0
  132.3060  125.1510   58.4070 C   0  0  0  0  0  0  0  0  0  0  0  0
  132.6570  125.1680   60.9240 C   0  0  0  0  0  0  0  0  0  0  0  0
  132.7650  124.4790   62.1410 C   0  0  0  0  0  0  0  0  0  0  0  0
  133.0460  125.2790   63.4260 C   0  0  0  0  0  0  0  0  0  0  0  0
  132.5450  124.6380   64.4830 F   0  0  0  0  0  0  0  0  0  0  0  0
  134.3600  125.4260   63.5930 F   0  0  0  0  0  0  0  0  0  0  0  0
  132.5040  126.4990   63.4030 F   0  0  0  0  0  0  0  0  0  0  0  0
  132.6230  123.0690   62.1340 C   0  0  0  0  0  0  0  0  0  0  0  0
  132.7560  122.2880   63.3680 C   0  0  0  0  0  0  0  0  0  0  0  0
  132.8610  121.6720   64.3430 N   0  0  0  0  0  0  0  0  0  0  0  0
  126.9080  122.8140   61.0460 N   0  0  0  0  0  0  0  0  0  0  0  0
  125.4637  124.0630   62.7265 H   0  0  0  0  0  0  0  0  0  0  0  0
  124.8217  125.3050   61.5986 H   0  0  0  0  0  0  0  0  0  0  0  0
  124.1288  123.6477   61.5986 H   0  0  0  0  0  0  0  0  0  0  0  0
  125.4216  125.2301   59.1560 H   0  0  0  0  0  0  0  0  0  0  0  0
  127.1642  124.4522   57.5215 H   0  0  0  0  0  0  0  0  0  0  0  0
  128.7398  122.6162   58.1802 H   0  0  0  0  0  0  0  0  0  0  0  0
  128.7440  120.5650   59.9030 H   0  0  0  0  0  0  0  0  0  0  0  0
  130.8444  119.9210   62.5529 H   0  0  0  0  0  0  0  0  0  0  0  0
  130.2227  119.3956   60.9299 H   0  0  0  0  0  0  0  0  0  0  0  0
  132.1273  126.2247   58.5657 H   0  0  0  0  0  0  0  0  0  0  0  0
  133.2392  125.0143   57.8410 H   0  0  0  0  0  0  0  0  0  0  0  0
  131.4673  124.7195   57.8410 H   0  0  0  0  0  0  0  0  0  0  0  0
  132.7569  126.2631   60.8964 H   0  0  0  0  0  0  0  0  0  0  0  0
  1  2  1  0
  2  3  2  0
  3  4  1  0
  4  5  2  0
  5  6  1  0
  6  7  1  0
  7  8  1  0
  8  9  2  0
  8 10  1  0
 10 11  1  0
 11 12  1  0
 12 13  2  0
 13 14  1  0
 14 15  1  0
 14 16  2  0
 16 17  1  0
 17 18  1  0
 18 19  1  0
 18 20  1  0
 18 21  1  0
 17 22  2  0
 22 23  1  0
 23 24  3  0
  6 25  2  0
 25  2  1  0
 22 12  1  0
  1 26  1  0
  1 27  1  0
  1 28  1  0
  3 29  1  0
  4 30  1  0
  5 31  1  0
  7 32  1  0
 10 33  1  0
 10 34  1  0
 15 35  1  0
 15 36  1  0
 15 37  1  0
 16 38  1  0
M  END
>  <Binding energies>  (1) 
[-6.5]

>  <Ligand effiencies>  (1) 
[-0.25]

>  <Interactions>  (1) 
["V-B:TYR:539:CE2:9847, V-B:PRO:540:CA:9854, V-B:TYR:539:CD2:9845, V-B:PRO:540:CB:9856, V-B:ALA:541:CB:9863, V-B:TYR:539:C:9838, V-A:LEU:475:CD2:4258, V-B:PRO:540:N:9855, H-B:TYR:539:O:9839, H-B:ALA:541:N:9862, H-A:GLY:454:N:4049, V-A:ASP:366:CG:3212, V-A:ASP:366:CB:3211, V-A:ILE:369:CG2:3236, H-A:TYR:484:OH:4347, V-A:ARG:545:CZ:4926, V-B:PRO:540:C:9852, V-B:ASN:362:CB:8147, V-A:GLY:454:CA:4048, V-A:GLY:453:C:4041, V-A:GLY:453:CA:4043"]

$$$$
2f_Grossjean_2025
     RDKit          3D

 35 36  0  0  0  0  0  0  0  0999 V2000
  128.8130  126.5400   67.6280 C   0  0  0  0  0  0  0  0  0  0  0  0
  129.2200  126.7100   69.0790 C   0  0  0  0  0  0  0  0  0  0  0  0
  130.1510  127.6710   69.4670 C   0  0  0  0  0  0  0  0  0  0  0  0
  130.5020  127.7840   70.8220 C   0  0  0  0  0  0  0  0  0  0  0  0
  131.5420  128.8450   71.2300 C   0  0  0  0  0  0  0  0  0  0  0  0
  132.0990  129.3820   70.1430 F   0  0  0  0  0  0  0  0  0  0  0  0
  130.9530  129.8110   71.9360 F   0  0  0  0  0  0  0  0  0  0  0  0
  132.5270  128.3430   71.9770 F   0  0  0  0  0  0  0  0  0  0  0  0
  129.8850  126.9140   71.7570 C   0  0  0  0  0  0  0  0  0  0  0  0
  130.2600  126.9550   73.1730 C   0  0  0  0  0  0  0  0  0  0  0  0
  130.5560  126.9880   74.2910 N   0  0  0  0  0  0  0  0  0  0  0  0
  128.9310  125.9860   71.2740 C   0  0  0  0  0  0  0  0  0  0  0  0
  128.0540  124.8280   72.3050 S   0  0  0  0  0  0  0  0  0  0  0  0
  129.2750  123.9550   73.3430 C   0  0  0  0  0  0  0  0  0  0  0  0
  129.2130  122.4220   73.2720 C   0  0  0  0  0  0  0  0  0  0  0  0
  130.1610  121.7370   73.6570 O   0  0  0  0  0  0  0  0  0  0  0  0
  128.0690  121.9320   72.7470 N   0  0  0  0  0  0  0  0  0  0  0  0
  127.6780  120.5940   72.5470 C   0  0  0  0  0  0  0  0  0  0  0  0
  127.2760  119.7010   73.5570 C   0  0  0  0  0  0  0  0  0  0  0  0
  126.9070  118.3970   73.2200 C   0  0  0  0  0  0  0  0  0  0  0  0
  126.9450  118.0190   71.8770 C   0  0  0  0  0  0  0  0  0  0  0  0
  127.3210  118.8630   70.8840 N   0  0  0  0  0  0  0  0  0  0  0  0
  127.6760  120.1270   71.2270 C   0  0  0  0  0  0  0  0  0  0  0  0
  128.6220  125.8760   69.9590 N   0  0  0  0  0  0  0  0  0  0  0  0
  127.7990  126.1165   67.5788 H   0  0  0  0  0  0  0  0  0  0  0  0
  128.8262  127.5189   67.1264 H   0  0  0  0  0  0  0  0  0  0  0  0
  129.5186  125.8614   67.1264 H   0  0  0  0  0  0  0  0  0  0  0  0
  130.6072  128.3355   68.7185 H   0  0  0  0  0  0  0  0  0  0  0  0
  130.2798  124.2705   73.0255 H   0  0  0  0  0  0  0  0  0  0  0  0
  129.0400  124.2232   74.3836 H   0  0  0  0  0  0  0  0  0  0  0  0
  127.4010  122.6140   72.4170 H   0  0  0  0  0  0  0  0  0  0  0  0
  127.2525  120.0283   74.6069 H   0  0  0  0  0  0  0  0  0  0  0  0
  126.5932  117.6834   73.9961 H   0  0  0  0  0  0  0  0  0  0  0  0
  126.6572  116.9909   71.6121 H   0  0  0  0  0  0  0  0  0  0  0  0
  127.9775  120.8198   70.4276 H   0  0  0  0  0  0  0  0  0  0  0  0
  1  2  1  0
  2  3  2  0
  3  4  1  0
  4  5  1  0
  5  6  1  0
  5  7  1  0
  5  8  1  0
  4  9  2  0
  9 10  1  0
 10 11  3  0
  9 12  1  0
 12 13  1  0
 13 14  1  0
 14 15  1  0
 15 16  2  0
 15 17  1  0
 17 18  1  0
 18 19  2  0
 19 20  1  0
 20 21  2  0
 21 22  1  0
 22 23  2  0
 12 24  2  0
 24  2  1  0
 23 18  1  0
  1 25  1  0
  1 26  1  0
  1 27  1  0
  3 28  1  0
 14 29  1  0
 14 30  1  0
 17 31  1  0
 19 32  1  0
 20 33  1  0
 21 34  1  0
 23 35  1  0
M  END
>  <Binding energies>  (1) 
[-6.48]

>  <Ligand effiencies>  (1) 
[-0.25920000000000004]

>  <Interactions>  (1) 
["V-A:GLU:543:CB:4906, V-B:GLU:543:CB:9877, V-A:HIS:456:CE1:4069, V-B:GLU:543:CG:9878, V-B:GLU:543:CD:9879, V-A:HIS:456:CD2:4067, V-A:ARG:545:CG:4922, H-B:LYS:547:NZ:9922, V-B:LYS:547:CE:9921, H-B:GLY:544:O:9884, H-B:GLU:543:O:9874, V-B:GLU:543:C:9873, V-B:GLY:544:CA:9885, V-A:TYR:484:CB:4340, H-A:LYS:547:NZ:4951, V-A:GLU:543:CA:4904, V-A:GLU:543:C:4902, V-A:ARG:545:CB:4921, V-A:ARG:545:CA:4919, V-A:GLY:544:C:4912, V-A:ARG:545:C:4917, V-A:TYR:484:CG:4341, V-A:TYR:484:CD1:4342, H-A:TYR:484:N:4339, V-A:GLY:544:CA:4914"]

$$$$
2g_Grossjean_2025
     RDKit          3D

 39 40  0  0  0  0  0  0  0  0999 V2000
  124.3730  122.7450   62.0020 C   0  0  0  0  0  0  0  0  0  0  0  0
  125.0020  123.7430   61.0490 C   0  0  0  0  0  0  0  0  0  0  0  0
  126.1160  124.4950   61.4120 C   0  0  0  0  0  0  0  0  0  0  0  0
  126.6570  125.4120   60.4970 C   0  0  0  0  0  0  0  0  0  0  0  0
  127.8850  126.2420   60.9190 C   0  0  0  0  0  0  0  0  0  0  0  0
  128.7310  126.3690   59.8950 F   0  0  0  0  0  0  0  0  0  0  0  0
  127.4970  127.4560   61.3120 F   0  0  0  0  0  0  0  0  0  0  0  0
  128.5610  125.6880   61.9280 F   0  0  0  0  0  0  0  0  0  0  0  0
  126.0500  125.5350   59.2210 C   0  0  0  0  0  0  0  0  0  0  0  0
  126.5400  126.5170   58.2500 C   0  0  0  0  0  0  0  0  0  0  0  0
  126.9280  127.2930   57.4840 N   0  0  0  0  0  0  0  0  0  0  0  0
  124.9390  124.7070   58.9300 C   0  0  0  0  0  0  0  0  0  0  0  0
  124.0760  124.7150   57.3730 S   0  0  0  0  0  0  0  0  0  0  0  0
  124.7050  123.3110   56.3910 C   0  0  0  0  0  0  0  0  0  0  0  0
  126.1760  122.9560   56.6470 C   0  0  0  0  0  0  0  0  0  0  0  0
  126.5600  121.7850   56.6710 O   0  0  0  0  0  0  0  0  0  0  0  0
  126.9970  124.0040   56.8460 N   0  0  0  0  0  0  0  0  0  0  0  0
  128.4360  123.9190   57.0990 C   0  0  0  0  0  0  0  0  0  0  0  0
  128.8000  123.4370   58.4990 C   0  0  0  0  0  0  0  0  0  0  0  0
  128.0170  122.4620   59.1250 C   0  0  0  0  0  0  0  0  0  0  0  0
  128.3690  121.9930   60.3880 C   0  0  0  0  0  0  0  0  0  0  0  0
  129.5080  122.4900   61.0160 C   0  0  0  0  0  0  0  0  0  0  0  0
  130.3010  123.4520   60.3920 C   0  0  0  0  0  0  0  0  0  0  0  0
  129.9490  123.9220   59.1300 C   0  0  0  0  0  0  0  0  0  0  0  0
  124.4160  123.8430   59.8340 N   0  0  0  0  0  0  0  0  0  0  0  0
  124.5684  123.0551   63.0391 H   0  0  0  0  0  0  0  0  0  0  0  0
  123.2873  122.7069   61.8291 H   0  0  0  0  0  0  0  0  0  0  0  0
  124.8070  121.7491   61.8291 H   0  0  0  0  0  0  0  0  0  0  0  0
  126.5683  124.3717   62.4071 H   0  0  0  0  0  0  0  0  0  0  0  0
  124.0935  122.4274   56.6262 H   0  0  0  0  0  0  0  0  0  0  0  0
  124.6384  123.6157   55.3361 H   0  0  0  0  0  0  0  0  0  0  0  0
  126.6110  124.9350   56.7860 H   0  0  0  0  0  0  0  0  0  0  0  0
  128.8732  123.2210   56.3699 H   0  0  0  0  0  0  0  0  0  0  0  0
  128.8331  124.9405   57.0046 H   0  0  0  0  0  0  0  0  0  0  0  0
  127.1236  122.0658   58.6201 H   0  0  0  0  0  0  0  0  0  0  0  0
  127.7499  121.2332   60.8874 H   0  0  0  0  0  0  0  0  0  0  0  0
  129.7848  122.1200   62.0142 H   0  0  0  0  0  0  0  0  0  0  0  0
  131.2003  123.8377   60.8945 H   0  0  0  0  0  0  0  0  0  0  0  0
  130.5751  124.6752   58.6293 H   0  0  0  0  0  0  0  0  0  0  0  0
  1  2  1  0
  2  3  2  0
  3  4  1  0
  4  5  1  0
  5  6  1  0
  5  7  1  0
  5  8  1  0
  4  9  2  0
  9 10  1  0
 10 11  3  0
  9 12  1  0
 12 13  1  0
 13 14  1  0
 14 15  1  0
 15 16  2  0
 15 17  1  0
 17 18  1  0
 18 19  1  0
 19 20  2  0
 20 21  1  0
 21 22  2  0
 22 23  1  0
 23 24  2  0
 12 25  2  0
 25  2  1  0
 24 19  1  0
  1 26  1  0
  1 27  1  0
  1 28  1  0
  3 29  1  0
 14 30  1  0
 14 31  1  0
 17 32  1  0
 18 33  1  0
 18 34  1  0
 20 35  1  0
 21 36  1  0
 22 37  1  0
 23 38  1  0
 24 39  1  0
M  END
>  <Binding energies>  (1) 
[-5.42]

>  <Ligand effiencies>  (1) 
[-0.20846153846153845]

>  <Interactions>  (1) 
["V-B:TYR:539:CE2:9847, V-B:PRO:540:CA:9854, V-B:TYR:539:CD2:9845, V-B:LEU:363:CD1:8160, V-B:PRO:540:CB:9856, V-B:ALA:541:CB:9863, V-B:TYR:539:C:9838, V-B:PRO:540:N:9855, V-B:ALA:541:CA:9861, V-B:TYR:539:CE1:9846, H-B:TYR:531:OH:9766, V-B:TYR:539:CZ:9848, V-B:MET:535:CE:9806, V-B:PRO:540:C:9852, V-B:ASN:362:CB:8147, V-B:ALA:541:C:9859, H-B:TYR:539:N:9841, V-B:ASN:362:CG:8148, H-B:MET:535:SD:9805"]

$$$$
2h_Grossjean_2025
     RDKit          3D

 51 52  0  0  0  0  0  0  0  0999 V2000
  129.8990  125.0240   74.4140 C   0  0  0  0  0  0  0  0  0  0  0  0
  128.8110  125.7510   73.8550 O   0  0  0  0  0  0  0  0  0  0  0  0
  128.8860  126.1830   72.5430 C   0  0  0  0  0  0  0  0  0  0  0  0
  128.2640  125.5310   71.4660 C   0  0  0  0  0  0  0  0  0  0  0  0
  128.3780  126.0310   70.1710 C   0  0  0  0  0  0  0  0  0  0  0  0
  129.1140  127.1910   69.9220 C   0  0  0  0  0  0  0  0  0  0  0  0
  129.2080  127.7320   68.4960 C   0  0  0  0  0  0  0  0  0  0  0  0
  129.2170  126.6870   67.4720 N   0  0  0  0  0  0  0  0  0  0  0  0
  130.3140  126.0400   67.0410 C   0  0  0  0  0  0  0  0  0  0  0  0
  131.4550  126.3230   67.4120 O   0  0  0  0  0  0  0  0  0  0  0  0
  130.0620  124.8990   66.0440 C   0  0  0  0  0  0  0  0  0  0  0  0
  129.8000  125.4270   64.3180 S   0  0  0  0  0  0  0  0  0  0  0  0
  130.2920  124.0650   63.2840 C   0  0  0  0  0  0  0  0  0  0  0  0
  129.2890  123.5760   62.5130 N   0  0  0  0  0  0  0  0  0  0  0  0
  129.5490  122.5260   61.7020 C   0  0  0  0  0  0  0  0  0  0  0  0
  128.3790  122.0270   60.8760 C   0  0  0  0  0  0  0  0  0  0  0  0
  130.8060  121.9310   61.6210 C   0  0  0  0  0  0  0  0  0  0  0  0
  131.8610  122.4380   62.3950 C   0  0  0  0  0  0  0  0  0  0  0  0
  133.2470  121.7720   62.2850 C   0  0  0  0  0  0  0  0  0  0  0  0
  134.1490  122.6650   61.8760 F   0  0  0  0  0  0  0  0  0  0  0  0
  133.6750  121.2760   63.4480 F   0  0  0  0  0  0  0  0  0  0  0  0
  133.2040  120.7670   61.4100 F   0  0  0  0  0  0  0  0  0  0  0  0
  131.6070  123.5430   63.2460 C   0  0  0  0  0  0  0  0  0  0  0  0
  132.6880  124.1460   64.0300 C   0  0  0  0  0  0  0  0  0  0  0  0
  133.5430  124.6220   64.6460 N   0  0  0  0  0  0  0  0  0  0  0  0
  129.7610  127.8390   70.9850 C   0  0  0  0  0  0  0  0  0  0  0  0
  130.4910  128.9800   70.7470 O   0  0  0  0  0  0  0  0  0  0  0  0
  131.8520  128.7460   70.4090 C   0  0  0  0  0  0  0  0  0  0  0  0
  129.6290  127.3440   72.2930 C   0  0  0  0  0  0  0  0  0  0  0  0
  130.2460  127.9880   73.3390 O   0  0  0  0  0  0  0  0  0  0  0  0
  129.6470  129.2270   73.6940 C   0  0  0  0  0  0  0  0  0  0  0  0
  129.8406  125.0630   75.5118 H   0  0  0  0  0  0  0  0  0  0  0  0
  129.8497  123.9767   74.0812 H   0  0  0  0  0  0  0  0  0  0  0  0
  130.8477  125.4703   74.0812 H   0  0  0  0  0  0  0  0  0  0  0  0
  127.6808  124.6161   71.6469 H   0  0  0  0  0  0  0  0  0  0  0  0
  127.8846  125.5082   69.3384 H   0  0  0  0  0  0  0  0  0  0  0  0
  128.3439  128.3882   68.3155 H   0  0  0  0  0  0  0  0  0  0  0  0
  130.1649  128.2687   68.4173 H   0  0  0  0  0  0  0  0  0  0  0  0
  128.3130  126.3760   67.1450 H   0  0  0  0  0  0  0  0  0  0  0  0
  130.9328  124.2274   66.0669 H   0  0  0  0  0  0  0  0  0  0  0  0
  129.1275  124.4137   66.3621 H   0  0  0  0  0  0  0  0  0  0  0  0
  127.5766  121.6848   61.5461 H   0  0  0  0  0  0  0  0  0  0  0  0
  128.0036  122.8433   60.2414 H   0  0  0  0  0  0  0  0  0  0  0  0
  128.7083  121.1910   60.2414 H   0  0  0  0  0  0  0  0  0  0  0  0
  130.9702  121.0706   60.9556 H   0  0  0  0  0  0  0  0  0  0  0  0
  132.4460  128.6439   71.3292 H   0  0  0  0  0  0  0  0  0  0  0  0
  131.9293  127.8214   69.8182 H   0  0  0  0  0  0  0  0  0  0  0  0
  132.2337  129.5917   69.8182 H   0  0  0  0  0  0  0  0  0  0  0  0
  129.6052  129.3134   74.7898 H   0  0  0  0  0  0  0  0  0  0  0  0
  130.2447  130.0542   73.2835 H   0  0  0  0  0  0  0  0  0  0  0  0
  128.6275  129.2723   73.2835 H   0  0  0  0  0  0  0  0  0  0  0  0
  1  2  1  0
  2  3  1  0
  3  4  2  0
  4  5  1  0
  5  6  2  0
  6  7  1  0
  7  8  1  0
  8  9  1  0
  9 10  2  0
  9 11  1  0
 11 12  1  0
 12 13  1  0
 13 14  2  0
 14 15  1  0
 15 16  1  0
 15 17  2  0
 17 18  1  0
 18 19  1  0
 19 20  1  0
 19 21  1  0
 19 22  1  0
 18 23  2  0
 23 24  1  0
 24 25  3  0
  6 26  1  0
 26 27  1  0
 27 28  1  0
 26 29  2  0
 29 30  1  0
 30 31  1  0
 29  3  1  0
 23 13  1  0
  1 32  1  0
  1 33  1  0
  1 34  1  0
  4 35  1  0
  5 36  1  0
  7 37  1  0
  7 38  1  0
  8 39  1  0
 11 40  1  0
 11 41  1  0
 16 42  1  0
 16 43  1  0
 16 44  1  0
 17 45  1  0
 28 46  1  0
 28 47  1  0
 28 48  1  0
 31 49  1  0
 31 50  1  0
 31 51  1  0
M  END
>  <Binding energies>  (1) 
[-6.43]

>  <Ligand effiencies>  (1) 
[-0.2009375]

>  <Interactions>  (1) 
["V-B:PRO:540:CA:9854, V-B:ALA:541:CB:9863, V-A:LEU:475:CD2:4258, H-B:GLU:543:OE2:9881, V-B:ALA:541:CA:9861, H-A:GLY:454:N:4049, V-A:ILE:369:CD1:3238, V-A:ILE:369:CG2:3236, H-A:TYR:484:OH:4347, V-A:GLU:543:CB:4906, V-B:HIS:456:CE1:9041, V-B:GLU:543:CB:9877, V-A:HIS:456:CE1:4069, V-B:GLU:543:CG:9878, V-B:GLU:543:CD:9879, V-A:HIS:456:CD2:4067, V-B:PRO:540:C:9852, V-A:ARG:545:CG:4922, V-A:LEU:475:CG:4256, V-A:GLY:454:CA:4048, H-B:GLU:543:OE1:9880, H-B:LYS:547:NZ:9922, V-B:LYS:547:CE:9921, V-A:ILE:369:CB:3235, V-A:ILE:369:CG1:3237, H-A:LYS:547:NZ:4951, V-A:LYS:547:CE:4950, V-A:GLU:543:C:4902, V-A:ARG:545:CA:4919, V-A:GLY:544:C:4912, V-A:LEU:475:CB:4255"]

$$$$
2i_Grossjean_2025
     RDKit          3D

 32 33  0  0  0  0  0  0  0  0999 V2000
  128.8720  126.3470   67.6130 C   0  0  0  0  0  0  0  0  0  0  0  0
  129.2420  126.5920   69.0640 C   0  0  0  0  0  0  0  0  0  0  0  0
  130.1770  127.5590   69.4250 C   0  0  0  0  0  0  0  0  0  0  0  0
  130.4840  127.7480   70.7810 C   0  0  0  0  0  0  0  0  0  0  0  0
  131.5210  128.8210   71.1630 C   0  0  0  0  0  0  0  0  0  0  0  0
  130.9310  129.8020   71.8480 F   0  0  0  0  0  0  0  0  0  0  0  0
  132.4800  128.2830   71.9170 F   0  0  0  0  0  0  0  0  0  0  0  0
  132.1100  129.3720   70.0990 F   0  0  0  0  0  0  0  0  0  0  0  0
  129.8250  126.9420   71.7430 C   0  0  0  0  0  0  0  0  0  0  0  0
  130.1060  127.0990   73.1740 C   0  0  0  0  0  0  0  0  0  0  0  0
  130.3280  127.2230   74.3030 N   0  0  0  0  0  0  0  0  0  0  0  0
  128.8910  125.9830   71.2880 C   0  0  0  0  0  0  0  0  0  0  0  0
  128.0070  124.9080   72.4070 S   0  0  0  0  0  0  0  0  0  0  0  0
  129.0670  123.4760   72.7690 C   0  0  0  0  0  0  0  0  0  0  0  0
  128.2640  122.1820   72.9190 C   0  0  0  0  0  0  0  0  0  0  0  0
  127.5190  122.0490   73.8910 O   0  0  0  0  0  0  0  0  0  0  0  0
  128.4610  121.2530   71.9590 N   0  0  0  0  0  0  0  0  0  0  0  0
  127.8680  120.0040   71.8830 C   0  0  0  0  0  0  0  0  0  0  0  0
  127.4210  119.1520   72.9030 C   0  0  0  0  0  0  0  0  0  0  0  0
  126.9190  118.0530   72.2460 C   0  0  0  0  0  0  0  0  0  0  0  0
  127.0480  118.2370   70.9110 O   0  0  0  0  0  0  0  0  0  0  0  0
  127.6460  119.4800   70.6970 N   0  0  0  0  0  0  0  0  0  0  0  0
  128.6070  125.8160   69.9710 N   0  0  0  0  0  0  0  0  0  0  0  0
  127.9557  125.7403   67.5657 H   0  0  0  0  0  0  0  0  0  0  0  0
  128.7002  127.3104   67.1107 H   0  0  0  0  0  0  0  0  0  0  0  0
  129.6919  125.8127   67.1107 H   0  0  0  0  0  0  0  0  0  0  0  0
  130.6704  128.1691   68.6540 H   0  0  0  0  0  0  0  0  0  0  0  0
  129.7871  123.3521   71.9467 H   0  0  0  0  0  0  0  0  0  0  0  0
  129.5772  123.6680   73.7244 H   0  0  0  0  0  0  0  0  0  0  0  0
  129.1300  121.4640   71.2330 H   0  0  0  0  0  0  0  0  0  0  0  0
  127.4626  119.3245   73.9886 H   0  0  0  0  0  0  0  0  0  0  0  0
  126.4823  117.1660   72.7283 H   0  0  0  0  0  0  0  0  0  0  0  0
  1  2  1  0
  2  3  2  0
  3  4  1  0
  4  5  1  0
  5  6  1  0
  5  7  1  0
  5  8  1  0
  4  9  2  0
  9 10  1  0
 10 11  3  0
  9 12  1  0
 12 13  1  0
 13 14  1  0
 14 15  1  0
 15 16  2  0
 15 17  1  0
 17 18  1  0
 18 19  1  0
 19 20  2  0
 20 21  1  0
 21 22  1  0
 12 23  2  0
 23  2  1  0
 22 18  2  0
  1 24  1  0
  1 25  1  0
  1 26  1  0
  3 27  1  0
 14 28  1  0
 14 29  1  0
 17 30  1  0
 19 31  1  0
 20 32  1  0
M  END
>  <Binding energies>  (1) 
[-6.51]

>  <Ligand effiencies>  (1) 
[-0.27125]

>  <Interactions>  (1) 
["V-A:GLU:543:CB:4906, V-B:GLU:543:CB:9877, V-A:HIS:456:CE1:4069, V-B:GLU:543:CG:9878, V-B:GLU:543:CD:9879, V-A:HIS:456:CD2:4067, V-A:ARG:545:CG:4922, H-B:LYS:547:NZ:9922, H-B:GLU:543:O:9874, V-B:GLU:543:C:9873, V-A:HIS:456:CG:4065, V-B:GLY:544:CA:9885, V-A:TYR:484:CB:4340, H-A:LYS:547:NZ:4951, V-A:GLU:543:CA:4904, V-A:GLU:543:C:4902, V-A:ARG:545:CB:4921, V-A:ARG:545:CA:4919, V-A:GLY:544:C:4912, H-A:HIS:456:NE2:4070, V-A:ARG:545:C:4917, V-A:TYR:484:CG:4341, V-A:TYR:484:CD1:4342, H-A:TYR:484:N:4339, V-A:GLY:544:CA:4914"]

$$$$
2j_Grossjean_2025
     RDKit          3D

 32 33  0  0  0  0  0  0  0  0999 V2000
  132.5350  125.0000   58.5610 C   0  0  0  0  0  0  0  0  0  0  0  0
  132.6070  124.3440   59.9270 C   0  0  0  0  0  0  0  0  0  0  0  0
  132.7890  125.0930   61.0870 C   0  0  0  0  0  0  0  0  0  0  0  0
  132.8460  124.4410   62.3280 C   0  0  0  0  0  0  0  0  0  0  0  0
  133.0470  125.2850   63.6010 C   0  0  0  0  0  0  0  0  0  0  0  0
  134.3490  125.4250   63.8550 F   0  0  0  0  0  0  0  0  0  0  0  0
  132.5060  126.4930   63.4390 F   0  0  0  0  0  0  0  0  0  0  0  0
  132.4850  124.7350   64.6790 F   0  0  0  0  0  0  0  0  0  0  0  0
  132.7170  123.0300   62.3580 C   0  0  0  0  0  0  0  0  0  0  0  0
  132.7690  122.2960   63.6260 C   0  0  0  0  0  0  0  0  0  0  0  0
  132.8100  121.7180   64.6280 N   0  0  0  0  0  0  0  0  0  0  0  0
  132.5350  122.3480   61.1300 C   0  0  0  0  0  0  0  0  0  0  0  0
  132.3590  120.5720   61.0480 S   0  0  0  0  0  0  0  0  0  0  0  0
  130.5830  120.1650   61.1630 C   0  0  0  0  0  0  0  0  0  0  0  0
  129.6570  121.3700   61.3820 C   0  0  0  0  0  0  0  0  0  0  0  0
  129.7900  122.0940   62.3710 O   0  0  0  0  0  0  0  0  0  0  0  0
  128.7150  121.5410   60.4280 N   0  0  0  0  0  0  0  0  0  0  0  0
  127.7560  122.5440   60.3800 C   0  0  0  0  0  0  0  0  0  0  0  0
  127.1270  123.1090   61.3880 N   0  0  0  0  0  0  0  0  0  0  0  0
  126.2800  124.0320   60.9760 C   0  0  0  0  0  0  0  0  0  0  0  0
  126.2080  124.2320   59.6000 C   0  0  0  0  0  0  0  0  0  0  0  0
  127.3160  123.1460   58.8140 S   0  0  0  0  0  0  0  0  0  0  0  0
  132.4810  122.9980   59.9400 N   0  0  0  0  0  0  0  0  0  0  0  0
  132.4157  126.0868   58.6820 H   0  0  0  0  0  0  0  0  0  0  0  0
  133.4613  124.7924   58.0053 H   0  0  0  0  0  0  0  0  0  0  0  0
  131.6758  124.5964   58.0053 H   0  0  0  0  0  0  0  0  0  0  0  0
  132.8873  126.1872   61.0306 H   0  0  0  0  0  0  0  0  0  0  0  0
  130.2844  119.6702   60.2271 H   0  0  0  0  0  0  0  0  0  0  0  0
  130.4700  119.5237   62.0495 H   0  0  0  0  0  0  0  0  0  0  0  0
  128.6940  120.8760   59.6680 H   0  0  0  0  0  0  0  0  0  0  0  0
  125.6648  124.6115   61.6801 H   0  0  0  0  0  0  0  0  0  0  0  0
  125.5564  124.9586   59.0926 H   0  0  0  0  0  0  0  0  0  0  0  0
  1  2  1  0
  2  3  2  0
  3  4  1  0
  4  5  1  0
  5  6  1  0
  5  7  1  0
  5  8  1  0
  4  9  2  0
  9 10  1  0
 10 11  3  0
  9 12  1  0
 12 13  1  0
 13 14  1  0
 14 15  1  0
 15 16  2  0
 15 17  1  0
 17 18  1  0
 18 19  2  0
 19 20  1  0
 20 21  2  0
 21 22  1  0
 12 23  2  0
 23  2  1  0
 22 18  1  0
  1 24  1  0
  1 25  1  0
  1 26  1  0
  3 27  1  0
 14 28  1  0
 14 29  1  0
 17 30  1  0
 20 31  1  0
 21 32  1  0
M  END
>  <Binding energies>  (1) 
[-5.74]

>  <Ligand effiencies>  (1) 
[-0.23916666666666667]

>  <Interactions>  (1) 
["V-B:TYR:539:CE2:9847, V-B:PRO:540:CA:9854, V-B:TYR:539:CD2:9845, V-B:ALA:541:CB:9863, V-B:TYR:539:C:9838, V-A:LEU:475:CD2:4258, V-B:PRO:540:N:9855, H-B:TYR:539:O:9839, H-B:ALA:541:N:9862, H-A:GLY:454:N:4049, V-A:ASP:366:CG:3212, V-A:ASP:366:CB:3211, V-A:ASP:366:CA:3209, V-A:ILE:369:CG2:3236, H-A:TYR:484:OH:4347, V-A:ARG:545:CZ:4926, V-B:PRO:540:C:9852, V-A:GLY:454:CA:4048, V-A:GLY:453:C:4041, V-A:GLY:453:CA:4043"]

$$$$
2k_Grossjean_2025
     RDKit          3D

 50 50  0  0  0  0  0  0  0  0999 V2000
  123.8970  124.4260   59.3050 C   0  0  0  0  0  0  0  0  0  0  0  0
  123.9340  123.8240   60.5890 O   0  0  0  0  0  0  0  0  0  0  0  0
  124.7880  124.4960   61.5060 C   0  0  0  0  0  0  0  0  0  0  0  0
  125.4410  123.4770   62.4490 C   0  0  0  0  0  0  0  0  0  0  0  0
  126.7320  123.1510   61.9550 O   0  0  0  0  0  0  0  0  0  0  0  0
  127.7260  124.1320   62.2270 C   0  0  0  0  0  0  0  0  0  0  0  0
  129.0870  123.4300   62.3200 C   0  0  0  0  0  0  0  0  0  0  0  0
  130.0860  124.4310   62.4320 O   0  0  0  0  0  0  0  0  0  0  0  0
  131.3250  124.1210   61.8120 C   0  0  0  0  0  0  0  0  0  0  0  0
  132.4500  124.8910   62.5290 C   0  0  0  0  0  0  0  0  0  0  0  0
  132.0880  125.2950   63.8900 N   0  0  0  0  0  0  0  0  0  0  0  0
  132.9310  125.3560   64.9390 C   0  0  0  0  0  0  0  0  0  0  0  0
  134.1340  125.0990   64.8580 O   0  0  0  0  0  0  0  0  0  0  0  0
  132.2970  125.7520   66.2800 C   0  0  0  0  0  0  0  0  0  0  0  0
  130.5310  125.3250   66.4670 S   0  0  0  0  0  0  0  0  0  0  0  0
  129.5270  126.6580   65.8250 C   0  0  0  0  0  0  0  0  0  0  0  0
  129.5330  126.8030   64.4760 N   0  0  0  0  0  0  0  0  0  0  0  0
  128.7990  127.7930   63.9220 C   0  0  0  0  0  0  0  0  0  0  0  0
  128.8680  127.8960   62.4100 C   0  0  0  0  0  0  0  0  0  0  0  0
  128.0240  128.6680   64.6780 C   0  0  0  0  0  0  0  0  0  0  0  0
  127.9960  128.5320   66.0750 C   0  0  0  0  0  0  0  0  0  0  0  0
  127.1290  129.5050   66.8970 C   0  0  0  0  0  0  0  0  0  0  0  0
  126.0600  128.9160   67.4350 F   0  0  0  0  0  0  0  0  0  0  0  0
  127.8460  130.0230   67.8960 F   0  0  0  0  0  0  0  0  0  0  0  0
  126.6930  130.4960   66.1190 F   0  0  0  0  0  0  0  0  0  0  0  0
  128.7680  127.5020   66.6710 C   0  0  0  0  0  0  0  0  0  0  0  0
  128.7780  127.3160   68.1250 C   0  0  0  0  0  0  0  0  0  0  0  0
  128.7860  127.1700   69.2740 N   0  0  0  0  0  0  0  0  0  0  0  0
  123.8299  125.5185   59.4141 H   0  0  0  0  0  0  0  0  0  0  0  0
  124.8127  124.1682   58.7527 H   0  0  0  0  0  0  0  0  0  0  0  0
  123.0198  124.0580   58.7527 H   0  0  0  0  0  0  0  0  0  0  0  0
  125.5706  125.0331   60.9501 H   0  0  0  0  0  0  0  0  0  0  0  0
  124.1965  125.2110   62.0967 H   0  0  0  0  0  0  0  0  0  0  0  0
  125.5301  123.9107   63.4560 H   0  0  0  0  0  0  0  0  0  0  0  0
  124.8225  122.5688   62.5005 H   0  0  0  0  0  0  0  0  0  0  0  0
  127.7460  124.8752   61.4163 H   0  0  0  0  0  0  0  0  0  0  0  0
  127.5006  124.6460   63.1730 H   0  0  0  0  0  0  0  0  0  0  0  0
  129.1112  122.7769   63.2048 H   0  0  0  0  0  0  0  0  0  0  0  0
  129.2617  122.8119   61.4270 H   0  0  0  0  0  0  0  0  0  0  0  0
  131.5136  123.0397   61.8846 H   0  0  0  0  0  0  0  0  0  0  0  0
  131.2931  124.4110   60.7514 H   0  0  0  0  0  0  0  0  0  0  0  0
  133.3396  124.2460   62.5794 H   0  0  0  0  0  0  0  0  0  0  0  0
  132.6409  125.8082   61.9526 H   0  0  0  0  0  0  0  0  0  0  0  0
  131.1200  125.5380   64.0390 H   0  0  0  0  0  0  0  0  0  0  0  0
  132.8552  125.2466   67.0819 H   0  0  0  0  0  0  0  0  0  0  0  0
  132.3506  126.8496   66.3286 H   0  0  0  0  0  0  0  0  0  0  0  0
  129.4599  128.7796   62.1293 H   0  0  0  0  0  0  0  0  0  0  0  0
  129.3432  126.9917   62.0022 H   0  0  0  0  0  0  0  0  0  0  0  0
  127.8509  127.9914   62.0022 H   0  0  0  0  0  0  0  0  0  0  0  0
  127.4390  129.4586   64.1854 H   0  0  0  0  0  0  0  0  0  0  0  0
  1  2  1  0
  2  3  1  0
  3  4  1  0
  4  5  1  0
  5  6  1  0
  6  7  1  0
  7  8  1  0
  8  9  1  0
  9 10  1  0
 10 11  1  0
 11 12  1  0
 12 13  2  0
 12 14  1  0
 14 15  1  0
 15 16  1  0
 16 17  2  0
 17 18  1  0
 18 19  1  0
 18 20  2  0
 20 21  1  0
 21 22  1  0
 22 23  1  0
 22 24  1  0
 22 25  1  0
 21 26  2  0
 26 27  1  0
 27 28  3  0
 26 16  1  0
  1 29  1  0
  1 30  1  0
  1 31  1  0
  3 32  1  0
  3 33  1  0
  4 34  1  0
  4 35  1  0
  6 36  1  0
  6 37  1  0
  7 38  1  0
  7 39  1  0
  9 40  1  0
  9 41  1  0
 10 42  1  0
 10 43  1  0
 11 44  1  0
 14 45  1  0
 14 46  1  0
 19 47  1  0
 19 48  1  0
 19 49  1  0
 20 50  1  0
M  END
>  <Binding energies>  (1) 
[-4.63]

>  <Ligand effiencies>  (1) 
[-0.1596551724137931]

>  <Interactions>  (1) 
["V-B:PRO:540:CB:9856, V-B:ALA:541:CB:9863, V-B:ALA:541:CA:9861, H-B:ALA:541:N:9862, H-A:GLY:454:N:4049, H-A:ARG:545:NE:4924, H-A:ARG:545:NH1:4927, H-A:TYR:484:OH:4347, V-A:ARG:545:CZ:4926, V-B:LEU:363:CA:8156, V-A:GLU:543:CD:4908, V-A:GLU:543:CG:4907, V-A:GLU:543:CB:4906, V-B:HIS:456:CE1:9041, V-A:HIS:456:CE1:4069, V-B:GLU:543:CG:9878, V-B:TYR:484:CE1:9316, V-B:GLU:543:CD:9879, V-B:ASN:362:CB:8147, V-B:ARG:545:CG:9893, H-B:LEU:363:N:8157, V-B:ASP:366:CG:8184, V-B:ALA:541:C:9859, V-B:ASN:362:C:8143, V-B:TYR:484:CZ:9318"]

$$$$
3aa_Grossjean_2025
     RDKit          3D

 52 54  0  0  0  0  0  0  0  0999 V2000
  128.6830  123.4630   73.1350 C   0  0  0  0  0  0  0  0  0  0  0  0
  129.5370  124.4950   73.8790 C   0  0  0  0  0  0  0  0  0  0  0  0
  128.9260  125.7760   73.7790 O   0  0  0  0  0  0  0  0  0  0  0  0
  129.6070  126.8370   73.2750 C   0  0  0  0  0  0  0  0  0  0  0  0
  130.2570  127.6220   73.9720 O   0  0  0  0  0  0  0  0  0  0  0  0
  129.4790  126.9710   71.7840 C   0  0  0  0  0  0  0  0  0  0  0  0
  128.7000  126.0880   71.0230 C   0  0  0  0  0  0  0  0  0  0  0  0
  128.5990  126.2440   69.6420 C   0  0  0  0  0  0  0  0  0  0  0  0
  129.2670  127.2870   68.9980 C   0  0  0  0  0  0  0  0  0  0  0  0
  129.0950  127.3570   67.6010 N   0  0  0  0  0  0  0  0  0  0  0  0
  129.5930  126.5590   66.6310 C   0  0  0  0  0  0  0  0  0  0  0  0
  130.3400  125.5960   66.8110 O   0  0  0  0  0  0  0  0  0  0  0  0
  129.1820  126.9210   65.2040 C   0  0  0  0  0  0  0  0  0  0  0  0
  130.5510  126.6950   64.0280 S   0  0  0  0  0  0  0  0  0  0  0  0
  130.2240  125.1940   63.1310 C   0  0  0  0  0  0  0  0  0  0  0  0
  128.9350  125.0670   62.7360 N   0  0  0  0  0  0  0  0  0  0  0  0
  128.5490  123.9650   62.0430 C   0  0  0  0  0  0  0  0  0  0  0  0
  127.1090  123.9040   61.6290 C   0  0  0  0  0  0  0  0  0  0  0  0
  126.7250  124.2530   60.3250 C   0  0  0  0  0  0  0  0  0  0  0  0
  125.3890  124.1990   59.9330 C   0  0  0  0  0  0  0  0  0  0  0  0
  124.4190  123.7940   60.8440 C   0  0  0  0  0  0  0  0  0  0  0  0
  124.7740  123.4410   62.1410 C   0  0  0  0  0  0  0  0  0  0  0  0
  126.1100  123.4940   62.5290 C   0  0  0  0  0  0  0  0  0  0  0  0
  129.4670  122.9600   61.7210 C   0  0  0  0  0  0  0  0  0  0  0  0
  130.8040  123.0620   62.1340 C   0  0  0  0  0  0  0  0  0  0  0  0
  131.7820  121.9290   61.7700 C   0  0  0  0  0  0  0  0  0  0  0  0
  132.6110  121.6180   62.7690 F   0  0  0  0  0  0  0  0  0  0  0  0
  131.1080  120.8220   61.4540 F   0  0  0  0  0  0  0  0  0  0  0  0
  132.5290  122.2910   60.7260 F   0  0  0  0  0  0  0  0  0  0  0  0
  131.1980  124.2050   62.8710 C   0  0  0  0  0  0  0  0  0  0  0  0
  132.5670  124.3370   63.3780 C   0  0  0  0  0  0  0  0  0  0  0  0
  133.6490  124.4410   63.7780 N   0  0  0  0  0  0  0  0  0  0  0  0
  130.0590  128.1660   69.7520 C   0  0  0  0  0  0  0  0  0  0  0  0
  130.1600  128.0070   71.1300 C   0  0  0  0  0  0  0  0  0  0  0  0
  128.1576  122.8281   73.8636 H   0  0  0  0  0  0  0  0  0  0  0  0
  127.9472  123.9826   72.5036 H   0  0  0  0  0  0  0  0  0  0  0  0
  129.3311  122.8374   72.5036 H   0  0  0  0  0  0  0  0  0  0  0  0
  129.6181  124.2090   74.9381 H   0  0  0  0  0  0  0  0  0  0  0  0
  130.5412  124.5315   73.4314 H   0  0  0  0  0  0  0  0  0  0  0  0
  128.1644  125.2657   71.5199 H   0  0  0  0  0  0  0  0  0  0  0  0
  127.9891  125.5410   69.0557 H   0  0  0  0  0  0  0  0  0  0  0  0
  128.5560  128.1520   67.2900 H   0  0  0  0  0  0  0  0  0  0  0  0
  128.3428  126.2775   64.9012 H   0  0  0  0  0  0  0  0  0  0  0  0
  128.8919  127.9820   65.1908 H   0  0  0  0  0  0  0  0  0  0  0  0
  127.4896  124.5737   59.6021 H   0  0  0  0  0  0  0  0  0  0  0  0
  125.1026  124.4754   58.9075 H   0  0  0  0  0  0  0  0  0  0  0  0
  123.3638  123.7527   60.5361 H   0  0  0  0  0  0  0  0  0  0  0  0
  124.0029  123.1213   62.8573 H   0  0  0  0  0  0  0  0  0  0  0  0
  126.3880  123.2109   63.5550 H   0  0  0  0  0  0  0  0  0  0  0  0
  129.1389  122.0849   61.1408 H   0  0  0  0  0  0  0  0  0  0  0  0
  130.6011  128.9824   69.2524 H   0  0  0  0  0  0  0  0  0  0  0  0
  130.7815  128.7023   71.7134 H   0  0  0  0  0  0  0  0  0  0  0  0
  1  2  1  0
  2  3  1  0
  3  4  1  0
  4  5  2  0
  4  6  1  0
  6  7  2  0
  7  8  1  0
  8  9  2  0
  9 10  1  0
 10 11  1  0
 11 12  2  0
 11 13  1  0
 13 14  1  0
 14 15  1  0
 15 16  2  0
 16 17  1  0
 17 18  1  0
 18 19  2  0
 19 20  1  0
 20 21  2  0
 21 22  1  0
 22 23  2  0
 17 24  2  0
 24 25  1  0
 25 26  1  0
 26 27  1  0
 26 28  1  0
 26 29  1  0
 25 30  2  0
 30 31  1  0
 31 32  3  0
  9 33  1  0
 33 34  2  0
 34  6  1  0
 30 15  1  0
 23 18  1  0
  1 35  1  0
  1 36  1  0
  1 37  1  0
  2 38  1  0
  2 39  1  0
  7 40  1  0
  8 41  1  0
 10 42  1  0
 13 43  1  0
 13 44  1  0
 19 45  1  0
 20 46  1  0
 21 47  1  0
 22 48  1  0
 23 49  1  0
 24 50  1  0
 33 51  1  0
 34 52  1  0
M  END
>  <Binding energies>  (1) 
[-8.21]

>  <Ligand effiencies>  (1) 
[-0.2345714285714286]

>  <Interactions>  (1) 
["V-B:TYR:539:CE2:9847, V-B:PRO:540:CA:9854, V-B:PRO:540:CB:9856, V-B:ALA:541:CB:9863, V-A:LEU:475:CD2:4258, V-B:ALA:541:CA:9861, H-A:GLY:454:N:4049, V-A:ILE:369:CG2:3236, H-A:TYR:484:OH:4347, H-A:GLU:543:OE2:4910, V-A:GLU:543:CD:4908, V-A:GLU:543:CB:4906, V-B:HIS:456:CE1:9041, V-B:GLU:543:CB:9877, V-A:HIS:456:CE1:4069, V-B:GLU:543:CG:9878, V-B:GLU:543:CD:9879, V-A:HIS:456:CD2:4067, V-B:ASN:362:CB:8147, H-B:GLU:543:OE1:9880, H-B:LYS:547:NZ:9922, V-B:LYS:547:CE:9921, V-B:ASN:362:C:8143, H-A:LYS:547:NZ:4951"]

$$$$
3ab_Grossjean_2025
     RDKit          3D

 49 51  0  0  0  0  0  0  0  0999 V2000
  129.8370  124.5790   74.3460 C   0  0  0  0  0  0  0  0  0  0  0  0
  129.0830  125.7600   74.1090 O   0  0  0  0  0  0  0  0  0  0  0  0
  129.6210  126.8080   73.4350 C   0  0  0  0  0  0  0  0  0  0  0  0
  130.2580  127.7140   73.9800 O   0  0  0  0  0  0  0  0  0  0  0  0
  129.3680  126.7550   71.9560 C   0  0  0  0  0  0  0  0  0  0  0  0
  128.5490  125.7730   71.3770 C   0  0  0  0  0  0  0  0  0  0  0  0
  128.3310  125.7480   70.0020 C   0  0  0  0  0  0  0  0  0  0  0  0
  128.9320  126.7120   69.1770 C   0  0  0  0  0  0  0  0  0  0  0  0
  128.7770  126.7860   67.7800 N   0  0  0  0  0  0  0  0  0  0  0  0
  129.6810  126.5940   66.7960 C   0  0  0  0  0  0  0  0  0  0  0  0
  130.8700  126.3180   66.9610 O   0  0  0  0  0  0  0  0  0  0  0  0
  129.1430  126.7450   65.3720 C   0  0  0  0  0  0  0  0  0  0  0  0
  130.4580  126.6050   64.1240 S   0  0  0  0  0  0  0  0  0  0  0  0
  130.1590  125.1130   63.1990 C   0  0  0  0  0  0  0  0  0  0  0  0
  128.8730  124.9710   62.8010 N   0  0  0  0  0  0  0  0  0  0  0  0
  128.5040  123.8800   62.0810 C   0  0  0  0  0  0  0  0  0  0  0  0
  127.0620  123.8000   61.6760 C   0  0  0  0  0  0  0  0  0  0  0  0
  126.0670  123.5000   62.6200 C   0  0  0  0  0  0  0  0  0  0  0  0
  124.7260  123.4250   62.2500 C   0  0  0  0  0  0  0  0  0  0  0  0
  124.3620  123.6480   60.9260 C   0  0  0  0  0  0  0  0  0  0  0  0
  125.3290  123.9420   59.9700 C   0  0  0  0  0  0  0  0  0  0  0  0
  126.6670  124.0160   60.3440 C   0  0  0  0  0  0  0  0  0  0  0  0
  129.4350  122.8850   61.7610 C   0  0  0  0  0  0  0  0  0  0  0  0
  130.7690  123.0000   62.1790 C   0  0  0  0  0  0  0  0  0  0  0  0
  131.7610  121.8800   61.8110 C   0  0  0  0  0  0  0  0  0  0  0  0
  131.1530  120.7370   61.4830 F   0  0  0  0  0  0  0  0  0  0  0  0
  132.5060  122.2490   60.7680 F   0  0  0  0  0  0  0  0  0  0  0  0
  132.5640  121.6250   62.8460 F   0  0  0  0  0  0  0  0  0  0  0  0
  131.1490  124.1410   62.9280 C   0  0  0  0  0  0  0  0  0  0  0  0
  132.5150  124.2830   63.4380 C   0  0  0  0  0  0  0  0  0  0  0  0
  133.5950  124.3920   63.8390 N   0  0  0  0  0  0  0  0  0  0  0  0
  129.7420  127.6940   69.7510 C   0  0  0  0  0  0  0  0  0  0  0  0
  129.9600  127.7150   71.1250 C   0  0  0  0  0  0  0  0  0  0  0  0
  129.9385  124.4201   75.4297 H   0  0  0  0  0  0  0  0  0  0  0  0
  129.3211  123.7181   73.8959 H   0  0  0  0  0  0  0  0  0  0  0  0
  130.8351  124.6847   73.8959 H   0  0  0  0  0  0  0  0  0  0  0  0
  128.0740  125.0146   72.0168 H   0  0  0  0  0  0  0  0  0  0  0  0
  127.6873  124.9722   69.5617 H   0  0  0  0  0  0  0  0  0  0  0  0
  127.8510  127.0580   67.4850 H   0  0  0  0  0  0  0  0  0  0  0  0
  128.3963  125.9581   65.1899 H   0  0  0  0  0  0  0  0  0  0  0  0
  128.6977  127.7469   65.2832 H   0  0  0  0  0  0  0  0  0  0  0  0
  126.3506  123.3215   63.6677 H   0  0  0  0  0  0  0  0  0  0  0  0
  123.9580  123.1904   63.0018 H   0  0  0  0  0  0  0  0  0  0  0  0
  123.3032  123.5915   60.6332 H   0  0  0  0  0  0  0  0  0  0  0  0
  125.0372  124.1151   58.9236 H   0  0  0  0  0  0  0  0  0  0  0  0
  127.4287  124.2474   59.5848 H   0  0  0  0  0  0  0  0  0  0  0  0
  129.1186  122.0074   61.1781 H   0  0  0  0  0  0  0  0  0  0  0  0
  130.2112  128.4567   69.1121 H   0  0  0  0  0  0  0  0  0  0  0  0
  130.6031  128.4926   71.5629 H   0  0  0  0  0  0  0  0  0  0  0  0
  1  2  1  0
  2  3  1  0
  3  4  2  0
  3  5  1  0
  5  6  2  0
  6  7  1  0
  7  8  2  0
  8  9  1  0
  9 10  1  0
 10 11  2  0
 10 12  1  0
 12 13  1  0
 13 14  1  0
 14 15  2  0
 15 16  1  0
 16 17  1  0
 17 18  2  0
 18 19  1  0
 19 20  2  0
 20 21  1  0
 21 22  2  0
 16 23  2  0
 23 24  1  0
 24 25  1  0
 25 26  1  0
 25 27  1  0
 25 28  1  0
 24 29  2  0
 29 30  1  0
 30 31  3  0
  8 32  1  0
 32 33  2  0
 33  5  1  0
 29 14  1  0
 22 17  1  0
  1 34  1  0
  1 35  1  0
  1 36  1  0
  6 37  1  0
  7 38  1  0
  9 39  1  0
 12 40  1  0
 12 41  1  0
 18 42  1  0
 19 43  1  0
 20 44  1  0
 21 45  1  0
 22 46  1  0
 23 47  1  0
 32 48  1  0
 33 49  1  0
M  END
>  <Binding energies>  (1) 
[-8.16]

>  <Ligand effiencies>  (1) 
[-0.24]

>  <Interactions>  (1) 
["V-B:TYR:539:CE2:9847, V-B:PRO:540:CA:9854, V-B:PRO:540:CB:9856, V-B:ALA:541:CB:9863, V-A:LEU:475:CD2:4258, V-B:ALA:541:CA:9861, H-A:GLY:454:N:4049, V-A:ILE:369:CG2:3236, V-A:GLU:543:CD:4908, V-B:HIS:456:CE1:9041, V-B:GLU:543:CB:9877, V-A:HIS:456:CE1:4069, V-B:GLU:543:CG:9878, V-B:GLU:543:CD:9879, V-A:HIS:456:CD2:4067, V-B:ASN:362:CB:8147, H-B:GLU:543:OE1:9880, V-B:ALA:541:C:9859, H-B:LYS:547:NZ:9922, V-B:LYS:547:CE:9921, V-B:GLU:543:C:9873, V-B:ASN:362:C:8143, H-A:LYS:547:NZ:4951, V-B:ASN:362:CG:8148"]

$$$$
3ac_Grossjean_2025
     RDKit          3D

 47 49  0  0  0  0  0  0  0  0999 V2000
  129.5060  129.5770   73.9900 C   0  0  0  0  0  0  0  0  0  0  0  0
  130.5740  128.7790   73.4890 O   0  0  0  0  0  0  0  0  0  0  0  0
  130.5910  128.4360   72.1510 C   0  0  0  0  0  0  0  0  0  0  0  0
  129.4360  127.8360   71.6480 C   0  0  0  0  0  0  0  0  0  0  0  0
  129.3580  127.4600   70.3100 C   0  0  0  0  0  0  0  0  0  0  0  0
  130.4420  127.6700   69.4560 C   0  0  0  0  0  0  0  0  0  0  0  0
  130.2610  127.2750   68.1170 N   0  0  0  0  0  0  0  0  0  0  0  0
  129.6660  126.1660   67.6290 C   0  0  0  0  0  0  0  0  0  0  0  0
  129.1190  125.2950   68.3080 O   0  0  0  0  0  0  0  0  0  0  0  0
  129.6910  126.0180   66.1070 C   0  0  0  0  0  0  0  0  0  0  0  0
  130.2290  124.3610   65.5850 S   0  0  0  0  0  0  0  0  0  0  0  0
  130.0800  124.2440   63.8130 C   0  0  0  0  0  0  0  0  0  0  0  0
  128.7980  124.1340   63.3910 N   0  0  0  0  0  0  0  0  0  0  0  0
  128.5270  124.0420   62.0640 C   0  0  0  0  0  0  0  0  0  0  0  0
  127.0820  123.9160   61.6820 C   0  0  0  0  0  0  0  0  0  0  0  0
  126.1260  123.4860   62.6170 C   0  0  0  0  0  0  0  0  0  0  0  0
  124.7830  123.3720   62.2710 C   0  0  0  0  0  0  0  0  0  0  0  0
  124.3750  123.6860   60.9780 C   0  0  0  0  0  0  0  0  0  0  0  0
  125.3010  124.1100   60.0310 C   0  0  0  0  0  0  0  0  0  0  0  0
  126.6440  124.2220   60.3820 C   0  0  0  0  0  0  0  0  0  0  0  0
  129.5590  124.0410   61.1210 C   0  0  0  0  0  0  0  0  0  0  0  0
  130.8970  124.1310   61.5310 C   0  0  0  0  0  0  0  0  0  0  0  0
  132.0040  124.1210   60.4590 C   0  0  0  0  0  0  0  0  0  0  0  0
  132.8780  123.1270   60.6260 F   0  0  0  0  0  0  0  0  0  0  0  0
  131.4690  123.9780   59.2450 F   0  0  0  0  0  0  0  0  0  0  0  0
  132.6830  125.2680   60.4990 F   0  0  0  0  0  0  0  0  0  0  0  0
  131.1750  124.2210   62.9180 C   0  0  0  0  0  0  0  0  0  0  0  0
  132.5580  124.2390   63.3990 C   0  0  0  0  0  0  0  0  0  0  0  0
  133.6520  124.2530   63.7790 N   0  0  0  0  0  0  0  0  0  0  0  0
  131.6050  128.2790   69.9520 C   0  0  0  0  0  0  0  0  0  0  0  0
  131.6790  128.6550   71.2910 C   0  0  0  0  0  0  0  0  0  0  0  0
  129.5233  129.5641   75.0898 H   0  0  0  0  0  0  0  0  0  0  0  0
  129.6225  130.6111   73.6336 H   0  0  0  0  0  0  0  0  0  0  0  0
  128.5473  129.1721   73.6336 H   0  0  0  0  0  0  0  0  0  0  0  0
  128.5794  127.6585   72.3148 H   0  0  0  0  0  0  0  0  0  0  0  0
  128.4385  126.9956   69.9242 H   0  0  0  0  0  0  0  0  0  0  0  0
  130.5840  127.9470   67.4360 H   0  0  0  0  0  0  0  0  0  0  0  0
  128.6789  126.2008   65.7169 H   0  0  0  0  0  0  0  0  0  0  0  0
  130.4119  126.7474   65.7092 H   0  0  0  0  0  0  0  0  0  0  0  0
  126.4443  123.2352   63.6397 H   0  0  0  0  0  0  0  0  0  0  0  0
  124.0472  123.0352   63.0161 H   0  0  0  0  0  0  0  0  0  0  0  0
  123.3135  123.5983   60.7034 H   0  0  0  0  0  0  0  0  0  0  0  0
  124.9743  124.3557   59.0098 H   0  0  0  0  0  0  0  0  0  0  0  0
  127.3739  124.5554   59.6296 H   0  0  0  0  0  0  0  0  0  0  0  0
  129.3198  123.9691   60.0497 H   0  0  0  0  0  0  0  0  0  0  0  0
  132.4590  128.4596   69.2826 H   0  0  0  0  0  0  0  0  0  0  0  0
  132.5950  129.1262   71.6769 H   0  0  0  0  0  0  0  0  0  0  0  0
  1  2  1  0
  2  3  1  0
  3  4  2  0
  4  5  1  0
  5  6  2  0
  6  7  1  0
  7  8  1  0
  8  9  2  0
  8 10  1  0
 10 11  1  0
 11 12  1  0
 12 13  2  0
 13 14  1  0
 14 15  1  0
 15 16  2  0
 16 17  1  0
 17 18  2  0
 18 19  1  0
 19 20  2  0
 14 21  2  0
 21 22  1  0
 22 23  1  0
 23 24  1  0
 23 25  1  0
 23 26  1  0
 22 27  2  0
 27 28  1  0
 28 29  3  0
  6 30  1  0
 30 31  2  0
 31  3  1  0
 27 12  1  0
 20 15  1  0
  1 32  1  0
  1 33  1  0
  1 34  1  0
  4 35  1  0
  5 36  1  0
  7 37  1  0
 10 38  1  0
 10 39  1  0
 16 40  1  0
 17 41  1  0
 18 42  1  0
 19 43  1  0
 20 44  1  0
 21 45  1  0
 30 46  1  0
 31 47  1  0
M  END
>  <Binding energies>  (1) 
[-7.94]

>  <Ligand effiencies>  (1) 
[-0.248125]

>  <Interactions>  (1) 
["V-B:TYR:539:CE2:9847, V-B:PRO:540:CA:9854, V-B:PRO:540:CB:9856, V-B:ALA:541:CB:9863, V-B:ALA:541:CA:9861, V-B:TYR:539:CZ:9848, H-A:GLY:454:N:4049, V-A:ASP:366:CG:3212, V-A:ILE:369:CD1:3238, V-A:ASP:366:CB:3211, V-A:ILE:369:CG2:3236, H-A:TYR:484:OH:4347, H-A:GLU:543:OE2:4910, V-A:GLU:543:CD:4908, V-A:GLU:543:CB:4906, V-B:HIS:456:CE1:9041, V-B:GLU:543:CB:9877, V-A:HIS:456:CE1:4069, V-B:GLU:543:CG:9878, V-B:GLU:543:CD:9879, V-B:ASN:362:CB:8147, H-A:GLU:543:OE1:4909, V-A:ARG:545:CG:4922, V-B:ALA:541:C:9859, V-B:ASN:362:C:8143, V-A:ILE:369:CB:3235, H-A:LYS:547:NZ:4951, V-A:LYS:547:CE:4950, V-A:ARG:545:CA:4919, V-A:GLY:544:C:4912"]

$$$$
3ad_Grossjean_2025
     RDKit          3D

 43 45  0  0  0  0  0  0  0  0999 V2000
  129.4910  127.2950   63.0110 N   0  0  0  0  0  0  0  0  0  0  0  0
  129.3700  127.2220   64.1600 C   0  0  0  0  0  0  0  0  0  0  0  0
  129.2130  127.1330   65.6150 C   0  0  0  0  0  0  0  0  0  0  0  0
  128.3850  128.0460   66.3110 C   0  0  0  0  0  0  0  0  0  0  0  0
  127.5730  129.1450   65.5990 C   0  0  0  0  0  0  0  0  0  0  0  0
  126.6560  128.6520   64.7640 F   0  0  0  0  0  0  0  0  0  0  0  0
  126.9370  129.8960   66.4990 F   0  0  0  0  0  0  0  0  0  0  0  0
  128.3860  129.9230   64.8820 F   0  0  0  0  0  0  0  0  0  0  0  0
  128.3060  127.9470   67.7090 C   0  0  0  0  0  0  0  0  0  0  0  0
  129.0340  126.9670   68.3910 C   0  0  0  0  0  0  0  0  0  0  0  0
  128.9980  126.8260   69.8840 C   0  0  0  0  0  0  0  0  0  0  0  0
  128.3280  125.7500   70.4870 C   0  0  0  0  0  0  0  0  0  0  0  0
  128.2910  125.6130   71.8720 C   0  0  0  0  0  0  0  0  0  0  0  0
  128.9280  126.5540   72.6750 C   0  0  0  0  0  0  0  0  0  0  0  0
  129.6010  127.6270   72.1030 C   0  0  0  0  0  0  0  0  0  0  0  0
  129.6360  127.7600   70.7170 C   0  0  0  0  0  0  0  0  0  0  0  0
  129.8310  126.0980   67.7190 N   0  0  0  0  0  0  0  0  0  0  0  0
  129.9080  126.1610   66.3690 C   0  0  0  0  0  0  0  0  0  0  0  0
  130.9880  124.9390   65.6580 S   0  0  0  0  0  0  0  0  0  0  0  0
  132.5760  125.7550   65.3170 C   0  0  0  0  0  0  0  0  0  0  0  0
  133.0870  125.4580   63.9050 C   0  0  0  0  0  0  0  0  0  0  0  0
  134.2160  124.9870   63.7650 O   0  0  0  0  0  0  0  0  0  0  0  0
  132.2280  125.7490   62.9050 N   0  0  0  0  0  0  0  0  0  0  0  0
  132.3760  125.5870   61.5150 C   0  0  0  0  0  0  0  0  0  0  0  0
  131.5870  126.4240   60.7200 C   0  0  0  0  0  0  0  0  0  0  0  0
  131.6530  126.3440   59.3320 C   0  0  0  0  0  0  0  0  0  0  0  0
  132.5070  125.4220   58.7340 C   0  0  0  0  0  0  0  0  0  0  0  0
  133.2940  124.5780   59.5130 C   0  0  0  0  0  0  0  0  0  0  0  0
  133.2310  124.6540   60.9020 C   0  0  0  0  0  0  0  0  0  0  0  0
  127.6677  128.6444   68.2713 H   0  0  0  0  0  0  0  0  0  0  0  0
  127.8243  125.0034   69.8554 H   0  0  0  0  0  0  0  0  0  0  0  0
  127.7606  124.7647   72.3293 H   0  0  0  0  0  0  0  0  0  0  0  0
  128.8987  126.4480   73.7695 H   0  0  0  0  0  0  0  0  0  0  0  0
  130.1038  128.3679   72.7420 H   0  0  0  0  0  0  0  0  0  0  0  0
  130.1714  128.6094   70.2678 H   0  0  0  0  0  0  0  0  0  0  0  0
  132.4463  126.8419   65.4255 H   0  0  0  0  0  0  0  0  0  0  0  0
  133.3158  125.3668   66.0326 H   0  0  0  0  0  0  0  0  0  0  0  0
  131.3580  126.1810   63.1780 H   0  0  0  0  0  0  0  0  0  0  0  0
  130.9102  127.1499   61.1943 H   0  0  0  0  0  0  0  0  0  0  0  0
  131.0329  127.0066   58.7104 H   0  0  0  0  0  0  0  0  0  0  0  0
  132.5606  125.3596   57.6371 H   0  0  0  0  0  0  0  0  0  0  0  0
  133.9652  123.8516   59.0315 H   0  0  0  0  0  0  0  0  0  0  0  0
  133.8492  123.9851   61.5188 H   0  0  0  0  0  0  0  0  0  0  0  0
  1  2  3  0
  2  3  1  0
  3  4  2  0
  4  5  1  0
  5  6  1  0
  5  7  1  0
  5  8  1  0
  4  9  1  0
  9 10  2  0
 10 11  1  0
 11 12  2  0
 12 13  1  0
 13 14  2  0
 14 15  1  0
 15 16  2  0
 10 17  1  0
 17 18  2  0
 18 19  1  0
 19 20  1  0
 20 21  1  0
 21 22  2  0
 21 23  1  0
 23 24  1  0
 24 25  2  0
 25 26  1  0
 26 27  2  0
 27 28  1  0
 28 29  2  0
 18  3  1  0
 29 24  1  0
 16 11  1  0
  9 30  1  0
 12 31  1  0
 13 32  1  0
 14 33  1  0
 15 34  1  0
 16 35  1  0
 20 36  1  0
 20 37  1  0
 23 38  1  0
 25 39  1  0
 26 40  1  0
 27 41  1  0
 28 42  1  0
 29 43  1  0
M  END
>  <Binding energies>  (1) 
[-6.94]

>  <Ligand effiencies>  (1) 
[-0.23133333333333334]

>  <Interactions>  (1) 
["H-A:GLY:454:N:4049, H-A:ARG:545:NH1:4927, V-A:ASP:366:CG:3212, V-A:ILE:369:CD1:3238, V-A:ASP:366:CB:3211, V-A:ASP:366:CA:3209, V-A:ILE:369:CG2:3236, H-A:TYR:484:OH:4347, V-A:ARG:545:CZ:4926, V-A:GLU:543:CD:4908, V-A:GLU:543:CG:4907, V-B:HIS:456:CE1:9041, V-B:GLU:543:CB:9877, V-A:HIS:456:CE1:4069, V-B:GLU:543:CG:9878, V-B:HIS:456:CD2:9039, V-B:GLU:543:CD:9879, V-B:GLU:543:C:9873, V-A:ILE:369:CB:3235"]

$$$$
3af_Grossjean_2025
     RDKit          3D

 42 44  0  0  0  0  0  0  0  0999 V2000
  129.6110  127.2640   62.9790 N   0  0  0  0  0  0  0  0  0  0  0  0
  129.4620  127.1900   64.1240 C   0  0  0  0  0  0  0  0  0  0  0  0
  129.2720  127.0990   65.5750 C   0  0  0  0  0  0  0  0  0  0  0  0
  128.4270  128.0120   66.2510 C   0  0  0  0  0  0  0  0  0  0  0  0
  127.6280  129.1070   65.5180 C   0  0  0  0  0  0  0  0  0  0  0  0
  126.7390  128.6100   64.6550 F   0  0  0  0  0  0  0  0  0  0  0  0
  126.9590  129.8500   66.4010 F   0  0  0  0  0  0  0  0  0  0  0  0
  128.4550  129.8930   64.8280 F   0  0  0  0  0  0  0  0  0  0  0  0
  128.3200  127.9180   67.6480 C   0  0  0  0  0  0  0  0  0  0  0  0
  129.0380  126.9430   68.3480 C   0  0  0  0  0  0  0  0  0  0  0  0
  128.9760  126.8110   69.8400 C   0  0  0  0  0  0  0  0  0  0  0  0
  128.2950  125.7380   70.4380 C   0  0  0  0  0  0  0  0  0  0  0  0
  128.2360  125.6090   71.8230 C   0  0  0  0  0  0  0  0  0  0  0  0
  128.8590  126.5530   72.6310 C   0  0  0  0  0  0  0  0  0  0  0  0
  129.5420  127.6240   72.0650 C   0  0  0  0  0  0  0  0  0  0  0  0
  129.6000  127.7500   70.6790 C   0  0  0  0  0  0  0  0  0  0  0  0
  129.8500  126.0730   67.6950 N   0  0  0  0  0  0  0  0  0  0  0  0
  129.9520  126.1290   66.3450 C   0  0  0  0  0  0  0  0  0  0  0  0
  131.0500  124.8990   65.6700 S   0  0  0  0  0  0  0  0  0  0  0  0
  132.6550  125.6930   65.3510 C   0  0  0  0  0  0  0  0  0  0  0  0
  133.1590  125.4090   63.9360 C   0  0  0  0  0  0  0  0  0  0  0  0
  134.3090  124.9990   63.7810 O   0  0  0  0  0  0  0  0  0  0  0  0
  132.2710  125.6490   62.9470 N   0  0  0  0  0  0  0  0  0  0  0  0
  132.4170  125.5010   61.5540 C   0  0  0  0  0  0  0  0  0  0  0  0
  131.7300  126.2400   60.5730 C   0  0  0  0  0  0  0  0  0  0  0  0
  131.9720  125.9870   59.2210 C   0  0  0  0  0  0  0  0  0  0  0  0
  132.8970  124.9980   58.8820 C   0  0  0  0  0  0  0  0  0  0  0  0
  133.5720  124.2730   59.8070 N   0  0  0  0  0  0  0  0  0  0  0  0
  133.3260  124.5310   61.1160 C   0  0  0  0  0  0  0  0  0  0  0  0
  127.6679  128.6150   68.1948 H   0  0  0  0  0  0  0  0  0  0  0  0
  127.8009  124.9883   69.8025 H   0  0  0  0  0  0  0  0  0  0  0  0
  127.6983  124.7631   72.2762 H   0  0  0  0  0  0  0  0  0  0  0  0
  128.8115  126.4522   73.7253 H   0  0  0  0  0  0  0  0  0  0  0  0
  130.0340  128.3680   72.7087 H   0  0  0  0  0  0  0  0  0  0  0  0
  130.1425  128.5974   70.2344 H   0  0  0  0  0  0  0  0  0  0  0  0
  132.5457  126.7801   65.4783 H   0  0  0  0  0  0  0  0  0  0  0  0
  133.3864  125.2825   66.0627 H   0  0  0  0  0  0  0  0  0  0  0  0
  131.3610  125.9770   63.2360 H   0  0  0  0  0  0  0  0  0  0  0  0
  131.0059  127.0131   60.8696 H   0  0  0  0  0  0  0  0  0  0  0  0
  131.4450  126.5548   58.4401 H   0  0  0  0  0  0  0  0  0  0  0  0
  133.0864  124.7983   57.8170 H   0  0  0  0  0  0  0  0  0  0  0  0
  133.8697  123.9470   61.8732 H   0  0  0  0  0  0  0  0  0  0  0  0
  1  2  3  0
  2  3  1  0
  3  4  2  0
  4  5  1  0
  5  6  1  0
  5  7  1  0
  5  8  1  0
  4  9  1  0
  9 10  2  0
 10 11  1  0
 11 12  2  0
 12 13  1  0
 13 14  2  0
 14 15  1  0
 15 16  2  0
 10 17  1  0
 17 18  2  0
 18 19  1  0
 19 20  1  0
 20 21  1  0
 21 22  2  0
 21 23  1  0
 23 24  1  0
 24 25  2  0
 25 26  1  0
 26 27  2  0
 27 28  1  0
 28 29  2  0
 18  3  1  0
 29 24  1  0
 16 11  1  0
  9 30  1  0
 12 31  1  0
 13 32  1  0
 14 33  1  0
 15 34  1  0
 16 35  1  0
 20 36  1  0
 20 37  1  0
 23 38  1  0
 25 39  1  0
 26 40  1  0
 27 41  1  0
 29 42  1  0
M  END
>  <Binding energies>  (1) 
[-6.67]

>  <Ligand effiencies>  (1) 
[-0.22233333333333333]

>  <Interactions>  (1) 
["H-A:GLY:454:N:4049, H-A:ARG:545:NH1:4927, V-A:ASP:366:CG:3212, V-A:ILE:369:CD1:3238, V-A:ASP:366:CB:3211, V-A:ASP:366:CA:3209, V-A:ILE:369:CG2:3236, H-A:TYR:484:OH:4347, V-A:ARG:545:CZ:4926, V-A:GLU:543:CD:4908, V-A:GLU:543:CG:4907, V-B:HIS:456:CE1:9041, V-B:GLU:543:CB:9877, V-A:HIS:456:CE1:4069, V-B:GLU:543:CG:9878, V-B:HIS:456:CD2:9039, V-A:ASP:366:C:3207, V-B:GLU:543:CD:9879, V-B:GLU:543:C:9873"]

$$$$
3ag_Grossjean_2025
     RDKit          3D

 46 48  0  0  0  0  0  0  0  0999 V2000
  124.0560  124.4500   58.4330 N   0  0  0  0  0  0  0  0  0  0  0  0
  124.9810  124.1340   59.0530 C   0  0  0  0  0  0  0  0  0  0  0  0
  126.1500  123.7340   59.8410 C   0  0  0  0  0  0  0  0  0  0  0  0
  126.0480  123.5410   61.2410 C   0  0  0  0  0  0  0  0  0  0  0  0
  124.7160  123.6770   62.0040 C   0  0  0  0  0  0  0  0  0  0  0  0
  124.8560  123.5180   63.3220 F   0  0  0  0  0  0  0  0  0  0  0  0
  124.1970  124.8890   61.7990 F   0  0  0  0  0  0  0  0  0  0  0  0
  123.8470  122.7580   61.5820 F   0  0  0  0  0  0  0  0  0  0  0  0
  127.2070  123.2110   61.9590 C   0  0  0  0  0  0  0  0  0  0  0  0
  128.4360  123.0890   61.3010 C   0  0  0  0  0  0  0  0  0  0  0  0
  129.7050  122.7420   62.0180 C   0  0  0  0  0  0  0  0  0  0  0  0
  129.8920  123.1050   63.3610 C   0  0  0  0  0  0  0  0  0  0  0  0
  131.0680  122.7860   64.0340 C   0  0  0  0  0  0  0  0  0  0  0  0
  132.0770  122.0950   63.3690 C   0  0  0  0  0  0  0  0  0  0  0  0
  131.9180  121.7260   62.0370 C   0  0  0  0  0  0  0  0  0  0  0  0
  130.7410  122.0480   61.3690 C   0  0  0  0  0  0  0  0  0  0  0  0
  128.5270  123.2630   59.9570 N   0  0  0  0  0  0  0  0  0  0  0  0
  127.4170  123.5620   59.2410 C   0  0  0  0  0  0  0  0  0  0  0  0
  127.7240  123.7500   57.4980 S   0  0  0  0  0  0  0  0  0  0  0  0
  128.4400  125.4030   57.2500 C   0  0  0  0  0  0  0  0  0  0  0  0
  129.9690  125.3780   57.2630 C   0  0  0  0  0  0  0  0  0  0  0  0
  130.5990  125.7540   56.2730 O   0  0  0  0  0  0  0  0  0  0  0  0
  130.5500  124.9400   58.3940 N   0  0  0  0  0  0  0  0  0  0  0  0
  131.9900  124.8670   58.6360 C   0  0  0  0  0  0  0  0  0  0  0  0
  132.3830  125.0180   60.1010 C   0  0  0  0  0  0  0  0  0  0  0  0
  133.5850  124.4700   60.5580 C   0  0  0  0  0  0  0  0  0  0  0  0
  133.9620  124.6310   61.8880 C   0  0  0  0  0  0  0  0  0  0  0  0
  133.1410  125.3490   62.7560 C   0  0  0  0  0  0  0  0  0  0  0  0
  131.9490  125.9110   62.3040 C   0  0  0  0  0  0  0  0  0  0  0  0
  131.5720  125.7510   60.9730 C   0  0  0  0  0  0  0  0  0  0  0  0
  127.1495  123.0472   63.0452 H   0  0  0  0  0  0  0  0  0  0  0  0
  129.0965  123.6503   63.8901 H   0  0  0  0  0  0  0  0  0  0  0  0
  131.1994  123.0785   65.0862 H   0  0  0  0  0  0  0  0  0  0  0  0
  133.0058  121.8391   63.8999 H   0  0  0  0  0  0  0  0  0  0  0  0
  132.7190  121.1823   61.5147 H   0  0  0  0  0  0  0  0  0  0  0  0
  130.6190  121.7548   60.3158 H   0  0  0  0  0  0  0  0  0  0  0  0
  128.1003  125.7943   56.2797 H   0  0  0  0  0  0  0  0  0  0  0  0
  128.1056  126.0438   58.0792 H   0  0  0  0  0  0  0  0  0  0  0  0
  129.9570  124.6590   59.1610 H   0  0  0  0  0  0  0  0  0  0  0  0
  132.3511  123.8907   58.2803 H   0  0  0  0  0  0  0  0  0  0  0  0
  132.4456  125.7105   58.0967 H   0  0  0  0  0  0  0  0  0  0  0  0
  134.2329  123.9115   59.8664 H   0  0  0  0  0  0  0  0  0  0  0  0
  134.9033  124.1938   62.2524 H   0  0  0  0  0  0  0  0  0  0  0  0
  133.4371  125.4731   63.8081 H   0  0  0  0  0  0  0  0  0  0  0  0
  131.3086  126.4785   62.9953 H   0  0  0  0  0  0  0  0  0  0  0  0
  130.6370  126.2009   60.6079 H   0  0  0  0  0  0  0  0  0  0  0  0
  1  2  3  0
  2  3  1  0
  3  4  2  0
  4  5  1  0
  5  6  1  0
  5  7  1  0
  5  8  1  0
  4  9  1  0
  9 10  2  0
 10 11  1  0
 11 12  2  0
 12 13  1  0
 13 14  2  0
 14 15  1  0
 15 16  2  0
 10 17  1  0
 17 18  2  0
 18 19  1  0
 19 20  1  0
 20 21  1  0
 21 22  2  0
 21 23  1  0
 23 24  1  0
 24 25  1  0
 25 26  2  0
 26 27  1  0
 27 28  2  0
 28 29  1  0
 29 30  2  0
 18  3  1  0
 30 25  1  0
 16 11  1  0
  9 31  1  0
 12 32  1  0
 13 33  1  0
 14 34  1  0
 15 35  1  0
 16 36  1  0
 20 37  1  0
 20 38  1  0
 23 39  1  0
 24 40  1  0
 24 41  1  0
 26 42  1  0
 27 43  1  0
 28 44  1  0
 29 45  1  0
 30 46  1  0
M  END
>  <Binding energies>  (1) 
[-6.69]

>  <Ligand effiencies>  (1) 
[-0.21580645161290324]

>  <Interactions>  (1) 
["V-B:TYR:539:CE2:9847, V-B:PRO:540:CA:9854, V-B:PRO:540:CB:9856, V-B:ALA:541:CB:9863, V-A:LEU:475:CD2:4258, V-B:ALA:541:CA:9861, V-B:TYR:539:CZ:9848, V-A:ASP:366:CG:3212, V-A:ILE:369:CD1:3238, V-A:ASP:366:CB:3211, V-A:ASP:366:CA:3209, V-A:ILE:369:CG2:3236, H-B:TYR:539:OH:9849, V-A:ARG:545:CZ:4926, V-B:GLU:543:CG:9878, V-B:GLU:543:CD:9879, H-A:TYR:531:OH:4795, V-B:PRO:540:C:9852, V-B:ASN:362:CB:8147, V-B:ARG:545:CZ:9897, V-B:ASP:366:CG:8184, V-B:ALA:541:C:9859, V-B:ASN:362:C:8143, V-B:ASN:362:CA:8145, V-A:ILE:369:CB:3235, V-B:ASN:362:CG:8148"]

$$$$
3ai_Grossjean_2025
     RDKit          3D

 39 41  0  0  0  0  0  0  0  0999 V2000
  133.3430  122.7310   61.6990 N   0  0  0  0  0  0  0  0  0  0  0  0
  132.3190  122.7620   61.1620 C   0  0  0  0  0  0  0  0  0  0  0  0
  131.0200  122.8010   60.4820 C   0  0  0  0  0  0  0  0  0  0  0  0
  130.0670  121.7730   60.6830 C   0  0  0  0  0  0  0  0  0  0  0  0
  130.3070  120.5920   61.6430 C   0  0  0  0  0  0  0  0  0  0  0  0
  131.4630  119.9650   61.4150 F   0  0  0  0  0  0  0  0  0  0  0  0
  130.3290  121.0290   62.9040 F   0  0  0  0  0  0  0  0  0  0  0  0
  129.3330  119.6910   61.5150 F   0  0  0  0  0  0  0  0  0  0  0  0
  128.8590  121.8310   59.9720 C   0  0  0  0  0  0  0  0  0  0  0  0
  128.6090  122.8830   59.0850 C   0  0  0  0  0  0  0  0  0  0  0  0
  127.3410  122.9900   58.2930 C   0  0  0  0  0  0  0  0  0  0  0  0
  126.2470  123.7170   58.7870 C   0  0  0  0  0  0  0  0  0  0  0  0
  125.0680  123.8240   58.0550 C   0  0  0  0  0  0  0  0  0  0  0  0
  124.9680  123.2050   56.8130 C   0  0  0  0  0  0  0  0  0  0  0  0
  126.0390  122.4810   56.3000 C   0  0  0  0  0  0  0  0  0  0  0  0
  127.2160  122.3760   57.0350 C   0  0  0  0  0  0  0  0  0  0  0  0
  129.5290  123.8620   58.8900 N   0  0  0  0  0  0  0  0  0  0  0  0
  130.6940  123.8410   59.5820 C   0  0  0  0  0  0  0  0  0  0  0  0
  131.7640  125.2150   59.2130 S   0  0  0  0  0  0  0  0  0  0  0  0
  131.5030  126.4880   60.4940 C   0  0  0  0  0  0  0  0  0  0  0  0
  131.5260  125.9680   61.9390 C   0  0  0  0  0  0  0  0  0  0  0  0
  130.5190  125.4660   62.4450 O   0  0  0  0  0  0  0  0  0  0  0  0
  132.7120  126.1140   62.5730 N   0  0  0  0  0  0  0  0  0  0  0  0
  133.0240  125.7330   63.8710 C   0  0  0  0  0  0  0  0  0  0  0  0
  132.2060  126.0120   64.9650 C   0  0  0  0  0  0  0  0  0  0  0  0
  132.8630  125.4770   66.0490 C   0  0  0  0  0  0  0  0  0  0  0  0
  134.0170  124.9060   65.6310 O   0  0  0  0  0  0  0  0  0  0  0  0
  134.1070  125.0740   64.2480 N   0  0  0  0  0  0  0  0  0  0  0  0
  128.1036  121.0440   60.1131 H   0  0  0  0  0  0  0  0  0  0  0  0
  126.3224  124.2098   59.7676 H   0  0  0  0  0  0  0  0  0  0  0  0
  124.2186  124.3958   58.4569 H   0  0  0  0  0  0  0  0  0  0  0  0
  124.0367  123.2887   56.2336 H   0  0  0  0  0  0  0  0  0  0  0  0
  125.9560  121.9934   55.3174 H   0  0  0  0  0  0  0  0  0  0  0  0
  128.0613  121.8038   56.6252 H   0  0  0  0  0  0  0  0  0  0  0  0
  132.2954  127.2439   60.3906 H   0  0  0  0  0  0  0  0  0  0  0  0
  130.4925  126.8895   60.3275 H   0  0  0  0  0  0  0  0  0  0  0  0
  133.4640  126.5430   62.0540 H   0  0  0  0  0  0  0  0  0  0  0  0
  131.2436  126.5446   64.9621 H   0  0  0  0  0  0  0  0  0  0  0  0
  132.5073  125.5083   67.0894 H   0  0  0  0  0  0  0  0  0  0  0  0
  1  2  3  0
  2  3  1  0
  3  4  2  0
  4  5  1  0
  5  6  1  0
  5  7  1  0
  5  8  1  0
  4  9  1  0
  9 10  2  0
 10 11  1  0
 11 12  2  0
 12 13  1  0
 13 14  2  0
 14 15  1  0
 15 16  2  0
 10 17  1  0
 17 18  2  0
 18 19  1  0
 19 20  1  0
 20 21  1  0
 21 22  2  0
 21 23  1  0
 23 24  1  0
 24 25  1  0
 25 26  2  0
 26 27  1  0
 27 28  1  0
 18  3  1  0
 28 24  2  0
 16 11  1  0
  9 29  1  0
 12 30  1  0
 13 31  1  0
 14 32  1  0
 15 33  1  0
 16 34  1  0
 20 35  1  0
 20 36  1  0
 23 37  1  0
 25 38  1  0
 26 39  1  0
M  END
>  <Binding energies>  (1) 
[-7.97]

>  <Ligand effiencies>  (1) 
[-0.27482758620689657]

>  <Interactions>  (1) 
["V-A:PRO:482:CG:4326, V-B:TYR:539:CE2:9847, V-B:PRO:540:CA:9854, V-B:TYR:539:CD2:9845, V-B:LEU:363:CD1:8160, V-B:PRO:540:CD:9858, V-B:TYR:539:CG:9843, V-B:PRO:540:CB:9856, V-B:ALA:541:CB:9863, V-B:TYR:539:C:9838, V-A:LEU:475:CD2:4258, V-B:PRO:540:N:9855, V-B:TYR:539:CD1:9844, V-B:ALA:541:CA:9861, V-B:TYR:539:CE1:9846, V-A:PRO:482:CB:4325, H-A:ASP:366:OD2:3214, V-B:TYR:539:CZ:9848, H-A:GLY:454:N:4049, H-A:ARG:545:NE:4924, H-A:ARG:545:NH1:4927, V-A:ASP:366:CG:3212, H-A:ASP:366:OD1:3213, V-A:ILE:369:CG2:3236, H-B:TYR:539:OH:9849, H-A:TYR:484:OH:4347, V-A:ARG:545:CZ:4926, V-B:MET:535:CE:9806, V-A:HIS:456:CE1:4069, V-B:PRO:540:C:9852, V-A:LEU:475:CD1:4257, V-A:ARG:545:CD:4923, V-A:TRP:381:CH2:3371"]

$$$$
3aj_Grossjean_2025
     RDKit          3D

 39 41  0  0  0  0  0  0  0  0999 V2000
  133.3510  122.1280   62.0110 N   0  0  0  0  0  0  0  0  0  0  0  0
  132.3470  122.2630   61.4520 C   0  0  0  0  0  0  0  0  0  0  0  0
  131.0740  122.4310   60.7450 C   0  0  0  0  0  0  0  0  0  0  0  0
  130.0610  121.4440   60.8340 C   0  0  0  0  0  0  0  0  0  0  0  0
  130.2090  120.1750   61.6950 C   0  0  0  0  0  0  0  0  0  0  0  0
  131.2730  119.4420   61.3580 F   0  0  0  0  0  0  0  0  0  0  0  0
  130.3410  120.5080   62.9800 F   0  0  0  0  0  0  0  0  0  0  0  0
  129.1320  119.4020   61.5580 F   0  0  0  0  0  0  0  0  0  0  0  0
  128.8790  121.6300   60.1000 C   0  0  0  0  0  0  0  0  0  0  0  0
  128.7140  122.7650   59.2990 C   0  0  0  0  0  0  0  0  0  0  0  0
  127.4780  123.0080   58.4890 C   0  0  0  0  0  0  0  0  0  0  0  0
  127.3200  122.4130   57.2280 C   0  0  0  0  0  0  0  0  0  0  0  0
  126.1710  122.6300   56.4710 C   0  0  0  0  0  0  0  0  0  0  0  0
  125.1630  123.4500   56.9680 C   0  0  0  0  0  0  0  0  0  0  0  0
  125.2950  124.0500   58.2150 C   0  0  0  0  0  0  0  0  0  0  0  0
  126.4430  123.8280   58.9690 C   0  0  0  0  0  0  0  0  0  0  0  0
  129.6910  123.7040   59.2120 N   0  0  0  0  0  0  0  0  0  0  0  0
  130.8310  123.5590   59.9290 C   0  0  0  0  0  0  0  0  0  0  0  0
  131.9840  124.8970   59.7070 S   0  0  0  0  0  0  0  0  0  0  0  0
  131.2580  126.3920   60.4600 C   0  0  0  0  0  0  0  0  0  0  0  0
  131.5350  126.5630   61.9610 C   0  0  0  0  0  0  0  0  0  0  0  0
  131.0070  127.4760   62.6010 O   0  0  0  0  0  0  0  0  0  0  0  0
  132.3790  125.6470   62.4870 N   0  0  0  0  0  0  0  0  0  0  0  0
  132.7930  125.5650   63.8100 C   0  0  0  0  0  0  0  0  0  0  0  0
  134.0120  125.3720   64.2640 N   0  0  0  0  0  0  0  0  0  0  0  0
  134.0420  125.3520   65.5820 C   0  0  0  0  0  0  0  0  0  0  0  0
  132.8220  125.5310   66.2280 C   0  0  0  0  0  0  0  0  0  0  0  0
  131.5760  125.7340   65.0340 S   0  0  0  0  0  0  0  0  0  0  0  0
  128.0775  120.8786   60.1550 H   0  0  0  0  0  0  0  0  0  0  0  0
  128.1157  121.7653   56.8312 H   0  0  0  0  0  0  0  0  0  0  0  0
  126.0612  122.1552   55.4848 H   0  0  0  0  0  0  0  0  0  0  0  0
  124.2560  123.6246   56.3706 H   0  0  0  0  0  0  0  0  0  0  0  0
  124.4953  124.6975   58.6039 H   0  0  0  0  0  0  0  0  0  0  0  0
  126.5419  124.3020   59.9567 H   0  0  0  0  0  0  0  0  0  0  0  0
  131.6643  127.2697   59.9359 H   0  0  0  0  0  0  0  0  0  0  0  0
  130.1676  126.2886   60.3586 H   0  0  0  0  0  0  0  0  0  0  0  0
  132.7460  124.9410   61.8660 H   0  0  0  0  0  0  0  0  0  0  0  0
  134.9783  125.2023   66.1397 H   0  0  0  0  0  0  0  0  0  0  0  0
  132.6712  125.5421   67.3176 H   0  0  0  0  0  0  0  0  0  0  0  0
  1  2  3  0
  2  3  1  0
  3  4  2  0
  4  5  1  0
  5  6  1  0
  5  7  1  0
  5  8  1  0
  4  9  1  0
  9 10  2  0
 10 11  1  0
 11 12  2  0
 12 13  1  0
 13 14  2  0
 14 15  1  0
 15 16  2  0
 10 17  1  0
 17 18  2  0
 18 19  1  0
 19 20  1  0
 20 21  1  0
 21 22  2  0
 21 23  1  0
 23 24  1  0
 24 25  2  0
 25 26  1  0
 26 27  2  0
 27 28  1  0
 18  3  1  0
 28 24  1  0
 16 11  1  0
  9 29  1  0
 12 30  1  0
 13 31  1  0
 14 32  1  0
 15 33  1  0
 16 34  1  0
 20 35  1  0
 20 36  1  0
 23 37  1  0
 26 38  1  0
 27 39  1  0
M  END
>  <Binding energies>  (1) 
[-7.17]

>  <Ligand effiencies>  (1) 
[-0.24724137931034482]

>  <Interactions>  (1) 
["V-A:PRO:482:CG:4326, V-B:TYR:539:CE2:9847, V-B:PRO:540:CA:9854, V-B:TYR:539:CD2:9845, V-B:LEU:363:CD1:8160, V-B:PRO:540:CD:9858, V-B:TYR:539:CG:9843, V-B:PRO:540:CB:9856, V-B:ALA:541:CB:9863, V-B:TYR:539:C:9838, V-A:LEU:475:CD2:4258, V-B:PRO:540:N:9855, V-B:TYR:539:CD1:9844, V-B:ALA:541:CA:9861, V-B:TYR:539:CE1:9846, V-A:PRO:482:CB:4325, V-B:TYR:539:CZ:9848, H-A:ARG:545:NH2:4928, H-A:GLY:454:N:4049, H-A:ARG:545:NE:4924, H-A:ARG:545:NH1:4927, V-A:ASP:366:CG:3212, H-A:ASP:366:OD1:3213, V-A:ILE:369:CG2:3236, V-A:ARG:545:CZ:4926, V-A:HIS:456:CE1:4069, V-B:PRO:540:C:9852, V-A:LEU:475:CG:4256, V-A:LEU:475:CD1:4257, V-A:ARG:545:CD:4923, V-A:GLY:454:CA:4048, V-A:GLY:453:C:4041, V-A:GLY:453:CA:4043, V-A:TRP:381:CH2:3371, V-A:TRP:381:CZ2:3369"]

$$$$
3ak_Grossjean_2025
     RDKit          3D

 57 58  0  0  0  0  0  0  0  0999 V2000
  125.2840  122.4070   56.2590 C   0  0  0  0  0  0  0  0  0  0  0  0
  126.6210  121.9510   56.3950 O   0  0  0  0  0  0  0  0  0  0  0  0
  127.5230  122.9630   56.8200 C   0  0  0  0  0  0  0  0  0  0  0  0
  127.5490  122.9980   58.3530 C   0  0  0  0  0  0  0  0  0  0  0  0
  128.3230  121.9010   58.8270 O   0  0  0  0  0  0  0  0  0  0  0  0
  128.7950  122.0150   60.1670 C   0  0  0  0  0  0  0  0  0  0  0  0
  128.3170  123.2900   60.8860 C   0  0  0  0  0  0  0  0  0  0  0  0
  127.1930  122.9750   61.6970 O   0  0  0  0  0  0  0  0  0  0  0  0
  126.0940  123.8600   61.5280 C   0  0  0  0  0  0  0  0  0  0  0  0
  126.5110  125.0660   60.6670 C   0  0  0  0  0  0  0  0  0  0  0  0
  126.5060  126.3360   61.3960 N   0  0  0  0  0  0  0  0  0  0  0  0
  127.5830  126.9450   61.9300 C   0  0  0  0  0  0  0  0  0  0  0  0
  128.7220  126.4860   61.8390 O   0  0  0  0  0  0  0  0  0  0  0  0
  127.3850  128.2700   62.6860 C   0  0  0  0  0  0  0  0  0  0  0  0
  128.7740  128.8240   63.7430 S   0  0  0  0  0  0  0  0  0  0  0  0
  129.1310  127.5440   64.9360 C   0  0  0  0  0  0  0  0  0  0  0  0
  129.8130  126.4720   64.4610 N   0  0  0  0  0  0  0  0  0  0  0  0
  130.1250  125.4440   65.2900 C   0  0  0  0  0  0  0  0  0  0  0  0
  130.8810  124.3010   64.6810 C   0  0  0  0  0  0  0  0  0  0  0  0
  132.2240  124.4500   64.3010 C   0  0  0  0  0  0  0  0  0  0  0  0
  132.9310  123.3910   63.7380 C   0  0  0  0  0  0  0  0  0  0  0  0
  132.3030  122.1640   63.5490 C   0  0  0  0  0  0  0  0  0  0  0  0
  130.9750  121.9890   63.9190 C   0  0  0  0  0  0  0  0  0  0  0  0
  130.2700  123.0500   64.4820 C   0  0  0  0  0  0  0  0  0  0  0  0
  129.7680  125.4800   66.6420 C   0  0  0  0  0  0  0  0  0  0  0  0
  129.0640  126.5770   67.1600 C   0  0  0  0  0  0  0  0  0  0  0  0
  128.6850  126.5790   68.6540 C   0  0  0  0  0  0  0  0  0  0  0  0
  129.1390  125.4720   69.2420 F   0  0  0  0  0  0  0  0  0  0  0  0
  129.2200  127.6400   69.2600 F   0  0  0  0  0  0  0  0  0  0  0  0
  127.3660  126.6270   68.8540 F   0  0  0  0  0  0  0  0  0  0  0  0
  128.7320  127.6410   66.2870 C   0  0  0  0  0  0  0  0  0  0  0  0
  127.9970  128.8130   66.7730 C   0  0  0  0  0  0  0  0  0  0  0  0
  127.4150  129.7380   67.1560 N   0  0  0  0  0  0  0  0  0  0  0  0
  124.8445  122.5569   57.2562 H   0  0  0  0  0  0  0  0  0  0  0  0
  125.2755  123.3588   55.7077 H   0  0  0  0  0  0  0  0  0  0  0  0
  124.6957  121.6587   55.7077 H   0  0  0  0  0  0  0  0  0  0  0  0
  128.5310  122.7420   56.4391 H   0  0  0  0  0  0  0  0  0  0  0  0
  127.1959  123.9389   56.4318 H   0  0  0  0  0  0  0  0  0  0  0  0
  127.9997  123.9420   58.6931 H   0  0  0  0  0  0  0  0  0  0  0  0
  126.5235  122.9269   58.7445 H   0  0  0  0  0  0  0  0  0  0  0  0
  128.4406  121.1424   60.7353 H   0  0  0  0  0  0  0  0  0  0  0  0
  129.8927  122.0665   60.1176 H   0  0  0  0  0  0  0  0  0  0  0  0
  129.1279  123.6825   61.5172 H   0  0  0  0  0  0  0  0  0  0  0  0
  128.0352  124.0502   60.1426 H   0  0  0  0  0  0  0  0  0  0  0  0
  125.2705  123.3261   61.0312 H   0  0  0  0  0  0  0  0  0  0  0  0
  125.7670  124.2192   62.5149 H   0  0  0  0  0  0  0  0  0  0  0  0
  127.5276  124.8871   60.2869 H   0  0  0  0  0  0  0  0  0  0  0  0
  125.7717  125.1556   59.8575 H   0  0  0  0  0  0  0  0  0  0  0  0
  125.6080  126.7860   61.4960 H   0  0  0  0  0  0  0  0  0  0  0  0
  127.1992  129.0561   61.9393 H   0  0  0  0  0  0  0  0  0  0  0  0
  126.5484  128.0885   63.3767 H   0  0  0  0  0  0  0  0  0  0  0  0
  132.7252  125.4177   64.4502 H   0  0  0  0  0  0  0  0  0  0  0  0
  133.9825  123.5239   63.4436 H   0  0  0  0  0  0  0  0  0  0  0  0
  132.8612  121.3272   63.1039 H   0  0  0  0  0  0  0  0  0  0  0  0
  130.4829  121.0169   63.7679 H   0  0  0  0  0  0  0  0  0  0  0  0
  129.2195  122.9074   64.7754 H   0  0  0  0  0  0  0  0  0  0  0  0
  130.0408  124.6437   67.3024 H   0  0  0  0  0  0  0  0  0  0  0  0
  1  2  1  0
  2  3  1  0
  3  4  1  0
  4  5  1  0
  5  6  1  0
  6  7  1  0
  7  8  1  0
  8  9  1  0
  9 10  1  0
 10 11  1  0
 11 12  1  0
 12 13  2  0
 12 14  1  0
 14 15  1  0
 15 16  1  0
 16 17  2  0
 17 18  1  0
 18 19  1  0
 19 20  2  0
 20 21  1  0
 21 22  2  0
 22 23  1  0
 23 24  2  0
 18 25  2  0
 25 26  1  0
 26 27  1  0
 27 28  1  0
 27 29  1  0
 27 30  1  0
 26 31  2  0
 31 32  1  0
 32 33  3  0
 31 16  1  0
 24 19  1  0
  1 34  1  0
  1 35  1  0
  1 36  1  0
  3 37  1  0
  3 38  1  0
  4 39  1  0
  4 40  1  0
  6 41  1  0
  6 42  1  0
  7 43  1  0
  7 44  1  0
  9 45  1  0
  9 46  1  0
 10 47  1  0
 10 48  1  0
 11 49  1  0
 14 50  1  0
 14 51  1  0
 20 52  1  0
 21 53  1  0
 22 54  1  0
 23 55  1  0
 24 56  1  0
 25 57  1  0
M  END
>  <Binding energies>  (1) 
[-6.53]

>  <Ligand effiencies>  (1) 
[-0.19205882352941178]

>  <Interactions>  (1) 
["H-B:ASP:366:OD2:8186, V-B:TYR:539:CE2:9847, V-B:PRO:540:CA:9854, V-B:TYR:539:CD2:9845, V-B:LEU:363:CD1:8160, V-B:PRO:540:CD:9858, V-B:TYR:539:CG:9843, V-B:PRO:540:CB:9856, V-B:ALA:541:CB:9863, V-B:TYR:539:C:9838, V-A:LEU:475:CD2:4258, H-B:GLU:543:OE2:9881, V-B:PRO:540:N:9855, V-B:TYR:539:CD1:9844, V-B:TYR:539:CE1:9846, H-B:ALA:541:N:9862, V-B:TYR:539:CZ:9848, V-B:MET:535:CE:9806, V-A:GLU:543:CD:4908, V-A:GLU:543:CG:4907, V-B:HIS:456:CE1:9041, V-B:GLU:543:CB:9877, V-A:HIS:456:CE1:4069, V-B:GLU:543:CG:9878, V-B:GLU:543:CD:9879, V-A:LEU:475:CD1:4257, V-A:GLY:454:CA:4048, H-B:TYR:484:OH:9319, H-B:TYR:539:N:9841, H-B:ASP:366:OD1:8185"]

$$$$
3bc_Grossjean_2025
     RDKit          3D

 47 49  0  0  0  0  0  0  0  0999 V2000
  133.9670  125.3760   65.7840 C   0  0  0  0  0  0  0  0  0  0  0  0
  133.6220  124.7730   64.5420 O   0  0  0  0  0  0  0  0  0  0  0  0
  132.3170  124.8540   64.0940 C   0  0  0  0  0  0  0  0  0  0  0  0
  131.8650  126.1190   63.7210 C   0  0  0  0  0  0  0  0  0  0  0  0
  130.5640  126.3000   63.2570 C   0  0  0  0  0  0  0  0  0  0  0  0
  129.6930  125.2120   63.1680 C   0  0  0  0  0  0  0  0  0  0  0  0
  128.4030  125.4890   62.6770 N   0  0  0  0  0  0  0  0  0  0  0  0
  128.0180  126.4080   61.7650 C   0  0  0  0  0  0  0  0  0  0  0  0
  128.7840  127.1620   61.1620 O   0  0  0  0  0  0  0  0  0  0  0  0
  126.5090  126.4340   61.4800 C   0  0  0  0  0  0  0  0  0  0  0  0
  125.6980  124.8000   61.4400 S   0  0  0  0  0  0  0  0  0  0  0  0
  126.5240  123.8120   60.2130 C   0  0  0  0  0  0  0  0  0  0  0  0
  127.6900  123.2700   60.6430 N   0  0  0  0  0  0  0  0  0  0  0  0
  128.4230  122.4900   59.8070 C   0  0  0  0  0  0  0  0  0  0  0  0
  129.7100  121.9470   60.3530 C   0  0  0  0  0  0  0  0  0  0  0  0
  129.7890  120.6270   60.8230 C   0  0  0  0  0  0  0  0  0  0  0  0
  130.9800  120.1150   61.3310 C   0  0  0  0  0  0  0  0  0  0  0  0
  132.1120  120.9210   61.3770 C   0  0  0  0  0  0  0  0  0  0  0  0
  132.0610  122.2340   60.9200 C   0  0  0  0  0  0  0  0  0  0  0  0
  130.8670  122.7420   60.4140 C   0  0  0  0  0  0  0  0  0  0  0  0
  127.9930  122.2360   58.5010 C   0  0  0  0  0  0  0  0  0  0  0  0
  126.7810  122.7690   58.0480 C   0  0  0  0  0  0  0  0  0  0  0  0
  126.3420  122.4500   56.6200 C   0  0  0  0  0  0  0  0  0  0  0  0
  126.0110  123.5710   58.9180 C   0  0  0  0  0  0  0  0  0  0  0  0
  124.7170  124.0980   58.4830 C   0  0  0  0  0  0  0  0  0  0  0  0
  123.6940  124.5140   58.1360 N   0  0  0  0  0  0  0  0  0  0  0  0
  130.1440  123.9340   63.5280 C   0  0  0  0  0  0  0  0  0  0  0  0
  131.4460  123.7580   63.9910 C   0  0  0  0  0  0  0  0  0  0  0  0
  133.6064  124.7457   66.6103 H   0  0  0  0  0  0  0  0  0  0  0  0
  135.0602  125.4782   65.8509 H   0  0  0  0  0  0  0  0  0  0  0  0
  133.5011  126.3702   65.8509 H   0  0  0  0  0  0  0  0  0  0  0  0
  132.5423  126.9827   63.7938 H   0  0  0  0  0  0  0  0  0  0  0  0
  130.2219  127.3024   62.9600 H   0  0  0  0  0  0  0  0  0  0  0  0
  127.6840  124.8690   63.0200 H   0  0  0  0  0  0  0  0  0  0  0  0
  126.0249  127.0351   62.2638 H   0  0  0  0  0  0  0  0  0  0  0  0
  126.3961  126.8557   60.4703 H   0  0  0  0  0  0  0  0  0  0  0  0
  128.8954  119.9864   60.7895 H   0  0  0  0  0  0  0  0  0  0  0  0
  131.0251  119.0777   61.6942 H   0  0  0  0  0  0  0  0  0  0  0  0
  133.0539  120.5179   61.7773 H   0  0  0  0  0  0  0  0  0  0  0  0
  132.9592  122.8678   60.9581 H   0  0  0  0  0  0  0  0  0  0  0  0
  130.8291  123.7816   60.0566 H   0  0  0  0  0  0  0  0  0  0  0  0
  128.6071  121.6175   57.8300 H   0  0  0  0  0  0  0  0  0  0  0  0
  125.4524  121.8035   56.6457 H   0  0  0  0  0  0  0  0  0  0  0  0
  126.1008  123.3850   56.0930 H   0  0  0  0  0  0  0  0  0  0  0  0
  127.1567  121.9318   56.0930 H   0  0  0  0  0  0  0  0  0  0  0  0
  129.4689  123.0695   63.4447 H   0  0  0  0  0  0  0  0  0  0  0  0
  131.7936  122.7545   64.2775 H   0  0  0  0  0  0  0  0  0  0  0  0
  1  2  1  0
  2  3  1  0
  3  4  2  0
  4  5  1  0
  5  6  2  0
  6  7  1  0
  7  8  1  0
  8  9  2  0
  8 10  1  0
 10 11  1  0
 11 12  1  0
 12 13  2  0
 13 14  1  0
 14 15  1  0
 15 16  2  0
 16 17  1  0
 17 18  2  0
 18 19  1  0
 19 20  2  0
 14 21  2  0
 21 22  1  0
 22 23  1  0
 22 24  2  0
 24 25  1  0
 25 26  3  0
  6 27  1  0
 27 28  2  0
 28  3  1  0
 24 12  1  0
 20 15  1  0
  1 29  1  0
  1 30  1  0
  1 31  1  0
  4 32  1  0
  5 33  1  0
  7 34  1  0
 10 35  1  0
 10 36  1  0
 16 37  1  0
 17 38  1  0
 18 39  1  0
 19 40  1  0
 20 41  1  0
 21 42  1  0
 23 43  1  0
 23 44  1  0
 23 45  1  0
 27 46  1  0
 28 47  1  0
M  END
>  <Binding energies>  (1) 
[-7.82]

>  <Ligand effiencies>  (1) 
[-0.2696551724137931]

>  <Interactions>  (1) 
["V-B:TYR:539:CE2:9847, V-B:PRO:540:CA:9854, V-B:TYR:539:CD2:9845, V-B:PRO:540:CD:9858, V-B:TYR:539:CG:9843, V-B:PRO:540:CB:9856, V-B:ALA:541:CB:9863, V-B:TYR:539:C:9838, V-A:LEU:475:CD2:4258, H-B:GLU:543:OE2:9881, V-B:PRO:540:N:9855, H-B:TYR:531:OH:9766, H-B:ALA:541:N:9862, V-B:TYR:539:CZ:9848, H-A:GLY:454:N:4049, V-A:ILE:369:CG2:3236, H-A:TYR:484:OH:4347, V-A:ARG:545:CZ:4926, H-B:ARG:545:NH2:9899, V-B:GLU:543:CD:9879, V-A:ARG:545:CD:4923, V-A:GLY:453:CA:4043"]

$$$$
3bd_Grossjean_2025
     RDKit          3D

 43 45  0  0  0  0  0  0  0  0999 V2000
  127.7590  129.1210   65.6850 C   0  0  0  0  0  0  0  0  0  0  0  0
  128.5170  128.0030   66.3980 C   0  0  0  0  0  0  0  0  0  0  0  0
  128.3820  127.8930   67.7870 C   0  0  0  0  0  0  0  0  0  0  0  0
  129.0640  126.8850   68.4780 C   0  0  0  0  0  0  0  0  0  0  0  0
  128.9600  126.7080   69.9640 C   0  0  0  0  0  0  0  0  0  0  0  0
  129.7090  127.5130   70.8360 C   0  0  0  0  0  0  0  0  0  0  0  0
  129.6190  127.3530   72.2170 C   0  0  0  0  0  0  0  0  0  0  0  0
  128.7750  126.3810   72.7450 C   0  0  0  0  0  0  0  0  0  0  0  0
  128.0250  125.5690   71.9030 C   0  0  0  0  0  0  0  0  0  0  0  0
  128.1180  125.7310   70.5230 C   0  0  0  0  0  0  0  0  0  0  0  0
  129.8490  125.9960   67.8150 N   0  0  0  0  0  0  0  0  0  0  0  0
  129.9920  126.0890   66.4680 C   0  0  0  0  0  0  0  0  0  0  0  0
  131.0600  124.8700   65.7190 S   0  0  0  0  0  0  0  0  0  0  0  0
  132.6860  125.6370   65.4460 C   0  0  0  0  0  0  0  0  0  0  0  0
  133.2010  125.3980   64.0260 C   0  0  0  0  0  0  0  0  0  0  0  0
  134.3550  124.9990   63.8680 O   0  0  0  0  0  0  0  0  0  0  0  0
  132.3260  125.6650   63.0330 N   0  0  0  0  0  0  0  0  0  0  0  0
  132.4930  125.5220   61.6430 C   0  0  0  0  0  0  0  0  0  0  0  0
  131.6720  126.3180   60.8390 C   0  0  0  0  0  0  0  0  0  0  0  0
  131.7600  126.2390   59.4520 C   0  0  0  0  0  0  0  0  0  0  0  0
  132.6620  125.3550   58.8660 C   0  0  0  0  0  0  0  0  0  0  0  0
  133.4750  124.5460   59.6560 C   0  0  0  0  0  0  0  0  0  0  0  0
  133.3910  124.6240   61.0440 C   0  0  0  0  0  0  0  0  0  0  0  0
  129.3410  127.0860   65.7110 C   0  0  0  0  0  0  0  0  0  0  0  0
  129.5020  127.1740   64.2570 C   0  0  0  0  0  0  0  0  0  0  0  0
  129.6270  127.2430   63.1090 N   0  0  0  0  0  0  0  0  0  0  0  0
  127.3054  129.7901   66.4310 H   0  0  0  0  0  0  0  0  0  0  0  0
  128.4563  129.6931   65.0553 H   0  0  0  0  0  0  0  0  0  0  0  0
  126.9695  128.6850   65.0553 H   0  0  0  0  0  0  0  0  0  0  0  0
  127.7402  128.5985   68.3351 H   0  0  0  0  0  0  0  0  0  0  0  0
  130.3777  128.2824   70.4226 H   0  0  0  0  0  0  0  0  0  0  0  0
  130.2126  127.9923   72.8870 H   0  0  0  0  0  0  0  0  0  0  0  0
  128.7010  126.2546   73.8352 H   0  0  0  0  0  0  0  0  0  0  0  0
  127.3602  124.8009   72.3250 H   0  0  0  0  0  0  0  0  0  0  0  0
  127.5236  125.0847   69.8604 H   0  0  0  0  0  0  0  0  0  0  0  0
  132.6004  126.7206   65.6151 H   0  0  0  0  0  0  0  0  0  0  0  0
  133.3994  125.1799   66.1476 H   0  0  0  0  0  0  0  0  0  0  0  0
  131.4450  126.0740   63.3090 H   0  0  0  0  0  0  0  0  0  0  0  0
  130.9538  127.0093   61.3040 H   0  0  0  0  0  0  0  0  0  0  0  0
  131.1192  126.8727   58.8212 H   0  0  0  0  0  0  0  0  0  0  0  0
  132.7331  125.2951   57.7699 H   0  0  0  0  0  0  0  0  0  0  0  0
  134.1818  123.8471   59.1848 H   0  0  0  0  0  0  0  0  0  0  0  0
  134.0279  123.9824   61.6707 H   0  0  0  0  0  0  0  0  0  0  0  0
  1  2  1  0
  2  3  2  0
  3  4  1  0
  4  5  1  0
  5  6  2  0
  6  7  1  0
  7  8  2  0
  8  9  1  0
  9 10  2  0
  4 11  2  0
 11 12  1  0
 12 13  1  0
 13 14  1  0
 14 15  1  0
 15 16  2  0
 15 17  1  0
 17 18  1  0
 18 19  2  0
 19 20  1  0
 20 21  2  0
 21 22  1  0
 22 23  2  0
 12 24  2  0
 24 25  1  0
 25 26  3  0
 24  2  1  0
 10  5  1  0
 23 18  1  0
  1 27  1  0
  1 28  1  0
  1 29  1  0
  3 30  1  0
  6 31  1  0
  7 32  1  0
  8 33  1  0
  9 34  1  0
 10 35  1  0
 14 36  1  0
 14 37  1  0
 17 38  1  0
 19 39  1  0
 20 40  1  0
 21 41  1  0
 22 42  1  0
 23 43  1  0
M  END
>  <Binding energies>  (1) 
[-7.18]

>  <Ligand effiencies>  (1) 
[-0.2659259259259259]

>  <Interactions>  (1) 
["H-A:GLY:454:N:4049, H-A:ARG:545:NH1:4927, V-A:ASP:366:CG:3212, V-A:ILE:369:CD1:3238, V-A:ASP:366:CB:3211, V-A:ASP:366:CA:3209, V-A:ILE:369:CG2:3236, H-A:TYR:484:OH:4347, V-A:ARG:545:CZ:4926, V-A:GLU:543:CD:4908, V-A:GLU:543:CG:4907, V-B:HIS:456:CE1:9041, V-B:GLU:543:CB:9877, V-A:HIS:456:CE1:4069, V-B:HIS:456:CD2:9039, V-A:ASP:366:C:3207, V-B:GLU:543:CD:9879, V-B:GLU:543:C:9873, V-A:ILE:369:CB:3235, V-B:GLY:544:C:9883"]

$$$$
3be_Grossjean_2025
     RDKit          3D

 45 47  0  0  0  0  0  0  0  0999 V2000
  134.7320  125.2060   66.7900 C   0  0  0  0  0  0  0  0  0  0  0  0
  133.6340  125.3620   65.7560 C   0  0  0  0  0  0  0  0  0  0  0  0
  132.3400  125.7480   66.1150 C   0  0  0  0  0  0  0  0  0  0  0  0
  131.3800  125.8680   65.1110 C   0  0  0  0  0  0  0  0  0  0  0  0
  131.7320  125.6020   63.7850 C   0  0  0  0  0  0  0  0  0  0  0  0
  133.0460  125.2220   63.4930 C   0  0  0  0  0  0  0  0  0  0  0  0
  133.3350  124.9580   62.1420 N   0  0  0  0  0  0  0  0  0  0  0  0
  132.8580  125.5750   61.0390 C   0  0  0  0  0  0  0  0  0  0  0  0
  132.0520  126.5070   61.0520 O   0  0  0  0  0  0  0  0  0  0  0  0
  133.4020  125.0280   59.7100 C   0  0  0  0  0  0  0  0  0  0  0  0
  132.4870  123.6050   59.0240 S   0  0  0  0  0  0  0  0  0  0  0  0
  131.2390  123.1320   60.2010 C   0  0  0  0  0  0  0  0  0  0  0  0
  129.9730  123.3570   59.7700 N   0  0  0  0  0  0  0  0  0  0  0  0
  128.9190  123.0380   60.5670 C   0  0  0  0  0  0  0  0  0  0  0  0
  127.5530  123.3310   60.0210 C   0  0  0  0  0  0  0  0  0  0  0  0
  126.5070  123.7190   60.8740 C   0  0  0  0  0  0  0  0  0  0  0  0
  125.2370  123.9900   60.3750 C   0  0  0  0  0  0  0  0  0  0  0  0
  124.9930  123.8760   59.0110 C   0  0  0  0  0  0  0  0  0  0  0  0
  126.0100  123.4910   58.1440 C   0  0  0  0  0  0  0  0  0  0  0  0
  127.2790  123.2200   58.6480 C   0  0  0  0  0  0  0  0  0  0  0  0
  129.1210  122.4820   61.8350 C   0  0  0  0  0  0  0  0  0  0  0  0
  130.4190  122.2210   62.2840 C   0  0  0  0  0  0  0  0  0  0  0  0
  130.5910  121.5970   63.6680 C   0  0  0  0  0  0  0  0  0  0  0  0
  131.5150  122.5380   61.4530 C   0  0  0  0  0  0  0  0  0  0  0  0
  132.8800  122.2240   61.8820 C   0  0  0  0  0  0  0  0  0  0  0  0
  133.9570  121.9740   62.2230 N   0  0  0  0  0  0  0  0  0  0  0  0
  133.9900  125.1000   64.4730 N   0  0  0  0  0  0  0  0  0  0  0  0
  134.2973  125.2678   67.7986 H   0  0  0  0  0  0  0  0  0  0  0  0
  135.2213  124.2293   66.6608 H   0  0  0  0  0  0  0  0  0  0  0  0
  135.4740  126.0078   66.6608 H   0  0  0  0  0  0  0  0  0  0  0  0
  132.0846  125.9524   67.1652 H   0  0  0  0  0  0  0  0  0  0  0  0
  130.3523  126.1701   65.3610 H   0  0  0  0  0  0  0  0  0  0  0  0
  130.9857  125.6903   62.9817 H   0  0  0  0  0  0  0  0  0  0  0  0
  133.9650  124.1830   61.9900 H   0  0  0  0  0  0  0  0  0  0  0  0
  133.3723  125.8409   58.9695 H   0  0  0  0  0  0  0  0  0  0  0  0
  134.4183  124.6645   59.9221 H   0  0  0  0  0  0  0  0  0  0  0  0
  126.6949  123.8101   61.9540 H   0  0  0  0  0  0  0  0  0  0  0  0
  124.4290  124.2933   61.0570 H   0  0  0  0  0  0  0  0  0  0  0  0
  123.9896  124.0916   58.6152 H   0  0  0  0  0  0  0  0  0  0  0  0
  125.8126  123.4011   57.0656 H   0  0  0  0  0  0  0  0  0  0  0  0
  128.0804  122.9139   57.9595 H   0  0  0  0  0  0  0  0  0  0  0  0
  128.2591  122.2504   62.4781 H   0  0  0  0  0  0  0  0  0  0  0  0
  130.3826  122.3529   64.4395 H   0  0  0  0  0  0  0  0  0  0  0  0
  129.8912  120.7558   63.7805 H   0  0  0  0  0  0  0  0  0  0  0  0
  131.6229  121.2331   63.7805 H   0  0  0  0  0  0  0  0  0  0  0  0
  1  2  1  0
  2  3  2  0
  3  4  1  0
  4  5  2  0
  5  6  1  0
  6  7  1  0
  7  8  1  0
  8  9  2  0
  8 10  1  0
 10 11  1  0
 11 12  1  0
 12 13  2  0
 13 14  1  0
 14 15  1  0
 15 16  2  0
 16 17  1  0
 17 18  2  0
 18 19  1  0
 19 20  2  0
 14 21  2  0
 21 22  1  0
 22 23  1  0
 22 24  2  0
 24 25  1  0
 25 26  3  0
  6 27  2  0
 27  2  1  0
 24 12  1  0
 20 15  1  0
  1 28  1  0
  1 29  1  0
  1 30  1  0
  3 31  1  0
  4 32  1  0
  5 33  1  0
  7 34  1  0
 10 35  1  0
 10 36  1  0
 16 37  1  0
 17 38  1  0
 18 39  1  0
 19 40  1  0
 20 41  1  0
 21 42  1  0
 23 43  1  0
 23 44  1  0
 23 45  1  0
M  END
>  <Binding energies>  (1) 
[-7.42]

>  <Ligand effiencies>  (1) 
[-0.265]

>  <Interactions>  (1) 
["V-B:TYR:539:CE2:9847, V-B:PRO:540:CA:9854, V-B:PRO:540:CB:9856, V-B:ALA:541:CB:9863, V-A:LEU:475:CD2:4258, V-B:PRO:540:N:9855, H-A:GLY:454:N:4049, H-A:ARG:545:NH1:4927, V-A:ASP:366:CG:3212, V-A:ASP:366:CB:3211, H-A:ASP:366:OD1:3213, V-A:ASP:366:CA:3209, V-A:ILE:369:CG2:3236, H-B:TYR:539:OH:9849, V-A:ARG:545:CZ:4926, V-A:HIS:456:CE1:4069, V-A:ASP:366:C:3207, V-A:ARG:545:CG:4922, V-A:LEU:475:CD1:4257, V-A:ARG:545:CD:4923, V-A:GLY:454:CA:4048, V-A:GLY:453:C:4041, V-A:GLY:453:CA:4043, V-A:ILE:455:C:4051, V-A:ILE:369:CB:3235, V-A:GLY:454:C:4046"]

$$$$
3bf_Grossjean_2025
     RDKit          3D

 42 44  0  0  0  0  0  0  0  0999 V2000
  130.1750  120.5560   61.8770 C   0  0  0  0  0  0  0  0  0  0  0  0
  130.0180  121.6710   60.8460 C   0  0  0  0  0  0  0  0  0  0  0  0
  128.8200  121.7390   60.1270 C   0  0  0  0  0  0  0  0  0  0  0  0
  128.6290  122.7540   59.1830 C   0  0  0  0  0  0  0  0  0  0  0  0
  127.3610  122.8950   58.3950 C   0  0  0  0  0  0  0  0  0  0  0  0
  127.2620  122.3700   57.0970 C   0  0  0  0  0  0  0  0  0  0  0  0
  126.0890  122.4980   56.3590 C   0  0  0  0  0  0  0  0  0  0  0  0
  124.9950  123.1550   56.9110 C   0  0  0  0  0  0  0  0  0  0  0  0
  125.0670  123.6860   58.1950 C   0  0  0  0  0  0  0  0  0  0  0  0
  126.2430  123.5570   58.9290 C   0  0  0  0  0  0  0  0  0  0  0  0
  129.5940  123.6830   58.9520 N   0  0  0  0  0  0  0  0  0  0  0  0
  130.7700  123.6160   59.6240 C   0  0  0  0  0  0  0  0  0  0  0  0
  131.9150  124.9070   59.1880 S   0  0  0  0  0  0  0  0  0  0  0  0
  131.2850  126.4770   59.8730 C   0  0  0  0  0  0  0  0  0  0  0  0
  131.6030  126.7160   61.3560 C   0  0  0  0  0  0  0  0  0  0  0  0
  131.3050  127.7810   61.9000 O   0  0  0  0  0  0  0  0  0  0  0  0
  132.1880  125.6720   61.9820 N   0  0  0  0  0  0  0  0  0  0  0  0
  132.6130  125.5690   63.3190 C   0  0  0  0  0  0  0  0  0  0  0  0
  131.6280  125.6440   64.3100 C   0  0  0  0  0  0  0  0  0  0  0  0
  131.9850  125.5350   65.6560 C   0  0  0  0  0  0  0  0  0  0  0  0
  133.3300  125.3470   65.9750 C   0  0  0  0  0  0  0  0  0  0  0  0
  134.3050  125.2600   65.0360 N   0  0  0  0  0  0  0  0  0  0  0  0
  133.9430  125.3680   63.7310 C   0  0  0  0  0  0  0  0  0  0  0  0
  131.0240  122.6300   60.6030 C   0  0  0  0  0  0  0  0  0  0  0  0
  132.2660  122.6070   61.3820 C   0  0  0  0  0  0  0  0  0  0  0  0
  133.2470  122.5870   61.9960 N   0  0  0  0  0  0  0  0  0  0  0  0
  130.1151  120.9817   62.8895 H   0  0  0  0  0  0  0  0  0  0  0  0
  129.3722  119.8162   61.7422 H   0  0  0  0  0  0  0  0  0  0  0  0
  131.1509  120.0667   61.7422 H   0  0  0  0  0  0  0  0  0  0  0  0
  128.0289  120.9953   60.3035 H   0  0  0  0  0  0  0  0  0  0  0  0
  128.1249  121.8493   56.6562 H   0  0  0  0  0  0  0  0  0  0  0  0
  126.0276  122.0810   55.3430 H   0  0  0  0  0  0  0  0  0  0  0  0
  124.0670  123.2556   56.3291 H   0  0  0  0  0  0  0  0  0  0  0  0
  124.1992  124.2051   58.6280 H   0  0  0  0  0  0  0  0  0  0  0  0
  126.2975  123.9801   59.9429 H   0  0  0  0  0  0  0  0  0  0  0  0
  131.7243  127.3021   59.2932 H   0  0  0  0  0  0  0  0  0  0  0  0
  130.1887  126.4245   59.7999 H   0  0  0  0  0  0  0  0  0  0  0  0
  132.3020  124.8270   61.4390 H   0  0  0  0  0  0  0  0  0  0  0  0
  130.5742  125.7886   64.0295 H   0  0  0  0  0  0  0  0  0  0  0  0
  131.2227  125.5960   66.4467 H   0  0  0  0  0  0  0  0  0  0  0  0
  133.6124  125.2657   67.0350 H   0  0  0  0  0  0  0  0  0  0  0  0
  134.7256  125.2949   62.9614 H   0  0  0  0  0  0  0  0  0  0  0  0
  1  2  1  0
  2  3  2  0
  3  4  1  0
  4  5  1  0
  5  6  2  0
  6  7  1  0
  7  8  2  0
  8  9  1  0
  9 10  2  0
  4 11  2  0
 11 12  1  0
 12 13  1  0
 13 14  1  0
 14 15  1  0
 15 16  2  0
 15 17  1  0
 17 18  1  0
 18 19  2  0
 19 20  1  0
 20 21  2  0
 21 22  1  0
 22 23  2  0
 12 24  2  0
 24 25  1  0
 25 26  3  0
 24  2  1  0
 10  5  1  0
 23 18  1  0
  1 27  1  0
  1 28  1  0
  1 29  1  0
  3 30  1  0
  6 31  1  0
  7 32  1  0
  8 33  1  0
  9 34  1  0
 10 35  1  0
 14 36  1  0
 14 37  1  0
 17 38  1  0
 19 39  1  0
 20 40  1  0
 21 41  1  0
 23 42  1  0
M  END
>  <Binding energies>  (1) 
[-7.54]

>  <Ligand effiencies>  (1) 
[-0.27925925925925926]

>  <Interactions>  (1) 
["V-B:TYR:539:CE2:9847, V-B:PRO:540:CA:9854, V-B:TYR:539:CD2:9845, V-B:LEU:363:CD1:8160, V-B:PRO:540:CD:9858, V-B:TYR:539:CG:9843, V-B:PRO:540:CB:9856, V-B:ALA:541:CB:9863, V-B:TYR:539:C:9838, V-A:LEU:475:CD2:4258, V-B:PRO:540:N:9855, V-B:TYR:539:CD1:9844, V-B:TYR:539:CE1:9846, V-B:TYR:539:CA:9840, V-B:TYR:539:CZ:9848, H-A:ARG:545:NH2:4928, H-A:GLY:454:N:4049, H-A:ARG:545:NE:4924, H-A:ARG:545:NH1:4927, V-A:ASP:366:CG:3212, V-A:ILE:369:CG2:3236, H-B:TYR:539:OH:9849, V-A:ARG:545:CZ:4926, V-B:PRO:540:C:9852, V-A:ARG:545:CD:4923, V-A:GLY:453:CA:4043"]

$$$$
3bg_Grossjean_2025
     RDKit          3D

 46 48  0  0  0  0  0  0  0  0999 V2000
  130.2730  120.4630   61.8750 C   0  0  0  0  0  0  0  0  0  0  0  0
  130.1380  121.5970   60.8600 C   0  0  0  0  0  0  0  0  0  0  0  0
  128.9020  121.7770   60.2320 C   0  0  0  0  0  0  0  0  0  0  0  0
  128.7320  122.8110   59.3010 C   0  0  0  0  0  0  0  0  0  0  0  0
  127.4270  123.0660   58.5980 C   0  0  0  0  0  0  0  0  0  0  0  0
  127.1840  122.5560   57.3120 C   0  0  0  0  0  0  0  0  0  0  0  0
  125.9710  122.7750   56.6660 C   0  0  0  0  0  0  0  0  0  0  0  0
  124.9770  123.5150   57.2970 C   0  0  0  0  0  0  0  0  0  0  0  0
  125.1930  124.0430   58.5640 C   0  0  0  0  0  0  0  0  0  0  0  0
  126.4080  123.8220   59.2060 C   0  0  0  0  0  0  0  0  0  0  0  0
  129.7570  123.6560   59.0130 N   0  0  0  0  0  0  0  0  0  0  0  0
  130.9630  123.4960   59.6160 C   0  0  0  0  0  0  0  0  0  0  0  0
  132.2130  124.6940   59.1760 S   0  0  0  0  0  0  0  0  0  0  0  0
  132.0500  126.1260   60.2910 C   0  0  0  0  0  0  0  0  0  0  0  0
  131.7560  125.6970   61.7310 C   0  0  0  0  0  0  0  0  0  0  0  0
  130.6500  125.2390   62.0210 O   0  0  0  0  0  0  0  0  0  0  0  0
  132.7460  125.8730   62.6230 N   0  0  0  0  0  0  0  0  0  0  0  0
  132.6250  125.7060   64.0710 C   0  0  0  0  0  0  0  0  0  0  0  0
  131.8850  124.4240   64.4330 C   0  0  0  0  0  0  0  0  0  0  0  0
  132.5310  123.1880   64.3240 C   0  0  0  0  0  0  0  0  0  0  0  0
  131.8520  122.0160   64.6450 C   0  0  0  0  0  0  0  0  0  0  0  0
  130.5320  122.0830   65.0870 C   0  0  0  0  0  0  0  0  0  0  0  0
  129.8880  123.3110   65.2180 C   0  0  0  0  0  0  0  0  0  0  0  0
  130.5680  124.4840   64.8960 C   0  0  0  0  0  0  0  0  0  0  0  0
  131.2040  122.4670   60.5490 C   0  0  0  0  0  0  0  0  0  0  0  0
  132.5080  122.3070   61.1970 C   0  0  0  0  0  0  0  0  0  0  0  0
  133.5380  122.1800   61.7090 N   0  0  0  0  0  0  0  0  0  0  0  0
  130.2240  120.8750   62.8938 H   0  0  0  0  0  0  0  0  0  0  0  0
  129.4543  119.7426   61.7310 H   0  0  0  0  0  0  0  0  0  0  0  0
  131.2380  119.9550   61.7310 H   0  0  0  0  0  0  0  0  0  0  0  0
  128.0624  121.1068   60.4686 H   0  0  0  0  0  0  0  0  0  0  0  0
  127.9673  121.9725   56.8060 H   0  0  0  0  0  0  0  0  0  0  0  0
  125.7991  122.3643   55.6601 H   0  0  0  0  0  0  0  0  0  0  0  0
  124.0151  123.6832   56.7907 H   0  0  0  0  0  0  0  0  0  0  0  0
  124.4069  124.6333   59.0576 H   0  0  0  0  0  0  0  0  0  0  0  0
  126.5746  124.2462   60.2071 H   0  0  0  0  0  0  0  0  0  0  0  0
  132.9894  126.6981   60.2750 H   0  0  0  0  0  0  0  0  0  0  0  0
  131.2070  126.7385   59.9386 H   0  0  0  0  0  0  0  0  0  0  0  0
  133.6190  126.2610   62.2950 H   0  0  0  0  0  0  0  0  0  0  0  0
  133.6326  125.6718   64.5109 H   0  0  0  0  0  0  0  0  0  0  0  0
  132.0496  126.5561   64.4663 H   0  0  0  0  0  0  0  0  0  0  0  0
  133.5763  123.1422   63.9844 H   0  0  0  0  0  0  0  0  0  0  0  0
  132.3546  121.0421   64.5503 H   0  0  0  0  0  0  0  0  0  0  0  0
  129.9932  121.1566   65.3349 H   0  0  0  0  0  0  0  0  0  0  0  0
  128.8480  123.3547   65.5738 H   0  0  0  0  0  0  0  0  0  0  0  0
  130.0678  125.4575   65.0064 H   0  0  0  0  0  0  0  0  0  0  0  0
  1  2  1  0
  2  3  2  0
  3  4  1  0
  4  5  1  0
  5  6  2  0
  6  7  1  0
  7  8  2  0
  8  9  1  0
  9 10  2  0
  4 11  2  0
 11 12  1  0
 12 13  1  0
 13 14  1  0
 14 15  1  0
 15 16  2  0
 15 17  1  0
 17 18  1  0
 18 19  1  0
 19 20  2  0
 20 21  1  0
 21 22  2  0
 22 23  1  0
 23 24  2  0
 12 25  2  0
 25 26  1  0
 26 27  3  0
 25  2  1  0
 10  5  1  0
 24 19  1  0
  1 28  1  0
  1 29  1  0
  1 30  1  0
  3 31  1  0
  6 32  1  0
  7 33  1  0
  8 34  1  0
  9 35  1  0
 10 36  1  0
 14 37  1  0
 14 38  1  0
 17 39  1  0
 18 40  1  0
 18 41  1  0
 20 42  1  0
 21 43  1  0
 22 44  1  0
 23 45  1  0
 24 46  1  0
M  END
>  <Binding energies>  (1) 
[-7.36]

>  <Ligand effiencies>  (1) 
[-0.26285714285714284]

>  <Interactions>  (1) 
["V-B:TYR:539:CE2:9847, V-B:PRO:540:CA:9854, V-B:TYR:539:CD2:9845, V-B:LEU:363:CD1:8160, V-B:PRO:540:CD:9858, V-B:TYR:539:CG:9843, V-B:PRO:540:CB:9856, V-B:ALA:541:CB:9863, V-B:TYR:539:C:9838, V-A:LEU:475:CD2:4258, V-B:PRO:540:N:9855, V-B:TYR:539:CD1:9844, V-B:TYR:539:CE1:9846, H-A:ASP:366:OD2:3214, V-B:TYR:539:CZ:9848, V-A:ASP:366:CG:3212, V-A:ASP:366:CB:3211, H-A:ASP:366:OD1:3213, V-A:ILE:369:CG2:3236, H-B:TYR:539:OH:9849, V-A:ARG:545:CZ:4926, V-A:TYR:484:CZ:4346, V-B:GLU:543:CG:9878, V-A:TYR:484:CE1:4344, V-A:LEU:475:CG:4256, V-A:LEU:475:CD1:4257, V-A:GLY:454:CA:4048"]

$$$$
3bk_Grossjean_2025
     RDKit          3D

 57 58  0  0  0  0  0  0  0  0999 V2000
  127.1880  122.7240   57.6570 C   0  0  0  0  0  0  0  0  0  0  0  0
  125.8110  122.9230   57.9380 O   0  0  0  0  0  0  0  0  0  0  0  0
  125.4740  124.2810   58.1870 C   0  0  0  0  0  0  0  0  0  0  0  0
  124.2450  124.3470   59.1050 C   0  0  0  0  0  0  0  0  0  0  0  0
  124.4590  123.5170   60.2380 O   0  0  0  0  0  0  0  0  0  0  0  0
  124.6200  124.2360   61.4540 C   0  0  0  0  0  0  0  0  0  0  0  0
  125.6350  123.5060   62.3430 C   0  0  0  0  0  0  0  0  0  0  0  0
  126.6520  122.9370   61.5290 O   0  0  0  0  0  0  0  0  0  0  0  0
  127.9700  123.1630   62.0130 C   0  0  0  0  0  0  0  0  0  0  0  0
  128.5280  124.4520   61.3930 C   0  0  0  0  0  0  0  0  0  0  0  0
  127.9900  125.6550   62.0300 N   0  0  0  0  0  0  0  0  0  0  0  0
  127.4460  126.7020   61.3880 C   0  0  0  0  0  0  0  0  0  0  0  0
  127.3180  126.7620   60.1640 O   0  0  0  0  0  0  0  0  0  0  0  0
  126.9440  127.8540   62.2620 C   0  0  0  0  0  0  0  0  0  0  0  0
  128.3050  128.6820   63.1440 S   0  0  0  0  0  0  0  0  0  0  0  0
  128.7760  127.6890   64.5500 C   0  0  0  0  0  0  0  0  0  0  0  0
  129.5130  126.5830   64.2750 N   0  0  0  0  0  0  0  0  0  0  0  0
  129.9140  125.7640   65.2830 C   0  0  0  0  0  0  0  0  0  0  0  0
  130.7420  124.5770   64.8940 C   0  0  0  0  0  0  0  0  0  0  0  0
  132.0860  124.7300   64.5190 C   0  0  0  0  0  0  0  0  0  0  0  0
  132.8580  123.6310   64.1510 C   0  0  0  0  0  0  0  0  0  0  0  0
  132.2940  122.3590   64.1540 C   0  0  0  0  0  0  0  0  0  0  0  0
  130.9660  122.1790   64.5260 C   0  0  0  0  0  0  0  0  0  0  0  0
  130.1980  123.2810   64.8950 C   0  0  0  0  0  0  0  0  0  0  0  0
  129.5830  126.0490   66.6130 C   0  0  0  0  0  0  0  0  0  0  0  0
  128.8230  127.1840   66.9150 C   0  0  0  0  0  0  0  0  0  0  0  0
  128.4830  127.4580   68.3790 C   0  0  0  0  0  0  0  0  0  0  0  0
  128.4030  128.0320   65.8680 C   0  0  0  0  0  0  0  0  0  0  0  0
  127.6080  129.2290   66.1550 C   0  0  0  0  0  0  0  0  0  0  0  0
  126.9800  130.1750   66.3810 N   0  0  0  0  0  0  0  0  0  0  0  0
  127.7469  122.6432   58.6010 H   0  0  0  0  0  0  0  0  0  0  0  0
  127.3137  121.7984   57.0761 H   0  0  0  0  0  0  0  0  0  0  0  0
  127.5706  123.5762   57.0761 H   0  0  0  0  0  0  0  0  0  0  0  0
  126.3219  124.7852   58.6737 H   0  0  0  0  0  0  0  0  0  0  0  0
  125.2455  124.7812   57.2343 H   0  0  0  0  0  0  0  0  0  0  0  0
  124.0879  125.3847   59.4343 H   0  0  0  0  0  0  0  0  0  0  0  0
  123.3569  123.9996   58.5567 H   0  0  0  0  0  0  0  0  0  0  0  0
  124.9852  125.2504   61.2357 H   0  0  0  0  0  0  0  0  0  0  0  0
  123.6533  124.3012   61.9747 H   0  0  0  0  0  0  0  0  0  0  0  0
  126.0857  124.2200   63.0480 H   0  0  0  0  0  0  0  0  0  0  0  0
  125.1254  122.7094   62.9049 H   0  0  0  0  0  0  0  0  0  0  0  0
  127.9465  123.2631   63.1082 H   0  0  0  0  0  0  0  0  0  0  0  0
  128.6131  122.3145   61.7365 H   0  0  0  0  0  0  0  0  0  0  0  0
  129.6224  124.4526   61.5041 H   0  0  0  0  0  0  0  0  0  0  0  0
  128.2307  124.4713   60.3341 H   0  0  0  0  0  0  0  0  0  0  0  0
  128.0020  125.6620   63.0400 H   0  0  0  0  0  0  0  0  0  0  0  0
  126.4354  128.5901   61.6221 H   0  0  0  0  0  0  0  0  0  0  0  0
  126.2559  127.4373   63.0122 H   0  0  0  0  0  0  0  0  0  0  0  0
  132.5364  125.7336   64.5158 H   0  0  0  0  0  0  0  0  0  0  0  0
  133.9097  123.7679   63.8591 H   0  0  0  0  0  0  0  0  0  0  0  0
  132.9021  121.4906   63.8604 H   0  0  0  0  0  0  0  0  0  0  0  0
  130.5244  121.1715   64.5288 H   0  0  0  0  0  0  0  0  0  0  0  0
  129.1490  123.1346   65.1919 H   0  0  0  0  0  0  0  0  0  0  0  0
  129.9201  125.3813   67.4196 H   0  0  0  0  0  0  0  0  0  0  0  0
  129.1752  126.9002   69.0268 H   0  0  0  0  0  0  0  0  0  0  0  0
  128.5781  128.5349   68.5822 H   0  0  0  0  0  0  0  0  0  0  0  0
  127.4509  127.1362   68.5822 H   0  0  0  0  0  0  0  0  0  0  0  0
  1  2  1  0
  2  3  1  0
  3  4  1  0
  4  5  1  0
  5  6  1  0
  6  7  1  0
  7  8  1  0
  8  9  1  0
  9 10  1  0
 10 11  1  0
 11 12  1  0
 12 13  2  0
 12 14  1  0
 14 15  1  0
 15 16  1  0
 16 17  2  0
 17 18  1  0
 18 19  1  0
 19 20  2  0
 20 21  1  0
 21 22  2  0
 22 23  1  0
 23 24  2  0
 18 25  2  0
 25 26  1  0
 26 27  1  0
 26 28  2  0
 28 29  1  0
 29 30  3  0
 28 16  1  0
 24 19  1  0
  1 31  1  0
  1 32  1  0
  1 33  1  0
  3 34  1  0
  3 35  1  0
  4 36  1  0
  4 37  1  0
  6 38  1  0
  6 39  1  0
  7 40  1  0
  7 41  1  0
  9 42  1  0
  9 43  1  0
 10 44  1  0
 10 45  1  0
 11 46  1  0
 14 47  1  0
 14 48  1  0
 20 49  1  0
 21 50  1  0
 22 51  1  0
 23 52  1  0
 24 53  1  0
 25 54  1  0
 27 55  1  0
 27 56  1  0
 27 57  1  0
M  END
>  <Binding energies>  (1) 
[-5.85]

>  <Ligand effiencies>  (1) 
[-0.18870967741935482]

>  <Interactions>  (1) 
["V-B:PRO:540:CA:9854, V-B:PRO:540:CB:9856, V-B:ALA:541:CB:9863, V-B:TYR:539:C:9838, V-A:LEU:475:CD2:4258, H-B:GLU:543:OE2:9881, V-B:PRO:540:N:9855, V-B:ALA:541:CA:9861, H-B:ALA:541:N:9862, V-B:LEU:363:CA:8156, V-A:GLU:543:CD:4908, V-A:GLU:543:CG:4907, V-B:HIS:456:CE1:9041, V-B:GLU:543:CB:9877, V-A:TYR:484:CZ:4346, V-B:GLU:543:CG:9878, V-B:GLU:543:CD:9879, V-A:TYR:484:CE1:4344, V-B:ASN:362:CB:8147, V-A:LEU:475:CD1:4257, V-A:GLY:454:CA:4048, H-B:TYR:484:OH:9319, V-B:ASN:362:C:8143"]

$$$$
3ca_Grossjean_2025
     RDKit          3D

 52 54  0  0  0  0  0  0  0  0999 V2000
  128.6980  129.7430   72.9300 C   0  0  0  0  0  0  0  0  0  0  0  0
  130.1940  129.4530   72.7830 C   0  0  0  0  0  0  0  0  0  0  0  0
  130.4240  128.0590   72.9490 O   0  0  0  0  0  0  0  0  0  0  0  0
  129.5090  127.1430   72.5420 C   0  0  0  0  0  0  0  0  0  0  0  0
  128.7750  126.5230   73.3180 O   0  0  0  0  0  0  0  0  0  0  0  0
  129.4710  126.9630   71.0510 C   0  0  0  0  0  0  0  0  0  0  0  0
  128.6640  125.9580   70.5040 C   0  0  0  0  0  0  0  0  0  0  0  0
  128.6080  125.7660   69.1260 C   0  0  0  0  0  0  0  0  0  0  0  0
  129.3620  126.5690   68.2690 C   0  0  0  0  0  0  0  0  0  0  0  0
  129.2310  126.2920   66.8950 N   0  0  0  0  0  0  0  0  0  0  0  0
  129.8890  125.3940   66.1300 C   0  0  0  0  0  0  0  0  0  0  0  0
  130.7480  124.6100   66.5320 O   0  0  0  0  0  0  0  0  0  0  0  0
  129.4830  125.3700   64.6520 C   0  0  0  0  0  0  0  0  0  0  0  0
  130.7010  124.5310   63.5870 S   0  0  0  0  0  0  0  0  0  0  0  0
  129.8600  123.4490   62.4380 C   0  0  0  0  0  0  0  0  0  0  0  0
  130.3420  122.1830   62.3640 N   0  0  0  0  0  0  0  0  0  0  0  0
  129.7410  121.3040   61.5320 C   0  0  0  0  0  0  0  0  0  0  0  0
  130.3250  119.9050   61.5180 C   0  0  0  0  0  0  0  0  0  0  0  0
  128.6550  121.6510   60.7330 C   0  0  0  0  0  0  0  0  0  0  0  0
  128.1510  122.9570   60.7780 C   0  0  0  0  0  0  0  0  0  0  0  0
  126.9930  123.2880   59.8930 C   0  0  0  0  0  0  0  0  0  0  0  0
  125.7900  123.7400   60.4500 C   0  0  0  0  0  0  0  0  0  0  0  0
  124.7020  124.0410   59.6340 C   0  0  0  0  0  0  0  0  0  0  0  0
  124.8120  123.8860   58.2540 C   0  0  0  0  0  0  0  0  0  0  0  0
  125.9990  123.4310   57.6850 C   0  0  0  0  0  0  0  0  0  0  0  0
  127.0840  123.1300   58.5050 C   0  0  0  0  0  0  0  0  0  0  0  0
  128.7610  123.8850   61.6600 C   0  0  0  0  0  0  0  0  0  0  0  0
  128.2450  125.2520   61.7890 C   0  0  0  0  0  0  0  0  0  0  0  0
  127.8360  126.3300   61.8890 N   0  0  0  0  0  0  0  0  0  0  0  0
  130.1670  127.5850   68.8080 C   0  0  0  0  0  0  0  0  0  0  0  0
  130.2190  127.7760   70.1860 C   0  0  0  0  0  0  0  0  0  0  0  0
  128.4375  129.7935   73.9975 H   0  0  0  0  0  0  0  0  0  0  0  0
  128.4617  130.7037   72.4491 H   0  0  0  0  0  0  0  0  0  0  0  0
  128.1199  128.9402   72.4491 H   0  0  0  0  0  0  0  0  0  0  0  0
  130.5316  129.7641   71.7834 H   0  0  0  0  0  0  0  0  0  0  0  0
  130.7532  130.0112   73.5483 H   0  0  0  0  0  0  0  0  0  0  0  0
  128.0690  125.3145   71.1687 H   0  0  0  0  0  0  0  0  0  0  0  0
  127.9652  124.9762   68.7101 H   0  0  0  0  0  0  0  0  0  0  0  0
  128.5000  126.8150   66.4350 H   0  0  0  0  0  0  0  0  0  0  0  0
  128.5202  124.8457   64.5623 H   0  0  0  0  0  0  0  0  0  0  0  0
  129.4174  126.4147   64.3138 H   0  0  0  0  0  0  0  0  0  0  0  0
  130.4699  119.5578   62.5517 H   0  0  0  0  0  0  0  0  0  0  0  0
  129.6356  119.2251   60.9961 H   0  0  0  0  0  0  0  0  0  0  0  0
  131.2932  119.9171   60.9961 H   0  0  0  0  0  0  0  0  0  0  0  0
  128.1952  120.9034   60.0699 H   0  0  0  0  0  0  0  0  0  0  0  0
  125.7038  123.8582   61.5402 H   0  0  0  0  0  0  0  0  0  0  0  0
  123.7610  124.3992   60.0769 H   0  0  0  0  0  0  0  0  0  0  0  0
  123.9542  124.1250   57.6083 H   0  0  0  0  0  0  0  0  0  0  0  0
  126.0792  123.3101   56.5946 H   0  0  0  0  0  0  0  0  0  0  0  0
  128.0205  122.7650   58.0580 H   0  0  0  0  0  0  0  0  0  0  0  0
  130.7571  128.2307   68.1410 H   0  0  0  0  0  0  0  0  0  0  0  0
  130.8534  128.5730   70.6012 H   0  0  0  0  0  0  0  0  0  0  0  0
  1  2  1  0
  2  3  1  0
  3  4  1  0
  4  5  2  0
  4  6  1  0
  6  7  2  0
  7  8  1  0
  8  9  2  0
  9 10  1  0
 10 11  1  0
 11 12  2  0
 11 13  1  0
 13 14  1  0
 14 15  1  0
 15 16  2  0
 16 17  1  0
 17 18  1  0
 17 19  2  0
 19 20  1  0
 20 21  1  0
 21 22  2  0
 22 23  1  0
 23 24  2  0
 24 25  1  0
 25 26  2  0
 20 27  2  0
 27 28  1  0
 28 29  3  0
  9 30  1  0
 30 31  2  0
 31  6  1  0
 27 15  1  0
 26 21  1  0
  1 32  1  0
  1 33  1  0
  1 34  1  0
  2 35  1  0
  2 36  1  0
  7 37  1  0
  8 38  1  0
 10 39  1  0
 13 40  1  0
 13 41  1  0
 18 42  1  0
 18 43  1  0
 18 44  1  0
 19 45  1  0
 22 46  1  0
 23 47  1  0
 24 48  1  0
 25 49  1  0
 26 50  1  0
 30 51  1  0
 31 52  1  0
M  END
>  <Binding energies>  (1) 
[-7.97]

>  <Ligand effiencies>  (1) 
[-0.2490625]

>  <Interactions>  (1) 
["V-B:PRO:540:CA:9854, V-B:TYR:539:CD2:9845, V-B:LEU:363:CD1:8160, V-B:PRO:540:CB:9856, V-B:ALA:541:CB:9863, V-B:TYR:539:C:9838, V-A:LEU:475:CD2:4258, H-B:GLU:543:OE2:9881, V-B:PRO:540:N:9855, V-B:ALA:541:CA:9861, V-A:PRO:482:CB:4325, H-A:TYR:484:OH:4347, V-A:GLU:543:CD:4908, V-A:GLU:543:CB:4906, V-B:HIS:456:CE1:9041, V-B:GLU:543:CB:9877, V-A:HIS:456:CE1:4069, V-B:HIS:456:CG:9037, V-B:GLU:543:CG:9878, V-B:HIS:456:CD2:9039, V-B:GLU:543:CD:9879, V-B:PRO:540:C:9852, H-B:GLU:543:OE1:9880, H-B:LYS:547:NZ:9922, V-B:GLU:543:C:9873, H-A:LYS:547:NZ:4951"]

$$$$
3cb_Grossjean_2025
     RDKit          3D

 49 51  0  0  0  0  0  0  0  0999 V2000
  129.7190  129.5770   73.1010 C   0  0  0  0  0  0  0  0  0  0  0  0
  130.2670  128.2720   73.2100 O   0  0  0  0  0  0  0  0  0  0  0  0
  129.5120  127.1730   72.9560 C   0  0  0  0  0  0  0  0  0  0  0  0
  128.9880  126.4890   73.8410 O   0  0  0  0  0  0  0  0  0  0  0  0
  129.3800  126.8690   71.4910 C   0  0  0  0  0  0  0  0  0  0  0  0
  130.0180  127.6420   70.5100 C   0  0  0  0  0  0  0  0  0  0  0  0
  129.8770  127.3310   69.1610 C   0  0  0  0  0  0  0  0  0  0  0  0
  129.0930  126.2480   68.7620 C   0  0  0  0  0  0  0  0  0  0  0  0
  129.0220  126.0230   67.3730 N   0  0  0  0  0  0  0  0  0  0  0  0
  129.9830  125.6350   66.5060 C   0  0  0  0  0  0  0  0  0  0  0  0
  131.1490  125.3820   66.8130 O   0  0  0  0  0  0  0  0  0  0  0  0
  129.5110  125.5040   65.0500 C   0  0  0  0  0  0  0  0  0  0  0  0
  129.5030  123.8010   64.3940 S   0  0  0  0  0  0  0  0  0  0  0  0
  129.9840  123.8740   62.6810 C   0  0  0  0  0  0  0  0  0  0  0  0
  131.2930  124.1770   62.5010 N   0  0  0  0  0  0  0  0  0  0  0  0
  131.7710  124.2600   61.2390 C   0  0  0  0  0  0  0  0  0  0  0  0
  133.2460  124.5900   61.1140 C   0  0  0  0  0  0  0  0  0  0  0  0
  130.9720  124.0520   60.1190 C   0  0  0  0  0  0  0  0  0  0  0  0
  129.6130  123.7540   60.2800 C   0  0  0  0  0  0  0  0  0  0  0  0
  128.7950  123.5460   59.0460 C   0  0  0  0  0  0  0  0  0  0  0  0
  128.0450  122.3730   58.8880 C   0  0  0  0  0  0  0  0  0  0  0  0
  127.2720  122.1750   57.7470 C   0  0  0  0  0  0  0  0  0  0  0  0
  127.2430  123.1530   56.7570 C   0  0  0  0  0  0  0  0  0  0  0  0
  127.9760  124.3280   56.9010 C   0  0  0  0  0  0  0  0  0  0  0  0
  128.7470  124.5240   58.0440 C   0  0  0  0  0  0  0  0  0  0  0  0
  129.0920  123.6760   61.5980 C   0  0  0  0  0  0  0  0  0  0  0  0
  127.6590  123.4600   61.8240 C   0  0  0  0  0  0  0  0  0  0  0  0
  126.5290  123.2890   62.0020 N   0  0  0  0  0  0  0  0  0  0  0  0
  128.4540  125.4670   69.7370 C   0  0  0  0  0  0  0  0  0  0  0  0
  128.5970  125.7780   71.0870 C   0  0  0  0  0  0  0  0  0  0  0  0
  129.5466  129.9875   74.1069 H   0  0  0  0  0  0  0  0  0  0  0  0
  130.4210  130.2251   72.5558 H   0  0  0  0  0  0  0  0  0  0  0  0
  128.7648  129.5296   72.5558 H   0  0  0  0  0  0  0  0  0  0  0  0
  130.6353  128.5017   70.8096 H   0  0  0  0  0  0  0  0  0  0  0  0
  130.3875  127.9437   68.4034 H   0  0  0  0  0  0  0  0  0  0  0  0
  128.0990  126.1500   66.9830 H   0  0  0  0  0  0  0  0  0  0  0  0
  128.4865  125.8994   64.9862 H   0  0  0  0  0  0  0  0  0  0  0  0
  130.2338  126.0657   64.4401 H   0  0  0  0  0  0  0  0  0  0  0  0
  133.6860  124.6884   62.1173 H   0  0  0  0  0  0  0  0  0  0  0  0
  133.7570  123.7840   60.5670 H   0  0  0  0  0  0  0  0  0  0  0  0
  133.3648  125.5369   60.5670 H   0  0  0  0  0  0  0  0  0  0  0  0
  131.4062  124.1214   59.1107 H   0  0  0  0  0  0  0  0  0  0  0  0
  128.0671  121.6019   59.6722 H   0  0  0  0  0  0  0  0  0  0  0  0
  126.6874  121.2507   57.6286 H   0  0  0  0  0  0  0  0  0  0  0  0
  126.6359  122.9963   55.8532 H   0  0  0  0  0  0  0  0  0  0  0  0
  127.9462  125.0977   56.1157 H   0  0  0  0  0  0  0  0  0  0  0  0
  129.3228  125.4539   58.1610 H   0  0  0  0  0  0  0  0  0  0  0  0
  127.8386  124.6070   69.4343 H   0  0  0  0  0  0  0  0  0  0  0  0
  128.0905  125.1615   71.8442 H   0  0  0  0  0  0  0  0  0  0  0  0
  1  2  1  0
  2  3  1  0
  3  4  2  0
  3  5  1  0
  5  6  2  0
  6  7  1  0
  7  8  2  0
  8  9  1  0
  9 10  1  0
 10 11  2  0
 10 12  1  0
 12 13  1  0
 13 14  1  0
 14 15  2  0
 15 16  1  0
 16 17  1  0
 16 18  2  0
 18 19  1  0
 19 20  1  0
 20 21  2  0
 21 22  1  0
 22 23  2  0
 23 24  1  0
 24 25  2  0
 19 26  2  0
 26 27  1  0
 27 28  3  0
  8 29  1  0
 29 30  2  0
 30  5  1  0
 26 14  1  0
 25 20  1  0
  1 31  1  0
  1 32  1  0
  1 33  1  0
  6 34  1  0
  7 35  1  0
  9 36  1  0
 12 37  1  0
 12 38  1  0
 17 39  1  0
 17 40  1  0
 17 41  1  0
 18 42  1  0
 21 43  1  0
 22 44  1  0
 23 45  1  0
 24 46  1  0
 25 47  1  0
 29 48  1  0
 30 49  1  0
M  END
>  <Binding energies>  (1) 
[-8.15]

>  <Ligand effiencies>  (1) 
[-0.26290322580645165]

>  <Interactions>  (1) 
["V-B:TYR:539:CE2:9847, V-B:PRO:540:CA:9854, V-B:TYR:539:CD2:9845, V-B:PRO:540:CD:9858, V-B:TYR:539:CG:9843, V-B:PRO:540:CB:9856, V-B:ALA:541:CB:9863, V-B:TYR:539:C:9838, H-B:GLU:543:OE2:9881, V-B:PRO:540:N:9855, V-B:TYR:539:CD1:9844, V-B:TYR:539:CE1:9846, H-B:ALA:541:N:9862, V-B:TYR:539:CA:9840, V-B:TYR:539:CZ:9848, V-A:ASP:366:CG:3212, V-A:ILE:369:CD1:3238, V-A:ILE:369:CG2:3236, H-A:TYR:484:OH:4347, V-B:GLU:543:CB:9877, V-A:HIS:456:CE1:4069, V-B:GLU:543:CG:9878, V-B:GLU:543:CD:9879, H-B:GLU:543:OE1:9880, H-B:LYS:547:NZ:9922, V-B:GLU:543:CA:9875, V-B:GLU:543:C:9873, H-A:LYS:547:NZ:4951"]

$$$$
3ce_Grossjean_2025
     RDKit          3D

 45 47  0  0  0  0  0  0  0  0999 V2000
  134.7210  125.1660   66.9380 C   0  0  0  0  0  0  0  0  0  0  0  0
  133.5930  125.3950   65.9500 C   0  0  0  0  0  0  0  0  0  0  0  0
  132.3090  125.7460   66.3760 C   0  0  0  0  0  0  0  0  0  0  0  0
  131.3230  125.9500   65.4110 C   0  0  0  0  0  0  0  0  0  0  0  0
  131.6390  125.8010   64.0580 C   0  0  0  0  0  0  0  0  0  0  0  0
  132.9420  125.4370   63.7010 C   0  0  0  0  0  0  0  0  0  0  0  0
  133.2070  125.3210   62.3260 N   0  0  0  0  0  0  0  0  0  0  0  0
  133.3930  124.1930   61.6040 C   0  0  0  0  0  0  0  0  0  0  0  0
  133.3500  123.0490   62.0570 O   0  0  0  0  0  0  0  0  0  0  0  0
  133.6650  124.3980   60.1140 C   0  0  0  0  0  0  0  0  0  0  0  0
  132.2570  125.1760   59.2670 S   0  0  0  0  0  0  0  0  0  0  0  0
  130.9000  124.0420   59.4460 C   0  0  0  0  0  0  0  0  0  0  0  0
  131.1060  123.0780   60.3760 N   0  0  0  0  0  0  0  0  0  0  0  0
  130.1240  122.1740   60.6000 C   0  0  0  0  0  0  0  0  0  0  0  0
  130.4150  121.1320   61.6630 C   0  0  0  0  0  0  0  0  0  0  0  0
  128.9190  122.1890   59.9030 C   0  0  0  0  0  0  0  0  0  0  0  0
  128.6970  123.1620   58.9190 C   0  0  0  0  0  0  0  0  0  0  0  0
  127.4000  123.1210   58.1810 C   0  0  0  0  0  0  0  0  0  0  0  0
  127.2960  122.4110   56.9790 C   0  0  0  0  0  0  0  0  0  0  0  0
  126.0910  122.3740   56.2820 C   0  0  0  0  0  0  0  0  0  0  0  0
  124.9840  123.0540   56.7810 C   0  0  0  0  0  0  0  0  0  0  0  0
  125.0730  123.7740   57.9700 C   0  0  0  0  0  0  0  0  0  0  0  0
  126.2790  123.8080   58.6650 C   0  0  0  0  0  0  0  0  0  0  0  0
  129.7120  124.1230   58.6810 C   0  0  0  0  0  0  0  0  0  0  0  0
  129.5310  125.1740   57.6740 C   0  0  0  0  0  0  0  0  0  0  0  0
  129.3870  126.0020   56.8800 N   0  0  0  0  0  0  0  0  0  0  0  0
  133.9150  125.2430   64.6400 N   0  0  0  0  0  0  0  0  0  0  0  0
  134.3317  125.2450   67.9638 H   0  0  0  0  0  0  0  0  0  0  0  0
  135.1460  124.1633   66.7834 H   0  0  0  0  0  0  0  0  0  0  0  0
  135.5033  125.9236   66.7834 H   0  0  0  0  0  0  0  0  0  0  0  0
  132.0816  125.8586   67.4463 H   0  0  0  0  0  0  0  0  0  0  0  0
  130.3022  126.2267   65.7133 H   0  0  0  0  0  0  0  0  0  0  0  0
  130.8745  125.9675   63.2848 H   0  0  0  0  0  0  0  0  0  0  0  0
  133.1660  126.1870   61.8100 H   0  0  0  0  0  0  0  0  0  0  0  0
  134.5489  125.0426   59.9995 H   0  0  0  0  0  0  0  0  0  0  0  0
  133.8321  123.4103   59.6595 H   0  0  0  0  0  0  0  0  0  0  0  0
  130.2898  121.5802   62.6597 H   0  0  0  0  0  0  0  0  0  0  0  0
  129.7181  120.2885   61.5501 H   0  0  0  0  0  0  0  0  0  0  0  0
  131.4481  120.7716   61.5501 H   0  0  0  0  0  0  0  0  0  0  0  0
  128.1441  121.4401   60.1237 H   0  0  0  0  0  0  0  0  0  0  0  0
  128.1728  121.8783   56.5821 H   0  0  0  0  0  0  0  0  0  0  0  0
  126.0144  121.8096   55.3409 H   0  0  0  0  0  0  0  0  0  0  0  0
  124.0313  123.0226   56.2321 H   0  0  0  0  0  0  0  0  0  0  0  0
  124.1957  124.3126   58.3576 H   0  0  0  0  0  0  0  0  0  0  0  0
  126.3523  124.3792   59.6022 H   0  0  0  0  0  0  0  0  0  0  0  0
  1  2  1  0
  2  3  2  0
  3  4  1  0
  4  5  2  0
  5  6  1  0
  6  7  1  0
  7  8  1  0
  8  9  2  0
  8 10  1  0
 10 11  1  0
 11 12  1  0
 12 13  2  0
 13 14  1  0
 14 15  1  0
 14 16  2  0
 16 17  1  0
 17 18  1  0
 18 19  2  0
 19 20  1  0
 20 21  2  0
 21 22  1  0
 22 23  2  0
 17 24  2  0
 24 25  1  0
 25 26  3  0
  6 27  2  0
 27  2  1  0
 24 12  1  0
 23 18  1  0
  1 28  1  0
  1 29  1  0
  1 30  1  0
  3 31  1  0
  4 32  1  0
  5 33  1  0
  7 34  1  0
 10 35  1  0
 10 36  1  0
 15 37  1  0
 15 38  1  0
 15 39  1  0
 16 40  1  0
 19 41  1  0
 20 42  1  0
 21 43  1  0
 22 44  1  0
 23 45  1  0
M  END
>  <Binding energies>  (1) 
[-8.77]

>  <Ligand effiencies>  (1) 
[-0.3132142857142857]

>  <Interactions>  (1) 
["V-B:TYR:539:CE2:9847, V-B:PRO:540:CA:9854, V-B:TYR:539:CD2:9845, V-B:LEU:363:CD1:8160, V-B:PRO:540:CD:9858, V-B:TYR:539:CG:9843, V-B:PRO:540:CB:9856, V-B:ALA:541:CB:9863, V-B:TYR:539:C:9838, V-A:LEU:475:CD2:4258, V-B:PRO:540:N:9855, V-B:TYR:539:CD1:9844, V-B:TYR:539:CE1:9846, H-A:ASP:366:OD2:3214, V-B:TYR:539:CZ:9848, H-A:ARG:545:NH2:4928, H-A:GLY:454:N:4049, H-A:ARG:545:NE:4924, H-A:ARG:545:NH1:4927, V-A:ASP:366:CG:3212, V-A:ILE:369:CD1:3238, V-A:ASP:366:CB:3211, H-A:ASP:366:OD1:3213, V-A:ASP:366:CA:3209, V-A:ILE:369:CG2:3236, H-B:TYR:539:OH:9849, V-A:ARG:545:CZ:4926, V-B:MET:535:CE:9806, V-A:GLU:543:CD:4908, V-A:HIS:456:CE1:4069, H-A:TYR:531:OH:4795, V-A:ARG:545:CG:4922, V-A:ARG:545:CD:4923, V-A:GLY:454:CA:4048, V-A:GLY:453:C:4041, V-A:GLY:453:CA:4043, V-A:ILE:455:C:4051, V-A:ILE:369:CB:3235, V-A:GLY:454:C:4046"]

$$$$
3ch_Grossjean_2025
     RDKit          3D

 55 57  0  0  0  0  0  0  0  0999 V2000
  129.8880  129.9530   73.2630 C   0  0  0  0  0  0  0  0  0  0  0  0
  130.2570  128.5920   73.4580 O   0  0  0  0  0  0  0  0  0  0  0  0
  129.7480  127.6200   72.6160 C   0  0  0  0  0  0  0  0  0  0  0  0
  129.7990  127.6900   71.2140 C   0  0  0  0  0  0  0  0  0  0  0  0
  129.2700  126.6600   70.4230 C   0  0  0  0  0  0  0  0  0  0  0  0
  129.2790  126.6380   69.0150 N   0  0  0  0  0  0  0  0  0  0  0  0
  128.9850  127.6200   68.1350 C   0  0  0  0  0  0  0  0  0  0  0  0
  128.6530  128.7680   68.4310 O   0  0  0  0  0  0  0  0  0  0  0  0
  129.1290  127.2480   66.6600 C   0  0  0  0  0  0  0  0  0  0  0  0
  129.5030  125.4850   66.4300 S   0  0  0  0  0  0  0  0  0  0  0  0
  131.0120  125.4200   65.4880 C   0  0  0  0  0  0  0  0  0  0  0  0
  132.1350  125.4090   66.2490 N   0  0  0  0  0  0  0  0  0  0  0  0
  133.3350  125.3680   65.6280 C   0  0  0  0  0  0  0  0  0  0  0  0
  134.5490  125.3640   66.5370 C   0  0  0  0  0  0  0  0  0  0  0  0
  133.4630  125.3380   64.2420 C   0  0  0  0  0  0  0  0  0  0  0  0
  132.3140  125.3400   63.4380 C   0  0  0  0  0  0  0  0  0  0  0  0
  132.5000  125.3170   61.9550 C   0  0  0  0  0  0  0  0  0  0  0  0
  131.7630  126.1850   61.1410 C   0  0  0  0  0  0  0  0  0  0  0  0
  131.9250  126.1640   59.7570 C   0  0  0  0  0  0  0  0  0  0  0  0
  132.8230  125.2680   59.1830 C   0  0  0  0  0  0  0  0  0  0  0  0
  133.5580  124.3940   59.9780 C   0  0  0  0  0  0  0  0  0  0  0  0
  133.3930  124.4170   61.3610 C   0  0  0  0  0  0  0  0  0  0  0  0
  131.0470  125.3630   64.0750 C   0  0  0  0  0  0  0  0  0  0  0  0
  129.8130  125.2720   63.2890 C   0  0  0  0  0  0  0  0  0  0  0  0
  128.8380  125.2020   62.6690 N   0  0  0  0  0  0  0  0  0  0  0  0
  128.6690  125.5650   71.0460 C   0  0  0  0  0  0  0  0  0  0  0  0
  128.6030  125.4730   72.4450 C   0  0  0  0  0  0  0  0  0  0  0  0
  128.0290  124.4120   73.1240 O   0  0  0  0  0  0  0  0  0  0  0  0
  128.6790  123.1450   73.1230 C   0  0  0  0  0  0  0  0  0  0  0  0
  129.1440  126.5080   73.2180 C   0  0  0  0  0  0  0  0  0  0  0  0
  129.1020  126.4220   74.5890 O   0  0  0  0  0  0  0  0  0  0  0  0
  130.2450  125.8050   75.1660 C   0  0  0  0  0  0  0  0  0  0  0  0
  129.7558  130.4407   74.2401 H   0  0  0  0  0  0  0  0  0  0  0  0
  130.6784  130.4700   72.6991 H   0  0  0  0  0  0  0  0  0  0  0  0
  128.9447  130.0000   72.6991 H   0  0  0  0  0  0  0  0  0  0  0  0
  130.2598  128.5640   70.7304 H   0  0  0  0  0  0  0  0  0  0  0  0
  129.5920  125.7640   68.6170 H   0  0  0  0  0  0  0  0  0  0  0  0
  128.1867  127.4807   66.1424 H   0  0  0  0  0  0  0  0  0  0  0  0
  129.9671  127.8278   66.2459 H   0  0  0  0  0  0  0  0  0  0  0  0
  134.2209  125.3651   67.5869 H   0  0  0  0  0  0  0  0  0  0  0  0
  135.1503  124.4639   66.3417 H   0  0  0  0  0  0  0  0  0  0  0  0
  135.1563  126.2601   66.3417 H   0  0  0  0  0  0  0  0  0  0  0  0
  134.4608  125.3128   63.7797 H   0  0  0  0  0  0  0  0  0  0  0  0
  131.0509  126.8887   61.5969 H   0  0  0  0  0  0  0  0  0  0  0  0
  131.3468  126.8512   59.1218 H   0  0  0  0  0  0  0  0  0  0  0  0
  132.9526  125.2509   58.0908 H   0  0  0  0  0  0  0  0  0  0  0  0
  134.2653  123.6889   59.5170 H   0  0  0  0  0  0  0  0  0  0  0  0
  133.9686  123.7229   61.9911 H   0  0  0  0  0  0  0  0  0  0  0  0
  128.2399  124.7608   70.4303 H   0  0  0  0  0  0  0  0  0  0  0  0
  128.8467  122.8181   74.1598 H   0  0  0  0  0  0  0  0  0  0  0  0
  128.0471  122.4091   72.6042 H   0  0  0  0  0  0  0  0  0  0  0  0
  129.6453  123.2290   72.6042 H   0  0  0  0  0  0  0  0  0  0  0  0
  130.1694  125.8458   76.2626 H   0  0  0  0  0  0  0  0  0  0  0  0
  130.2985  124.7555   74.8410 H   0  0  0  0  0  0  0  0  0  0  0  0
  131.1518  126.3362   74.8410 H   0  0  0  0  0  0  0  0  0  0  0  0
  1  2  1  0
  2  3  1  0
  3  4  2  0
  4  5  1  0
  5  6  1  0
  6  7  1  0
  7  8  2  0
  7  9  1  0
  9 10  1  0
 10 11  1  0
 11 12  2  0
 12 13  1  0
 13 14  1  0
 13 15  2  0
 15 16  1  0
 16 17  1  0
 17 18  2  0
 18 19  1  0
 19 20  2  0
 20 21  1  0
 21 22  2  0
 16 23  2  0
 23 24  1  0
 24 25  3  0
  5 26  2  0
 26 27  1  0
 27 28  1  0
 28 29  1  0
 27 30  2  0
 30 31  1  0
 31 32  1  0
 30  3  1  0
 23 11  1  0
 22 17  1  0
  1 33  1  0
  1 34  1  0
  1 35  1  0
  4 36  1  0
  6 37  1  0
  9 38  1  0
  9 39  1  0
 14 40  1  0
 14 41  1  0
 14 42  1  0
 15 43  1  0
 18 44  1  0
 19 45  1  0
 20 46  1  0
 21 47  1  0
 22 48  1  0
 26 49  1  0
 29 50  1  0
 29 51  1  0
 29 52  1  0
 32 53  1  0
 32 54  1  0
 32 55  1  0
M  END
>  <Binding energies>  (1) 
[-7.84]

>  <Ligand effiencies>  (1) 
[-0.23757575757575758]

>  <Interactions>  (1) 
["V-A:ASP:366:CG:3212, V-A:ILE:369:CD1:3238, V-A:ASP:366:CB:3211, V-A:ASP:366:CA:3209, V-A:ILE:369:CG2:3236, H-A:TYR:484:OH:4347, V-A:ARG:545:CZ:4926, V-A:GLU:543:CD:4908, V-B:HIS:456:CE1:9041, V-A:HIS:456:CE1:4069, V-B:GLU:543:CD:9879, V-A:HIS:456:CD2:4067, V-A:ARG:545:CG:4922, V-A:ARG:545:CD:4923, V-A:GLY:454:CA:4048, H-B:LYS:547:NZ:9922, V-B:LYS:547:CE:9921, V-A:GLY:453:C:4041, V-A:GLY:453:CA:4043, V-A:ILE:369:CB:3235, H-A:LYS:547:NZ:4951, V-A:LYS:547:CE:4950, H-A:HIS:456:NE2:4070"]

$$$$
3ci_Grossjean_2025
     RDKit          3D

 39 41  0  0  0  0  0  0  0  0999 V2000
  130.2260  120.8620   61.5550 C   0  0  0  0  0  0  0  0  0  0  0  0
  129.9490  121.9440   60.5280 C   0  0  0  0  0  0  0  0  0  0  0  0
  128.7550  121.9860   59.8150 C   0  0  0  0  0  0  0  0  0  0  0  0
  128.5380  123.0150   58.8880 C   0  0  0  0  0  0  0  0  0  0  0  0
  127.2360  123.0300   58.1560 C   0  0  0  0  0  0  0  0  0  0  0  0
  127.0940  122.3640   56.9320 C   0  0  0  0  0  0  0  0  0  0  0  0
  125.8800  122.3870   56.2510 C   0  0  0  0  0  0  0  0  0  0  0  0
  124.8020  123.0850   56.7880 C   0  0  0  0  0  0  0  0  0  0  0  0
  124.9290  123.7600   58.0000 C   0  0  0  0  0  0  0  0  0  0  0  0
  126.1440  123.7330   58.6790 C   0  0  0  0  0  0  0  0  0  0  0  0
  129.5620  123.9790   58.7000 C   0  0  0  0  0  0  0  0  0  0  0  0
  129.4090  125.0540   57.7130 C   0  0  0  0  0  0  0  0  0  0  0  0
  129.2880  125.9020   56.9340 N   0  0  0  0  0  0  0  0  0  0  0  0
  130.7440  123.8640   59.4710 C   0  0  0  0  0  0  0  0  0  0  0  0
  132.0870  125.0360   59.3310 S   0  0  0  0  0  0  0  0  0  0  0  0
  131.7520  126.4760   60.3970 C   0  0  0  0  0  0  0  0  0  0  0  0
  131.6930  126.1270   61.8890 C   0  0  0  0  0  0  0  0  0  0  0  0
  130.5950  126.0180   62.4390 O   0  0  0  0  0  0  0  0  0  0  0  0
  132.8870  125.9780   62.5050 N   0  0  0  0  0  0  0  0  0  0  0  0
  133.1120  125.6380   63.8310 C   0  0  0  0  0  0  0  0  0  0  0  0
  132.1960  125.8990   64.8490 C   0  0  0  0  0  0  0  0  0  0  0  0
  132.7880  125.4180   65.9960 C   0  0  0  0  0  0  0  0  0  0  0  0
  133.9970  124.8950   65.6820 O   0  0  0  0  0  0  0  0  0  0  0  0
  134.1920  125.0410   64.3080 N   0  0  0  0  0  0  0  0  0  0  0  0
  130.9300  122.8580   60.3620 N   0  0  0  0  0  0  0  0  0  0  0  0
  130.1188  121.2806   62.5666 H   0  0  0  0  0  0  0  0  0  0  0  0
  129.5099  120.0378   61.4215 H   0  0  0  0  0  0  0  0  0  0  0  0
  131.2501  120.4833   61.4215 H   0  0  0  0  0  0  0  0  0  0  0  0
  127.9860  121.2165   59.9777 H   0  0  0  0  0  0  0  0  0  0  0  0
  127.9486  121.8184   56.5054 H   0  0  0  0  0  0  0  0  0  0  0  0
  125.7732  121.8563   55.2934 H   0  0  0  0  0  0  0  0  0  0  0  0
  123.8421  123.1037   56.2510 H   0  0  0  0  0  0  0  0  0  0  0  0
  124.0739  124.3113   58.4182 H   0  0  0  0  0  0  0  0  0  0  0  0
  126.2469  124.2684   59.6344 H   0  0  0  0  0  0  0  0  0  0  0  0
  132.5502  127.2171   60.2433 H   0  0  0  0  0  0  0  0  0  0  0  0
  130.7631  126.8665   60.1149 H   0  0  0  0  0  0  0  0  0  0  0  0
  133.7150  126.1010   61.9420 H   0  0  0  0  0  0  0  0  0  0  0  0
  131.2131  126.3841   64.7563 H   0  0  0  0  0  0  0  0  0  0  0  0
  132.3495  125.4531   67.0042 H   0  0  0  0  0  0  0  0  0  0  0  0
  1  2  1  0
  2  3  2  0
  3  4  1  0
  4  5  1  0
  5  6  2  0
  6  7  1  0
  7  8  2  0
  8  9  1  0
  9 10  2  0
  4 11  2  0
 11 12  1  0
 12 13  3  0
 11 14  1  0
 14 15  1  0
 15 16  1  0
 16 17  1  0
 17 18  2  0
 17 19  1  0
 19 20  1  0
 20 21  1  0
 21 22  2  0
 22 23  1  0
 23 24  1  0
 14 25  2  0
 25  2  1  0
 10  5  1  0
 24 20  2  0
  1 26  1  0
  1 27  1  0
  1 28  1  0
  3 29  1  0
  6 30  1  0
  7 31  1  0
  8 32  1  0
  9 33  1  0
 10 34  1  0
 16 35  1  0
 16 36  1  0
 19 37  1  0
 21 38  1  0
 22 39  1  0
M  END
>  <Binding energies>  (1) 
[-7.95]

>  <Ligand effiencies>  (1) 
[-0.3057692307692308]

>  <Interactions>  (1) 
["V-B:TYR:539:CE2:9847, V-B:PRO:540:CA:9854, V-B:TYR:539:CD2:9845, V-B:LEU:363:CD1:8160, V-B:PRO:540:CD:9858, V-B:TYR:539:CG:9843, V-B:PRO:540:CB:9856, V-B:ALA:541:CB:9863, V-B:TYR:539:C:9838, V-A:LEU:475:CD2:4258, V-B:PRO:540:N:9855, V-B:TYR:539:CD1:9844, V-B:TYR:539:CE1:9846, V-B:TYR:539:CA:9840, H-A:ASP:366:OD2:3214, V-B:TYR:539:CZ:9848, H-A:GLY:454:N:4049, H-A:ARG:545:NE:4924, H-A:ARG:545:NH1:4927, V-A:ASP:366:CG:3212, V-A:ASP:366:CB:3211, H-A:ASP:366:OD1:3213, H-B:TYR:539:OH:9849, H-A:TYR:484:OH:4347, V-A:ARG:545:CZ:4926, V-B:MET:535:CE:9806, V-A:HIS:456:CE1:4069, H-A:TYR:531:OH:4795"]

$$$$
3cj_Grossjean_2025
     RDKit          3D

 39 41  0  0  0  0  0  0  0  0999 V2000
  130.2750  120.7890   61.8150 C   0  0  0  0  0  0  0  0  0  0  0  0
  130.0300  121.8610   60.7710 C   0  0  0  0  0  0  0  0  0  0  0  0
  128.7940  121.9960   60.1410 C   0  0  0  0  0  0  0  0  0  0  0  0
  128.6050  123.0160   59.1990 C   0  0  0  0  0  0  0  0  0  0  0  0
  127.2470  123.1630   58.5980 C   0  0  0  0  0  0  0  0  0  0  0  0
  126.9640  122.6220   57.3390 C   0  0  0  0  0  0  0  0  0  0  0  0
  125.7000  122.7720   56.7730 C   0  0  0  0  0  0  0  0  0  0  0  0
  124.7150  123.4710   57.4660 C   0  0  0  0  0  0  0  0  0  0  0  0
  124.9840  124.0230   58.7150 C   0  0  0  0  0  0  0  0  0  0  0  0
  126.2490  123.8710   59.2790 C   0  0  0  0  0  0  0  0  0  0  0  0
  129.6990  123.8610   58.8910 C   0  0  0  0  0  0  0  0  0  0  0  0
  129.5720  124.9280   57.8930 C   0  0  0  0  0  0  0  0  0  0  0  0
  129.4700  125.7700   57.1050 N   0  0  0  0  0  0  0  0  0  0  0  0
  130.9150  123.6550   59.5810 C   0  0  0  0  0  0  0  0  0  0  0  0
  132.3230  124.7270   59.3890 S   0  0  0  0  0  0  0  0  0  0  0  0
  131.9080  126.2200   60.3470 C   0  0  0  0  0  0  0  0  0  0  0  0
  131.7310  125.9110   61.8370 C   0  0  0  0  0  0  0  0  0  0  0  0
  130.6430  125.4990   62.2470 O   0  0  0  0  0  0  0  0  0  0  0  0
  132.8320  126.0860   62.5990 N   0  0  0  0  0  0  0  0  0  0  0  0
  132.9740  125.7530   63.9360 C   0  0  0  0  0  0  0  0  0  0  0  0
  134.0210  125.2250   64.5310 N   0  0  0  0  0  0  0  0  0  0  0  0
  133.8160  125.0700   65.8230 C   0  0  0  0  0  0  0  0  0  0  0  0
  132.5750  125.4770   66.3040 C   0  0  0  0  0  0  0  0  0  0  0  0
  131.6310  126.0950   64.9810 S   0  0  0  0  0  0  0  0  0  0  0  0
  131.0740  122.6800   60.5110 N   0  0  0  0  0  0  0  0  0  0  0  0
  130.1752  121.2259   62.8196 H   0  0  0  0  0  0  0  0  0  0  0  0
  129.5382  119.9816   61.6914 H   0  0  0  0  0  0  0  0  0  0  0  0
  131.2894  120.3818   61.6914 H   0  0  0  0  0  0  0  0  0  0  0  0
  127.9719  121.3060   60.3819 H   0  0  0  0  0  0  0  0  0  0  0  0
  127.7455  122.0741   56.7921 H   0  0  0  0  0  0  0  0  0  0  0  0
  125.4814  122.3410   55.7849 H   0  0  0  0  0  0  0  0  0  0  0  0
  123.7153  123.5880   57.0223 H   0  0  0  0  0  0  0  0  0  0  0  0
  124.2015  124.5768   59.2544 H   0  0  0  0  0  0  0  0  0  0  0  0
  126.4649  124.3095   60.2645 H   0  0  0  0  0  0  0  0  0  0  0  0
  132.7184  126.9545   60.2298 H   0  0  0  0  0  0  0  0  0  0  0  0
  130.9556  126.6165   59.9653 H   0  0  0  0  0  0  0  0  0  0  0  0
  133.6680  126.4130   62.1370 H   0  0  0  0  0  0  0  0  0  0  0  0
  134.5833  124.6425   66.4852 H   0  0  0  0  0  0  0  0  0  0  0  0
  132.2448  125.4174   67.3516 H   0  0  0  0  0  0  0  0  0  0  0  0
  1  2  1  0
  2  3  2  0
  3  4  1  0
  4  5  1  0
  5  6  2  0
  6  7  1  0
  7  8  2  0
  8  9  1  0
  9 10  2  0
  4 11  2  0
 11 12  1  0
 12 13  3  0
 11 14  1  0
 14 15  1  0
 15 16  1  0
 16 17  1  0
 17 18  2  0
 17 19  1  0
 19 20  1  0
 20 21  2  0
 21 22  1  0
 22 23  2  0
 23 24  1  0
 14 25  2  0
 25  2  1  0
 10  5  1  0
 24 20  1  0
  1 26  1  0
  1 27  1  0
  1 28  1  0
  3 29  1  0
  6 30  1  0
  7 31  1  0
  8 32  1  0
  9 33  1  0
 10 34  1  0
 16 35  1  0
 16 36  1  0
 19 37  1  0
 22 38  1  0
 23 39  1  0
M  END
>  <Binding energies>  (1) 
[-7.49]

>  <Ligand effiencies>  (1) 
[-0.28807692307692306]

>  <Interactions>  (1) 
["V-B:TYR:539:CE2:9847, V-B:PRO:540:CA:9854, V-B:TYR:539:CD2:9845, V-B:LEU:363:CD1:8160, V-B:PRO:540:CD:9858, V-B:PRO:540:CB:9856, V-B:ALA:541:CB:9863, V-B:TYR:539:C:9838, V-A:LEU:475:CD2:4258, V-B:PRO:540:N:9855, H-A:ASP:366:OD2:3214, V-B:TYR:539:CZ:9848, H-A:ARG:545:NH2:4928, H-A:GLY:454:N:4049, H-A:ARG:545:NE:4924, H-A:ARG:545:NH1:4927, V-A:ASP:366:CG:3212, V-A:ASP:366:CB:3211, H-A:ASP:366:OD1:3213, H-B:TYR:539:OH:9849, V-A:ARG:545:CZ:4926, V-A:GLU:543:CD:4908, V-A:HIS:456:CE1:4069, H-A:TYR:531:OH:4795, V-A:ARG:545:CD:4923, V-A:GLY:454:CA:4048"]

$$$$
3ck_Grossjean_2025
     RDKit          3D

 57 58  0  0  0  0  0  0  0  0999 V2000
  123.7940  131.7660   59.3350 C   0  0  0  0  0  0  0  0  0  0  0  0
  123.8480  132.0080   57.9380 O   0  0  0  0  0  0  0  0  0  0  0  0
  124.1200  130.8430   57.1720 C   0  0  0  0  0  0  0  0  0  0  0  0
  125.4080  130.1830   57.6800 C   0  0  0  0  0  0  0  0  0  0  0  0
  126.1250  129.6420   56.5780 O   0  0  0  0  0  0  0  0  0  0  0  0
  127.2970  128.9260   56.9480 C   0  0  0  0  0  0  0  0  0  0  0  0
  127.3360  128.7840   58.4740 C   0  0  0  0  0  0  0  0  0  0  0  0
  127.5480  127.4160   58.7910 O   0  0  0  0  0  0  0  0  0  0  0  0
  126.9860  126.9960   60.0250 C   0  0  0  0  0  0  0  0  0  0  0  0
  127.7660  127.6340   61.1900 C   0  0  0  0  0  0  0  0  0  0  0  0
  128.1210  126.6870   62.2510 N   0  0  0  0  0  0  0  0  0  0  0  0
  129.3140  126.6110   62.8680 C   0  0  0  0  0  0  0  0  0  0  0  0
  130.2540  127.3680   62.6170 O   0  0  0  0  0  0  0  0  0  0  0  0
  129.4410  125.5070   63.9300 C   0  0  0  0  0  0  0  0  0  0  0  0
  129.3910  123.7970   63.2920 S   0  0  0  0  0  0  0  0  0  0  0  0
  129.4180  123.8370   61.5060 C   0  0  0  0  0  0  0  0  0  0  0  0
  130.6300  124.0740   60.9440 N   0  0  0  0  0  0  0  0  0  0  0  0
  130.7230  124.1220   59.5960 C   0  0  0  0  0  0  0  0  0  0  0  0
  132.1080  124.3930   59.0410 C   0  0  0  0  0  0  0  0  0  0  0  0
  129.6240  123.9400   58.7610 C   0  0  0  0  0  0  0  0  0  0  0  0
  128.3620  123.7010   59.3190 C   0  0  0  0  0  0  0  0  0  0  0  0
  127.2080  123.5350   58.3860 C   0  0  0  0  0  0  0  0  0  0  0  0
  126.0960  124.3800   58.4850 C   0  0  0  0  0  0  0  0  0  0  0  0
  125.0120  124.2240   57.6230 C   0  0  0  0  0  0  0  0  0  0  0  0
  125.0340  123.2170   56.6630 C   0  0  0  0  0  0  0  0  0  0  0  0
  126.1290  122.3630   56.5580 C   0  0  0  0  0  0  0  0  0  0  0  0
  127.2110  122.5210   57.4190 C   0  0  0  0  0  0  0  0  0  0  0  0
  128.2520  123.6350   60.7320 C   0  0  0  0  0  0  0  0  0  0  0  0
  126.9630  123.3460   61.3720 C   0  0  0  0  0  0  0  0  0  0  0  0
  125.9460  123.1170   61.8750 N   0  0  0  0  0  0  0  0  0  0  0  0
  124.0024  132.7001   59.8773 H   0  0  0  0  0  0  0  0  0  0  0  0
  122.7923  131.4008   59.6054 H   0  0  0  0  0  0  0  0  0  0  0  0
  124.5454  131.0095   59.6054 H   0  0  0  0  0  0  0  0  0  0  0  0
  123.2829  130.1362   57.2706 H   0  0  0  0  0  0  0  0  0  0  0  0
  124.2441  131.1212   56.1150 H   0  0  0  0  0  0  0  0  0  0  0  0
  126.0294  130.9341   58.1896 H   0  0  0  0  0  0  0  0  0  0  0  0
  125.1559  129.3783   58.3863 H   0  0  0  0  0  0  0  0  0  0  0  0
  127.2807  127.9282   56.4853 H   0  0  0  0  0  0  0  0  0  0  0  0
  128.1886  129.4701   56.6031 H   0  0  0  0  0  0  0  0  0  0  0  0
  128.1566  129.3917   58.8829 H   0  0  0  0  0  0  0  0  0  0  0  0
  126.3877  129.1308   58.9105 H   0  0  0  0  0  0  0  0  0  0  0  0
  125.9329  127.3100   60.0737 H   0  0  0  0  0  0  0  0  0  0  0  0
  127.0466  125.9003   60.1006 H   0  0  0  0  0  0  0  0  0  0  0  0
  128.6930  128.0701   60.7895 H   0  0  0  0  0  0  0  0  0  0  0  0
  127.1070  128.3901   61.6417 H   0  0  0  0  0  0  0  0  0  0  0  0
  127.3980  126.0390   62.5270 H   0  0  0  0  0  0  0  0  0  0  0  0
  130.3993  125.6467   64.4518 H   0  0  0  0  0  0  0  0  0  0  0  0
  128.5624  125.6125   64.5834 H   0  0  0  0  0  0  0  0  0  0  0  0
  132.8154  124.5314   59.8719 H   0  0  0  0  0  0  0  0  0  0  0  0
  132.4291  123.5407   58.4242 H   0  0  0  0  0  0  0  0  0  0  0  0
  132.0842  125.3035   58.4242 H   0  0  0  0  0  0  0  0  0  0  0  0
  129.7463  123.9837   57.6687 H   0  0  0  0  0  0  0  0  0  0  0  0
  126.0778  125.1721   59.2480 H   0  0  0  0  0  0  0  0  0  0  0  0
  124.1430  124.8939   57.7012 H   0  0  0  0  0  0  0  0  0  0  0  0
  124.1794  123.0945   55.9814 H   0  0  0  0  0  0  0  0  0  0  0  0
  126.1387  121.5675   55.7983 H   0  0  0  0  0  0  0  0  0  0  0  0
  128.0750  121.8448   57.3398 H   0  0  0  0  0  0  0  0  0  0  0  0
  1  2  1  0
  2  3  1  0
  3  4  1  0
  4  5  1  0
  5  6  1  0
  6  7  1  0
  7  8  1  0
  8  9  1  0
  9 10  1  0
 10 11  1  0
 11 12  1  0
 12 13  2  0
 12 14  1  0
 14 15  1  0
 15 16  1  0
 16 17  2  0
 17 18  1  0
 18 19  1  0
 18 20  2  0
 20 21  1  0
 21 22  1  0
 22 23  2  0
 23 24  1  0
 24 25  2  0
 25 26  1  0
 26 27  2  0
 21 28  2  0
 28 29  1  0
 29 30  3  0
 28 16  1  0
 27 22  1  0
  1 31  1  0
  1 32  1  0
  1 33  1  0
  3 34  1  0
  3 35  1  0
  4 36  1  0
  4 37  1  0
  6 38  1  0
  6 39  1  0
  7 40  1  0
  7 41  1  0
  9 42  1  0
  9 43  1  0
 10 44  1  0
 10 45  1  0
 11 46  1  0
 14 47  1  0
 14 48  1  0
 19 49  1  0
 19 50  1  0
 19 51  1  0
 20 52  1  0
 23 53  1  0
 24 54  1  0
 25 55  1  0
 26 56  1  0
 27 57  1  0
M  END
>  <Binding energies>  (1) 
[-6.3]

>  <Ligand effiencies>  (1) 
[-0.2032258064516129]

>  <Interactions>  (1) 
["V-B:TYR:539:CE2:9847, V-B:PRO:540:CA:9854, V-B:TYR:539:CD2:9845, V-B:LEU:363:CD1:8160, V-B:PRO:540:CD:9858, V-B:TYR:539:CG:9843, V-B:PRO:540:CB:9856, V-B:ALA:541:CB:9863, V-B:TYR:539:C:9838, H-B:GLU:543:OE2:9881, V-B:PRO:540:N:9855, V-B:TYR:539:CD1:9844, V-B:TYR:539:CE1:9846, H-B:TYR:531:OH:9766, H-B:ALA:541:N:9862, V-B:TYR:539:CZ:9848, V-A:ILE:369:CG2:3236, V-B:MET:535:CE:9806, V-B:TYR:531:CZ:9765, V-B:GLU:543:CG:9878, V-B:GLU:543:CD:9879, V-B:ILE:369:CB:8207, V-B:ASP:366:CB:8183, V-B:ILE:369:CG2:8208, V-B:ASP:366:CA:8181, H-A:TYR:539:OH:4878, V-B:ASP:366:C:8179, V-B:TYR:531:CE1:9763, V-B:ASN:370:CB:8216"]

$$$$
4aa_Grossjean_2025
     RDKit          3D

 45 47  0  0  0  0  0  0  0  0999 V2000
  127.2690  132.0530   73.1870 C   0  0  0  0  0  0  0  0  0  0  0  0
  128.7160  131.7870   72.7600 C   0  0  0  0  0  0  0  0  0  0  0  0
  128.7750  130.5740   72.0200 O   0  0  0  0  0  0  0  0  0  0  0  0
  129.7500  129.6580   72.2520 C   0  0  0  0  0  0  0  0  0  0  0  0
  130.2940  129.5060   73.3510 O   0  0  0  0  0  0  0  0  0  0  0  0
  130.1060  128.8500   71.0380 C   0  0  0  0  0  0  0  0  0  0  0  0
  129.0950  128.1640   70.3520 C   0  0  0  0  0  0  0  0  0  0  0  0
  129.3940  127.4030   69.2250 C   0  0  0  0  0  0  0  0  0  0  0  0
  130.7060  127.3190   68.7560 C   0  0  0  0  0  0  0  0  0  0  0  0
  130.8970  126.5160   67.6150 N   0  0  0  0  0  0  0  0  0  0  0  0
  130.2670  125.3790   67.2320 C   0  0  0  0  0  0  0  0  0  0  0  0
  129.3980  124.8120   67.8950 O   0  0  0  0  0  0  0  0  0  0  0  0
  130.7080  124.8210   65.9520 C   0  0  0  0  0  0  0  0  0  0  0  0
  129.7760  123.5410   65.1700 S   0  0  0  0  0  0  0  0  0  0  0  0
  130.9240  123.4460   63.8540 C   0  0  0  0  0  0  0  0  0  0  0  0
  130.7690  122.5890   62.8430 N   0  0  0  0  0  0  0  0  0  0  0  0
  131.7320  122.6140   61.8900 C   0  0  0  0  0  0  0  0  0  0  0  0
  131.5400  121.6270   60.7520 C   0  0  0  0  0  0  0  0  0  0  0  0
  132.8320  123.4680   61.9210 C   0  0  0  0  0  0  0  0  0  0  0  0
  132.9900  124.3670   62.9820 C   0  0  0  0  0  0  0  0  0  0  0  0
  134.2070  125.2800   62.9710 C   0  0  0  0  0  0  0  0  0  0  0  0
  132.0030  124.3680   64.0030 C   0  0  0  0  0  0  0  0  0  0  0  0
  131.8570  125.1370   65.2110 C   0  0  0  0  0  0  0  0  0  0  0  0
  132.7700  126.0910   65.5850 N   0  0  0  0  0  0  0  0  0  0  0  0
  131.7250  127.9980   69.4380 C   0  0  0  0  0  0  0  0  0  0  0  0
  131.4250  128.7560   70.5680 C   0  0  0  0  0  0  0  0  0  0  0  0
  127.2070  132.0644   74.2852 H   0  0  0  0  0  0  0  0  0  0  0  0
  126.9429  133.0261   72.7912 H   0  0  0  0  0  0  0  0  0  0  0  0
  126.6181  131.2595   72.7912 H   0  0  0  0  0  0  0  0  0  0  0  0
  129.0720  132.6174   72.1325 H   0  0  0  0  0  0  0  0  0  0  0  0
  129.3531  131.7039   73.6529 H   0  0  0  0  0  0  0  0  0  0  0  0
  128.0558  128.2272   70.7070 H   0  0  0  0  0  0  0  0  0  0  0  0
  128.5909  126.8644   68.7007 H   0  0  0  0  0  0  0  0  0  0  0  0
  131.6290  126.8410   67.0000 H   0  0  0  0  0  0  0  0  0  0  0  0
  131.3452  120.6258   61.1639 H   0  0  0  0  0  0  0  0  0  0  0  0
  130.6862  121.9416   60.1339 H   0  0  0  0  0  0  0  0  0  0  0  0
  132.4495  121.5986   60.1339 H   0  0  0  0  0  0  0  0  0  0  0  0
  133.5764  123.4358   61.1117 H   0  0  0  0  0  0  0  0  0  0  0  0
  134.5063  125.5045   64.0054 H   0  0  0  0  0  0  0  0  0  0  0  0
  135.0363  124.7793   62.4498 H   0  0  0  0  0  0  0  0  0  0  0  0
  133.9583  126.2162   62.4498 H   0  0  0  0  0  0  0  0  0  0  0  0
  133.7320  125.8580   65.7860 H   0  0  0  0  0  0  0  0  0  0  0  0
  132.5080  127.0630   65.6740 H   0  0  0  0  0  0  0  0  0  0  0  0
  132.7632  127.9324   69.0806 H   0  0  0  0  0  0  0  0  0  0  0  0
  132.2304  129.2863   71.0972 H   0  0  0  0  0  0  0  0  0  0  0  0
  1  2  1  0
  2  3  1  0
  3  4  1  0
  4  5  2  0
  4  6  1  0
  6  7  2  0
  7  8  1  0
  8  9  2  0
  9 10  1  0
 10 11  1  0
 11 12  2  0
 11 13  1  0
 13 14  1  0
 14 15  1  0
 15 16  2  0
 16 17  1  0
 17 18  1  0
 17 19  2  0
 19 20  1  0
 20 21  1  0
 20 22  2  0
 22 23  1  0
 23 24  1  0
  9 25  1  0
 25 26  2  0
 26  6  1  0
 23 13  2  0
 22 15  1  0
  1 27  1  0
  1 28  1  0
  1 29  1  0
  2 30  1  0
  2 31  1  0
  7 32  1  0
  8 33  1  0
 10 34  1  0
 18 35  1  0
 18 36  1  0
 18 37  1  0
 19 38  1  0
 21 39  1  0
 21 40  1  0
 21 41  1  0
 24 42  1  0
 24 43  1  0
 25 44  1  0
 26 45  1  0
M  END
>  <Binding energies>  (1) 
[-6.92]

>  <Ligand effiencies>  (1) 
[-0.2386206896551724]

>  <Interactions>  (1) 
["V-B:TYR:539:CE2:9847, V-B:TYR:539:CD2:9845, V-B:ALA:541:CB:9863, V-A:ASP:366:CG:3212, V-A:ILE:369:CD1:3238, V-A:ILE:369:CG2:3236, H-A:TYR:484:OH:4347, H-A:GLU:543:OE2:4910, V-A:ARG:545:CZ:4926, V-A:GLU:543:CD:4908, V-A:GLU:543:CB:4906, V-B:HIS:456:CE1:9041, V-A:HIS:456:CE1:4069, V-B:HIS:456:CG:9037, V-B:GLU:543:CG:9878, V-B:TYR:484:CD1:9314, V-A:TYR:484:CE1:4344, H-A:GLU:543:OE1:4909, V-A:ARG:545:CG:4922, V-A:ARG:545:CD:4923, H-B:HIS:456:ND1:9038, V-A:GLY:453:CA:4043, H-A:LYS:547:NZ:4951, V-B:TYR:484:CG:9313, V-A:GLU:543:C:4902, V-A:ARG:545:CA:4919, V-A:GLY:544:C:4912, V-B:HIS:456:CB:9036, V-B:TYR:484:CD2:9315"]

$$$$
4ab_Grossjean_2025
     RDKit          3D

 42 44  0  0  0  0  0  0  0  0999 V2000
  128.3120  131.3970   73.1090 C   0  0  0  0  0  0  0  0  0  0  0  0
  128.8850  130.6490   72.0460 O   0  0  0  0  0  0  0  0  0  0  0  0
  129.7600  129.6410   72.2940 C   0  0  0  0  0  0  0  0  0  0  0  0
  130.2340  129.4100   73.4110 O   0  0  0  0  0  0  0  0  0  0  0  0
  130.1020  128.8390   71.0710 C   0  0  0  0  0  0  0  0  0  0  0  0
  129.1080  128.0560   70.4680 C   0  0  0  0  0  0  0  0  0  0  0  0
  129.3940  127.3000   69.3340 C   0  0  0  0  0  0  0  0  0  0  0  0
  130.6730  127.3170   68.7770 C   0  0  0  0  0  0  0  0  0  0  0  0
  130.8520  126.5100   67.6370 N   0  0  0  0  0  0  0  0  0  0  0  0
  130.2680  125.3350   67.2980 C   0  0  0  0  0  0  0  0  0  0  0  0
  129.4620  124.7320   68.0070 O   0  0  0  0  0  0  0  0  0  0  0  0
  130.6780  124.7850   66.0050 C   0  0  0  0  0  0  0  0  0  0  0  0
  129.7250  123.5130   65.2350 S   0  0  0  0  0  0  0  0  0  0  0  0
  130.8410  123.4220   63.8930 C   0  0  0  0  0  0  0  0  0  0  0  0
  130.6620  122.5720   62.8810 N   0  0  0  0  0  0  0  0  0  0  0  0
  131.6020  122.6000   61.9050 C   0  0  0  0  0  0  0  0  0  0  0  0
  131.3820  121.6210   60.7670 C   0  0  0  0  0  0  0  0  0  0  0  0
  132.7040  123.4530   61.9150 C   0  0  0  0  0  0  0  0  0  0  0  0
  132.8890  124.3440   62.9780 C   0  0  0  0  0  0  0  0  0  0  0  0
  134.1090  125.2540   62.9440 C   0  0  0  0  0  0  0  0  0  0  0  0
  131.9260  124.3410   64.0230 C   0  0  0  0  0  0  0  0  0  0  0  0
  131.8110  125.1000   65.2390 C   0  0  0  0  0  0  0  0  0  0  0  0
  132.7360  126.0480   65.6000 N   0  0  0  0  0  0  0  0  0  0  0  0
  131.6750  128.0940   69.3760 C   0  0  0  0  0  0  0  0  0  0  0  0
  131.3880  128.8480   70.5110 C   0  0  0  0  0  0  0  0  0  0  0  0
  128.6360  130.9740   74.0713 H   0  0  0  0  0  0  0  0  0  0  0  0
  128.6411  132.4443   73.0394 H   0  0  0  0  0  0  0  0  0  0  0  0
  127.2151  131.3519   73.0394 H   0  0  0  0  0  0  0  0  0  0  0  0
  128.0940  128.0386   70.8939 H   0  0  0  0  0  0  0  0  0  0  0  0
  128.6061  126.6853   68.8743 H   0  0  0  0  0  0  0  0  0  0  0  0
  131.5330  126.8660   66.9840 H   0  0  0  0  0  0  0  0  0  0  0  0
  131.1583  120.6254   61.1779 H   0  0  0  0  0  0  0  0  0  0  0  0
  130.5378  121.9608   60.1490 H   0  0  0  0  0  0  0  0  0  0  0  0
  132.2904  121.5670   60.1490 H   0  0  0  0  0  0  0  0  0  0  0  0
  133.4282  123.4259   61.0875 H   0  0  0  0  0  0  0  0  0  0  0  0
  134.4214  125.4870   63.9726 H   0  0  0  0  0  0  0  0  0  0  0  0
  134.9306  124.7463   62.4174 H   0  0  0  0  0  0  0  0  0  0  0  0
  133.8566  126.1862   62.4174 H   0  0  0  0  0  0  0  0  0  0  0  0
  132.4900  127.0210   65.7030 H   0  0  0  0  0  0  0  0  0  0  0  0
  133.7020  125.8000   65.7700 H   0  0  0  0  0  0  0  0  0  0  0  0
  132.6886  128.1079   68.9489 H   0  0  0  0  0  0  0  0  0  0  0  0
  132.1785  129.4573   70.9735 H   0  0  0  0  0  0  0  0  0  0  0  0
  1  2  1  0
  2  3  1  0
  3  4  2  0
  3  5  1  0
  5  6  2  0
  6  7  1  0
  7  8  2  0
  8  9  1  0
  9 10  1  0
 10 11  2  0
 10 12  1  0
 12 13  1  0
 13 14  1  0
 14 15  2  0
 15 16  1  0
 16 17  1  0
 16 18  2  0
 18 19  1  0
 19 20  1  0
 19 21  2  0
 21 22  1  0
 22 23  1  0
  8 24  1  0
 24 25  2  0
 25  5  1  0
 22 12  2  0
 21 14  1  0
  1 26  1  0
  1 27  1  0
  1 28  1  0
  6 29  1  0
  7 30  1  0
  9 31  1  0
 17 32  1  0
 17 33  1  0
 17 34  1  0
 18 35  1  0
 20 36  1  0
 20 37  1  0
 20 38  1  0
 23 39  1  0
 23 40  1  0
 24 41  1  0
 25 42  1  0
M  END
>  <Binding energies>  (1) 
[-6.68]

>  <Ligand effiencies>  (1) 
[-0.23857142857142857]

>  <Interactions>  (1) 
["V-B:TYR:539:CE2:9847, V-B:TYR:539:CD2:9845, V-B:ALA:541:CB:9863, V-A:ASP:366:CG:3212, V-A:ILE:369:CD1:3238, V-A:ILE:369:CG2:3236, H-A:TYR:484:OH:4347, H-A:GLU:543:OE2:4910, V-A:ARG:545:CZ:4926, V-A:GLU:543:CD:4908, V-A:GLU:543:CB:4906, V-B:HIS:456:CE1:9041, V-A:TYR:484:CZ:4346, V-A:HIS:456:CE1:4069, V-B:HIS:456:CG:9037, V-B:GLU:543:CG:9878, V-B:GLU:543:CD:9879, V-A:TYR:484:CE1:4344, H-A:GLU:543:OE1:4909, V-A:ARG:545:CG:4922, V-A:ARG:545:CD:4923, V-A:GLY:453:CA:4043, H-A:LYS:547:NZ:4951, V-A:GLU:543:C:4902, V-A:ARG:545:CA:4919, V-A:GLY:544:C:4912"]

$$$$
4ac_Grossjean_2025
     RDKit          3D

 40 42  0  0  0  0  0  0  0  0999 V2000
  129.4950  129.8940   74.2950 C   0  0  0  0  0  0  0  0  0  0  0  0
  130.2470  128.7570   73.8820 O   0  0  0  0  0  0  0  0  0  0  0  0
  130.2300  128.3830   72.5530 C   0  0  0  0  0  0  0  0  0  0  0  0
  131.3240  128.7750   71.7820 C   0  0  0  0  0  0  0  0  0  0  0  0
  131.3940  128.4430   70.4310 C   0  0  0  0  0  0  0  0  0  0  0  0
  130.3720  127.7040   69.8360 C   0  0  0  0  0  0  0  0  0  0  0  0
  130.5230  127.4270   68.4640 N   0  0  0  0  0  0  0  0  0  0  0  0
  129.9130  126.4830   67.7080 C   0  0  0  0  0  0  0  0  0  0  0  0
  129.1110  125.6580   68.1500 O   0  0  0  0  0  0  0  0  0  0  0  0
  130.2730  126.4870   66.2870 C   0  0  0  0  0  0  0  0  0  0  0  0
  129.1840  127.1950   65.0930 S   0  0  0  0  0  0  0  0  0  0  0  0
  130.2820  126.8030   63.7900 C   0  0  0  0  0  0  0  0  0  0  0  0
  130.0090  127.1070   62.5200 N   0  0  0  0  0  0  0  0  0  0  0  0
  130.9430  126.7480   61.6080 C   0  0  0  0  0  0  0  0  0  0  0  0
  130.6130  127.1030   60.1700 C   0  0  0  0  0  0  0  0  0  0  0  0
  132.1330  126.0970   61.9310 C   0  0  0  0  0  0  0  0  0  0  0  0
  132.4170  125.7790   63.2640 C   0  0  0  0  0  0  0  0  0  0  0  0
  133.7270  125.0690   63.5660 C   0  0  0  0  0  0  0  0  0  0  0  0
  131.4600  126.1430   64.2500 C   0  0  0  0  0  0  0  0  0  0  0  0
  131.4300  125.9760   65.6780 C   0  0  0  0  0  0  0  0  0  0  0  0
  132.4500  125.3690   66.3660 N   0  0  0  0  0  0  0  0  0  0  0  0
  129.2620  127.3160   70.6010 C   0  0  0  0  0  0  0  0  0  0  0  0
  129.1950  127.6510   71.9510 C   0  0  0  0  0  0  0  0  0  0  0  0
  129.4673  129.9359   75.3939 H   0  0  0  0  0  0  0  0  0  0  0  0
  129.9676  130.8076   73.9050 H   0  0  0  0  0  0  0  0  0  0  0  0
  128.4694  129.8166   73.9050 H   0  0  0  0  0  0  0  0  0  0  0  0
  132.1387  129.3514   72.2447 H   0  0  0  0  0  0  0  0  0  0  0  0
  132.2583  128.7648   69.8315 H   0  0  0  0  0  0  0  0  0  0  0  0
  131.2100  127.9990   67.9940 H   0  0  0  0  0  0  0  0  0  0  0  0
  129.8641  127.9086   60.1538 H   0  0  0  0  0  0  0  0  0  0  0  0
  131.5256  127.4404   59.6569 H   0  0  0  0  0  0  0  0  0  0  0  0
  130.2100  126.2174   59.6569 H   0  0  0  0  0  0  0  0  0  0  0  0
  132.8485  125.8334   61.1382 H   0  0  0  0  0  0  0  0  0  0  0  0
  133.8618  124.9959   64.6553 H   0  0  0  0  0  0  0  0  0  0  0  0
  133.7055  124.0591   63.1306 H   0  0  0  0  0  0  0  0  0  0  0  0
  134.5615  125.6383   63.1306 H   0  0  0  0  0  0  0  0  0  0  0  0
  133.4190  125.5730   66.1720 H   0  0  0  0  0  0  0  0  0  0  0  0
  132.2620  124.6950   67.0950 H   0  0  0  0  0  0  0  0  0  0  0  0
  128.4444  126.7470   70.1344 H   0  0  0  0  0  0  0  0  0  0  0  0
  128.3257  127.3400   72.5490 H   0  0  0  0  0  0  0  0  0  0  0  0
  1  2  1  0
  2  3  1  0
  3  4  2  0
  4  5  1  0
  5  6  2  0
  6  7  1  0
  7  8  1  0
  8  9  2  0
  8 10  1  0
 10 11  1  0
 11 12  1  0
 12 13  2  0
 13 14  1  0
 14 15  1  0
 14 16  2  0
 16 17  1  0
 17 18  1  0
 17 19  2  0
 19 20  1  0
 20 21  1  0
  6 22  1  0
 22 23  2  0
 23  3  1  0
 20 10  2  0
 19 12  1  0
  1 24  1  0
  1 25  1  0
  1 26  1  0
  4 27  1  0
  5 28  1  0
  7 29  1  0
 15 30  1  0
 15 31  1  0
 15 32  1  0
 16 33  1  0
 18 34  1  0
 18 35  1  0
 18 36  1  0
 21 37  1  0
 21 38  1  0
 22 39  1  0
 23 40  1  0
M  END
>  <Binding energies>  (1) 
[-6.3]

>  <Ligand effiencies>  (1) 
[-0.2423076923076923]

>  <Interactions>  (1) 
["V-A:ASP:366:CG:3212, H-A:TYR:484:OH:4347, H-A:GLU:543:OE2:4910, V-A:ARG:545:CZ:4926, V-A:GLU:543:CD:4908, V-A:GLU:543:CB:4906, V-B:HIS:456:CE1:9041, V-A:HIS:456:CE1:4069, V-B:HIS:456:CD2:9039, V-B:GLU:543:CD:9879, H-A:LYS:547:NZ:4951, V-A:LYS:547:CE:4950, V-A:ARG:545:CA:4919, V-A:GLY:544:C:4912, H-A:HIS:456:NE2:4070"]

$$$$
4ad_Grossjean_2025
     RDKit          3D

 36 38  0  0  0  0  0  0  0  0999 V2000
  134.4820  125.3730   66.0750 C   0  0  0  0  0  0  0  0  0  0  0  0
  133.1510  125.1450   65.3830 C   0  0  0  0  0  0  0  0  0  0  0  0
  131.9840  125.7390   65.8600 C   0  0  0  0  0  0  0  0  0  0  0  0
  130.7660  125.5130   65.2070 C   0  0  0  0  0  0  0  0  0  0  0  0
  129.5190  126.1800   65.7670 C   0  0  0  0  0  0  0  0  0  0  0  0
  130.7740  124.6700   64.0630 C   0  0  0  0  0  0  0  0  0  0  0  0
  129.7320  124.2340   63.1730 C   0  0  0  0  0  0  0  0  0  0  0  0
  128.4260  124.6270   63.3270 N   0  0  0  0  0  0  0  0  0  0  0  0
  130.1760  123.3820   62.1480 C   0  0  0  0  0  0  0  0  0  0  0  0
  129.3910  122.7460   61.0890 C   0  0  0  0  0  0  0  0  0  0  0  0
  129.5520  121.5540   60.8190 O   0  0  0  0  0  0  0  0  0  0  0  0
  128.4980  123.5510   60.4630 N   0  0  0  0  0  0  0  0  0  0  0  0
  127.6330  123.2650   59.3890 C   0  0  0  0  0  0  0  0  0  0  0  0
  126.3250  123.7420   59.5140 C   0  0  0  0  0  0  0  0  0  0  0  0
  125.3970  123.5200   58.5010 C   0  0  0  0  0  0  0  0  0  0  0  0
  125.7790  122.8260   57.3560 C   0  0  0  0  0  0  0  0  0  0  0  0
  127.0820  122.3570   57.2130 C   0  0  0  0  0  0  0  0  0  0  0  0
  128.0120  122.5770   58.2250 C   0  0  0  0  0  0  0  0  0  0  0  0
  131.9140  123.1030   62.2620 S   0  0  0  0  0  0  0  0  0  0  0  0
  132.0350  124.1230   63.6770 C   0  0  0  0  0  0  0  0  0  0  0  0
  133.1960  124.3370   64.2970 N   0  0  0  0  0  0  0  0  0  0  0  0
  134.3374  125.3482   67.1652 H   0  0  0  0  0  0  0  0  0  0  0  0
  135.1884  124.5828   65.7807 H   0  0  0  0  0  0  0  0  0  0  0  0
  134.8851  126.3533   65.7807 H   0  0  0  0  0  0  0  0  0  0  0  0
  132.0196  126.3853   66.7494 H   0  0  0  0  0  0  0  0  0  0  0  0
  129.5551  126.1607   66.8662 H   0  0  0  0  0  0  0  0  0  0  0  0
  129.4737  127.2228   65.4199 H   0  0  0  0  0  0  0  0  0  0  0  0
  128.6264  125.6389   65.4199 H   0  0  0  0  0  0  0  0  0  0  0  0
  127.7400  124.0380   63.7740 H   0  0  0  0  0  0  0  0  0  0  0  0
  128.1080  125.5300   63.0000 H   0  0  0  0  0  0  0  0  0  0  0  0
  128.4210  124.4920   60.8210 H   0  0  0  0  0  0  0  0  0  0  0  0
  126.0279  124.2953   60.4171 H   0  0  0  0  0  0  0  0  0  0  0  0
  124.3666  123.8910   58.6044 H   0  0  0  0  0  0  0  0  0  0  0  0
  125.0445  122.6466   56.5570 H   0  0  0  0  0  0  0  0  0  0  0  0
  127.3758  121.8140   56.3026 H   0  0  0  0  0  0  0  0  0  0  0  0
  129.0436  122.2120   58.1130 H   0  0  0  0  0  0  0  0  0  0  0  0
  1  2  1  0
  2  3  2  0
  3  4  1  0
  4  5  1  0
  4  6  2  0
  6  7  1  0
  7  8  1  0
  7  9  2  0
  9 10  1  0
 10 11  2  0
 10 12  1  0
 12 13  1  0
 13 14  2  0
 14 15  1  0
 15 16  2  0
 16 17  1  0
 17 18  2  0
  9 19  1  0
 19 20  1  0
 20 21  2  0
 21  2  1  0
 20  6  1  0
 18 13  1  0
  1 22  1  0
  1 23  1  0
  1 24  1  0
  3 25  1  0
  5 26  1  0
  5 27  1  0
  5 28  1  0
  8 29  1  0
  8 30  1  0
 12 31  1  0
 14 32  1  0
 15 33  1  0
 16 34  1  0
 17 35  1  0
 18 36  1  0
M  END
>  <Binding energies>  (1) 
[-6.58]

>  <Ligand effiencies>  (1) 
[-0.27416666666666667]

>  <Interactions>  (1) 
["V-B:TYR:539:CE2:9847, V-B:PRO:540:CA:9854, V-B:TYR:539:CD2:9845, V-B:PRO:540:CD:9858, V-B:TYR:539:CG:9843, V-B:PRO:540:CB:9856, V-B:TYR:539:C:9838, H-B:GLU:543:OE2:9881, V-B:PRO:540:N:9855, V-B:TYR:539:CD1:9844, V-B:TYR:539:CE1:9846, V-B:TYR:539:CZ:9848, H-A:GLY:454:N:4049, H-A:TYR:484:OH:4347, V-A:ARG:545:CZ:4926, V-B:GLU:543:CG:9878, V-B:GLU:543:CD:9879, V-A:ARG:545:CG:4922, V-A:ARG:545:CD:4923, V-A:GLY:454:CA:4048, V-A:GLY:453:C:4041, V-A:GLY:453:CA:4043"]

$$$$
4ae_Grossjean_2025
     RDKit          3D

 38 40  0  0  0  0  0  0  0  0999 V2000
  124.2620  123.9600   58.5960 C   0  0  0  0  0  0  0  0  0  0  0  0
  125.7010  123.4920   58.5090 C   0  0  0  0  0  0  0  0  0  0  0  0
  126.1670  122.7590   57.4150 C   0  0  0  0  0  0  0  0  0  0  0  0
  127.5030  122.3560   57.4070 C   0  0  0  0  0  0  0  0  0  0  0  0
  128.3310  122.6900   58.4810 C   0  0  0  0  0  0  0  0  0  0  0  0
  127.8020  123.4340   59.5410 C   0  0  0  0  0  0  0  0  0  0  0  0
  128.6790  123.7230   60.6010 N   0  0  0  0  0  0  0  0  0  0  0  0
  129.6250  122.9280   61.1600 C   0  0  0  0  0  0  0  0  0  0  0  0
  129.8540  121.7730   60.7950 O   0  0  0  0  0  0  0  0  0  0  0  0
  130.3830  123.5310   62.2580 C   0  0  0  0  0  0  0  0  0  0  0  0
  132.1220  123.2620   62.3940 S   0  0  0  0  0  0  0  0  0  0  0  0
  132.2030  124.2120   63.8590 C   0  0  0  0  0  0  0  0  0  0  0  0
  133.3490  124.4020   64.5140 N   0  0  0  0  0  0  0  0  0  0  0  0
  133.2740  125.1530   65.6390 C   0  0  0  0  0  0  0  0  0  0  0  0
  134.5880  125.3510   66.3730 C   0  0  0  0  0  0  0  0  0  0  0  0
  132.0920  125.7160   66.1190 C   0  0  0  0  0  0  0  0  0  0  0  0
  130.8910  125.5150   65.4280 C   0  0  0  0  0  0  0  0  0  0  0  0
  129.6270  126.1460   65.9920 C   0  0  0  0  0  0  0  0  0  0  0  0
  130.9300  124.7300   64.2430 C   0  0  0  0  0  0  0  0  0  0  0  0
  129.9100  124.3290   63.3120 C   0  0  0  0  0  0  0  0  0  0  0  0
  128.5970  124.7000   63.4580 N   0  0  0  0  0  0  0  0  0  0  0  0
  126.4940  123.8270   59.5590 N   0  0  0  0  0  0  0  0  0  0  0  0
  123.9705  124.0548   59.6524 H   0  0  0  0  0  0  0  0  0  0  0  0
  124.1634  124.9365   58.0994 H   0  0  0  0  0  0  0  0  0  0  0  0
  123.6078  123.2283   58.0994 H   0  0  0  0  0  0  0  0  0  0  0  0
  125.4971  122.5056   56.5801 H   0  0  0  0  0  0  0  0  0  0  0  0
  127.9016  121.7787   56.5598 H   0  0  0  0  0  0  0  0  0  0  0  0
  129.3841  122.3725   58.4932 H   0  0  0  0  0  0  0  0  0  0  0  0
  128.5420  124.6270   61.0280 H   0  0  0  0  0  0  0  0  0  0  0  0
  134.4095  125.3241   67.4581 H   0  0  0  0  0  0  0  0  0  0  0  0
  135.2871  124.5481   66.0964 H   0  0  0  0  0  0  0  0  0  0  0  0
  135.0195  126.3243   66.0964 H   0  0  0  0  0  0  0  0  0  0  0  0
  132.1032  126.3176   67.0399 H   0  0  0  0  0  0  0  0  0  0  0  0
  129.6664  126.1264   67.0911 H   0  0  0  0  0  0  0  0  0  0  0  0
  129.5515  127.1876   65.6464 H   0  0  0  0  0  0  0  0  0  0  0  0
  128.7491  125.5804   65.6464 H   0  0  0  0  0  0  0  0  0  0  0  0
  128.1850  125.4370   62.9010 H   0  0  0  0  0  0  0  0  0  0  0  0
  127.9950  124.2460   64.1300 H   0  0  0  0  0  0  0  0  0  0  0  0
  1  2  1  0
  2  3  2  0
  3  4  1  0
  4  5  2  0
  5  6  1  0
  6  7  1  0
  7  8  1  0
  8  9  2  0
  8 10  1  0
 10 11  1  0
 11 12  1  0
 12 13  2  0
 13 14  1  0
 14 15  1  0
 14 16  2  0
 16 17  1  0
 17 18  1  0
 17 19  2  0
 19 20  1  0
 20 21  1  0
  6 22  2  0
 22  2  1  0
 20 10  2  0
 19 12  1  0
  1 23  1  0
  1 24  1  0
  1 25  1  0
  3 26  1  0
  4 27  1  0
  5 28  1  0
  7 29  1  0
 15 30  1  0
 15 31  1  0
 15 32  1  0
 16 33  1  0
 18 34  1  0
 18 35  1  0
 18 36  1  0
 21 37  1  0
 21 38  1  0
M  END
>  <Binding energies>  (1) 
[-6.8]

>  <Ligand effiencies>  (1) 
[-0.272]

>  <Interactions>  (1) 
["V-B:TYR:539:CE2:9847, V-B:PRO:540:CA:9854, V-B:TYR:539:CD2:9845, V-B:LEU:363:CD1:8160, V-B:PRO:540:CD:9858, V-B:TYR:539:CG:9843, V-B:PRO:540:CB:9856, V-B:TYR:539:C:9838, H-B:GLU:543:OE2:9881, V-B:PRO:540:N:9855, V-B:TYR:539:CD1:9844, V-B:TYR:539:CE1:9846, V-B:TYR:539:CZ:9848, H-A:GLY:454:N:4049, H-A:TYR:484:OH:4347, V-A:ARG:545:CZ:4926, V-B:LEU:363:CA:8156, V-A:HIS:456:CE1:4069, V-B:GLU:543:CG:9878, V-B:GLU:543:CD:9879, V-A:ARG:545:CG:4922, V-A:ARG:545:CD:4923, V-A:GLY:454:CA:4048, H-B:GLU:543:OE1:9880, V-A:GLY:453:C:4041, V-A:GLY:453:CA:4043"]

$$$$
4af_Grossjean_2025
     RDKit          3D

 35 37  0  0  0  0  0  0  0  0999 V2000
  125.9950  122.4020   56.3310 C   0  0  0  0  0  0  0  0  0  0  0  0
  126.3860  122.7770   57.7490 C   0  0  0  0  0  0  0  0  0  0  0  0
  125.4970  123.4500   58.5840 C   0  0  0  0  0  0  0  0  0  0  0  0
  125.8800  123.7880   59.8880 C   0  0  0  0  0  0  0  0  0  0  0  0
  124.8760  124.5220   60.7610 C   0  0  0  0  0  0  0  0  0  0  0  0
  127.1880  123.4240   60.3100 C   0  0  0  0  0  0  0  0  0  0  0  0
  127.8940  123.6110   61.5490 C   0  0  0  0  0  0  0  0  0  0  0  0
  127.3270  124.2450   62.6260 N   0  0  0  0  0  0  0  0  0  0  0  0
  129.1970  123.0890   61.5470 C   0  0  0  0  0  0  0  0  0  0  0  0
  130.1960  123.1300   62.6170 C   0  0  0  0  0  0  0  0  0  0  0  0
  130.7300  122.0940   63.0160 O   0  0  0  0  0  0  0  0  0  0  0  0
  130.4800  124.3640   63.0980 N   0  0  0  0  0  0  0  0  0  0  0  0
  131.3450  124.7410   64.1430 C   0  0  0  0  0  0  0  0  0  0  0  0
  130.9520  125.3540   65.3470 C   0  0  0  0  0  0  0  0  0  0  0  0
  131.9170  125.6930   66.2970 C   0  0  0  0  0  0  0  0  0  0  0  0
  133.2560  125.4150   66.0190 C   0  0  0  0  0  0  0  0  0  0  0  0
  133.6620  124.8320   64.8630 N   0  0  0  0  0  0  0  0  0  0  0  0
  132.7130  124.5080   63.9490 C   0  0  0  0  0  0  0  0  0  0  0  0
  129.5840  122.3480   59.9920 S   0  0  0  0  0  0  0  0  0  0  0  0
  128.0010  122.7380   59.3590 C   0  0  0  0  0  0  0  0  0  0  0  0
  127.6390  122.4140   58.1170 N   0  0  0  0  0  0  0  0  0  0  0  0
  125.2014  121.6408   56.3586 H   0  0  0  0  0  0  0  0  0  0  0  0
  125.6285  123.2949   55.8034 H   0  0  0  0  0  0  0  0  0  0  0  0
  126.8718  121.9985   55.8034 H   0  0  0  0  0  0  0  0  0  0  0  0
  124.4940  123.7160   58.2191 H   0  0  0  0  0  0  0  0  0  0  0  0
  125.1147  124.3475   61.8205 H   0  0  0  0  0  0  0  0  0  0  0  0
  124.9233  125.6000   60.5472 H   0  0  0  0  0  0  0  0  0  0  0  0
  123.8632  124.1499   60.5472 H   0  0  0  0  0  0  0  0  0  0  0  0
  126.4400  123.9520   63.0120 H   0  0  0  0  0  0  0  0  0  0  0  0
  127.7830  125.0280   63.0730 H   0  0  0  0  0  0  0  0  0  0  0  0
  130.0140  125.1370   62.6450 H   0  0  0  0  0  0  0  0  0  0  0  0
  129.8896  125.5650   65.5387 H   0  0  0  0  0  0  0  0  0  0  0  0
  131.6279  126.1695   67.2453 H   0  0  0  0  0  0  0  0  0  0  0  0
  134.0152  125.6800   66.7696 H   0  0  0  0  0  0  0  0  0  0  0  0
  133.0340  124.0384   63.0075 H   0  0  0  0  0  0  0  0  0  0  0  0
  1  2  1  0
  2  3  2  0
  3  4  1  0
  4  5  1  0
  4  6  2  0
  6  7  1  0
  7  8  1  0
  7  9  2  0
  9 10  1  0
 10 11  2  0
 10 12  1  0
 12 13  1  0
 13 14  2  0
 14 15  1  0
 15 16  2  0
 16 17  1  0
 17 18  2  0
  9 19  1  0
 19 20  1  0
 20 21  2  0
 21  2  1  0
 20  6  1  0
 18 13  1  0
  1 22  1  0
  1 23  1  0
  1 24  1  0
  3 25  1  0
  5 26  1  0
  5 27  1  0
  5 28  1  0
  8 29  1  0
  8 30  1  0
 12 31  1  0
 14 32  1  0
 15 33  1  0
 16 34  1  0
 18 35  1  0
M  END
>  <Binding energies>  (1) 
[-6.95]

>  <Ligand effiencies>  (1) 
[-0.28958333333333336]

>  <Interactions>  (1) 
["V-B:TYR:539:CE2:9847, V-B:PRO:540:CA:9854, V-B:TYR:539:CD2:9845, V-B:PRO:540:CD:9858, V-B:PRO:540:CB:9856, V-B:ALA:541:CB:9863, V-B:TYR:539:C:9838, H-B:GLU:543:OE2:9881, V-B:PRO:540:N:9855, H-A:GLY:454:N:4049, H-A:TYR:484:OH:4347, V-A:ARG:545:CZ:4926, V-A:HIS:456:CE1:4069, V-B:GLU:543:CG:9878, V-B:GLU:543:CD:9879, V-A:ARG:545:CD:4923, V-B:ASP:366:CG:8184"]

$$$$
4ag_Grossjean_2025
     RDKit          3D

 39 41  0  0  0  0  0  0  0  0999 V2000
  134.6900  125.3630   66.5880 C   0  0  0  0  0  0  0  0  0  0  0  0
  133.3810  125.1500   65.8500 C   0  0  0  0  0  0  0  0  0  0  0  0
  132.2320  125.8510   66.2120 C   0  0  0  0  0  0  0  0  0  0  0  0
  131.0350  125.6400   65.5180 C   0  0  0  0  0  0  0  0  0  0  0  0
  129.8080  126.4290   65.9500 C   0  0  0  0  0  0  0  0  0  0  0  0
  131.0440  124.7010   64.4520 C   0  0  0  0  0  0  0  0  0  0  0  0
  130.0200  124.2510   63.5490 C   0  0  0  0  0  0  0  0  0  0  0  0
  128.7340  124.7270   63.6010 N   0  0  0  0  0  0  0  0  0  0  0  0
  130.4570  123.2890   62.6270 C   0  0  0  0  0  0  0  0  0  0  0  0
  129.6910  122.6290   61.5690 C   0  0  0  0  0  0  0  0  0  0  0  0
  129.8200  121.4250   61.3390 O   0  0  0  0  0  0  0  0  0  0  0  0
  128.8580  123.4180   60.8590 N   0  0  0  0  0  0  0  0  0  0  0  0
  127.9810  122.9690   59.7790 C   0  0  0  0  0  0  0  0  0  0  0  0
  126.5350  123.4290   59.9230 C   0  0  0  0  0  0  0  0  0  0  0  0
  125.7800  123.7170   58.7820 C   0  0  0  0  0  0  0  0  0  0  0  0
  124.4510  124.1140   58.9100 C   0  0  0  0  0  0  0  0  0  0  0  0
  123.8780  124.2110   60.1770 C   0  0  0  0  0  0  0  0  0  0  0  0
  124.6210  123.9110   61.3170 C   0  0  0  0  0  0  0  0  0  0  0  0
  125.9490  123.5140   61.1890 C   0  0  0  0  0  0  0  0  0  0  0  0
  132.1680  122.9220   62.8480 S   0  0  0  0  0  0  0  0  0  0  0  0
  132.2850  124.0500   64.1800 C   0  0  0  0  0  0  0  0  0  0  0  0
  133.4270  124.2500   64.8390 N   0  0  0  0  0  0  0  0  0  0  0  0
  134.5085  125.3335   67.6725 H   0  0  0  0  0  0  0  0  0  0  0  0
  135.3994  124.5685   66.3132 H   0  0  0  0  0  0  0  0  0  0  0  0
  135.1109  126.3414   66.3132 H   0  0  0  0  0  0  0  0  0  0  0  0
  132.2660  126.5704   67.0435 H   0  0  0  0  0  0  0  0  0  0  0  0
  129.7600  126.4599   67.0485 H   0  0  0  0  0  0  0  0  0  0  0  0
  129.8742  127.4542   65.5569 H   0  0  0  0  0  0  0  0  0  0  0  0
  128.9027  125.9434   65.5569 H   0  0  0  0  0  0  0  0  0  0  0  0
  128.4580  125.5710   63.1200 H   0  0  0  0  0  0  0  0  0  0  0  0
  128.0160  124.2440   64.1240 H   0  0  0  0  0  0  0  0  0  0  0  0
  128.7590  124.3830   61.1400 H   0  0  0  0  0  0  0  0  0  0  0  0
  128.3750  123.3587   58.8288 H   0  0  0  0  0  0  0  0  0  0  0  0
  127.9703  121.8696   59.8139 H   0  0  0  0  0  0  0  0  0  0  0  0
  126.2350  123.6302   57.7843 H   0  0  0  0  0  0  0  0  0  0  0  0
  123.8563  124.3499   58.0152 H   0  0  0  0  0  0  0  0  0  0  0  0
  122.8293  124.5274   60.2779 H   0  0  0  0  0  0  0  0  0  0  0  0
  124.1604  123.9875   62.3130 H   0  0  0  0  0  0  0  0  0  0  0  0
  126.5376  123.2670   62.0848 H   0  0  0  0  0  0  0  0  0  0  0  0
  1  2  1  0
  2  3  2  0
  3  4  1  0
  4  5  1  0
  4  6  2  0
  6  7  1  0
  7  8  1  0
  7  9  2  0
  9 10  1  0
 10 11  2  0
 10 12  1  0
 12 13  1  0
 13 14  1  0
 14 15  2  0
 15 16  1  0
 16 17  2  0
 17 18  1  0
 18 19  2  0
  9 20  1  0
 20 21  1  0
 21 22  2  0
 22  2  1  0
 21  6  1  0
 19 14  1  0
  1 23  1  0
  1 24  1  0
  1 25  1  0
  3 26  1  0
  5 27  1  0
  5 28  1  0
  5 29  1  0
  8 30  1  0
  8 31  1  0
 12 32  1  0
 13 33  1  0
 13 34  1  0
 15 35  1  0
 16 36  1  0
 17 37  1  0
 18 38  1  0
 19 39  1  0
M  END
>  <Binding energies>  (1) 
[-7.02]

>  <Ligand effiencies>  (1) 
[-0.2808]

>  <Interactions>  (1) 
["V-B:PRO:540:CA:9854, V-B:PRO:540:CB:9856, V-B:ALA:541:CB:9863, H-B:GLU:543:OE2:9881, H-A:GLY:454:N:4049, H-A:TYR:484:OH:4347, V-A:ARG:545:CZ:4926, V-B:LEU:363:CA:8156, V-A:GLU:543:CD:4908, V-A:HIS:456:CE1:4069, V-B:GLU:543:CG:9878, V-B:GLU:543:CD:9879, V-B:PRO:540:C:9852, V-B:ASN:362:CB:8147, V-A:ARG:545:CG:4922, V-A:ARG:545:CD:4923, V-A:GLY:454:CA:4048, V-B:ASP:366:CG:8184, V-A:GLY:453:C:4041, V-A:GLY:453:CA:4043, V-B:ASN:362:C:8143"]

$$$$
4ah_Grossjean_2025
     RDKit          3D

 51 53  0  0  0  0  0  0  0  0999 V2000
  128.7480  123.9180   72.8390 C   0  0  0  0  0  0  0  0  0  0  0  0
  128.7630  125.3110   73.1300 O   0  0  0  0  0  0  0  0  0  0  0  0
  129.0850  126.2110   72.1290 C   0  0  0  0  0  0  0  0  0  0  0  0
  128.5210  126.1870   70.8430 C   0  0  0  0  0  0  0  0  0  0  0  0
  128.8940  127.1260   69.8820 C   0  0  0  0  0  0  0  0  0  0  0  0
  128.2370  127.1140   68.5060 C   0  0  0  0  0  0  0  0  0  0  0  0
  128.9950  126.3660   67.5020 N   0  0  0  0  0  0  0  0  0  0  0  0
  129.3900  125.0810   67.6180 C   0  0  0  0  0  0  0  0  0  0  0  0
  129.1750  124.4080   68.6280 O   0  0  0  0  0  0  0  0  0  0  0  0
  130.1340  124.5350   66.4840 C   0  0  0  0  0  0  0  0  0  0  0  0
  129.5580  123.0830   65.6630 S   0  0  0  0  0  0  0  0  0  0  0  0
  130.9280  123.1020   64.5750 C   0  0  0  0  0  0  0  0  0  0  0  0
  131.0870  122.1810   63.6230 N   0  0  0  0  0  0  0  0  0  0  0  0
  132.1890  122.3110   62.8470 C   0  0  0  0  0  0  0  0  0  0  0  0
  132.3520  121.2510   61.7730 C   0  0  0  0  0  0  0  0  0  0  0  0
  133.1270  123.3300   62.9970 C   0  0  0  0  0  0  0  0  0  0  0  0
  132.9600  124.2940   63.9980 C   0  0  0  0  0  0  0  0  0  0  0  0
  134.0110  125.3860   64.1230 C   0  0  0  0  0  0  0  0  0  0  0  0
  131.8150  124.1900   64.8340 C   0  0  0  0  0  0  0  0  0  0  0  0
  131.3440  124.9840   65.9370 C   0  0  0  0  0  0  0  0  0  0  0  0
  132.0250  126.0850   66.3920 N   0  0  0  0  0  0  0  0  0  0  0  0
  129.8190  128.1180   70.2110 C   0  0  0  0  0  0  0  0  0  0  0  0
  130.4030  128.1640   71.4870 C   0  0  0  0  0  0  0  0  0  0  0  0
  131.3360  129.1080   71.8760 O   0  0  0  0  0  0  0  0  0  0  0  0
  130.9440  130.1510   72.7620 C   0  0  0  0  0  0  0  0  0  0  0  0
  130.0320  127.1990   72.4340 C   0  0  0  0  0  0  0  0  0  0  0  0
  130.5820  127.2420   73.6930 O   0  0  0  0  0  0  0  0  0  0  0  0
  131.4770  126.1740   73.9700 C   0  0  0  0  0  0  0  0  0  0  0  0
  128.7419  123.3471   73.7792 H   0  0  0  0  0  0  0  0  0  0  0  0
  127.8472  123.6748   72.2564 H   0  0  0  0  0  0  0  0  0  0  0  0
  129.6434  123.6555   72.2564 H   0  0  0  0  0  0  0  0  0  0  0  0
  127.7759  125.4181   70.5908 H   0  0  0  0  0  0  0  0  0  0  0  0
  127.2404  126.6581   68.6003 H   0  0  0  0  0  0  0  0  0  0  0  0
  128.1884  128.1578   68.1623 H   0  0  0  0  0  0  0  0  0  0  0  0
  129.1330  126.8290   66.6160 H   0  0  0  0  0  0  0  0  0  0  0  0
  132.5029  120.2696   62.2464 H   0  0  0  0  0  0  0  0  0  0  0  0
  131.4479  121.2211   61.1471 H   0  0  0  0  0  0  0  0  0  0  0  0
  133.2233  121.4941   61.1471 H   0  0  0  0  0  0  0  0  0  0  0  0
  133.9993  123.3770   62.3285 H   0  0  0  0  0  0  0  0  0  0  0  0
  134.2053  125.5879   65.1867 H   0  0  0  0  0  0  0  0  0  0  0  0
  134.9411  125.0572   63.6363 H   0  0  0  0  0  0  0  0  0  0  0  0
  133.6468  126.3028   63.6363 H   0  0  0  0  0  0  0  0  0  0  0  0
  131.8700  127.0050   66.0080 H   0  0  0  0  0  0  0  0  0  0  0  0
  132.7130  126.0070   67.1290 H   0  0  0  0  0  0  0  0  0  0  0  0
  130.0942  128.8738   69.4607 H   0  0  0  0  0  0  0  0  0  0  0  0
  131.0701  129.8154   73.8019 H   0  0  0  0  0  0  0  0  0  0  0  0
  131.5702  131.0377   72.5843 H   0  0  0  0  0  0  0  0  0  0  0  0
  129.8888  130.4058   72.5843 H   0  0  0  0  0  0  0  0  0  0  0  0
  131.5781  126.0533   75.0587 H   0  0  0  0  0  0  0  0  0  0  0  0
  131.0845  125.2440   73.5329 H   0  0  0  0  0  0  0  0  0  0  0  0
  132.4613  126.3977   73.5329 H   0  0  0  0  0  0  0  0  0  0  0  0
  1  2  1  0
  2  3  1  0
  3  4  2  0
  4  5  1  0
  5  6  1  0
  6  7  1  0
  7  8  1  0
  8  9  2  0
  8 10  1  0
 10 11  1  0
 11 12  1  0
 12 13  2  0
 13 14  1  0
 14 15  1  0
 14 16  2  0
 16 17  1  0
 17 18  1  0
 17 19  2  0
 19 20  1  0
 20 21  1  0
  5 22  2  0
 22 23  1  0
 23 24  1  0
 24 25  1  0
 23 26  2  0
 26 27  1  0
 27 28  1  0
 26  3  1  0
 20 10  2  0
 19 12  1  0
  1 29  1  0
  1 30  1  0
  1 31  1  0
  4 32  1  0
  6 33  1  0
  6 34  1  0
  7 35  1  0
 15 36  1  0
 15 37  1  0
 15 38  1  0
 16 39  1  0
 18 40  1  0
 18 41  1  0
 18 42  1  0
 21 43  1  0
 21 44  1  0
 22 45  1  0
 25 46  1  0
 25 47  1  0
 25 48  1  0
 28 49  1  0
 28 50  1  0
 28 51  1  0
M  END
>  <Binding energies>  (1) 
[-6.84]

>  <Ligand effiencies>  (1) 
[-0.22064516129032258]

>  <Interactions>  (1) 
["V-B:ALA:541:CB:9863, V-A:LEU:475:CD2:4258, V-A:ILE:369:CG2:3236, H-A:TYR:484:OH:4347, H-A:GLU:543:OE2:4910, V-A:ARG:545:CZ:4926, V-A:GLU:543:CD:4908, V-A:GLU:543:CB:4906, V-B:HIS:456:CE1:9041, V-B:GLU:543:CB:9877, V-A:TYR:484:CZ:4346, V-A:HIS:456:CE1:4069, V-B:GLU:543:CG:9878, V-B:GLU:543:CD:9879, V-A:TYR:484:CE1:4344, V-A:HIS:456:CD2:4067, H-A:GLU:543:OE1:4909, V-A:GLY:454:CA:4048, H-B:GLU:543:OE1:9880, H-B:LYS:547:NZ:9922, V-B:LYS:547:CE:9921, V-A:GLY:453:C:4041, V-A:GLY:453:CA:4043, V-B:GLU:543:CA:9875, V-A:HIS:456:CG:4065, H-A:LYS:547:NZ:4951, V-A:LYS:547:CE:4950, V-A:GLU:543:C:4902, V-A:GLY:544:C:4912, V-A:HIS:456:CB:4064, V-A:GLY:544:CA:4914"]

$$$$
4ai_Grossjean_2025
     RDKit          3D

 32 34  0  0  0  0  0  0  0  0999 V2000
  126.7820  122.3630   56.4060 C   0  0  0  0  0  0  0  0  0  0  0  0
  127.0730  122.7560   57.8430 C   0  0  0  0  0  0  0  0  0  0  0  0
  126.0930  123.3520   58.6350 C   0  0  0  0  0  0  0  0  0  0  0  0
  126.3810  123.7010   59.9600 C   0  0  0  0  0  0  0  0  0  0  0  0
  125.2780  124.3460   60.7850 C   0  0  0  0  0  0  0  0  0  0  0  0
  127.6870  123.4260   60.4490 C   0  0  0  0  0  0  0  0  0  0  0  0
  128.3090  123.6460   61.7270 C   0  0  0  0  0  0  0  0  0  0  0  0
  127.6430  124.2290   62.7750 N   0  0  0  0  0  0  0  0  0  0  0  0
  129.6400  123.2060   61.7960 C   0  0  0  0  0  0  0  0  0  0  0  0
  130.5670  123.2820   62.9280 C   0  0  0  0  0  0  0  0  0  0  0  0
  130.6170  122.3760   63.7620 O   0  0  0  0  0  0  0  0  0  0  0  0
  131.3490  124.3900   62.9650 N   0  0  0  0  0  0  0  0  0  0  0  0
  132.3140  124.7110   63.9110 C   0  0  0  0  0  0  0  0  0  0  0  0
  132.0030  125.1790   65.1870 C   0  0  0  0  0  0  0  0  0  0  0  0
  133.2180  125.3790   65.8020 C   0  0  0  0  0  0  0  0  0  0  0  0
  134.2090  125.0470   64.9410 O   0  0  0  0  0  0  0  0  0  0  0  0
  133.6240  124.6240   63.7460 N   0  0  0  0  0  0  0  0  0  0  0  0
  130.1670  122.5250   60.2550 S   0  0  0  0  0  0  0  0  0  0  0  0
  128.5980  122.8140   59.5370 C   0  0  0  0  0  0  0  0  0  0  0  0
  128.3280  122.4810   58.2740 N   0  0  0  0  0  0  0  0  0  0  0  0
  126.1275  121.4790   56.3930 H   0  0  0  0  0  0  0  0  0  0  0  0
  126.2820  123.1971   55.8918 H   0  0  0  0  0  0  0  0  0  0  0  0
  127.7256  122.1281   55.8918 H   0  0  0  0  0  0  0  0  0  0  0  0
  125.0937  123.5481   58.2192 H   0  0  0  0  0  0  0  0  0  0  0  0
  125.4977  124.2175   61.8552 H   0  0  0  0  0  0  0  0  0  0  0  0
  125.2227  125.4188   60.5483 H   0  0  0  0  0  0  0  0  0  0  0  0
  124.3159  123.8682   60.5483 H   0  0  0  0  0  0  0  0  0  0  0  0
  128.0310  124.2530   63.7060 H   0  0  0  0  0  0  0  0  0  0  0  0
  126.7330  124.6520   62.6480 H   0  0  0  0  0  0  0  0  0  0  0  0
  131.2320  125.0600   62.2200 H   0  0  0  0  0  0  0  0  0  0  0  0
  131.0026  125.3512   65.6107 H   0  0  0  0  0  0  0  0  0  0  0  0
  133.3610  125.7490   66.8280 H   0  0  0  0  0  0  0  0  0  0  0  0
  1  2  1  0
  2  3  2  0
  3  4  1  0
  4  5  1  0
  4  6  2  0
  6  7  1  0
  7  8  1  0
  7  9  2  0
  9 10  1  0
 10 11  2  0
 10 12  1  0
 12 13  1  0
 13 14  1  0
 14 15  2  0
 15 16  1  0
 16 17  1  0
  9 18  1  0
 18 19  1  0
 19 20  2  0
 20  2  1  0
 19  6  1  0
 17 13  2  0
  1 21  1  0
  1 22  1  0
  1 23  1  0
  3 24  1  0
  5 25  1  0
  5 26  1  0
  5 27  1  0
  8 28  1  0
  8 29  1  0
 12 30  1  0
 14 31  1  0
 15 32  1  0
M  END
>  <Binding energies>  (1) 
[-6.87]

>  <Ligand effiencies>  (1) 
[-0.29869565217391303]

>  <Interactions>  (1) 
["V-B:TYR:539:CE2:9847, V-B:PRO:540:CA:9854, V-B:TYR:539:CD2:9845, V-B:TYR:539:CG:9843, V-B:PRO:540:CB:9856, V-B:ALA:541:CB:9863, V-B:TYR:539:C:9838, H-B:GLU:543:OE2:9881, V-B:PRO:540:N:9855, V-B:TYR:539:CD1:9844, V-B:TYR:539:CE1:9846, H-A:GLY:454:N:4049, H-A:ARG:545:NE:4924, H-A:ARG:545:NH1:4927, V-A:ARG:545:CZ:4926, V-B:GLU:543:CG:9878, V-B:GLU:543:CD:9879, V-A:ARG:545:CD:4923"]

$$$$
4aj_Grossjean_2025
     RDKit          3D

 32 34  0  0  0  0  0  0  0  0999 V2000
  126.8130  122.3690   56.5950 C   0  0  0  0  0  0  0  0  0  0  0  0
  127.1170  122.7420   58.0340 C   0  0  0  0  0  0  0  0  0  0  0  0
  126.1500  123.3380   58.8400 C   0  0  0  0  0  0  0  0  0  0  0  0
  126.4530  123.6790   60.1630 C   0  0  0  0  0  0  0  0  0  0  0  0
  125.3630  124.3290   61.0010 C   0  0  0  0  0  0  0  0  0  0  0  0
  127.7610  123.3950   60.6380 C   0  0  0  0  0  0  0  0  0  0  0  0
  128.3990  123.6070   61.9100 C   0  0  0  0  0  0  0  0  0  0  0  0
  127.7470  124.1880   62.9670 N   0  0  0  0  0  0  0  0  0  0  0  0
  129.7290  123.1620   61.9610 C   0  0  0  0  0  0  0  0  0  0  0  0
  130.6690  123.2290   63.0830 C   0  0  0  0  0  0  0  0  0  0  0  0
  131.0570  122.2010   63.6410 O   0  0  0  0  0  0  0  0  0  0  0  0
  131.0710  124.4760   63.4310 N   0  0  0  0  0  0  0  0  0  0  0  0
  131.9590  124.8130   64.4430 C   0  0  0  0  0  0  0  0  0  0  0  0
  133.2420  124.5300   64.5180 N   0  0  0  0  0  0  0  0  0  0  0  0
  133.7810  125.0130   65.6220 C   0  0  0  0  0  0  0  0  0  0  0  0
  132.9240  125.7060   66.4730 C   0  0  0  0  0  0  0  0  0  0  0  0
  131.3300  125.7220   65.7790 S   0  0  0  0  0  0  0  0  0  0  0  0
  130.2330  122.4780   60.4150 S   0  0  0  0  0  0  0  0  0  0  0  0
  128.6590  122.7790   59.7140 C   0  0  0  0  0  0  0  0  0  0  0  0
  128.3740  122.4540   58.4530 N   0  0  0  0  0  0  0  0  0  0  0  0
  126.1182  121.5164   56.5762 H   0  0  0  0  0  0  0  0  0  0  0  0
  126.3540  123.2275   56.0828 H   0  0  0  0  0  0  0  0  0  0  0  0
  127.7464  122.0927   56.0828 H   0  0  0  0  0  0  0  0  0  0  0  0
  125.1471  123.5409   58.4362 H   0  0  0  0  0  0  0  0  0  0  0  0
  125.5910  124.1930   62.0685 H   0  0  0  0  0  0  0  0  0  0  0  0
  125.3148  125.4035   60.7703 H   0  0  0  0  0  0  0  0  0  0  0  0
  124.3948  123.8607   60.7703 H   0  0  0  0  0  0  0  0  0  0  0  0
  126.7400  124.2580   63.0000 H   0  0  0  0  0  0  0  0  0  0  0  0
  128.2560  124.5690   63.7530 H   0  0  0  0  0  0  0  0  0  0  0  0
  130.6950  125.2490   62.9010 H   0  0  0  0  0  0  0  0  0  0  0  0
  134.8469  124.8758   65.8564 H   0  0  0  0  0  0  0  0  0  0  0  0
  133.2093  126.1684   67.4294 H   0  0  0  0  0  0  0  0  0  0  0  0
  1  2  1  0
  2  3  2  0
  3  4  1  0
  4  5  1  0
  4  6  2  0
  6  7  1  0
  7  8  1  0
  7  9  2  0
  9 10  1  0
 10 11  2  0
 10 12  1  0
 12 13  1  0
 13 14  2  0
 14 15  1  0
 15 16  2  0
 16 17  1  0
  9 18  1  0
 18 19  1  0
 19 20  2  0
 20  2  1  0
 19  6  1  0
 17 13  1  0
  1 21  1  0
  1 22  1  0
  1 23  1  0
  3 24  1  0
  5 25  1  0
  5 26  1  0
  5 27  1  0
  8 28  1  0
  8 29  1  0
 12 30  1  0
 15 31  1  0
 16 32  1  0
M  END
>  <Binding energies>  (1) 
[-6.14]

>  <Ligand effiencies>  (1) 
[-0.2669565217391304]

>  <Interactions>  (1) 
["V-B:TYR:539:CE2:9847, V-B:PRO:540:CA:9854, V-B:TYR:539:CD2:9845, V-B:PRO:540:CD:9858, V-B:TYR:539:CG:9843, V-B:PRO:540:CB:9856, V-B:ALA:541:CB:9863, V-B:TYR:539:C:9838, H-B:GLU:543:OE2:9881, V-B:PRO:540:N:9855, V-B:TYR:539:CD1:9844, V-B:TYR:539:CE1:9846, H-A:GLY:454:N:4049, H-A:TYR:484:OH:4347, V-A:ARG:545:CZ:4926, V-A:HIS:456:CE1:4069, V-B:GLU:543:CG:9878, V-B:GLU:543:CD:9879, V-A:ARG:545:CG:4922, V-A:ARG:545:CD:4923, V-A:GLY:454:CA:4048"]

$$$$
4ak_Grossjean_2025
     RDKit          3D

 50 51  0  0  0  0  0  0  0  0999 V2000
  128.5850  125.6480   72.1130 C   0  0  0  0  0  0  0  0  0  0  0  0
  128.7840  126.0190   73.4680 O   0  0  0  0  0  0  0  0  0  0  0  0
  130.1480  126.2470   73.7980 C   0  0  0  0  0  0  0  0  0  0  0  0
  130.8670  126.8730   72.5960 C   0  0  0  0  0  0  0  0  0  0  0  0
  130.9720  128.2770   72.7890 O   0  0  0  0  0  0  0  0  0  0  0  0
  131.1760  129.0080   71.5870 C   0  0  0  0  0  0  0  0  0  0  0  0
  131.8210  128.0920   70.5390 C   0  0  0  0  0  0  0  0  0  0  0  0
  131.0800  128.1680   69.3290 O   0  0  0  0  0  0  0  0  0  0  0  0
  129.7220  128.5470   69.5080 C   0  0  0  0  0  0  0  0  0  0  0  0
  128.8070  127.4260   68.9830 C   0  0  0  0  0  0  0  0  0  0  0  0
  129.4020  126.6440   67.9000 N   0  0  0  0  0  0  0  0  0  0  0  0
  129.4960  125.2990   67.8690 C   0  0  0  0  0  0  0  0  0  0  0  0
  129.0560  124.5850   68.7720 O   0  0  0  0  0  0  0  0  0  0  0  0
  130.1470  124.7260   66.6920 C   0  0  0  0  0  0  0  0  0  0  0  0
  129.5640  123.2120   66.0020 S   0  0  0  0  0  0  0  0  0  0  0  0
  130.7800  123.2640   64.7450 C   0  0  0  0  0  0  0  0  0  0  0  0
  130.8790  122.3090   63.8190 N   0  0  0  0  0  0  0  0  0  0  0  0
  131.8660  122.4680   62.9040 C   0  0  0  0  0  0  0  0  0  0  0  0
  131.9620  121.3720   61.8580 C   0  0  0  0  0  0  0  0  0  0  0  0
  132.7450  123.5490   62.8920 C   0  0  0  0  0  0  0  0  0  0  0  0
  132.6380  124.5500   63.8640 C   0  0  0  0  0  0  0  0  0  0  0  0
  133.6220  125.7080   63.8120 C   0  0  0  0  0  0  0  0  0  0  0  0
  131.6150  124.4170   64.8420 C   0  0  0  0  0  0  0  0  0  0  0  0
  131.2290  125.2370   65.9580 C   0  0  0  0  0  0  0  0  0  0  0  0
  131.8730  126.4090   66.2660 N   0  0  0  0  0  0  0  0  0  0  0  0
  128.0654  124.6794   72.0706 H   0  0  0  0  0  0  0  0  0  0  0  0
  127.9762  126.4130   71.6090 H   0  0  0  0  0  0  0  0  0  0  0  0
  129.5591  125.5640   71.6090 H   0  0  0  0  0  0  0  0  0  0  0  0
  130.2080  126.9304   74.6578 H   0  0  0  0  0  0  0  0  0  0  0  0
  130.6278  125.2912   74.0553 H   0  0  0  0  0  0  0  0  0  0  0  0
  131.8734  126.4388   72.5032 H   0  0  0  0  0  0  0  0  0  0  0  0
  130.2954  126.6695   71.6785 H   0  0  0  0  0  0  0  0  0  0  0  0
  130.2091  129.3731   71.2105 H   0  0  0  0  0  0  0  0  0  0  0  0
  131.8375  129.8644   71.7846 H   0  0  0  0  0  0  0  0  0  0  0  0
  132.8567  128.4147   70.3565 H   0  0  0  0  0  0  0  0  0  0  0  0
  131.8215  127.0551   70.9062 H   0  0  0  0  0  0  0  0  0  0  0  0
  129.5245  128.7118   70.5775 H   0  0  0  0  0  0  0  0  0  0  0  0
  129.5225  129.4755   68.9529 H   0  0  0  0  0  0  0  0  0  0  0  0
  128.5762  126.7464   69.8166 H   0  0  0  0  0  0  0  0  0  0  0  0
  127.9065  127.9088   68.5754 H   0  0  0  0  0  0  0  0  0  0  0  0
  129.7770  127.1700   67.1230 H   0  0  0  0  0  0  0  0  0  0  0  0
  132.0475  120.3954   62.3570 H   0  0  0  0  0  0  0  0  0  0  0  0
  131.0593  121.3848   61.2295 H   0  0  0  0  0  0  0  0  0  0  0  0
  132.8487  121.5416   61.2295 H   0  0  0  0  0  0  0  0  0  0  0  0
  133.5237  123.6156   62.1179 H   0  0  0  0  0  0  0  0  0  0  0  0
  133.8823  126.0143   64.8359 H   0  0  0  0  0  0  0  0  0  0  0  0
  134.5322  125.3922   63.2812 H   0  0  0  0  0  0  0  0  0  0  0  0
  133.1634  126.5553   63.2812 H   0  0  0  0  0  0  0  0  0  0  0  0
  131.7750  126.8510   67.1690 H   0  0  0  0  0  0  0  0  0  0  0  0
  132.4730  126.8690   65.5960 H   0  0  0  0  0  0  0  0  0  0  0  0
  1  2  1  0
  2  3  1  0
  3  4  1  0
  4  5  1  0
  5  6  1  0
  6  7  1  0
  7  8  1  0
  8  9  1  0
  9 10  1  0
 10 11  1  0
 11 12  1  0
 12 13  2  0
 12 14  1  0
 14 15  1  0
 15 16  1  0
 16 17  2  0
 17 18  1  0
 18 19  1  0
 18 20  2  0
 20 21  1  0
 21 22  1  0
 21 23  2  0
 23 24  1  0
 24 25  1  0
 24 14  2  0
 23 16  1  0
  1 26  1  0
  1 27  1  0
  1 28  1  0
  3 29  1  0
  3 30  1  0
  4 31  1  0
  4 32  1  0
  6 33  1  0
  6 34  1  0
  7 35  1  0
  7 36  1  0
  9 37  1  0
  9 38  1  0
 10 39  1  0
 10 40  1  0
 11 41  1  0
 19 42  1  0
 19 43  1  0
 19 44  1  0
 20 45  1  0
 22 46  1  0
 22 47  1  0
 22 48  1  0
 25 49  1  0
 25 50  1  0
M  END
>  <Binding energies>  (1) 
[-5.45]

>  <Ligand effiencies>  (1) 
[-0.19464285714285715]

>  <Interactions>  (1) 
["V-B:ALA:541:CB:9863, V-A:LEU:475:CD2:4258, H-A:GLU:543:OE2:4910, V-A:ARG:545:CZ:4926, V-A:GLU:543:CD:4908, V-A:GLU:543:CG:4907, V-A:GLU:543:CB:4906, V-B:HIS:456:CE1:9041, V-B:GLU:543:CB:9877, V-A:TYR:484:CZ:4346, V-A:HIS:456:CE1:4069, V-B:GLU:543:CG:9878, V-B:GLU:543:CD:9879, V-A:TYR:484:CE1:4344, V-A:HIS:456:CD2:4067, H-A:GLU:543:OE1:4909, V-A:ARG:545:CG:4922, H-B:LYS:547:NZ:9922, V-B:GLU:543:CA:9875, V-A:HIS:456:CG:4065, H-A:LYS:547:NZ:4951, V-A:GLU:543:C:4902, V-A:ARG:545:CA:4919, V-A:GLY:544:C:4912"]

$$$$
4al_Grossjean_2025
     RDKit          3D

 28 29  0  0  0  0  0  0  0  0999 V2000
  130.2790  123.2940   65.2880 C   0  0  0  0  0  0  0  0  0  0  0  0
  129.5720  123.2810   64.0570 O   0  0  0  0  0  0  0  0  0  0  0  0
  129.9510  122.4610   63.0440 C   0  0  0  0  0  0  0  0  0  0  0  0
  130.9120  121.6910   63.1020 O   0  0  0  0  0  0  0  0  0  0  0  0
  129.0870  122.5840   61.8490 C   0  0  0  0  0  0  0  0  0  0  0  0
  129.5990  121.8800   60.3140 S   0  0  0  0  0  0  0  0  0  0  0  0
  128.1400  122.4330   59.5260 C   0  0  0  0  0  0  0  0  0  0  0  0
  127.9020  122.1960   58.2350 N   0  0  0  0  0  0  0  0  0  0  0  0
  126.7330  122.6790   57.7460 C   0  0  0  0  0  0  0  0  0  0  0  0
  126.4830  122.3980   56.2760 C   0  0  0  0  0  0  0  0  0  0  0  0
  125.8070  123.3860   58.5100 C   0  0  0  0  0  0  0  0  0  0  0  0
  126.0590  123.6330   59.8630 C   0  0  0  0  0  0  0  0  0  0  0  0
  125.0190  124.4090   60.6560 C   0  0  0  0  0  0  0  0  0  0  0  0
  127.2750  123.1420   60.4110 C   0  0  0  0  0  0  0  0  0  0  0  0
  127.8410  123.2120   61.7300 C   0  0  0  0  0  0  0  0  0  0  0  0
  127.2100  123.8400   62.7720 N   0  0  0  0  0  0  0  0  0  0  0  0
  129.5625  123.2808   66.1225 H   0  0  0  0  0  0  0  0  0  0  0  0
  130.9277  122.4076   65.3477 H   0  0  0  0  0  0  0  0  0  0  0  0
  130.8947  124.2036   65.3477 H   0  0  0  0  0  0  0  0  0  0  0  0
  125.7548  121.5795   56.1778 H   0  0  0  0  0  0  0  0  0  0  0  0
  126.0855  123.3024   55.7922 H   0  0  0  0  0  0  0  0  0  0  0  0
  127.4275  122.1084   55.7922 H   0  0  0  0  0  0  0  0  0  0  0  0
  124.8772  123.7501   58.0486 H   0  0  0  0  0  0  0  0  0  0  0  0
  125.2017  124.2727   61.7321 H   0  0  0  0  0  0  0  0  0  0  0  0
  125.0886  125.4777   60.4047 H   0  0  0  0  0  0  0  0  0  0  0  0
  124.0144  124.0380   60.4047 H   0  0  0  0  0  0  0  0  0  0  0  0
  127.6050  123.8630   63.7010 H   0  0  0  0  0  0  0  0  0  0  0  0
  126.3210  124.3060   62.6450 H   0  0  0  0  0  0  0  0  0  0  0  0
  1  2  1  0
  2  3  1  0
  3  4  2  0
  3  5  1  0
  5  6  1  0
  6  7  1  0
  7  8  2  0
  8  9  1  0
  9 10  1  0
  9 11  2  0
 11 12  1  0
 12 13  1  0
 12 14  2  0
 14 15  1  0
 15 16  1  0
 15  5  2  0
 14  7  1  0
  1 17  1  0
  1 18  1  0
  1 19  1  0
 10 20  1  0
 10 21  1  0
 10 22  1  0
 11 23  1  0
 13 24  1  0
 13 25  1  0
 13 26  1  0
 16 27  1  0
 16 28  1  0
M  END
>  <Binding energies>  (1) 
[-4.86]

>  <Ligand effiencies>  (1) 
[-0.27]

>  <Interactions>  (1) 
["V-B:TYR:539:CE2:9847, V-B:PRO:540:CA:9854, V-B:TYR:539:CD2:9845, V-B:PRO:540:CD:9858, V-B:PRO:540:CB:9856, V-B:ALA:541:CB:9863, V-B:TYR:539:C:9838, H-B:GLU:543:OE2:9881, V-B:PRO:540:N:9855, V-B:TYR:539:CD1:9844, V-B:TYR:539:CE1:9846, V-A:TYR:484:CZ:4346, V-B:GLU:543:CG:9878, V-B:GLU:543:CD:9879, V-A:TYR:484:CE1:4344"]

$$$$
4ba_Grossjean_2025
     RDKit          3D

 44 46  0  0  0  0  0  0  0  0999 V2000
  128.7190  131.9310   73.2250 C   0  0  0  0  0  0  0  0  0  0  0  0
  128.7300  130.8370   72.1420 C   0  0  0  0  0  0  0  0  0  0  0  0
  129.8940  129.8290   72.2400 C   0  0  0  0  0  0  0  0  0  0  0  0
  130.5500  129.7600   73.2820 O   0  0  0  0  0  0  0  0  0  0  0  0
  130.1720  128.9640   71.0460 C   0  0  0  0  0  0  0  0  0  0  0  0
  129.1260  128.2350   70.4670 C   0  0  0  0  0  0  0  0  0  0  0  0
  129.3550  127.4240   69.3590 C   0  0  0  0  0  0  0  0  0  0  0  0
  130.6320  127.3280   68.8050 C   0  0  0  0  0  0  0  0  0  0  0  0
  130.7540  126.4730   67.6930 N   0  0  0  0  0  0  0  0  0  0  0  0
  130.1810  125.2680   67.4520 C   0  0  0  0  0  0  0  0  0  0  0  0
  129.4470  124.6800   68.2480 O   0  0  0  0  0  0  0  0  0  0  0  0
  130.5110  124.6660   66.1580 C   0  0  0  0  0  0  0  0  0  0  0  0
  129.6530  123.2300   65.6040 S   0  0  0  0  0  0  0  0  0  0  0  0
  130.6170  123.1600   64.1480 C   0  0  0  0  0  0  0  0  0  0  0  0
  130.4310  122.2040   63.2380 N   0  0  0  0  0  0  0  0  0  0  0  0
  131.2370  122.2520   62.1530 C   0  0  0  0  0  0  0  0  0  0  0  0
  131.0150  121.1490   61.1340 C   0  0  0  0  0  0  0  0  0  0  0  0
  132.2130  123.2260   61.9560 C   0  0  0  0  0  0  0  0  0  0  0  0
  132.4130  124.2360   62.9110 C   0  0  0  0  0  0  0  0  0  0  0  0
  133.4970  125.2860   62.6490 C   0  0  0  0  0  0  0  0  0  0  0  0
  134.3730  125.3940   63.6490 F   0  0  0  0  0  0  0  0  0  0  0  0
  134.1820  124.9660   61.5500 F   0  0  0  0  0  0  0  0  0  0  0  0
  132.9330  126.4830   62.4820 F   0  0  0  0  0  0  0  0  0  0  0  0
  131.5820  124.2100   64.0710 C   0  0  0  0  0  0  0  0  0  0  0  0
  131.5030  125.0500   65.2410 C   0  0  0  0  0  0  0  0  0  0  0  0
  132.3270  126.1300   65.4330 N   0  0  0  0  0  0  0  0  0  0  0  0
  131.6870  128.0500   69.3830 C   0  0  0  0  0  0  0  0  0  0  0  0
  131.4560  128.8610   70.4910 C   0  0  0  0  0  0  0  0  0  0  0  0
  128.7237  131.4620   74.2200 H   0  0  0  0  0  0  0  0  0  0  0  0
  129.6108  132.5654   73.1144 H   0  0  0  0  0  0  0  0  0  0  0  0
  127.8146  132.5473   73.1144 H   0  0  0  0  0  0  0  0  0  0  0  0
  127.7866  130.2760   72.2151 H   0  0  0  0  0  0  0  0  0  0  0  0
  128.8571  131.3585   71.1818 H   0  0  0  0  0  0  0  0  0  0  0  0
  128.1137  128.3038   70.8918 H   0  0  0  0  0  0  0  0  0  0  0  0
  128.5237  126.8550   68.9173 H   0  0  0  0  0  0  0  0  0  0  0  0
  131.3770  126.8150   66.9770 H   0  0  0  0  0  0  0  0  0  0  0  0
  130.8240  120.2001   61.6566 H   0  0  0  0  0  0  0  0  0  0  0  0
  130.1496  121.4010   60.5035 H   0  0  0  0  0  0  0  0  0  0  0  0
  131.9105  121.0466   60.5035 H   0  0  0  0  0  0  0  0  0  0  0  0
  132.8312  123.2039   61.0464 H   0  0  0  0  0  0  0  0  0  0  0  0
  131.9640  127.0610   65.5760 H   0  0  0  0  0  0  0  0  0  0  0  0
  133.3330  126.0300   65.4310 H   0  0  0  0  0  0  0  0  0  0  0  0
  132.6995  127.9752   68.9596 H   0  0  0  0  0  0  0  0  0  0  0  0
  132.2885  129.4263   70.9353 H   0  0  0  0  0  0  0  0  0  0  0  0
  1  2  1  0
  2  3  1  0
  3  4  2  0
  3  5  1  0
  5  6  2  0
  6  7  1  0
  7  8  2  0
  8  9  1  0
  9 10  1  0
 10 11  2  0
 10 12  1  0
 12 13  1  0
 13 14  1  0
 14 15  2  0
 15 16  1  0
 16 17  1  0
 16 18  2  0
 18 19  1  0
 19 20  1  0
 20 21  1  0
 20 22  1  0
 20 23  1  0
 19 24  2  0
 24 25  1  0
 25 26  1  0
  8 27  1  0
 27 28  2  0
 28  5  1  0
 25 12  2  0
 24 14  1  0
  1 29  1  0
  1 30  1  0
  1 31  1  0
  2 32  1  0
  2 33  1  0
  6 34  1  0
  7 35  1  0
  9 36  1  0
 17 37  1  0
 17 38  1  0
 17 39  1  0
 18 40  1  0
 26 41  1  0
 26 42  1  0
 27 43  1  0
 28 44  1  0
M  END
>  <Binding energies>  (1) 
[-6.93]

>  <Ligand effiencies>  (1) 
[-0.2235483870967742]

>  <Interactions>  (1) 
["V-B:TYR:539:CE2:9847, V-B:TYR:539:CD2:9845, V-B:ALA:541:CB:9863, V-A:LEU:475:CD2:4258, V-A:ASP:366:CG:3212, V-A:ILE:369:CD1:3238, V-A:ASP:366:CB:3211, V-A:ASP:366:CA:3209, H-A:TYR:484:OH:4347, H-A:GLU:543:OE2:4910, V-A:ARG:545:CZ:4926, V-A:GLU:543:CD:4908, V-A:GLU:543:CB:4906, V-B:HIS:456:CE1:9041, V-B:GLU:543:CB:9877, V-A:TYR:484:CZ:4346, V-A:HIS:456:CE1:4069, V-B:HIS:456:CG:9037, V-B:GLU:543:CG:9878, V-B:TYR:484:CE1:9316, V-B:TYR:484:CD1:9314, V-A:TYR:484:CE1:4344, H-A:GLU:543:OE1:4909, V-A:ARG:545:CG:4922, V-A:GLY:453:C:4041, V-A:GLY:453:CA:4043, H-A:LYS:547:NZ:4951, V-A:GLU:543:C:4902, V-A:ARG:545:CA:4919, V-A:GLY:544:C:4912"]

$$$$
4bb_Grossjean_2025
     RDKit          3D

 41 43  0  0  0  0  0  0  0  0999 V2000
  128.7320  130.8170   72.1800 C   0  0  0  0  0  0  0  0  0  0  0  0
  129.8970  129.8270   72.2470 C   0  0  0  0  0  0  0  0  0  0  0  0
  130.5680  129.7890   73.2800 O   0  0  0  0  0  0  0  0  0  0  0  0
  130.1660  128.9640   71.0510 C   0  0  0  0  0  0  0  0  0  0  0  0
  129.1130  128.2450   70.4700 C   0  0  0  0  0  0  0  0  0  0  0  0
  129.3360  127.4370   69.3600 C   0  0  0  0  0  0  0  0  0  0  0  0
  130.6130  127.3360   68.8040 C   0  0  0  0  0  0  0  0  0  0  0  0
  130.7270  126.4880   67.6840 N   0  0  0  0  0  0  0  0  0  0  0  0
  130.1510  125.2860   67.4400 C   0  0  0  0  0  0  0  0  0  0  0  0
  129.4100  124.7000   68.2290 O   0  0  0  0  0  0  0  0  0  0  0  0
  130.4930  124.6810   66.1500 C   0  0  0  0  0  0  0  0  0  0  0  0
  129.6310  123.2510   65.5840 S   0  0  0  0  0  0  0  0  0  0  0  0
  130.6070  123.1780   64.1350 C   0  0  0  0  0  0  0  0  0  0  0  0
  130.4190  122.2320   63.2170 N   0  0  0  0  0  0  0  0  0  0  0  0
  131.2360  122.2790   62.1400 C   0  0  0  0  0  0  0  0  0  0  0  0
  131.0040  121.1920   61.1060 C   0  0  0  0  0  0  0  0  0  0  0  0
  132.2270  123.2400   61.9600 C   0  0  0  0  0  0  0  0  0  0  0  0
  132.4290  124.2400   62.9240 C   0  0  0  0  0  0  0  0  0  0  0  0
  133.5320  125.2760   62.6820 C   0  0  0  0  0  0  0  0  0  0  0  0
  134.2850  124.9980   61.6160 F   0  0  0  0  0  0  0  0  0  0  0  0
  132.9860  126.4770   62.4840 F   0  0  0  0  0  0  0  0  0  0  0  0
  134.3410  125.3300   63.7400 F   0  0  0  0  0  0  0  0  0  0  0  0
  131.5840  124.2200   64.0740 C   0  0  0  0  0  0  0  0  0  0  0  0
  131.4970  125.0590   65.2430 C   0  0  0  0  0  0  0  0  0  0  0  0
  132.3210  126.1370   65.4430 N   0  0  0  0  0  0  0  0  0  0  0  0
  131.6740  128.0470   69.3840 C   0  0  0  0  0  0  0  0  0  0  0  0
  131.4490  128.8540   70.4960 C   0  0  0  0  0  0  0  0  0  0  0  0
  128.4183  131.0836   73.2000 H   0  0  0  0  0  0  0  0  0  0  0  0
  129.0518  131.7239   71.6459 H   0  0  0  0  0  0  0  0  0  0  0  0
  127.8886  130.3551   71.6459 H   0  0  0  0  0  0  0  0  0  0  0  0
  128.1014  128.3202   70.8953 H   0  0  0  0  0  0  0  0  0  0  0  0
  128.5011  126.8740   68.9173 H   0  0  0  0  0  0  0  0  0  0  0  0
  131.3530  126.8310   66.9710 H   0  0  0  0  0  0  0  0  0  0  0  0
  130.8005  120.2386   61.6156 H   0  0  0  0  0  0  0  0  0  0  0  0
  130.1433  121.4623   60.4766 H   0  0  0  0  0  0  0  0  0  0  0  0
  131.9000  121.0874   60.4766 H   0  0  0  0  0  0  0  0  0  0  0  0
  132.8552  123.2155   61.0573 H   0  0  0  0  0  0  0  0  0  0  0  0
  131.9570  127.0700   65.5820 H   0  0  0  0  0  0  0  0  0  0  0  0
  133.3260  126.0350   65.4580 H   0  0  0  0  0  0  0  0  0  0  0  0
  132.6856  127.9668   68.9595 H   0  0  0  0  0  0  0  0  0  0  0  0
  132.2857  129.4106   70.9434 H   0  0  0  0  0  0  0  0  0  0  0  0
  1  2  1  0
  2  3  2  0
  2  4  1  0
  4  5  2  0
  5  6  1  0
  6  7  2  0
  7  8  1  0
  8  9  1  0
  9 10  2  0
  9 11  1  0
 11 12  1  0
 12 13  1  0
 13 14  2  0
 14 15  1  0
 15 16  1  0
 15 17  2  0
 17 18  1  0
 18 19  1  0
 19 20  1  0
 19 21  1  0
 19 22  1  0
 18 23  2  0
 23 24  1  0
 24 25  1  0
  7 26  1  0
 26 27  2  0
 27  4  1  0
 24 11  2  0
 23 13  1  0
  1 28  1  0
  1 29  1  0
  1 30  1  0
  5 31  1  0
  6 32  1  0
  8 33  1  0
 16 34  1  0
 16 35  1  0
 16 36  1  0
 17 37  1  0
 25 38  1  0
 25 39  1  0
 26 40  1  0
 27 41  1  0
M  END
>  <Binding energies>  (1) 
[-6.78]

>  <Ligand effiencies>  (1) 
[-0.226]

>  <Interactions>  (1) 
["V-B:TYR:539:CE2:9847, V-B:TYR:539:CD2:9845, V-B:ALA:541:CB:9863, V-A:LEU:475:CD2:4258, V-A:ASP:366:CG:3212, V-A:ILE:369:CD1:3238, V-A:ASP:366:CB:3211, V-A:ASP:366:CA:3209, H-A:GLU:543:OE2:4910, V-A:ARG:545:CZ:4926, V-A:GLU:543:CD:4908, V-A:GLU:543:CB:4906, V-B:HIS:456:CE1:9041, V-B:GLU:543:CB:9877, V-A:TYR:484:CZ:4346, V-A:HIS:456:CE1:4069, V-B:HIS:456:CG:9037, V-B:GLU:543:CG:9878, V-B:TYR:484:CD1:9314, V-A:TYR:484:CE1:4344, H-A:GLU:543:OE1:4909, V-A:ARG:545:CG:4922, V-A:GLY:453:C:4041, V-A:GLY:453:CA:4043, H-A:LYS:547:NZ:4951, V-A:GLU:543:C:4902, V-A:ARG:545:CA:4919, V-A:GLY:544:C:4912"]

$$$$
4bc_Grossjean_2025
     RDKit          3D

 40 42  0  0  0  0  0  0  0  0999 V2000
  129.2710  129.6540   74.3610 C   0  0  0  0  0  0  0  0  0  0  0  0
  130.2440  128.7310   73.8840 O   0  0  0  0  0  0  0  0  0  0  0  0
  130.2250  128.3590   72.5540 C   0  0  0  0  0  0  0  0  0  0  0  0
  131.3190  128.7510   71.7820 C   0  0  0  0  0  0  0  0  0  0  0  0
  131.3880  128.4230   70.4310 C   0  0  0  0  0  0  0  0  0  0  0  0
  130.3630  127.6870   69.8330 C   0  0  0  0  0  0  0  0  0  0  0  0
  130.5120  127.4150   68.4610 N   0  0  0  0  0  0  0  0  0  0  0  0
  129.8900  126.4810   67.7000 C   0  0  0  0  0  0  0  0  0  0  0  0
  129.0800  125.6640   68.1390 O   0  0  0  0  0  0  0  0  0  0  0  0
  130.2490  126.4880   66.2780 C   0  0  0  0  0  0  0  0  0  0  0  0
  129.1810  127.2450   65.0980 S   0  0  0  0  0  0  0  0  0  0  0  0
  130.2630  126.8340   63.7880 C   0  0  0  0  0  0  0  0  0  0  0  0
  129.9870  127.1680   62.5270 N   0  0  0  0  0  0  0  0  0  0  0  0
  130.8990  126.7940   61.6010 C   0  0  0  0  0  0  0  0  0  0  0  0
  130.5690  127.1890   60.1730 C   0  0  0  0  0  0  0  0  0  0  0  0
  132.0690  126.1000   61.9010 C   0  0  0  0  0  0  0  0  0  0  0  0
  132.3640  125.7450   63.2260 C   0  0  0  0  0  0  0  0  0  0  0  0
  133.6620  124.9790   63.5070 C   0  0  0  0  0  0  0  0  0  0  0  0
  134.4210  125.5620   64.4370 F   0  0  0  0  0  0  0  0  0  0  0  0
  133.3750  123.7510   63.9360 F   0  0  0  0  0  0  0  0  0  0  0  0
  134.3880  124.8980   62.3920 F   0  0  0  0  0  0  0  0  0  0  0  0
  131.4230  126.1260   64.2290 C   0  0  0  0  0  0  0  0  0  0  0  0
  131.3870  125.9460   65.6600 C   0  0  0  0  0  0  0  0  0  0  0  0
  132.3810  125.3010   66.3510 N   0  0  0  0  0  0  0  0  0  0  0  0
  129.2530  127.3000   70.6000 C   0  0  0  0  0  0  0  0  0  0  0  0
  129.1870  127.6310   71.9500 C   0  0  0  0  0  0  0  0  0  0  0  0
  129.2725  129.6526   75.4610 H   0  0  0  0  0  0  0  0  0  0  0  0
  129.5124  130.6630   73.9953 H   0  0  0  0  0  0  0  0  0  0  0  0
  128.2762  129.3597   73.9953 H   0  0  0  0  0  0  0  0  0  0  0  0
  132.1350  129.3249   72.2455 H   0  0  0  0  0  0  0  0  0  0  0  0
  132.2530  128.7447   69.8324 H   0  0  0  0  0  0  0  0  0  0  0  0
  131.2050  127.9820   67.9950 H   0  0  0  0  0  0  0  0  0  0  0  0
  129.8638  128.0332   60.1797 H   0  0  0  0  0  0  0  0  0  0  0  0
  131.4913  127.4859   59.6522 H   0  0  0  0  0  0  0  0  0  0  0  0
  130.1128  126.3342   59.6522 H   0  0  0  0  0  0  0  0  0  0  0  0
  132.7658  125.8287   61.0943 H   0  0  0  0  0  0  0  0  0  0  0  0
  132.1810  124.6710   67.1130 H   0  0  0  0  0  0  0  0  0  0  0  0
  133.3550  125.4350   66.1140 H   0  0  0  0  0  0  0  0  0  0  0  0
  128.4336  126.7339   70.1330 H   0  0  0  0  0  0  0  0  0  0  0  0
  128.3170  127.3207   72.5473 H   0  0  0  0  0  0  0  0  0  0  0  0
  1  2  1  0
  2  3  1  0
  3  4  2  0
  4  5  1  0
  5  6  2  0
  6  7  1  0
  7  8  1  0
  8  9  2  0
  8 10  1  0
 10 11  1  0
 11 12  1  0
 12 13  2  0
 13 14  1  0
 14 15  1  0
 14 16  2  0
 16 17  1  0
 17 18  1  0
 18 19  1  0
 18 20  1  0
 18 21  1  0
 17 22  2  0
 22 23  1  0
 23 24  1  0
  6 25  1  0
 25 26  2  0
 26  3  1  0
 23 10  2  0
 22 12  1  0
  1 27  1  0
  1 28  1  0
  1 29  1  0
  4 30  1  0
  5 31  1  0
  7 32  1  0
 15 33  1  0
 15 34  1  0
 15 35  1  0
 16 36  1  0
 24 37  1  0
 24 38  1  0
 25 39  1  0
 26 40  1  0
M  END
>  <Binding energies>  (1) 
[-6.19]

>  <Ligand effiencies>  (1) 
[-0.213448275862069]

>  <Interactions>  (1) 
["V-A:ASP:366:CG:3212, V-A:ILE:369:CD1:3238, H-A:TYR:484:OH:4347, H-A:GLU:543:OE2:4910, V-A:ARG:545:CZ:4926, V-A:GLU:543:CD:4908, V-A:GLU:543:CB:4906, V-B:HIS:456:CE1:9041, V-A:TYR:484:CZ:4346, V-A:HIS:456:CE1:4069, V-B:HIS:456:CD2:9039, V-B:GLU:543:CD:9879, V-A:ARG:545:CD:4923, V-A:GLY:454:CA:4048, V-A:GLY:453:C:4041, V-A:GLY:453:CA:4043, H-A:LYS:547:NZ:4951, V-A:LYS:547:CE:4950, V-A:ARG:545:CA:4919, V-A:GLY:544:C:4912, H-A:HIS:456:NE2:4070"]

$$$$
4bd_Grossjean_2025
     RDKit          3D

 36 38  0  0  0  0  0  0  0  0999 V2000
  126.4530  122.3640   56.2620 C   0  0  0  0  0  0  0  0  0  0  0  0
  126.7610  122.7150   57.7070 C   0  0  0  0  0  0  0  0  0  0  0  0
  125.7800  123.2420   58.5430 C   0  0  0  0  0  0  0  0  0  0  0  0
  126.0790  123.5640   59.8750 C   0  0  0  0  0  0  0  0  0  0  0  0
  124.9680  124.1440   60.7570 C   0  0  0  0  0  0  0  0  0  0  0  0
  124.6560  123.3570   61.7890 F   0  0  0  0  0  0  0  0  0  0  0  0
  125.3510  125.3200   61.2520 F   0  0  0  0  0  0  0  0  0  0  0  0
  123.8600  124.3100   60.0340 F   0  0  0  0  0  0  0  0  0  0  0  0
  127.4140  123.3270   60.3200 C   0  0  0  0  0  0  0  0  0  0  0  0
  128.0770  123.5270   61.5860 C   0  0  0  0  0  0  0  0  0  0  0  0
  127.4340  124.0330   62.6850 N   0  0  0  0  0  0  0  0  0  0  0  0
  129.4330  123.1590   61.5880 C   0  0  0  0  0  0  0  0  0  0  0  0
  130.4000  123.2430   62.6860 C   0  0  0  0  0  0  0  0  0  0  0  0
  131.0000  122.2400   63.0740 O   0  0  0  0  0  0  0  0  0  0  0  0
  130.5790  124.4820   63.2090 N   0  0  0  0  0  0  0  0  0  0  0  0
  131.3920  124.8910   64.2830 C   0  0  0  0  0  0  0  0  0  0  0  0
  130.7220  125.4100   65.3940 C   0  0  0  0  0  0  0  0  0  0  0  0
  131.4370  125.8330   66.5110 C   0  0  0  0  0  0  0  0  0  0  0  0
  132.8250  125.7290   66.5220 C   0  0  0  0  0  0  0  0  0  0  0  0
  133.5040  125.2010   65.4270 C   0  0  0  0  0  0  0  0  0  0  0  0
  132.7920  124.7770   64.3070 C   0  0  0  0  0  0  0  0  0  0  0  0
  129.9290  122.5430   60.0130 S   0  0  0  0  0  0  0  0  0  0  0  0
  128.3240  122.7850   59.3620 C   0  0  0  0  0  0  0  0  0  0  0  0
  128.0350  122.4800   58.0980 N   0  0  0  0  0  0  0  0  0  0  0  0
  125.7277  121.5375   56.2320 H   0  0  0  0  0  0  0  0  0  0  0  0
  126.0290  123.2425   55.7536 H   0  0  0  0  0  0  0  0  0  0  0  0
  127.3792  122.0577   55.7536 H   0  0  0  0  0  0  0  0  0  0  0  0
  124.7636  123.4069   58.1561 H   0  0  0  0  0  0  0  0  0  0  0  0
  127.7050  123.7840   63.6270 H   0  0  0  0  0  0  0  0  0  0  0  0
  126.6640  124.6820   62.5930 H   0  0  0  0  0  0  0  0  0  0  0  0
  130.0730  125.2310   62.7600 H   0  0  0  0  0  0  0  0  0  0  0  0
  129.6246  125.4846   65.3859 H   0  0  0  0  0  0  0  0  0  0  0  0
  130.9073  126.2477   67.3813 H   0  0  0  0  0  0  0  0  0  0  0  0
  133.3902  126.0668   67.4031 H   0  0  0  0  0  0  0  0  0  0  0  0
  134.6008  125.1188   65.4462 H   0  0  0  0  0  0  0  0  0  0  0  0
  133.3252  124.3537   63.4430 H   0  0  0  0  0  0  0  0  0  0  0  0
  1  2  1  0
  2  3  2  0
  3  4  1  0
  4  5  1  0
  5  6  1  0
  5  7  1  0
  5  8  1  0
  4  9  2  0
  9 10  1  0
 10 11  1  0
 10 12  2  0
 12 13  1  0
 13 14  2  0
 13 15  1  0
 15 16  1  0
 16 17  2  0
 17 18  1  0
 18 19  2  0
 19 20  1  0
 20 21  2  0
 12 22  1  0
 22 23  1  0
 23 24  2  0
 24  2  1  0
 23  9  1  0
 21 16  1  0
  1 25  1  0
  1 26  1  0
  1 27  1  0
  3 28  1  0
 11 29  1  0
 11 30  1  0
 15 31  1  0
 17 32  1  0
 18 33  1  0
 19 34  1  0
 20 35  1  0
 21 36  1  0
M  END
>  <Binding energies>  (1) 
[-6.27]

>  <Ligand effiencies>  (1) 
[-0.23222222222222222]

>  <Interactions>  (1) 
["V-B:TYR:539:CE2:9847, V-B:PRO:540:CA:9854, V-B:TYR:539:CD2:9845, V-B:PRO:540:CD:9858, V-B:PRO:540:CB:9856, V-B:ALA:541:CB:9863, V-B:TYR:539:C:9838, H-B:GLU:543:OE2:9881, V-B:PRO:540:N:9855, V-B:TYR:539:CD1:9844, V-B:TYR:539:CE1:9846, V-A:ARG:545:CZ:4926, V-B:LEU:363:CA:8156, V-A:HIS:456:CE1:4069, V-B:GLU:543:CG:9878, V-B:GLU:543:CD:9879, V-B:ASN:362:CB:8147, V-A:ARG:545:CG:4922, V-A:ARG:545:CD:4923, V-B:ASP:366:CG:8184, V-B:ASN:362:C:8143"]

$$$$
4be_Grossjean_2025
     RDKit          3D

 38 40  0  0  0  0  0  0  0  0999 V2000
  124.3380  124.2460   58.8850 C   0  0  0  0  0  0  0  0  0  0  0  0
  125.7470  123.6940   58.7860 C   0  0  0  0  0  0  0  0  0  0  0  0
  126.1480  122.9050   57.7040 C   0  0  0  0  0  0  0  0  0  0  0  0
  127.4600  122.4290   57.6800 C   0  0  0  0  0  0  0  0  0  0  0  0
  128.3290  122.7490   58.7250 C   0  0  0  0  0  0  0  0  0  0  0  0
  127.8650  123.5500   59.7750 C   0  0  0  0  0  0  0  0  0  0  0  0
  128.7870  123.8300   60.7990 N   0  0  0  0  0  0  0  0  0  0  0  0
  129.7410  123.0250   61.3300 C   0  0  0  0  0  0  0  0  0  0  0  0
  129.9460  121.8670   60.9600 O   0  0  0  0  0  0  0  0  0  0  0  0
  130.5270  123.6130   62.4180 C   0  0  0  0  0  0  0  0  0  0  0  0
  132.2630  123.3220   62.5140 S   0  0  0  0  0  0  0  0  0  0  0  0
  132.3860  124.2660   63.9800 C   0  0  0  0  0  0  0  0  0  0  0  0
  133.5540  124.4390   64.5970 N   0  0  0  0  0  0  0  0  0  0  0  0
  133.5240  125.1910   65.7230 C   0  0  0  0  0  0  0  0  0  0  0  0
  134.8630  125.3750   66.4130 C   0  0  0  0  0  0  0  0  0  0  0  0
  132.3660  125.7690   66.2370 C   0  0  0  0  0  0  0  0  0  0  0  0
  131.1330  125.5900   65.5900 C   0  0  0  0  0  0  0  0  0  0  0  0
  129.8870  126.2480   66.1920 C   0  0  0  0  0  0  0  0  0  0  0  0
  130.1740  127.1180   67.1630 F   0  0  0  0  0  0  0  0  0  0  0  0
  129.2260  126.9130   65.2450 F   0  0  0  0  0  0  0  0  0  0  0  0
  129.0910  125.3150   66.7120 F   0  0  0  0  0  0  0  0  0  0  0  0
  131.1290  124.7980   64.4030 C   0  0  0  0  0  0  0  0  0  0  0  0
  130.0830  124.3980   63.4940 C   0  0  0  0  0  0  0  0  0  0  0  0
  128.7720  124.7620   63.6670 N   0  0  0  0  0  0  0  0  0  0  0  0
  126.5810  124.0150   59.8080 N   0  0  0  0  0  0  0  0  0  0  0  0
  124.0604  124.3548   59.9438 H   0  0  0  0  0  0  0  0  0  0  0  0
  124.2934  125.2281   58.3915 H   0  0  0  0  0  0  0  0  0  0  0  0
  123.6382  123.5556   58.3915 H   0  0  0  0  0  0  0  0  0  0  0  0
  125.4467  122.6651   56.8912 H   0  0  0  0  0  0  0  0  0  0  0  0
  127.8072  121.8056   56.8429 H   0  0  0  0  0  0  0  0  0  0  0  0
  129.3641  122.3767   58.7232 H   0  0  0  0  0  0  0  0  0  0  0  0
  128.6890  124.7440   61.2150 H   0  0  0  0  0  0  0  0  0  0  0  0
  134.7194  125.3553   67.5034 H   0  0  0  0  0  0  0  0  0  0  0  0
  135.5424  124.5618   66.1179 H   0  0  0  0  0  0  0  0  0  0  0  0
  135.2978  126.3413   66.1179 H   0  0  0  0  0  0  0  0  0  0  0  0
  132.4178  126.3702   67.1567 H   0  0  0  0  0  0  0  0  0  0  0  0
  128.4240  125.6640   63.3750 H   0  0  0  0  0  0  0  0  0  0  0  0
  128.1070  124.1370   64.1010 H   0  0  0  0  0  0  0  0  0  0  0  0
  1  2  1  0
  2  3  2  0
  3  4  1  0
  4  5  2  0
  5  6  1  0
  6  7  1  0
  7  8  1  0
  8  9  2  0
  8 10  1  0
 10 11  1  0
 11 12  1  0
 12 13  2  0
 13 14  1  0
 14 15  1  0
 14 16  2  0
 16 17  1  0
 17 18  1  0
 18 19  1  0
 18 20  1  0
 18 21  1  0
 17 22  2  0
 22 23  1  0
 23 24  1  0
  6 25  2  0
 25  2  1  0
 23 10  2  0
 22 12  1  0
  1 26  1  0
  1 27  1  0
  1 28  1  0
  3 29  1  0
  4 30  1  0
  5 31  1  0
  7 32  1  0
 15 33  1  0
 15 34  1  0
 15 35  1  0
 16 36  1  0
 24 37  1  0
 24 38  1  0
M  END
>  <Binding energies>  (1) 
[-6.34]

>  <Ligand effiencies>  (1) 
[-0.22642857142857142]

>  <Interactions>  (1) 
["V-B:TYR:539:CE2:9847, V-B:PRO:540:CA:9854, V-B:TYR:539:CD2:9845, V-B:PRO:540:CD:9858, V-B:TYR:539:CG:9843, V-B:PRO:540:CB:9856, V-B:TYR:539:C:9838, H-B:GLU:543:OE2:9881, V-B:PRO:540:N:9855, V-B:TYR:539:CD1:9844, V-B:TYR:539:CE1:9846, V-B:TYR:539:CZ:9848, H-A:GLY:454:N:4049, H-A:TYR:484:OH:4347, V-A:ARG:545:CZ:4926, V-B:LEU:363:CA:8156, V-A:GLU:543:CD:4908, V-A:GLU:543:CG:4907, V-B:GLU:543:CB:9877, V-A:HIS:456:CE1:4069, V-B:GLU:543:CG:9878, V-B:GLU:543:CD:9879, V-A:ARG:545:CG:4922, V-A:ARG:545:CD:4923, V-A:GLY:454:CA:4048, V-A:GLY:453:C:4041, V-A:GLY:453:CA:4043"]

$$$$
4bf_Grossjean_2025
     RDKit          3D

 35 37  0  0  0  0  0  0  0  0999 V2000
  126.3070  122.4080   56.2650 C   0  0  0  0  0  0  0  0  0  0  0  0
  126.6380  122.7340   57.7110 C   0  0  0  0  0  0  0  0  0  0  0  0
  125.6900  123.3100   58.5510 C   0  0  0  0  0  0  0  0  0  0  0  0
  126.0100  123.6090   59.8840 C   0  0  0  0  0  0  0  0  0  0  0  0
  124.9340  124.2460   60.7710 C   0  0  0  0  0  0  0  0  0  0  0  0
  123.8360  124.5910   60.0940 F   0  0  0  0  0  0  0  0  0  0  0  0
  124.5640  123.3870   61.7210 F   0  0  0  0  0  0  0  0  0  0  0  0
  125.4150  125.3520   61.3400 F   0  0  0  0  0  0  0  0  0  0  0  0
  127.3310  123.2970   60.3240 C   0  0  0  0  0  0  0  0  0  0  0  0
  128.0080  123.4560   61.5870 C   0  0  0  0  0  0  0  0  0  0  0  0
  127.3970  123.9960   62.6910 N   0  0  0  0  0  0  0  0  0  0  0  0
  129.3390  123.0070   61.5870 C   0  0  0  0  0  0  0  0  0  0  0  0
  130.3170  123.0460   62.6790 C   0  0  0  0  0  0  0  0  0  0  0  0
  130.6850  122.0080   63.2280 O   0  0  0  0  0  0  0  0  0  0  0  0
  130.7730  124.2800   63.0050 N   0  0  0  0  0  0  0  0  0  0  0  0
  131.6660  124.6650   64.0230 C   0  0  0  0  0  0  0  0  0  0  0  0
  131.2980  125.0980   65.3090 C   0  0  0  0  0  0  0  0  0  0  0  0
  132.2870  125.4670   66.2240 C   0  0  0  0  0  0  0  0  0  0  0  0
  133.6230  125.3990   65.8260 C   0  0  0  0  0  0  0  0  0  0  0  0
  134.0030  124.9920   64.5900 N   0  0  0  0  0  0  0  0  0  0  0  0
  133.0300  124.6370   63.7120 C   0  0  0  0  0  0  0  0  0  0  0  0
  129.7960  122.3740   60.0080 S   0  0  0  0  0  0  0  0  0  0  0  0
  128.2070  122.7070   59.3610 C   0  0  0  0  0  0  0  0  0  0  0  0
  127.8980  122.4250   58.0960 N   0  0  0  0  0  0  0  0  0  0  0  0
  125.5236  121.6364   56.2331 H   0  0  0  0  0  0  0  0  0  0  0  0
  125.9486  123.3156   55.7573 H   0  0  0  0  0  0  0  0  0  0  0  0
  127.2091  122.0358   55.7573 H   0  0  0  0  0  0  0  0  0  0  0  0
  124.6833  123.5324   58.1676 H   0  0  0  0  0  0  0  0  0  0  0  0
  127.8980  124.5750   63.3490 H   0  0  0  0  0  0  0  0  0  0  0  0
  126.4180  123.8320   62.8820 H   0  0  0  0  0  0  0  0  0  0  0  0
  130.4350  125.0430   62.4370 H   0  0  0  0  0  0  0  0  0  0  0  0
  130.2365  125.1460   65.5933 H   0  0  0  0  0  0  0  0  0  0  0  0
  132.0186  125.8038   67.2362 H   0  0  0  0  0  0  0  0  0  0  0  0
  134.4018  125.6884   66.5469 H   0  0  0  0  0  0  0  0  0  0  0  0
  133.3292  124.3108   62.7050 H   0  0  0  0  0  0  0  0  0  0  0  0
  1  2  1  0
  2  3  2  0
  3  4  1  0
  4  5  1  0
  5  6  1  0
  5  7  1  0
  5  8  1  0
  4  9  2  0
  9 10  1  0
 10 11  1  0
 10 12  2  0
 12 13  1  0
 13 14  2  0
 13 15  1  0
 15 16  1  0
 16 17  2  0
 17 18  1  0
 18 19  2  0
 19 20  1  0
 20 21  2  0
 12 22  1  0
 22 23  1  0
 23 24  2  0
 24  2  1  0
 23  9  1  0
 21 16  1  0
  1 25  1  0
  1 26  1  0
  1 27  1  0
  3 28  1  0
 11 29  1  0
 11 30  1  0
 15 31  1  0
 17 32  1  0
 18 33  1  0
 19 34  1  0
 21 35  1  0
M  END
>  <Binding energies>  (1) 
[-6.7]

>  <Ligand effiencies>  (1) 
[-0.24814814814814815]

>  <Interactions>  (1) 
["V-B:TYR:539:CE2:9847, V-B:PRO:540:CA:9854, V-B:TYR:539:CD2:9845, V-B:PRO:540:CD:9858, H-B:ALA:541:O:9860, V-B:PRO:540:CB:9856, V-B:ALA:541:CB:9863, V-B:TYR:539:C:9838, H-B:GLU:543:OE2:9881, V-B:PRO:540:N:9855, V-B:TYR:539:CD1:9844, H-A:GLY:454:N:4049, H-A:ARG:545:NH1:4927, V-A:ARG:545:CZ:4926, V-B:LEU:363:CA:8156, V-A:HIS:456:CE1:4069, V-B:GLU:543:CG:9878, V-B:GLU:543:CD:9879, V-B:ASN:362:CB:8147, V-A:ARG:545:CD:4923, V-B:ASP:366:CB:8183, V-B:ASP:366:CG:8184, V-B:ASN:362:C:8143"]

$$$$
4bg_Grossjean_2025
     RDKit          3D

 39 41  0  0  0  0  0  0  0  0999 V2000
  134.7670  125.3710   66.7420 C   0  0  0  0  0  0  0  0  0  0  0  0
  133.4650  125.1760   65.9880 C   0  0  0  0  0  0  0  0  0  0  0  0
  132.2910  125.7940   66.4120 C   0  0  0  0  0  0  0  0  0  0  0  0
  131.0910  125.6000   65.7080 C   0  0  0  0  0  0  0  0  0  0  0  0
  129.8250  126.3000   66.2120 C   0  0  0  0  0  0  0  0  0  0  0  0
  130.0680  127.1780   67.1880 F   0  0  0  0  0  0  0  0  0  0  0  0
  129.2490  126.9660   65.2110 F   0  0  0  0  0  0  0  0  0  0  0  0
  128.9700  125.3970   66.6910 F   0  0  0  0  0  0  0  0  0  0  0  0
  131.1390  124.7570   64.5580 C   0  0  0  0  0  0  0  0  0  0  0  0
  130.1370  124.3280   63.6130 C   0  0  0  0  0  0  0  0  0  0  0  0
  128.8220  124.7100   63.7000 N   0  0  0  0  0  0  0  0  0  0  0  0
  130.6290  123.4960   62.5960 C   0  0  0  0  0  0  0  0  0  0  0  0
  129.8950  122.8610   61.5020 C   0  0  0  0  0  0  0  0  0  0  0  0
  130.1900  121.7360   61.0970 O   0  0  0  0  0  0  0  0  0  0  0  0
  128.8600  123.5650   60.9990 N   0  0  0  0  0  0  0  0  0  0  0  0
  127.9980  123.1380   59.8970 C   0  0  0  0  0  0  0  0  0  0  0  0
  126.5310  123.4960   60.0960 C   0  0  0  0  0  0  0  0  0  0  0  0
  125.9950  123.5680   61.3850 C   0  0  0  0  0  0  0  0  0  0  0  0
  124.6640  123.9330   61.5660 C   0  0  0  0  0  0  0  0  0  0  0  0
  123.8750  124.2400   60.4590 C   0  0  0  0  0  0  0  0  0  0  0  0
  124.4080  124.1880   59.1720 C   0  0  0  0  0  0  0  0  0  0  0  0
  125.7390  123.8210   58.9910 C   0  0  0  0  0  0  0  0  0  0  0  0
  132.3510  123.1830   62.8000 S   0  0  0  0  0  0  0  0  0  0  0  0
  132.4080  124.1900   64.2270 C   0  0  0  0  0  0  0  0  0  0  0  0
  133.5440  124.3750   64.9010 N   0  0  0  0  0  0  0  0  0  0  0  0
  134.5719  125.3418   67.8242 H   0  0  0  0  0  0  0  0  0  0  0  0
  135.4696  124.5681   66.4743 H   0  0  0  0  0  0  0  0  0  0  0  0
  135.2035  126.3445   66.4743 H   0  0  0  0  0  0  0  0  0  0  0  0
  132.3036  126.4380   67.3037 H   0  0  0  0  0  0  0  0  0  0  0  0
  128.4990  125.5980   63.3440 H   0  0  0  0  0  0  0  0  0  0  0  0
  128.1300  124.1150   64.1340 H   0  0  0  0  0  0  0  0  0  0  0  0
  128.7260  124.5120   61.3240 H   0  0  0  0  0  0  0  0  0  0  0  0
  128.3510  123.6191   58.9729 H   0  0  0  0  0  0  0  0  0  0  0  0
  128.0582  122.0408   59.8470 H   0  0  0  0  0  0  0  0  0  0  0  0
  126.6251  123.3362   62.2564 H   0  0  0  0  0  0  0  0  0  0  0  0
  124.2367  123.9789   62.5786 H   0  0  0  0  0  0  0  0  0  0  0  0
  122.8225  124.5258   60.6021 H   0  0  0  0  0  0  0  0  0  0  0  0
  123.7801  124.4357   58.3035 H   0  0  0  0  0  0  0  0  0  0  0  0
  126.1672  123.7868   57.9783 H   0  0  0  0  0  0  0  0  0  0  0  0
  1  2  1  0
  2  3  2  0
  3  4  1  0
  4  5  1  0
  5  6  1  0
  5  7  1  0
  5  8  1  0
  4  9  2  0
  9 10  1  0
 10 11  1  0
 10 12  2  0
 12 13  1  0
 13 14  2  0
 13 15  1  0
 15 16  1  0
 16 17  1  0
 17 18  2  0
 18 19  1  0
 19 20  2  0
 20 21  1  0
 21 22  2  0
 12 23  1  0
 23 24  1  0
 24 25  2  0
 25  2  1  0
 24  9  1  0
 22 17  1  0
  1 26  1  0
  1 27  1  0
  1 28  1  0
  3 29  1  0
 11 30  1  0
 11 31  1  0
 15 32  1  0
 16 33  1  0
 16 34  1  0
 18 35  1  0
 19 36  1  0
 20 37  1  0
 21 38  1  0
 22 39  1  0
M  END
>  <Binding energies>  (1) 
[-6.46]

>  <Ligand effiencies>  (1) 
[-0.2307142857142857]

>  <Interactions>  (1) 
["V-B:PRO:540:CA:9854, V-B:PRO:540:CB:9856, H-B:GLU:543:OE2:9881, H-A:GLY:454:N:4049, H-A:TYR:484:OH:4347, V-A:ARG:545:CZ:4926, V-B:LEU:363:CA:8156, V-A:GLU:543:CD:4908, V-A:GLU:543:CG:4907, V-B:GLU:543:CB:9877, V-A:HIS:456:CE1:4069, V-B:GLU:543:CG:9878, V-B:GLU:543:CD:9879, V-B:ASN:362:CB:8147, V-A:ARG:545:CG:4922, V-A:ARG:545:CD:4923, V-A:GLY:454:CA:4048, V-B:ASP:366:CG:8184, V-A:GLY:453:C:4041, V-A:GLY:453:CA:4043, V-A:ILE:455:C:4051, V-B:ASN:362:C:8143, V-B:ASN:362:CA:8145"]

$$$$
4bh_Grossjean_2025
     RDKit          3D

 51 53  0  0  0  0  0  0  0  0999 V2000
  131.7540  129.1460   70.8440 C   0  0  0  0  0  0  0  0  0  0  0  0
  131.3390  128.4960   72.0400 O   0  0  0  0  0  0  0  0  0  0  0  0
  130.3920  127.4910   71.9740 C   0  0  0  0  0  0  0  0  0  0  0  0
  129.6500  127.1880   70.8210 C   0  0  0  0  0  0  0  0  0  0  0  0
  128.7060  126.1600   70.8260 C   0  0  0  0  0  0  0  0  0  0  0  0
  127.9430  125.8160   69.5530 C   0  0  0  0  0  0  0  0  0  0  0  0
  128.7930  125.7420   68.3640 N   0  0  0  0  0  0  0  0  0  0  0  0
  129.1580  126.7910   67.5980 C   0  0  0  0  0  0  0  0  0  0  0  0
  128.7640  127.9390   67.8140 O   0  0  0  0  0  0  0  0  0  0  0  0
  130.0210  126.4840   66.4570 C   0  0  0  0  0  0  0  0  0  0  0  0
  131.5060  125.5680   66.6960 S   0  0  0  0  0  0  0  0  0  0  0  0
  131.9030  125.6880   64.9970 C   0  0  0  0  0  0  0  0  0  0  0  0
  133.0110  125.1380   64.5020 N   0  0  0  0  0  0  0  0  0  0  0  0
  133.2090  125.2960   63.1730 C   0  0  0  0  0  0  0  0  0  0  0  0
  134.4790  124.6640   62.6300 C   0  0  0  0  0  0  0  0  0  0  0  0
  132.3350  125.9810   62.3350 C   0  0  0  0  0  0  0  0  0  0  0  0
  131.1660  126.5650   62.8510 C   0  0  0  0  0  0  0  0  0  0  0  0
  130.2320  127.3070   61.8890 C   0  0  0  0  0  0  0  0  0  0  0  0
  130.1300  128.6100   62.1610 F   0  0  0  0  0  0  0  0  0  0  0  0
  130.6860  127.1940   60.6420 F   0  0  0  0  0  0  0  0  0  0  0  0
  129.0070  126.7860   61.9600 F   0  0  0  0  0  0  0  0  0  0  0  0
  130.9280  126.4190   64.2500 C   0  0  0  0  0  0  0  0  0  0  0  0
  129.8690  126.8740   65.1170 C   0  0  0  0  0  0  0  0  0  0  0  0
  128.8060  127.6130   64.6670 N   0  0  0  0  0  0  0  0  0  0  0  0
  128.5190  125.4040   71.9860 C   0  0  0  0  0  0  0  0  0  0  0  0
  129.2410  125.6890   73.1550 C   0  0  0  0  0  0  0  0  0  0  0  0
  129.0970  124.9920   74.3410 O   0  0  0  0  0  0  0  0  0  0  0  0
  129.4740  123.6210   74.3940 C   0  0  0  0  0  0  0  0  0  0  0  0
  130.1710  126.7390   73.1370 C   0  0  0  0  0  0  0  0  0  0  0  0
  130.8980  127.0180   74.2700 O   0  0  0  0  0  0  0  0  0  0  0  0
  131.8760  126.0360   74.5850 C   0  0  0  0  0  0  0  0  0  0  0  0
  132.3300  130.0481   71.0979 H   0  0  0  0  0  0  0  0  0  0  0  0
  132.3834  128.4628   70.2548 H   0  0  0  0  0  0  0  0  0  0  0  0
  130.8694  129.4295   70.2548 H   0  0  0  0  0  0  0  0  0  0  0  0
  129.8150  127.7687   69.9014 H   0  0  0  0  0  0  0  0  0  0  0  0
  127.4546  124.8404   69.6929 H   0  0  0  0  0  0  0  0  0  0  0  0
  127.2179  126.6253   69.3821 H   0  0  0  0  0  0  0  0  0  0  0  0
  129.2200  124.8460   68.1790 H   0  0  0  0  0  0  0  0  0  0  0  0
  135.1175  124.3463   63.4675 H   0  0  0  0  0  0  0  0  0  0  0  0
  134.2195  123.7899   62.0146 H   0  0  0  0  0  0  0  0  0  0  0  0
  135.0198  125.3981   62.0146 H   0  0  0  0  0  0  0  0  0  0  0  0
  132.5606  126.0659   61.2617 H   0  0  0  0  0  0  0  0  0  0  0  0
  128.8710  128.6130   64.5290 H   0  0  0  0  0  0  0  0  0  0  0  0
  127.9150  127.1830   64.4650 H   0  0  0  0  0  0  0  0  0  0  0  0
  127.7964  124.5746   71.9828 H   0  0  0  0  0  0  0  0  0  0  0  0
  129.5609  123.3050   75.4440 H   0  0  0  0  0  0  0  0  0  0  0  0
  128.7103  123.0109   73.8895 H   0  0  0  0  0  0  0  0  0  0  0  0
  130.4423  123.4872   73.8895 H   0  0  0  0  0  0  0  0  0  0  0  0
  131.9661  125.9455   75.6776 H   0  0  0  0  0  0  0  0  0  0  0  0
  131.5730  125.0674   74.1606 H   0  0  0  0  0  0  0  0  0  0  0  0
  132.8458  126.3350   74.1606 H   0  0  0  0  0  0  0  0  0  0  0  0
  1  2  1  0
  2  3  1  0
  3  4  2  0
  4  5  1  0
  5  6  1  0
  6  7  1  0
  7  8  1  0
  8  9  2  0
  8 10  1  0
 10 11  1  0
 11 12  1  0
 12 13  2  0
 13 14  1  0
 14 15  1  0
 14 16  2  0
 16 17  1  0
 17 18  1  0
 18 19  1  0
 18 20  1  0
 18 21  1  0
 17 22  2  0
 22 23  1  0
 23 24  1  0
  5 25  2  0
 25 26  1  0
 26 27  1  0
 27 28  1  0
 26 29  2  0
 29 30  1  0
 30 31  1  0
 29  3  1  0
 23 10  2  0
 22 12  1  0
  1 32  1  0
  1 33  1  0
  1 34  1  0
  4 35  1  0
  6 36  1  0
  6 37  1  0
  7 38  1  0
 15 39  1  0
 15 40  1  0
 15 41  1  0
 16 42  1  0
 24 43  1  0
 24 44  1  0
 25 45  1  0
 28 46  1  0
 28 47  1  0
 28 48  1  0
 31 49  1  0
 31 50  1  0
 31 51  1  0
M  END
>  <Binding energies>  (1) 
[-6.07]

>  <Ligand effiencies>  (1) 
[-0.17852941176470588]

>  <Interactions>  (1) 
["H-B:GLU:543:OE2:9881, V-A:ASP:366:CG:3212, V-A:ILE:369:CD1:3238, H-A:GLU:543:OE2:4910, V-A:ARG:545:CZ:4926, V-A:GLU:543:CD:4908, V-A:GLU:543:CB:4906, V-B:HIS:456:CE1:9041, V-B:GLU:543:CB:9877, V-A:HIS:456:CE1:4069, V-B:GLU:543:CG:9878, V-B:GLU:543:CD:9879, V-A:HIS:456:CD2:4067, H-A:GLU:543:OE1:4909, H-B:GLU:543:OE1:9880, H-B:LYS:547:NZ:9922, V-B:LYS:547:CE:9921, V-A:GLY:453:C:4041, V-A:GLY:453:CA:4043, H-B:GLU:543:O:9874, V-B:GLU:543:CA:9875, V-B:GLU:543:C:9873, V-A:HIS:456:CG:4065, H-A:LYS:547:NZ:4951, V-A:GLU:543:C:4902, V-A:ARG:545:CA:4919, V-A:GLY:544:C:4912, V-A:HIS:456:CB:4064, H-A:HIS:456:NE2:4070, V-A:GLY:544:CA:4914"]

$$$$
4bi_Grossjean_2025
     RDKit          3D

 32 34  0  0  0  0  0  0  0  0999 V2000
  126.8410  122.4370   56.4900 C   0  0  0  0  0  0  0  0  0  0  0  0
  127.0940  122.7450   57.9550 C   0  0  0  0  0  0  0  0  0  0  0  0
  126.0610  123.1710   58.7870 C   0  0  0  0  0  0  0  0  0  0  0  0
  126.3080  123.4480   60.1420 C   0  0  0  0  0  0  0  0  0  0  0  0
  125.1390  123.9050   61.0200 C   0  0  0  0  0  0  0  0  0  0  0  0
  123.9990  124.0440   60.3400 F   0  0  0  0  0  0  0  0  0  0  0  0
  124.9220  123.0110   61.9840 F   0  0  0  0  0  0  0  0  0  0  0  0
  125.4230  125.0860   61.5700 F   0  0  0  0  0  0  0  0  0  0  0  0
  127.6460  123.2780   60.6080 C   0  0  0  0  0  0  0  0  0  0  0  0
  128.2660  123.4640   61.8970 C   0  0  0  0  0  0  0  0  0  0  0  0
  127.5710  123.8930   62.9990 N   0  0  0  0  0  0  0  0  0  0  0  0
  129.6380  123.1620   61.9240 C   0  0  0  0  0  0  0  0  0  0  0  0
  130.5710  123.2500   63.0500 C   0  0  0  0  0  0  0  0  0  0  0  0
  130.6300  122.3510   63.8910 O   0  0  0  0  0  0  0  0  0  0  0  0
  131.3510  124.3600   63.0740 N   0  0  0  0  0  0  0  0  0  0  0  0
  132.3210  124.6920   64.0110 C   0  0  0  0  0  0  0  0  0  0  0  0
  132.0180  125.1670   65.2860 C   0  0  0  0  0  0  0  0  0  0  0  0
  133.2370  125.3730   65.8910 C   0  0  0  0  0  0  0  0  0  0  0  0
  134.2230  125.0390   65.0250 O   0  0  0  0  0  0  0  0  0  0  0  0
  133.6290  124.6080   63.8360 N   0  0  0  0  0  0  0  0  0  0  0  0
  130.2100  122.6580   60.3350 S   0  0  0  0  0  0  0  0  0  0  0  0
  128.6110  122.8360   59.6520 C   0  0  0  0  0  0  0  0  0  0  0  0
  128.3700  122.5730   58.3680 N   0  0  0  0  0  0  0  0  0  0  0  0
  126.1447  121.5893   56.4085 H   0  0  0  0  0  0  0  0  0  0  0  0
  126.4035  123.3193   56.0001 H   0  0  0  0  0  0  0  0  0  0  0  0
  127.7915  122.1792   56.0001 H   0  0  0  0  0  0  0  0  0  0  0  0
  125.0459  123.2912   58.3806 H   0  0  0  0  0  0  0  0  0  0  0  0
  126.5610  123.8780   63.0330 H   0  0  0  0  0  0  0  0  0  0  0  0
  128.0480  124.2460   63.8170 H   0  0  0  0  0  0  0  0  0  0  0  0
  131.2260  125.0250   62.3250 H   0  0  0  0  0  0  0  0  0  0  0  0
  131.0203  125.3398   65.7158 H   0  0  0  0  0  0  0  0  0  0  0  0
  133.3863  125.7487   66.9140 H   0  0  0  0  0  0  0  0  0  0  0  0
  1  2  1  0
  2  3  2  0
  3  4  1  0
  4  5  1  0
  5  6  1  0
  5  7  1  0
  5  8  1  0
  4  9  2  0
  9 10  1  0
 10 11  1  0
 10 12  2  0
 12 13  1  0
 13 14  2  0
 13 15  1  0
 15 16  1  0
 16 17  1  0
 17 18  2  0
 18 19  1  0
 19 20  1  0
 12 21  1  0
 21 22  1  0
 22 23  2  0
 23  2  1  0
 22  9  1  0
 20 16  2  0
  1 24  1  0
  1 25  1  0
  1 26  1  0
  3 27  1  0
 11 28  1  0
 11 29  1  0
 15 30  1  0
 17 31  1  0
 18 32  1  0
M  END
>  <Binding energies>  (1) 
[-6.71]

>  <Ligand effiencies>  (1) 
[-0.2580769230769231]

>  <Interactions>  (1) 
["V-B:TYR:539:CE2:9847, V-B:PRO:540:CA:9854, V-B:TYR:539:CD2:9845, V-B:TYR:539:CG:9843, V-B:PRO:540:CB:9856, V-B:ALA:541:CB:9863, V-B:TYR:539:C:9838, H-B:GLU:543:OE2:9881, V-B:PRO:540:N:9855, V-B:TYR:539:CD1:9844, V-B:ALA:541:CA:9861, V-B:TYR:539:CE1:9846, H-A:GLY:454:N:4049, H-A:ARG:545:NE:4924, H-A:ARG:545:NH1:4927, H-A:TYR:484:OH:4347, V-A:ARG:545:CZ:4926, V-B:LEU:363:CA:8156, V-B:GLU:543:CG:9878, V-B:GLU:543:CD:9879, V-B:PRO:540:C:9852, V-B:ASN:362:CB:8147, V-A:ARG:545:CD:4923, V-B:ASP:366:CG:8184, V-B:ALA:541:C:9859, V-B:ASN:362:C:8143"]

$$$$
4bj_Grossjean_2025
     RDKit          3D

 32 34  0  0  0  0  0  0  0  0999 V2000
  126.8470  122.3630   56.5550 C   0  0  0  0  0  0  0  0  0  0  0  0
  127.1130  122.7100   58.0080 C   0  0  0  0  0  0  0  0  0  0  0  0
  126.1060  123.2320   58.8160 C   0  0  0  0  0  0  0  0  0  0  0  0
  126.3680  123.5550   60.1570 C   0  0  0  0  0  0  0  0  0  0  0  0
  125.2290  124.1300   61.0080 C   0  0  0  0  0  0  0  0  0  0  0  0
  124.9170  123.3590   62.0510 F   0  0  0  0  0  0  0  0  0  0  0  0
  125.5790  125.3240   61.4830 F   0  0  0  0  0  0  0  0  0  0  0  0
  124.1310  124.2560   60.2620 F   0  0  0  0  0  0  0  0  0  0  0  0
  127.6900  123.3220   60.6380 C   0  0  0  0  0  0  0  0  0  0  0  0
  128.3190  123.5280   61.9210 C   0  0  0  0  0  0  0  0  0  0  0  0
  127.6500  124.0480   62.9990 N   0  0  0  0  0  0  0  0  0  0  0  0
  129.6690  123.1440   61.9660 C   0  0  0  0  0  0  0  0  0  0  0  0
  130.6030  123.2230   63.0910 C   0  0  0  0  0  0  0  0  0  0  0  0
  130.9830  122.2020   63.6690 O   0  0  0  0  0  0  0  0  0  0  0  0
  131.0120  124.4730   63.4220 N   0  0  0  0  0  0  0  0  0  0  0  0
  131.8960  124.8200   64.4340 C   0  0  0  0  0  0  0  0  0  0  0  0
  133.1900  124.5900   64.4910 N   0  0  0  0  0  0  0  0  0  0  0  0
  133.7200  125.0660   65.6000 C   0  0  0  0  0  0  0  0  0  0  0  0
  132.8450  125.7010   66.4760 C   0  0  0  0  0  0  0  0  0  0  0  0
  131.2430  125.6640   65.8020 S   0  0  0  0  0  0  0  0  0  0  0  0
  130.2110  122.5320   60.4050 S   0  0  0  0  0  0  0  0  0  0  0  0
  128.6280  122.7790   59.7070 C   0  0  0  0  0  0  0  0  0  0  0  0
  128.3760  122.4770   58.4340 N   0  0  0  0  0  0  0  0  0  0  0  0
  126.1785  121.4910   56.5027 H   0  0  0  0  0  0  0  0  0  0  0  0
  126.3720  123.2196   56.0545 H   0  0  0  0  0  0  0  0  0  0  0  0
  127.7976  122.1268   56.0545 H   0  0  0  0  0  0  0  0  0  0  0  0
  125.0998  123.3921   58.4013 H   0  0  0  0  0  0  0  0  0  0  0  0
  128.1090  124.2230   63.8810 H   0  0  0  0  0  0  0  0  0  0  0  0
  126.6650  124.2700   62.9480 H   0  0  0  0  0  0  0  0  0  0  0  0
  130.6460  125.2400   62.8780 H   0  0  0  0  0  0  0  0  0  0  0  0
  134.7931  124.9669   65.8205 H   0  0  0  0  0  0  0  0  0  0  0  0
  133.1223  126.1534   67.4396 H   0  0  0  0  0  0  0  0  0  0  0  0
  1  2  1  0
  2  3  2  0
  3  4  1  0
  4  5  1  0
  5  6  1  0
  5  7  1  0
  5  8  1  0
  4  9  2  0
  9 10  1  0
 10 11  1  0
 10 12  2  0
 12 13  1  0
 13 14  2  0
 13 15  1  0
 15 16  1  0
 16 17  2  0
 17 18  1  0
 18 19  2  0
 19 20  1  0
 12 21  1  0
 21 22  1  0
 22 23  2  0
 23  2  1  0
 22  9  1  0
 20 16  1  0
  1 24  1  0
  1 25  1  0
  1 26  1  0
  3 27  1  0
 11 28  1  0
 11 29  1  0
 15 30  1  0
 18 31  1  0
 19 32  1  0
M  END
>  <Binding energies>  (1) 
[-5.97]

>  <Ligand effiencies>  (1) 
[-0.2296153846153846]

>  <Interactions>  (1) 
["V-B:TYR:539:CE2:9847, V-B:PRO:540:CA:9854, V-B:TYR:539:CD2:9845, V-B:PRO:540:CD:9858, V-B:TYR:539:CG:9843, V-B:PRO:540:CB:9856, V-B:ALA:541:CB:9863, V-B:TYR:539:C:9838, H-B:GLU:543:OE2:9881, V-B:PRO:540:N:9855, V-B:TYR:539:CD1:9844, V-B:TYR:539:CE1:9846, H-A:GLY:454:N:4049, H-A:TYR:484:OH:4347, V-A:ARG:545:CZ:4926, V-B:LEU:363:CA:8156, V-A:HIS:456:CE1:4069, V-B:GLU:543:CG:9878, V-B:GLU:543:CD:9879, V-B:ASN:362:CB:8147, V-A:ARG:545:CG:4922, V-A:ARG:545:CD:4923, V-A:GLY:454:CA:4048, V-B:ASP:366:CG:8184, V-B:ASN:362:C:8143"]

$$$$
4bk_Grossjean_2025
     RDKit          3D

 50 51  0  0  0  0  0  0  0  0999 V2000
  128.7020  125.0020   71.9880 C   0  0  0  0  0  0  0  0  0  0  0  0
  128.5000  125.8160   73.1340 O   0  0  0  0  0  0  0  0  0  0  0  0
  128.7580  127.1940   72.9010 C   0  0  0  0  0  0  0  0  0  0  0  0
  129.6260  127.7520   74.0370 C   0  0  0  0  0  0  0  0  0  0  0  0
  130.6180  128.6110   73.4930 O   0  0  0  0  0  0  0  0  0  0  0  0
  130.4570  128.8700   72.1050 C   0  0  0  0  0  0  0  0  0  0  0  0
  131.7020  128.3880   71.3490 C   0  0  0  0  0  0  0  0  0  0  0  0
  131.3310  127.9950   70.0350 O   0  0  0  0  0  0  0  0  0  0  0  0
  129.9640  127.6190   69.9120 C   0  0  0  0  0  0  0  0  0  0  0  0
  129.4600  127.9850   68.5050 C   0  0  0  0  0  0  0  0  0  0  0  0
  129.8850  127.0470   67.4660 N   0  0  0  0  0  0  0  0  0  0  0  0
  129.7050  125.7100   67.5010 C   0  0  0  0  0  0  0  0  0  0  0  0
  129.1300  125.1460   68.4340 O   0  0  0  0  0  0  0  0  0  0  0  0
  130.2250  124.9600   66.3570 C   0  0  0  0  0  0  0  0  0  0  0  0
  129.5050  123.4140   65.9130 S   0  0  0  0  0  0  0  0  0  0  0  0
  130.6000  123.2430   64.5620 C   0  0  0  0  0  0  0  0  0  0  0  0
  130.5550  122.1800   63.7610 N   0  0  0  0  0  0  0  0  0  0  0  0
  131.4520  122.1600   62.7470 C   0  0  0  0  0  0  0  0  0  0  0  0
  131.3810  120.9400   61.8460 C   0  0  0  0  0  0  0  0  0  0  0  0
  132.3830  123.1700   62.5180 C   0  0  0  0  0  0  0  0  0  0  0  0
  132.4370  124.2920   63.3590 C   0  0  0  0  0  0  0  0  0  0  0  0
  133.4810  125.3750   63.0700 C   0  0  0  0  0  0  0  0  0  0  0  0
  134.2050  125.7030   64.1420 F   0  0  0  0  0  0  0  0  0  0  0  0
  134.3270  124.9470   62.1330 F   0  0  0  0  0  0  0  0  0  0  0  0
  132.8770  126.4830   62.6430 F   0  0  0  0  0  0  0  0  0  0  0  0
  131.5040  124.3450   64.4380 C   0  0  0  0  0  0  0  0  0  0  0  0
  131.2600  125.3120   65.4780 C   0  0  0  0  0  0  0  0  0  0  0  0
  131.9810  126.4730   65.5960 N   0  0  0  0  0  0  0  0  0  0  0  0
  128.9557  123.9796   72.3046 H   0  0  0  0  0  0  0  0  0  0  0  0
  127.7817  124.9816   71.3859 H   0  0  0  0  0  0  0  0  0  0  0  0
  129.5251  125.4143   71.3859 H   0  0  0  0  0  0  0  0  0  0  0  0
  129.2873  127.3111   71.9439 H   0  0  0  0  0  0  0  0  0  0  0  0
  127.8059  127.7437   72.8635 H   0  0  0  0  0  0  0  0  0  0  0  0
  128.9945  128.3178   74.7377 H   0  0  0  0  0  0  0  0  0  0  0  0
  130.1110  126.9218   74.5713 H   0  0  0  0  0  0  0  0  0  0  0  0
  129.5712  128.3349   71.7321 H   0  0  0  0  0  0  0  0  0  0  0  0
  130.3257  129.9504   71.9456 H   0  0  0  0  0  0  0  0  0  0  0  0
  132.4376  129.2041   71.2945 H   0  0  0  0  0  0  0  0  0  0  0  0
  132.1457  127.5317   71.8781 H   0  0  0  0  0  0  0  0  0  0  0  0
  129.8660  126.5344   70.0667 H   0  0  0  0  0  0  0  0  0  0  0  0
  129.3664  128.1507   70.6671 H   0  0  0  0  0  0  0  0  0  0  0  0
  128.3604  128.0067   68.5247 H   0  0  0  0  0  0  0  0  0  0  0  0
  129.8944  128.9634   68.2522 H   0  0  0  0  0  0  0  0  0  0  0  0
  130.3630  127.4480   66.6730 H   0  0  0  0  0  0  0  0  0  0  0  0
  131.3281  120.0310   62.4632 H   0  0  0  0  0  0  0  0  0  0  0  0
  130.4851  121.0048   61.2110 H   0  0  0  0  0  0  0  0  0  0  0  0
  132.2784  120.9004   61.2110 H   0  0  0  0  0  0  0  0  0  0  0  0
  133.0810  123.0877   61.6718 H   0  0  0  0  0  0  0  0  0  0  0  0
  131.9720  127.1840   64.8780 H   0  0  0  0  0  0  0  0  0  0  0  0
  132.5460  126.6590   66.4130 H   0  0  0  0  0  0  0  0  0  0  0  0
  1  2  1  0
  2  3  1  0
  3  4  1  0
  4  5  1  0
  5  6  1  0
  6  7  1  0
  7  8  1  0
  8  9  1  0
  9 10  1  0
 10 11  1  0
 11 12  1  0
 12 13  2  0
 12 14  1  0
 14 15  1  0
 15 16  1  0
 16 17  2  0
 17 18  1  0
 18 19  1  0
 18 20  2  0
 20 21  1  0
 21 22  1  0
 22 23  1  0
 22 24  1  0
 22 25  1  0
 21 26  2  0
 26 27  1  0
 27 28  1  0
 27 14  2  0
 26 16  1  0
  1 29  1  0
  1 30  1  0
  1 31  1  0
  3 32  1  0
  3 33  1  0
  4 34  1  0
  4 35  1  0
  6 36  1  0
  6 37  1  0
  7 38  1  0
  7 39  1  0
  9 40  1  0
  9 41  1  0
 10 42  1  0
 10 43  1  0
 11 44  1  0
 19 45  1  0
 19 46  1  0
 19 47  1  0
 20 48  1  0
 28 49  1  0
 28 50  1  0
M  END
>  <Binding energies>  (1) 
[-5.46]

>  <Ligand effiencies>  (1) 
[-0.1761290322580645]

>  <Interactions>  (1) 
["V-A:LEU:475:CD2:4258, V-A:ASP:366:CG:3212, V-A:ILE:369:CD1:3238, H-A:GLU:543:OE2:4910, V-A:ARG:545:CZ:4926, V-A:GLU:543:CD:4908, V-A:GLU:543:CG:4907, V-A:GLU:543:CB:4906, V-B:GLU:543:CB:9877, V-A:TYR:484:CZ:4346, V-A:HIS:456:CE1:4069, V-B:GLU:543:CG:9878, V-B:HIS:456:CD2:9039, V-B:GLU:543:CD:9879, V-A:TYR:484:CE1:4344, V-A:HIS:456:CD2:4067, H-A:HIS:456:ND1:4066, H-A:GLU:543:OE1:4909, V-A:ARG:545:CD:4923, H-B:LYS:547:NZ:9922, V-A:GLY:453:C:4041, V-A:GLY:453:CA:4043, V-B:GLU:543:CA:9875, H-A:LYS:547:NZ:4951, V-A:ARG:545:CA:4919, V-A:GLY:544:C:4912"]

$$$$
4ca_Grossjean_2025
     RDKit          3D

 52 55  0  0  0  0  0  0  0  0999 V2000
  127.6610  133.0410   73.8780 C   0  0  0  0  0  0  0  0  0  0  0  0
  127.7350  131.6980   73.1450 C   0  0  0  0  0  0  0  0  0  0  0  0
  129.0030  131.5720   72.5150 O   0  0  0  0  0  0  0  0  0  0  0  0
  129.7890  130.4860   72.7310 C   0  0  0  0  0  0  0  0  0  0  0  0
  130.3470  130.2540   73.8090 O   0  0  0  0  0  0  0  0  0  0  0  0
  129.9100  129.5930   71.5310 C   0  0  0  0  0  0  0  0  0  0  0  0
  130.8590  128.5620   71.5370 C   0  0  0  0  0  0  0  0  0  0  0  0
  130.9910  127.7150   70.4400 C   0  0  0  0  0  0  0  0  0  0  0  0
  130.1860  127.8850   69.3140 C   0  0  0  0  0  0  0  0  0  0  0  0
  130.3980  126.9670   68.2670 N   0  0  0  0  0  0  0  0  0  0  0  0
  129.8000  125.7760   68.0150 C   0  0  0  0  0  0  0  0  0  0  0  0
  128.8830  125.3070   68.6890 O   0  0  0  0  0  0  0  0  0  0  0  0
  130.3080  125.0570   66.8450 C   0  0  0  0  0  0  0  0  0  0  0  0
  129.4980  123.5960   66.2830 S   0  0  0  0  0  0  0  0  0  0  0  0
  130.6170  123.4350   64.9500 C   0  0  0  0  0  0  0  0  0  0  0  0
  130.5180  122.4340   64.0790 N   0  0  0  0  0  0  0  0  0  0  0  0
  131.4240  122.3980   63.0680 C   0  0  0  0  0  0  0  0  0  0  0  0
  131.2800  121.2630   62.0960 C   0  0  0  0  0  0  0  0  0  0  0  0
  130.1090  120.4890   62.0620 C   0  0  0  0  0  0  0  0  0  0  0  0
  129.9710  119.4310   61.1670 C   0  0  0  0  0  0  0  0  0  0  0  0
  131.0080  119.1310   60.2890 C   0  0  0  0  0  0  0  0  0  0  0  0
  132.1800  119.8800   60.3020 C   0  0  0  0  0  0  0  0  0  0  0  0
  132.3130  120.9360   61.1990 C   0  0  0  0  0  0  0  0  0  0  0  0
  132.4380  123.3550   62.9500 C   0  0  0  0  0  0  0  0  0  0  0  0
  132.5540  124.4110   63.8660 C   0  0  0  0  0  0  0  0  0  0  0  0
  133.6870  125.4260   63.6760 C   0  0  0  0  0  0  0  0  0  0  0  0
  134.7110  124.9410   62.9710 F   0  0  0  0  0  0  0  0  0  0  0  0
  133.2300  126.4970   63.0290 F   0  0  0  0  0  0  0  0  0  0  0  0
  134.1630  125.7990   64.8640 F   0  0  0  0  0  0  0  0  0  0  0  0
  131.5980  124.4680   64.9210 C   0  0  0  0  0  0  0  0  0  0  0  0
  131.3950  125.3840   66.0170 C   0  0  0  0  0  0  0  0  0  0  0  0
  132.1970  126.4760   66.2280 N   0  0  0  0  0  0  0  0  0  0  0  0
  129.2300  128.9100   69.3000 C   0  0  0  0  0  0  0  0  0  0  0  0
  129.0960  129.7550   70.3990 C   0  0  0  0  0  0  0  0  0  0  0  0
  127.6706  132.8670   74.9641 H   0  0  0  0  0  0  0  0  0  0  0  0
  128.5264  133.6596   73.5981 H   0  0  0  0  0  0  0  0  0  0  0  0
  126.7329  133.5608   73.5981 H   0  0  0  0  0  0  0  0  0  0  0  0
  127.6008  130.8785   73.8664 H   0  0  0  0  0  0  0  0  0  0  0  0
  126.9413  131.6506   72.3849 H   0  0  0  0  0  0  0  0  0  0  0  0
  131.5052  128.4207   72.4159 H   0  0  0  0  0  0  0  0  0  0  0  0
  131.7357  126.9057   70.4616 H   0  0  0  0  0  0  0  0  0  0  0  0
  131.0980  127.2570   67.6000 H   0  0  0  0  0  0  0  0  0  0  0  0
  129.2865  120.7223   62.7542 H   0  0  0  0  0  0  0  0  0  0  0  0
  129.0464  118.8352   61.1542 H   0  0  0  0  0  0  0  0  0  0  0  0
  130.9003  118.2965   59.5804 H   0  0  0  0  0  0  0  0  0  0  0  0
  132.9977  119.6390   59.6068 H   0  0  0  0  0  0  0  0  0  0  0  0
  133.2420  121.5250   61.2065 H   0  0  0  0  0  0  0  0  0  0  0  0
  133.1585  123.2777   62.1224 H   0  0  0  0  0  0  0  0  0  0  0  0
  132.5110  127.0640   65.4680 H   0  0  0  0  0  0  0  0  0  0  0  0
  132.5030  126.7340   67.1570 H   0  0  0  0  0  0  0  0  0  0  0  0
  128.5847  129.0472   68.4198 H   0  0  0  0  0  0  0  0  0  0  0  0
  128.3443  130.5578   70.3797 H   0  0  0  0  0  0  0  0  0  0  0  0
  1  2  1  0
  2  3  1  0
  3  4  1  0
  4  5  2  0
  4  6  1  0
  6  7  2  0
  7  8  1  0
  8  9  2  0
  9 10  1  0
 10 11  1  0
 11 12  2  0
 11 13  1  0
 13 14  1  0
 14 15  1  0
 15 16  2  0
 16 17  1  0
 17 18  1  0
 18 19  2  0
 19 20  1  0
 20 21  2  0
 21 22  1  0
 22 23  2  0
 17 24  2  0
 24 25  1  0
 25 26  1  0
 26 27  1  0
 26 28  1  0
 26 29  1  0
 25 30  2  0
 30 31  1  0
 31 32  1  0
  9 33  1  0
 33 34  2  0
 34  6  1  0
 31 13  2  0
 30 15  1  0
 23 18  1  0
  1 35  1  0
  1 36  1  0
  1 37  1  0
  2 38  1  0
  2 39  1  0
  7 40  1  0
  8 41  1  0
 10 42  1  0
 19 43  1  0
 20 44  1  0
 21 45  1  0
 22 46  1  0
 23 47  1  0
 24 48  1  0
 32 49  1  0
 32 50  1  0
 33 51  1  0
 34 52  1  0
M  END
>  <Binding energies>  (1) 
[-7.38]

>  <Ligand effiencies>  (1) 
[-0.19945945945945945]

>  <Interactions>  (1) 
["V-A:PRO:482:CG:4326, V-B:TYR:539:CE2:9847, V-B:TYR:539:CD2:9845, V-B:ALA:541:CB:9863, V-A:LEU:475:CD2:4258, V-B:ALA:541:CA:9861, V-A:PRO:482:CB:4325, V-A:ASP:366:CG:3212, V-A:ILE:369:CD1:3238, V-A:ILE:369:CG2:3236, H-A:GLU:543:OE2:4910, V-A:ARG:545:CZ:4926, V-A:GLU:543:CD:4908, V-A:GLU:543:CG:4907, V-A:GLU:543:CB:4906, V-B:HIS:456:CE1:9041, V-B:GLU:543:CB:9877, V-A:TYR:484:CZ:4346, V-A:HIS:456:CE1:4069, V-B:HIS:456:CG:9037, V-B:GLU:543:CG:9878, V-B:TYR:484:CD1:9314, V-B:GLU:543:CD:9879, V-A:TYR:484:CE1:4344, H-A:GLU:543:OE1:4909, V-A:ARG:545:CG:4922, V-A:ARG:545:CD:4923, V-A:GLY:453:C:4041, V-A:GLY:453:CA:4043, V-B:GLU:543:CA:9875, V-A:TRP:381:CH2:3371, V-A:TRP:381:CZ2:3369, V-A:TRP:381:CZ3:3370, H-A:LYS:547:NZ:4951, V-B:TYR:484:CG:9313, V-A:GLU:543:C:4902, V-B:ASP:473:CG:9211, V-B:ASP:473:CB:9210, V-B:TYR:484:CB:9312, V-B:HIS:456:CB:9036"]

$$$$
4cb_Grossjean_2025
     RDKit          3D

 49 52  0  0  0  0  0  0  0  0999 V2000
  124.9660  123.8730   56.3830 C   0  0  0  0  0  0  0  0  0  0  0  0
  125.4280  122.7380   57.1030 O   0  0  0  0  0  0  0  0  0  0  0  0
  126.7500  122.5610   57.3550 C   0  0  0  0  0  0  0  0  0  0  0  0
  127.5170  121.9740   56.5860 O   0  0  0  0  0  0  0  0  0  0  0  0
  127.1890  123.1520   58.6650 C   0  0  0  0  0  0  0  0  0  0  0  0
  126.7830  124.4500   59.0000 C   0  0  0  0  0  0  0  0  0  0  0  0
  127.1670  125.0220   60.2090 C   0  0  0  0  0  0  0  0  0  0  0  0
  127.9670  124.3130   61.1050 C   0  0  0  0  0  0  0  0  0  0  0  0
  128.2830  124.9810   62.3040 N   0  0  0  0  0  0  0  0  0  0  0  0
  129.4700  125.4600   62.7490 C   0  0  0  0  0  0  0  0  0  0  0  0
  130.5190  125.4200   62.1040 O   0  0  0  0  0  0  0  0  0  0  0  0
  129.4380  126.0690   64.0810 C   0  0  0  0  0  0  0  0  0  0  0  0
  130.3880  125.3790   65.3950 S   0  0  0  0  0  0  0  0  0  0  0  0
  129.8560  126.6270   66.4970 C   0  0  0  0  0  0  0  0  0  0  0  0
  130.2670  126.6590   67.7620 N   0  0  0  0  0  0  0  0  0  0  0  0
  129.8080  127.6740   68.5400 C   0  0  0  0  0  0  0  0  0  0  0  0
  130.2940  127.6860   69.9610 C   0  0  0  0  0  0  0  0  0  0  0  0
  129.4340  127.3420   71.0160 C   0  0  0  0  0  0  0  0  0  0  0  0
  129.8770  127.3550   72.3370 C   0  0  0  0  0  0  0  0  0  0  0  0
  131.1910  127.7140   72.6200 C   0  0  0  0  0  0  0  0  0  0  0  0
  132.0630  128.0620   71.5930 C   0  0  0  0  0  0  0  0  0  0  0  0
  131.6150  128.0500   70.2760 C   0  0  0  0  0  0  0  0  0  0  0  0
  128.9210  128.6380   68.0490 C   0  0  0  0  0  0  0  0  0  0  0  0
  128.4780  128.6110   66.7180 C   0  0  0  0  0  0  0  0  0  0  0  0
  127.5070  129.7000   66.2440 C   0  0  0  0  0  0  0  0  0  0  0  0
  127.8590  130.2410   65.0760 F   0  0  0  0  0  0  0  0  0  0  0  0
  126.2890  129.1810   66.0930 F   0  0  0  0  0  0  0  0  0  0  0  0
  127.4590  130.6840   67.1410 F   0  0  0  0  0  0  0  0  0  0  0  0
  128.9670  127.5600   65.8890 C   0  0  0  0  0  0  0  0  0  0  0  0
  128.7500  127.2190   64.5040 C   0  0  0  0  0  0  0  0  0  0  0  0
  127.9400  127.9560   63.6770 N   0  0  0  0  0  0  0  0  0  0  0  0
  128.3750  123.0100   60.7790 C   0  0  0  0  0  0  0  0  0  0  0  0
  127.9900  122.4400   59.5700 C   0  0  0  0  0  0  0  0  0  0  0  0
  124.6487  124.6524   57.0914 H   0  0  0  0  0  0  0  0  0  0  0  0
  125.7777  124.2611   55.7502 H   0  0  0  0  0  0  0  0  0  0  0  0
  124.1140  123.5839   55.7502 H   0  0  0  0  0  0  0  0  0  0  0  0
  126.1551  125.0222   58.3012 H   0  0  0  0  0  0  0  0  0  0  0  0
  126.8372  126.0409   60.4600 H   0  0  0  0  0  0  0  0  0  0  0  0
  127.4920  125.1280   62.9130 H   0  0  0  0  0  0  0  0  0  0  0  0
  128.3943  127.0578   70.7963 H   0  0  0  0  0  0  0  0  0  0  0  0
  129.1909  127.0826   73.1525 H   0  0  0  0  0  0  0  0  0  0  0  0
  131.5428  127.7228   73.6622 H   0  0  0  0  0  0  0  0  0  0  0  0
  133.1011  128.3451   71.8213 H   0  0  0  0  0  0  0  0  0  0  0  0
  132.3061  128.3301   69.4673 H   0  0  0  0  0  0  0  0  0  0  0  0
  128.5637  129.4331   68.7199 H   0  0  0  0  0  0  0  0  0  0  0  0
  128.2340  128.8440   63.2950 H   0  0  0  0  0  0  0  0  0  0  0  0
  127.0190  127.6320   63.4180 H   0  0  0  0  0  0  0  0  0  0  0  0
  129.0003  122.4387   61.4809 H   0  0  0  0  0  0  0  0  0  0  0  0
  128.3172  121.4198   59.3209 H   0  0  0  0  0  0  0  0  0  0  0  0
  1  2  1  0
  2  3  1  0
  3  4  2  0
  3  5  1  0
  5  6  2  0
  6  7  1  0
  7  8  2  0
  8  9  1  0
  9 10  1  0
 10 11  2  0
 10 12  1  0
 12 13  1  0
 13 14  1  0
 14 15  2  0
 15 16  1  0
 16 17  1  0
 17 18  2  0
 18 19  1  0
 19 20  2  0
 20 21  1  0
 21 22  2  0
 16 23  2  0
 23 24  1  0
 24 25  1  0
 25 26  1  0
 25 27  1  0
 25 28  1  0
 24 29  2  0
 29 30  1  0
 30 31  1  0
  8 32  1  0
 32 33  2  0
 33  5  1  0
 30 12  2  0
 29 14  1  0
 22 17  1  0
  1 34  1  0
  1 35  1  0
  1 36  1  0
  6 37  1  0
  7 38  1  0
  9 39  1  0
 18 40  1  0
 19 41  1  0
 20 42  1  0
 21 43  1  0
 22 44  1  0
 23 45  1  0
 31 46  1  0
 31 47  1  0
 32 48  1  0
 33 49  1  0
M  END
>  <Binding energies>  (1) 
[-7.36]

>  <Ligand effiencies>  (1) 
[-0.20444444444444446]

>  <Interactions>  (1) 
["V-B:TYR:539:CE2:9847, V-B:PRO:540:CA:9854, V-B:TYR:539:CD2:9845, V-B:LEU:363:CD1:8160, V-B:PRO:540:CD:9858, V-B:PRO:540:CB:9856, V-B:TYR:539:C:9838, H-B:GLU:543:OE2:9881, V-B:PRO:540:N:9855, V-B:MET:535:CE:9806, V-B:TYR:531:CE2:9764, V-A:GLU:543:CD:4908, V-A:GLU:543:CG:4907, V-A:GLU:543:CB:4906, V-B:HIS:456:CE1:9041, V-A:HIS:456:CE1:4069, V-B:GLU:543:CG:9878, V-B:TYR:484:CE1:9316, V-B:GLU:543:CD:9879, V-A:ARG:545:CG:4922, H-B:GLU:543:OE1:9880, H-B:TYR:539:N:9841, V-B:TYR:484:CZ:9318, V-A:HIS:456:CG:4065, V-A:ARG:545:CA:4919, V-A:GLY:544:C:4912"]

$$$$
4cc_Grossjean_2025
     RDKit          3D

 47 50  0  0  0  0  0  0  0  0999 V2000
  126.2640  122.6360   56.8100 C   0  0  0  0  0  0  0  0  0  0  0  0
  127.2420  122.0050   57.6290 O   0  0  0  0  0  0  0  0  0  0  0  0
  127.6020  122.5940   58.8250 C   0  0  0  0  0  0  0  0  0  0  0  0
  126.9750  123.8000   59.1380 C   0  0  0  0  0  0  0  0  0  0  0  0
  127.2720  124.4670   60.3230 C   0  0  0  0  0  0  0  0  0  0  0  0
  128.2120  123.9400   61.2110 C   0  0  0  0  0  0  0  0  0  0  0  0
  128.4350  124.6750   62.3900 N   0  0  0  0  0  0  0  0  0  0  0  0
  129.5520  125.3260   62.7950 C   0  0  0  0  0  0  0  0  0  0  0  0
  130.5850  125.4030   62.1280 O   0  0  0  0  0  0  0  0  0  0  0  0
  129.4670  125.9610   64.1140 C   0  0  0  0  0  0  0  0  0  0  0  0
  130.3270  125.2690   65.4890 S   0  0  0  0  0  0  0  0  0  0  0  0
  129.7410  126.5310   66.5470 C   0  0  0  0  0  0  0  0  0  0  0  0
  130.0740  126.5670   67.8350 N   0  0  0  0  0  0  0  0  0  0  0  0
  129.5780  127.5920   68.5760 C   0  0  0  0  0  0  0  0  0  0  0  0
  129.9680  127.6050   70.0260 C   0  0  0  0  0  0  0  0  0  0  0  0
  129.2330  126.8740   70.9730 C   0  0  0  0  0  0  0  0  0  0  0  0
  129.5870  126.8820   72.3200 C   0  0  0  0  0  0  0  0  0  0  0  0
  130.6840  127.6260   72.7400 C   0  0  0  0  0  0  0  0  0  0  0  0
  131.4280  128.3620   71.8230 C   0  0  0  0  0  0  0  0  0  0  0  0
  131.0690  128.3510   70.4780 C   0  0  0  0  0  0  0  0  0  0  0  0
  128.7390  128.5650   68.0240 C   0  0  0  0  0  0  0  0  0  0  0  0
  128.3810  128.5350   66.6670 C   0  0  0  0  0  0  0  0  0  0  0  0
  127.4620  129.6370   66.1270 C   0  0  0  0  0  0  0  0  0  0  0  0
  126.2490  129.1900   65.7910 F   0  0  0  0  0  0  0  0  0  0  0  0
  127.2960  130.5800   67.0540 F   0  0  0  0  0  0  0  0  0  0  0  0
  128.0020  130.1810   65.0380 F   0  0  0  0  0  0  0  0  0  0  0  0
  128.9020  127.4700   65.8780 C   0  0  0  0  0  0  0  0  0  0  0  0
  128.7600  127.1150   64.4870 C   0  0  0  0  0  0  0  0  0  0  0  0
  128.0000  127.8470   63.6100 N   0  0  0  0  0  0  0  0  0  0  0  0
  128.8380  122.7210   60.9090 C   0  0  0  0  0  0  0  0  0  0  0  0
  128.5370  122.0570   59.7230 C   0  0  0  0  0  0  0  0  0  0  0  0
  125.5105  123.1221   57.4471 H   0  0  0  0  0  0  0  0  0  0  0  0
  126.7497  123.3915   56.1749 H   0  0  0  0  0  0  0  0  0  0  0  0
  125.7758  121.8821   56.1749 H   0  0  0  0  0  0  0  0  0  0  0  0
  126.2388  124.2280   58.4417 H   0  0  0  0  0  0  0  0  0  0  0  0
  126.7641  125.4133   60.5610 H   0  0  0  0  0  0  0  0  0  0  0  0
  127.6330  124.7440   62.9980 H   0  0  0  0  0  0  0  0  0  0  0  0
  128.3633  126.2853   70.6457 H   0  0  0  0  0  0  0  0  0  0  0  0
  129.0012  126.3022   73.0485 H   0  0  0  0  0  0  0  0  0  0  0  0
  130.9653  127.6328   73.8034 H   0  0  0  0  0  0  0  0  0  0  0  0
  132.2952  128.9494   72.1590 H   0  0  0  0  0  0  0  0  0  0  0  0
  131.6578  128.9367   69.7567 H   0  0  0  0  0  0  0  0  0  0  0  0
  128.3518  129.3700   68.6659 H   0  0  0  0  0  0  0  0  0  0  0  0
  127.0480  127.5930   63.3870 H   0  0  0  0  0  0  0  0  0  0  0  0
  128.3720  128.6670   63.1520 H   0  0  0  0  0  0  0  0  0  0  0  0
  129.5675  122.2895   61.6102 H   0  0  0  0  0  0  0  0  0  0  0  0
  129.0355  121.1050   59.4883 H   0  0  0  0  0  0  0  0  0  0  0  0
  1  2  1  0
  2  3  1  0
  3  4  2  0
  4  5  1  0
  5  6  2  0
  6  7  1  0
  7  8  1  0
  8  9  2  0
  8 10  1  0
 10 11  1  0
 11 12  1  0
 12 13  2  0
 13 14  1  0
 14 15  1  0
 15 16  2  0
 16 17  1  0
 17 18  2  0
 18 19  1  0
 19 20  2  0
 14 21  2  0
 21 22  1  0
 22 23  1  0
 23 24  1  0
 23 25  1  0
 23 26  1  0
 22 27  2  0
 27 28  1  0
 28 29  1  0
  6 30  1  0
 30 31  2  0
 31  3  1  0
 28 10  2  0
 27 12  1  0
 20 15  1  0
  1 32  1  0
  1 33  1  0
  1 34  1  0
  4 35  1  0
  5 36  1  0
  7 37  1  0
 16 38  1  0
 17 39  1  0
 18 40  1  0
 19 41  1  0
 20 42  1  0
 21 43  1  0
 29 44  1  0
 29 45  1  0
 30 46  1  0
 31 47  1  0
M  END
>  <Binding energies>  (1) 
[-7.0]

>  <Ligand effiencies>  (1) 
[-0.20588235294117646]

>  <Interactions>  (1) 
["V-B:TYR:539:CE2:9847, V-B:PRO:540:CA:9854, V-B:TYR:539:CD2:9845, V-B:PRO:540:CD:9858, V-B:ALA:541:CB:9863, V-B:TYR:539:C:9838, H-B:GLU:543:OE2:9881, V-B:PRO:540:N:9855, V-A:GLU:543:CD:4908, V-A:GLU:543:CG:4907, V-A:GLU:543:CB:4906, V-B:HIS:456:CE1:9041, V-A:HIS:456:CE1:4069, V-B:GLU:543:CG:9878, V-B:TYR:484:CE1:9316, V-B:GLU:543:CD:9879, H-B:GLU:543:OE1:9880, H-B:TYR:539:N:9841, V-B:TYR:484:CZ:9318, V-A:GLY:544:C:4912"]

$$$$
4cd_Grossjean_2025
     RDKit          3D

 43 46  0  0  0  0  0  0  0  0999 V2000
  127.6670  128.0100   63.5380 N   0  0  0  0  0  0  0  0  0  0  0  0
  127.4050  128.4980   64.7930 C   0  0  0  0  0  0  0  0  0  0  0  0
  126.3550  129.3890   65.0690 C   0  0  0  0  0  0  0  0  0  0  0  0
  125.3830  129.9710   64.1380 C   0  0  0  0  0  0  0  0  0  0  0  0
  124.2260  130.1930   64.4960 O   0  0  0  0  0  0  0  0  0  0  0  0
  125.8570  130.2400   62.8970 N   0  0  0  0  0  0  0  0  0  0  0  0
  125.1830  130.7450   61.7700 C   0  0  0  0  0  0  0  0  0  0  0  0
  125.5750  130.2200   60.5350 C   0  0  0  0  0  0  0  0  0  0  0  0
  124.9580  130.6470   59.3630 C   0  0  0  0  0  0  0  0  0  0  0  0
  123.9410  131.5960   59.4240 C   0  0  0  0  0  0  0  0  0  0  0  0
  123.5310  132.1170   60.6480 C   0  0  0  0  0  0  0  0  0  0  0  0
  124.1460  131.6930   61.8240 C   0  0  0  0  0  0  0  0  0  0  0  0
  126.3030  129.8000   66.7810 S   0  0  0  0  0  0  0  0  0  0  0  0
  127.6880  128.7880   67.1130 C   0  0  0  0  0  0  0  0  0  0  0  0
  128.1840  128.6700   68.3430 N   0  0  0  0  0  0  0  0  0  0  0  0
  129.2720  127.8710   68.5000 C   0  0  0  0  0  0  0  0  0  0  0  0
  129.8100  127.7600   69.8960 C   0  0  0  0  0  0  0  0  0  0  0  0
  131.0060  128.4020   70.2580 C   0  0  0  0  0  0  0  0  0  0  0  0
  131.5110  128.3050   71.5520 C   0  0  0  0  0  0  0  0  0  0  0  0
  130.8240  127.5610   72.5060 C   0  0  0  0  0  0  0  0  0  0  0  0
  129.6370  126.9180   72.1750 C   0  0  0  0  0  0  0  0  0  0  0  0
  129.1340  127.0200   70.8820 C   0  0  0  0  0  0  0  0  0  0  0  0
  129.8420  127.1790   67.4270 C   0  0  0  0  0  0  0  0  0  0  0  0
  129.3230  127.2930   66.1270 C   0  0  0  0  0  0  0  0  0  0  0  0
  130.0000  126.5090   64.9960 C   0  0  0  0  0  0  0  0  0  0  0  0
  131.1360  125.9180   65.3740 F   0  0  0  0  0  0  0  0  0  0  0  0
  129.1810  125.5540   64.5560 F   0  0  0  0  0  0  0  0  0  0  0  0
  130.2960  127.3330   63.9910 F   0  0  0  0  0  0  0  0  0  0  0  0
  128.1910  128.1380   65.9480 C   0  0  0  0  0  0  0  0  0  0  0  0
  128.5100  128.2520   63.0360 H   0  0  0  0  0  0  0  0  0  0  0  0
  127.0240  127.3850   63.0720 H   0  0  0  0  0  0  0  0  0  0  0  0
  126.8420  130.0710   62.7500 H   0  0  0  0  0  0  0  0  0  0  0  0
  126.3747  129.4661   60.4895 H   0  0  0  0  0  0  0  0  0  0  0  0
  125.2725  130.2364   58.3922 H   0  0  0  0  0  0  0  0  0  0  0  0
  123.4573  131.9370   58.4968 H   0  0  0  0  0  0  0  0  0  0  0  0
  122.7228  132.8622   60.6866 H   0  0  0  0  0  0  0  0  0  0  0  0
  123.8208  132.0992   62.7932 H   0  0  0  0  0  0  0  0  0  0  0  0
  131.5526  128.9910   69.5068 H   0  0  0  0  0  0  0  0  0  0  0  0
  132.4488  128.8143   71.8187 H   0  0  0  0  0  0  0  0  0  0  0  0
  131.2225  127.4812   73.5282 H   0  0  0  0  0  0  0  0  0  0  0  0
  129.0974  126.3307   72.9326 H   0  0  0  0  0  0  0  0  0  0  0  0
  128.1916  126.5132   70.6268 H   0  0  0  0  0  0  0  0  0  0  0  0
  130.7141  126.5326   67.6046 H   0  0  0  0  0  0  0  0  0  0  0  0
  1  2  1  0
  2  3  2  0
  3  4  1  0
  4  5  2  0
  4  6  1  0
  6  7  1  0
  7  8  2  0
  8  9  1  0
  9 10  2  0
 10 11  1  0
 11 12  2  0
  3 13  1  0
 13 14  1  0
 14 15  2  0
 15 16  1  0
 16 17  1  0
 17 18  2  0
 18 19  1  0
 19 20  2  0
 20 21  1  0
 21 22  2  0
 16 23  2  0
 23 24  1  0
 24 25  1  0
 25 26  1  0
 25 27  1  0
 25 28  1  0
 24 29  2  0
 29  2  1  0
 12  7  1  0
 29 14  1  0
 22 17  1  0
  1 30  1  0
  1 31  1  0
  6 32  1  0
  8 33  1  0
  9 34  1  0
 10 35  1  0
 11 36  1  0
 12 37  1  0
 18 38  1  0
 19 39  1  0
 20 40  1  0
 21 41  1  0
 22 42  1  0
 23 43  1  0
M  END
>  <Binding energies>  (1) 
[-6.99]

>  <Ligand effiencies>  (1) 
[-0.2184375]

>  <Interactions>  (1) 
["H-B:GLU:543:OE2:9881, H-B:ARG:545:NH2:9899, V-A:GLU:543:CD:4908, V-A:GLU:543:CG:4907, V-A:GLU:543:CB:4906, V-B:HIS:456:CE1:9041, V-A:HIS:456:CE1:4069, V-B:GLU:543:CG:9878, V-B:GLU:543:CD:9879, H-B:GLU:543:OE1:9880, V-B:ILE:369:CB:8207, V-B:ASP:366:CB:8183, V-B:ILE:369:CG2:8208, V-B:ARG:545:CZ:9897, V-B:ASP:366:CG:8184, V-B:ASP:366:CA:8181, H-B:GLY:454:N:9021, V-B:ILE:369:CD1:8210, V-B:TYR:484:CZ:9318, V-A:ARG:545:CA:4919, V-A:GLY:544:C:4912"]

$$$$
4ce_Grossjean_2025
     RDKit          3D

 45 48  0  0  0  0  0  0  0  0999 V2000
  124.8050  130.1960   58.1050 C   0  0  0  0  0  0  0  0  0  0  0  0
  124.5800  130.7760   59.4890 C   0  0  0  0  0  0  0  0  0  0  0  0
  123.6720  131.8160   59.7060 C   0  0  0  0  0  0  0  0  0  0  0  0
  123.5100  132.2950   61.0070 C   0  0  0  0  0  0  0  0  0  0  0  0
  124.2500  131.7290   62.0470 C   0  0  0  0  0  0  0  0  0  0  0  0
  125.1470  130.6940   61.7590 C   0  0  0  0  0  0  0  0  0  0  0  0
  125.8460  130.1500   62.8510 N   0  0  0  0  0  0  0  0  0  0  0  0
  125.4120  129.9480   64.1210 C   0  0  0  0  0  0  0  0  0  0  0  0
  124.2720  130.2160   64.5050 O   0  0  0  0  0  0  0  0  0  0  0  0
  126.3980  129.3750   65.0400 C   0  0  0  0  0  0  0  0  0  0  0  0
  126.3660  129.7970   66.7500 S   0  0  0  0  0  0  0  0  0  0  0  0
  127.7170  128.7410   67.0820 C   0  0  0  0  0  0  0  0  0  0  0  0
  128.2070  128.6060   68.3120 N   0  0  0  0  0  0  0  0  0  0  0  0
  129.2500  127.7500   68.4750 C   0  0  0  0  0  0  0  0  0  0  0  0
  129.7750  127.6170   69.8730 C   0  0  0  0  0  0  0  0  0  0  0  0
  129.1220  126.7990   70.8100 C   0  0  0  0  0  0  0  0  0  0  0  0
  129.6010  126.6760   72.1120 C   0  0  0  0  0  0  0  0  0  0  0  0
  130.7420  127.3710   72.4960 C   0  0  0  0  0  0  0  0  0  0  0  0
  131.4070  128.1890   71.5890 C   0  0  0  0  0  0  0  0  0  0  0  0
  130.9250  128.3110   70.2880 C   0  0  0  0  0  0  0  0  0  0  0  0
  129.8070  127.0500   67.4000 C   0  0  0  0  0  0  0  0  0  0  0  0
  129.3010  127.1880   66.0980 C   0  0  0  0  0  0  0  0  0  0  0  0
  129.9580  126.3900   64.9670 C   0  0  0  0  0  0  0  0  0  0  0  0
  129.1300  125.5130   64.3950 F   0  0  0  0  0  0  0  0  0  0  0  0
  130.3780  127.2220   64.0130 F   0  0  0  0  0  0  0  0  0  0  0  0
  130.9980  125.7060   65.4420 F   0  0  0  0  0  0  0  0  0  0  0  0
  128.1980  128.0720   65.9180 C   0  0  0  0  0  0  0  0  0  0  0  0
  127.4240  128.4570   64.7630 C   0  0  0  0  0  0  0  0  0  0  0  0
  127.6710  127.9640   63.5070 N   0  0  0  0  0  0  0  0  0  0  0  0
  125.3080  130.2170   60.4900 N   0  0  0  0  0  0  0  0  0  0  0  0
  125.2015  129.1740   58.1958 H   0  0  0  0  0  0  0  0  0  0  0  0
  123.8510  130.1720   57.5580 H   0  0  0  0  0  0  0  0  0  0  0  0
  125.5257  130.8216   57.5580 H   0  0  0  0  0  0  0  0  0  0  0  0
  123.0989  132.2467   58.8717 H   0  0  0  0  0  0  0  0  0  0  0  0
  122.8038  133.1132   61.2117 H   0  0  0  0  0  0  0  0  0  0  0  0
  124.1296  132.0916   63.0785 H   0  0  0  0  0  0  0  0  0  0  0  0
  126.7810  129.8360   62.6400 H   0  0  0  0  0  0  0  0  0  0  0  0
  128.2186  126.2472   70.5108 H   0  0  0  0  0  0  0  0  0  0  0  0
  129.0783  126.0312   72.8338 H   0  0  0  0  0  0  0  0  0  0  0  0
  131.1213  127.2733   73.5239 H   0  0  0  0  0  0  0  0  0  0  0  0
  132.3094  128.7371   71.8976 H   0  0  0  0  0  0  0  0  0  0  0  0
  131.4524  128.9606   69.5740 H   0  0  0  0  0  0  0  0  0  0  0  0
  130.6590  126.3775   67.5784 H   0  0  0  0  0  0  0  0  0  0  0  0
  128.4180  128.3240   62.9290 H   0  0  0  0  0  0  0  0  0  0  0  0
  127.1100  127.2220   63.1140 H   0  0  0  0  0  0  0  0  0  0  0  0
  1  2  1  0
  2  3  2  0
  3  4  1  0
  4  5  2  0
  5  6  1  0
  6  7  1  0
  7  8  1  0
  8  9  2  0
  8 10  1  0
 10 11  1  0
 11 12  1  0
 12 13  2  0
 13 14  1  0
 14 15  1  0
 15 16  2  0
 16 17  1  0
 17 18  2  0
 18 19  1  0
 19 20  2  0
 14 21  2  0
 21 22  1  0
 22 23  1  0
 23 24  1  0
 23 25  1  0
 23 26  1  0
 22 27  2  0
 27 28  1  0
 28 29  1  0
  6 30  2  0
 30  2  1  0
 28 10  2  0
 27 12  1  0
 20 15  1  0
  1 31  1  0
  1 32  1  0
  1 33  1  0
  3 34  1  0
  4 35  1  0
  5 36  1  0
  7 37  1  0
 16 38  1  0
 17 39  1  0
 18 40  1  0
 19 41  1  0
 20 42  1  0
 21 43  1  0
 29 44  1  0
 29 45  1  0
M  END
>  <Binding energies>  (1) 
[-7.15]

>  <Ligand effiencies>  (1) 
[-0.21666666666666667]

>  <Interactions>  (1) 
["H-B:GLU:543:OE2:9881, H-B:ARG:545:NH2:9899, V-A:GLU:543:CD:4908, V-A:GLU:543:CG:4907, V-A:GLU:543:CB:4906, V-B:HIS:456:CE1:9041, V-A:HIS:456:CE1:4069, V-B:GLU:543:CG:9878, V-B:GLU:543:CD:9879, V-A:HIS:456:CD2:4067, H-B:GLU:543:OE1:9880, V-B:ILE:369:CB:8207, V-B:ASP:366:CB:8183, V-B:ILE:369:CG2:8208, V-B:ARG:545:CZ:9897, V-B:ASP:366:CG:8184, V-B:ASP:366:CA:8181, H-B:GLY:454:N:9021, V-B:ILE:369:CD1:8210, V-A:HIS:456:CG:4065, V-A:GLY:544:C:4912, V-B:ILE:369:CG1:8209"]

$$$$
4cf_Grossjean_2025
     RDKit          3D

 42 45  0  0  0  0  0  0  0  0999 V2000
  127.6230  128.0060   63.4990 N   0  0  0  0  0  0  0  0  0  0  0  0
  127.3750  128.4750   64.7640 C   0  0  0  0  0  0  0  0  0  0  0  0
  126.3300  129.3640   65.0640 C   0  0  0  0  0  0  0  0  0  0  0  0
  125.3620  129.9780   64.1510 C   0  0  0  0  0  0  0  0  0  0  0  0
  124.2160  130.2290   64.5280 O   0  0  0  0  0  0  0  0  0  0  0  0
  125.8260  130.2450   62.9060 N   0  0  0  0  0  0  0  0  0  0  0  0
  125.1510  130.7770   61.7910 C   0  0  0  0  0  0  0  0  0  0  0  0
  125.3210  130.3580   60.4570 C   0  0  0  0  0  0  0  0  0  0  0  0
  124.5970  130.9830   59.4400 C   0  0  0  0  0  0  0  0  0  0  0  0
  123.7210  132.0150   59.7790 C   0  0  0  0  0  0  0  0  0  0  0  0
  123.5450  132.4420   61.0550 N   0  0  0  0  0  0  0  0  0  0  0  0
  124.2570  131.8250   62.0330 C   0  0  0  0  0  0  0  0  0  0  0  0
  126.2990  129.7520   66.7830 S   0  0  0  0  0  0  0  0  0  0  0  0
  127.6850  128.7310   67.0840 C   0  0  0  0  0  0  0  0  0  0  0  0
  128.1980  128.5980   68.3060 N   0  0  0  0  0  0  0  0  0  0  0  0
  129.2870  127.7950   68.4380 C   0  0  0  0  0  0  0  0  0  0  0  0
  129.8470  127.6700   69.8250 C   0  0  0  0  0  0  0  0  0  0  0  0
  131.0470  128.3090   70.1730 C   0  0  0  0  0  0  0  0  0  0  0  0
  131.5740  128.1990   71.4580 C   0  0  0  0  0  0  0  0  0  0  0  0
  130.9020  127.4480   72.4160 C   0  0  0  0  0  0  0  0  0  0  0  0
  129.7080  126.8070   72.0990 C   0  0  0  0  0  0  0  0  0  0  0  0
  129.1860  126.9200   70.8140 C   0  0  0  0  0  0  0  0  0  0  0  0
  129.8380  127.1120   67.3500 C   0  0  0  0  0  0  0  0  0  0  0  0
  129.3020  127.2410   66.0600 C   0  0  0  0  0  0  0  0  0  0  0  0
  129.9590  126.4670   64.9110 C   0  0  0  0  0  0  0  0  0  0  0  0
  130.3390  127.2520   63.8990 F   0  0  0  0  0  0  0  0  0  0  0  0
  131.0460  125.8370   65.3560 F   0  0  0  0  0  0  0  0  0  0  0  0
  129.1020  125.5720   64.4200 F   0  0  0  0  0  0  0  0  0  0  0  0
  128.1720  128.0950   65.9050 C   0  0  0  0  0  0  0  0  0  0  0  0
  127.1250  127.2150   63.1160 H   0  0  0  0  0  0  0  0  0  0  0  0
  128.3160  128.4390   62.9040 H   0  0  0  0  0  0  0  0  0  0  0  0
  126.8010  130.0390   62.7420 H   0  0  0  0  0  0  0  0  0  0  0  0
  126.0201  129.5431   60.2179 H   0  0  0  0  0  0  0  0  0  0  0  0
  124.7147  130.6683   58.3926 H   0  0  0  0  0  0  0  0  0  0  0  0
  123.1482  132.5036   58.9770 H   0  0  0  0  0  0  0  0  0  0  0  0
  124.1236  132.1674   63.0698 H   0  0  0  0  0  0  0  0  0  0  0  0
  131.5802  128.9065   69.4189 H   0  0  0  0  0  0  0  0  0  0  0  0
  132.5173  128.7039   71.7135 H   0  0  0  0  0  0  0  0  0  0  0  0
  131.3168  127.3599   73.4310 H   0  0  0  0  0  0  0  0  0  0  0  0
  129.1797  126.2142   72.8602 H   0  0  0  0  0  0  0  0  0  0  0  0
  128.2407  126.4143   70.5678 H   0  0  0  0  0  0  0  0  0  0  0  0
  130.7097  126.4601   67.5085 H   0  0  0  0  0  0  0  0  0  0  0  0
  1  2  1  0
  2  3  2  0
  3  4  1  0
  4  5  2  0
  4  6  1  0
  6  7  1  0
  7  8  2  0
  8  9  1  0
  9 10  2  0
 10 11  1  0
 11 12  2  0
  3 13  1  0
 13 14  1  0
 14 15  2  0
 15 16  1  0
 16 17  1  0
 17 18  2  0
 18 19  1  0
 19 20  2  0
 20 21  1  0
 21 22  2  0
 16 23  2  0
 23 24  1  0
 24 25  1  0
 25 26  1  0
 25 27  1  0
 25 28  1  0
 24 29  2  0
 29  2  1  0
 12  7  1  0
 29 14  1  0
 22 17  1  0
  1 30  1  0
  1 31  1  0
  6 32  1  0
  8 33  1  0
  9 34  1  0
 10 35  1  0
 12 36  1  0
 18 37  1  0
 19 38  1  0
 20 39  1  0
 21 40  1  0
 22 41  1  0
 23 42  1  0
M  END
>  <Binding energies>  (1) 
[-6.73]

>  <Ligand effiencies>  (1) 
[-0.2103125]

>  <Interactions>  (1) 
["H-B:GLU:543:OE2:9881, H-B:ARG:545:NH2:9899, V-A:GLU:543:CD:4908, V-A:GLU:543:CG:4907, V-A:GLU:543:CB:4906, V-B:HIS:456:CE1:9041, V-A:HIS:456:CE1:4069, V-B:GLU:543:CG:9878, V-B:GLU:543:CD:9879, V-A:HIS:456:CD2:4067, H-B:GLU:543:OE1:9880, V-B:ILE:369:CB:8207, V-B:ASP:366:CB:8183, V-B:ILE:369:CG2:8208, V-B:ARG:545:CZ:9897, V-B:ASP:366:CG:8184, V-B:ASP:366:CA:8181, H-B:GLY:454:N:9021, V-B:ILE:369:CD1:8210, V-A:HIS:456:CG:4065, V-A:ARG:545:CA:4919, V-A:GLY:544:C:4912"]

$$$$
4cg_Grossjean_2025
     RDKit          3D

 46 49  0  0  0  0  0  0  0  0999 V2000
  131.4450  125.0240   66.8780 N   0  0  0  0  0  0  0  0  0  0  0  0
  130.9600  125.7730   65.8370 C   0  0  0  0  0  0  0  0  0  0  0  0
  131.4380  125.6630   64.5240 C   0  0  0  0  0  0  0  0  0  0  0  0
  132.4550  124.7540   63.9970 C   0  0  0  0  0  0  0  0  0  0  0  0
  133.6040  124.7450   64.4450 O   0  0  0  0  0  0  0  0  0  0  0  0
  132.0690  123.9640   62.9720 N   0  0  0  0  0  0  0  0  0  0  0  0
  132.9080  122.9680   62.3080 C   0  0  0  0  0  0  0  0  0  0  0  0
  132.1240  121.7750   61.7740 C   0  0  0  0  0  0  0  0  0  0  0  0
  130.7430  121.7040   61.9780 C   0  0  0  0  0  0  0  0  0  0  0  0
  130.0190  120.6310   61.4640 C   0  0  0  0  0  0  0  0  0  0  0  0
  130.6760  119.6390   60.7410 C   0  0  0  0  0  0  0  0  0  0  0  0
  132.0500  119.7120   60.5200 C   0  0  0  0  0  0  0  0  0  0  0  0
  132.7740  120.7850   61.0310 C   0  0  0  0  0  0  0  0  0  0  0  0
  130.5840  126.7530   63.4350 S   0  0  0  0  0  0  0  0  0  0  0  0
  129.6070  127.3650   64.7500 C   0  0  0  0  0  0  0  0  0  0  0  0
  128.6840  128.3020   64.5500 N   0  0  0  0  0  0  0  0  0  0  0  0
  127.9700  128.7130   65.6300 C   0  0  0  0  0  0  0  0  0  0  0  0
  126.9380  129.7740   65.3730 C   0  0  0  0  0  0  0  0  0  0  0  0
  125.6140  129.6140   65.8150 C   0  0  0  0  0  0  0  0  0  0  0  0
  124.6540  130.5930   65.5780 C   0  0  0  0  0  0  0  0  0  0  0  0
  125.0040  131.7510   64.8900 C   0  0  0  0  0  0  0  0  0  0  0  0
  126.3060  131.9340   64.4390 C   0  0  0  0  0  0  0  0  0  0  0  0
  127.2630  130.9520   64.6780 C   0  0  0  0  0  0  0  0  0  0  0  0
  128.2000  128.1920   66.9090 C   0  0  0  0  0  0  0  0  0  0  0  0
  129.1710  127.2030   67.1310 C   0  0  0  0  0  0  0  0  0  0  0  0
  129.3720  126.6760   68.5560 C   0  0  0  0  0  0  0  0  0  0  0  0
  129.4520  125.3460   68.6170 F   0  0  0  0  0  0  0  0  0  0  0  0
  130.5020  127.1690   69.0640 F   0  0  0  0  0  0  0  0  0  0  0  0
  128.3480  127.0490   69.3220 F   0  0  0  0  0  0  0  0  0  0  0  0
  129.9150  126.7550   66.0010 C   0  0  0  0  0  0  0  0  0  0  0  0
  132.4250  125.0220   67.1240 H   0  0  0  0  0  0  0  0  0  0  0  0
  130.8330  124.4520   67.4430 H   0  0  0  0  0  0  0  0  0  0  0  0
  131.0960  123.9730   62.7070 H   0  0  0  0  0  0  0  0  0  0  0  0
  133.4232  123.4521   61.4652 H   0  0  0  0  0  0  0  0  0  0  0  0
  133.6123  122.5832   63.0603 H   0  0  0  0  0  0  0  0  0  0  0  0
  130.2286  122.4947   62.5439 H   0  0  0  0  0  0  0  0  0  0  0  0
  128.9332  120.5676   61.6285 H   0  0  0  0  0  0  0  0  0  0  0  0
  130.1046  118.7888   60.3401 H   0  0  0  0  0  0  0  0  0  0  0  0
  132.5598  118.9253   59.9445 H   0  0  0  0  0  0  0  0  0  0  0  0
  133.8569  120.8542   60.8505 H   0  0  0  0  0  0  0  0  0  0  0  0
  125.3316  128.6996   66.3574 H   0  0  0  0  0  0  0  0  0  0  0  0
  123.6224  130.4522   65.9331 H   0  0  0  0  0  0  0  0  0  0  0  0
  124.2461  132.5258   64.7021 H   0  0  0  0  0  0  0  0  0  0  0  0
  126.5788  132.8507   63.8957 H   0  0  0  0  0  0  0  0  0  0  0  0
  128.2914  131.1002   64.3168 H   0  0  0  0  0  0  0  0  0  0  0  0
  127.6076  128.5654   67.7573 H   0  0  0  0  0  0  0  0  0  0  0  0
  1  2  1  0
  2  3  2  0
  3  4  1  0
  4  5  2  0
  4  6  1  0
  6  7  1  0
  7  8  1  0
  8  9  2  0
  9 10  1  0
 10 11  2  0
 11 12  1  0
 12 13  2  0
  3 14  1  0
 14 15  1  0
 15 16  2  0
 16 17  1  0
 17 18  1  0
 18 19  2  0
 19 20  1  0
 20 21  2  0
 21 22  1  0
 22 23  2  0
 17 24  2  0
 24 25  1  0
 25 26  1  0
 26 27  1  0
 26 28  1  0
 26 29  1  0
 25 30  2  0
 30  2  1  0
 13  8  1  0
 30 15  1  0
 23 18  1  0
  1 31  1  0
  1 32  1  0
  6 33  1  0
  7 34  1  0
  7 35  1  0
  9 36  1  0
 10 37  1  0
 11 38  1  0
 12 39  1  0
 13 40  1  0
 19 41  1  0
 20 42  1  0
 21 43  1  0
 22 44  1  0
 23 45  1  0
 24 46  1  0
M  END
>  <Binding energies>  (1) 
[-7.31]

>  <Ligand effiencies>  (1) 
[-0.2215151515151515]

>  <Interactions>  (1) 
["V-B:TYR:539:CE2:9847, V-B:TYR:539:CD2:9845, V-B:ALA:541:CB:9863, V-A:LEU:475:CD2:4258, H-A:GLY:454:N:4049, V-A:ILE:369:CG2:3236, H-A:TYR:484:OH:4347, V-A:GLU:543:CD:4908, V-A:GLU:543:CG:4907, V-B:HIS:456:CE1:9041, V-B:GLU:543:CB:9877, V-A:TYR:484:CZ:4346, V-A:HIS:456:CE1:4069, V-B:GLU:543:CD:9879, V-A:TYR:484:CE1:4344, V-B:LEU:475:CD1:9229, V-B:GLY:454:CA:9020, V-A:TRP:381:CH2:3371, V-A:TRP:381:CZ2:3369, V-A:TRP:381:CZ3:3370, H-A:HIS:456:NE2:4070"]

$$$$
4ch_Grossjean_2025
     RDKit          3D

 58 61  0  0  0  0  0  0  0  0999 V2000
  129.0750  123.5670   72.4880 C   0  0  0  0  0  0  0  0  0  0  0  0
  128.2230  124.6280   72.0680 O   0  0  0  0  0  0  0  0  0  0  0  0
  128.7310  125.9110   71.9790 C   0  0  0  0  0  0  0  0  0  0  0  0
  128.7830  126.6530   70.7870 C   0  0  0  0  0  0  0  0  0  0  0  0
  129.3090  127.9460   70.7720 C   0  0  0  0  0  0  0  0  0  0  0  0
  129.3820  128.7250   69.4640 C   0  0  0  0  0  0  0  0  0  0  0  0
  129.7150  127.9090   68.2960 N   0  0  0  0  0  0  0  0  0  0  0  0
  128.9470  126.9260   67.7820 C   0  0  0  0  0  0  0  0  0  0  0  0
  127.8440  126.6330   68.2490 O   0  0  0  0  0  0  0  0  0  0  0  0
  129.4840  126.2420   66.6040 C   0  0  0  0  0  0  0  0  0  0  0  0
  130.4040  124.7530   66.7910 S   0  0  0  0  0  0  0  0  0  0  0  0
  130.6130  124.6140   65.0620 C   0  0  0  0  0  0  0  0  0  0  0  0
  131.2930  123.6050   64.5230 N   0  0  0  0  0  0  0  0  0  0  0  0
  131.3980  123.5780   63.1690 C   0  0  0  0  0  0  0  0  0  0  0  0
  132.1760  122.4300   62.5940 C   0  0  0  0  0  0  0  0  0  0  0  0
  131.5880  121.5570   61.6630 C   0  0  0  0  0  0  0  0  0  0  0  0
  132.3040  120.4900   61.1260 C   0  0  0  0  0  0  0  0  0  0  0  0
  133.6230  120.2790   61.5140 C   0  0  0  0  0  0  0  0  0  0  0  0
  134.2290  121.1260   62.4370 C   0  0  0  0  0  0  0  0  0  0  0  0
  133.5080  122.1900   62.9720 C   0  0  0  0  0  0  0  0  0  0  0  0
  130.8350  124.5730   62.3650 C   0  0  0  0  0  0  0  0  0  0  0  0
  130.1160  125.6440   62.9220 C   0  0  0  0  0  0  0  0  0  0  0  0
  129.5250  126.7000   61.9820 C   0  0  0  0  0  0  0  0  0  0  0  0
  128.1940  126.7800   62.0550 F   0  0  0  0  0  0  0  0  0  0  0  0
  130.0140  127.9010   62.2880 F   0  0  0  0  0  0  0  0  0  0  0  0
  129.8380  126.4070   60.7200 F   0  0  0  0  0  0  0  0  0  0  0  0
  129.9890  125.6750   64.3400 C   0  0  0  0  0  0  0  0  0  0  0  0
  129.3400  126.5860   65.2510 C   0  0  0  0  0  0  0  0  0  0  0  0
  128.6520  127.6950   64.8280 N   0  0  0  0  0  0  0  0  0  0  0  0
  129.8050  128.5010   71.9520 C   0  0  0  0  0  0  0  0  0  0  0  0
  129.7680  127.7810   73.1570 C   0  0  0  0  0  0  0  0  0  0  0  0
  130.2400  128.2700   74.3620 O   0  0  0  0  0  0  0  0  0  0  0  0
  129.3980  129.0960   75.1590 C   0  0  0  0  0  0  0  0  0  0  0  0
  129.2220  126.4900   73.1580 C   0  0  0  0  0  0  0  0  0  0  0  0
  129.1930  125.7690   74.3270 O   0  0  0  0  0  0  0  0  0  0  0  0
  130.4770  125.3860   74.8030 C   0  0  0  0  0  0  0  0  0  0  0  0
  129.1029  123.5323   73.5871 H   0  0  0  0  0  0  0  0  0  0  0  0
  128.6898  122.6122   72.1007 H   0  0  0  0  0  0  0  0  0  0  0  0
  130.0904  123.7369   72.1007 H   0  0  0  0  0  0  0  0  0  0  0  0
  128.4046  126.2096   69.8542 H   0  0  0  0  0  0  0  0  0  0  0  0
  128.4034  129.1956   69.2880 H   0  0  0  0  0  0  0  0  0  0  0  0
  130.1940  129.4582   69.5784 H   0  0  0  0  0  0  0  0  0  0  0  0
  130.6300  128.0590   67.8960 H   0  0  0  0  0  0  0  0  0  0  0  0
  130.5450  121.7191   61.3533 H   0  0  0  0  0  0  0  0  0  0  0  0
  131.8283  119.8167   60.3978 H   0  0  0  0  0  0  0  0  0  0  0  0
  134.1903  119.4379   61.0889 H   0  0  0  0  0  0  0  0  0  0  0  0
  135.2720  120.9557   62.7422 H   0  0  0  0  0  0  0  0  0  0  0  0
  133.9898  122.8549   63.7039 H   0  0  0  0  0  0  0  0  0  0  0  0
  130.9573  124.5165   61.2733 H   0  0  0  0  0  0  0  0  0  0  0  0
  129.0850  128.6080   64.7840 H   0  0  0  0  0  0  0  0  0  0  0  0
  127.6860  127.6360   64.5400 H   0  0  0  0  0  0  0  0  0  0  0  0
  130.2304  129.5153   71.9382 H   0  0  0  0  0  0  0  0  0  0  0  0
  129.5956  128.9021   76.2236 H   0  0  0  0  0  0  0  0  0  0  0  0
  129.6028  130.1532   74.9346 H   0  0  0  0  0  0  0  0  0  0  0  0
  128.3449  128.8709   74.9346 H   0  0  0  0  0  0  0  0  0  0  0  0
  130.4754  125.3865   75.9030 H   0  0  0  0  0  0  0  0  0  0  0  0
  130.7177  124.3769   74.4371 H   0  0  0  0  0  0  0  0  0  0  0  0
  131.2312  126.0983   74.4371 H   0  0  0  0  0  0  0  0  0  0  0  0
  1  2  1  0
  2  3  1  0
  3  4  2  0
  4  5  1  0
  5  6  1  0
  6  7  1  0
  7  8  1  0
  8  9  2  0
  8 10  1  0
 10 11  1  0
 11 12  1  0
 12 13  2  0
 13 14  1  0
 14 15  1  0
 15 16  2  0
 16 17  1  0
 17 18  2  0
 18 19  1  0
 19 20  2  0
 14 21  2  0
 21 22  1  0
 22 23  1  0
 23 24  1  0
 23 25  1  0
 23 26  1  0
 22 27  2  0
 27 28  1  0
 28 29  1  0
  5 30  2  0
 30 31  1  0
 31 32  1  0
 32 33  1  0
 31 34  2  0
 34 35  1  0
 35 36  1  0
 34  3  1  0
 28 10  2  0
 27 12  1  0
 20 15  1  0
  1 37  1  0
  1 38  1  0
  1 39  1  0
  4 40  1  0
  6 41  1  0
  6 42  1  0
  7 43  1  0
 16 44  1  0
 17 45  1  0
 18 46  1  0
 19 47  1  0
 20 48  1  0
 21 49  1  0
 29 50  1  0
 29 51  1  0
 30 52  1  0
 33 53  1  0
 33 54  1  0
 33 55  1  0
 36 56  1  0
 36 57  1  0
 36 58  1  0
M  END
>  <Binding energies>  (1) 
[-6.93]

>  <Ligand effiencies>  (1) 
[-0.17769230769230768]

>  <Interactions>  (1) 
["V-A:LEU:475:CD2:4258, H-B:GLU:543:OE2:9881, V-A:ILE:369:CD1:3238, V-A:ILE:369:CG2:3236, H-A:TYR:484:OH:4347, H-A:GLU:543:OE2:4910, V-A:GLU:543:CD:4908, V-A:GLU:543:CG:4907, V-A:GLU:543:CB:4906, V-B:HIS:456:CE1:9041, V-B:GLU:543:CB:9877, V-A:TYR:484:CZ:4346, V-A:HIS:456:CE1:4069, V-B:GLU:543:CG:9878, V-B:GLU:543:CD:9879, V-A:TYR:484:CE1:4344, V-A:HIS:456:CD2:4067, H-A:GLU:543:OE1:4909, V-A:GLY:454:CA:4048, H-B:GLU:543:OE1:9880, H-B:LYS:547:NZ:9922, H-A:LYS:547:NZ:4951, V-A:LYS:547:CE:4950"]

$$$$
4ci_Grossjean_2025
     RDKit          3D

 39 42  0  0  0  0  0  0  0  0999 V2000
  125.3500  126.3410   58.1330 N   0  0  0  0  0  0  0  0  0  0  0  0
  126.4630  126.2510   58.9270 C   0  0  0  0  0  0  0  0  0  0  0  0
  127.0010  127.3440   59.6260 C   0  0  0  0  0  0  0  0  0  0  0  0
  126.5180  128.7270   59.6700 C   0  0  0  0  0  0  0  0  0  0  0  0
  127.0010  129.5370   60.4640 O   0  0  0  0  0  0  0  0  0  0  0  0
  125.5190  129.0240   58.8010 N   0  0  0  0  0  0  0  0  0  0  0  0
  124.8780  130.2450   58.6350 C   0  0  0  0  0  0  0  0  0  0  0  0
  124.5510  131.0860   59.6970 C   0  0  0  0  0  0  0  0  0  0  0  0
  123.9380  132.1730   59.1200 C   0  0  0  0  0  0  0  0  0  0  0  0
  123.8970  131.9960   57.7770 O   0  0  0  0  0  0  0  0  0  0  0  0
  124.4960  130.7700   57.4820 N   0  0  0  0  0  0  0  0  0  0  0  0
  128.4220  126.8700   60.5530 S   0  0  0  0  0  0  0  0  0  0  0  0
  128.2930  125.2190   59.9930 C   0  0  0  0  0  0  0  0  0  0  0  0
  129.1600  124.2850   60.3770 N   0  0  0  0  0  0  0  0  0  0  0  0
  128.9770  123.0290   59.8930 C   0  0  0  0  0  0  0  0  0  0  0  0
  129.9730  121.9980   60.3400 C   0  0  0  0  0  0  0  0  0  0  0  0
  129.5550  120.7190   60.7420 C   0  0  0  0  0  0  0  0  0  0  0  0
  130.4750  119.7590   61.1570 C   0  0  0  0  0  0  0  0  0  0  0  0
  131.8310  120.0660   61.1760 C   0  0  0  0  0  0  0  0  0  0  0  0
  132.2730  121.3250   60.7870 C   0  0  0  0  0  0  0  0  0  0  0  0
  131.3500  122.2830   60.3750 C   0  0  0  0  0  0  0  0  0  0  0  0
  127.9340  122.7230   59.0120 C   0  0  0  0  0  0  0  0  0  0  0  0
  127.0140  123.7010   58.6000 C   0  0  0  0  0  0  0  0  0  0  0  0
  125.8960  123.2950   57.6330 C   0  0  0  0  0  0  0  0  0  0  0  0
  125.9980  122.0330   57.2130 F   0  0  0  0  0  0  0  0  0  0  0  0
  124.7140  123.4200   58.2360 F   0  0  0  0  0  0  0  0  0  0  0  0
  125.9250  124.0790   56.5550 F   0  0  0  0  0  0  0  0  0  0  0  0
  127.1900  125.0180   59.1130 C   0  0  0  0  0  0  0  0  0  0  0  0
  124.4600  126.6580   58.4930 H   0  0  0  0  0  0  0  0  0  0  0  0
  125.3830  126.0990   57.1520 H   0  0  0  0  0  0  0  0  0  0  0  0
  125.1940  128.2790   58.2030 H   0  0  0  0  0  0  0  0  0  0  0  0
  124.7422  130.9166   60.7669 H   0  0  0  0  0  0  0  0  0  0  0  0
  123.5442  133.0459   59.6613 H   0  0  0  0  0  0  0  0  0  0  0  0
  128.4834  120.4712   60.7289 H   0  0  0  0  0  0  0  0  0  0  0  0
  130.1302  118.7620   61.4685 H   0  0  0  0  0  0  0  0  0  0  0  0
  132.5585  119.3077   61.5010 H   0  0  0  0  0  0  0  0  0  0  0  0
  133.3467  121.5636   60.8045 H   0  0  0  0  0  0  0  0  0  0  0  0
  131.7038  123.2795   60.0718 H   0  0  0  0  0  0  0  0  0  0  0  0
  127.8324  121.6949   58.6341 H   0  0  0  0  0  0  0  0  0  0  0  0
  1  2  1  0
  2  3  2  0
  3  4  1  0
  4  5  2  0
  4  6  1  0
  6  7  1  0
  7  8  1  0
  8  9  2  0
  9 10  1  0
 10 11  1  0
  3 12  1  0
 12 13  1  0
 13 14  2  0
 14 15  1  0
 15 16  1  0
 16 17  2  0
 17 18  1  0
 18 19  2  0
 19 20  1  0
 20 21  2  0
 15 22  2  0
 22 23  1  0
 23 24  1  0
 24 25  1  0
 24 26  1  0
 24 27  1  0
 23 28  2  0
 28  2  1  0
 11  7  2  0
 28 13  1  0
 21 16  1  0
  1 29  1  0
  1 30  1  0
  6 31  1  0
  8 32  1  0
  9 33  1  0
 17 34  1  0
 18 35  1  0
 19 36  1  0
 20 37  1  0
 21 38  1  0
 22 39  1  0
M  END
>  <Binding energies>  (1) 
[-6.84]

>  <Ligand effiencies>  (1) 
[-0.22064516129032258]

>  <Interactions>  (1) 
["H-B:ASP:366:OD2:8186, V-B:TYR:539:CE2:9847, V-B:PRO:540:CA:9854, V-B:TYR:539:CD2:9845, V-B:LEU:363:CD1:8160, V-B:PRO:540:CD:9858, V-B:PRO:540:CB:9856, V-B:ALA:541:CB:9863, V-B:TYR:539:C:9838, V-A:LEU:475:CD2:4258, V-B:PRO:540:N:9855, H-B:TYR:531:OH:9766, V-B:TYR:539:CA:9840, V-A:PRO:482:CB:4325, V-A:ILE:369:CG2:3236, V-B:MET:535:CE:9806, V-B:TYR:531:CZ:9765, V-B:PRO:540:CG:9857, V-A:TYR:539:CE2:4876, V-B:ILE:369:CB:8207, V-B:ASP:366:CB:8183, V-B:ILE:369:CG2:8208, V-B:ASP:366:CG:8184, V-B:ASP:366:CA:8181, V-A:TRP:381:CH2:3371, H-A:TYR:539:OH:4878"]

$$$$
4cj_Grossjean_2025
     RDKit          3D

 39 42  0  0  0  0  0  0  0  0999 V2000
  132.2450  126.4770   66.1010 N   0  0  0  0  0  0  0  0  0  0  0  0
  131.4280  125.3890   65.9280 C   0  0  0  0  0  0  0  0  0  0  0  0
  130.3430  125.1000   66.7720 C   0  0  0  0  0  0  0  0  0  0  0  0
  129.8690  125.8480   67.9390 C   0  0  0  0  0  0  0  0  0  0  0  0
  129.0480  125.3530   68.7150 O   0  0  0  0  0  0  0  0  0  0  0  0
  130.3870  127.0930   68.0820 N   0  0  0  0  0  0  0  0  0  0  0  0
  130.1060  128.0020   69.0940 C   0  0  0  0  0  0  0  0  0  0  0  0
  129.0620  128.7960   69.1980 N   0  0  0  0  0  0  0  0  0  0  0  0
  129.1170  129.5270   70.2940 C   0  0  0  0  0  0  0  0  0  0  0  0
  130.2280  129.3310   71.1090 C   0  0  0  0  0  0  0  0  0  0  0  0
  131.2490  128.1200   70.3930 S   0  0  0  0  0  0  0  0  0  0  0  0
  129.5040  123.6390   66.2540 S   0  0  0  0  0  0  0  0  0  0  0  0
  130.6100  123.4260   64.9170 C   0  0  0  0  0  0  0  0  0  0  0  0
  130.4870  122.4060   64.0710 N   0  0  0  0  0  0  0  0  0  0  0  0
  131.3870  122.3260   63.0580 C   0  0  0  0  0  0  0  0  0  0  0  0
  131.2120  121.1710   62.1140 C   0  0  0  0  0  0  0  0  0  0  0  0
  132.2260  120.8260   61.2050 C   0  0  0  0  0  0  0  0  0  0  0  0
  132.0680  119.7600   60.3230 C   0  0  0  0  0  0  0  0  0  0  0  0
  130.8880  119.0230   60.3370 C   0  0  0  0  0  0  0  0  0  0  0  0
  129.8680  119.3440   61.2250 C   0  0  0  0  0  0  0  0  0  0  0  0
  130.0310  120.4100   62.1050 C   0  0  0  0  0  0  0  0  0  0  0  0
  132.4220  123.2570   62.9140 C   0  0  0  0  0  0  0  0  0  0  0  0
  132.5620  124.3350   63.8020 C   0  0  0  0  0  0  0  0  0  0  0  0
  133.7170  125.3200   63.5840 C   0  0  0  0  0  0  0  0  0  0  0  0
  134.6820  124.8320   62.8040 F   0  0  0  0  0  0  0  0  0  0  0  0
  133.2580  126.4290   63.0050 F   0  0  0  0  0  0  0  0  0  0  0  0
  134.2700  125.6330   64.7560 F   0  0  0  0  0  0  0  0  0  0  0  0
  131.6110  124.4390   64.8570 C   0  0  0  0  0  0  0  0  0  0  0  0
  132.5650  127.0340   65.3210 H   0  0  0  0  0  0  0  0  0  0  0  0
  132.5520  126.7620   67.0200 H   0  0  0  0  0  0  0  0  0  0  0  0
  131.0400  127.4080   67.3790 H   0  0  0  0  0  0  0  0  0  0  0  0
  128.3292  130.2509   70.5497 H   0  0  0  0  0  0  0  0  0  0  0  0
  130.4278  129.8575   72.0539 H   0  0  0  0  0  0  0  0  0  0  0  0
  133.1598  121.4072   61.1897 H   0  0  0  0  0  0  0  0  0  0  0  0
  132.8724  119.5018   59.6185 H   0  0  0  0  0  0  0  0  0  0  0  0
  130.7615  118.1808   59.6408 H   0  0  0  0  0  0  0  0  0  0  0  0
  128.9367  118.7586   61.2323 H   0  0  0  0  0  0  0  0  0  0  0  0
  129.2210  120.6610   62.8057 H   0  0  0  0  0  0  0  0  0  0  0  0
  133.1399  123.1417   62.0886 H   0  0  0  0  0  0  0  0  0  0  0  0
  1  2  1  0
  2  3  2  0
  3  4  1  0
  4  5  2  0
  4  6  1  0
  6  7  1  0
  7  8  2  0
  8  9  1  0
  9 10  2  0
 10 11  1  0
  3 12  1  0
 12 13  1  0
 13 14  2  0
 14 15  1  0
 15 16  1  0
 16 17  2  0
 17 18  1  0
 18 19  2  0
 19 20  1  0
 20 21  2  0
 15 22  2  0
 22 23  1  0
 23 24  1  0
 24 25  1  0
 24 26  1  0
 24 27  1  0
 23 28  2  0
 28  2  1  0
 11  7  1  0
 28 13  1  0
 21 16  1  0
  1 29  1  0
  1 30  1  0
  6 31  1  0
  9 32  1  0
 10 33  1  0
 17 34  1  0
 18 35  1  0
 19 36  1  0
 20 37  1  0
 21 38  1  0
 22 39  1  0
M  END
>  <Binding energies>  (1) 
[-6.58]

>  <Ligand effiencies>  (1) 
[-0.21225806451612902]

>  <Interactions>  (1) 
["V-A:PRO:482:CG:4326, V-B:TYR:539:CE2:9847, V-B:TYR:539:CD2:9845, V-B:ALA:541:CB:9863, V-A:LEU:475:CD2:4258, V-B:ALA:541:CA:9861, V-A:PRO:482:CB:4325, V-A:ASP:366:CG:3212, V-A:ILE:369:CD1:3238, V-A:ILE:369:CG2:3236, H-A:GLU:543:OE2:4910, V-A:ARG:545:CZ:4926, V-A:GLU:543:CD:4908, V-A:GLU:543:CG:4907, V-A:GLU:543:CB:4906, V-B:HIS:456:CE1:9041, V-B:GLU:543:CB:9877, V-A:TYR:484:CZ:4346, V-A:HIS:456:CE1:4069, V-B:GLU:543:CG:9878, V-B:GLU:543:CD:9879, V-A:TYR:484:CE1:4344, H-A:GLU:543:OE1:4909, V-A:ARG:545:CG:4922, V-A:ARG:545:CD:4923, V-A:GLY:453:C:4041, V-A:GLY:453:CA:4043, V-B:GLU:543:CA:9875, V-A:TRP:381:CH2:3371, V-A:TRP:381:CZ2:3369, V-A:TRP:381:CZ3:3370, V-A:GLU:543:C:4902"]

$$$$
4ck_Grossjean_2025
     RDKit          3D

 57 59  0  0  0  0  0  0  0  0999 V2000
  124.8020  123.6880   61.8360 C   0  0  0  0  0  0  0  0  0  0  0  0
  126.1090  123.1380   61.8790 O   0  0  0  0  0  0  0  0  0  0  0  0
  127.1360  124.1190   61.8690 C   0  0  0  0  0  0  0  0  0  0  0  0
  128.4560  123.4600   61.4490 C   0  0  0  0  0  0  0  0  0  0  0  0
  128.2940  122.0480   61.4640 O   0  0  0  0  0  0  0  0  0  0  0  0
  129.2230  121.3610   60.6370 C   0  0  0  0  0  0  0  0  0  0  0  0
  130.2790  120.6840   61.5200 C   0  0  0  0  0  0  0  0  0  0  0  0
  131.0500  121.6900   62.1630 O   0  0  0  0  0  0  0  0  0  0  0  0
  132.4260  121.6760   61.8040 C   0  0  0  0  0  0  0  0  0  0  0  0
  133.1900  122.7060   62.6500 C   0  0  0  0  0  0  0  0  0  0  0  0
  132.3020  123.7260   63.2090 N   0  0  0  0  0  0  0  0  0  0  0  0
  132.6840  124.7890   63.9460 C   0  0  0  0  0  0  0  0  0  0  0  0
  133.8650  125.0280   64.2060 O   0  0  0  0  0  0  0  0  0  0  0  0
  131.6080  125.6610   64.4170 C   0  0  0  0  0  0  0  0  0  0  0  0
  130.7900  126.7420   63.2920 S   0  0  0  0  0  0  0  0  0  0  0  0
  129.7160  127.3080   64.5490 C   0  0  0  0  0  0  0  0  0  0  0  0
  128.7780  128.2190   64.3040 N   0  0  0  0  0  0  0  0  0  0  0  0
  127.9920  128.5990   65.3450 C   0  0  0  0  0  0  0  0  0  0  0  0
  126.9320  129.6150   65.0310 C   0  0  0  0  0  0  0  0  0  0  0  0
  127.2620  130.9690   64.8560 C   0  0  0  0  0  0  0  0  0  0  0  0
  126.2830  131.9170   64.5670 C   0  0  0  0  0  0  0  0  0  0  0  0
  124.9550  131.5220   64.4480 C   0  0  0  0  0  0  0  0  0  0  0  0
  124.6000  130.1870   64.6110 C   0  0  0  0  0  0  0  0  0  0  0  0
  125.5830  129.2420   64.8980 C   0  0  0  0  0  0  0  0  0  0  0  0
  128.1450  128.0540   66.6240 C   0  0  0  0  0  0  0  0  0  0  0  0
  129.1310  127.0930   66.8940 C   0  0  0  0  0  0  0  0  0  0  0  0
  129.2470  126.5410   68.3200 C   0  0  0  0  0  0  0  0  0  0  0  0
  129.3540  125.2120   68.3600 F   0  0  0  0  0  0  0  0  0  0  0  0
  130.3280  127.0470   68.9130 F   0  0  0  0  0  0  0  0  0  0  0  0
  128.1640  126.8760   69.0210 F   0  0  0  0  0  0  0  0  0  0  0  0
  129.9640  126.6900   65.8110 C   0  0  0  0  0  0  0  0  0  0  0  0
  131.0490  125.7450   65.7020 C   0  0  0  0  0  0  0  0  0  0  0  0
  131.4940  125.0000   66.7630 N   0  0  0  0  0  0  0  0  0  0  0  0
  124.4352  123.8423   62.8615 H   0  0  0  0  0  0  0  0  0  0  0  0
  124.8270  124.6519   61.3066 H   0  0  0  0  0  0  0  0  0  0  0  0
  124.1303  122.9962   61.3066 H   0  0  0  0  0  0  0  0  0  0  0  0
  126.8781  124.9149   61.1548 H   0  0  0  0  0  0  0  0  0  0  0  0
  127.2424  124.5542   62.8736 H   0  0  0  0  0  0  0  0  0  0  0  0
  128.7263  123.7894   60.4349 H   0  0  0  0  0  0  0  0  0  0  0  0
  129.2547  123.7497   62.1477 H   0  0  0  0  0  0  0  0  0  0  0  0
  128.6952  120.5990   60.0447 H   0  0  0  0  0  0  0  0  0  0  0  0
  129.7116  122.0748   59.9575 H   0  0  0  0  0  0  0  0  0  0  0  0
  129.7827  120.0583   62.2764 H   0  0  0  0  0  0  0  0  0  0  0  0
  130.9319  120.0494   60.9028 H   0  0  0  0  0  0  0  0  0  0  0  0
  132.8413  120.6736   61.9847 H   0  0  0  0  0  0  0  0  0  0  0  0
  132.5281  121.9304   60.7387 H   0  0  0  0  0  0  0  0  0  0  0  0
  133.6938  122.1829   63.4761 H   0  0  0  0  0  0  0  0  0  0  0  0
  133.9160  123.2105   61.9955 H   0  0  0  0  0  0  0  0  0  0  0  0
  131.3260  123.6460   62.9620 H   0  0  0  0  0  0  0  0  0  0  0  0
  128.3112  131.2862   64.9487 H   0  0  0  0  0  0  0  0  0  0  0  0
  126.5592  132.9734   64.4335 H   0  0  0  0  0  0  0  0  0  0  0  0
  124.1803  132.2700   64.2235 H   0  0  0  0  0  0  0  0  0  0  0  0
  123.5485  129.8788   64.5138 H   0  0  0  0  0  0  0  0  0  0  0  0
  125.2988  128.1867   65.0226 H   0  0  0  0  0  0  0  0  0  0  0  0
  127.4790  128.3854   67.4344 H   0  0  0  0  0  0  0  0  0  0  0  0
  130.8970  124.3450   67.2470 H   0  0  0  0  0  0  0  0  0  0  0  0
  132.4460  125.0770   67.0970 H   0  0  0  0  0  0  0  0  0  0  0  0
  1  2  1  0
  2  3  1  0
  3  4  1  0
  4  5  1  0
  5  6  1  0
  6  7  1  0
  7  8  1  0
  8  9  1  0
  9 10  1  0
 10 11  1  0
 11 12  1  0
 12 13  2  0
 12 14  1  0
 14 15  1  0
 15 16  1  0
 16 17  2  0
 17 18  1  0
 18 19  1  0
 19 20  2  0
 20 21  1  0
 21 22  2  0
 22 23  1  0
 23 24  2  0
 18 25  2  0
 25 26  1  0
 26 27  1  0
 27 28  1  0
 27 29  1  0
 27 30  1  0
 26 31  2  0
 31 32  1  0
 32 33  1  0
 32 14  2  0
 31 16  1  0
 24 19  1  0
  1 34  1  0
  1 35  1  0
  1 36  1  0
  3 37  1  0
  3 38  1  0
  4 39  1  0
  4 40  1  0
  6 41  1  0
  6 42  1  0
  7 43  1  0
  7 44  1  0
  9 45  1  0
  9 46  1  0
 10 47  1  0
 10 48  1  0
 11 49  1  0
 20 50  1  0
 21 51  1  0
 22 52  1  0
 23 53  1  0
 24 54  1  0
 25 55  1  0
 33 56  1  0
 33 57  1  0
M  END
>  <Binding energies>  (1) 
[-6.36]

>  <Ligand effiencies>  (1) 
[-0.17666666666666667]

>  <Interactions>  (1) 
["V-B:TYR:539:CE2:9847, V-B:PRO:540:CA:9854, V-B:TYR:539:CD2:9845, V-B:PRO:540:CB:9856, V-B:ALA:541:CB:9863, V-B:TYR:539:C:9838, V-A:LEU:475:CD2:4258, H-B:ALA:541:N:9862, H-A:GLY:454:N:4049, H-A:ARG:545:NH1:4927, V-A:ILE:369:CD1:3238, V-A:ILE:369:CG2:3236, H-A:TYR:484:OH:4347, V-A:GLU:543:CD:4908, V-A:GLU:543:CG:4907, V-B:HIS:456:CE1:9041, V-B:GLU:543:CB:9877, V-A:TYR:484:CZ:4346, V-A:HIS:456:CE1:4069, V-B:GLU:543:CG:9878, V-B:GLU:543:CD:9879, V-A:TYR:484:CE1:4344, V-B:ASN:362:CB:8147, V-A:GLY:454:CA:4048, V-B:LEU:475:CD1:9229, V-B:GLY:454:CA:9020, V-B:ARG:545:CZ:9897, V-B:GLU:543:CA:9875, H-A:HIS:456:NE2:4070"]

$$$$
4dd_Grossjean_2025
     RDKit          3D

 43 46  0  0  0  0  0  0  0  0999 V2000
  134.0350  125.4040   64.1970 C   0  0  0  0  0  0  0  0  0  0  0  0
  132.8360  124.4690   64.2520 C   0  0  0  0  0  0  0  0  0  0  0  0
  132.7530  123.4450   63.3010 C   0  0  0  0  0  0  0  0  0  0  0  0
  131.6750  122.5520   63.2970 C   0  0  0  0  0  0  0  0  0  0  0  0
  131.5570  121.4490   62.2870 C   0  0  0  0  0  0  0  0  0  0  0  0
  132.6570  121.0770   61.4960 C   0  0  0  0  0  0  0  0  0  0  0  0
  132.5550  120.0530   60.5590 C   0  0  0  0  0  0  0  0  0  0  0  0
  131.3470  119.3840   60.3960 C   0  0  0  0  0  0  0  0  0  0  0  0
  130.2420  119.7300   61.1660 C   0  0  0  0  0  0  0  0  0  0  0  0
  130.3490  120.7540   62.1050 C   0  0  0  0  0  0  0  0  0  0  0  0
  130.6620  122.6440   64.2020 N   0  0  0  0  0  0  0  0  0  0  0  0
  130.7430  123.6140   65.1120 C   0  0  0  0  0  0  0  0  0  0  0  0
  129.5210  123.8350   66.3440 S   0  0  0  0  0  0  0  0  0  0  0  0
  130.3890  125.2130   67.0240 C   0  0  0  0  0  0  0  0  0  0  0  0
  129.8630  125.9150   68.1960 C   0  0  0  0  0  0  0  0  0  0  0  0
  129.0500  125.3680   68.9430 O   0  0  0  0  0  0  0  0  0  0  0  0
  130.3400  127.1700   68.3840 N   0  0  0  0  0  0  0  0  0  0  0  0
  130.0040  128.1190   69.3660 C   0  0  0  0  0  0  0  0  0  0  0  0
  130.6780  128.0010   70.5850 C   0  0  0  0  0  0  0  0  0  0  0  0
  130.4260  128.9010   71.6170 C   0  0  0  0  0  0  0  0  0  0  0  0
  129.5040  129.9270   71.4280 C   0  0  0  0  0  0  0  0  0  0  0  0
  128.8350  130.0640   70.2150 C   0  0  0  0  0  0  0  0  0  0  0  0
  129.0840  129.1650   69.1810 C   0  0  0  0  0  0  0  0  0  0  0  0
  131.5680  125.4720   66.3070 C   0  0  0  0  0  0  0  0  0  0  0  0
  132.4380  126.4890   66.6100 N   0  0  0  0  0  0  0  0  0  0  0  0
  131.7940  124.5690   65.2090 C   0  0  0  0  0  0  0  0  0  0  0  0
  134.3535  125.6524   65.2202 H   0  0  0  0  0  0  0  0  0  0  0  0
  134.8615  124.9096   63.6655 H   0  0  0  0  0  0  0  0  0  0  0  0
  133.7569  126.3261   63.6655 H   0  0  0  0  0  0  0  0  0  0  0  0
  133.5462  123.3406   62.5461 H   0  0  0  0  0  0  0  0  0  0  0  0
  133.6147  121.6038   61.6193 H   0  0  0  0  0  0  0  0  0  0  0  0
  133.4271  119.7739   59.9494 H   0  0  0  0  0  0  0  0  0  0  0  0
  131.2650  118.5764   59.6537 H   0  0  0  0  0  0  0  0  0  0  0  0
  129.2882  119.1980   61.0345 H   0  0  0  0  0  0  0  0  0  0  0  0
  129.4733  121.0229   62.7140 H   0  0  0  0  0  0  0  0  0  0  0  0
  131.0500  127.4760   67.7360 H   0  0  0  0  0  0  0  0  0  0  0  0
  131.4108  127.1934   70.7295 H   0  0  0  0  0  0  0  0  0  0  0  0
  130.9530  128.8019   72.5774 H   0  0  0  0  0  0  0  0  0  0  0  0
  129.3024  130.6358   72.2447 H   0  0  0  0  0  0  0  0  0  0  0  0
  128.1114  130.8804   70.0735 H   0  0  0  0  0  0  0  0  0  0  0  0
  128.5606  129.2737   68.2196 H   0  0  0  0  0  0  0  0  0  0  0  0
  132.7760  127.1300   65.9060 H   0  0  0  0  0  0  0  0  0  0  0  0
  132.7680  126.6330   67.5530 H   0  0  0  0  0  0  0  0  0  0  0  0
  1  2  1  0
  2  3  2  0
  3  4  1  0
  4  5  1  0
  5  6  2  0
  6  7  1  0
  7  8  2  0
  8  9  1  0
  9 10  2  0
  4 11  2  0
 11 12  1  0
 12 13  1  0
 13 14  1  0
 14 15  1  0
 15 16  2  0
 15 17  1  0
 17 18  1  0
 18 19  2  0
 19 20  1  0
 20 21  2  0
 21 22  1  0
 22 23  2  0
 14 24  2  0
 24 25  1  0
 24 26  1  0
 26  2  1  0
 10  5  1  0
 26 12  2  0
 23 18  1  0
  1 27  1  0
  1 28  1  0
  1 29  1  0
  3 30  1  0
  6 31  1  0
  7 32  1  0
  8 33  1  0
  9 34  1  0
 10 35  1  0
 17 36  1  0
 19 37  1  0
 20 38  1  0
 21 39  1  0
 22 40  1  0
 23 41  1  0
 25 42  1  0
 25 43  1  0
M  END
>  <Binding energies>  (1) 
[-7.43]

>  <Ligand effiencies>  (1) 
[-0.25620689655172413]

>  <Interactions>  (1) 
["V-A:PRO:482:CG:4326, V-B:TYR:539:CE2:9847, V-B:TYR:539:CD2:9845, V-B:ALA:541:CB:9863, V-A:LEU:475:CD2:4258, V-A:PRO:482:CB:4325, V-A:ILE:369:CG2:3236, H-A:TYR:484:OH:4347, H-A:GLU:543:OE2:4910, V-A:ARG:545:CZ:4926, V-A:GLU:543:CD:4908, V-A:GLU:543:CG:4907, V-A:GLU:543:CB:4906, V-B:HIS:456:CE1:9041, V-B:GLU:543:CB:9877, V-A:TYR:484:CZ:4346, V-A:HIS:456:CE1:4069, V-B:GLU:543:CG:9878, V-B:TYR:484:CE1:9316, V-B:GLU:543:CD:9879, V-A:TYR:484:CE1:4344, H-A:GLU:543:OE1:4909, V-A:ARG:545:CG:4922, V-A:ARG:545:CD:4923, V-A:GLY:454:CA:4048, V-A:GLY:453:C:4041, V-A:GLY:453:CA:4043, V-B:GLU:543:CA:9875, V-A:TRP:381:CH2:3371, V-A:TRP:381:CZ2:3369, V-A:TRP:381:CZ3:3370, V-A:GLU:543:CA:4904, V-A:GLU:543:C:4902"]

$$$$
4dg_Grossjean_2025
     RDKit          3D

 46 49  0  0  0  0  0  0  0  0999 V2000
  134.0630  125.3900   64.1940 C   0  0  0  0  0  0  0  0  0  0  0  0
  132.8510  124.4720   64.2190 C   0  0  0  0  0  0  0  0  0  0  0  0
  132.7680  123.4610   63.2530 C   0  0  0  0  0  0  0  0  0  0  0  0
  131.6780  122.5830   63.2220 C   0  0  0  0  0  0  0  0  0  0  0  0
  131.5620  121.4880   62.1990 C   0  0  0  0  0  0  0  0  0  0  0  0
  130.3300  120.8650   61.9470 C   0  0  0  0  0  0  0  0  0  0  0  0
  130.2180  119.8470   61.0020 C   0  0  0  0  0  0  0  0  0  0  0  0
  131.3410  119.4360   60.2940 C   0  0  0  0  0  0  0  0  0  0  0  0
  132.5770  120.0340   60.5270 C   0  0  0  0  0  0  0  0  0  0  0  0
  132.6840  121.0500   61.4720 C   0  0  0  0  0  0  0  0  0  0  0  0
  130.6680  122.6600   64.1310 N   0  0  0  0  0  0  0  0  0  0  0  0
  130.7450  123.6210   65.0510 C   0  0  0  0  0  0  0  0  0  0  0  0
  129.5130  123.8350   66.2720 S   0  0  0  0  0  0  0  0  0  0  0  0
  130.3810  125.2020   66.9700 C   0  0  0  0  0  0  0  0  0  0  0  0
  129.8140  125.9300   68.1050 C   0  0  0  0  0  0  0  0  0  0  0  0
  129.1470  125.3550   68.9670 O   0  0  0  0  0  0  0  0  0  0  0  0
  130.0370  127.2600   68.1220 N   0  0  0  0  0  0  0  0  0  0  0  0
  129.5870  128.1810   69.1660 C   0  0  0  0  0  0  0  0  0  0  0  0
  130.1700  127.8690   70.5400 C   0  0  0  0  0  0  0  0  0  0  0  0
  129.4240  127.1220   71.4570 C   0  0  0  0  0  0  0  0  0  0  0  0
  129.9650  126.8090   72.7000 C   0  0  0  0  0  0  0  0  0  0  0  0
  131.2530  127.2330   73.0190 C   0  0  0  0  0  0  0  0  0  0  0  0
  132.0080  127.9640   72.1040 C   0  0  0  0  0  0  0  0  0  0  0  0
  131.4680  128.2760   70.8600 C   0  0  0  0  0  0  0  0  0  0  0  0
  131.5610  125.4730   66.2620 C   0  0  0  0  0  0  0  0  0  0  0  0
  132.4240  126.4910   66.5770 N   0  0  0  0  0  0  0  0  0  0  0  0
  131.7980  124.5730   65.1650 C   0  0  0  0  0  0  0  0  0  0  0  0
  134.3688  125.6216   65.2249 H   0  0  0  0  0  0  0  0  0  0  0  0
  134.8907  124.8903   63.6695 H   0  0  0  0  0  0  0  0  0  0  0  0
  133.8062  126.3222   63.6695 H   0  0  0  0  0  0  0  0  0  0  0  0
  133.5706  123.3555   62.5082 H   0  0  0  0  0  0  0  0  0  0  0  0
  129.4378  121.1856   62.5048 H   0  0  0  0  0  0  0  0  0  0  0  0
  129.2440  119.3704   60.8171 H   0  0  0  0  0  0  0  0  0  0  0  0
  131.2532  118.6344   59.5459 H   0  0  0  0  0  0  0  0  0  0  0  0
  133.4645  119.7048   59.9667 H   0  0  0  0  0  0  0  0  0  0  0  0
  133.6625  121.5186   61.6536 H   0  0  0  0  0  0  0  0  0  0  0  0
  130.6570  127.6480   67.4260 H   0  0  0  0  0  0  0  0  0  0  0  0
  129.8860  129.2013   68.8837 H   0  0  0  0  0  0  0  0  0  0  0  0
  128.4949  128.0749   69.2445 H   0  0  0  0  0  0  0  0  0  0  0  0
  128.4108  126.7823   71.1960 H   0  0  0  0  0  0  0  0  0  0  0  0
  129.3782  126.2292   73.4277 H   0  0  0  0  0  0  0  0  0  0  0  0
  131.6785  126.9882   74.0034 H   0  0  0  0  0  0  0  0  0  0  0  0
  133.0252  128.2926   72.3636 H   0  0  0  0  0  0  0  0  0  0  0  0
  132.0628  128.8429   70.1287 H   0  0  0  0  0  0  0  0  0  0  0  0
  132.9470  126.5000   67.4400 H   0  0  0  0  0  0  0  0  0  0  0  0
  132.5700  127.2680   65.9460 H   0  0  0  0  0  0  0  0  0  0  0  0
  1  2  1  0
  2  3  2  0
  3  4  1  0
  4  5  1  0
  5  6  2  0
  6  7  1  0
  7  8  2  0
  8  9  1  0
  9 10  2  0
  4 11  2  0
 11 12  1  0
 12 13  1  0
 13 14  1  0
 14 15  1  0
 15 16  2  0
 15 17  1  0
 17 18  1  0
 18 19  1  0
 19 20  2  0
 20 21  1  0
 21 22  2  0
 22 23  1  0
 23 24  2  0
 14 25  2  0
 25 26  1  0
 25 27  1  0
 27  2  1  0
 10  5  1  0
 27 12  2  0
 24 19  1  0
  1 28  1  0
  1 29  1  0
  1 30  1  0
  3 31  1  0
  6 32  1  0
  7 33  1  0
  8 34  1  0
  9 35  1  0
 10 36  1  0
 17 37  1  0
 18 38  1  0
 18 39  1  0
 20 40  1  0
 21 41  1  0
 22 42  1  0
 23 43  1  0
 24 44  1  0
 26 45  1  0
 26 46  1  0
M  END
>  <Binding energies>  (1) 
[-7.62]

>  <Ligand effiencies>  (1) 
[-0.254]

>  <Interactions>  (1) 
["V-B:TYR:539:CE2:9847, V-B:TYR:539:CD2:9845, V-B:ALA:541:CB:9863, V-A:LEU:475:CD2:4258, V-A:PRO:482:CB:4325, V-A:ILE:369:CG2:3236, H-A:GLU:543:OE2:4910, V-A:ARG:545:CZ:4926, V-A:GLU:543:CD:4908, V-A:GLU:543:CG:4907, V-A:GLU:543:CB:4906, V-B:HIS:456:CE1:9041, V-B:GLU:543:CB:9877, V-A:TYR:484:CZ:4346, V-A:HIS:456:CE1:4069, V-B:GLU:543:CG:9878, V-B:GLU:543:CD:9879, V-A:TYR:484:CE1:4344, V-A:HIS:456:CD2:4067, H-A:GLU:543:OE1:4909, V-A:ARG:545:CG:4922, V-A:ARG:545:CD:4923, V-A:GLY:454:CA:4048, V-A:GLY:453:C:4041, V-A:GLY:453:CA:4043, V-B:GLU:543:CA:9875, V-A:TRP:381:CH2:3371, V-A:TRP:381:CZ2:3369, V-A:TRP:381:CZ3:3370, V-A:HIS:456:CG:4065, V-A:ARG:545:CA:4919, V-A:GLY:544:C:4912"]

$$$$
4dj_Grossjean_2025
     RDKit          3D

 39 42  0  0  0  0  0  0  0  0999 V2000
  134.0420  125.3530   64.1370 C   0  0  0  0  0  0  0  0  0  0  0  0
  132.8200  124.4490   64.1920 C   0  0  0  0  0  0  0  0  0  0  0  0
  132.7100  123.4300   63.2380 C   0  0  0  0  0  0  0  0  0  0  0  0
  131.6100  122.5650   63.2330 C   0  0  0  0  0  0  0  0  0  0  0  0
  131.4680  121.4590   62.2260 C   0  0  0  0  0  0  0  0  0  0  0  0
  130.2410  120.7980   62.0500 C   0  0  0  0  0  0  0  0  0  0  0  0
  130.1020  119.7720   61.1180 C   0  0  0  0  0  0  0  0  0  0  0  0
  131.1950  119.3890   60.3480 C   0  0  0  0  0  0  0  0  0  0  0  0
  132.4230  120.0230   60.5030 C   0  0  0  0  0  0  0  0  0  0  0  0
  132.5560  121.0490   61.4350 C   0  0  0  0  0  0  0  0  0  0  0  0
  130.6150  122.6620   64.1560 N   0  0  0  0  0  0  0  0  0  0  0  0
  130.7170  123.6320   65.0640 C   0  0  0  0  0  0  0  0  0  0  0  0
  129.5060  123.8760   66.3030 S   0  0  0  0  0  0  0  0  0  0  0  0
  130.4010  125.2420   66.9740 C   0  0  0  0  0  0  0  0  0  0  0  0
  129.8790  125.9700   68.1310 C   0  0  0  0  0  0  0  0  0  0  0  0
  129.0330  125.4590   68.8700 O   0  0  0  0  0  0  0  0  0  0  0  0
  130.3820  127.2170   68.3110 N   0  0  0  0  0  0  0  0  0  0  0  0
  130.0560  128.1100   69.3210 C   0  0  0  0  0  0  0  0  0  0  0  0
  129.1380  129.0540   69.3000 N   0  0  0  0  0  0  0  0  0  0  0  0
  129.1000  129.7180   70.4390 C   0  0  0  0  0  0  0  0  0  0  0  0
  130.0020  129.3130   71.4190 C   0  0  0  0  0  0  0  0  0  0  0  0
  130.9480  127.9910   70.8040 S   0  0  0  0  0  0  0  0  0  0  0  0
  131.5790  125.4790   66.2500 C   0  0  0  0  0  0  0  0  0  0  0  0
  132.4680  126.4820   66.5470 N   0  0  0  0  0  0  0  0  0  0  0  0
  131.7850  124.5710   65.1550 C   0  0  0  0  0  0  0  0  0  0  0  0
  134.3667  125.5932   65.1602 H   0  0  0  0  0  0  0  0  0  0  0  0
  134.8557  124.8377   63.6055 H   0  0  0  0  0  0  0  0  0  0  0  0
  133.7874  126.2818   63.6055 H   0  0  0  0  0  0  0  0  0  0  0  0
  133.4994  123.3077   62.4818 H   0  0  0  0  0  0  0  0  0  0  0  0
  129.3747  121.0958   62.6589 H   0  0  0  0  0  0  0  0  0  0  0  0
  129.1328  119.2674   60.9917 H   0  0  0  0  0  0  0  0  0  0  0  0
  131.0874  118.5791   59.6114 H   0  0  0  0  0  0  0  0  0  0  0  0
  133.2848  119.7156   59.8925 H   0  0  0  0  0  0  0  0  0  0  0  0
  133.5292  121.5475   61.5546 H   0  0  0  0  0  0  0  0  0  0  0  0
  131.0640  127.5420   67.6420 H   0  0  0  0  0  0  0  0  0  0  0  0
  128.3948  130.5457   70.6053 H   0  0  0  0  0  0  0  0  0  0  0  0
  130.1001  129.7576   72.4203 H   0  0  0  0  0  0  0  0  0  0  0  0
  132.8580  126.5940   67.4710 H   0  0  0  0  0  0  0  0  0  0  0  0
  132.7630  127.1450   65.8440 H   0  0  0  0  0  0  0  0  0  0  0  0
  1  2  1  0
  2  3  2  0
  3  4  1  0
  4  5  1  0
  5  6  2  0
  6  7  1  0
  7  8  2  0
  8  9  1  0
  9 10  2  0
  4 11  2  0
 11 12  1  0
 12 13  1  0
 13 14  1  0
 14 15  1  0
 15 16  2  0
 15 17  1  0
 17 18  1  0
 18 19  2  0
 19 20  1  0
 20 21  2  0
 21 22  1  0
 14 23  2  0
 23 24  1  0
 23 25  1  0
 25  2  1  0
 10  5  1  0
 25 12  2  0
 22 18  1  0
  1 26  1  0
  1 27  1  0
  1 28  1  0
  3 29  1  0
  6 30  1  0
  7 31  1  0
  8 32  1  0
  9 33  1  0
 10 34  1  0
 17 35  1  0
 20 36  1  0
 21 37  1  0
 24 38  1  0
 24 39  1  0
M  END
>  <Binding energies>  (1) 
[-7.16]

>  <Ligand effiencies>  (1) 
[-0.2557142857142857]

>  <Interactions>  (1) 
["V-A:PRO:482:CG:4326, V-B:TYR:539:CE2:9847, V-B:TYR:539:CD2:9845, V-B:ALA:541:CB:9863, V-A:LEU:475:CD2:4258, V-A:PRO:482:CB:4325, V-A:ILE:369:CG2:3236, H-A:GLU:543:OE2:4910, V-A:ARG:545:CZ:4926, V-A:GLU:543:CD:4908, V-A:GLU:543:CB:4906, V-B:HIS:456:CE1:9041, V-B:GLU:543:CB:9877, V-A:TYR:484:CZ:4346, V-A:HIS:456:CE1:4069, V-B:GLU:543:CG:9878, V-B:GLU:543:CD:9879, V-A:TYR:484:CE1:4344, H-A:GLU:543:OE1:4909, V-A:ARG:545:CG:4922, V-A:ARG:545:CD:4923, V-A:GLY:453:C:4041, V-A:GLY:453:CA:4043, V-B:GLU:543:CA:9875, V-A:TRP:381:CH2:3371, V-A:TRP:381:CZ2:3369, V-A:TRP:381:CZ3:3370, V-A:GLU:543:C:4902"]

$$$$
4ea_Grossjean_2025
     RDKit          3D

 52 55  0  0  0  0  0  0  0  0999 V2000
  132.5510  131.4370   57.1230 C   0  0  0  0  0  0  0  0  0  0  0  0
  131.7450  132.4150   56.2630 C   0  0  0  0  0  0  0  0  0  0  0  0
  130.9710  133.2590   57.1060 O   0  0  0  0  0  0  0  0  0  0  0  0
  129.7130  132.9130   57.4820 C   0  0  0  0  0  0  0  0  0  0  0  0
  128.7100  133.1570   56.8040 O   0  0  0  0  0  0  0  0  0  0  0  0
  129.6630  132.2040   58.8040 C   0  0  0  0  0  0  0  0  0  0  0  0
  128.7070  131.2010   59.0060 C   0  0  0  0  0  0  0  0  0  0  0  0
  128.6340  130.5250   60.2210 C   0  0  0  0  0  0  0  0  0  0  0  0
  129.5150  130.8360   61.2580 C   0  0  0  0  0  0  0  0  0  0  0  0
  129.3490  130.0880   62.4390 N   0  0  0  0  0  0  0  0  0  0  0  0
  128.2190  129.6850   63.0720 C   0  0  0  0  0  0  0  0  0  0  0  0
  127.0790  129.9310   62.6790 O   0  0  0  0  0  0  0  0  0  0  0  0
  128.4340  128.9100   64.2980 C   0  0  0  0  0  0  0  0  0  0  0  0
  127.5320  129.2940   65.7660 S   0  0  0  0  0  0  0  0  0  0  0  0
  128.3270  128.0100   66.6480 C   0  0  0  0  0  0  0  0  0  0  0  0
  128.0550  127.7620   67.9300 N   0  0  0  0  0  0  0  0  0  0  0  0
  128.7400  126.7400   68.4980 C   0  0  0  0  0  0  0  0  0  0  0  0
  128.4150  126.4750   69.9560 C   0  0  0  0  0  0  0  0  0  0  0  0
  129.6820  125.9670   67.8210 C   0  0  0  0  0  0  0  0  0  0  0  0
  129.9640  126.2310   66.4760 C   0  0  0  0  0  0  0  0  0  0  0  0
  130.9670  125.4020   65.7700 C   0  0  0  0  0  0  0  0  0  0  0  0
  132.3210  125.7520   65.8080 C   0  0  0  0  0  0  0  0  0  0  0  0
  133.2650  124.9710   65.1460 C   0  0  0  0  0  0  0  0  0  0  0  0
  132.8540  123.8410   64.4430 C   0  0  0  0  0  0  0  0  0  0  0  0
  131.5080  123.4860   64.3950 C   0  0  0  0  0  0  0  0  0  0  0  0
  130.5650  124.2680   65.0570 C   0  0  0  0  0  0  0  0  0  0  0  0
  129.2660  127.2970   65.8440 C   0  0  0  0  0  0  0  0  0  0  0  0
  129.3070  127.8310   64.5070 C   0  0  0  0  0  0  0  0  0  0  0  0
  130.1310  127.3170   63.5390 N   0  0  0  0  0  0  0  0  0  0  0  0
  130.4760  131.8400   61.0640 C   0  0  0  0  0  0  0  0  0  0  0  0
  130.5470  132.5150   59.8490 C   0  0  0  0  0  0  0  0  0  0  0  0
  132.3736  131.6523   58.1870 H   0  0  0  0  0  0  0  0  0  0  0  0
  132.2360  130.4070   56.8998 H   0  0  0  0  0  0  0  0  0  0  0  0
  133.6222  131.5494   56.8998 H   0  0  0  0  0  0  0  0  0  0  0  0
  132.4328  133.0279   55.6620 H   0  0  0  0  0  0  0  0  0  0  0  0
  131.0773  131.8518   55.5945 H   0  0  0  0  0  0  0  0  0  0  0  0
  128.0070  130.9447   58.1971 H   0  0  0  0  0  0  0  0  0  0  0  0
  127.8767  129.7403   60.3647 H   0  0  0  0  0  0  0  0  0  0  0  0
  130.2160  129.8140   62.8750 H   0  0  0  0  0  0  0  0  0  0  0  0
  129.1089  127.0408   70.5950 H   0  0  0  0  0  0  0  0  0  0  0  0
  127.3827  126.7921   70.1651 H   0  0  0  0  0  0  0  0  0  0  0  0
  128.5178  125.4000   70.1651 H   0  0  0  0  0  0  0  0  0  0  0  0
  130.2028  125.1509   68.3432 H   0  0  0  0  0  0  0  0  0  0  0  0
  132.6409  126.6466   66.3624 H   0  0  0  0  0  0  0  0  0  0  0  0
  134.3298  125.2451   65.1781 H   0  0  0  0  0  0  0  0  0  0  0  0
  133.5994  123.2232   63.9208 H   0  0  0  0  0  0  0  0  0  0  0  0
  131.1915  122.5924   63.8370 H   0  0  0  0  0  0  0  0  0  0  0  0
  129.5006  123.9930   65.0190 H   0  0  0  0  0  0  0  0  0  0  0  0
  129.8970  126.4760   63.0290 H   0  0  0  0  0  0  0  0  0  0  0  0
  131.0060  127.7650   63.3000 H   0  0  0  0  0  0  0  0  0  0  0  0
  131.1750  132.0942   61.8744 H   0  0  0  0  0  0  0  0  0  0  0  0
  131.3038  133.3004   59.7061 H   0  0  0  0  0  0  0  0  0  0  0  0
  1  2  1  0
  2  3  1  0
  3  4  1  0
  4  5  2  0
  4  6  1  0
  6  7  2  0
  7  8  1  0
  8  9  2  0
  9 10  1  0
 10 11  1  0
 11 12  2  0
 11 13  1  0
 13 14  1  0
 14 15  1  0
 15 16  2  0
 16 17  1  0
 17 18  1  0
 17 19  2  0
 19 20  1  0
 20 21  1  0
 21 22  2  0
 22 23  1  0
 23 24  2  0
 24 25  1  0
 25 26  2  0
 20 27  2  0
 27 28  1  0
 28 29  1  0
  9 30  1  0
 30 31  2  0
 31  6  1  0
 28 13  2  0
 27 15  1  0
 26 21  1  0
  1 32  1  0
  1 33  1  0
  1 34  1  0
  2 35  1  0
  2 36  1  0
  7 37  1  0
  8 38  1  0
 10 39  1  0
 18 40  1  0
 18 41  1  0
 18 42  1  0
 19 43  1  0
 22 44  1  0
 23 45  1  0
 24 46  1  0
 25 47  1  0
 26 48  1  0
 29 49  1  0
 29 50  1  0
 30 51  1  0
 31 52  1  0
M  END
>  <Binding energies>  (1) 
[-7.63]

>  <Ligand effiencies>  (1) 
[-0.22441176470588234]

>  <Interactions>  (1) 
["H-A:GLU:543:OE2:4910, V-A:ARG:545:CZ:4926, V-A:GLU:543:CD:4908, V-A:GLU:543:CG:4907, V-B:HIS:456:CE1:9041, V-B:GLU:543:CB:9877, V-A:HIS:456:CE1:4069, V-B:GLU:543:CD:9879, V-A:PRO:540:N:4884, V-A:LEU:363:CD1:3188, V-A:TYR:539:C:4867, H-A:TYR:539:N:4870, V-A:PRO:540:CA:4883, V-A:TYR:531:CE2:4793, H-A:GLU:543:OE1:4909, V-A:PRO:540:CB:4885, V-A:GLY:454:CA:4048, V-A:ILE:538:CB:4862"]

$$$$
4eb_Grossjean_2025
     RDKit          3D

 49 52  0  0  0  0  0  0  0  0999 V2000
  129.6710  130.1050   73.3720 C   0  0  0  0  0  0  0  0  0  0  0  0
  130.1420  128.7720   73.5040 O   0  0  0  0  0  0  0  0  0  0  0  0
  129.3830  127.7200   73.0980 C   0  0  0  0  0  0  0  0  0  0  0  0
  128.6370  127.0890   73.8530 O   0  0  0  0  0  0  0  0  0  0  0  0
  129.5430  127.4010   71.6390 C   0  0  0  0  0  0  0  0  0  0  0  0
  130.4790  128.1170   70.8820 C   0  0  0  0  0  0  0  0  0  0  0  0
  130.6510  127.8450   69.5280 C   0  0  0  0  0  0  0  0  0  0  0  0
  129.8930  126.8540   68.9030 C   0  0  0  0  0  0  0  0  0  0  0  0
  130.1510  126.6660   67.5310 N   0  0  0  0  0  0  0  0  0  0  0  0
  130.1330  125.5370   66.7810 C   0  0  0  0  0  0  0  0  0  0  0  0
  129.8670  124.4170   67.2190 O   0  0  0  0  0  0  0  0  0  0  0  0
  130.4590  125.7220   65.3650 C   0  0  0  0  0  0  0  0  0  0  0  0
  130.0490  127.2300   64.5450 S   0  0  0  0  0  0  0  0  0  0  0  0
  130.7270  126.6530   63.0400 C   0  0  0  0  0  0  0  0  0  0  0  0
  130.7240  127.3980   61.9330 N   0  0  0  0  0  0  0  0  0  0  0  0
  131.2800  126.8350   60.8340 C   0  0  0  0  0  0  0  0  0  0  0  0
  131.2670  127.7000   59.5870 C   0  0  0  0  0  0  0  0  0  0  0  0
  131.8320  125.5560   60.8130 C   0  0  0  0  0  0  0  0  0  0  0  0
  131.8330  124.7770   61.9760 C   0  0  0  0  0  0  0  0  0  0  0  0
  132.4240  123.4200   61.9390 C   0  0  0  0  0  0  0  0  0  0  0  0
  131.7870  122.3960   61.2320 C   0  0  0  0  0  0  0  0  0  0  0  0
  132.3430  121.1190   61.1950 C   0  0  0  0  0  0  0  0  0  0  0  0
  133.5360  120.8670   61.8690 C   0  0  0  0  0  0  0  0  0  0  0  0
  134.1760  121.8800   62.5790 C   0  0  0  0  0  0  0  0  0  0  0  0
  133.6190  123.1560   62.6140 C   0  0  0  0  0  0  0  0  0  0  0  0
  131.2590  125.3330   63.1520 C   0  0  0  0  0  0  0  0  0  0  0  0
  131.0930  124.8270   64.4890 C   0  0  0  0  0  0  0  0  0  0  0  0
  131.5220  123.5760   64.8570 N   0  0  0  0  0  0  0  0  0  0  0  0
  128.9520  126.1320   69.6530 C   0  0  0  0  0  0  0  0  0  0  0  0
  128.7820  126.4050   71.0080 C   0  0  0  0  0  0  0  0  0  0  0  0
  129.5173  130.5401   74.3705 H   0  0  0  0  0  0  0  0  0  0  0  0
  130.4123  130.7030   72.8216 H   0  0  0  0  0  0  0  0  0  0  0  0
  128.7186  130.1046   72.8216 H   0  0  0  0  0  0  0  0  0  0  0  0
  131.0833  128.9010   71.3618 H   0  0  0  0  0  0  0  0  0  0  0  0
  131.3900  128.4154   68.9462 H   0  0  0  0  0  0  0  0  0  0  0  0
  130.3860  127.5140   67.0390 H   0  0  0  0  0  0  0  0  0  0  0  0
  131.2511  128.7610   59.8769 H   0  0  0  0  0  0  0  0  0  0  0  0
  132.1683  127.4965   58.9902 H   0  0  0  0  0  0  0  0  0  0  0  0
  130.3722  127.4695   58.9902 H   0  0  0  0  0  0  0  0  0  0  0  0
  132.2665  125.1589   59.8837 H   0  0  0  0  0  0  0  0  0  0  0  0
  130.8440  122.5990   60.7033 H   0  0  0  0  0  0  0  0  0  0  0  0
  131.8427  120.3141   60.6366 H   0  0  0  0  0  0  0  0  0  0  0  0
  133.9762  119.8594   61.8402 H   0  0  0  0  0  0  0  0  0  0  0  0
  135.1171  121.6732   63.1097 H   0  0  0  0  0  0  0  0  0  0  0  0
  134.1210  123.9584   63.1745 H   0  0  0  0  0  0  0  0  0  0  0  0
  131.3850  123.2230   65.7930 H   0  0  0  0  0  0  0  0  0  0  0  0
  131.9910  122.9660   64.2020 H   0  0  0  0  0  0  0  0  0  0  0  0
  128.3481  125.3496   69.1701 H   0  0  0  0  0  0  0  0  0  0  0  0
  128.0435  125.8339   71.5898 H   0  0  0  0  0  0  0  0  0  0  0  0
  1  2  1  0
  2  3  1  0
  3  4  2  0
  3  5  1  0
  5  6  2  0
  6  7  1  0
  7  8  2  0
  8  9  1  0
  9 10  1  0
 10 11  2  0
 10 12  1  0
 12 13  1  0
 13 14  1  0
 14 15  2  0
 15 16  1  0
 16 17  1  0
 16 18  2  0
 18 19  1  0
 19 20  1  0
 20 21  2  0
 21 22  1  0
 22 23  2  0
 23 24  1  0
 24 25  2  0
 19 26  2  0
 26 27  1  0
 27 28  1  0
  8 29  1  0
 29 30  2  0
 30  5  1  0
 27 12  2  0
 26 14  1  0
 25 20  1  0
  1 31  1  0
  1 32  1  0
  1 33  1  0
  6 34  1  0
  7 35  1  0
  9 36  1  0
 17 37  1  0
 17 38  1  0
 17 39  1  0
 18 40  1  0
 21 41  1  0
 22 42  1  0
 23 43  1  0
 24 44  1  0
 25 45  1  0
 28 46  1  0
 28 47  1  0
 29 48  1  0
 30 49  1  0
M  END
>  <Binding energies>  (1) 
[-7.41]

>  <Ligand effiencies>  (1) 
[-0.22454545454545455]

>  <Interactions>  (1) 
["V-A:LEU:475:CD2:4258, H-A:ARG:545:NH2:4928, V-A:ASP:366:CG:3212, V-A:ILE:369:CD1:3238, V-A:ASP:366:CB:3211, V-A:ILE:369:CG2:3236, H-A:TYR:484:OH:4347, H-A:GLU:543:OE2:4910, V-A:GLU:543:CD:4908, V-A:GLU:543:CB:4906, V-B:HIS:456:CE1:9041, V-B:GLU:543:CB:9877, V-A:TYR:484:CZ:4346, V-A:HIS:456:CE1:4069, V-B:GLU:543:CG:9878, V-A:GLY:454:CA:4048, H-B:LYS:547:NZ:9922, H-A:LYS:547:NZ:4951"]

$$$$
8a_Ghoteimi_2023
     RDKit          3D

 67 71  0  0  0  0  0  0  0  0999 V2000
  132.8090  131.7880   57.7580 C   0  0  0  0  0  0  0  0  0  0  0  0
  131.9460  132.3200   56.6100 C   0  0  0  0  0  0  0  0  0  0  0  0
  131.0090  133.2600   57.1200 O   0  0  0  0  0  0  0  0  0  0  0  0
  129.7310  132.8950   57.4000 C   0  0  0  0  0  0  0  0  0  0  0  0
  128.7810  133.1090   56.6400 O   0  0  0  0  0  0  0  0  0  0  0  0
  129.5870  132.2100   58.7280 C   0  0  0  0  0  0  0  0  0  0  0  0
  129.9500  130.8630   58.8460 C   0  0  0  0  0  0  0  0  0  0  0  0
  129.8270  130.2000   60.0630 C   0  0  0  0  0  0  0  0  0  0  0  0
  129.3390  130.8670   61.1880 C   0  0  0  0  0  0  0  0  0  0  0  0
  129.2540  130.0950   62.3630 N   0  0  0  0  0  0  0  0  0  0  0  0
  128.1910  129.4670   62.9250 C   0  0  0  0  0  0  0  0  0  0  0  0
  127.0520  129.4790   62.4580 O   0  0  0  0  0  0  0  0  0  0  0  0
  128.4800  128.7360   64.1620 C   0  0  0  0  0  0  0  0  0  0  0  0
  127.8150  129.2880   65.6990 S   0  0  0  0  0  0  0  0  0  0  0  0
  128.5950  127.9820   66.5600 C   0  0  0  0  0  0  0  0  0  0  0  0
  128.4850  127.8510   67.8820 N   0  0  0  0  0  0  0  0  0  0  0  0
  129.1360  126.8030   68.4540 C   0  0  0  0  0  0  0  0  0  0  0  0
  129.0160  126.6870   69.9400 C   0  0  0  0  0  0  0  0  0  0  0  0
  129.6460  127.6060   70.7900 C   0  0  0  0  0  0  0  0  0  0  0  0
  129.5400  127.4860   72.1730 C   0  0  0  0  0  0  0  0  0  0  0  0
  128.8030  126.4490   72.7400 C   0  0  0  0  0  0  0  0  0  0  0  0
  128.7550  126.4070   74.1200 O   0  0  0  0  0  0  0  0  0  0  0  0
  128.9630  127.6070   74.8570 C   0  0  0  0  0  0  0  0  0  0  0  0
  128.1640  125.5270   71.8980 C   0  0  0  0  0  0  0  0  0  0  0  0
  128.2740  125.6480   70.5140 C   0  0  0  0  0  0  0  0  0  0  0  0
  129.8840  125.8910   67.7060 C   0  0  0  0  0  0  0  0  0  0  0  0
  129.9880  126.0160   66.3160 C   0  0  0  0  0  0  0  0  0  0  0  0
  130.7700  125.0000   65.5650 C   0  0  0  0  0  0  0  0  0  0  0  0
  132.0960  125.2550   65.2100 C   0  0  0  0  0  0  0  0  0  0  0  0
  132.8380  124.2980   64.5250 C   0  0  0  0  0  0  0  0  0  0  0  0
  132.2710  123.0690   64.1870 C   0  0  0  0  0  0  0  0  0  0  0  0
  133.0820  122.1810   63.5070 O   0  0  0  0  0  0  0  0  0  0  0  0
  133.2530  122.3310   62.1030 C   0  0  0  0  0  0  0  0  0  0  0  0
  130.9400  122.8070   64.5490 C   0  0  0  0  0  0  0  0  0  0  0  0
  130.2010  123.7670   65.2370 C   0  0  0  0  0  0  0  0  0  0  0  0
  129.3330  127.1180   65.6980 C   0  0  0  0  0  0  0  0  0  0  0  0
  129.2650  127.5850   64.3350 C   0  0  0  0  0  0  0  0  0  0  0  0
  129.9270  126.9600   63.3080 N   0  0  0  0  0  0  0  0  0  0  0  0
  128.9770  132.2190   61.0810 C   0  0  0  0  0  0  0  0  0  0  0  0
  129.1010  132.8800   59.8620 C   0  0  0  0  0  0  0  0  0  0  0  0
  132.3539  132.0686   58.7193 H   0  0  0  0  0  0  0  0  0  0  0  0
  132.8752  130.6921   57.6896 H   0  0  0  0  0  0  0  0  0  0  0  0
  133.8178  132.2212   57.6896 H   0  0  0  0  0  0  0  0  0  0  0  0
  132.5890  132.8104   55.8643 H   0  0  0  0  0  0  0  0  0  0  0  0
  131.4084  131.4850   56.1369 H   0  0  0  0  0  0  0  0  0  0  0  0
  130.3360  130.3238   57.9684 H   0  0  0  0  0  0  0  0  0  0  0  0
  130.1167  129.1416   60.1393 H   0  0  0  0  0  0  0  0  0  0  0  0
  130.1310  129.9900   62.8500 H   0  0  0  0  0  0  0  0  0  0  0  0
  130.2312  128.4319   70.3594 H   0  0  0  0  0  0  0  0  0  0  0  0
  130.0428  128.2166   72.8237 H   0  0  0  0  0  0  0  0  0  0  0  0
  128.9249  127.3870   75.9341 H   0  0  0  0  0  0  0  0  0  0  0  0
  129.9474  128.0272   74.6032 H   0  0  0  0  0  0  0  0  0  0  0  0
  128.1775  128.3340   74.6032 H   0  0  0  0  0  0  0  0  0  0  0  0
  127.5742  124.7059   72.3314 H   0  0  0  0  0  0  0  0  0  0  0  0
  127.7709  124.9171   69.8638 H   0  0  0  0  0  0  0  0  0  0  0  0
  130.3983  125.0633   68.2163 H   0  0  0  0  0  0  0  0  0  0  0  0
  132.5569  126.2184   65.4735 H   0  0  0  0  0  0  0  0  0  0  0  0
  133.8806  124.5123   64.2476 H   0  0  0  0  0  0  0  0  0  0  0  0
  134.0667  123.0448   61.9069 H   0  0  0  0  0  0  0  0  0  0  0  0
  133.5046  121.3569   61.6581 H   0  0  0  0  0  0  0  0  0  0  0  0
  132.3200  122.7073   61.6581 H   0  0  0  0  0  0  0  0  0  0  0  0
  130.4799  121.8422   64.2890 H   0  0  0  0  0  0  0  0  0  0  0  0
  129.1611  123.5524   65.5243 H   0  0  0  0  0  0  0  0  0  0  0  0
  130.7790  127.3420   62.9210 H   0  0  0  0  0  0  0  0  0  0  0  0
  129.5920  126.0960   62.9080 H   0  0  0  0  0  0  0  0  0  0  0  0
  128.5949  132.7568   61.9612 H   0  0  0  0  0  0  0  0  0  0  0  0
  128.8149  133.9395   59.7865 H   0  0  0  0  0  0  0  0  0  0  0  0
  1  2  1  0
  2  3  1  0
  3  4  1  0
  4  5  2  0
  4  6  1  0
  6  7  2  0
  7  8  1  0
  8  9  2  0
  9 10  1  0
 10 11  1  0
 11 12  2  0
 11 13  1  0
 13 14  1  0
 14 15  1  0
 15 16  2  0
 16 17  1  0
 17 18  1  0
 18 19  2  0
 19 20  1  0
 20 21  2  0
 21 22  1  0
 22 23  1  0
 21 24  1  0
 24 25  2  0
 17 26  2  0
 26 27  1  0
 27 28  1  0
 28 29  2  0
 29 30  1  0
 30 31  2  0
 31 32  1  0
 32 33  1  0
 31 34  1  0
 34 35  2  0
 27 36  2  0
 36 37  1  0
 37 38  1  0
  9 39  1  0
 39 40  2  0
 40  6  1  0
 37 13  2  0
 36 15  1  0
 25 18  1  0
 35 28  1  0
  1 41  1  0
  1 42  1  0
  1 43  1  0
  2 44  1  0
  2 45  1  0
  7 46  1  0
  8 47  1  0
 10 48  1  0
 19 49  1  0
 20 50  1  0
 23 51  1  0
 23 52  1  0
 23 53  1  0
 24 54  1  0
 25 55  1  0
 26 56  1  0
 29 57  1  0
 30 58  1  0
 33 59  1  0
 33 60  1  0
 33 61  1  0
 34 62  1  0
 35 63  1  0
 38 64  1  0
 38 65  1  0
 39 66  1  0
 40 67  1  0
M  END
>  <Binding energies>  (1) 
[-9.51]

>  <Ligand effiencies>  (1) 
[-0.22116279069767442]

>  <Interactions>  (1) 
["V-A:LEU:475:CD2:4258, H-B:GLU:543:OE2:9881, H-A:GLY:454:N:4049, V-A:ILE:369:CD1:3238, V-A:ILE:369:CG2:3236, V-A:GLU:543:CD:4908, V-A:GLU:543:CG:4907, V-B:HIS:456:CE1:9041, V-B:GLU:543:CB:9877, V-A:HIS:456:CE1:4069, V-B:GLU:543:CG:9878, V-B:HIS:456:CD2:9039, V-B:GLU:543:CD:9879, V-A:TYR:484:CE1:4344, V-A:PRO:540:N:4884, V-A:LEU:363:CD1:3188, V-A:TYR:539:C:4867, H-A:TYR:539:N:4870, V-A:PRO:540:CA:4883, H-A:GLU:543:OE1:4909, V-A:PRO:540:CB:4885, V-A:GLY:454:CA:4048, H-B:LYS:547:NZ:9922, V-B:GLU:543:C:9873"]

$$$$
8b_Ghoteimi_2023
     RDKit          3D

 54 58  0  0  0  0  0  0  0  0999 V2000
  129.3620  130.0300   75.0310 C   0  0  0  0  0  0  0  0  0  0  0  0
  130.2470  129.1700   74.3220 O   0  0  0  0  0  0  0  0  0  0  0  0
  130.0000  128.9000   72.9890 C   0  0  0  0  0  0  0  0  0  0  0  0
  129.4520  129.9360   72.2350 C   0  0  0  0  0  0  0  0  0  0  0  0
  129.1690  129.7560   70.8850 C   0  0  0  0  0  0  0  0  0  0  0  0
  129.4280  128.5320   70.2520 C   0  0  0  0  0  0  0  0  0  0  0  0
  129.1240  128.3320   68.8010 C   0  0  0  0  0  0  0  0  0  0  0  0
  128.3000  129.2130   68.0920 C   0  0  0  0  0  0  0  0  0  0  0  0
  128.0330  129.0040   66.7360 C   0  0  0  0  0  0  0  0  0  0  0  0
  127.1490  129.9510   66.0170 C   0  0  0  0  0  0  0  0  0  0  0  0
  125.8060  129.6350   65.8030 C   0  0  0  0  0  0  0  0  0  0  0  0
  124.9740  130.5300   65.1360 C   0  0  0  0  0  0  0  0  0  0  0  0
  125.4710  131.7490   64.6720 C   0  0  0  0  0  0  0  0  0  0  0  0
  124.5730  132.5750   64.0230 O   0  0  0  0  0  0  0  0  0  0  0  0
  123.9070  132.0970   62.8580 C   0  0  0  0  0  0  0  0  0  0  0  0
  126.8220  132.0620   64.8850 C   0  0  0  0  0  0  0  0  0  0  0  0
  127.6530  131.1670   65.5530 C   0  0  0  0  0  0  0  0  0  0  0  0
  128.6260  127.8790   66.1030 C   0  0  0  0  0  0  0  0  0  0  0  0
  128.5730  127.3770   64.7540 C   0  0  0  0  0  0  0  0  0  0  0  0
  127.8480  127.9970   63.7680 N   0  0  0  0  0  0  0  0  0  0  0  0
  129.3260  126.2100   64.5520 C   0  0  0  0  0  0  0  0  0  0  0  0
  129.5000  125.4400   63.3190 C   0  0  0  0  0  0  0  0  0  0  0  0
  130.5200  125.5670   62.6360 O   0  0  0  0  0  0  0  0  0  0  0  0
  128.4770  124.6060   63.0050 N   0  0  0  0  0  0  0  0  0  0  0  0
  128.3810  123.7630   61.9060 C   0  0  0  0  0  0  0  0  0  0  0  0
  129.4400  123.5280   61.0310 C   0  0  0  0  0  0  0  0  0  0  0  0
  128.9420  122.6550   60.0910 C   0  0  0  0  0  0  0  0  0  0  0  0
  127.6510  122.3750   60.3870 O   0  0  0  0  0  0  0  0  0  0  0  0
  127.3060  123.0820   61.5410 N   0  0  0  0  0  0  0  0  0  0  0  0
  130.1280  125.7040   66.0410 S   0  0  0  0  0  0  0  0  0  0  0  0
  129.4500  127.0540   66.9210 C   0  0  0  0  0  0  0  0  0  0  0  0
  129.7040  127.2510   68.2140 N   0  0  0  0  0  0  0  0  0  0  0  0
  129.9820  127.4950   71.0140 C   0  0  0  0  0  0  0  0  0  0  0  0
  130.2650  127.6720   72.3660 C   0  0  0  0  0  0  0  0  0  0  0  0
  129.5045  129.8915   76.1129 H   0  0  0  0  0  0  0  0  0  0  0  0
  129.5747  131.0757   74.7640 H   0  0  0  0  0  0  0  0  0  0  0  0
  128.3228  129.7875   74.7640 H   0  0  0  0  0  0  0  0  0  0  0  0
  129.2414  130.9047   72.7117 H   0  0  0  0  0  0  0  0  0  0  0  0
  128.7361  130.5852   70.3062 H   0  0  0  0  0  0  0  0  0  0  0  0
  127.8579  130.0787   68.6069 H   0  0  0  0  0  0  0  0  0  0  0  0
  125.4042  128.6762   66.1624 H   0  0  0  0  0  0  0  0  0  0  0  0
  123.9165  130.2745   64.9734 H   0  0  0  0  0  0  0  0  0  0  0  0
  123.0465  131.4794   63.1550 H   0  0  0  0  0  0  0  0  0  0  0  0
  123.5564  132.9509   62.2597 H   0  0  0  0  0  0  0  0  0  0  0  0
  124.6038  131.4916   62.2597 H   0  0  0  0  0  0  0  0  0  0  0  0
  127.2263  133.0187   64.5226 H   0  0  0  0  0  0  0  0  0  0  0  0
  128.7112  131.4192   65.7158 H   0  0  0  0  0  0  0  0  0  0  0  0
  128.1520  128.8710   63.3630 H   0  0  0  0  0  0  0  0  0  0  0  0
  126.9870  127.6040   63.4150 H   0  0  0  0  0  0  0  0  0  0  0  0
  127.6930  124.5850   63.6390 H   0  0  0  0  0  0  0  0  0  0  0  0
  130.4549  123.9494   61.0810 H   0  0  0  0  0  0  0  0  0  0  0  0
  129.5030  122.2496   59.2361 H   0  0  0  0  0  0  0  0  0  0  0  0
  130.1965  126.5271   70.5375 H   0  0  0  0  0  0  0  0  0  0  0  0
  130.6983  126.8450   72.9477 H   0  0  0  0  0  0  0  0  0  0  0  0
  1  2  1  0
  2  3  1  0
  3  4  2  0
  4  5  1  0
  5  6  2  0
  6  7  1  0
  7  8  2  0
  8  9  1  0
  9 10  1  0
 10 11  2  0
 11 12  1  0
 12 13  2  0
 13 14  1  0
 14 15  1  0
 13 16  1  0
 16 17  2  0
  9 18  2  0
 18 19  1  0
 19 20  1  0
 19 21  2  0
 21 22  1  0
 22 23  2  0
 22 24  1  0
 24 25  1  0
 25 26  1  0
 26 27  2  0
 27 28  1  0
 28 29  1  0
 21 30  1  0
 30 31  1  0
 31 32  2  0
  6 33  1  0
 33 34  2  0
 34  3  1  0
 32  7  1  0
 17 10  1  0
 31 18  1  0
 29 25  2  0
  1 35  1  0
  1 36  1  0
  1 37  1  0
  4 38  1  0
  5 39  1  0
  8 40  1  0
 11 41  1  0
 12 42  1  0
 15 43  1  0
 15 44  1  0
 15 45  1  0
 16 46  1  0
 17 47  1  0
 20 48  1  0
 20 49  1  0
 24 50  1  0
 26 51  1  0
 27 52  1  0
 33 53  1  0
 34 54  1  0
M  END
>  <Binding energies>  (1) 
[-8.46]

>  <Ligand effiencies>  (1) 
[-0.22864864864864867]

>  <Interactions>  (1) 
["V-B:TYR:539:CE2:9847, V-B:TYR:539:CD2:9845, V-B:ALA:541:CB:9863, H-B:GLU:543:OE2:9881, H-B:ALA:541:N:9862, V-A:GLU:543:CD:4908, V-A:GLU:543:CG:4907, V-A:GLU:543:CB:4906, V-B:HIS:456:CE1:9041, V-A:HIS:456:CE1:4069, V-B:GLU:543:CG:9878, V-B:GLU:543:CD:9879, V-B:LEU:475:CD1:9229, H-B:GLU:543:OE1:9880, V-B:GLY:454:CA:9020, H-B:GLY:454:N:9021, V-B:ILE:369:CD1:8210, H-A:LYS:547:NZ:4951, V-A:LYS:547:CE:4950, V-A:GLU:543:C:4902"]

$$$$
8c_Ghoteimi_2023
     RDKit          3D

 54 58  0  0  0  0  0  0  0  0999 V2000
  129.1920  128.8270   75.3450 C   0  0  0  0  0  0  0  0  0  0  0  0
  130.2480  128.4860   74.4540 O   0  0  0  0  0  0  0  0  0  0  0  0
  129.9950  128.4390   73.0960 C   0  0  0  0  0  0  0  0  0  0  0  0
  129.7990  127.1760   72.5420 C   0  0  0  0  0  0  0  0  0  0  0  0
  129.5410  127.0330   71.1820 C   0  0  0  0  0  0  0  0  0  0  0  0
  129.4730  128.1520   70.3390 C   0  0  0  0  0  0  0  0  0  0  0  0
  129.2010  128.0040   68.8760 C   0  0  0  0  0  0  0  0  0  0  0  0
  128.3660  128.8900   68.1880 C   0  0  0  0  0  0  0  0  0  0  0  0
  128.1300  128.7320   66.8190 C   0  0  0  0  0  0  0  0  0  0  0  0
  127.2340  129.6820   66.1220 C   0  0  0  0  0  0  0  0  0  0  0  0
  125.8480  129.5110   66.1750 C   0  0  0  0  0  0  0  0  0  0  0  0
  125.0070  130.4110   65.5280 C   0  0  0  0  0  0  0  0  0  0  0  0
  125.5340  131.4910   64.8180 C   0  0  0  0  0  0  0  0  0  0  0  0
  124.6240  132.3340   64.2100 O   0  0  0  0  0  0  0  0  0  0  0  0
  123.9950  131.9220   63.0020 C   0  0  0  0  0  0  0  0  0  0  0  0
  126.9270  131.6590   64.7620 C   0  0  0  0  0  0  0  0  0  0  0  0
  127.7680  130.7580   65.4110 C   0  0  0  0  0  0  0  0  0  0  0  0
  128.7660  127.6510   66.1520 C   0  0  0  0  0  0  0  0  0  0  0  0
  128.7500  127.2030   64.7850 C   0  0  0  0  0  0  0  0  0  0  0  0
  128.0250  127.8410   63.8100 N   0  0  0  0  0  0  0  0  0  0  0  0
  129.5390  126.0650   64.5490 C   0  0  0  0  0  0  0  0  0  0  0  0
  129.7550  125.3500   63.2890 C   0  0  0  0  0  0  0  0  0  0  0  0
  130.8450  125.4000   62.7160 O   0  0  0  0  0  0  0  0  0  0  0  0
  128.6870  124.6560   62.8250 N   0  0  0  0  0  0  0  0  0  0  0  0
  128.6270  123.8960   61.6650 C   0  0  0  0  0  0  0  0  0  0  0  0
  128.0040  122.7530   61.4790 N   0  0  0  0  0  0  0  0  0  0  0  0
  128.1560  122.3120   60.2460 C   0  0  0  0  0  0  0  0  0  0  0  0
  128.9200  123.1080   59.3980 C   0  0  0  0  0  0  0  0  0  0  0  0
  129.4650  124.5060   60.2750 S   0  0  0  0  0  0  0  0  0  0  0  0
  130.3290  125.5210   66.0290 S   0  0  0  0  0  0  0  0  0  0  0  0
  129.5990  126.8150   66.9510 C   0  0  0  0  0  0  0  0  0  0  0  0
  129.8230  126.9640   68.2570 N   0  0  0  0  0  0  0  0  0  0  0  0
  129.6700  129.4190   70.9050 C   0  0  0  0  0  0  0  0  0  0  0  0
  129.9280  129.5660   72.2640 C   0  0  0  0  0  0  0  0  0  0  0  0
  129.5378  128.7153   76.3832 H   0  0  0  0  0  0  0  0  0  0  0  0
  128.8870  129.8693   75.1702 H   0  0  0  0  0  0  0  0  0  0  0  0
  128.3350  128.1599   75.1702 H   0  0  0  0  0  0  0  0  0  0  0  0
  129.8486  126.2846   73.1846 H   0  0  0  0  0  0  0  0  0  0  0  0
  129.3882  126.0279   70.7620 H   0  0  0  0  0  0  0  0  0  0  0  0
  127.8896  129.7204   68.7298 H   0  0  0  0  0  0  0  0  0  0  0  0
  125.4208  128.6626   66.7297 H   0  0  0  0  0  0  0  0  0  0  0  0
  123.9171  130.2702   65.5765 H   0  0  0  0  0  0  0  0  0  0  0  0
  123.0964  131.3334   63.2388 H   0  0  0  0  0  0  0  0  0  0  0  0
  123.7091  132.8084   62.4167 H   0  0  0  0  0  0  0  0  0  0  0  0
  124.6933  131.3057   62.4167 H   0  0  0  0  0  0  0  0  0  0  0  0
  127.3554  132.5046   64.2040 H   0  0  0  0  0  0  0  0  0  0  0  0
  128.8584  130.8951   65.3630 H   0  0  0  0  0  0  0  0  0  0  0  0
  127.0560  127.6090   63.6360 H   0  0  0  0  0  0  0  0  0  0  0  0
  128.4310  128.5630   63.2320 H   0  0  0  0  0  0  0  0  0  0  0  0
  127.8420  124.6830   63.3760 H   0  0  0  0  0  0  0  0  0  0  0  0
  127.7044  121.3681   59.9067 H   0  0  0  0  0  0  0  0  0  0  0  0
  129.1429  122.8881   58.3435 H   0  0  0  0  0  0  0  0  0  0  0  0
  129.6198  130.3116   70.2642 H   0  0  0  0  0  0  0  0  0  0  0  0
  130.0800  130.5697   72.6876 H   0  0  0  0  0  0  0  0  0  0  0  0
  1  2  1  0
  2  3  1  0
  3  4  2  0
  4  5  1  0
  5  6  2  0
  6  7  1  0
  7  8  2  0
  8  9  1  0
  9 10  1  0
 10 11  2  0
 11 12  1  0
 12 13  2  0
 13 14  1  0
 14 15  1  0
 13 16  1  0
 16 17  2  0
  9 18  2  0
 18 19  1  0
 19 20  1  0
 19 21  2  0
 21 22  1  0
 22 23  2  0
 22 24  1  0
 24 25  1  0
 25 26  2  0
 26 27  1  0
 27 28  2  0
 28 29  1  0
 21 30  1  0
 30 31  1  0
 31 32  2  0
  6 33  1  0
 33 34  2  0
 34  3  1  0
 32  7  1  0
 17 10  1  0
 31 18  1  0
 29 25  1  0
  1 35  1  0
  1 36  1  0
  1 37  1  0
  4 38  1  0
  5 39  1  0
  8 40  1  0
 11 41  1  0
 12 42  1  0
 15 43  1  0
 15 44  1  0
 15 45  1  0
 16 46  1  0
 17 47  1  0
 20 48  1  0
 20 49  1  0
 24 50  1  0
 27 51  1  0
 28 52  1  0
 33 53  1  0
 34 54  1  0
M  END
>  <Binding energies>  (1) 
[-8.32]

>  <Ligand effiencies>  (1) 
[-0.22486486486486487]

>  <Interactions>  (1) 
["V-B:TYR:539:CE2:9847, V-B:PRO:540:CA:9854, V-B:TYR:539:CD2:9845, V-B:TYR:539:C:9838, H-B:GLU:543:OE2:9881, H-B:ALA:541:N:9862, V-B:TYR:539:CZ:9848, V-A:GLU:543:CD:4908, V-A:GLU:543:CG:4907, V-A:GLU:543:CB:4906, V-B:HIS:456:CE1:9041, V-A:HIS:456:CE1:4069, V-B:GLU:543:CG:9878, V-B:GLU:543:CD:9879, V-B:PRO:540:C:9852, H-A:GLU:543:OE1:4909, V-B:LEU:475:CD1:9229, H-B:GLU:543:OE1:9880, V-B:GLY:454:CA:9020, H-B:GLY:454:N:9021, V-B:ILE:369:CD1:8210, H-A:LYS:547:NZ:4951, V-A:LYS:547:CE:4950, V-A:GLU:543:C:4902"]

$$$$
8d_Ghoteimi_2023
     RDKit          3D

 50 53  0  0  0  0  0  0  0  0999 V2000
  124.5430  129.5040   67.0500 C   0  0  0  0  0  0  0  0  0  0  0  0
  124.9620  130.2060   65.8880 O   0  0  0  0  0  0  0  0  0  0  0  0
  126.2450  130.6320   65.7570 C   0  0  0  0  0  0  0  0  0  0  0  0
  126.5640  131.8030   65.5380 O   0  0  0  0  0  0  0  0  0  0  0  0
  127.2320  129.5410   65.9050 C   0  0  0  0  0  0  0  0  0  0  0  0
  127.6310  128.5210   64.5210 S   0  0  0  0  0  0  0  0  0  0  0  0
  128.7560  127.5900   65.4820 C   0  0  0  0  0  0  0  0  0  0  0  0
  129.4480  126.5730   64.9660 N   0  0  0  0  0  0  0  0  0  0  0  0
  130.2980  125.9170   65.8010 C   0  0  0  0  0  0  0  0  0  0  0  0
  131.0590  124.7790   65.1980 C   0  0  0  0  0  0  0  0  0  0  0  0
  132.3740  124.9470   64.7410 C   0  0  0  0  0  0  0  0  0  0  0  0
  133.0770  123.8850   64.1800 C   0  0  0  0  0  0  0  0  0  0  0  0
  132.4860  122.6270   64.0620 C   0  0  0  0  0  0  0  0  0  0  0  0
  133.2580  121.6320   63.4950 O   0  0  0  0  0  0  0  0  0  0  0  0
  133.4450  121.6180   62.0830 C   0  0  0  0  0  0  0  0  0  0  0  0
  131.1730  122.4470   64.5180 C   0  0  0  0  0  0  0  0  0  0  0  0
  130.4730  123.5120   65.0790 C   0  0  0  0  0  0  0  0  0  0  0  0
  130.4480  126.2720   67.1440 C   0  0  0  0  0  0  0  0  0  0  0  0
  129.7240  127.3400   67.6840 C   0  0  0  0  0  0  0  0  0  0  0  0
  129.9100  127.6980   69.1100 C   0  0  0  0  0  0  0  0  0  0  0  0
  128.9360  127.3600   70.0510 C   0  0  0  0  0  0  0  0  0  0  0  0
  129.1070  127.7040   71.3900 C   0  0  0  0  0  0  0  0  0  0  0  0
  130.2520  128.3840   71.8060 C   0  0  0  0  0  0  0  0  0  0  0  0
  130.3360  128.6840   73.1510 O   0  0  0  0  0  0  0  0  0  0  0  0
  129.4590  129.6620   73.7010 C   0  0  0  0  0  0  0  0  0  0  0  0
  131.2330  128.7180   70.8570 C   0  0  0  0  0  0  0  0  0  0  0  0
  131.0600  128.3740   69.5190 C   0  0  0  0  0  0  0  0  0  0  0  0
  128.8330  128.0420   66.8300 C   0  0  0  0  0  0  0  0  0  0  0  0
  127.9510  129.1560   67.0430 C   0  0  0  0  0  0  0  0  0  0  0  0
  127.8280  129.7790   68.2590 N   0  0  0  0  0  0  0  0  0  0  0  0
  124.8696  130.0512   67.9466 H   0  0  0  0  0  0  0  0  0  0  0  0
  123.4463  129.4190   67.0515 H   0  0  0  0  0  0  0  0  0  0  0  0
  124.9887  128.4984   67.0515 H   0  0  0  0  0  0  0  0  0  0  0  0
  132.8565  125.9318   64.8271 H   0  0  0  0  0  0  0  0  0  0  0  0
  134.1073  124.0389   63.8267 H   0  0  0  0  0  0  0  0  0  0  0  0
  134.5183  121.5376   61.8561 H   0  0  0  0  0  0  0  0  0  0  0  0
  132.9135  120.7571   61.6513 H   0  0  0  0  0  0  0  0  0  0  0  0
  133.0476  122.5484   61.6513 H   0  0  0  0  0  0  0  0  0  0  0  0
  130.6936  121.4607   64.4324 H   0  0  0  0  0  0  0  0  0  0  0  0
  129.4437  123.3561   65.4343 H   0  0  0  0  0  0  0  0  0  0  0  0
  131.1421  125.7062   67.7828 H   0  0  0  0  0  0  0  0  0  0  0  0
  128.0311  126.8206   69.7344 H   0  0  0  0  0  0  0  0  0  0  0  0
  128.3333  127.4374   72.1250 H   0  0  0  0  0  0  0  0  0  0  0  0
  129.5006  129.6156   74.7992 H   0  0  0  0  0  0  0  0  0  0  0  0
  129.7682  130.6625   73.3643 H   0  0  0  0  0  0  0  0  0  0  0  0
  128.4308  129.4633   73.3643 H   0  0  0  0  0  0  0  0  0  0  0  0
  132.1409  129.2531   71.1723 H   0  0  0  0  0  0  0  0  0  0  0  0
  131.8329  128.6362   68.7815 H   0  0  0  0  0  0  0  0  0  0  0  0
  128.4070  129.5210   69.0450 H   0  0  0  0  0  0  0  0  0  0  0  0
  127.1580  130.5200   68.4100 H   0  0  0  0  0  0  0  0  0  0  0  0
  1  2  1  0
  2  3  1  0
  3  4  2  0
  3  5  1  0
  5  6  1  0
  6  7  1  0
  7  8  2  0
  8  9  1  0
  9 10  1  0
 10 11  2  0
 11 12  1  0
 12 13  2  0
 13 14  1  0
 14 15  1  0
 13 16  1  0
 16 17  2  0
  9 18  2  0
 18 19  1  0
 19 20  1  0
 20 21  2  0
 21 22  1  0
 22 23  2  0
 23 24  1  0
 24 25  1  0
 23 26  1  0
 26 27  2  0
 19 28  2  0
 28 29  1  0
 29 30  1  0
 29  5  2  0
 28  7  1  0
 17 10  1  0
 27 20  1  0
  1 31  1  0
  1 32  1  0
  1 33  1  0
 11 34  1  0
 12 35  1  0
 15 36  1  0
 15 37  1  0
 15 38  1  0
 16 39  1  0
 17 40  1  0
 18 41  1  0
 21 42  1  0
 22 43  1  0
 25 44  1  0
 25 45  1  0
 25 46  1  0
 26 47  1  0
 27 48  1  0
 30 49  1  0
 30 50  1  0
M  END
>  <Binding energies>  (1) 
[-7.03]

>  <Ligand effiencies>  (1) 
[-0.2196875]

>  <Interactions>  (1) 
["V-A:LEU:475:CD2:4258, H-A:GLY:454:N:4049, V-A:ILE:369:CD1:3238, V-A:ILE:369:CG2:3236, V-A:GLU:543:CD:4908, V-A:GLU:543:CG:4907, V-A:GLU:543:CB:4906, V-B:HIS:456:CE1:9041, V-A:TYR:484:CZ:4346, V-A:HIS:456:CE1:4069, V-B:HIS:456:CD2:9039, V-B:TYR:484:CE1:9316, V-B:GLU:543:CD:9879, V-A:TYR:484:CE1:4344, V-A:ARG:545:CG:4922, V-A:GLY:454:CA:4048, V-B:ARG:545:CG:9893, V-B:ARG:545:CD:9894, H-B:TYR:484:OH:9319, H-B:GLY:454:N:9021, V-B:TYR:484:CZ:9318, H-A:LYS:547:NZ:4951, V-A:LYS:547:CE:4950, V-A:GLU:543:C:4902, V-A:GLY:544:C:4912"]

$$$$
9a_Ghoteimi_2023
     RDKit          3D

 85 91  0  0  0  0  0  0  0  0999 V2000
  137.5800  118.9420   58.9540 C   0  0  0  0  0  0  0  0  0  0  0  0
  136.9760  118.4710   57.6270 C   0  0  0  0  0  0  0  0  0  0  0  0
  135.5570  118.5510   57.6970 O   0  0  0  0  0  0  0  0  0  0  0  0
  134.8730  117.9810   58.7210 C   0  0  0  0  0  0  0  0  0  0  0  0
  134.7710  116.7590   58.8740 O   0  0  0  0  0  0  0  0  0  0  0  0
  134.2460  118.9820   59.6480 C   0  0  0  0  0  0  0  0  0  0  0  0
  132.9230  119.3850   59.4260 C   0  0  0  0  0  0  0  0  0  0  0  0
  132.3140  120.3130   60.2660 C   0  0  0  0  0  0  0  0  0  0  0  0
  133.0110  120.8550   61.3450 C   0  0  0  0  0  0  0  0  0  0  0  0
  132.2960  121.7840   62.1260 N   0  0  0  0  0  0  0  0  0  0  0  0
  131.0280  121.7360   62.6050 C   0  0  0  0  0  0  0  0  0  0  0  0
  130.2510  120.8000   62.4160 O   0  0  0  0  0  0  0  0  0  0  0  0
  130.6150  122.8980   63.3980 C   0  0  0  0  0  0  0  0  0  0  0  0
  130.7570  122.8740   65.1560 S   0  0  0  0  0  0  0  0  0  0  0  0
  130.1210  124.4980   65.2750 C   0  0  0  0  0  0  0  0  0  0  0  0
  129.9890  125.1110   66.4510 N   0  0  0  0  0  0  0  0  0  0  0  0
  129.4950  126.3780   66.4330 C   0  0  0  0  0  0  0  0  0  0  0  0
  129.3670  127.0510   67.7610 C   0  0  0  0  0  0  0  0  0  0  0  0
  128.5300  128.1620   67.9180 C   0  0  0  0  0  0  0  0  0  0  0  0
  128.4030  128.7940   69.1520 C   0  0  0  0  0  0  0  0  0  0  0  0
  129.0980  128.3300   70.2800 C   0  0  0  0  0  0  0  0  0  0  0  0
  128.9960  128.9660   71.5210 N   0  0  0  0  0  0  0  0  0  0  0  0
  128.6530  128.2170   72.7470 C   0  0  0  0  0  0  0  0  0  0  0  0
  128.2330  129.1150   73.9290 C   0  0  0  0  0  0  0  0  0  0  0  0
  129.2370  130.0810   74.1870 O   0  0  0  0  0  0  0  0  0  0  0  0
  129.4570  130.9170   73.0620 C   0  0  0  0  0  0  0  0  0  0  0  0
  129.9190  130.0700   71.8590 C   0  0  0  0  0  0  0  0  0  0  0  0
  129.9460  127.2250   70.1140 C   0  0  0  0  0  0  0  0  0  0  0  0
  130.0750  126.5960   68.8800 C   0  0  0  0  0  0  0  0  0  0  0  0
  129.1110  127.0120   65.2500 C   0  0  0  0  0  0  0  0  0  0  0  0
  129.2290  126.3630   64.0150 C   0  0  0  0  0  0  0  0  0  0  0  0
  128.7720  127.0700   62.7910 C   0  0  0  0  0  0  0  0  0  0  0  0
  129.1840  128.3790   62.5290 C   0  0  0  0  0  0  0  0  0  0  0  0
  128.7660  129.0340   61.3750 C   0  0  0  0  0  0  0  0  0  0  0  0
  127.9380  128.3910   60.4420 C   0  0  0  0  0  0  0  0  0  0  0  0
  127.4960  129.0330   59.2820 N   0  0  0  0  0  0  0  0  0  0  0  0
  126.0550  129.3130   59.1190 C   0  0  0  0  0  0  0  0  0  0  0  0
  125.7550  130.3400   58.0070 C   0  0  0  0  0  0  0  0  0  0  0  0
  126.3290  129.9120   56.7820 O   0  0  0  0  0  0  0  0  0  0  0  0
  127.7380  129.7760   56.8810 C   0  0  0  0  0  0  0  0  0  0  0  0
  128.0910  128.7330   57.9640 C   0  0  0  0  0  0  0  0  0  0  0  0
  127.5320  127.0760   60.7130 C   0  0  0  0  0  0  0  0  0  0  0  0
  127.9470  126.4230   61.8700 C   0  0  0  0  0  0  0  0  0  0  0  0
  129.7780  125.0490   64.0060 C   0  0  0  0  0  0  0  0  0  0  0  0
  130.0940  124.1220   62.9480 C   0  0  0  0  0  0  0  0  0  0  0  0
  129.9110  124.4240   61.6230 N   0  0  0  0  0  0  0  0  0  0  0  0
  134.3370  120.4540   61.5780 C   0  0  0  0  0  0  0  0  0  0  0  0
  134.9450  119.5270   60.7360 C   0  0  0  0  0  0  0  0  0  0  0  0
  137.0162  118.5024   59.7900 H   0  0  0  0  0  0  0  0  0  0  0  0
  138.6310  118.6226   59.0123 H   0  0  0  0  0  0  0  0  0  0  0  0
  137.5264  120.0391   59.0123 H   0  0  0  0  0  0  0  0  0  0  0  0
  137.3396  119.1122   56.8105 H   0  0  0  0  0  0  0  0  0  0  0  0
  137.2757  117.4299   57.4367 H   0  0  0  0  0  0  0  0  0  0  0  0
  132.3600  118.9642   58.5799 H   0  0  0  0  0  0  0  0  0  0  0  0
  131.2750  120.6210   60.0771 H   0  0  0  0  0  0  0  0  0  0  0  0
  132.8230  122.6110   62.3640 H   0  0  0  0  0  0  0  0  0  0  0  0
  127.9645  128.5411   67.0540 H   0  0  0  0  0  0  0  0  0  0  0  0
  127.7468  129.6720   69.2447 H   0  0  0  0  0  0  0  0  0  0  0  0
  127.8204  127.5362   72.5159 H   0  0  0  0  0  0  0  0  0  0  0  0
  129.5613  127.6809   73.0593 H   0  0  0  0  0  0  0  0  0  0  0  0
  127.2912  129.6264   73.6808 H   0  0  0  0  0  0  0  0  0  0  0  0
  128.0952  128.4909   74.8242 H   0  0  0  0  0  0  0  0  0  0  0  0
  128.5216  131.4356   72.8048 H   0  0  0  0  0  0  0  0  0  0  0  0
  130.2365  131.6537   73.3060 H   0  0  0  0  0  0  0  0  0  0  0  0
  130.0072  130.7296   70.9831 H   0  0  0  0  0  0  0  0  0  0  0  0
  130.8797  129.6123   72.1377 H   0  0  0  0  0  0  0  0  0  0  0  0
  130.5189  126.8493   70.9746 H   0  0  0  0  0  0  0  0  0  0  0  0
  130.7434  125.7279   68.7818 H   0  0  0  0  0  0  0  0  0  0  0  0
  128.7102  128.0356   65.2887 H   0  0  0  0  0  0  0  0  0  0  0  0
  129.8442  128.8959   63.2409 H   0  0  0  0  0  0  0  0  0  0  0  0
  129.0887  130.0695   61.1914 H   0  0  0  0  0  0  0  0  0  0  0  0
  125.5421  128.3716   58.8726 H   0  0  0  0  0  0  0  0  0  0  0  0
  125.6976  129.7441   60.0658 H   0  0  0  0  0  0  0  0  0  0  0  0
  124.6661  130.4366   57.8847 H   0  0  0  0  0  0  0  0  0  0  0  0
  126.1871  131.3119   58.2876 H   0  0  0  0  0  0  0  0  0  0  0  0
  128.1415  129.4466   55.9122 H   0  0  0  0  0  0  0  0  0  0  0  0
  128.1769  130.7464   57.1562 H   0  0  0  0  0  0  0  0  0  0  0  0
  127.7270  127.7492   57.6327 H   0  0  0  0  0  0  0  0  0  0  0  0
  129.1837  128.7510   58.0889 H   0  0  0  0  0  0  0  0  0  0  0  0
  126.8763  126.5534   60.0010 H   0  0  0  0  0  0  0  0  0  0  0  0
  127.6223  125.3893   62.0598 H   0  0  0  0  0  0  0  0  0  0  0  0
  129.3700  123.8290   61.0110 H   0  0  0  0  0  0  0  0  0  0  0  0
  130.3130  125.2560   61.2130 H   0  0  0  0  0  0  0  0  0  0  0  0
  134.8960  120.8733   62.4275 H   0  0  0  0  0  0  0  0  0  0  0  0
  135.9838  119.2186   60.9254 H   0  0  0  0  0  0  0  0  0  0  0  0
  1  2  1  0
  2  3  1  0
  3  4  1  0
  4  5  2  0
  4  6  1  0
  6  7  2  0
  7  8  1  0
  8  9  2  0
  9 10  1  0
 10 11  1  0
 11 12  2  0
 11 13  1  0
 13 14  1  0
 14 15  1  0
 15 16  2  0
 16 17  1  0
 17 18  1  0
 18 19  2  0
 19 20  1  0
 20 21  2  0
 21 22  1  0
 22 23  1  0
 23 24  1  0
 24 25  1  0
 25 26  1  0
 26 27  1  0
 21 28  1  0
 28 29  2  0
 17 30  2  0
 30 31  1  0
 31 32  1  0
 32 33  2  0
 33 34  1  0
 34 35  2  0
 35 36  1  0
 36 37  1  0
 37 38  1  0
 38 39  1  0
 39 40  1  0
 40 41  1  0
 35 42  1  0
 42 43  2  0
 31 44  2  0
 44 45  1  0
 45 46  1  0
  9 47  1  0
 47 48  2  0
 48  6  1  0
 45 13  2  0
 44 15  1  0
 29 18  1  0
 43 32  1  0
 27 22  1  0
 41 36  1  0
  1 49  1  0
  1 50  1  0
  1 51  1  0
  2 52  1  0
  2 53  1  0
  7 54  1  0
  8 55  1  0
 10 56  1  0
 19 57  1  0
 20 58  1  0
 23 59  1  0
 23 60  1  0
 24 61  1  0
 24 62  1  0
 26 63  1  0
 26 64  1  0
 27 65  1  0
 27 66  1  0
 28 67  1  0
 29 68  1  0
 30 69  1  0
 33 70  1  0
 34 71  1  0
 37 72  1  0
 37 73  1  0
 38 74  1  0
 38 75  1  0
 40 76  1  0
 40 77  1  0
 41 78  1  0
 41 79  1  0
 42 80  1  0
 43 81  1  0
 46 82  1  0
 46 83  1  0
 47 84  1  0
 48 85  1  0
M  END
>  <Binding energies>  (1) 
[-3.52]

>  <Ligand effiencies>  (1) 
[-0.06901960784313725]

>  <Interactions>  (1) 
["V-B:TYR:539:CE2:9847, V-B:TYR:539:CD2:9845, V-B:ALA:541:CB:9863, V-A:LEU:475:CD2:4258, H-B:TYR:531:OH:9766, V-A:ILE:369:CD1:3238, V-A:ILE:369:CG2:3236, H-A:TYR:484:OH:4347, V-A:GLU:543:CD:4908, V-A:GLU:543:CG:4907, V-A:GLU:543:CB:4906, V-B:HIS:456:CE1:9041, V-A:TYR:484:CZ:4346, V-A:HIS:456:CE1:4069, V-B:HIS:456:CG:9037, V-B:GLU:543:CG:9878, V-B:HIS:456:CD2:9039, V-B:GLU:543:CD:9879, V-A:TYR:484:CE1:4344, V-A:MET:535:CE:4835, V-B:ASP:366:CB:8183, V-B:ASP:366:CG:8184, V-A:TRP:381:CH2:3371, V-A:TRP:381:CZ2:3369, V-A:TRP:381:CZ3:3370, V-A:ILE:369:CB:3235, V-A:ILE:369:CG1:3237, V-A:GLU:543:C:4902, V-A:SER:385:C:3404, V-A:SER:385:CA:3406, V-A:ASN:372:CA:3264, V-A:ILE:369:CA:3233, V-A:SER:385:CB:3408, V-A:ASN:372:C:3262, V-A:ILE:496:CD1:4466, V-A:LEU:373:CD2:3280, V-A:ILE:369:C:3231, V-A:ASN:372:CB:3266, V-A:VAL:384:CG1:3401, H-A:ASN:382:ND2:3380"]

$$$$
9b_Ghoteimi_2023
     RDKit          3D

 72 78  0  0  0  0  0  0  0  0999 V2000
  128.8460  127.0060   61.2820 N   0  0  0  0  0  0  0  0  0  0  0  0
  128.4980  127.8680   62.2910 C   0  0  0  0  0  0  0  0  0  0  0  0
  127.9380  129.1350   62.0670 C   0  0  0  0  0  0  0  0  0  0  0  0
  127.5980  129.7710   60.7910 C   0  0  0  0  0  0  0  0  0  0  0  0
  128.1720  130.8010   60.4290 O   0  0  0  0  0  0  0  0  0  0  0  0
  126.6280  129.1530   60.0720 N   0  0  0  0  0  0  0  0  0  0  0  0
  126.1060  129.5410   58.8450 C   0  0  0  0  0  0  0  0  0  0  0  0
  125.0220  130.4090   58.7190 C   0  0  0  0  0  0  0  0  0  0  0  0
  124.8230  130.5390   57.3640 C   0  0  0  0  0  0  0  0  0  0  0  0
  125.7400  129.7870   56.7080 O   0  0  0  0  0  0  0  0  0  0  0  0
  126.5470  129.1600   57.6570 N   0  0  0  0  0  0  0  0  0  0  0  0
  127.6460  129.9820   63.5860 S   0  0  0  0  0  0  0  0  0  0  0  0
  128.2910  128.6440   64.5070 C   0  0  0  0  0  0  0  0  0  0  0  0
  128.3760  128.6880   65.8360 N   0  0  0  0  0  0  0  0  0  0  0  0
  128.9090  127.6030   66.4560 C   0  0  0  0  0  0  0  0  0  0  0  0
  129.0120  127.6870   67.9440 C   0  0  0  0  0  0  0  0  0  0  0  0
  129.0150  126.5320   68.7360 C   0  0  0  0  0  0  0  0  0  0  0  0
  129.0970  126.6160   70.1220 C   0  0  0  0  0  0  0  0  0  0  0  0
  129.1640  127.8600   70.7700 C   0  0  0  0  0  0  0  0  0  0  0  0
  129.2490  127.9610   72.1630 N   0  0  0  0  0  0  0  0  0  0  0  0
  129.1700  129.2680   72.8460 C   0  0  0  0  0  0  0  0  0  0  0  0
  128.9340  129.1630   74.3670 C   0  0  0  0  0  0  0  0  0  0  0  0
  129.9280  128.3420   74.9570 O   0  0  0  0  0  0  0  0  0  0  0  0
  129.9000  127.0280   74.4250 C   0  0  0  0  0  0  0  0  0  0  0  0
  130.1610  127.0640   72.9040 C   0  0  0  0  0  0  0  0  0  0  0  0
  129.1800  129.0120   69.9710 C   0  0  0  0  0  0  0  0  0  0  0  0
  129.1030  128.9270   68.5840 C   0  0  0  0  0  0  0  0  0  0  0  0
  129.3290  126.4720   65.7520 C   0  0  0  0  0  0  0  0  0  0  0  0
  129.2220  126.4130   64.3570 C   0  0  0  0  0  0  0  0  0  0  0  0
  129.6540  125.1760   63.6580 C   0  0  0  0  0  0  0  0  0  0  0  0
  130.9890  124.7730   63.6990 C   0  0  0  0  0  0  0  0  0  0  0  0
  131.3940  123.6050   63.0620 C   0  0  0  0  0  0  0  0  0  0  0  0
  130.4740  122.8070   62.3640 C   0  0  0  0  0  0  0  0  0  0  0  0
  130.8550  121.6220   61.7290 N   0  0  0  0  0  0  0  0  0  0  0  0
  129.8200  120.7580   61.1280 C   0  0  0  0  0  0  0  0  0  0  0  0
  130.3190  119.3280   60.8290 C   0  0  0  0  0  0  0  0  0  0  0  0
  131.4720  119.3800   60.0020 O   0  0  0  0  0  0  0  0  0  0  0  0
  132.5310  120.0950   60.6200 C   0  0  0  0  0  0  0  0  0  0  0  0
  132.0870  121.5430   60.9200 C   0  0  0  0  0  0  0  0  0  0  0  0
  129.1310  123.2120   62.3450 C   0  0  0  0  0  0  0  0  0  0  0  0
  128.7260  124.3810   62.9830 C   0  0  0  0  0  0  0  0  0  0  0  0
  128.6990  127.5530   63.6840 C   0  0  0  0  0  0  0  0  0  0  0  0
  129.7150  126.4900   61.2990 H   0  0  0  0  0  0  0  0  0  0  0  0
  128.2430  126.8570   60.4850 H   0  0  0  0  0  0  0  0  0  0  0  0
  126.2340  128.3100   60.4630 H   0  0  0  0  0  0  0  0  0  0  0  0
  124.4498  130.8865   59.5280 H   0  0  0  0  0  0  0  0  0  0  0  0
  124.0446  131.1544   56.8893 H   0  0  0  0  0  0  0  0  0  0  0  0
  128.9516  125.5446   68.2553 H   0  0  0  0  0  0  0  0  0  0  0  0
  129.1096  125.6930   70.7202 H   0  0  0  0  0  0  0  0  0  0  0  0
  130.1154  129.8047   72.6781 H   0  0  0  0  0  0  0  0  0  0  0  0
  128.3038  129.7982   72.4235 H   0  0  0  0  0  0  0  0  0  0  0  0
  128.9797  130.1676   74.8128 H   0  0  0  0  0  0  0  0  0  0  0  0
  127.9444  128.7185   74.5487 H   0  0  0  0  0  0  0  0  0  0  0  0
  130.6773  126.4216   74.9130 H   0  0  0  0  0  0  0  0  0  0  0  0
  128.9093  126.5868   74.6092 H   0  0  0  0  0  0  0  0  0  0  0  0
  131.1936  127.4046   72.7373 H   0  0  0  0  0  0  0  0  0  0  0  0
  129.9870  126.0461   72.5250 H   0  0  0  0  0  0  0  0  0  0  0  0
  129.2547  130.0001   70.4486 H   0  0  0  0  0  0  0  0  0  0  0  0
  129.1139  129.8481   67.9828 H   0  0  0  0  0  0  0  0  0  0  0  0
  129.7494  125.6163   66.3007 H   0  0  0  0  0  0  0  0  0  0  0  0
  131.7271  125.3839   64.2394 H   0  0  0  0  0  0  0  0  0  0  0  0
  132.4506  123.3021   63.1058 H   0  0  0  0  0  0  0  0  0  0  0  0
  128.9711  120.6934   61.8245 H   0  0  0  0  0  0  0  0  0  0  0  0
  129.5334  121.2114   60.1676 H   0  0  0  0  0  0  0  0  0  0  0  0
  130.5708  118.8248   61.7742 H   0  0  0  0  0  0  0  0  0  0  0  0
  129.5263  118.7698   60.3094 H   0  0  0  0  0  0  0  0  0  0  0  0
  132.8067  119.5963   61.5609 H   0  0  0  0  0  0  0  0  0  0  0  0
  133.3963  120.1163   59.9412 H   0  0  0  0  0  0  0  0  0  0  0  0
  132.8961  122.0498   61.4663 H   0  0  0  0  0  0  0  0  0  0  0  0
  131.8730  122.0240   59.9542 H   0  0  0  0  0  0  0  0  0  0  0  0
  128.3869  122.5966   61.8181 H   0  0  0  0  0  0  0  0  0  0  0  0
  127.6679  124.6803   62.9551 H   0  0  0  0  0  0  0  0  0  0  0  0
  1  2  1  0
  2  3  2  0
  3  4  1  0
  4  5  2  0
  4  6  1  0
  6  7  1  0
  7  8  1  0
  8  9  2  0
  9 10  1  0
 10 11  1  0
  3 12  1  0
 12 13  1  0
 13 14  2  0
 14 15  1  0
 15 16  1  0
 16 17  2  0
 17 18  1  0
 18 19  2  0
 19 20  1  0
 20 21  1  0
 21 22  1  0
 22 23  1  0
 23 24  1  0
 24 25  1  0
 19 26  1  0
 26 27  2  0
 15 28  2  0
 28 29  1  0
 29 30  1  0
 30 31  2  0
 31 32  1  0
 32 33  2  0
 33 34  1  0
 34 35  1  0
 35 36  1  0
 36 37  1  0
 37 38  1  0
 38 39  1  0
 33 40  1  0
 40 41  2  0
 29 42  2  0
 42  2  1  0
 11  7  2  0
 42 13  1  0
 27 16  1  0
 41 30  1  0
 25 20  1  0
 39 34  1  0
  1 43  1  0
  1 44  1  0
  6 45  1  0
  8 46  1  0
  9 47  1  0
 17 48  1  0
 18 49  1  0
 21 50  1  0
 21 51  1  0
 22 52  1  0
 22 53  1  0
 24 54  1  0
 24 55  1  0
 25 56  1  0
 25 57  1  0
 26 58  1  0
 27 59  1  0
 28 60  1  0
 31 61  1  0
 32 62  1  0
 35 63  1  0
 35 64  1  0
 36 65  1  0
 36 66  1  0
 38 67  1  0
 38 68  1  0
 39 69  1  0
 39 70  1  0
 40 71  1  0
 41 72  1  0
M  END
>  <Binding energies>  (1) 
[-8.23]

>  <Ligand effiencies>  (1) 
[-0.1828888888888889]

>  <Interactions>  (1) 
["V-A:PRO:482:CG:4326, H-B:ASP:366:OD2:8186, V-B:TYR:539:CE2:9847, V-B:TYR:539:CD2:9845, V-B:ALA:541:CB:9863, V-A:LEU:475:CD2:4258, H-B:TYR:531:OH:9766, V-A:PRO:482:CB:4325, V-A:ILE:369:CG2:3236, V-B:TYR:531:CZ:9765, V-A:GLU:543:CD:4908, V-A:GLU:543:CG:4907, V-A:GLU:543:CB:4906, V-B:HIS:456:CE1:9041, V-B:GLU:543:CB:9877, V-A:HIS:456:CE1:4069, V-B:GLU:543:CG:9878, V-B:HIS:456:CD2:9039, V-B:GLU:543:CD:9879, V-B:ASP:366:CB:8183, V-B:ASP:366:CG:8184, V-A:TRP:381:CH2:3371, V-A:TRP:381:CZ2:3369, H-A:LYS:547:NZ:4951, V-B:TYR:531:CE1:9763"]

$$$$
9c_Ghoteimi_2023
     RDKit          3D

 72 78  0  0  0  0  0  0  0  0999 V2000
  128.8750  126.8860   61.7480 N   0  0  0  0  0  0  0  0  0  0  0  0
  128.5240  127.6870   62.8050 C   0  0  0  0  0  0  0  0  0  0  0  0
  127.9160  128.9440   62.6550 C   0  0  0  0  0  0  0  0  0  0  0  0
  127.5270  129.6280   61.4180 C   0  0  0  0  0  0  0  0  0  0  0  0
  128.2880  130.4330   60.8760 O   0  0  0  0  0  0  0  0  0  0  0  0
  126.2970  129.3140   60.9420 N   0  0  0  0  0  0  0  0  0  0  0  0
  125.6860  129.8270   59.8060 C   0  0  0  0  0  0  0  0  0  0  0  0
  125.9180  129.5100   58.5500 N   0  0  0  0  0  0  0  0  0  0  0  0
  125.1540  130.2020   57.7270 C   0  0  0  0  0  0  0  0  0  0  0  0
  124.2760  131.1070   58.3160 C   0  0  0  0  0  0  0  0  0  0  0  0
  124.4690  131.0400   60.0420 S   0  0  0  0  0  0  0  0  0  0  0  0
  127.6330  129.7070   64.2190 S   0  0  0  0  0  0  0  0  0  0  0  0
  128.3450  128.3510   65.0600 C   0  0  0  0  0  0  0  0  0  0  0  0
  128.4590  128.3340   66.3870 N   0  0  0  0  0  0  0  0  0  0  0  0
  129.0430  127.2400   66.9420 C   0  0  0  0  0  0  0  0  0  0  0  0
  129.1780  127.2580   68.4300 C   0  0  0  0  0  0  0  0  0  0  0  0
  128.6340  126.2370   69.2200 C   0  0  0  0  0  0  0  0  0  0  0  0
  128.7540  126.2630   70.6050 C   0  0  0  0  0  0  0  0  0  0  0  0
  129.4130  127.3190   71.2560 C   0  0  0  0  0  0  0  0  0  0  0  0
  129.5490  127.3550   72.6480 N   0  0  0  0  0  0  0  0  0  0  0  0
  129.2390  128.5770   73.4190 C   0  0  0  0  0  0  0  0  0  0  0  0
  129.1050  128.3390   74.9380 C   0  0  0  0  0  0  0  0  0  0  0  0
  130.2760  127.7090   75.4340 O   0  0  0  0  0  0  0  0  0  0  0  0
  130.4890  126.4500   74.8170 C   0  0  0  0  0  0  0  0  0  0  0  0
  130.6620  126.6280   73.2930 C   0  0  0  0  0  0  0  0  0  0  0  0
  129.9730  128.3280   70.4590 C   0  0  0  0  0  0  0  0  0  0  0  0
  129.8550  128.2990   69.0730 C   0  0  0  0  0  0  0  0  0  0  0  0
  129.4830  126.1590   66.1750 C   0  0  0  0  0  0  0  0  0  0  0  0
  129.3440  126.1620   64.7830 C   0  0  0  0  0  0  0  0  0  0  0  0
  129.7990  124.9760   64.0150 C   0  0  0  0  0  0  0  0  0  0  0  0
  131.1500  124.6270   63.9910 C   0  0  0  0  0  0  0  0  0  0  0  0
  131.5780  123.5060   63.2860 C   0  0  0  0  0  0  0  0  0  0  0  0
  130.6650  122.7040   62.5840 C   0  0  0  0  0  0  0  0  0  0  0  0
  131.0700  121.5660   61.8790 N   0  0  0  0  0  0  0  0  0  0  0  0
  130.0620  120.7800   61.1400 C   0  0  0  0  0  0  0  0  0  0  0  0
  130.5570  119.3710   60.7470 C   0  0  0  0  0  0  0  0  0  0  0  0
  131.7620  119.4700   60.0020 O   0  0  0  0  0  0  0  0  0  0  0  0
  132.7890  120.1050   60.7480 C   0  0  0  0  0  0  0  0  0  0  0  0
  132.3500  121.5310   61.1460 C   0  0  0  0  0  0  0  0  0  0  0  0
  129.3070  123.0510   62.6330 C   0  0  0  0  0  0  0  0  0  0  0  0
  128.8790  124.1730   63.3380 C   0  0  0  0  0  0  0  0  0  0  0  0
  128.7680  127.3140   64.1760 C   0  0  0  0  0  0  0  0  0  0  0  0
  128.3740  126.0340   61.5360 H   0  0  0  0  0  0  0  0  0  0  0  0
  129.6500  127.1210   61.1450 H   0  0  0  0  0  0  0  0  0  0  0  0
  125.7590  128.6340   61.4590 H   0  0  0  0  0  0  0  0  0  0  0  0
  125.2078  130.0711   56.6361 H   0  0  0  0  0  0  0  0  0  0  0  0
  123.5735  131.7592   57.7764 H   0  0  0  0  0  0  0  0  0  0  0  0
  128.1041  125.4025   68.7375 H   0  0  0  0  0  0  0  0  0  0  0  0
  128.3259  125.4433   71.2006 H   0  0  0  0  0  0  0  0  0  0  0  0
  130.0456  129.3061   73.2522 H   0  0  0  0  0  0  0  0  0  0  0  0
  128.2629  128.9399   73.0647 H   0  0  0  0  0  0  0  0  0  0  0  0
  128.9665  129.3040   75.4474 H   0  0  0  0  0  0  0  0  0  0  0  0
  128.2371  127.6902   75.1275 H   0  0  0  0  0  0  0  0  0  0  0  0
  131.3962  125.9891   75.2347 H   0  0  0  0  0  0  0  0  0  0  0  0
  129.6191  125.8042   75.0074 H   0  0  0  0  0  0  0  0  0  0  0  0
  131.5922  127.1867   73.1123 H   0  0  0  0  0  0  0  0  0  0  0  0
  130.6844  125.6201   72.8529 H   0  0  0  0  0  0  0  0  0  0  0  0
  130.5150  129.1567   70.9380 H   0  0  0  0  0  0  0  0  0  0  0  0
  130.3008  129.1069   68.4742 H   0  0  0  0  0  0  0  0  0  0  0  0
  129.9451  125.2934   66.6722 H   0  0  0  0  0  0  0  0  0  0  0  0
  131.8824  125.2428   64.5336 H   0  0  0  0  0  0  0  0  0  0  0  0
  132.6466  123.2450   63.2789 H   0  0  0  0  0  0  0  0  0  0  0  0
  129.1692  120.6727   61.7736 H   0  0  0  0  0  0  0  0  0  0  0  0
  129.8446  121.3217   60.2076 H   0  0  0  0  0  0  0  0  0  0  0  0
  130.7392  118.7817   61.6578 H   0  0  0  0  0  0  0  0  0  0  0  0
  129.7908  118.8779   60.1307 H   0  0  0  0  0  0  0  0  0  0  0  0
  132.9935  119.5201   61.6569 H   0  0  0  0  0  0  0  0  0  0  0  0
  133.6975  120.1665   60.1308 H   0  0  0  0  0  0  0  0  0  0  0  0
  133.1300  121.9706   61.7850 H   0  0  0  0  0  0  0  0  0  0  0  0
  132.2071  122.0989   60.2149 H   0  0  0  0  0  0  0  0  0  0  0  0
  128.5691  122.4276   62.1068 H   0  0  0  0  0  0  0  0  0  0  0  0
  127.8093  124.4283   63.3617 H   0  0  0  0  0  0  0  0  0  0  0  0
  1  2  1  0
  2  3  2  0
  3  4  1  0
  4  5  2  0
  4  6  1  0
  6  7  1  0
  7  8  2  0
  8  9  1  0
  9 10  2  0
 10 11  1  0
  3 12  1  0
 12 13  1  0
 13 14  2  0
 14 15  1  0
 15 16  1  0
 16 17  2  0
 17 18  1  0
 18 19  2  0
 19 20  1  0
 20 21  1  0
 21 22  1  0
 22 23  1  0
 23 24  1  0
 24 25  1  0
 19 26  1  0
 26 27  2  0
 15 28  2  0
 28 29  1  0
 29 30  1  0
 30 31  2  0
 31 32  1  0
 32 33  2  0
 33 34  1  0
 34 35  1  0
 35 36  1  0
 36 37  1  0
 37 38  1  0
 38 39  1  0
 33 40  1  0
 40 41  2  0
 29 42  2  0
 42  2  1  0
 11  7  1  0
 42 13  1  0
 27 16  1  0
 41 30  1  0
 25 20  1  0
 39 34  1  0
  1 43  1  0
  1 44  1  0
  6 45  1  0
  9 46  1  0
 10 47  1  0
 17 48  1  0
 18 49  1  0
 21 50  1  0
 21 51  1  0
 22 52  1  0
 22 53  1  0
 24 54  1  0
 24 55  1  0
 25 56  1  0
 25 57  1  0
 26 58  1  0
 27 59  1  0
 28 60  1  0
 31 61  1  0
 32 62  1  0
 35 63  1  0
 35 64  1  0
 36 65  1  0
 36 66  1  0
 38 67  1  0
 38 68  1  0
 39 69  1  0
 39 70  1  0
 40 71  1  0
 41 72  1  0
M  END
>  <Binding energies>  (1) 
[-8.18]

>  <Ligand effiencies>  (1) 
[-0.18177777777777776]

>  <Interactions>  (1) 
["V-A:PRO:482:CG:4326, H-B:ASP:366:OD2:8186, V-B:TYR:539:CE2:9847, V-B:TYR:539:CD2:9845, V-B:ALA:541:CB:9863, V-A:LEU:475:CD2:4258, H-B:GLU:543:OE2:9881, H-B:TYR:531:OH:9766, V-A:PRO:482:CB:4325, V-A:ILE:369:CG2:3236, V-A:GLU:543:CD:4908, V-A:GLU:543:CG:4907, V-A:GLU:543:CB:4906, V-B:HIS:456:CE1:9041, V-B:GLU:543:CB:9877, V-A:HIS:456:CE1:4069, V-B:GLU:543:CG:9878, V-B:HIS:456:CD2:9039, V-B:GLU:543:CD:9879, V-A:HIS:456:CD2:4067, V-A:TYR:539:CE2:4876, V-B:ASP:366:CB:8183, V-B:ASP:366:CG:8184, V-B:ASP:366:CA:8181, V-A:TRP:381:CH2:3371, V-A:TRP:381:CZ2:3369, V-A:TRP:381:CZ3:3370, H-B:ASP:366:OD1:8185, V-A:HIS:456:CG:4065, H-A:LYS:547:NZ:4951, V-A:LYS:547:CE:4950, V-B:ASP:366:C:8179"]

$$$$
9d_Ghoteimi_2023
     RDKit          3D

 68 73  0  0  0  0  0  0  0  0999 V2000
  124.3480  129.8870   66.3440 C   0  0  0  0  0  0  0  0  0  0  0  0
  124.8260  130.9690   65.5570 O   0  0  0  0  0  0  0  0  0  0  0  0
  126.1560  131.2340   65.4720 C   0  0  0  0  0  0  0  0  0  0  0  0
  126.6280  132.3690   65.3740 O   0  0  0  0  0  0  0  0  0  0  0  0
  126.9900  130.0120   65.5060 C   0  0  0  0  0  0  0  0  0  0  0  0
  127.3410  129.1470   64.0110 S   0  0  0  0  0  0  0  0  0  0  0  0
  128.3100  127.9740   64.8700 C   0  0  0  0  0  0  0  0  0  0  0  0
  128.9370  126.9850   64.2340 N   0  0  0  0  0  0  0  0  0  0  0  0
  129.6790  126.1360   64.9910 C   0  0  0  0  0  0  0  0  0  0  0  0
  130.3930  125.0500   64.2520 C   0  0  0  0  0  0  0  0  0  0  0  0
  129.6750  124.0280   63.6240 C   0  0  0  0  0  0  0  0  0  0  0  0
  130.3300  123.0110   62.9350 C   0  0  0  0  0  0  0  0  0  0  0  0
  131.7310  122.9860   62.8390 C   0  0  0  0  0  0  0  0  0  0  0  0
  132.4040  121.9610   62.1660 N   0  0  0  0  0  0  0  0  0  0  0  0
  133.6220  121.3430   62.7280 C   0  0  0  0  0  0  0  0  0  0  0  0
  134.4170  120.4940   61.7140 C   0  0  0  0  0  0  0  0  0  0  0  0
  133.5720  119.5160   61.1320 O   0  0  0  0  0  0  0  0  0  0  0  0
  132.4870  120.1110   60.4400 C   0  0  0  0  0  0  0  0  0  0  0  0
  131.6320  120.9500   61.4130 C   0  0  0  0  0  0  0  0  0  0  0  0
  132.4470  124.0050   63.4840 C   0  0  0  0  0  0  0  0  0  0  0  0
  131.7910  125.0200   64.1750 C   0  0  0  0  0  0  0  0  0  0  0  0
  129.7660  126.2570   66.3800 C   0  0  0  0  0  0  0  0  0  0  0  0
  129.0940  127.2830   67.0560 C   0  0  0  0  0  0  0  0  0  0  0  0
  129.1980  127.3500   68.5370 C   0  0  0  0  0  0  0  0  0  0  0  0
  128.5250  126.4270   69.3420 C   0  0  0  0  0  0  0  0  0  0  0  0
  128.6400  126.4820   70.7280 C   0  0  0  0  0  0  0  0  0  0  0  0
  129.4450  127.4520   71.3460 C   0  0  0  0  0  0  0  0  0  0  0  0
  129.5700  127.5350   72.7350 N   0  0  0  0  0  0  0  0  0  0  0  0
  129.4110  128.8460   73.3930 C   0  0  0  0  0  0  0  0  0  0  0  0
  129.1840  128.7390   74.9160 C   0  0  0  0  0  0  0  0  0  0  0  0
  130.2350  127.9950   75.5150 O   0  0  0  0  0  0  0  0  0  0  0  0
  130.3120  126.6790   74.9870 C   0  0  0  0  0  0  0  0  0  0  0  0
  130.5720  126.7370   73.4670 C   0  0  0  0  0  0  0  0  0  0  0  0
  130.1150  128.3740   70.5280 C   0  0  0  0  0  0  0  0  0  0  0  0
  129.9980  128.3200   69.1430 C   0  0  0  0  0  0  0  0  0  0  0  0
  128.3450  128.2080   66.2770 C   0  0  0  0  0  0  0  0  0  0  0  0
  127.5960  129.3930   66.6070 C   0  0  0  0  0  0  0  0  0  0  0  0
  127.5030  129.8840   67.8830 N   0  0  0  0  0  0  0  0  0  0  0  0
  124.4568  130.1332   67.4106 H   0  0  0  0  0  0  0  0  0  0  0  0
  123.2870  129.7080   66.1154 H   0  0  0  0  0  0  0  0  0  0  0  0
  124.9301  128.9821   66.1154 H   0  0  0  0  0  0  0  0  0  0  0  0
  128.5762  124.0274   63.6750 H   0  0  0  0  0  0  0  0  0  0  0  0
  129.7407  122.2140   62.4580 H   0  0  0  0  0  0  0  0  0  0  0  0
  134.2780  122.1447   63.0982 H   0  0  0  0  0  0  0  0  0  0  0  0
  133.2949  120.6621   63.5276 H   0  0  0  0  0  0  0  0  0  0  0  0
  134.8149  121.1481   60.9242 H   0  0  0  0  0  0  0  0  0  0  0  0
  135.2452  119.9914   62.2350 H   0  0  0  0  0  0  0  0  0  0  0  0
  132.8768  120.7625   59.6440 H   0  0  0  0  0  0  0  0  0  0  0  0
  131.8613  119.3187   60.0031 H   0  0  0  0  0  0  0  0  0  0  0  0
  130.8547  121.4687   60.8327 H   0  0  0  0  0  0  0  0  0  0  0  0
  131.2108  120.2527   62.1522 H   0  0  0  0  0  0  0  0  0  0  0  0
  133.5462  124.0022   63.4432 H   0  0  0  0  0  0  0  0  0  0  0  0
  132.3786  125.8090   64.6671 H   0  0  0  0  0  0  0  0  0  0  0  0
  130.3706  125.5366   66.9505 H   0  0  0  0  0  0  0  0  0  0  0  0
  127.8995  125.6510   68.8767 H   0  0  0  0  0  0  0  0  0  0  0  0
  128.0929  125.7559   71.3473 H   0  0  0  0  0  0  0  0  0  0  0  0
  130.3207  129.4385   73.2160 H   0  0  0  0  0  0  0  0  0  0  0  0
  128.5175  129.3215   72.9622 H   0  0  0  0  0  0  0  0  0  0  0  0
  129.1587  129.7486   75.3519 H   0  0  0  0  0  0  0  0  0  0  0  0
  128.2286  128.2267   75.1025 H   0  0  0  0  0  0  0  0  0  0  0  0
  131.1341  126.1369   75.4772 H   0  0  0  0  0  0  0  0  0  0  0  0
  129.3608  126.1585   75.1720 H   0  0  0  0  0  0  0  0  0  0  0  0
  131.5638  127.1821   73.2989 H   0  0  0  0  0  0  0  0  0  0  0  0
  130.5108  125.7070   73.0858 H   0  0  0  0  0  0  0  0  0  0  0  0
  130.7423  129.1513   70.9888 H   0  0  0  0  0  0  0  0  0  0  0  0
  130.5400  129.0472   68.5206 H   0  0  0  0  0  0  0  0  0  0  0  0
  128.0650  129.5160   68.6370 H   0  0  0  0  0  0  0  0  0  0  0  0
  126.8690  130.6370   68.1140 H   0  0  0  0  0  0  0  0  0  0  0  0
  1  2  1  0
  2  3  1  0
  3  4  2  0
  3  5  1  0
  5  6  1  0
  6  7  1  0
  7  8  2  0
  8  9  1  0
  9 10  1  0
 10 11  2  0
 11 12  1  0
 12 13  2  0
 13 14  1  0
 14 15  1  0
 15 16  1  0
 16 17  1  0
 17 18  1  0
 18 19  1  0
 13 20  1  0
 20 21  2  0
  9 22  2  0
 22 23  1  0
 23 24  1  0
 24 25  2  0
 25 26  1  0
 26 27  2  0
 27 28  1  0
 28 29  1  0
 29 30  1  0
 30 31  1  0
 31 32  1  0
 32 33  1  0
 27 34  1  0
 34 35  2  0
 23 36  2  0
 36 37  1  0
 37 38  1  0
 37  5  2  0
 36  7  1  0
 21 10  1  0
 35 24  1  0
 19 14  1  0
 33 28  1  0
  1 39  1  0
  1 40  1  0
  1 41  1  0
 11 42  1  0
 12 43  1  0
 15 44  1  0
 15 45  1  0
 16 46  1  0
 16 47  1  0
 18 48  1  0
 18 49  1  0
 19 50  1  0
 19 51  1  0
 20 52  1  0
 21 53  1  0
 22 54  1  0
 25 55  1  0
 26 56  1  0
 29 57  1  0
 29 58  1  0
 30 59  1  0
 30 60  1  0
 32 61  1  0
 32 62  1  0
 33 63  1  0
 33 64  1  0
 34 65  1  0
 35 66  1  0
 38 67  1  0
 38 68  1  0
M  END
>  <Binding energies>  (1) 
[-8.21]

>  <Ligand effiencies>  (1) 
[-0.20525000000000002]

>  <Interactions>  (1) 
["V-B:TYR:539:CE2:9847, V-B:TYR:539:CD2:9845, V-B:ALA:541:CB:9863, V-A:LEU:475:CD2:4258, V-A:ILE:369:CD1:3238, V-A:ILE:369:CG2:3236, V-A:GLU:543:CD:4908, V-A:GLU:543:CG:4907, V-A:GLU:543:CB:4906, V-B:HIS:456:CE1:9041, V-B:GLU:543:CB:9877, V-A:HIS:456:CE1:4069, V-B:GLU:543:CG:9878, V-B:TYR:484:CE1:9316, V-B:GLU:543:CD:9879, V-A:HIS:456:CD2:4067, V-A:GLY:454:CA:4048, V-B:LEU:475:CD1:9229, V-B:GLY:454:CA:9020, V-B:ARG:545:CD:9894, V-B:ARG:545:CZ:9897, H-B:TYR:484:OH:9319, H-B:GLY:454:N:9021, V-A:TRP:381:CH2:3371, V-A:ILE:369:CB:3235, V-A:ILE:369:CG1:3237, V-B:TYR:484:CZ:9318, H-A:LYS:547:NZ:4951, V-A:LYS:547:CE:4950, V-A:SER:385:C:3404"]

$$$$
RR10_Rahimova_2017
     RDKit          3D

 66 70  0  0  0  0  0  0  0  0999 V2000
  125.5000  123.1360   56.4040 C   0  0  0  0  0  0  0  0  0  0  0  0
  125.7680  124.1210   57.5550 C   0  0  1  0  0  0  0  0  0  0  0  0
  125.4740  123.4890   58.9350 C   0  0  0  0  0  0  0  0  0  0  0  0
  125.7170  124.5060   60.0730 C   0  0  0  0  0  0  0  0  0  0  0  0
  127.1670  125.0560   60.0650 C   0  0  1  0  0  0  0  0  0  0  0  0
  128.1260  124.0030   60.4250 N   0  0  0  0  0  0  0  0  0  0  0  0
  127.9890  123.1400   61.4480 C   0  0  0  0  0  0  0  0  0  0  0  0
  127.0060  123.1320   62.1940 O   0  0  0  0  0  0  0  0  0  0  0  0
  129.1420  122.1400   61.6720 C   0  0  1  0  0  0  0  0  0  0  0  0
  129.0160  120.9730   60.6580 C   0  0  0  0  0  0  0  0  0  0  0  0
  130.2220  120.0170   60.8170 C   0  0  0  0  0  0  0  0  0  0  0  0
  131.5780  120.7580   60.7570 C   0  0  0  0  0  0  0  0  0  0  0  0
  131.5950  121.9000   61.7110 N   0  0  0  0  0  0  0  0  0  0  0  0
  133.1890  122.6350   61.9470 S   0  0  0  0  0  0  0  0  0  0  0  0
  133.5100  123.4230   60.7500 O   0  0  0  0  0  0  0  0  0  0  0  0
  134.1070  121.5850   62.4080 O   0  0  0  0  0  0  0  0  0  0  0  0
  132.9700  123.8030   63.2890 C   0  0  0  0  0  0  0  0  0  0  0  0
  133.9440  124.7820   63.5110 C   0  0  0  0  0  0  0  0  0  0  0  0
  133.8340  125.7200   64.5420 C   0  0  0  0  0  0  0  0  0  0  0  0
  132.6940  125.6340   65.3450 C   0  0  0  0  0  0  0  0  0  0  0  0
  132.2360  126.3460   66.4280 N   0  0  0  0  0  0  0  0  0  0  0  0
  131.0300  125.7990   66.8160 C   0  0  0  0  0  0  0  0  0  0  0  0
  130.2240  126.3060   67.9780 C   0  0  0  0  0  0  0  0  0  0  0  0
  130.5830  127.4960   68.6250 C   0  0  0  0  0  0  0  0  0  0  0  0
  129.8340  127.9690   69.7000 C   0  0  0  0  0  0  0  0  0  0  0  0
  128.7220  127.2520   70.1350 C   0  0  0  0  0  0  0  0  0  0  0  0
  128.3530  126.0680   69.5020 C   0  0  0  0  0  0  0  0  0  0  0  0
  129.1020  125.5970   68.4280 C   0  0  0  0  0  0  0  0  0  0  0  0
  130.6790  124.7880   66.0530 N   0  0  0  0  0  0  0  0  0  0  0  0
  131.6880  124.6590   65.1360 C   0  0  0  0  0  0  0  0  0  0  0  0
  131.8250  123.7330   64.0920 C   0  0  0  0  0  0  0  0  0  0  0  0
  130.4950  122.8720   61.4900 C   0  0  0  0  0  0  0  0  0  0  0  0
  127.4540  125.6720   58.6690 C   0  0  0  0  0  0  0  0  0  0  0  0
  127.2190  124.6560   57.5290 C   0  0  0  0  0  0  0  0  0  0  0  0
  125.2324  122.1526   56.8178 H   0  0  0  0  0  0  0  0  0  0  0  0
  124.6713  123.5114   55.7856 H   0  0  0  0  0  0  0  0  0  0  0  0
  126.4046  123.0398   55.7856 H   0  0  0  0  0  0  0  0  0  0  0  0
  125.0793  124.9650   57.4018 H   0  0  0  0  0  0  0  0  0  0  0  0
  124.4246  123.1606   58.9640 H   0  0  0  0  0  0  0  0  0  0  0  0
  126.1497  122.6332   59.0796 H   0  0  0  0  0  0  0  0  0  0  0  0
  125.0182  125.3469   59.9523 H   0  0  0  0  0  0  0  0  0  0  0  0
  125.5569  123.9878   61.0300 H   0  0  0  0  0  0  0  0  0  0  0  0
  127.2808  125.8446   60.8234 H   0  0  0  0  0  0  0  0  0  0  0  0
  129.0030  124.0170   59.9270 H   0  0  0  0  0  0  0  0  0  0  0  0
  129.0922  121.7301   62.6916 H   0  0  0  0  0  0  0  0  0  0  0  0
  128.0836  120.4213   60.8483 H   0  0  0  0  0  0  0  0  0  0  0  0
  129.0016  121.3770   59.6350 H   0  0  0  0  0  0  0  0  0  0  0  0
  130.1417  119.5066   61.7881 H   0  0  0  0  0  0  0  0  0  0  0  0
  130.1945  119.3028   59.9808 H   0  0  0  0  0  0  0  0  0  0  0  0
  132.3846  120.0571   61.0181 H   0  0  0  0  0  0  0  0  0  0  0  0
  131.7249  121.1456   59.7381 H   0  0  0  0  0  0  0  0  0  0  0  0
  134.8250  124.8150   62.8532 H   0  0  0  0  0  0  0  0  0  0  0  0
  134.6050  126.4859   64.7120 H   0  0  0  0  0  0  0  0  0  0  0  0
  132.6660  127.1300   66.8960 H   0  0  0  0  0  0  0  0  0  0  0  0
  131.4624  128.0606   68.2816 H   0  0  0  0  0  0  0  0  0  0  0  0
  130.1195  128.9046   70.2031 H   0  0  0  0  0  0  0  0  0  0  0  0
  128.1309  127.6239   70.9849 H   0  0  0  0  0  0  0  0  0  0  0  0
  127.4729  125.5072   69.8496 H   0  0  0  0  0  0  0  0  0  0  0  0
  128.8112  124.6611   67.9284 H   0  0  0  0  0  0  0  0  0  0  0  0
  131.0529  122.9713   63.9086 H   0  0  0  0  0  0  0  0  0  0  0  0
  130.5734  123.6919   62.2191 H   0  0  0  0  0  0  0  0  0  0  0  0
  130.5619  123.2894   60.4745 H   0  0  0  0  0  0  0  0  0  0  0  0
  126.7891  126.5352   58.5181 H   0  0  0  0  0  0  0  0  0  0  0  0
  128.5112  125.9748   58.6419 H   0  0  0  0  0  0  0  0  0  0  0  0
  127.4033  125.1496   56.5634 H   0  0  0  0  0  0  0  0  0  0  0  0
  127.9077  123.8093   57.6662 H   0  0  0  0  0  0  0  0  0  0  0  0
  1  2  1  0
  2  3  1  0
  3  4  1  0
  4  5  1  0
  5  6  1  0
  6  7  1  0
  7  8  2  0
  7  9  1  0
  9 10  1  0
 10 11  1  0
 11 12  1  0
 12 13  1  0
 13 14  1  0
 14 15  2  0
 14 16  2  0
 14 17  1  0
 17 18  2  0
 18 19  1  0
 19 20  2  0
 20 21  1  0
 21 22  1  0
 22 23  1  0
 23 24  2  0
 24 25  1  0
 25 26  2  0
 26 27  1  0
 27 28  2  0
 22 29  2  0
 29 30  1  0
 30 31  2  0
 13 32  1  0
  5 33  1  0
 33 34  1  0
 34  2  1  0
 32  9  1  0
 31 17  1  0
 30 20  1  0
 28 23  1  0
  1 35  1  0
  1 36  1  0
  1 37  1  0
  2 38  1  6
  3 39  1  0
  3 40  1  0
  4 41  1  0
  4 42  1  0
  5 43  1  1
  6 44  1  0
  9 45  1  1
 10 46  1  0
 10 47  1  0
 11 48  1  0
 11 49  1  0
 12 50  1  0
 12 51  1  0
 18 52  1  0
 19 53  1  0
 21 54  1  0
 24 55  1  0
 25 56  1  0
 26 57  1  0
 27 58  1  0
 28 59  1  0
 31 60  1  0
 32 61  1  0
 32 62  1  0
 33 63  1  0
 33 64  1  0
 34 65  1  0
 34 66  1  0
M  END
>  <Binding energies>  (1) 
[-9.44]

>  <Ligand effiencies>  (1) 
[-0.2622222222222222]

>  <Interactions>  (1) 
["V-B:TYR:539:CE2:9847, V-B:PRO:540:CA:9854, V-B:TYR:539:CD2:9845, V-B:LEU:363:CD1:8160, V-B:PRO:540:CB:9856, V-B:ALA:541:CB:9863, V-B:TYR:539:C:9838, V-A:LEU:475:CD2:4258, V-B:PRO:540:N:9855, V-B:ALA:541:CA:9861, H-B:ALA:541:N:9862, H-A:GLY:454:N:4049, V-A:ILE:369:CD1:3238, V-A:ILE:369:CG2:3236, H-A:TYR:484:OH:4347, H-A:GLU:543:OE2:4910, V-A:ARG:545:CZ:4926, V-B:MET:535:CE:9806, V-A:GLU:543:CD:4908, V-A:GLU:543:CB:4906, V-B:HIS:456:CE1:9041, V-B:GLU:543:CB:9877, V-A:HIS:456:CE1:4069, V-B:GLU:543:CG:9878, V-B:PRO:540:C:9852, V-A:ARG:545:CG:4922, V-A:ARG:545:CD:4923, V-A:GLY:454:CA:4048, V-A:GLY:453:C:4041, V-A:GLY:453:CA:4043"]

$$$$
RR11_Rahimova_2017
     RDKit          3D

 55 60  0  0  0  0  0  0  0  0999 V2000
  130.0730  133.0060   57.0690 N   0  0  0  0  0  0  0  0  0  0  0  0
  130.4010  131.7460   57.5670 C   0  0  0  0  0  0  0  0  0  0  0  0
  129.6980  130.6240   57.1300 C   0  0  0  0  0  0  0  0  0  0  0  0
  130.0280  129.3660   57.6250 C   0  0  0  0  0  0  0  0  0  0  0  0
  131.0620  129.2170   58.5590 C   0  0  0  0  0  0  0  0  0  0  0  0
  131.4190  127.8590   59.0870 C   0  0  0  0  0  0  0  0  0  0  0  0
  131.3580  127.5150   60.3550 N   0  0  0  0  0  0  0  0  0  0  0  0
  131.7530  126.2030   60.3940 C   0  0  0  0  0  0  0  0  0  0  0  0
  131.8630  125.3440   61.4950 C   0  0  0  0  0  0  0  0  0  0  0  0
  132.2760  124.0250   61.2720 C   0  0  0  0  0  0  0  0  0  0  0  0
  132.4110  123.0690   62.4500 C   0  0  0  0  0  0  0  0  0  0  0  0
  131.6600  123.5420   63.6870 C   0  0  0  0  0  0  0  0  0  0  0  0
  130.5640  122.8060   64.1510 C   0  0  0  0  0  0  0  0  0  0  0  0
  129.8490  123.1940   65.2850 C   0  0  0  0  0  0  0  0  0  0  0  0
  130.2620  124.3490   65.9630 C   0  0  0  0  0  0  0  0  0  0  0  0
  129.7300  124.9360   67.0810 N   0  0  0  0  0  0  0  0  0  0  0  0
  130.4780  125.9950   67.3060 C   0  0  0  0  0  0  0  0  0  0  0  0
  130.2600  126.9650   68.4320 C   0  0  0  0  0  0  0  0  0  0  0  0
  128.9690  127.2140   68.9150 C   0  0  0  0  0  0  0  0  0  0  0  0
  128.7650  128.1210   69.9530 C   0  0  0  0  0  0  0  0  0  0  0  0
  129.8530  128.7850   70.5150 C   0  0  0  0  0  0  0  0  0  0  0  0
  129.6500  129.6970   71.5500 N   0  0  0  0  0  0  0  0  0  0  0  0
  131.1430  128.5440   70.0480 C   0  0  0  0  0  0  0  0  0  0  0  0
  131.3450  127.6370   69.0110 C   0  0  0  0  0  0  0  0  0  0  0  0
  131.4880  126.1210   66.3770 N   0  0  0  0  0  0  0  0  0  0  0  0
  131.3790  125.0770   65.4890 C   0  0  0  0  0  0  0  0  0  0  0  0
  132.1020  124.6900   64.3570 C   0  0  0  0  0  0  0  0  0  0  0  0
  132.5960  123.5870   59.9820 C   0  0  0  0  0  0  0  0  0  0  0  0
  132.5010  124.4200   58.8650 C   0  0  0  0  0  0  0  0  0  0  0  0
  132.0720  125.7290   59.1000 C   0  0  0  0  0  0  0  0  0  0  0  0
  131.8490  126.8180   58.2900 N   0  0  0  0  0  0  0  0  0  0  0  0
  131.7590  130.3540   58.9900 C   0  0  0  0  0  0  0  0  0  0  0  0
  131.4310  131.6130   58.4960 C   0  0  0  0  0  0  0  0  0  0  0  0
  130.6860  133.4510   56.4000 H   0  0  0  0  0  0  0  0  0  0  0  0
  129.2080  133.4420   57.3530 H   0  0  0  0  0  0  0  0  0  0  0  0
  128.8854  130.7328   56.3966 H   0  0  0  0  0  0  0  0  0  0  0  0
  129.4726  128.4813   57.2803 H   0  0  0  0  0  0  0  0  0  0  0  0
  131.6305  125.6973   62.5104 H   0  0  0  0  0  0  0  0  0  0  0  0
  132.0138  122.0873   62.1524 H   0  0  0  0  0  0  0  0  0  0  0  0
  133.4781  123.0171   62.7119 H   0  0  0  0  0  0  0  0  0  0  0  0
  130.2584  121.8992   63.6085 H   0  0  0  0  0  0  0  0  0  0  0  0
  128.9858  122.6099   65.6367 H   0  0  0  0  0  0  0  0  0  0  0  0
  128.1097  126.6896   68.4716 H   0  0  0  0  0  0  0  0  0  0  0  0
  127.7484  128.3120   70.3273 H   0  0  0  0  0  0  0  0  0  0  0  0
  130.0590  130.6190   71.4890 H   0  0  0  0  0  0  0  0  0  0  0  0
  129.0670  129.4370   72.3330 H   0  0  0  0  0  0  0  0  0  0  0  0
  131.9993  129.0685   70.4970 H   0  0  0  0  0  0  0  0  0  0  0  0
  132.3641  127.4465   68.6434 H   0  0  0  0  0  0  0  0  0  0  0  0
  132.1620  126.8730   66.3870 H   0  0  0  0  0  0  0  0  0  0  0  0
  132.9762  125.2597   64.0090 H   0  0  0  0  0  0  0  0  0  0  0  0
  132.9344  122.5497   59.8428 H   0  0  0  0  0  0  0  0  0  0  0  0
  132.7505  124.0647   57.8543 H   0  0  0  0  0  0  0  0  0  0  0  0
  131.9600  126.8940   57.2900 H   0  0  0  0  0  0  0  0  0  0  0  0
  132.5715  130.2504   59.7243 H   0  0  0  0  0  0  0  0  0  0  0  0
  131.9833  132.5007   58.8380 H   0  0  0  0  0  0  0  0  0  0  0  0
  1  2  1  0
  2  3  2  0
  3  4  1  0
  4  5  2  0
  5  6  1  0
  6  7  2  0
  7  8  1  0
  8  9  2  0
  9 10  1  0
 10 11  1  0
 11 12  1  0
 12 13  2  0
 13 14  1  0
 14 15  2  0
 15 16  1  0
 16 17  2  0
 17 18  1  0
 18 19  2  0
 19 20  1  0
 20 21  2  0
 21 22  1  0
 21 23  1  0
 23 24  2  0
 17 25  1  0
 25 26  1  0
 26 27  2  0
 10 28  2  0
 28 29  1  0
 29 30  2  0
 30 31  1  0
  5 32  1  0
 32 33  2  0
 33  2  1  0
 31  6  1  0
 30  8  1  0
 27 12  1  0
 26 15  1  0
 24 18  1  0
  1 34  1  0
  1 35  1  0
  3 36  1  0
  4 37  1  0
  9 38  1  0
 11 39  1  0
 11 40  1  0
 13 41  1  0
 14 42  1  0
 19 43  1  0
 20 44  1  0
 22 45  1  0
 22 46  1  0
 23 47  1  0
 24 48  1  0
 25 49  1  0
 27 50  1  0
 28 51  1  0
 29 52  1  0
 31 53  1  0
 32 54  1  0
 33 55  1  0
M  END
>  <Binding energies>  (1) 
[-7.32]

>  <Ligand effiencies>  (1) 
[-0.18769230769230769]

>  <Interactions>  (1) 
["V-B:TYR:539:CE2:9847, V-B:ALA:541:CB:9863, V-B:TYR:539:CZ:9848, V-A:ASP:366:CG:3212, V-A:ASP:366:CB:3211, V-A:ILE:369:CG2:3236, H-A:TYR:484:OH:4347, H-A:GLU:543:OE2:4910, V-A:GLU:543:CD:4908, V-A:GLU:543:CB:4906, V-B:HIS:456:CE1:9041, V-A:TYR:484:CZ:4346, V-A:HIS:456:CE1:4069, V-B:GLU:543:CG:9878, V-A:TYR:484:CE1:4344, V-A:PRO:540:N:4884, V-A:TYR:539:C:4867, V-A:PRO:540:CA:4883, H-A:TYR:531:OH:4795, V-A:MET:535:CE:4835, V-A:TYR:539:CA:4869, V-A:TYR:531:CZ:4794, V-A:ARG:545:CG:4922, H-A:TYR:539:O:4868, H-B:HIS:456:NE2:9042, V-A:GLU:543:C:4902, H-A:GLU:543:O:4903"]

$$$$
RR11_Rahimova_2017-again1
     RDKit          3D

 56 61  0  0  0  0  0  0  0  0999 V2000
  128.3030  118.2050   74.0400 N   0  0  0  0  0  0  0  0  0  0  0  0
  128.5490  119.5550   73.7950 C   0  0  0  0  0  0  0  0  0  0  0  0
  129.7950  120.0990   74.0990 C   0  0  0  0  0  0  0  0  0  0  0  0
  130.0380  121.4500   73.8570 C   0  0  0  0  0  0  0  0  0  0  0  0
  129.0380  122.2650   73.3100 C   0  0  0  0  0  0  0  0  0  0  0  0
  129.2990  123.7210   73.0570 C   0  0  0  0  0  0  0  0  0  0  0  0
  129.9090  124.5240   73.9000 N   0  0  0  0  0  0  0  0  0  0  0  0
  129.9170  125.7520   73.2920 C   0  0  0  0  0  0  0  0  0  0  0  0
  130.4370  126.9680   73.7540 C   0  0  0  0  0  0  0  0  0  0  0  0
  130.3020  128.0930   72.9390 C   0  0  0  0  0  0  0  0  0  0  0  0
  129.6650  128.0260   71.6940 C   0  0  0  0  0  0  0  0  0  0  0  0
  129.5410  129.2840   70.8480 C   0  0  0  0  0  0  0  0  0  0  0  0
  129.0750  128.9930   69.4280 C   0  0  0  0  0  0  0  0  0  0  0  0
  129.5130  127.8310   68.7820 C   0  0  0  0  0  0  0  0  0  0  0  0
  129.1210  127.5120   67.4800 C   0  0  0  0  0  0  0  0  0  0  0  0
  128.2600  128.4130   66.8460 C   0  0  0  0  0  0  0  0  0  0  0  0
  127.6930  128.4160   65.5790 N   0  0  0  0  0  0  0  0  0  0  0  0
  126.9090  129.5350   65.4150 C   0  0  0  0  0  0  0  0  0  0  0  0
  126.1400  129.9230   64.1930 C   0  0  0  0  0  0  0  0  0  0  0  0
  126.3400  129.2340   62.9910 C   0  0  0  0  0  0  0  0  0  0  0  0
  125.6210  129.5850   61.8510 C   0  0  0  0  0  0  0  0  0  0  0  0
  124.6980  130.6290   61.9090 C   0  0  0  0  0  0  0  0  0  0  0  0
  123.9750  130.9760   60.7690 N   0  0  0  0  0  0  0  0  0  0  0  0
  124.4930  131.3220   63.1010 C   0  0  0  0  0  0  0  0  0  0  0  0
  125.2120  130.9700   64.2400 C   0  0  0  0  0  0  0  0  0  0  0  0
  126.9790  130.2340   66.5970 N   0  0  0  0  0  0  0  0  0  0  0  0
  127.8050  129.5730   67.4950 C   0  0  0  0  0  0  0  0  0  0  0  0
  128.1950  129.8840   68.8000 C   0  0  0  0  0  0  0  0  0  0  0  0
  129.1580  126.8160   71.2010 C   0  0  0  0  0  0  0  0  0  0  0  0
  129.2890  125.6950   72.0250 C   0  0  0  0  0  0  0  0  0  0  0  0
  128.9130  124.3780   71.9070 N   0  0  0  0  0  0  0  0  0  0  0  0
  127.7910  121.7030   73.0090 C   0  0  0  0  0  0  0  0  0  0  0  0
  127.5460  120.3530   73.2500 C   0  0  0  0  0  0  0  0  0  0  0  0
  128.3490  117.5450   73.2770 H   0  0  0  0  0  0  0  0  0  0  0  0
  128.0420  117.9080   74.9700 H   0  0  0  0  0  0  0  0  0  0  0  0
  130.5843  119.4646   74.5285 H   0  0  0  0  0  0  0  0  0  0  0  0
  131.0218  121.8795   74.0971 H   0  0  0  0  0  0  0  0  0  0  0  0
  130.9375  127.0343   74.7313 H   0  0  0  0  0  0  0  0  0  0  0  0
  130.7062  129.0563   73.2834 H   0  0  0  0  0  0  0  0  0  0  0  0
  128.8153  129.9590   71.3252 H   0  0  0  0  0  0  0  0  0  0  0  0
  130.5396  129.7408   70.7832 H   0  0  0  0  0  0  0  0  0  0  0  0
  130.1879  127.1468   69.3172 H   0  0  0  0  0  0  0  0  0  0  0  0
  129.4719  126.5980   66.9786 H   0  0  0  0  0  0  0  0  0  0  0  0
  127.8140  127.7280   64.8490 H   0  0  0  0  0  0  0  0  0  0  0  0
  127.0687  128.4112   62.9466 H   0  0  0  0  0  0  0  0  0  0  0  0
  125.7805  129.0409   60.9084 H   0  0  0  0  0  0  0  0  0  0  0  0
  123.6200  131.9170   60.6720 H   0  0  0  0  0  0  0  0  0  0  0  0
  123.7900  130.2770   60.0660 H   0  0  0  0  0  0  0  0  0  0  0  0
  123.7646  132.1453   63.1416 H   0  0  0  0  0  0  0  0  0  0  0  0
  125.0502  131.5168   65.1807 H   0  0  0  0  0  0  0  0  0  0  0  0
  126.4870  131.1040   66.7400 H   0  0  0  0  0  0  0  0  0  0  0  0
  127.8281  130.7866   69.3107 H   0  0  0  0  0  0  0  0  0  0  0  0
  128.6797  126.7518   70.2125 H   0  0  0  0  0  0  0  0  0  0  0  0
  128.4300  123.9250   71.1450 H   0  0  0  0  0  0  0  0  0  0  0  0
  126.9984  122.3328   72.5787 H   0  0  0  0  0  0  0  0  0  0  0  0
  126.5640  119.9189   73.0108 H   0  0  0  0  0  0  0  0  0  0  0  0
  1  2  1  0
  2  3  2  0
  3  4  1  0
  4  5  2  0
  5  6  1  0
  6  7  2  0
  7  8  1  0
  8  9  2  0
  9 10  1  0
 10 11  2  0
 11 12  1  0
 12 13  1  0
 13 14  2  0
 14 15  1  0
 15 16  2  0
 16 17  1  0
 17 18  1  0
 18 19  1  0
 19 20  2  0
 20 21  1  0
 21 22  2  0
 22 23  1  0
 22 24  1  0
 24 25  2  0
 18 26  2  0
 26 27  1  0
 27 28  2  0
 11 29  1  0
 29 30  2  0
 30 31  1  0
  5 32  1  0
 32 33  2  0
 33  2  1  0
 31  6  1  0
 30  8  1  0
 28 13  1  0
 27 16  1  0
 25 19  1  0
  1 34  1  0
  1 35  1  0
  3 36  1  0
  4 37  1  0
  9 38  1  0
 10 39  1  0
 12 40  1  0
 12 41  1  0
 14 42  1  0
 15 43  1  0
 17 44  1  0
 20 45  1  0
 21 46  1  0
 23 47  1  0
 23 48  1  0
 24 49  1  0
 25 50  1  0
 26 51  1  0
 28 52  1  0
 29 53  1  0
 31 54  1  0
 32 55  1  0
 33 56  1  0
M  CHG  1  26   1
M  END
>  <Binding energies>  (1) 
[-8.44]

>  <Ligand effiencies>  (1) 
[-0.211]

>  <Interactions>  (1) 
["H-B:ASP:366:OD2:8186, H-B:GLU:543:OE2:9881, V-A:GLU:543:CD:4908, V-A:GLU:543:CG:4907, V-A:GLU:543:CB:4906, V-B:HIS:456:CE1:9041, V-A:HIS:456:CE1:4069, V-B:TYR:484:CE1:9316, V-B:GLU:543:CD:9879, V-A:HIS:456:CD2:4067, H-B:GLU:543:OE1:9880, V-B:ASP:366:CB:8183, V-B:ASP:366:CG:8184, H-B:TYR:484:OH:9319, V-B:ASP:366:CA:8181, H-B:GLU:543:O:9874, V-B:GLU:543:C:9873, H-B:ASP:366:OD1:8185, V-B:TYR:484:CZ:9318, V-A:HIS:456:CG:4065, V-B:GLY:544:CA:9885, V-A:TYR:484:CB:4340, V-A:TYR:484:C:4336, H-A:HIS:456:NE2:4070, H-A:TYR:484:O:4337"]

$$$$
RR11_Rahimova_2017-again2
     RDKit          3D

 57 62  0  0  0  0  0  0  0  0999 V2000
  129.0090  130.2870   71.1070 N   0  0  0  0  0  0  0  0  0  0  0  0
  129.2500  129.3250   70.1270 C   0  0  0  0  0  0  0  0  0  0  0  0
  128.7020  129.4780   68.8550 C   0  0  0  0  0  0  0  0  0  0  0  0
  128.9380  128.5130   67.8790 C   0  0  0  0  0  0  0  0  0  0  0  0
  129.7230  127.3910   68.1700 C   0  0  0  0  0  0  0  0  0  0  0  0
  129.9680  126.3510   67.1260 C   0  0  0  0  0  0  0  0  0  0  0  0
  130.8490  126.4330   66.0710 N   0  0  0  0  0  0  0  0  0  0  0  0
  130.8130  125.2620   65.3270 C   0  0  0  0  0  0  0  0  0  0  0  0
  131.5170  124.8620   64.1880 C   0  0  0  0  0  0  0  0  0  0  0  0
  131.2480  123.5800   63.6920 C   0  0  0  0  0  0  0  0  0  0  0  0
  131.9870  123.0870   62.4560 C   0  0  0  0  0  0  0  0  0  0  0  0
  132.0630  124.1360   61.3560 C   0  0  0  0  0  0  0  0  0  0  0  0
  132.8720  123.9060   60.2370 C   0  0  0  0  0  0  0  0  0  0  0  0
  132.9820  124.8320   59.1960 C   0  0  0  0  0  0  0  0  0  0  0  0
  132.2370  126.0070   59.3220 C   0  0  0  0  0  0  0  0  0  0  0  0
  132.1210  127.1200   58.5000 N   0  0  0  0  0  0  0  0  0  0  0  0
  131.2590  128.0340   59.0600 C   0  0  0  0  0  0  0  0  0  0  0  0
  130.8770  129.3660   58.5020 C   0  0  0  0  0  0  0  0  0  0  0  0
  130.0030  129.4510   57.4130 C   0  0  0  0  0  0  0  0  0  0  0  0
  129.6390  130.6930   56.8980 C   0  0  0  0  0  0  0  0  0  0  0  0
  130.1480  131.8560   57.4720 C   0  0  0  0  0  0  0  0  0  0  0  0
  129.7790  133.1010   56.9610 N   0  0  0  0  0  0  0  0  0  0  0  0
  131.0230  131.7840   58.5540 C   0  0  0  0  0  0  0  0  0  0  0  0
  131.3860  130.5420   59.0680 C   0  0  0  0  0  0  0  0  0  0  0  0
  130.8250  127.4820   60.2430 N   0  0  0  0  0  0  0  0  0  0  0  0
  131.4120  126.2390   60.4350 C   0  0  0  0  0  0  0  0  0  0  0  0
  131.3010  125.3070   61.4700 C   0  0  0  0  0  0  0  0  0  0  0  0
  130.2940  122.7550   64.2990 C   0  0  0  0  0  0  0  0  0  0  0  0
  129.5820  123.1510   65.4340 C   0  0  0  0  0  0  0  0  0  0  0  0
  129.8670  124.4230   65.9380 C   0  0  0  0  0  0  0  0  0  0  0  0
  129.3670  125.1170   67.0330 N   0  0  0  0  0  0  0  0  0  0  0  0
  130.2720  127.2500   69.4500 C   0  0  0  0  0  0  0  0  0  0  0  0
  130.0360  128.2140   70.4270 C   0  0  0  0  0  0  0  0  0  0  0  0
  129.1970  131.2590   70.9060 H   0  0  0  0  0  0  0  0  0  0  0  0
  128.7120  129.9970   72.0280 H   0  0  0  0  0  0  0  0  0  0  0  0
  128.0848  130.3584   68.6225 H   0  0  0  0  0  0  0  0  0  0  0  0
  128.5055  128.6330   66.8747 H   0  0  0  0  0  0  0  0  0  0  0  0
  131.4230  127.2470   65.9100 H   0  0  0  0  0  0  0  0  0  0  0  0
  132.2493  125.5241   63.7029 H   0  0  0  0  0  0  0  0  0  0  0  0
  133.0105  122.8079   62.7466 H   0  0  0  0  0  0  0  0  0  0  0  0
  131.4274  122.2284   62.0564 H   0  0  0  0  0  0  0  0  0  0  0  0
  133.4396  122.9658   60.1750 H   0  0  0  0  0  0  0  0  0  0  0  0
  133.6228  124.6451   58.3217 H   0  0  0  0  0  0  0  0  0  0  0  0
  132.5830  127.2830   57.6170 H   0  0  0  0  0  0  0  0  0  0  0  0
  129.6011  128.5322   56.9610 H   0  0  0  0  0  0  0  0  0  0  0  0
  128.9521  130.7554   56.0411 H   0  0  0  0  0  0  0  0  0  0  0  0
  130.3650  133.5500   56.2730 H   0  0  0  0  0  0  0  0  0  0  0  0
  128.9650  133.5680   57.3330 H   0  0  0  0  0  0  0  0  0  0  0  0
  131.4256  132.7052   59.0005 H   0  0  0  0  0  0  0  0  0  0  0  0
  132.0759  130.4839   59.9228 H   0  0  0  0  0  0  0  0  0  0  0  0
  130.1760  127.9570   60.8550 H   0  0  0  0  0  0  0  0  0  0  0  0
  130.6453  125.4842   62.3352 H   0  0  0  0  0  0  0  0  0  0  0  0
  130.0984  121.7620   63.8681 H   0  0  0  0  0  0  0  0  0  0  0  0
  128.8357  122.4955   65.9065 H   0  0  0  0  0  0  0  0  0  0  0  0
  128.6720  124.8040   67.6940 H   0  0  0  0  0  0  0  0  0  0  0  0
  130.8931  126.3732   69.6854 H   0  0  0  0  0  0  0  0  0  0  0  0
  130.4684  128.0989   71.4319 H   0  0  0  0  0  0  0  0  0  0  0  0
  1  2  1  0
  2  3  2  0
  3  4  1  0
  4  5  2  0
  5  6  1  0
  6  7  1  0
  7  8  1  0
  8  9  2  0
  9 10  1  0
 10 11  1  0
 11 12  1  0
 12 13  2  0
 13 14  1  0
 14 15  2  0
 15 16  1  0
 16 17  1  0
 17 18  1  0
 18 19  2  0
 19 20  1  0
 20 21  2  0
 21 22  1  0
 21 23  1  0
 23 24  2  0
 17 25  2  0
 25 26  1  0
 26 27  2  0
 10 28  2  0
 28 29  1  0
 29 30  2  0
 30 31  1  0
  5 32  1  0
 32 33  2  0
 33  2  1  0
 31  6  2  0
 30  8  1  0
 27 12  1  0
 26 15  1  0
 24 18  1  0
  1 34  1  0
  1 35  1  0
  3 36  1  0
  4 37  1  0
  7 38  1  0
  9 39  1  0
 11 40  1  0
 11 41  1  0
 13 42  1  0
 14 43  1  0
 16 44  1  0
 19 45  1  0
 20 46  1  0
 22 47  1  0
 22 48  1  0
 23 49  1  0
 24 50  1  0
 25 51  1  0
 27 52  1  0
 28 53  1  0
 29 54  1  0
 31 55  1  0
 32 56  1  0
 33 57  1  0
M  CHG  2  25   1  31   1
M  END
>  <Binding energies>  (1) 
[-8.75]

>  <Ligand effiencies>  (1) 
[-0.21341463414634146]

>  <Interactions>  (1) 
["V-B:ALA:541:CB:9863, V-A:ASP:366:CG:3212, H-A:ASP:366:O:3208, V-A:ASP:366:CB:3211, V-A:ASP:366:CA:3209, V-A:ILE:369:CG2:3236, H-A:GLU:543:OE2:4910, V-A:GLU:543:CD:4908, V-A:GLU:543:CG:4907, V-A:GLU:543:CB:4906, V-B:HIS:456:CE1:9041, V-B:GLU:543:CB:9877, V-A:HIS:456:CE1:4069, V-B:GLU:543:CG:9878, V-B:TYR:484:CE1:9316, V-B:GLU:543:CD:9879, V-A:TYR:484:CE1:4344, V-A:PRO:540:N:4884, V-A:TYR:539:C:4867, V-A:PRO:540:CA:4883, H-A:TYR:531:OH:4795, V-A:MET:535:CE:4835, V-A:TYR:539:CA:4869, H-A:GLU:543:OE1:4909, V-A:TYR:539:CG:4872, H-A:TYR:539:O:4868, H-B:GLU:543:OE1:9880, H-B:HIS:456:NE2:9042, H-B:GLU:543:O:9874, V-A:ILE:369:CB:3235, V-A:GLU:543:C:4902, H-A:GLU:543:O:4903"]

$$$$
RR12_Rahimova_2017
     RDKit          3D

 51 53  0  0  0  0  0  0  0  0999 V2000
  126.2110  122.0070   56.6220 C   0  0  0  0  0  0  0  0  0  0  0  0
  126.8970  123.3780   56.5630 C   0  0  0  0  0  0  0  0  0  0  0  0
  127.9850  123.5420   57.6400 C   0  0  0  0  0  0  0  0  0  0  0  0
  127.4270  123.3380   58.9750 N   0  0  0  0  0  0  0  0  0  0  0  0
  128.0580  122.7820   60.0770 C   0  0  0  0  0  0  0  0  0  0  0  0
  129.4740  122.2320   60.0560 C   0  0  0  0  0  0  0  0  0  0  0  0
  130.3640  122.8590   61.1460 C   0  0  0  0  0  0  0  0  0  0  0  0
  130.7080  124.3330   60.8580 C   0  0  0  0  0  0  0  0  0  0  0  0
  131.6620  124.9120   61.8030 N   0  0  0  0  0  0  0  0  0  0  0  0
  132.9650  124.5860   61.8820 C   0  0  0  0  0  0  0  0  0  0  0  0
  133.4970  123.7460   61.1510 O   0  0  0  0  0  0  0  0  0  0  0  0
  133.7740  125.3350   62.9490 C   0  0  0  0  0  0  0  0  0  0  0  0
  133.6910  124.6320   64.1900 O   0  0  0  0  0  0  0  0  0  0  0  0
  132.5240  123.9670   64.5140 C   0  0  0  0  0  0  0  0  0  0  0  0
  131.5030  124.7400   65.0700 C   0  0  0  0  0  0  0  0  0  0  0  0
  130.2890  124.1590   65.4260 C   0  0  0  0  0  0  0  0  0  0  0  0
  130.0930  122.7960   65.2260 C   0  0  0  0  0  0  0  0  0  0  0  0
  131.1020  122.0080   64.6750 C   0  0  0  0  0  0  0  0  0  0  0  0
  132.3160  122.5910   64.3200 C   0  0  0  0  0  0  0  0  0  0  0  0
  127.3050  122.7570   61.1490 N   0  0  0  0  0  0  0  0  0  0  0  0
  126.1300  123.3410   60.7660 C   0  0  0  0  0  0  0  0  0  0  0  0
  124.9760  123.5840   61.5270 C   0  0  0  0  0  0  0  0  0  0  0  0
  123.8960  124.2070   60.9010 C   0  0  0  0  0  0  0  0  0  0  0  0
  123.9550  124.5830   59.5590 C   0  0  0  0  0  0  0  0  0  0  0  0
  125.0870  124.3540   58.7750 C   0  0  0  0  0  0  0  0  0  0  0  0
  126.1710  123.7260   59.4030 C   0  0  0  0  0  0  0  0  0  0  0  0
  126.0649  121.7150   57.6724 H   0  0  0  0  0  0  0  0  0  0  0  0
  125.2349  122.0634   56.1179 H   0  0  0  0  0  0  0  0  0  0  0  0
  126.8413  121.2596   56.1179 H   0  0  0  0  0  0  0  0  0  0  0  0
  127.3606  123.4977   55.5727 H   0  0  0  0  0  0  0  0  0  0  0  0
  126.1285  124.1434   56.7462 H   0  0  0  0  0  0  0  0  0  0  0  0
  128.7806  122.8029   57.4647 H   0  0  0  0  0  0  0  0  0  0  0  0
  128.3910  124.5625   57.5792 H   0  0  0  0  0  0  0  0  0  0  0  0
  129.4329  121.1445   60.2159 H   0  0  0  0  0  0  0  0  0  0  0  0
  129.9154  122.4795   59.0793 H   0  0  0  0  0  0  0  0  0  0  0  0
  129.8340  122.8029   62.1083 H   0  0  0  0  0  0  0  0  0  0  0  0
  131.3086  122.2957   61.1682 H   0  0  0  0  0  0  0  0  0  0  0  0
  131.1380  124.3977   59.8476 H   0  0  0  0  0  0  0  0  0  0  0  0
  129.7734  124.9050   60.9553 H   0  0  0  0  0  0  0  0  0  0  0  0
  131.2990  125.6120   62.4340 H   0  0  0  0  0  0  0  0  0  0  0  0
  134.8259  125.3993   62.6336 H   0  0  0  0  0  0  0  0  0  0  0  0
  133.3661  126.3489   63.0739 H   0  0  0  0  0  0  0  0  0  0  0  0
  131.6591  125.8173   65.2281 H   0  0  0  0  0  0  0  0  0  0  0  0
  129.4888  124.7743   65.8632 H   0  0  0  0  0  0  0  0  0  0  0  0
  129.1334  122.3364   65.5052 H   0  0  0  0  0  0  0  0  0  0  0  0
  130.9403  120.9309   64.5213 H   0  0  0  0  0  0  0  0  0  0  0  0
  133.1150  121.9719   63.8861 H   0  0  0  0  0  0  0  0  0  0  0  0
  124.9246  123.2917   62.5862 H   0  0  0  0  0  0  0  0  0  0  0  0
  122.9801  124.4056   61.4769 H   0  0  0  0  0  0  0  0  0  0  0  0
  123.0825  125.0752   59.1045 H   0  0  0  0  0  0  0  0  0  0  0  0
  125.1262  124.6517   57.7168 H   0  0  0  0  0  0  0  0  0  0  0  0
  1  2  1  0
  2  3  1  0
  3  4  1  0
  4  5  1  0
  5  6  1  0
  6  7  1  0
  7  8  1  0
  8  9  1  0
  9 10  1  0
 10 11  2  0
 10 12  1  0
 12 13  1  0
 13 14  1  0
 14 15  2  0
 15 16  1  0
 16 17  2  0
 17 18  1  0
 18 19  2  0
  5 20  2  0
 20 21  1  0
 21 22  2  0
 22 23  1  0
 23 24  2  0
 24 25  1  0
 25 26  2  0
 26  4  1  0
 19 14  1  0
 26 21  1  0
  1 27  1  0
  1 28  1  0
  1 29  1  0
  2 30  1  0
  2 31  1  0
  3 32  1  0
  3 33  1  0
  6 34  1  0
  6 35  1  0
  7 36  1  0
  7 37  1  0
  8 38  1  0
  8 39  1  0
  9 40  1  0
 12 41  1  0
 12 42  1  0
 15 43  1  0
 16 44  1  0
 17 45  1  0
 18 46  1  0
 19 47  1  0
 22 48  1  0
 23 49  1  0
 24 50  1  0
 25 51  1  0
M  END
>  <Binding energies>  (1) 
[-7.09]

>  <Ligand effiencies>  (1) 
[-0.2625925925925926]

>  <Interactions>  (1) 
["V-B:TYR:539:CE2:9847, V-B:PRO:540:CA:9854, V-B:TYR:539:CD2:9845, V-B:PRO:540:CD:9858, V-B:PRO:540:CB:9856, V-B:ALA:541:CB:9863, V-B:TYR:539:C:9838, V-A:LEU:475:CD2:4258, V-B:PRO:540:N:9855, V-B:TYR:539:CD1:9844, V-B:TYR:539:CE1:9846, H-B:ALA:541:N:9862, V-B:TYR:539:CA:9840, V-B:TYR:539:CZ:9848, H-A:GLY:454:N:4049, V-A:ASP:366:CG:3212, V-A:ARG:545:CZ:4926, V-B:LEU:363:CA:8156, V-A:TYR:484:CZ:4346, V-B:GLU:543:CG:9878, V-A:TYR:484:CE1:4344, V-B:PRO:540:C:9852, V-B:ASN:362:CB:8147, V-A:LEU:475:CD1:4257, V-A:GLY:454:CA:4048, V-B:ASP:366:CB:8183, V-B:ASP:366:CG:8184, V-B:ASN:362:C:8143, V-B:ASN:362:CA:8145"]

$$$$
RR13_Rahimova_2017
     RDKit          3D

 84 90  0  0  0  0  0  0  0  0999 V2000
  131.8630  126.4950   61.8320 Cl  0  0  0  0  0  0  0  0  0  0  0  0
  131.3180  125.3600   63.0200 C   0  0  0  0  0  0  0  0  0  0  0  0
  132.2680  124.8290   63.8950 C   0  0  0  0  0  0  0  0  0  0  0  0
  131.8970  123.8950   64.8590 C   0  0  0  0  0  0  0  0  0  0  0  0
  130.5700  123.4850   64.9530 C   0  0  0  0  0  0  0  0  0  0  0  0
  129.6160  124.0100   64.0840 C   0  0  0  0  0  0  0  0  0  0  0  0
  129.9690  124.9620   63.1120 C   0  0  0  0  0  0  0  0  0  0  0  0
  128.8980  125.5110   62.1440 C   0  0  1  0  0  0  0  0  0  0  0  0
  127.9270  124.4020   61.7100 C   0  0  0  0  0  0  0  0  0  0  0  0
  126.6630  124.2850   62.0540 N   0  0  0  0  0  0  0  0  0  0  0  0
  126.2070  123.1220   61.4430 N   0  0  0  0  0  0  0  0  0  0  0  0
  127.2320  122.5250   60.7350 N   0  0  0  0  0  0  0  0  0  0  0  0
  128.2890  123.3210   60.9350 N   0  0  0  0  0  0  0  0  0  0  0  0
  129.5660  123.0250   60.2980 C   0  0  0  0  0  0  0  0  0  0  0  0
  129.8950  121.5260   60.4330 C   0  0  0  0  0  0  0  0  0  0  0  0
  131.3030  121.2920   60.9590 C   0  0  0  0  0  0  0  0  0  0  0  0
  131.9200  122.2590   61.7560 C   0  0  0  0  0  0  0  0  0  0  0  0
  133.2110  122.0470   62.2310 C   0  0  0  0  0  0  0  0  0  0  0  0
  133.8810  120.8690   61.9070 C   0  0  0  0  0  0  0  0  0  0  0  0
  133.2720  119.9010   61.1120 C   0  0  0  0  0  0  0  0  0  0  0  0
  131.9800  120.1120   60.6360 C   0  0  0  0  0  0  0  0  0  0  0  0
  128.1930  126.7080   62.6610 N   0  0  0  0  0  0  0  0  0  0  0  0
  127.2030  127.1890   61.6800 C   0  0  0  0  0  0  0  0  0  0  0  0
  126.3720  128.3550   62.2650 C   0  0  0  0  0  0  0  0  0  0  0  0
  127.2420  129.4940   62.6040 N   0  0  0  0  0  0  0  0  0  0  0  0
  126.4770  130.6650   63.0910 C   0  0  1  0  0  0  0  0  0  0  0  0
  125.7380  131.4770   62.0050 C   0  0  0  0  0  0  0  0  0  0  0  0
  124.6440  130.8630   61.3810 C   0  0  0  0  0  0  0  0  0  0  0  0
  123.9060  131.5270   60.4010 C   0  0  0  0  0  0  0  0  0  0  0  0
  124.2580  132.8200   60.0260 C   0  0  0  0  0  0  0  0  0  0  0  0
  125.3520  133.4420   60.6220 C   0  0  0  0  0  0  0  0  0  0  0  0
  126.0990  132.7840   61.6020 C   0  0  0  0  0  0  0  0  0  0  0  0
  127.4810  133.6150   62.2330 Cl  0  0  0  0  0  0  0  0  0  0  0  0
  125.5200  130.3240   64.2360 C   0  0  0  0  0  0  0  0  0  0  0  0
  124.2230  130.1600   64.1210 N   0  0  0  0  0  0  0  0  0  0  0  0
  123.7620  129.8490   65.3960 N   0  0  0  0  0  0  0  0  0  0  0  0
  124.8170  129.8130   66.2840 N   0  0  0  0  0  0  0  0  0  0  0  0
  125.8960  130.0880   65.5420 N   0  0  0  0  0  0  0  0  0  0  0  0
  127.2130  130.1580   66.1650 C   0  0  0  0  0  0  0  0  0  0  0  0
  127.2100  129.4130   67.5120 C   0  0  0  0  0  0  0  0  0  0  0  0
  128.0730  128.1610   67.4780 C   0  0  0  0  0  0  0  0  0  0  0  0
  128.1940  127.3660   68.6210 C   0  0  0  0  0  0  0  0  0  0  0  0
  128.9790  126.2160   68.5880 C   0  0  0  0  0  0  0  0  0  0  0  0
  129.6400  125.8660   67.4110 C   0  0  0  0  0  0  0  0  0  0  0  0
  129.5220  126.6550   66.2680 C   0  0  0  0  0  0  0  0  0  0  0  0
  128.7370  127.8040   66.3010 C   0  0  0  0  0  0  0  0  0  0  0  0
  128.2260  129.0100   63.5880 C   0  0  0  0  0  0  0  0  0  0  0  0
  129.0600  127.8510   62.9940 C   0  0  0  0  0  0  0  0  0  0  0  0
  133.3173  125.1509   63.8222 H   0  0  0  0  0  0  0  0  0  0  0  0
  132.6512  123.4819   65.5450 H   0  0  0  0  0  0  0  0  0  0  0  0
  130.2748  122.7468   65.7132 H   0  0  0  0  0  0  0  0  0  0  0  0
  128.5711  123.6746   64.1597 H   0  0  0  0  0  0  0  0  0  0  0  0
  129.4331  125.8595   61.2483 H   0  0  0  0  0  0  0  0  0  0  0  0
  129.5099  123.2898   59.2318 H   0  0  0  0  0  0  0  0  0  0  0  0
  130.3562  123.6109   60.7902 H   0  0  0  0  0  0  0  0  0  0  0  0
  129.1764  121.0667   61.1278 H   0  0  0  0  0  0  0  0  0  0  0  0
  129.8289  121.0742   59.4322 H   0  0  0  0  0  0  0  0  0  0  0  0
  131.3861  123.1872   62.0080 H   0  0  0  0  0  0  0  0  0  0  0  0
  133.7001  122.8059   62.8593 H   0  0  0  0  0  0  0  0  0  0  0  0
  134.9012  120.7019   62.2829 H   0  0  0  0  0  0  0  0  0  0  0  0
  133.8088  118.9742   60.8612 H   0  0  0  0  0  0  0  0  0  0  0  0
  131.4933  119.3518   60.0073 H   0  0  0  0  0  0  0  0  0  0  0  0
  127.7284  127.5373   60.7785 H   0  0  0  0  0  0  0  0  0  0  0  0
  126.5226  126.3613   61.4308 H   0  0  0  0  0  0  0  0  0  0  0  0
  125.6282  128.6773   61.5214 H   0  0  0  0  0  0  0  0  0  0  0  0
  125.8702  128.0079   63.1803 H   0  0  0  0  0  0  0  0  0  0  0  0
  127.2701  131.3236   63.4746 H   0  0  0  0  0  0  0  0  0  0  0  0
  124.3621  129.8395   61.6689 H   0  0  0  0  0  0  0  0  0  0  0  0
  123.0477  131.0296   59.9257 H   0  0  0  0  0  0  0  0  0  0  0  0
  123.6729  133.3499   59.2599 H   0  0  0  0  0  0  0  0  0  0  0  0
  125.6308  134.4618   60.3181 H   0  0  0  0  0  0  0  0  0  0  0  0
  127.9549  129.6960   65.4970 H   0  0  0  0  0  0  0  0  0  0  0  0
  127.4684  131.2133   66.3416 H   0  0  0  0  0  0  0  0  0  0  0  0
  127.5951  130.0877   68.2908 H   0  0  0  0  0  0  0  0  0  0  0  0
  126.1758  129.1046   67.7251 H   0  0  0  0  0  0  0  0  0  0  0  0
  127.6697  127.6483   69.5459 H   0  0  0  0  0  0  0  0  0  0  0  0
  129.0770  125.5873   69.4853 H   0  0  0  0  0  0  0  0  0  0  0  0
  130.2607  124.9582   67.3843 H   0  0  0  0  0  0  0  0  0  0  0  0
  130.0469  126.3709   65.3440 H   0  0  0  0  0  0  0  0  0  0  0  0
  128.6393  128.4302   65.4020 H   0  0  0  0  0  0  0  0  0  0  0  0
  128.8984  129.8357   63.8639 H   0  0  0  0  0  0  0  0  0  0  0  0
  127.6906  128.6443   64.4766 H   0  0  0  0  0  0  0  0  0  0  0  0
  129.5654  128.1997   62.0813 H   0  0  0  0  0  0  0  0  0  0  0  0
  129.8019  127.5288   63.7395 H   0  0  0  0  0  0  0  0  0  0  0  0
  1  2  1  0
  2  3  2  0
  3  4  1  0
  4  5  2  0
  5  6  1  0
  6  7  2  0
  7  8  1  0
  8  9  1  0
  9 10  2  0
 10 11  1  0
 11 12  2  0
 12 13  1  0
 13 14  1  0
 14 15  1  0
 15 16  1  0
 16 17  2  0
 17 18  1  0
 18 19  2  0
 19 20  1  0
 20 21  2  0
  8 22  1  0
 22 23  1  0
 23 24  1  0
 24 25  1  0
 25 26  1  0
 26 27  1  0
 27 28  2  0
 28 29  1  0
 29 30  2  0
 30 31  1  0
 31 32  2  0
 32 33  1  0
 26 34  1  0
 34 35  2  0
 35 36  1  0
 36 37  2  0
 37 38  1  0
 38 39  1  0
 39 40  1  0
 40 41  1  0
 41 42  2  0
 42 43  1  0
 43 44  2  0
 44 45  1  0
 45 46  2  0
 25 47  1  0
 47 48  1  0
  7  2  1  0
 13  9  1  0
 21 16  1  0
 48 22  1  0
 32 27  1  0
 38 34  1  0
 46 41  1  0
  3 49  1  0
  4 50  1  0
  5 51  1  0
  6 52  1  0
  8 53  1  6
 14 54  1  0
 14 55  1  0
 15 56  1  0
 15 57  1  0
 17 58  1  0
 18 59  1  0
 19 60  1  0
 20 61  1  0
 21 62  1  0
 23 63  1  0
 23 64  1  0
 24 65  1  0
 24 66  1  0
 26 67  1  1
 28 68  1  0
 29 69  1  0
 30 70  1  0
 31 71  1  0
 39 72  1  0
 39 73  1  0
 40 74  1  0
 40 75  1  0
 42 76  1  0
 43 77  1  0
 44 78  1  0
 45 79  1  0
 46 80  1  0
 47 81  1  0
 47 82  1  0
 48 83  1  0
 48 84  1  0
M  END
>  <Binding energies>  (1) 
[-11.78]

>  <Ligand effiencies>  (1) 
[-0.24541666666666664]

>  <Interactions>  (1) 
["V-B:TYR:539:CE2:9847, V-B:TYR:539:CD2:9845, V-A:LEU:475:CD2:4258, H-B:ALA:541:N:9862, V-A:ASP:366:CG:3212, V-A:ILE:369:CD1:3238, V-A:ILE:369:CG2:3236, H-B:ARG:545:NH2:9899, V-A:GLU:543:CD:4908, V-A:GLU:543:CG:4907, V-B:HIS:456:CE1:9041, V-B:GLU:543:CB:9877, V-A:TYR:484:CZ:4346, V-A:HIS:456:CE1:4069, V-B:GLU:543:CG:9878, V-B:GLU:543:CD:9879, V-A:TYR:484:CE1:4344, V-A:TYR:539:CE2:4876, V-A:TYR:539:CD2:4874, V-A:ALA:541:CB:4892, V-B:ILE:369:CB:8207, V-B:ASP:366:CB:8183, V-B:ILE:369:CG2:8208, V-B:ASP:366:CG:8184, H-B:TYR:484:OH:9319, H-B:GLY:454:N:9021, H-B:ARG:545:NE:9895, V-B:ILE:369:CD1:8210, V-A:TRP:381:CH2:3371, V-A:TRP:381:CZ2:3369, H-B:ARG:545:NH1:9898"]

$$$$
RR14_Rahimova_2017
     RDKit          3D

 76 80  0  0  0  0  0  0  0  0999 V2000
  130.2810  119.2640   60.9360 C   0  0  0  0  0  0  0  0  0  0  0  0
  131.4470  119.8770   60.3960 O   0  0  0  0  0  0  0  0  0  0  0  0
  131.8510  121.1030   60.8890 C   0  0  0  0  0  0  0  0  0  0  0  0
  131.1940  122.2250   60.3830 C   0  0  0  0  0  0  0  0  0  0  0  0
  131.5490  123.5030   60.8030 C   0  0  0  0  0  0  0  0  0  0  0  0
  132.5770  123.6720   61.7330 C   0  0  0  0  0  0  0  0  0  0  0  0
  133.0140  125.0730   62.1450 C   0  0  0  0  0  0  0  0  0  0  0  0
  133.1840  125.2240   63.5900 N   0  0  0  0  0  0  0  0  0  0  0  0
  134.4090  125.2910   64.1230 N   0  0  0  0  0  0  0  0  0  0  0  0
  134.1940  125.4000   65.4830 N   0  0  0  0  0  0  0  0  0  0  0  0
  132.8300  125.3900   65.7540 N   0  0  0  0  0  0  0  0  0  0  0  0
  132.2360  125.2750   64.5900 C   0  0  0  0  0  0  0  0  0  0  0  0
  130.7310  125.1960   64.3760 C   0  0  0  0  0  0  0  0  0  0  0  0
  130.3120  125.7910   63.0960 N   0  0  0  0  0  0  0  0  0  0  0  0
  128.9740  125.3400   62.6930 C   0  0  0  0  0  0  0  0  0  0  0  0
  128.8000  123.8060   62.7530 C   0  0  0  0  0  0  0  0  0  0  0  0
  128.2990  123.1870   61.4310 C   0  0  0  0  0  0  0  0  0  0  0  0
  126.8370  123.1300   61.3340 N   0  0  0  0  0  0  0  0  0  0  0  0
  126.3680  123.9490   60.2090 C   0  0  0  0  0  0  0  0  0  0  0  0
  124.8270  123.9520   60.1110 C   0  0  0  0  0  0  0  0  0  0  0  0
  124.2590  124.3610   61.3500 O   0  0  0  0  0  0  0  0  0  0  0  0
  124.6240  123.4990   62.4210 C   0  0  0  0  0  0  0  0  0  0  0  0
  126.1580  123.4830   62.5910 C   0  0  0  0  0  0  0  0  0  0  0  0
  130.3570  127.2580   63.1810 C   0  0  0  0  0  0  0  0  0  0  0  0
  129.0610  127.9450   63.6050 C   0  0  0  0  0  0  0  0  0  0  0  0
  128.7610  128.1270   64.9150 C   0  0  0  0  0  0  0  0  0  0  0  0
  127.4970  128.7520   65.3520 C   0  0  0  0  0  0  0  0  0  0  0  0
  127.1630  128.9740   66.6990 C   0  0  0  0  0  0  0  0  0  0  0  0
  128.1020  128.5760   67.8300 C   0  0  0  0  0  0  0  0  0  0  0  0
  125.9400  129.5760   67.0060 C   0  0  0  0  0  0  0  0  0  0  0  0
  125.0590  129.9550   65.9950 C   0  0  0  0  0  0  0  0  0  0  0  0
  125.3830  129.7410   64.6520 C   0  0  0  0  0  0  0  0  0  0  0  0
  124.4000  130.1680   63.5690 C   0  0  0  0  0  0  0  0  0  0  0  0
  126.6090  129.1370   64.3320 C   0  0  0  0  0  0  0  0  0  0  0  0
  126.9770  128.8980   62.9910 N   0  0  0  0  0  0  0  0  0  0  0  0
  128.1240  128.3280   62.5440 C   0  0  0  0  0  0  0  0  0  0  0  0
  128.3110  128.1650   61.3380 O   0  0  0  0  0  0  0  0  0  0  0  0
  133.2210  122.5540   62.2670 C   0  0  0  0  0  0  0  0  0  0  0  0
  132.8650  121.2760   61.8460 C   0  0  0  0  0  0  0  0  0  0  0  0
  130.3289  119.2892   62.0347 H   0  0  0  0  0  0  0  0  0  0  0  0
  129.3887  119.8096   60.5953 H   0  0  0  0  0  0  0  0  0  0  0  0
  130.2246  118.2196   60.5953 H   0  0  0  0  0  0  0  0  0  0  0  0
  130.3880  122.0980   59.6453 H   0  0  0  0  0  0  0  0  0  0  0  0
  131.0199  124.3803   60.4025 H   0  0  0  0  0  0  0  0  0  0  0  0
  133.9729  125.2979   61.6551 H   0  0  0  0  0  0  0  0  0  0  0  0
  132.2183  125.7668   61.8361 H   0  0  0  0  0  0  0  0  0  0  0  0
  130.4277  124.1387   64.3897 H   0  0  0  0  0  0  0  0  0  0  0  0
  130.2480  125.7656   65.1836 H   0  0  0  0  0  0  0  0  0  0  0  0
  128.2339  125.8014   63.3633 H   0  0  0  0  0  0  0  0  0  0  0  0
  128.8312  125.6424   61.6451 H   0  0  0  0  0  0  0  0  0  0  0  0
  129.7724  123.3555   63.0010 H   0  0  0  0  0  0  0  0  0  0  0  0
  128.0350  123.5985   63.5157 H   0  0  0  0  0  0  0  0  0  0  0  0
  128.6809  123.7921   60.5955 H   0  0  0  0  0  0  0  0  0  0  0  0
  128.6682  122.1514   61.3959 H   0  0  0  0  0  0  0  0  0  0  0  0
  126.7187  124.9821   60.3491 H   0  0  0  0  0  0  0  0  0  0  0  0
  126.7708  123.5197   59.2798 H   0  0  0  0  0  0  0  0  0  0  0  0
  124.5141  124.6490   59.3196 H   0  0  0  0  0  0  0  0  0  0  0  0
  124.4794  122.9357   59.8736 H   0  0  0  0  0  0  0  0  0  0  0  0
  124.1588  123.8575   63.3511 H   0  0  0  0  0  0  0  0  0  0  0  0
  124.2764  122.4798   62.1968 H   0  0  0  0  0  0  0  0  0  0  0  0
  126.4926  124.4812   62.9097 H   0  0  0  0  0  0  0  0  0  0  0  0
  126.4134  122.7245   63.3456 H   0  0  0  0  0  0  0  0  0  0  0  0
  131.1353  127.5290   63.9096 H   0  0  0  0  0  0  0  0  0  0  0  0
  130.5564  127.6079   62.1574 H   0  0  0  0  0  0  0  0  0  0  0  0
  129.4831  127.7982   65.6768 H   0  0  0  0  0  0  0  0  0  0  0  0
  127.6189  128.7807   68.7968 H   0  0  0  0  0  0  0  0  0  0  0  0
  128.3321  127.5030   67.7550 H   0  0  0  0  0  0  0  0  0  0  0  0
  129.0331  129.1568   67.7550 H   0  0  0  0  0  0  0  0  0  0  0  0
  125.6696  129.7527   68.0575 H   0  0  0  0  0  0  0  0  0  0  0  0
  124.1002  130.4267   66.2560 H   0  0  0  0  0  0  0  0  0  0  0  0
  123.4873  130.5645   64.0379 H   0  0  0  0  0  0  0  0  0  0  0  0
  124.8593  130.9477   62.9436 H   0  0  0  0  0  0  0  0  0  0  0  0
  124.1437  129.3001   62.9436 H   0  0  0  0  0  0  0  0  0  0  0  0
  126.3310  129.1660   62.2640 H   0  0  0  0  0  0  0  0  0  0  0  0
  134.0109  122.6835   63.0215 H   0  0  0  0  0  0  0  0  0  0  0  0
  133.3794  120.3982   62.2641 H   0  0  0  0  0  0  0  0  0  0  0  0
  1  2  1  0
  2  3  1  0
  3  4  2  0
  4  5  1  0
  5  6  2  0
  6  7  1  0
  7  8  1  0
  8  9  1  0
  9 10  2  0
 10 11  1  0
 11 12  2  0
 12 13  1  0
 13 14  1  0
 14 15  1  0
 15 16  1  0
 16 17  1  0
 17 18  1  0
 18 19  1  0
 19 20  1  0
 20 21  1  0
 21 22  1  0
 22 23  1  0
 14 24  1  0
 24 25  1  0
 25 26  2  0
 26 27  1  0
 27 28  2  0
 28 29  1  0
 28 30  1  0
 30 31  2  0
 31 32  1  0
 32 33  1  0
 32 34  2  0
 34 35  1  0
 35 36  1  0
 36 37  2  0
  6 38  1  0
 38 39  2  0
 39  3  1  0
 12  8  1  0
 23 18  1  0
 36 25  1  0
 34 27  1  0
  1 40  1  0
  1 41  1  0
  1 42  1  0
  4 43  1  0
  5 44  1  0
  7 45  1  0
  7 46  1  0
 13 47  1  0
 13 48  1  0
 15 49  1  0
 15 50  1  0
 16 51  1  0
 16 52  1  0
 17 53  1  0
 17 54  1  0
 19 55  1  0
 19 56  1  0
 20 57  1  0
 20 58  1  0
 22 59  1  0
 22 60  1  0
 23 61  1  0
 23 62  1  0
 24 63  1  0
 24 64  1  0
 26 65  1  0
 29 66  1  0
 29 67  1  0
 29 68  1  0
 30 69  1  0
 31 70  1  0
 33 71  1  0
 33 72  1  0
 33 73  1  0
 35 74  1  0
 38 75  1  0
 39 76  1  0
M  END
>  <Binding energies>  (1) 
[-9.43]

>  <Ligand effiencies>  (1) 
[-0.23575]

>  <Interactions>  (1) 
["V-A:PRO:482:CG:4326, H-B:ASP:366:OD2:8186, V-B:TYR:539:CE2:9847, V-B:PRO:540:CA:9854, V-B:TYR:539:CD2:9845, V-B:PRO:540:CB:9856, V-B:ALA:541:CB:9863, V-A:LEU:475:CD2:4258, V-B:ALA:541:CA:9861, H-B:ALA:541:N:9862, V-A:PRO:482:CB:4325, H-A:ARG:545:NH2:4928, H-A:GLY:454:N:4049, H-A:ARG:545:NE:4924, H-A:ARG:545:NH1:4927, V-A:ASP:366:CG:3212, V-A:ILE:369:CD1:3238, V-A:ILE:369:CG2:3236, H-A:TYR:484:OH:4347, V-A:ARG:545:CZ:4926, H-B:ARG:545:NH2:9899, V-A:GLU:543:CD:4908, V-A:GLU:543:CG:4907, V-B:HIS:456:CE1:9041, V-B:GLU:543:CG:9878, V-B:GLU:543:CD:9879, V-B:ASN:362:CB:8147, V-B:ARG:545:CZ:9897, V-B:ALA:541:C:9859, V-A:TRP:381:CH2:3371, V-A:TRP:381:CZ2:3369, V-B:ASN:362:CG:8148"]

$$$$
RR15_Rahimova_2017
     RDKit          3D

 85 89  0  0  0  0  0  0  0  0999 V2000
  130.0290  125.5490   74.5550 C   0  0  0  0  0  0  0  0  0  0  0  0
  128.8930  126.1340   73.9280 O   0  0  0  0  0  0  0  0  0  0  0  0
  128.8980  126.3360   72.5590 C   0  0  0  0  0  0  0  0  0  0  0  0
  128.2490  125.4900   71.6460 C   0  0  0  0  0  0  0  0  0  0  0  0
  128.2950  125.7500   70.2780 C   0  0  0  0  0  0  0  0  0  0  0  0
  128.9910  126.8580   69.7830 C   0  0  0  0  0  0  0  0  0  0  0  0
  129.0470  127.1340   68.3060 C   0  0  0  0  0  0  0  0  0  0  0  0
  128.4780  128.1940   67.7490 N   0  0  0  0  0  0  0  0  0  0  0  0
  128.7330  128.0990   66.3970 N   0  0  0  0  0  0  0  0  0  0  0  0
  129.4740  126.9950   66.2940 N   0  0  0  0  0  0  0  0  0  0  0  0
  129.8360  126.4240   64.9990 C   0  0  0  0  0  0  0  0  0  0  0  0
  129.2080  127.1370   63.7760 C   0  0  0  0  0  0  0  0  0  0  0  0
  128.3470  127.9960   63.9810 O   0  0  0  0  0  0  0  0  0  0  0  0
  129.6380  126.8250   62.5140 N   0  0  0  0  0  0  0  0  0  0  0  0
  128.9680  125.7820   61.7110 C   0  0  0  0  0  0  0  0  0  0  0  0
  129.1280  124.3600   62.2900 C   0  0  0  0  0  0  0  0  0  0  0  0
  128.5890  123.2270   61.3840 C   0  0  0  0  0  0  0  0  0  0  0  0
  127.1260  123.1380   61.3570 N   0  0  0  0  0  0  0  0  0  0  0  0
  126.4930  123.4740   62.6410 C   0  0  0  0  0  0  0  0  0  0  0  0
  124.9530  123.4490   62.5350 C   0  0  0  0  0  0  0  0  0  0  0  0
  124.5190  124.3020   61.4820 O   0  0  0  0  0  0  0  0  0  0  0  0
  125.0490  123.9160   60.2180 C   0  0  0  0  0  0  0  0  0  0  0  0
  126.5920  123.9570   60.2600 C   0  0  0  0  0  0  0  0  0  0  0  0
  130.6670  127.6190   61.7760 C   0  0  2  0  0  0  0  0  0  0  0  0
  130.1840  129.0380   61.3410 C   0  0  0  0  0  0  0  0  0  0  0  0
  129.0190  129.3950   61.5170 O   0  0  0  0  0  0  0  0  0  0  0  0
  131.1270  129.8360   60.8100 N   0  0  0  0  0  0  0  0  0  0  0  0
  130.9350  131.2300   60.4270 C   0  0  0  0  0  0  0  0  0  0  0  0
  132.0050  131.6830   59.4160 C   0  0  2  0  0  0  0  0  0  0  0  0
  131.4710  132.4290   58.1810 C   0  0  0  0  0  0  0  0  0  0  0  0
  131.4780  131.3950   57.0810 C   0  0  0  0  0  0  0  0  0  0  0  0
  132.6900  130.5620   57.4600 C   0  0  0  0  0  0  0  0  0  0  0  0
  132.5770  130.4830   58.8770 O   0  0  0  0  0  0  0  0  0  0  0  0
  131.3570  126.7600   60.7240 C   0  0  0  0  0  0  0  0  0  0  0  0
  132.2310  125.7570   61.1610 C   0  0  0  0  0  0  0  0  0  0  0  0
  132.8900  124.9420   60.2450 C   0  0  0  0  0  0  0  0  0  0  0  0
  132.6780  125.1230   58.8810 C   0  0  0  0  0  0  0  0  0  0  0  0
  133.3170  124.3310   57.9910 F   0  0  0  0  0  0  0  0  0  0  0  0
  131.8110  126.1140   58.4280 C   0  0  0  0  0  0  0  0  0  0  0  0
  131.1540  126.9290   59.3450 C   0  0  0  0  0  0  0  0  0  0  0  0
  129.6610  126.3420   67.4470 N   0  0  0  0  0  0  0  0  0  0  0  0
  129.6360  127.7010   70.6970 C   0  0  0  0  0  0  0  0  0  0  0  0
  129.5960  127.4540   72.0800 C   0  0  0  0  0  0  0  0  0  0  0  0
  130.2130  128.2600   73.0220 O   0  0  0  0  0  0  0  0  0  0  0  0
  130.1380  129.6750   72.8940 C   0  0  0  0  0  0  0  0  0  0  0  0
  129.9155  125.6075   75.6476 H   0  0  0  0  0  0  0  0  0  0  0  0
  130.1135  124.4952   74.2510 H   0  0  0  0  0  0  0  0  0  0  0  0
  130.9359  126.0922   74.2510 H   0  0  0  0  0  0  0  0  0  0  0  0
  127.6981  124.6122   72.0147 H   0  0  0  0  0  0  0  0  0  0  0  0
  127.7780  125.0762   69.5790 H   0  0  0  0  0  0  0  0  0  0  0  0
  130.9303  126.4715   64.8980 H   0  0  0  0  0  0  0  0  0  0  0  0
  129.4436  125.3964   64.9933 H   0  0  0  0  0  0  0  0  0  0  0  0
  127.8949  126.0181   61.6597 H   0  0  0  0  0  0  0  0  0  0  0  0
  129.4437  125.7824   60.7192 H   0  0  0  0  0  0  0  0  0  0  0  0
  130.1991  124.1794   62.4634 H   0  0  0  0  0  0  0  0  0  0  0  0
  128.5287  124.3314   63.2120 H   0  0  0  0  0  0  0  0  0  0  0  0
  128.9449  123.4039   60.3583 H   0  0  0  0  0  0  0  0  0  0  0  0
  128.9605  122.2790   61.8003 H   0  0  0  0  0  0  0  0  0  0  0  0
  126.8112  122.7429   63.3988 H   0  0  0  0  0  0  0  0  0  0  0  0
  126.8035  124.4907   62.9238 H   0  0  0  0  0  0  0  0  0  0  0  0
  124.6195  122.4209   62.3306 H   0  0  0  0  0  0  0  0  0  0  0  0
  124.5222  123.8020   63.4836 H   0  0  0  0  0  0  0  0  0  0  0  0
  124.7177  122.8944   59.9803 H   0  0  0  0  0  0  0  0  0  0  0  0
  124.6892  124.6128   59.4466 H   0  0  0  0  0  0  0  0  0  0  0  0
  126.9852  123.5758   59.3060 H   0  0  0  0  0  0  0  0  0  0  0  0
  126.9038  124.9988   60.4256 H   0  0  0  0  0  0  0  0  0  0  0  0
  131.4697  127.8929   62.4764 H   0  0  0  0  0  0  0  0  0  0  0  0
  132.0680  129.4790   60.7250 H   0  0  0  0  0  0  0  0  0  0  0  0
  129.9402  131.3430   59.9713 H   0  0  0  0  0  0  0  0  0  0  0  0
  131.0220  131.8538   61.3288 H   0  0  0  0  0  0  0  0  0  0  0  0
  132.6785  132.3593   59.9628 H   0  0  0  0  0  0  0  0  0  0  0  0
  130.4505  132.7980   58.3610 H   0  0  0  0  0  0  0  0  0  0  0  0
  132.0794  133.3103   57.9298 H   0  0  0  0  0  0  0  0  0  0  0  0
  130.5575  130.7928   57.0891 H   0  0  0  0  0  0  0  0  0  0  0  0
  131.5227  131.8181   56.0666 H   0  0  0  0  0  0  0  0  0  0  0  0
  132.6455  129.5633   57.0011 H   0  0  0  0  0  0  0  0  0  0  0  0
  133.6429  130.9928   57.1189 H   0  0  0  0  0  0  0  0  0  0  0  0
  132.3984  125.6118   62.2384 H   0  0  0  0  0  0  0  0  0  0  0  0
  133.5759  124.1577   60.5976 H   0  0  0  0  0  0  0  0  0  0  0  0
  131.6460  126.2522   57.3493 H   0  0  0  0  0  0  0  0  0  0  0  0
  130.4699  127.7122   58.9864 H   0  0  0  0  0  0  0  0  0  0  0  0
  130.1868  128.5769   70.3236 H   0  0  0  0  0  0  0  0  0  0  0  0
  130.1137  130.1328   73.8939 H   0  0  0  0  0  0  0  0  0  0  0  0
  131.0180  130.0406   72.3446 H   0  0  0  0  0  0  0  0  0  0  0  0
  129.2243  129.9455   72.3446 H   0  0  0  0  0  0  0  0  0  0  0  0
  1  2  1  0
  2  3  1  0
  3  4  2  0
  4  5  1  0
  5  6  2  0
  6  7  1  0
  7  8  1  0
  8  9  2  0
  9 10  1  0
 10 11  1  0
 11 12  1  0
 12 13  2  0
 12 14  1  0
 14 15  1  0
 15 16  1  0
 16 17  1  0
 17 18  1  0
 18 19  1  0
 19 20  1  0
 20 21  1  0
 21 22  1  0
 22 23  1  0
 14 24  1  0
 24 25  1  0
 25 26  2  0
 25 27  1  0
 27 28  1  0
 28 29  1  0
 29 30  1  0
 30 31  1  0
 31 32  1  0
 32 33  1  0
 24 34  1  0
 34 35  2  0
 35 36  1  0
 36 37  2  0
 37 38  1  0
 37 39  1  0
 39 40  2  0
 10 41  1  0
  6 42  1  0
 42 43  2  0
 43 44  1  0
 44 45  1  0
 43  3  1  0
 41  7  2  0
 23 18  1  0
 33 29  1  0
 40 34  1  0
  1 46  1  0
  1 47  1  0
  1 48  1  0
  4 49  1  0
  5 50  1  0
 11 51  1  0
 11 52  1  0
 15 53  1  0
 15 54  1  0
 16 55  1  0
 16 56  1  0
 17 57  1  0
 17 58  1  0
 19 59  1  0
 19 60  1  0
 20 61  1  0
 20 62  1  0
 22 63  1  0
 22 64  1  0
 23 65  1  0
 23 66  1  0
 24 67  1  1
 27 68  1  0
 28 69  1  0
 28 70  1  0
 29 71  1  1
 30 72  1  0
 30 73  1  0
 31 74  1  0
 31 75  1  0
 32 76  1  0
 32 77  1  0
 35 78  1  0
 36 79  1  0
 39 80  1  0
 40 81  1  0
 42 82  1  0
 45 83  1  0
 45 84  1  0
 45 85  1  0
M  END
>  <Binding energies>  (1) 
[-9.25]

>  <Ligand effiencies>  (1) 
[-0.20108695652173914]

>  <Interactions>  (1) 
["V-B:TYR:539:CE2:9847, V-B:PRO:540:CA:9854, V-B:PRO:540:CB:9856, V-B:ALA:541:CB:9863, V-B:ALA:541:CA:9861, H-B:ALA:541:N:9862, H-A:ASP:366:OD2:3214, V-B:TYR:539:CZ:9848, V-A:ASP:366:CG:3212, V-A:ASP:366:CB:3211, V-A:ASP:366:CA:3209, V-A:ILE:369:CG2:3236, H-B:ARG:545:NH2:9899, V-A:GLU:543:CD:4908, V-B:HIS:456:CE1:9041, V-B:GLU:543:CB:9877, V-A:HIS:456:CE1:4069, V-B:GLU:543:CG:9878, V-A:ASP:366:C:3207, V-B:GLU:543:CD:9879, V-A:HIS:456:CD2:4067, V-A:PRO:540:N:4884, V-A:LEU:363:CD1:3188, V-A:TYR:539:C:4867, V-A:PRO:540:CA:4883, V-A:TYR:531:CE2:4793, V-B:ASN:362:CB:8147, V-A:TYR:531:CZ:4794, V-A:PRO:540:CB:4885, V-B:ALA:541:C:9859, H-B:LYS:547:NZ:9922, V-B:GLU:543:C:9873, V-A:ILE:369:CB:3235, H-A:LYS:547:NZ:4951, V-B:ASN:362:CG:8148"]

$$$$
RR16_Rahimova_2017
     RDKit          3D

 80 85  0  0  0  0  0  0  0  0999 V2000
  131.5190  119.6970   59.9950 O   0  0  0  0  0  0  0  0  0  0  0  0
  130.6320  120.0690   61.1040 S   0  0  0  0  0  0  0  0  0  0  0  0
  130.1200  119.0530   62.0310 O   0  0  0  0  0  0  0  0  0  0  0  0
  129.2530  120.9280   60.4160 N   0  0  0  0  0  0  0  0  0  0  0  0
  129.1340  122.4000   60.5410 C   0  0  0  0  0  0  0  0  0  0  0  0
  128.6300  122.9860   59.1960 C   0  0  0  0  0  0  0  0  0  0  0  0
  128.4930  124.5180   59.1000 C   0  0  0  0  0  0  0  0  0  0  0  0
  129.2180  125.2820   60.2210 C   0  0  0  0  0  0  0  0  0  0  0  0
  128.4950  125.3230   61.5810 C   0  0  0  0  0  0  0  0  0  0  0  0
  128.5810  124.0620   62.4630 C   0  0  0  0  0  0  0  0  0  0  0  0
  128.2640  122.7180   61.7790 C   0  0  0  0  0  0  0  0  0  0  0  0
  131.4950  121.3060   62.0650 C   0  0  0  0  0  0  0  0  0  0  0  0
  131.0260  121.6700   63.3290 C   0  0  0  0  0  0  0  0  0  0  0  0
  131.6340  122.7190   64.0140 C   0  0  0  0  0  0  0  0  0  0  0  0
  132.7060  123.3980   63.4320 C   0  0  0  0  0  0  0  0  0  0  0  0
  133.3970  124.8370   64.2460 S   0  0  0  0  0  0  0  0  0  0  0  0
  134.4560  125.3660   63.3770 O   0  0  0  0  0  0  0  0  0  0  0  0
  133.6960  124.4560   65.6320 O   0  0  0  0  0  0  0  0  0  0  0  0
  132.0620  126.0050   64.2700 N   0  0  0  0  0  0  0  0  0  0  0  0
  131.5990  126.4390   62.9270 C   0  0  0  0  0  0  0  0  0  0  0  0
  130.6720  127.6660   63.0450 C   0  0  0  0  0  0  0  0  0  0  0  0
  129.5060  127.4120   64.0330 C   0  0  0  0  0  0  0  0  0  0  0  0
  128.6000  128.6340   64.2010 C   0  0  0  0  0  0  0  0  0  0  0  0
  127.8010  128.7560   65.3460 C   0  0  0  0  0  0  0  0  0  0  0  0
  126.9660  129.8570   65.5440 C   0  0  0  0  0  0  0  0  0  0  0  0
  126.1940  129.9610   66.6720 O   0  0  0  0  0  0  0  0  0  0  0  0
  126.9430  130.8560   64.5590 C   0  0  0  0  0  0  0  0  0  0  0  0
  126.2520  132.0310   64.4900 N   0  0  0  0  0  0  0  0  0  0  0  0
  126.6180  132.6580   63.3190 N   0  0  0  0  0  0  0  0  0  0  0  0
  127.4820  131.8620   62.6610 N   0  0  0  0  0  0  0  0  0  0  0  0
  128.1020  132.3170   61.4230 C   0  0  0  0  0  0  0  0  0  0  0  0
  129.6140  132.1450   61.4250 C   0  0  0  0  0  0  0  0  0  0  0  0
  130.3270  132.2190   62.6260 C   0  0  0  0  0  0  0  0  0  0  0  0
  131.7110  132.0400   62.6340 C   0  0  0  0  0  0  0  0  0  0  0  0
  132.3890  131.7840   61.4420 C   0  0  0  0  0  0  0  0  0  0  0  0
  131.6830  131.7070   60.2410 C   0  0  0  0  0  0  0  0  0  0  0  0
  132.5170  131.3800   58.7650 Cl  0  0  0  0  0  0  0  0  0  0  0  0
  130.2990  131.8900   60.2320 C   0  0  0  0  0  0  0  0  0  0  0  0
  127.7470  130.7220   63.4020 C   0  0  0  0  0  0  0  0  0  0  0  0
  128.5810  129.6170   63.2010 C   0  0  0  0  0  0  0  0  0  0  0  0
  129.9980  126.8380   65.3880 C   0  0  0  0  0  0  0  0  0  0  0  0
  130.9550  125.6450   65.1950 C   0  0  0  0  0  0  0  0  0  0  0  0
  133.1990  123.0060   62.1860 C   0  0  0  0  0  0  0  0  0  0  0  0
  132.5900  121.9610   61.5000 C   0  0  0  0  0  0  0  0  0  0  0  0
  128.7920  120.4990   59.6090 H   0  0  0  0  0  0  0  0  0  0  0  0
  130.1016  122.8911   60.7216 H   0  0  0  0  0  0  0  0  0  0  0  0
  129.3332  122.6673   58.4125 H   0  0  0  0  0  0  0  0  0  0  0  0
  127.6044  122.6033   59.0877 H   0  0  0  0  0  0  0  0  0  0  0  0
  128.9090  124.8428   58.1349 H   0  0  0  0  0  0  0  0  0  0  0  0
  127.4220  124.7487   59.1985 H   0  0  0  0  0  0  0  0  0  0  0  0
  130.1981  124.8067   60.3741 H   0  0  0  0  0  0  0  0  0  0  0  0
  129.2754  126.3268   59.8816 H   0  0  0  0  0  0  0  0  0  0  0  0
  128.9196  126.1588   62.1564 H   0  0  0  0  0  0  0  0  0  0  0  0
  127.4282  125.4225   61.3320 H   0  0  0  0  0  0  0  0  0  0  0  0
  129.6054  124.0013   62.8593 H   0  0  0  0  0  0  0  0  0  0  0  0
  127.8004  124.1893   63.2275 H   0  0  0  0  0  0  0  0  0  0  0  0
  128.4118  121.9153   62.5165 H   0  0  0  0  0  0  0  0  0  0  0  0
  127.2272  122.7906   61.4188 H   0  0  0  0  0  0  0  0  0  0  0  0
  130.1806  121.1308   63.7813 H   0  0  0  0  0  0  0  0  0  0  0  0
  131.2708  123.0116   65.0102 H   0  0  0  0  0  0  0  0  0  0  0  0
  132.4715  126.7025   62.3111 H   0  0  0  0  0  0  0  0  0  0  0  0
  131.0400  125.6147   62.4601 H   0  0  0  0  0  0  0  0  0  0  0  0
  131.2606  128.5242   63.4016 H   0  0  0  0  0  0  0  0  0  0  0  0
  130.2422  127.8670   62.0526 H   0  0  0  0  0  0  0  0  0  0  0  0
  128.8772  126.6322   63.5785 H   0  0  0  0  0  0  0  0  0  0  0  0
  127.8327  127.9637   66.1084 H   0  0  0  0  0  0  0  0  0  0  0  0
  125.9920  130.8690   66.9110 H   0  0  0  0  0  0  0  0  0  0  0  0
  127.6832  131.7384   60.5864 H   0  0  0  0  0  0  0  0  0  0  0  0
  127.8902  133.3916   61.3210 H   0  0  0  0  0  0  0  0  0  0  0  0
  129.7949  132.4190   63.5677 H   0  0  0  0  0  0  0  0  0  0  0  0
  132.2676  132.1008   63.5808 H   0  0  0  0  0  0  0  0  0  0  0  0
  133.4799  131.6429   61.4489 H   0  0  0  0  0  0  0  0  0  0  0  0
  129.7450  131.8335   59.2834 H   0  0  0  0  0  0  0  0  0  0  0  0
  129.1973  129.5229   62.2947 H   0  0  0  0  0  0  0  0  0  0  0  0
  130.5249  127.6307   65.9394 H   0  0  0  0  0  0  0  0  0  0  0  0
  129.1193  126.4825   65.9462 H   0  0  0  0  0  0  0  0  0  0  0  0
  131.3772  125.3591   66.1697 H   0  0  0  0  0  0  0  0  0  0  0  0
  130.3913  124.8051   64.7627 H   0  0  0  0  0  0  0  0  0  0  0  0
  134.0663  123.5221   61.7484 H   0  0  0  0  0  0  0  0  0  0  0  0
  132.9701  121.6517   60.5152 H   0  0  0  0  0  0  0  0  0  0  0  0
  1  2  2  0
  2  3  2  0
  2  4  1  0
  4  5  1  0
  5  6  1  0
  6  7  1  0
  7  8  1  0
  8  9  1  0
  9 10  1  0
 10 11  1  0
  2 12  1  0
 12 13  2  0
 13 14  1  0
 14 15  2  0
 15 16  1  0
 16 17  2  0
 16 18  2  0
 16 19  1  0
 19 20  1  0
 20 21  1  0
 21 22  1  0
 22 23  1  0
 23 24  2  0
 24 25  1  0
 25 26  1  0
 25 27  2  0
 27 28  1  0
 28 29  2  0
 29 30  1  0
 30 31  1  0
 31 32  1  0
 32 33  2  0
 33 34  1  0
 34 35  2  0
 35 36  1  0
 36 37  1  0
 36 38  2  0
 30 39  1  0
 39 40  2  0
 22 41  1  0
 41 42  1  0
 15 43  1  0
 43 44  2  0
 11  5  1  0
 44 12  1  0
 42 19  1  0
 40 23  1  0
 39 27  1  0
 38 32  1  0
  4 45  1  0
  5 46  1  0
  6 47  1  0
  6 48  1  0
  7 49  1  0
  7 50  1  0
  8 51  1  0
  8 52  1  0
  9 53  1  0
  9 54  1  0
 10 55  1  0
 10 56  1  0
 11 57  1  0
 11 58  1  0
 13 59  1  0
 14 60  1  0
 20 61  1  0
 20 62  1  0
 21 63  1  0
 21 64  1  0
 22 65  1  0
 24 66  1  0
 26 67  1  0
 31 68  1  0
 31 69  1  0
 33 70  1  0
 34 71  1  0
 35 72  1  0
 38 73  1  0
 40 74  1  0
 41 75  1  0
 41 76  1  0
 42 77  1  0
 42 78  1  0
 43 79  1  0
 44 80  1  0
M  END
>  <Binding energies>  (1) 
[-9.49]

>  <Ligand effiencies>  (1) 
[-0.19770833333333335]

>  <Interactions>  (1) 
["V-B:TYR:539:CE2:9847, V-B:TYR:539:CD2:9845, V-B:ALA:541:CB:9863, V-A:LEU:475:CD2:4258, V-B:ALA:541:CA:9861, H-B:TYR:539:O:9839, H-B:ALA:541:N:9862, V-B:TYR:539:CZ:9848, H-A:ARG:545:NH2:4928, H-A:GLY:454:N:4049, H-A:ARG:545:NH1:4927, V-A:ILE:369:CD1:3238, V-A:ILE:369:CG2:3236, H-A:TYR:484:OH:4347, V-A:ARG:545:CZ:4926, V-A:GLU:543:CD:4908, V-A:GLU:543:CG:4907, V-B:GLU:543:CD:9879, V-A:PRO:540:CA:4883, V-A:PRO:540:CB:4885, V-A:LEU:475:CD1:4257, V-A:GLY:454:CA:4048, V-A:ALA:541:CB:4892, H-B:TYR:484:OH:9319, V-A:ALA:541:CA:4890, V-A:ALA:541:C:4888"]

$$$$
RR17_Rahimova_2017
     RDKit          3D

 63 66  0  0  0  0  0  0  0  0999 V2000
  129.4020  123.3180   73.8750 C   0  0  0  0  0  0  0  0  0  0  0  0
  129.7870  124.7490   74.2660 C   0  0  0  0  0  0  0  0  0  0  0  0
  128.8020  125.6430   73.7560 O   0  0  0  0  0  0  0  0  0  0  0  0
  128.9060  126.0950   72.4530 C   0  0  0  0  0  0  0  0  0  0  0  0
  128.1940  125.3830   71.4890 C   0  0  0  0  0  0  0  0  0  0  0  0
  128.2380  125.7620   70.1510 C   0  0  0  0  0  0  0  0  0  0  0  0
  129.0020  126.8670   69.7480 C   0  0  0  0  0  0  0  0  0  0  0  0
  129.0300  127.2540   68.2980 C   0  0  0  0  0  0  0  0  0  0  0  0
  128.1210  127.8990   67.7680 O   0  0  0  0  0  0  0  0  0  0  0  0
  130.2520  126.7920   67.4720 C   0  0  0  0  0  0  0  0  0  0  0  0
  129.9500  125.2010   66.6240 S   0  0  0  0  0  0  0  0  0  0  0  0
  131.4950  125.0070   65.7810 C   0  0  0  0  0  0  0  0  0  0  0  0
  132.6720  125.3150   66.2720 N   0  0  0  0  0  0  0  0  0  0  0  0
  133.6270  125.0090   65.3100 N   0  0  0  0  0  0  0  0  0  0  0  0
  132.9900  124.5240   64.2750 C   0  0  0  0  0  0  0  0  0  0  0  0
  133.6600  124.0470   62.9940 C   0  0  0  0  0  0  0  0  0  0  0  0
  133.7120  125.0600   61.9430 N   0  0  0  0  0  0  0  0  0  0  0  0
  132.7350  125.1950   60.9400 C   0  0  0  0  0  0  0  0  0  0  0  0
  132.7670  124.2830   59.8850 C   0  0  0  0  0  0  0  0  0  0  0  0
  131.8320  124.3640   58.8570 C   0  0  0  0  0  0  0  0  0  0  0  0
  130.8500  125.3580   58.8740 C   0  0  0  0  0  0  0  0  0  0  0  0
  129.8350  125.4360   57.7330 C   0  0  0  0  0  0  0  0  0  0  0  0
  128.9320  126.4000   57.9260 F   0  0  0  0  0  0  0  0  0  0  0  0
  130.4540  125.6780   56.5760 F   0  0  0  0  0  0  0  0  0  0  0  0
  129.1920  124.2730   57.6400 F   0  0  0  0  0  0  0  0  0  0  0  0
  130.8120  126.2690   59.9350 C   0  0  0  0  0  0  0  0  0  0  0  0
  131.7450  126.1870   60.9630 C   0  0  0  0  0  0  0  0  0  0  0  0
  131.6300  124.5050   64.5020 N   0  0  0  0  0  0  0  0  0  0  0  0
  130.6200  124.0500   63.6420 C   0  0  0  0  0  0  0  0  0  0  0  0
  129.5350  124.8780   63.3560 C   0  0  0  0  0  0  0  0  0  0  0  0
  128.5310  124.4240   62.5050 C   0  0  0  0  0  0  0  0  0  0  0  0
  128.6090  123.1420   61.9380 C   0  0  0  0  0  0  0  0  0  0  0  0
  127.6630  122.6090   61.0840 O   0  0  0  0  0  0  0  0  0  0  0  0
  128.0060  122.3810   59.7210 C   0  0  0  0  0  0  0  0  0  0  0  0
  129.7020  122.3260   62.2370 C   0  0  0  0  0  0  0  0  0  0  0  0
  130.7100  122.7730   63.0870 C   0  0  0  0  0  0  0  0  0  0  0  0
  129.7170  127.5830   70.7190 C   0  0  0  0  0  0  0  0  0  0  0  0
  129.6700  127.2020   72.0580 C   0  0  0  0  0  0  0  0  0  0  0  0
  129.2412  122.7201   74.7842 H   0  0  0  0  0  0  0  0  0  0  0  0
  128.4770  123.3367   73.2801 H   0  0  0  0  0  0  0  0  0  0  0  0
  130.2116  122.8700   73.2801 H   0  0  0  0  0  0  0  0  0  0  0  0
  129.8319  124.8339   75.3618 H   0  0  0  0  0  0  0  0  0  0  0  0
  130.7729  124.9994   73.8472 H   0  0  0  0  0  0  0  0  0  0  0  0
  127.5915  124.5130   71.7891 H   0  0  0  0  0  0  0  0  0  0  0  0
  127.6689  125.1903   69.4031 H   0  0  0  0  0  0  0  0  0  0  0  0
  130.4794  127.5586   66.7166 H   0  0  0  0  0  0  0  0  0  0  0  0
  131.0945  126.6509   68.1650 H   0  0  0  0  0  0  0  0  0  0  0  0
  134.6896  123.7429   63.2337 H   0  0  0  0  0  0  0  0  0  0  0  0
  133.0543  123.2145   62.6066 H   0  0  0  0  0  0  0  0  0  0  0  0
  134.5860  125.5460   61.8110 H   0  0  0  0  0  0  0  0  0  0  0  0
  133.5350  123.4958   59.8653 H   0  0  0  0  0  0  0  0  0  0  0  0
  131.8663  123.6423   58.0275 H   0  0  0  0  0  0  0  0  0  0  0  0
  130.0410  127.0533   59.9562 H   0  0  0  0  0  0  0  0  0  0  0  0
  131.7059  126.9031   61.7971 H   0  0  0  0  0  0  0  0  0  0  0  0
  129.4728  125.8827   63.7996 H   0  0  0  0  0  0  0  0  0  0  0  0
  127.6727  125.0727   62.2758 H   0  0  0  0  0  0  0  0  0  0  0  0
  128.9211  121.7727   59.6700 H   0  0  0  0  0  0  0  0  0  0  0  0
  127.1838  121.8491   59.2200 H   0  0  0  0  0  0  0  0  0  0  0  0
  128.1781  123.3450   59.2200 H   0  0  0  0  0  0  0  0  0  0  0  0
  129.7672  121.3201   61.7966 H   0  0  0  0  0  0  0  0  0  0  0  0
  131.5688  122.1259   63.3187 H   0  0  0  0  0  0  0  0  0  0  0  0
  130.3202  128.4531   70.4206 H   0  0  0  0  0  0  0  0  0  0  0  0
  130.2354  127.7728   72.8094 H   0  0  0  0  0  0  0  0  0  0  0  0
  1  2  1  0
  2  3  1  0
  3  4  1  0
  4  5  2  0
  5  6  1  0
  6  7  2  0
  7  8  1  0
  8  9  2  0
  8 10  1  0
 10 11  1  0
 11 12  1  0
 12 13  2  0
 13 14  1  0
 14 15  2  0
 15 16  1  0
 16 17  1  0
 17 18  1  0
 18 19  2  0
 19 20  1  0
 20 21  2  0
 21 22  1  0
 22 23  1  0
 22 24  1  0
 22 25  1  0
 21 26  1  0
 26 27  2  0
 15 28  1  0
 28 29  1  0
 29 30  2  0
 30 31  1  0
 31 32  2  0
 32 33  1  0
 33 34  1  0
 32 35  1  0
 35 36  2  0
  7 37  1  0
 37 38  2  0
 38  4  1  0
 28 12  1  0
 36 29  1  0
 27 18  1  0
  1 39  1  0
  1 40  1  0
  1 41  1  0
  2 42  1  0
  2 43  1  0
  5 44  1  0
  6 45  1  0
 10 46  1  0
 10 47  1  0
 16 48  1  0
 16 49  1  0
 17 50  1  0
 19 51  1  0
 20 52  1  0
 26 53  1  0
 27 54  1  0
 30 55  1  0
 31 56  1  0
 34 57  1  0
 34 58  1  0
 34 59  1  0
 35 60  1  0
 36 61  1  0
 37 62  1  0
 38 63  1  0
M  END
>  <Binding energies>  (1) 
[-7.79]

>  <Ligand effiencies>  (1) 
[-0.19974358974358974]

>  <Interactions>  (1) 
["V-B:TYR:539:CE2:9847, V-B:PRO:540:CA:9854, V-B:TYR:539:CD2:9845, V-B:ALA:541:CB:9863, V-B:TYR:539:C:9838, V-B:PRO:540:N:9855, V-B:TYR:539:CE1:9846, H-B:ALA:541:N:9862, H-A:ASP:366:OD2:3214, V-B:TYR:539:CZ:9848, H-A:GLY:454:N:4049, H-A:ARG:545:NE:4924, V-A:ASP:366:CG:3212, V-A:ILE:369:CD1:3238, H-A:ASP:366:OD1:3213, V-A:ILE:369:CG2:3236, H-A:TYR:484:OH:4347, V-A:GLU:543:CD:4908, V-B:HIS:456:CE1:9041, V-B:GLU:543:CB:9877, V-A:HIS:456:CE1:4069, V-B:GLU:543:CD:9879, V-A:HIS:456:CD2:4067, V-B:PRO:540:C:9852, V-A:TYR:531:CZ:4794, V-A:GLY:454:CA:4048, H-B:LYS:547:NZ:9922, V-B:LYS:547:CE:9921, V-B:GLU:543:C:9873, V-B:GLY:544:C:9883"]

$$$$
RR18_Rahimova_2017
     RDKit          3D

 56 61  0  0  0  0  0  0  0  0999 V2000
  133.0000  124.9990   61.0440 C   0  0  0  0  0  0  0  0  0  0  0  0
  132.4640  125.1450   62.4460 C   0  0  0  0  0  0  0  0  0  0  0  0
  133.0260  125.0540   63.7090 C   0  0  0  0  0  0  0  0  0  0  0  0
  132.0010  125.2920   64.6240 C   0  0  0  0  0  0  0  0  0  0  0  0
  130.8500  125.5210   63.8870 C   0  0  0  0  0  0  0  0  0  0  0  0
  129.4050  125.8450   64.2570 C   0  0  1  0  0  0  0  0  0  0  0  0
  129.3300  126.8710   65.4270 C   0  0  0  0  0  0  0  0  0  0  0  0
  129.8250  126.5170   66.7530 C   0  0  0  0  0  0  0  0  0  0  0  0
  130.1800  125.3690   67.0290 O   0  0  0  0  0  0  0  0  0  0  0  0
  129.8720  127.5520   67.6230 N   0  0  0  0  0  0  0  0  0  0  0  0
  130.2680  127.5900   68.9770 C   0  0  0  0  0  0  0  0  0  0  0  0
  131.4480  128.2140   69.4220 C   0  0  0  0  0  0  0  0  0  0  0  0
  131.7850  128.2100   70.7740 C   0  0  0  0  0  0  0  0  0  0  0  0
  130.9580  127.5800   71.6990 C   0  0  0  0  0  0  0  0  0  0  0  0
  129.7930  126.9480   71.2710 C   0  0  0  0  0  0  0  0  0  0  0  0
  129.4410  126.9450   69.9180 C   0  0  0  0  0  0  0  0  0  0  0  0
  128.1560  126.2340   69.5010 C   0  0  0  0  0  0  0  0  0  0  0  0
  128.8910  128.1280   65.1570 C   0  0  0  0  0  0  0  0  0  0  0  0
  128.3930  128.5370   63.9570 N   0  0  0  0  0  0  0  0  0  0  0  0
  128.2410  127.6830   63.0140 C   0  0  0  0  0  0  0  0  0  0  0  0
  127.4790  128.0260   61.4780 S   0  0  0  0  0  0  0  0  0  0  0  0
  127.6990  126.3340   60.9320 C   0  0  0  0  0  0  0  0  0  0  0  0
  127.3150  125.7920   59.7240 C   0  0  0  0  0  0  0  0  0  0  0  0
  126.5710  126.6040   58.7500 C   0  0  0  0  0  0  0  0  0  0  0  0
  126.2180  127.7810   58.8050 O   0  0  0  0  0  0  0  0  0  0  0  0
  126.2880  125.8160   57.7080 N   0  0  0  0  0  0  0  0  0  0  0  0
  126.7870  124.5560   57.8440 C   0  0  0  0  0  0  0  0  0  0  0  0
  126.6870  123.4950   56.9440 C   0  0  0  0  0  0  0  0  0  0  0  0
  127.2990  122.2860   57.2600 C   0  0  0  0  0  0  0  0  0  0  0  0
  128.0030  122.1610   58.4560 C   0  0  0  0  0  0  0  0  0  0  0  0
  128.0880  123.2380   59.3420 C   0  0  0  0  0  0  0  0  0  0  0  0
  127.4560  124.4620   59.0520 C   0  0  0  0  0  0  0  0  0  0  0  0
  128.3560  125.5930   62.0090 C   0  0  0  0  0  0  0  0  0  0  0  0
  128.6210  124.3950   62.0150 O   0  0  0  0  0  0  0  0  0  0  0  0
  128.6450  126.3880   63.0750 N   0  0  0  0  0  0  0  0  0  0  0  0
  131.1400  125.4290   62.5620 O   0  0  0  0  0  0  0  0  0  0  0  0
  134.0606  124.7101   61.0852 H   0  0  0  0  0  0  0  0  0  0  0  0
  132.4291  124.2236   60.5121 H   0  0  0  0  0  0  0  0  0  0  0  0
  132.9012  125.9568   60.5121 H   0  0  0  0  0  0  0  0  0  0  0  0
  134.0781  124.8360   63.9446 H   0  0  0  0  0  0  0  0  0  0  0  0
  132.0892  125.2970   65.7205 H   0  0  0  0  0  0  0  0  0  0  0  0
  128.9435  124.9002   64.5802 H   0  0  0  0  0  0  0  0  0  0  0  0
  129.6330  128.4560   67.2420 H   0  0  0  0  0  0  0  0  0  0  0  0
  132.1101  128.7092   68.6964 H   0  0  0  0  0  0  0  0  0  0  0  0
  132.7071  128.7061   71.1110 H   0  0  0  0  0  0  0  0  0  0  0  0
  131.2239  127.5811   72.7664 H   0  0  0  0  0  0  0  0  0  0  0  0
  129.1440  126.4467   72.0041 H   0  0  0  0  0  0  0  0  0  0  0  0
  127.5995  125.9261   70.3985 H   0  0  0  0  0  0  0  0  0  0  0  0
  127.5365  126.9177   68.9020 H   0  0  0  0  0  0  0  0  0  0  0  0
  128.4061  125.3459   68.9020 H   0  0  0  0  0  0  0  0  0  0  0  0
  128.9414  128.8702   65.9673 H   0  0  0  0  0  0  0  0  0  0  0  0
  125.7760  126.1350   56.8980 H   0  0  0  0  0  0  0  0  0  0  0  0
  126.1337  123.6121   56.0005 H   0  0  0  0  0  0  0  0  0  0  0  0
  127.2274  121.4331   56.5691 H   0  0  0  0  0  0  0  0  0  0  0  0
  128.4947  121.2088   58.7041 H   0  0  0  0  0  0  0  0  0  0  0  0
  128.6558  123.1281   60.2777 H   0  0  0  0  0  0  0  0  0  0  0  0
  1  2  1  0
  2  3  2  0
  3  4  1  0
  4  5  2  0
  5  6  1  0
  6  7  1  0
  7  8  1  0
  8  9  2  0
  8 10  1  0
 10 11  1  0
 11 12  2  0
 12 13  1  0
 13 14  2  0
 14 15  1  0
 15 16  2  0
 16 17  1  0
  7 18  2  0
 18 19  1  0
 19 20  2  0
 20 21  1  0
 21 22  1  0
 22 23  2  0
 23 24  1  0
 24 25  2  0
 24 26  1  0
 26 27  1  0
 27 28  2  0
 28 29  1  0
 29 30  2  0
 30 31  1  0
 31 32  2  0
 22 33  1  0
 33 34  2  0
 33 35  1  0
  5 36  1  0
 36  2  1  0
 35  6  1  0
 16 11  1  0
 35 20  1  0
 32 23  1  0
 32 27  1  0
  1 37  1  0
  1 38  1  0
  1 39  1  0
  3 40  1  0
  4 41  1  0
  6 42  1  1
 10 43  1  0
 12 44  1  0
 13 45  1  0
 14 46  1  0
 15 47  1  0
 17 48  1  0
 17 49  1  0
 17 50  1  0
 18 51  1  0
 26 52  1  0
 28 53  1  0
 29 54  1  0
 30 55  1  0
 31 56  1  0
M  END
>  <Binding energies>  (1) 
[-8.15]

>  <Ligand effiencies>  (1) 
[-0.21447368421052632]

>  <Interactions>  (1) 
["V-B:TYR:539:CE2:9847, V-B:PRO:540:CA:9854, V-B:TYR:539:CD2:9845, V-B:TYR:539:CG:9843, V-B:TYR:539:C:9838, V-B:PRO:540:N:9855, V-B:TYR:539:CD1:9844, V-B:TYR:539:CE1:9846, H-B:TYR:531:OH:9766, V-B:TYR:539:CA:9840, V-B:TYR:539:CZ:9848, V-A:ASP:366:CG:3212, H-A:TYR:484:OH:4347, H-A:GLU:543:OE2:4910, V-A:ARG:545:CZ:4926, V-A:GLU:543:CD:4908, V-A:GLU:543:CG:4907, V-A:GLU:543:CB:4906, V-B:HIS:456:CE1:9041, V-B:GLU:543:CB:9877, V-A:HIS:456:CE1:4069, V-B:GLU:543:CG:9878, V-B:GLU:543:CD:9879, V-A:HIS:456:CD2:4067, H-A:GLU:543:OE1:4909, V-A:ARG:545:CG:4922, V-A:HIS:456:CG:4065, V-A:ARG:545:CA:4919, V-A:GLY:544:C:4912, H-B:MET:535:SD:9805"]

$$$$
RR19_Rahimova_2017
     RDKit          3D

 72 77  0  0  0  0  0  0  0  0999 V2000
  133.2910  124.8890   64.9470 O   0  0  0  0  0  0  0  0  0  0  0  0
  132.1510  124.9000   64.4740 C   0  0  0  0  0  0  0  0  0  0  0  0
  131.8300  125.1270   63.1740 N   0  0  0  0  0  0  0  0  0  0  0  0
  132.5760  125.1830   62.0230 C   0  0  0  0  0  0  0  0  0  0  0  0
  134.1980  124.7210   61.8740 S   0  0  0  0  0  0  0  0  0  0  0  0
  131.7870  125.6770   61.0130 N   0  0  0  0  0  0  0  0  0  0  0  0
  131.9710  125.8030   59.6740 C   0  0  0  0  0  0  0  0  0  0  0  0
  132.8850  125.3060   59.0120 O   0  0  0  0  0  0  0  0  0  0  0  0
  130.9080  126.6860   58.9740 C   0  0  2  0  0  0  0  0  0  0  0  0
  130.5360  127.9890   59.7390 C   0  0  0  0  0  0  0  0  0  0  0  0
  131.3470  129.2170   59.3570 C   0  0  0  0  0  0  0  0  0  0  0  0
  132.0560  129.2670   58.1380 C   0  0  0  0  0  0  0  0  0  0  0  0
  132.7260  130.4250   57.7700 C   0  0  0  0  0  0  0  0  0  0  0  0
  132.6870  131.5470   58.5900 C   0  0  0  0  0  0  0  0  0  0  0  0
  131.9690  131.5230   59.7780 C   0  0  0  0  0  0  0  0  0  0  0  0
  131.2900  130.3750   60.1630 C   0  0  0  0  0  0  0  0  0  0  0  0
  129.6970  125.8950   58.6200 N   0  0  0  0  0  0  0  0  0  0  0  0
  128.8000  125.5070   59.5710 C   0  0  0  0  0  0  0  0  0  0  0  0
  128.8650  125.7100   60.7850 O   0  0  0  0  0  0  0  0  0  0  0  0
  127.7280  124.7920   58.8360 C   0  0  0  0  0  0  0  0  0  0  0  0
  126.5610  124.1770   59.2920 C   0  0  0  0  0  0  0  0  0  0  0  0
  125.7120  123.5750   58.3560 C   0  0  0  0  0  0  0  0  0  0  0  0
  126.0360  123.5970   56.9920 C   0  0  0  0  0  0  0  0  0  0  0  0
  127.2100  124.2200   56.5560 C   0  0  0  0  0  0  0  0  0  0  0  0
  128.0440  124.8130   57.5050 C   0  0  0  0  0  0  0  0  0  0  0  0
  129.3260  125.5430   57.3520 C   0  0  0  0  0  0  0  0  0  0  0  0
  129.9220  125.7870   56.3020 O   0  0  0  0  0  0  0  0  0  0  0  0
  130.9330  124.6530   65.4030 C   0  0  2  0  0  0  0  0  0  0  0  0
  130.0850  123.4080   65.0130 C   0  0  0  0  0  0  0  0  0  0  0  0
  130.3950  122.8590   63.6320 C   0  0  0  0  0  0  0  0  0  0  0  0
  129.5970  123.2300   62.5280 C   0  0  0  0  0  0  0  0  0  0  0  0
  129.9420  122.8090   61.2490 C   0  0  0  0  0  0  0  0  0  0  0  0
  131.0860  122.0470   61.0480 C   0  0  0  0  0  0  0  0  0  0  0  0
  131.9020  121.7080   62.1200 C   0  0  0  0  0  0  0  0  0  0  0  0
  131.5740  122.1180   63.4060 C   0  0  0  0  0  0  0  0  0  0  0  0
  130.0780  125.8590   65.5910 N   0  0  0  0  0  0  0  0  0  0  0  0
  129.5630  126.5450   64.5320 C   0  0  0  0  0  0  0  0  0  0  0  0
  129.7270  126.3030   63.3350 O   0  0  0  0  0  0  0  0  0  0  0  0
  128.7620  127.6440   65.1260 C   0  0  0  0  0  0  0  0  0  0  0  0
  128.0170  128.6600   64.5260 C   0  0  0  0  0  0  0  0  0  0  0  0
  127.3490  129.5750   65.3480 C   0  0  0  0  0  0  0  0  0  0  0  0
  127.4300  129.4620   66.7420 C   0  0  0  0  0  0  0  0  0  0  0  0
  128.1800  128.4340   67.3240 C   0  0  0  0  0  0  0  0  0  0  0  0
  128.8410  127.5340   66.4870 C   0  0  0  0  0  0  0  0  0  0  0  0
  129.6940  126.3620   66.8020 C   0  0  0  0  0  0  0  0  0  0  0  0
  129.9920  125.9340   67.9170 O   0  0  0  0  0  0  0  0  0  0  0  0
  130.8350  125.1690   63.0110 H   0  0  0  0  0  0  0  0  0  0  0  0
  130.9400  126.1170   61.3410 H   0  0  0  0  0  0  0  0  0  0  0  0
  131.3887  127.0325   58.0472 H   0  0  0  0  0  0  0  0  0  0  0  0
  129.4756  128.2072   59.5442 H   0  0  0  0  0  0  0  0  0  0  0  0
  130.7567  127.7946   60.7990 H   0  0  0  0  0  0  0  0  0  0  0  0
  132.0776  128.3868   57.4786 H   0  0  0  0  0  0  0  0  0  0  0  0
  133.2900  130.4554   56.8261 H   0  0  0  0  0  0  0  0  0  0  0  0
  133.2279  132.4586   58.2960 H   0  0  0  0  0  0  0  0  0  0  0  0
  131.9380  132.4177   60.4171 H   0  0  0  0  0  0  0  0  0  0  0  0
  130.7075  130.3674   61.0961 H   0  0  0  0  0  0  0  0  0  0  0  0
  126.3138  124.1656   60.3638 H   0  0  0  0  0  0  0  0  0  0  0  0
  124.7873  123.0829   58.6917 H   0  0  0  0  0  0  0  0  0  0  0  0
  125.3641  123.1223   56.2617 H   0  0  0  0  0  0  0  0  0  0  0  0
  127.4705  124.2421   55.4875 H   0  0  0  0  0  0  0  0  0  0  0  0
  131.3839  124.4255   66.3802 H   0  0  0  0  0  0  0  0  0  0  0  0
  130.2747  122.6150   65.7513 H   0  0  0  0  0  0  0  0  0  0  0  0
  129.0334  123.7303   64.9991 H   0  0  0  0  0  0  0  0  0  0  0  0
  128.7026  123.8520   62.6799 H   0  0  0  0  0  0  0  0  0  0  0  0
  129.3068  123.0802   60.3929 H   0  0  0  0  0  0  0  0  0  0  0  0
  131.3473  121.7100   60.0340 H   0  0  0  0  0  0  0  0  0  0  0  0
  132.8112  121.1127   61.9498 H   0  0  0  0  0  0  0  0  0  0  0  0
  132.2340  121.8647   64.2488 H   0  0  0  0  0  0  0  0  0  0  0  0
  127.9560  128.7401   63.4306 H   0  0  0  0  0  0  0  0  0  0  0  0
  126.7580  130.3861   64.8976 H   0  0  0  0  0  0  0  0  0  0  0  0
  126.9018  130.1844   67.3817 H   0  0  0  0  0  0  0  0  0  0  0  0
  128.2471  128.3374   68.4177 H   0  0  0  0  0  0  0  0  0  0  0  0
  1  2  2  0
  2  3  1  0
  3  4  1  0
  4  5  2  0
  4  6  1  0
  6  7  1  0
  7  8  2  0
  7  9  1  0
  9 10  1  0
 10 11  1  0
 11 12  2  0
 12 13  1  0
 13 14  2  0
 14 15  1  0
 15 16  2  0
  9 17  1  0
 17 18  1  0
 18 19  2  0
 18 20  1  0
 20 21  2  0
 21 22  1  0
 22 23  2  0
 23 24  1  0
 24 25  2  0
 25 26  1  0
 26 27  2  0
  2 28  1  0
 28 29  1  0
 29 30  1  0
 30 31  2  0
 31 32  1  0
 32 33  2  0
 33 34  1  0
 34 35  2  0
 28 36  1  0
 36 37  1  0
 37 38  2  0
 37 39  1  0
 39 40  2  0
 40 41  1  0
 41 42  2  0
 42 43  1  0
 43 44  2  0
 44 45  1  0
 45 46  2  0
 16 11  1  0
 26 17  1  0
 35 30  1  0
 45 36  1  0
 25 20  1  0
 44 39  1  0
  3 47  1  0
  6 48  1  0
  9 49  1  6
 10 50  1  0
 10 51  1  0
 12 52  1  0
 13 53  1  0
 14 54  1  0
 15 55  1  0
 16 56  1  0
 21 57  1  0
 22 58  1  0
 23 59  1  0
 24 60  1  0
 28 61  1  1
 29 62  1  0
 29 63  1  0
 31 64  1  0
 32 65  1  0
 33 66  1  0
 34 67  1  0
 35 68  1  0
 40 69  1  0
 41 70  1  0
 42 71  1  0
 43 72  1  0
M  END
>  <Binding energies>  (1) 
[-9.73]

>  <Ligand effiencies>  (1) 
[-0.20270833333333335]

>  <Interactions>  (1) 
["V-B:TYR:539:CE2:9847, V-B:PRO:540:CA:9854, V-B:PRO:540:CB:9856, V-B:ALA:541:CB:9863, V-A:LEU:475:CD2:4258, V-B:TYR:539:CZ:9848, H-A:GLY:454:N:4049, V-A:ASP:366:CG:3212, V-A:ILE:369:CD1:3238, V-A:ASP:366:CB:3211, H-B:TYR:539:OH:9849, H-A:TYR:484:OH:4347, V-A:GLU:543:CD:4908, V-A:GLU:543:CG:4907, V-B:HIS:456:CE1:9041, V-B:GLU:543:CG:9878, V-B:GLU:543:CD:9879, V-A:TYR:484:CE1:4344, V-A:LEU:363:CD1:3188, V-A:PRO:540:CA:4883, V-A:TYR:531:CE2:4793, H-A:TYR:531:OH:4795, V-A:TYR:531:CZ:4794, V-A:PRO:540:CB:4885"]

$$$$
RR19_Rahimova_2017-again1
     RDKit          3D

 71 76  0  0  0  0  0  0  0  0999 V2000
  131.8470  123.1590   59.5900 O   0  0  0  0  0  0  0  0  0  0  0  0
  130.7630  123.7480   59.5950 C   0  0  0  0  0  0  0  0  0  0  0  0
  130.5100  124.9460   59.0170 N   0  0  0  0  0  0  0  0  0  0  0  0
  131.2430  125.7510   58.1900 C   0  0  0  0  0  0  0  0  0  0  0  0
  132.8290  125.6010   57.6560 S   0  0  0  0  0  0  0  0  0  0  0  0
  130.3930  126.7540   57.7580 N   0  0  0  0  0  0  0  0  0  0  0  0
  129.1320  126.9150   57.9970 C   0  0  0  0  0  0  0  0  0  0  0  0
  128.3600  126.2720   58.7370 O   0  0  0  0  0  0  0  0  0  0  0  0
  128.4480  128.0940   57.2260 C   0  0  2  0  0  0  0  0  0  0  0  0
  129.5040  128.9760   56.4790 C   0  0  0  0  0  0  0  0  0  0  0  0
  129.7730  130.3310   57.1300 C   0  0  0  0  0  0  0  0  0  0  0  0
  129.0400  131.4520   56.7320 C   0  0  0  0  0  0  0  0  0  0  0  0
  129.2740  132.6850   57.3350 C   0  0  0  0  0  0  0  0  0  0  0  0
  130.2420  132.7940   58.3320 C   0  0  0  0  0  0  0  0  0  0  0  0
  130.9790  131.6800   58.7300 C   0  0  0  0  0  0  0  0  0  0  0  0
  130.7460  130.4480   58.1260 C   0  0  0  0  0  0  0  0  0  0  0  0
  127.4670  128.8660   58.0570 N   0  0  0  0  0  0  0  0  0  0  0  0
  126.4080  129.5150   57.4940 C   0  0  0  0  0  0  0  0  0  0  0  0
  126.1190  129.5770   56.2990 O   0  0  0  0  0  0  0  0  0  0  0  0
  125.6770  130.1350   58.6290 C   0  0  0  0  0  0  0  0  0  0  0  0
  124.5230  130.9190   58.6530 C   0  0  0  0  0  0  0  0  0  0  0  0
  124.0500  131.3750   59.8880 C   0  0  0  0  0  0  0  0  0  0  0  0
  124.7260  131.0440   61.0700 C   0  0  0  0  0  0  0  0  0  0  0  0
  125.8800  130.2560   61.0240 C   0  0  0  0  0  0  0  0  0  0  0  0
  126.3370  129.8130   59.7820 C   0  0  0  0  0  0  0  0  0  0  0  0
  127.5080  128.9780   59.4210 C   0  0  0  0  0  0  0  0  0  0  0  0
  128.3370  128.4910   60.1880 O   0  0  0  0  0  0  0  0  0  0  0  0
  129.5420  123.1070   60.3180 C   0  0  2  0  0  0  0  0  0  0  0  0
  129.7580  121.6180   60.7130 C   0  0  0  0  0  0  0  0  0  0  0  0
  131.1930  121.2780   61.0740 C   0  0  0  0  0  0  0  0  0  0  0  0
  131.8500  121.9830   62.1040 C   0  0  0  0  0  0  0  0  0  0  0  0
  133.1270  121.6060   62.5000 C   0  0  0  0  0  0  0  0  0  0  0  0
  133.7520  120.5170   61.9040 C   0  0  0  0  0  0  0  0  0  0  0  0
  133.1020  119.7910   60.9140 C   0  0  0  0  0  0  0  0  0  0  0  0
  131.8260  120.1510   60.5050 C   0  0  0  0  0  0  0  0  0  0  0  0
  128.2390  123.3170   59.6160 N   0  0  0  0  0  0  0  0  0  0  0  0
  127.0570  123.3390   60.2940 C   0  0  0  0  0  0  0  0  0  0  0  0
  126.8790  123.1200   61.4930 O   0  0  0  0  0  0  0  0  0  0  0  0
  126.0290  123.6900   59.2840 C   0  0  0  0  0  0  0  0  0  0  0  0
  124.6490  123.8670   59.4070 C   0  0  0  0  0  0  0  0  0  0  0  0
  123.9160  124.2240   58.2700 C   0  0  0  0  0  0  0  0  0  0  0  0
  124.5620  124.3950   57.0380 C   0  0  0  0  0  0  0  0  0  0  0  0
  125.9450  124.2110   56.9350 C   0  0  0  0  0  0  0  0  0  0  0  0
  126.6590  123.8580   58.0810 C   0  0  0  0  0  0  0  0  0  0  0  0
  128.1090  123.6260   58.2910 C   0  0  0  0  0  0  0  0  0  0  0  0
  129.0050  123.7060   57.4500 O   0  0  0  0  0  0  0  0  0  0  0  0
  129.5650  125.2720   59.1520 H   0  0  0  0  0  0  0  0  0  0  0  0
  127.8189  127.6464   56.4425 H   0  0  0  0  0  0  0  0  0  0  0  0
  130.4518  128.4189   56.4413 H   0  0  0  0  0  0  0  0  0  0  0  0
  129.0876  129.1852   55.4826 H   0  0  0  0  0  0  0  0  0  0  0  0
  128.2789  131.3605   55.9431 H   0  0  0  0  0  0  0  0  0  0  0  0
  128.6974  133.5693   57.0259 H   0  0  0  0  0  0  0  0  0  0  0  0
  130.4259  133.7680   58.8090 H   0  0  0  0  0  0  0  0  0  0  0  0
  131.7411  131.7741   59.5176 H   0  0  0  0  0  0  0  0  0  0  0  0
  131.3279  129.5663   58.4327 H   0  0  0  0  0  0  0  0  0  0  0  0
  123.9967  131.1730   57.7211 H   0  0  0  0  0  0  0  0  0  0  0  0
  123.1433  131.9962   59.9315 H   0  0  0  0  0  0  0  0  0  0  0  0
  124.3474  131.4054   62.0375 H   0  0  0  0  0  0  0  0  0  0  0  0
  126.4163  129.9909   61.9471 H   0  0  0  0  0  0  0  0  0  0  0  0
  129.4707  123.6687   61.2611 H   0  0  0  0  0  0  0  0  0  0  0  0
  129.1204  121.3942   61.5810 H   0  0  0  0  0  0  0  0  0  0  0  0
  129.4994  121.0135   59.8311 H   0  0  0  0  0  0  0  0  0  0  0  0
  131.3508  122.8319   62.5940 H   0  0  0  0  0  0  0  0  0  0  0  0
  133.6455  122.1715   63.2883 H   0  0  0  0  0  0  0  0  0  0  0  0
  134.7661  120.2287   62.2177 H   0  0  0  0  0  0  0  0  0  0  0  0
  133.6013  118.9265   60.4521 H   0  0  0  0  0  0  0  0  0  0  0  0
  131.3071  119.5583   59.7372 H   0  0  0  0  0  0  0  0  0  0  0  0
  124.1492  123.7287   60.3771 H   0  0  0  0  0  0  0  0  0  0  0  0
  122.8283  124.3711   58.3433 H   0  0  0  0  0  0  0  0  0  0  0  0
  123.9790  124.6751   56.1482 H   0  0  0  0  0  0  0  0  0  0  0  0
  126.4588  124.3418   55.9712 H   0  0  0  0  0  0  0  0  0  0  0  0
  1  2  2  0
  2  3  1  0
  3  4  1  0
  4  5  2  0
  4  6  1  0
  6  7  2  0
  7  8  1  0
  7  9  1  0
  9 10  1  0
 10 11  1  0
 11 12  2  0
 12 13  1  0
 13 14  2  0
 14 15  1  0
 15 16  2  0
  9 17  1  0
 17 18  1  0
 18 19  2  0
 18 20  1  0
 20 21  2  0
 21 22  1  0
 22 23  2  0
 23 24  1  0
 24 25  2  0
 25 26  1  0
 26 27  2  0
  2 28  1  0
 28 29  1  0
 29 30  1  0
 30 31  2  0
 31 32  1  0
 32 33  2  0
 33 34  1  0
 34 35  2  0
 28 36  1  0
 36 37  1  0
 37 38  2  0
 37 39  1  0
 39 40  2  0
 40 41  1  0
 41 42  2  0
 42 43  1  0
 43 44  2  0
 44 45  1  0
 45 46  2  0
 16 11  1  0
 26 17  1  0
 35 30  1  0
 45 36  1  0
 25 20  1  0
 44 39  1  0
  3 47  1  0
  9 48  1  6
 10 49  1  0
 10 50  1  0
 12 51  1  0
 13 52  1  0
 14 53  1  0
 15 54  1  0
 16 55  1  0
 21 56  1  0
 22 57  1  0
 23 58  1  0
 24 59  1  0
 28 60  1  1
 29 61  1  0
 29 62  1  0
 31 63  1  0
 32 64  1  0
 33 65  1  0
 34 66  1  0
 35 67  1  0
 40 68  1  0
 41 69  1  0
 42 70  1  0
 43 71  1  0
M  CHG  1   8  -1
M  END
>  <Binding energies>  (1) 
[-10.19]

>  <Ligand effiencies>  (1) 
[-0.21680851063829787]

>  <Interactions>  (1) 
["V-B:TYR:539:CE2:9847, V-B:PRO:540:CA:9854, V-B:TYR:539:CD2:9845, V-B:LEU:363:CD1:8160, V-B:PRO:540:CB:9856, V-B:ALA:541:CB:9863, V-A:LEU:475:CD2:4258, H-B:TYR:531:OH:9766, H-B:ALA:541:N:9862, V-B:TYR:539:CZ:9848, V-A:ASP:366:CB:3211, V-A:ASP:366:CA:3209, V-A:ILE:369:CG2:3236, H-B:TYR:539:OH:9849, V-B:MET:535:CE:9806, V-B:LEU:363:CA:8156, V-B:TYR:531:CZ:9765, V-B:TYR:531:CE2:9764, V-A:ASP:366:C:3207, V-A:PRO:540:N:4884, V-A:TYR:539:C:4867, V-A:PRO:540:CA:4883, H-A:TYR:531:OH:4795, V-A:MET:535:CE:4835, V-A:TYR:539:CE2:4876, V-A:TYR:539:CD2:4874, V-A:TYR:531:CZ:4794, V-A:GLY:454:CA:4048, V-B:ASP:366:CB:8183, V-B:ASP:366:CG:8184, V-B:ASP:366:CA:8181, V-A:TRP:381:CH2:3371, V-B:LEU:363:CB:8158, V-A:TRP:381:CZ2:3369"]

$$$$
RR1_Rahimova_2017
     RDKit          3D

 68 71  0  0  0  0  0  0  0  0999 V2000
  127.9860  122.4590   58.7160 C   0  0  0  0  0  0  0  0  0  0  0  0
  128.2120  121.6350   59.8540 O   0  0  0  0  0  0  0  0  0  0  0  0
  128.9590  122.1280   60.9060 C   0  0  0  0  0  0  0  0  0  0  0  0
  128.5520  123.1810   61.7410 C   0  0  0  0  0  0  0  0  0  0  0  0
  129.3770  123.6170   62.7740 C   0  0  0  0  0  0  0  0  0  0  0  0
  130.6140  123.0080   62.9950 C   0  0  0  0  0  0  0  0  0  0  0  0
  131.3950  123.5500   64.0330 N   0  0  0  0  0  0  0  0  0  0  0  0
  132.7350  123.5320   64.1940 C   0  0  0  0  0  0  0  0  0  0  0  0
  133.5230  122.9470   63.4500 O   0  0  0  0  0  0  0  0  0  0  0  0
  133.2440  124.3120   65.4170 C   0  0  0  0  0  0  0  0  0  0  0  0
  132.7010  126.0540   65.5160 S   0  0  0  0  0  0  0  0  0  0  0  0
  132.0760  126.2040   63.8770 C   0  0  0  0  0  0  0  0  0  0  0  0
  132.7100  125.7980   62.8060 N   0  0  0  0  0  0  0  0  0  0  0  0
  131.8790  126.0940   61.8120 C   0  0  0  0  0  0  0  0  0  0  0  0
  132.2000  125.7840   60.3770 C   0  0  0  0  0  0  0  0  0  0  0  0
  131.4540  126.3350   59.3230 C   0  0  0  0  0  0  0  0  0  0  0  0
  131.7740  126.0270   57.9990 C   0  0  0  0  0  0  0  0  0  0  0  0
  132.8430  125.1660   57.7570 C   0  0  0  0  0  0  0  0  0  0  0  0
  133.5850  124.6160   58.7520 N   0  0  0  0  0  0  0  0  0  0  0  0
  133.2580  124.9300   60.0310 C   0  0  0  0  0  0  0  0  0  0  0  0
  130.7500  126.6740   62.1730 N   0  0  0  0  0  0  0  0  0  0  0  0
  130.8740  126.7480   63.5010 N   0  0  0  0  0  0  0  0  0  0  0  0
  129.8030  127.3190   64.3170 C   0  0  0  0  0  0  0  0  0  0  0  0
  129.5930  126.6400   65.6820 C   0  0  0  0  0  0  0  0  0  0  0  0
  129.8270  125.4350   65.8320 O   0  0  0  0  0  0  0  0  0  0  0  0
  129.1440  127.4520   66.6580 N   0  0  0  0  0  0  0  0  0  0  0  0
  129.0720  126.9460   67.9480 N   0  0  0  0  0  0  0  0  0  0  0  0
  129.0930  127.8260   68.9730 C   0  0  0  0  0  0  0  0  0  0  0  0
  129.0700  129.0530   68.8320 O   0  0  0  0  0  0  0  0  0  0  0  0
  129.1210  127.2160   70.3600 C   0  0  0  0  0  0  0  0  0  0  0  0
  128.6070  125.9320   70.5690 C   0  0  0  0  0  0  0  0  0  0  0  0
  128.6120  125.3580   71.8360 C   0  0  0  0  0  0  0  0  0  0  0  0
  129.1270  126.0580   72.9390 C   0  0  0  0  0  0  0  0  0  0  0  0
  129.1490  125.5510   74.2260 O   0  0  0  0  0  0  0  0  0  0  0  0
  130.1540  124.6140   74.5940 C   0  0  0  0  0  0  0  0  0  0  0  0
  129.6400  127.3480   72.7520 C   0  0  0  0  0  0  0  0  0  0  0  0
  130.1170  128.0030   73.8750 O   0  0  0  0  0  0  0  0  0  0  0  0
  129.4160  129.1340   74.3810 C   0  0  0  0  0  0  0  0  0  0  0  0
  129.6350  127.9140   71.4650 C   0  0  0  0  0  0  0  0  0  0  0  0
  131.0240  121.9550   62.1630 C   0  0  0  0  0  0  0  0  0  0  0  0
  130.1950  121.5220   61.1320 C   0  0  0  0  0  0  0  0  0  0  0  0
  127.7084  123.4711   59.0455 H   0  0  0  0  0  0  0  0  0  0  0  0
  128.9036  122.5090   58.1114 H   0  0  0  0  0  0  0  0  0  0  0  0
  127.1713  122.0338   58.1114 H   0  0  0  0  0  0  0  0  0  0  0  0
  127.5770  123.6635   61.5781 H   0  0  0  0  0  0  0  0  0  0  0  0
  129.0526  124.4461   63.4200 H   0  0  0  0  0  0  0  0  0  0  0  0
  130.8610  123.9820   64.7740 H   0  0  0  0  0  0  0  0  0  0  0  0
  132.8907  123.7943   66.3210 H   0  0  0  0  0  0  0  0  0  0  0  0
  134.3397  124.3405   65.3242 H   0  0  0  0  0  0  0  0  0  0  0  0
  130.6145  127.0117   59.5408 H   0  0  0  0  0  0  0  0  0  0  0  0
  131.1958  126.4540   57.1664 H   0  0  0  0  0  0  0  0  0  0  0  0
  133.0964  124.9216   56.7149 H   0  0  0  0  0  0  0  0  0  0  0  0
  133.8563  124.4901   60.8425 H   0  0  0  0  0  0  0  0  0  0  0  0
  130.0380  128.3787   64.4955 H   0  0  0  0  0  0  0  0  0  0  0  0
  128.8716  127.1675   63.7517 H   0  0  0  0  0  0  0  0  0  0  0  0
  129.1470  128.4620   66.6160 H   0  0  0  0  0  0  0  0  0  0  0  0
  129.5280  126.0480   68.0180 H   0  0  0  0  0  0  0  0  0  0  0  0
  128.1932  125.3685   69.7198 H   0  0  0  0  0  0  0  0  0  0  0  0
  128.2080  124.3444   71.9755 H   0  0  0  0  0  0  0  0  0  0  0  0
  130.2168  124.5554   75.6906 H   0  0  0  0  0  0  0  0  0  0  0  0
  129.8987  123.6241   74.1880 H   0  0  0  0  0  0  0  0  0  0  0  0
  131.1236  124.9379   74.1880 H   0  0  0  0  0  0  0  0  0  0  0  0
  129.4296  129.1120   75.4807 H   0  0  0  0  0  0  0  0  0  0  0  0
  129.9017  130.0551   74.0266 H   0  0  0  0  0  0  0  0  0  0  0  0
  128.3749  129.1088   74.0266 H   0  0  0  0  0  0  0  0  0  0  0  0
  130.0425  128.9255   71.3204 H   0  0  0  0  0  0  0  0  0  0  0  0
  131.9991  121.4724   62.3253 H   0  0  0  0  0  0  0  0  0  0  0  0
  130.5186  120.6915   60.4874 H   0  0  0  0  0  0  0  0  0  0  0  0
  1  2  1  0
  2  3  1  0
  3  4  2  0
  4  5  1  0
  5  6  2  0
  6  7  1  0
  7  8  1  0
  8  9  2  0
  8 10  1  0
 10 11  1  0
 11 12  1  0
 12 13  2  0
 13 14  1  0
 14 15  1  0
 15 16  2  0
 16 17  1  0
 17 18  2  0
 18 19  1  0
 19 20  2  0
 14 21  2  0
 21 22  1  0
 22 23  1  0
 23 24  1  0
 24 25  2  0
 24 26  1  0
 26 27  1  0
 27 28  1  0
 28 29  2  0
 28 30  1  0
 30 31  2  0
 31 32  1  0
 32 33  2  0
 33 34  1  0
 34 35  1  0
 33 36  1  0
 36 37  1  0
 37 38  1  0
 36 39  2  0
  6 40  1  0
 40 41  2  0
 41  3  1  0
 22 12  1  0
 39 30  1  0
 20 15  1  0
  1 42  1  0
  1 43  1  0
  1 44  1  0
  4 45  1  0
  5 46  1  0
  7 47  1  0
 10 48  1  0
 10 49  1  0
 16 50  1  0
 17 51  1  0
 18 52  1  0
 20 53  1  0
 23 54  1  0
 23 55  1  0
 26 56  1  0
 27 57  1  0
 31 58  1  0
 32 59  1  0
 35 60  1  0
 35 61  1  0
 35 62  1  0
 38 63  1  0
 38 64  1  0
 38 65  1  0
 39 66  1  0
 40 67  1  0
 41 68  1  0
M  END
>  <Binding energies>  (1) 
[-7.39]

>  <Ligand effiencies>  (1) 
[-0.16795454545454544]

>  <Interactions>  (1) 
["V-B:TYR:539:CE2:9847, V-B:PRO:540:CA:9854, V-B:TYR:539:CD2:9845, V-B:TYR:539:CG:9843, V-B:ALA:541:CB:9863, V-B:TYR:539:C:9838, V-A:LEU:475:CD2:4258, V-B:PRO:540:N:9855, H-B:ALA:541:N:9862, V-B:TYR:539:CZ:9848, H-A:ARG:545:NH2:4928, H-A:GLY:454:N:4049, H-A:ARG:545:NE:4924, V-A:ASP:366:CG:3212, V-A:ASP:366:CB:3211, V-A:ASP:366:CA:3209, V-A:ILE:369:CG2:3236, H-A:TYR:484:OH:4347, H-A:GLU:543:OE2:4910, V-A:ARG:545:CZ:4926, V-A:GLU:543:CD:4908, V-A:GLU:543:CG:4907, V-B:HIS:456:CE1:9041, V-A:TYR:484:CZ:4346, V-A:HIS:456:CE1:4069, V-B:GLU:543:CG:9878, V-A:ASP:366:C:3207, V-B:GLU:543:CD:9879, V-A:HIS:456:CD2:4067, H-A:GLU:543:OE1:4909, V-A:GLY:454:CA:4048, H-B:LYS:547:NZ:9922, H-A:LYS:547:NZ:4951, V-A:LYS:547:CE:4950"]

$$$$
RR20_Rahimova_2017
     RDKit          3D

 68 73  0  0  0  0  0  0  0  0999 V2000
  126.9640  133.0600   73.4790 C   0  0  0  0  0  0  0  0  0  0  0  0
  127.6640  131.7170   73.3890 C   0  0  0  0  0  0  0  0  0  0  0  0
  128.3620  131.3730   72.2310 C   0  0  0  0  0  0  0  0  0  0  0  0
  129.0130  130.1450   72.1500 C   0  0  0  0  0  0  0  0  0  0  0  0
  128.9600  129.2450   73.2210 C   0  0  0  0  0  0  0  0  0  0  0  0
  129.6910  127.9240   73.1210 C   0  0  0  0  0  0  0  0  0  0  0  0
  130.6210  127.7250   73.9060 O   0  0  0  0  0  0  0  0  0  0  0  0
  129.2930  127.0090   72.1900 N   0  0  0  0  0  0  0  0  0  0  0  0
  128.1380  126.1260   72.4200 C   0  0  0  0  0  0  0  0  0  0  0  0
  127.9130  125.3690   71.1220 C   0  0  0  0  0  0  0  0  0  0  0  0
  128.7210  126.1530   70.1330 C   0  0  0  0  0  0  0  0  0  0  0  0
  128.8300  125.9800   68.7530 C   0  0  0  0  0  0  0  0  0  0  0  0
  129.7680  126.7120   68.0140 C   0  0  0  0  0  0  0  0  0  0  0  0
  129.8790  126.5330   66.5260 C   0  0  0  0  0  0  0  0  0  0  0  0
  130.6370  125.5510   66.0660 N   0  0  0  0  0  0  0  0  0  0  0  0
  130.6450  125.4760   64.7590 C   0  0  0  0  0  0  0  0  0  0  0  0
  131.3240  124.5690   63.9600 N   0  0  0  0  0  0  0  0  0  0  0  0
  132.6640  124.3740   63.9060 C   0  0  0  0  0  0  0  0  0  0  0  0
  133.4780  124.9850   64.6010 O   0  0  0  0  0  0  0  0  0  0  0  0
  133.2040  123.3000   62.9310 C   0  0  0  0  0  0  0  0  0  0  0  0
  132.1630  122.7590   62.0370 N   0  0  0  0  0  0  0  0  0  0  0  0
  131.1860  121.9240   62.7510 C   0  0  0  0  0  0  0  0  0  0  0  0
  130.2880  121.1740   61.7420 C   0  0  0  0  0  0  0  0  0  0  0  0
  129.7700  122.0730   60.6200 C   0  0  0  0  0  0  0  0  0  0  0  0
  128.7400  121.6490   59.7730 C   0  0  0  0  0  0  0  0  0  0  0  0
  128.2950  122.4530   58.7260 C   0  0  0  0  0  0  0  0  0  0  0  0
  128.8770  123.6980   58.5140 C   0  0  0  0  0  0  0  0  0  0  0  0
  129.8980  124.1370   59.3550 C   0  0  0  0  0  0  0  0  0  0  0  0
  130.3550  123.3390   60.4100 C   0  0  0  0  0  0  0  0  0  0  0  0
  131.4350  123.8440   61.3680 C   0  0  0  0  0  0  0  0  0  0  0  0
  129.6880  126.6690   63.9730 S   0  0  0  0  0  0  0  0  0  0  0  0
  129.2530  127.3200   65.5350 C   0  0  0  0  0  0  0  0  0  0  0  0
  128.3690  128.5430   65.6370 C   0  0  0  0  0  0  0  0  0  0  0  0
  130.6310  127.5790   68.7010 C   0  0  0  0  0  0  0  0  0  0  0  0
  130.5370  127.7400   70.0840 C   0  0  0  0  0  0  0  0  0  0  0  0
  129.5380  127.0660   70.7990 C   0  0  0  0  0  0  0  0  0  0  0  0
  128.2820  129.6090   74.3910 C   0  0  0  0  0  0  0  0  0  0  0  0
  127.6320  130.8380   74.4740 C   0  0  0  0  0  0  0  0  0  0  0  0
  126.8233  133.3300   74.5360 H   0  0  0  0  0  0  0  0  0  0  0  0
  127.5771  133.8270   72.9831 H   0  0  0  0  0  0  0  0  0  0  0  0
  125.9842  132.9967   72.9831 H   0  0  0  0  0  0  0  0  0  0  0  0
  128.3980  132.0718   71.3822 H   0  0  0  0  0  0  0  0  0  0  0  0
  129.5717  129.8807   71.2401 H   0  0  0  0  0  0  0  0  0  0  0  0
  128.3533  125.4230   73.2382 H   0  0  0  0  0  0  0  0  0  0  0  0
  127.2457  126.7022   72.7060 H   0  0  0  0  0  0  0  0  0  0  0  0
  128.2776  124.3340   71.1991 H   0  0  0  0  0  0  0  0  0  0  0  0
  126.8514  125.2851   70.8464 H   0  0  0  0  0  0  0  0  0  0  0  0
  128.1731  125.2619   68.2404 H   0  0  0  0  0  0  0  0  0  0  0  0
  130.7530  124.0020   63.3490 H   0  0  0  0  0  0  0  0  0  0  0  0
  133.9953  123.7518   62.3148 H   0  0  0  0  0  0  0  0  0  0  0  0
  133.5835  122.4649   63.5381 H   0  0  0  0  0  0  0  0  0  0  0  0
  131.7203  121.1929   63.3756 H   0  0  0  0  0  0  0  0  0  0  0  0
  130.5565  122.5680   63.3827 H   0  0  0  0  0  0  0  0  0  0  0  0
  130.8713  120.3558   61.2945 H   0  0  0  0  0  0  0  0  0  0  0  0
  129.4133  120.8005   62.2945 H   0  0  0  0  0  0  0  0  0  0  0  0
  128.2746  120.6658   59.9364 H   0  0  0  0  0  0  0  0  0  0  0  0
  127.4852  122.1038   58.0685 H   0  0  0  0  0  0  0  0  0  0  0  0
  128.5327  124.3342   57.6853 H   0  0  0  0  0  0  0  0  0  0  0  0
  130.3513  125.1251   59.1871 H   0  0  0  0  0  0  0  0  0  0  0  0
  132.1548  124.4488   60.7969 H   0  0  0  0  0  0  0  0  0  0  0  0
  130.9319  124.4325   62.1493 H   0  0  0  0  0  0  0  0  0  0  0  0
  128.1957  128.7828   66.6965 H   0  0  0  0  0  0  0  0  0  0  0  0
  128.8621  129.3940   65.1444 H   0  0  0  0  0  0  0  0  0  0  0  0
  127.4063  128.3417   65.1444 H   0  0  0  0  0  0  0  0  0  0  0  0
  131.3933  128.1404   68.1409 H   0  0  0  0  0  0  0  0  0  0  0  0
  131.2459  128.3948   70.6119 H   0  0  0  0  0  0  0  0  0  0  0  0
  128.2627  128.9207   75.2489 H   0  0  0  0  0  0  0  0  0  0  0  0
  127.0943  131.1159   75.3925 H   0  0  0  0  0  0  0  0  0  0  0  0
  1  2  1  0
  2  3  2  0
  3  4  1  0
  4  5  2  0
  5  6  1  0
  6  7  2  0
  6  8  1  0
  8  9  1  0
  9 10  1  0
 10 11  1  0
 11 12  2  0
 12 13  1  0
 13 14  1  0
 14 15  1  0
 15 16  2  0
 16 17  1  0
 17 18  1  0
 18 19  2  0
 18 20  1  0
 20 21  1  0
 21 22  1  0
 22 23  1  0
 23 24  1  0
 24 25  2  0
 25 26  1  0
 26 27  2  0
 27 28  1  0
 28 29  2  0
 29 30  1  0
 16 31  1  0
 31 32  1  0
 32 33  1  0
 13 34  2  0
 34 35  1  0
 35 36  2  0
  5 37  1  0
 37 38  2  0
 38  2  1  0
 36  8  1  0
 36 11  1  0
 32 14  2  0
 30 21  1  0
 29 24  1  0
  1 39  1  0
  1 40  1  0
  1 41  1  0
  3 42  1  0
  4 43  1  0
  9 44  1  0
  9 45  1  0
 10 46  1  0
 10 47  1  0
 12 48  1  0
 17 49  1  0
 20 50  1  0
 20 51  1  0
 22 52  1  0
 22 53  1  0
 23 54  1  0
 23 55  1  0
 25 56  1  0
 26 57  1  0
 27 58  1  0
 28 59  1  0
 30 60  1  0
 30 61  1  0
 33 62  1  0
 33 63  1  0
 33 64  1  0
 34 65  1  0
 35 66  1  0
 37 67  1  0
 38 68  1  0
M  END
>  <Binding energies>  (1) 
[-9.87]

>  <Ligand effiencies>  (1) 
[-0.25307692307692303]

>  <Interactions>  (1) 
["V-B:TYR:539:CE2:9847, V-B:PRO:540:CA:9854, V-B:TYR:539:CD2:9845, V-B:TYR:539:CG:9843, V-B:ALA:541:CB:9863, V-B:TYR:539:C:9838, V-A:LEU:475:CD2:4258, V-B:PRO:540:N:9855, V-B:TYR:539:CZ:9848, H-A:GLY:454:N:4049, V-A:ILE:369:CD1:3238, H-A:TYR:484:OH:4347, V-A:GLU:543:CD:4908, V-A:GLU:543:CG:4907, V-A:GLU:543:CB:4906, V-B:HIS:456:CE1:9041, V-B:GLU:543:CB:9877, V-A:HIS:456:CE1:4069, V-B:HIS:456:CG:9037, V-B:HIS:456:CD2:9039, V-B:TYR:484:CE1:9316, V-B:TYR:484:CD1:9314, V-B:GLU:543:CD:9879, V-B:PRO:540:C:9852, V-A:GLY:454:CA:4048, V-B:GLU:543:C:9873, V-B:GLY:544:C:9883, H-A:LYS:547:NZ:4951, V-B:TYR:484:CG:9313, V-B:ASP:473:CG:9211, V-B:ASP:473:CB:9210, V-B:TYR:484:CB:9312, V-B:HIS:456:CB:9036, V-B:TYR:484:CD2:9315"]

$$$$
RR20_Rahimova_2017-again1
     RDKit          3D

 68 73  0  0  0  0  0  0  0  0999 V2000
  130.1120  121.3290   74.1350 C   0  0  0  0  0  0  0  0  0  0  0  0
  129.7820  122.7860   73.8620 C   0  0  0  0  0  0  0  0  0  0  0  0
  128.7640  123.1120   72.9640 C   0  0  0  0  0  0  0  0  0  0  0  0
  128.4560  124.4470   72.7190 C   0  0  0  0  0  0  0  0  0  0  0  0
  129.1690  125.4670   73.3590 C   0  0  0  0  0  0  0  0  0  0  0  0
  128.8080  126.9120   73.0930 C   0  0  0  0  0  0  0  0  0  0  0  0
  128.0500  127.4690   73.8890 O   0  0  0  0  0  0  0  0  0  0  0  0
  129.3500  127.5460   72.0120 N   0  0  0  0  0  0  0  0  0  0  0  0
  130.2850  128.6720   72.1710 C   0  0  0  0  0  0  0  0  0  0  0  0
  130.7860  129.0130   70.7770 C   0  0  0  0  0  0  0  0  0  0  0  0
  130.3850  127.8110   69.9760 C   0  0  0  0  0  0  0  0  0  0  0  0
  130.6520  127.5180   68.6390 C   0  0  0  0  0  0  0  0  0  0  0  0
  130.0470  126.4160   68.0140 C   0  0  0  0  0  0  0  0  0  0  0  0
  130.3290  126.1040   66.5720 C   0  0  0  0  0  0  0  0  0  0  0  0
  129.3160  126.1110   65.7200 N   0  0  0  0  0  0  0  0  0  0  0  0
  129.6510  125.8190   64.4870 C   0  0  0  0  0  0  0  0  0  0  0  0
  128.8510  125.6990   63.3810 N   0  0  0  0  0  0  0  0  0  0  0  0
  129.1380  126.1510   62.2070 C   0  0  0  0  0  0  0  0  0  0  0  0
  130.1620  126.7050   61.7630 O   0  0  0  0  0  0  0  0  0  0  0  0
  128.0120  125.9590   61.1700 C   0  0  0  0  0  0  0  0  0  0  0  0
  127.0700  124.8040   61.6190 N   0  0  2  0  0  0  0  0  0  0  0  0
  127.7300  123.4160   61.4850 C   0  0  0  0  0  0  0  0  0  0  0  0
  127.9910  123.0990   60.0010 C   0  0  0  0  0  0  0  0  0  0  0  0
  126.7750  123.3390   59.1120 C   0  0  0  0  0  0  0  0  0  0  0  0
  126.7000  122.7260   57.8560 C   0  0  0  0  0  0  0  0  0  0  0  0
  125.6290  122.9600   56.9980 C   0  0  0  0  0  0  0  0  0  0  0  0
  124.6080  123.8170   57.3920 C   0  0  0  0  0  0  0  0  0  0  0  0
  124.6610  124.4250   58.6430 C   0  0  0  0  0  0  0  0  0  0  0  0
  125.7260  124.1960   59.5220 C   0  0  0  0  0  0  0  0  0  0  0  0
  125.6970  124.8540   60.9070 C   0  0  0  0  0  0  0  0  0  0  0  0
  131.3300  125.4740   64.3030 S   0  0  0  0  0  0  0  0  0  0  0  0
  131.5800  125.7940   66.0020 C   0  0  0  0  0  0  0  0  0  0  0  0
  132.9700  125.7310   66.5990 C   0  0  0  0  0  0  0  0  0  0  0  0
  129.1360  125.6480   68.7510 C   0  0  0  0  0  0  0  0  0  0  0  0
  128.8530  125.9500   70.0840 C   0  0  0  0  0  0  0  0  0  0  0  0
  129.5220  127.0040   70.7190 C   0  0  0  0  0  0  0  0  0  0  0  0
  130.1690  125.1310   74.2820 C   0  0  0  0  0  0  0  0  0  0  0  0
  130.4770  123.7960   74.5280 C   0  0  0  0  0  0  0  0  0  0  0  0
  130.1505  121.1590   75.2211 H   0  0  0  0  0  0  0  0  0  0  0  0
  129.3363  120.6879   73.6908 H   0  0  0  0  0  0  0  0  0  0  0  0
  131.0882  121.0847   73.6908 H   0  0  0  0  0  0  0  0  0  0  0  0
  128.2061  122.3149   72.4508 H   0  0  0  0  0  0  0  0  0  0  0  0
  127.6474  124.7018   72.0182 H   0  0  0  0  0  0  0  0  0  0  0  0
  129.7676  129.5370   72.6116 H   0  0  0  0  0  0  0  0  0  0  0  0
  131.1169  128.4084   72.8407 H   0  0  0  0  0  0  0  0  0  0  0  0
  130.3022  129.9236   70.3940 H   0  0  0  0  0  0  0  0  0  0  0  0
  131.8658  129.2195   70.7410 H   0  0  0  0  0  0  0  0  0  0  0  0
  131.3430  128.1562   68.0688 H   0  0  0  0  0  0  0  0  0  0  0  0
  127.4324  126.8900   61.0842 H   0  0  0  0  0  0  0  0  0  0  0  0
  128.4559  125.7065   60.1958 H   0  0  0  0  0  0  0  0  0  0  0  0
  126.9050  124.9480   62.6070 H   0  0  0  0  0  0  0  0  0  0  0  0
  128.6844  123.4120   62.0318 H   0  0  0  0  0  0  0  0  0  0  0  0
  127.0570  122.6537   61.9045 H   0  0  0  0  0  0  0  0  0  0  0  0
  128.8142  123.7369   59.6469 H   0  0  0  0  0  0  0  0  0  0  0  0
  128.2386  122.0293   59.9341 H   0  0  0  0  0  0  0  0  0  0  0  0
  127.5041  122.0451   57.5402 H   0  0  0  0  0  0  0  0  0  0  0  0
  125.5909  122.4696   56.0141 H   0  0  0  0  0  0  0  0  0  0  0  0
  123.7614  124.0139   56.7178 H   0  0  0  0  0  0  0  0  0  0  0  0
  123.8479  125.1004   58.9476 H   0  0  0  0  0  0  0  0  0  0  0  0
  125.3986  125.9064   60.7908 H   0  0  0  0  0  0  0  0  0  0  0  0
  124.9802  124.2948   61.5263 H   0  0  0  0  0  0  0  0  0  0  0  0
  132.8981  125.7343   67.6966 H   0  0  0  0  0  0  0  0  0  0  0  0
  133.4702  124.8093   66.2670 H   0  0  0  0  0  0  0  0  0  0  0  0
  133.5515  126.6037   66.2670 H   0  0  0  0  0  0  0  0  0  0  0  0
  128.6359  124.7936   68.2716 H   0  0  0  0  0  0  0  0  0  0  0  0
  128.1053  125.3608   70.6352 H   0  0  0  0  0  0  0  0  0  0  0  0
  130.7126  125.9256   74.8141 H   0  0  0  0  0  0  0  0  0  0  0  0
  131.2681  123.5374   75.2472 H   0  0  0  0  0  0  0  0  0  0  0  0
  1  2  1  0
  2  3  2  0
  3  4  1  0
  4  5  2  0
  5  6  1  0
  6  7  2  0
  6  8  1  0
  8  9  1  0
  9 10  1  0
 10 11  1  0
 11 12  2  0
 12 13  1  0
 13 14  1  0
 14 15  1  0
 15 16  2  0
 16 17  1  0
 17 18  2  0
 18 19  1  0
 18 20  1  0
 20 21  1  0
 21 22  1  0
 22 23  1  0
 23 24  1  0
 24 25  2  0
 25 26  1  0
 26 27  2  0
 27 28  1  0
 28 29  2  0
 29 30  1  0
 16 31  1  0
 31 32  1  0
 32 33  1  0
 13 34  2  0
 34 35  1  0
 35 36  2  0
  5 37  1  0
 37 38  2  0
 38  2  1  0
 36  8  1  0
 36 11  1  0
 32 14  2  0
 30 21  1  0
 29 24  1  0
  1 39  1  0
  1 40  1  0
  1 41  1  0
  3 42  1  0
  4 43  1  0
  9 44  1  0
  9 45  1  0
 10 46  1  0
 10 47  1  0
 12 48  1  0
 20 49  1  0
 20 50  1  0
 21 51  1  1
 22 52  1  0
 22 53  1  0
 23 54  1  0
 23 55  1  0
 25 56  1  0
 26 57  1  0
 27 58  1  0
 28 59  1  0
 30 60  1  0
 30 61  1  0
 33 62  1  0
 33 63  1  0
 33 64  1  0
 34 65  1  0
 35 66  1  0
 37 67  1  0
 38 68  1  0
M  CHG  2  19  -1  21   1
M  END
>  <Binding energies>  (1) 
[-9.59]

>  <Ligand effiencies>  (1) 
[-0.2458974358974359]

>  <Interactions>  (1) 
["V-B:PRO:540:CA:9854, V-B:LEU:363:CD1:8160, V-B:PRO:540:CD:9858, V-B:PRO:540:CB:9856, V-B:ALA:541:CB:9863, V-B:TYR:539:C:9838, H-B:GLU:543:OE2:9881, V-B:PRO:540:N:9855, V-A:ARG:545:CZ:4926, V-A:GLU:543:CD:4908, V-A:GLU:543:CB:4906, V-B:HIS:456:CE1:9041, V-B:GLU:543:CB:9877, V-A:HIS:456:CE1:4069, V-B:GLU:543:CG:9878, V-B:HIS:456:CD2:9039, V-B:GLU:543:CD:9879, V-A:HIS:456:CD2:4067, V-A:ARG:545:CG:4922, V-A:ARG:545:CD:4923, H-B:LYS:547:NZ:9922, V-B:LYS:547:CE:9921, V-A:TYR:484:CB:4340, V-A:ASP:473:CG:4239, V-A:GLU:543:C:4902"]

$$$$
RR21_Rahimova_2017
     RDKit          3D

 62 67  0  0  0  0  0  0  0  0999 V2000
  123.6720  131.2090   62.9600 C   0  0  0  0  0  0  0  0  0  0  0  0
  124.1280  131.8370   64.1540 O   0  0  0  0  0  0  0  0  0  0  0  0
  125.0240  131.1710   64.9680 C   0  0  0  0  0  0  0  0  0  0  0  0
  124.6740  130.1260   65.8390 C   0  0  0  0  0  0  0  0  0  0  0  0
  125.6420  129.5030   66.6260 C   0  0  0  0  0  0  0  0  0  0  0  0
  126.9820  129.9030   66.5610 C   0  0  0  0  0  0  0  0  0  0  0  0
  128.0210  129.2290   67.4030 C   0  0  0  0  0  0  0  0  0  0  0  0
  128.2430  129.6500   68.6330 N   0  0  0  0  0  0  0  0  0  0  0  0
  129.2100  128.8700   69.1390 N   0  0  0  0  0  0  0  0  0  0  0  0
  129.6810  129.0420   70.4670 C   0  0  0  0  0  0  0  0  0  0  0  0
  130.8040  128.3360   70.9260 C   0  0  0  0  0  0  0  0  0  0  0  0
  131.2600  128.5160   72.2290 C   0  0  0  0  0  0  0  0  0  0  0  0
  130.5960  129.4000   73.0770 C   0  0  0  0  0  0  0  0  0  0  0  0
  129.4780  130.1030   72.6340 C   0  0  0  0  0  0  0  0  0  0  0  0
  129.0200  129.9250   71.3320 C   0  0  0  0  0  0  0  0  0  0  0  0
  129.5910  127.9300   68.2160 C   0  0  0  0  0  0  0  0  0  0  0  0
  128.8500  128.1360   67.0620 C   0  0  0  0  0  0  0  0  0  0  0  0
  128.8700  127.3620   65.8300 C   0  0  0  0  0  0  0  0  0  0  0  0
  129.8320  126.5200   65.3860 C   0  0  0  0  0  0  0  0  0  0  0  0
  131.3730  126.1110   66.1710 S   0  0  0  0  0  0  0  0  0  0  0  0
  131.7430  125.0190   64.8450 C   0  0  0  0  0  0  0  0  0  0  0  0
  132.7920  124.2700   64.7000 N   0  0  0  0  0  0  0  0  0  0  0  0
  132.9650  123.4160   63.5750 C   0  0  0  0  0  0  0  0  0  0  0  0
  133.9170  122.6630   63.3750 O   0  0  0  0  0  0  0  0  0  0  0  0
  131.8370  123.4840   62.5820 C   0  0  0  0  0  0  0  0  0  0  0  0
  131.9220  122.6210   61.3170 C   0  0  0  0  0  0  0  0  0  0  0  0
  130.6790  122.6760   60.4320 C   0  0  0  0  0  0  0  0  0  0  0  0
  130.5060  123.7320   59.5330 C   0  0  0  0  0  0  0  0  0  0  0  0
  129.3800  123.7730   58.7150 C   0  0  0  0  0  0  0  0  0  0  0  0
  128.4240  122.7580   58.7920 C   0  0  0  0  0  0  0  0  0  0  0  0
  127.2050  122.8010   57.8890 C   0  0  0  0  0  0  0  0  0  0  0  0
  128.6010  121.6960   59.6820 C   0  0  0  0  0  0  0  0  0  0  0  0
  129.7260  121.6550   60.5000 C   0  0  0  0  0  0  0  0  0  0  0  0
  130.8000  124.2410   62.7370 N   0  0  0  0  0  0  0  0  0  0  0  0
  130.7530  125.0230   63.8980 N   0  0  0  0  0  0  0  0  0  0  0  0
  129.6790  125.8200   64.1180 C   0  0  0  0  0  0  0  0  0  0  0  0
  128.7120  125.9270   63.3540 O   0  0  0  0  0  0  0  0  0  0  0  0
  127.3300  130.9470   65.6980 C   0  0  0  0  0  0  0  0  0  0  0  0
  126.3630  131.5730   64.9100 C   0  0  0  0  0  0  0  0  0  0  0  0
  126.7330  132.5800   64.0850 F   0  0  0  0  0  0  0  0  0  0  0  0
  123.0437  130.3437   63.2178 H   0  0  0  0  0  0  0  0  0  0  0  0
  123.0833  131.9268   62.3700 H   0  0  0  0  0  0  0  0  0  0  0  0
  124.5368  130.8714   62.3700 H   0  0  0  0  0  0  0  0  0  0  0  0
  123.6265  129.7960   65.9008 H   0  0  0  0  0  0  0  0  0  0  0  0
  125.3496  128.6886   67.3051 H   0  0  0  0  0  0  0  0  0  0  0  0
  131.3254  127.6384   70.2541 H   0  0  0  0  0  0  0  0  0  0  0  0
  132.1406  127.9628   72.5875 H   0  0  0  0  0  0  0  0  0  0  0  0
  130.9580  129.5441   74.1057 H   0  0  0  0  0  0  0  0  0  0  0  0
  128.9586  130.7969   73.3114 H   0  0  0  0  0  0  0  0  0  0  0  0
  128.1369  130.4787   70.9807 H   0  0  0  0  0  0  0  0  0  0  0  0
  130.3514  127.1492   68.3649 H   0  0  0  0  0  0  0  0  0  0  0  0
  127.9922  127.4756   65.1769 H   0  0  0  0  0  0  0  0  0  0  0  0
  132.7824  122.9639   60.7236 H   0  0  0  0  0  0  0  0  0  0  0  0
  132.0220  121.5786   61.6539 H   0  0  0  0  0  0  0  0  0  0  0  0
  131.2596  124.5310   59.4716 H   0  0  0  0  0  0  0  0  0  0  0  0
  129.2435  124.6048   58.0082 H   0  0  0  0  0  0  0  0  0  0  0  0
  126.2938  122.8331   58.5044 H   0  0  0  0  0  0  0  0  0  0  0  0
  127.2505  123.6981   57.2541 H   0  0  0  0  0  0  0  0  0  0  0  0
  127.1872  121.9029   57.2541 H   0  0  0  0  0  0  0  0  0  0  0  0
  127.8516  120.8926   59.7362 H   0  0  0  0  0  0  0  0  0  0  0  0
  129.8657  120.8187   61.2007 H   0  0  0  0  0  0  0  0  0  0  0  0
  128.3773  131.2784   65.6396 H   0  0  0  0  0  0  0  0  0  0  0  0
  1  2  1  0
  2  3  1  0
  3  4  2  0
  4  5  1  0
  5  6  2  0
  6  7  1  0
  7  8  2  0
  8  9  1  0
  9 10  1  0
 10 11  2  0
 11 12  1  0
 12 13  2  0
 13 14  1  0
 14 15  2  0
  9 16  1  0
 16 17  2  0
 17 18  1  0
 18 19  2  0
 19 20  1  0
 20 21  1  0
 21 22  2  0
 22 23  1  0
 23 24  2  0
 23 25  1  0
 25 26  1  0
 26 27  1  0
 27 28  2  0
 28 29  1  0
 29 30  2  0
 30 31  1  0
 30 32  1  0
 32 33  2  0
 25 34  2  0
 34 35  1  0
 35 36  1  0
 36 37  2  0
  6 38  1  0
 38 39  2  0
 39 40  1  0
 39  3  1  0
 17  7  1  0
 36 19  1  0
 15 10  1  0
 35 21  1  0
 33 27  1  0
  1 41  1  0
  1 42  1  0
  1 43  1  0
  4 44  1  0
  5 45  1  0
 11 46  1  0
 12 47  1  0
 13 48  1  0
 14 49  1  0
 15 50  1  0
 16 51  1  0
 18 52  1  0
 26 53  1  0
 26 54  1  0
 28 55  1  0
 29 56  1  0
 31 57  1  0
 31 58  1  0
 31 59  1  0
 32 60  1  0
 33 61  1  0
 38 62  1  0
M  END
>  <Binding energies>  (1) 
[-8.85]

>  <Ligand effiencies>  (1) 
[-0.22125]

>  <Interactions>  (1) 
["V-B:TYR:539:CE2:9847, V-B:PRO:540:CA:9854, V-B:TYR:539:CD2:9845, V-B:TYR:539:CG:9843, V-B:TYR:539:C:9838, V-B:PRO:540:N:9855, V-B:TYR:539:CZ:9848, H-A:GLY:454:N:4049, V-A:ILE:369:CG2:3236, H-A:TYR:484:OH:4347, V-A:GLU:543:CD:4908, V-A:GLU:543:CG:4907, V-A:GLU:543:CB:4906, V-B:HIS:456:CE1:9041, V-A:HIS:456:CE1:4069, V-B:GLU:543:CD:9879, V-B:PRO:540:C:9852, V-A:GLY:454:CA:4048, V-B:LEU:475:CD1:9229, V-B:GLY:454:CA:9020, V-B:ARG:545:CZ:9897, H-B:TYR:484:OH:9319, H-B:GLY:454:N:9021, H-B:HIS:456:ND1:9038, V-B:ILE:369:CD1:8210, V-A:LYS:547:CE:4950, V-A:GLY:544:C:4912"]

$$$$
RR22_Rahimova_2017
     RDKit          3D

 49 54  0  0  0  0  0  0  0  0999 V2000
  123.8210  130.9540   56.2510 O   0  0  0  0  0  0  0  0  0  0  0  0
  124.7810  130.7750   56.9970 C   0  0  0  0  0  0  0  0  0  0  0  0
  124.7550  130.4110   58.3320 N   0  0  0  0  0  0  0  0  0  0  0  0
  125.9720  130.1820   59.0490 C   0  0  1  0  0  0  0  0  0  0  0  0
  125.9110  131.0550   60.1810 O   0  0  0  0  0  0  0  0  0  0  0  0
  125.9620  130.4910   61.4560 C   0  0  0  0  0  0  0  0  0  0  0  0
  125.5360  131.2980   62.5100 C   0  0  0  0  0  0  0  0  0  0  0  0
  125.5960  130.8180   63.8190 C   0  0  0  0  0  0  0  0  0  0  0  0
  126.0880  129.5380   64.0710 C   0  0  0  0  0  0  0  0  0  0  0  0
  126.5150  128.7300   63.0160 C   0  0  0  0  0  0  0  0  0  0  0  0
  126.4380  129.1880   61.6970 C   0  0  0  0  0  0  0  0  0  0  0  0
  126.9140  128.4100   60.4910 C   0  0  1  0  0  0  0  0  0  0  0  0
  126.8520  126.8970   60.4220 C   0  0  0  0  0  0  0  0  0  0  0  0
  126.6720  126.7110   58.9130 C   0  0  0  0  0  0  0  0  0  0  0  0
  126.9350  125.4290   58.2290 C   0  0  0  0  0  0  0  0  0  0  0  0
  125.9940  124.3900   58.2740 C   0  0  0  0  0  0  0  0  0  0  0  0
  126.2470  123.1840   57.6270 C   0  0  0  0  0  0  0  0  0  0  0  0
  127.4400  123.0090   56.9320 C   0  0  0  0  0  0  0  0  0  0  0  0
  128.3850  124.0300   56.8780 C   0  0  0  0  0  0  0  0  0  0  0  0
  128.1330  125.2380   57.5230 C   0  0  0  0  0  0  0  0  0  0  0  0
  126.2500  127.7870   58.3620 N   0  0  0  0  0  0  0  0  0  0  0  0
  126.0900  128.7520   59.3710 N   0  0  0  0  0  0  0  0  0  0  0  0
  127.1010  130.6820   58.1590 C   0  0  0  0  0  0  0  0  0  0  0  0
  128.3450  130.9450   58.6250 C   0  0  0  0  0  0  0  0  0  0  0  0
  129.5270  131.4120   57.8750 C   0  0  0  0  0  0  0  0  0  0  0  0
  130.6600  130.6150   57.6550 C   0  0  0  0  0  0  0  0  0  0  0  0
  131.7430  131.1240   56.9370 C   0  0  0  0  0  0  0  0  0  0  0  0
  131.6670  132.4320   56.4580 C   0  0  0  0  0  0  0  0  0  0  0  0
  130.5880  133.2290   56.6630 N   0  0  0  0  0  0  0  0  0  0  0  0
  129.5450  132.7150   57.3640 C   0  0  0  0  0  0  0  0  0  0  0  0
  126.5230  130.9540   56.5090 S   0  0  0  0  0  0  0  0  0  0  0  0
  123.8820  130.3430   58.8330 H   0  0  0  0  0  0  0  0  0  0  0  0
  125.1538  132.3100   62.3104 H   0  0  0  0  0  0  0  0  0  0  0  0
  125.2550  131.4498   64.6524 H   0  0  0  0  0  0  0  0  0  0  0  0
  126.1398  129.1639   65.1041 H   0  0  0  0  0  0  0  0  0  0  0  0
  126.9147  127.7264   63.2235 H   0  0  0  0  0  0  0  0  0  0  0  0
  127.9773  128.6895   60.5254 H   0  0  0  0  0  0  0  0  0  0  0  0
  127.7815  126.4328   60.7832 H   0  0  0  0  0  0  0  0  0  0  0  0
  126.0710  126.4349   61.0438 H   0  0  0  0  0  0  0  0  0  0  0  0
  125.0512  124.5290   58.8234 H   0  0  0  0  0  0  0  0  0  0  0  0
  125.5063  122.3716   57.6648 H   0  0  0  0  0  0  0  0  0  0  0  0
  127.6381  122.0554   56.4207 H   0  0  0  0  0  0  0  0  0  0  0  0
  129.3264  123.8830   56.3283 H   0  0  0  0  0  0  0  0  0  0  0  0
  128.8769  126.0471   57.4790 H   0  0  0  0  0  0  0  0  0  0  0  0
  128.4939  130.7903   59.7038 H   0  0  0  0  0  0  0  0  0  0  0  0
  130.6949  129.5884   58.0485 H   0  0  0  0  0  0  0  0  0  0  0  0
  132.6357  130.5082   56.7530 H   0  0  0  0  0  0  0  0  0  0  0  0
  132.5184  132.8347   55.8897 H   0  0  0  0  0  0  0  0  0  0  0  0
  128.6684  133.3560   57.5395 H   0  0  0  0  0  0  0  0  0  0  0  0
  1  2  2  0
  2  3  1  0
  3  4  1  0
  4  5  1  1
  5  6  1  0
  6  7  2  0
  7  8  1  0
  8  9  2  0
  9 10  1  0
 10 11  2  0
 11 12  1  0
 12 13  1  0
 13 14  1  0
 14 15  1  0
 15 16  2  0
 16 17  1  0
 17 18  2  0
 18 19  1  0
 19 20  2  0
 14 21  2  0
 21 22  1  0
  4 23  1  0
 23 24  2  0
 24 25  1  0
 25 26  2  0
 26 27  1  0
 27 28  2  0
 28 29  1  0
 29 30  2  0
 23 31  1  0
 31  2  1  0
 22  4  1  0
 30 25  1  0
 11  6  1  0
 22 12  1  0
 20 15  1  0
  3 32  1  0
  7 33  1  0
  8 34  1  0
  9 35  1  0
 10 36  1  0
 12 37  1  6
 13 38  1  0
 13 39  1  0
 16 40  1  0
 17 41  1  0
 18 42  1  0
 19 43  1  0
 20 44  1  0
 24 45  1  0
 26 46  1  0
 27 47  1  0
 28 48  1  0
 30 49  1  0
M  END
>  <Binding energies>  (1) 
[-8.29]

>  <Ligand effiencies>  (1) 
[-0.2590625]

>  <Interactions>  (1) 
["H-B:ASP:366:OD2:8186, V-B:TYR:539:CE2:9847, V-B:PRO:540:CA:9854, V-B:PRO:540:CB:9856, V-B:PRO:540:N:9855, V-B:TYR:539:CD1:9844, V-B:TYR:539:CE1:9846, H-B:TYR:531:OH:9766, V-B:TYR:539:CZ:9848, V-B:TYR:531:CZ:9765, V-A:LEU:363:CD1:3188, V-A:TYR:539:C:4867, H-A:TYR:539:N:4870, V-A:TYR:531:CE2:4793, V-A:TYR:539:CZ:4877, V-B:ASP:366:CB:8183, V-B:ASP:366:CG:8184, V-B:ASP:366:CA:8181, H-B:ASP:366:OD1:8185, H-A:TYR:539:OH:4878, V-B:TYR:531:CE1:9763, H-B:ASP:366:O:8180, H-B:ASN:370:ND2:8219"]

$$$$
RR23_Rahimova_2017
     RDKit          3D

 65 70  0  0  0  0  0  0  0  0999 V2000
  127.6140  133.4060   73.8750 C   0  0  0  0  0  0  0  0  0  0  0  0
  128.3260  132.1490   73.4110 C   0  0  0  0  0  0  0  0  0  0  0  0
  129.5630  131.8040   73.9580 C   0  0  0  0  0  0  0  0  0  0  0  0
  130.2110  130.6450   73.5380 C   0  0  0  0  0  0  0  0  0  0  0  0
  129.6330  129.8280   72.5590 C   0  0  0  0  0  0  0  0  0  0  0  0
  130.3430  128.5640   72.1320 C   0  0  0  0  0  0  0  0  0  0  0  0
  131.4150  128.2970   72.6800 O   0  0  0  0  0  0  0  0  0  0  0  0
  129.7740  127.7640   71.1810 N   0  0  0  0  0  0  0  0  0  0  0  0
  129.3360  126.3930   71.4890 C   0  0  0  0  0  0  0  0  0  0  0  0
  128.6310  125.8800   70.2440 C   0  0  0  0  0  0  0  0  0  0  0  0
  128.3910  127.1330   69.4560 C   0  0  0  0  0  0  0  0  0  0  0  0
  127.6990  127.2970   68.2560 C   0  0  0  0  0  0  0  0  0  0  0  0
  127.7220  128.5300   67.5880 C   0  0  0  0  0  0  0  0  0  0  0  0
  126.9730  128.7540   66.2640 C   0  0  2  0  0  0  0  0  0  0  0  0
  127.5110  129.8700   65.5160 N   0  0  0  0  0  0  0  0  0  0  0  0
  126.6110  130.4650   64.8410 C   0  0  0  0  0  0  0  0  0  0  0  0
  126.7450  131.5620   64.0470 N   0  0  0  0  0  0  0  0  0  0  0  0
  127.8270  132.3630   63.8940 C   0  0  0  0  0  0  0  0  0  0  0  0
  128.9210  132.2000   64.4380 O   0  0  0  0  0  0  0  0  0  0  0  0
  127.6320  133.5680   62.9590 C   0  0  0  0  0  0  0  0  0  0  0  0
  128.0340  133.1860   61.5860 N   0  0  0  0  0  0  0  0  0  0  0  0
  127.0130  133.1850   60.6440 N   0  0  0  0  0  0  0  0  0  0  0  0
  127.2330  132.8690   59.4080 N   0  0  0  0  0  0  0  0  0  0  0  0
  128.5230  132.5200   59.0000 C   0  0  0  0  0  0  0  0  0  0  0  0
  128.7260  132.1820   57.6600 C   0  0  0  0  0  0  0  0  0  0  0  0
  130.0030  131.8280   57.2220 C   0  0  0  0  0  0  0  0  0  0  0  0
  131.0740  131.8110   58.1190 C   0  0  0  0  0  0  0  0  0  0  0  0
  130.8730  132.1480   59.4590 C   0  0  0  0  0  0  0  0  0  0  0  0
  129.5920  132.5040   59.8980 C   0  0  0  0  0  0  0  0  0  0  0  0
  129.3520  132.8690   61.3440 C   0  0  0  0  0  0  0  0  0  0  0  0
  130.2350  132.8700   62.2070 O   0  0  0  0  0  0  0  0  0  0  0  0
  124.9520  129.8070   64.9440 S   0  0  0  0  0  0  0  0  0  0  0  0
  125.4400  128.8870   66.4150 C   0  0  2  0  0  0  0  0  0  0  0  0
  124.9290  129.6310   67.6660 C   0  0  0  0  0  0  0  0  0  0  0  0
  128.4880  129.5730   68.1200 C   0  0  0  0  0  0  0  0  0  0  0  0
  129.1980  129.4030   69.3100 C   0  0  0  0  0  0  0  0  0  0  0  0
  129.1050  128.1950   70.0130 C   0  0  0  0  0  0  0  0  0  0  0  0
  128.3790  130.1660   72.0350 C   0  0  0  0  0  0  0  0  0  0  0  0
  127.7310  131.3240   72.4550 C   0  0  0  0  0  0  0  0  0  0  0  0
  127.5983  133.4338   74.9745 H   0  0  0  0  0  0  0  0  0  0  0  0
  128.1453  134.2904   73.4934 H   0  0  0  0  0  0  0  0  0  0  0  0
  126.5823  133.4051   73.4934 H   0  0  0  0  0  0  0  0  0  0  0  0
  130.0259  132.4474   74.7207 H   0  0  0  0  0  0  0  0  0  0  0  0
  131.1813  130.3703   73.9774 H   0  0  0  0  0  0  0  0  0  0  0  0
  130.2042  125.7595   71.7233 H   0  0  0  0  0  0  0  0  0  0  0  0
  128.6683  126.3737   72.3629 H   0  0  0  0  0  0  0  0  0  0  0  0
  129.2702  125.1787   69.6876 H   0  0  0  0  0  0  0  0  0  0  0  0
  127.7091  125.3221   70.4651 H   0  0  0  0  0  0  0  0  0  0  0  0
  127.1324  126.4551   67.8315 H   0  0  0  0  0  0  0  0  0  0  0  0
  127.1450  127.8311   65.6908 H   0  0  0  0  0  0  0  0  0  0  0  0
  125.9190  131.8450   63.5410 H   0  0  0  0  0  0  0  0  0  0  0  0
  126.5742  133.8696   62.9626 H   0  0  0  0  0  0  0  0  0  0  0  0
  128.2498  134.4096   63.3054 H   0  0  0  0  0  0  0  0  0  0  0  0
  127.8832  132.1948   56.9532 H   0  0  0  0  0  0  0  0  0  0  0  0
  130.1667  131.5616   56.1674 H   0  0  0  0  0  0  0  0  0  0  0  0
  132.0785  131.5313   57.7686 H   0  0  0  0  0  0  0  0  0  0  0  0
  131.7160  132.1339   60.1655 H   0  0  0  0  0  0  0  0  0  0  0  0
  125.0082  127.8817   66.5290 H   0  0  0  0  0  0  0  0  0  0  0  0
  125.2837  129.1146   68.5702 H   0  0  0  0  0  0  0  0  0  0  0  0
  125.3098  130.6630   67.6600 H   0  0  0  0  0  0  0  0  0  0  0  0
  123.8291  129.6460   67.6600 H   0  0  0  0  0  0  0  0  0  0  0  0
  128.5313  130.5383   67.5944 H   0  0  0  0  0  0  0  0  0  0  0  0
  129.8298  130.2169   69.6952 H   0  0  0  0  0  0  0  0  0  0  0  0
  127.9039  129.5132   71.2879 H   0  0  0  0  0  0  0  0  0  0  0  0
  126.7501  131.5890   72.0336 H   0  0  0  0  0  0  0  0  0  0  0  0
  1  2  1  0
  2  3  2  0
  3  4  1  0
  4  5  2  0
  5  6  1  0
  6  7  2  0
  6  8  1  0
  8  9  1  0
  9 10  1  0
 10 11  1  0
 11 12  2  0
 12 13  1  0
 13 14  1  0
 14 15  1  0
 15 16  2  0
 16 17  1  0
 17 18  1  0
 18 19  2  0
 18 20  1  0
 20 21  1  0
 21 22  1  0
 22 23  2  0
 23 24  1  0
 24 25  2  0
 25 26  1  0
 26 27  2  0
 27 28  1  0
 28 29  2  0
 29 30  1  0
 30 31  2  0
 16 32  1  0
 32 33  1  0
 33 34  1  0
 13 35  2  0
 35 36  1  0
 36 37  2  0
  5 38  1  0
 38 39  2  0
 39  2  1  0
 37  8  1  0
 37 11  1  0
 33 14  1  0
 30 21  1  0
 29 24  1  0
  1 40  1  0
  1 41  1  0
  1 42  1  0
  3 43  1  0
  4 44  1  0
  9 45  1  0
  9 46  1  0
 10 47  1  0
 10 48  1  0
 12 49  1  0
 14 50  1  6
 17 51  1  0
 20 52  1  0
 20 53  1  0
 25 54  1  0
 26 55  1  0
 27 56  1  0
 28 57  1  0
 33 58  1  6
 34 59  1  0
 34 60  1  0
 34 61  1  0
 35 62  1  0
 36 63  1  0
 38 64  1  0
 39 65  1  0
M  END
>  <Binding energies>  (1) 
[-9.41]

>  <Ligand effiencies>  (1) 
[-0.23525000000000001]

>  <Interactions>  (1) 
["H-B:ARG:545:NH2:9899, V-A:GLU:543:CD:4908, V-A:GLU:543:CG:4907, V-A:GLU:543:CB:4906, V-B:HIS:456:CE1:9041, V-B:GLU:543:CB:9877, V-A:HIS:456:CE1:4069, V-B:HIS:456:CG:9037, V-B:HIS:456:CD2:9039, V-B:TYR:484:CE1:9316, V-B:TYR:484:CD1:9314, V-B:GLU:543:CD:9879, V-A:HIS:456:CD2:4067, V-A:PRO:540:N:4884, V-A:TYR:539:C:4867, V-A:PRO:540:CA:4883, V-A:TYR:539:CE2:4876, V-A:TYR:539:CD2:4874, V-A:PRO:540:CB:4885, H-A:ALA:541:N:4891, V-A:ALA:541:CB:4892, V-B:LEU:475:CD1:9229, V-B:ARG:545:CG:9893, V-B:ARG:545:CD:9894, V-B:ARG:545:CZ:9897, H-B:ARG:545:NE:9895, V-B:TYR:484:CZ:9318, H-A:LYS:547:NZ:4951, V-B:TYR:484:CG:9313, V-A:LYS:547:CE:4950, V-A:GLU:543:CA:4904, V-B:ASP:473:CG:9211, V-B:ASP:473:CB:9210, V-B:TYR:484:CB:9312, V-B:HIS:456:CB:9036, V-B:TYR:484:CD2:9315"]

$$$$
RR24_Rahimova_2017
     RDKit          3D

 65 71  0  0  0  0  0  0  0  0999 V2000
  133.7000  122.4930   62.6440 C   0  0  0  0  0  0  0  0  0  0  0  0
  133.2330  123.7780   61.9470 C   0  0  2  0  0  0  0  0  0  0  0  0
  133.2940  125.0330   62.8670 C   0  0  0  0  0  0  0  0  0  0  0  0
  134.0020  125.0710   63.8780 O   0  0  0  0  0  0  0  0  0  0  0  0
  132.4710  126.0350   62.4400 O   0  0  0  0  0  0  0  0  0  0  0  0
  131.4360  126.4550   63.2440 C   0  0  0  0  0  0  0  0  0  0  0  0
  131.1100  125.7140   64.3820 C   0  0  0  0  0  0  0  0  0  0  0  0
  130.0720  126.1330   65.2080 C   0  0  0  0  0  0  0  0  0  0  0  0
  129.3610  127.2990   64.9070 C   0  0  0  0  0  0  0  0  0  0  0  0
  128.2060  127.7450   65.8100 C   0  0  1  0  0  0  0  0  0  0  0  0
  128.6770  128.0200   67.2580 C   0  0  0  0  0  0  0  0  0  0  0  0
  128.3920  129.1600   67.9120 C   0  0  0  0  0  0  0  0  0  0  0  0
  127.6600  130.1710   67.3390 N   0  0  0  0  0  0  0  0  0  0  0  0
  127.1790  130.0640   66.0550 C   0  0  0  0  0  0  0  0  0  0  0  0
  126.4680  131.1440   65.6400 N   0  0  0  0  0  0  0  0  0  0  0  0
  125.9810  131.2530   64.3740 C   0  0  0  0  0  0  0  0  0  0  0  0
  125.6310  132.3580   63.9560 O   0  0  0  0  0  0  0  0  0  0  0  0
  126.0930  130.0930   63.6240 N   0  0  0  0  0  0  0  0  0  0  0  0
  125.4980  130.1280   62.2720 C   0  0  0  0  0  0  0  0  0  0  0  0
  126.7930  128.9430   63.9470 C   0  0  0  0  0  0  0  0  0  0  0  0
  126.8930  127.9610   63.2030 O   0  0  0  0  0  0  0  0  0  0  0  0
  127.4000  128.9690   65.2810 C   0  0  0  0  0  0  0  0  0  0  0  0
  128.9600  129.1450   69.2500 C   0  0  0  0  0  0  0  0  0  0  0  0
  128.9530  130.0670   70.2970 C   0  0  0  0  0  0  0  0  0  0  0  0
  129.6070  129.7480   71.4900 C   0  0  0  0  0  0  0  0  0  0  0  0
  130.2590  128.5190   71.6300 C   0  0  0  0  0  0  0  0  0  0  0  0
  130.2620  127.6000   70.5770 C   0  0  0  0  0  0  0  0  0  0  0  0
  129.6080  127.9240   69.3870 C   0  0  0  0  0  0  0  0  0  0  0  0
  129.4540  127.1520   68.1360 C   0  0  0  0  0  0  0  0  0  0  0  0
  129.8680  126.0300   67.8480 O   0  0  0  0  0  0  0  0  0  0  0  0
  129.7020  128.0490   63.7760 C   0  0  0  0  0  0  0  0  0  0  0  0
  130.7420  127.6310   62.9500 C   0  0  0  0  0  0  0  0  0  0  0  0
  131.8980  123.6120   61.3000 N   0  0  0  0  0  0  0  0  0  0  0  0
  131.6620  124.0450   60.0300 C   0  0  0  0  0  0  0  0  0  0  0  0
  132.4540  124.6100   59.2730 O   0  0  0  0  0  0  0  0  0  0  0  0
  130.2470  123.6940   59.7490 C   0  0  0  0  0  0  0  0  0  0  0  0
  129.4640  123.8970   58.6120 C   0  0  0  0  0  0  0  0  0  0  0  0
  128.1370  123.4520   58.6260 C   0  0  0  0  0  0  0  0  0  0  0  0
  127.6170  122.8170   59.7600 C   0  0  0  0  0  0  0  0  0  0  0  0
  128.4180  122.6230   60.8900 C   0  0  0  0  0  0  0  0  0  0  0  0
  129.7380  123.0740   60.8580 C   0  0  0  0  0  0  0  0  0  0  0  0
  130.8130  123.0120   61.8790 C   0  0  0  0  0  0  0  0  0  0  0  0
  130.7440  122.5190   63.0060 O   0  0  0  0  0  0  0  0  0  0  0  0
  133.6507  122.6287   63.7345 H   0  0  0  0  0  0  0  0  0  0  0  0
  133.0479  121.6579   62.3486 H   0  0  0  0  0  0  0  0  0  0  0  0
  134.7362  122.2714   62.3486 H   0  0  0  0  0  0  0  0  0  0  0  0
  133.9584  123.9658   61.1417 H   0  0  0  0  0  0  0  0  0  0  0  0
  131.6730  124.8007   64.6248 H   0  0  0  0  0  0  0  0  0  0  0  0
  129.8098  125.5456   66.1003 H   0  0  0  0  0  0  0  0  0  0  0  0
  127.5165  126.8879   65.8010 H   0  0  0  0  0  0  0  0  0  0  0  0
  127.4670  131.0100   67.8680 H   0  0  0  0  0  0  0  0  0  0  0  0
  126.3000  131.9230   66.2610 H   0  0  0  0  0  0  0  0  0  0  0  0
  124.4030  130.1924   62.3548 H   0  0  0  0  0  0  0  0  0  0  0  0
  125.8768  131.0054   61.7273 H   0  0  0  0  0  0  0  0  0  0  0  0
  125.7713  129.2122   61.7273 H   0  0  0  0  0  0  0  0  0  0  0  0
  128.4391  131.0331   70.1848 H   0  0  0  0  0  0  0  0  0  0  0  0
  129.6089  130.4669   72.3226 H   0  0  0  0  0  0  0  0  0  0  0  0
  130.7714  128.2746   72.5722 H   0  0  0  0  0  0  0  0  0  0  0  0
  130.7739  126.6323   70.6847 H   0  0  0  0  0  0  0  0  0  0  0  0
  129.1481  128.9694   63.5393 H   0  0  0  0  0  0  0  0  0  0  0  0
  131.0168  128.2263   62.0668 H   0  0  0  0  0  0  0  0  0  0  0  0
  129.8804  124.3957   57.7243 H   0  0  0  0  0  0  0  0  0  0  0  0
  127.4999  123.6019   57.7419 H   0  0  0  0  0  0  0  0  0  0  0  0
  126.5735  122.4690   59.7624 H   0  0  0  0  0  0  0  0  0  0  0  0
  128.0159  122.1255   61.7849 H   0  0  0  0  0  0  0  0  0  0  0  0
  1  2  1  0
  2  3  1  0
  3  4  2  0
  3  5  1  0
  5  6  1  0
  6  7  2  0
  7  8  1  0
  8  9  2  0
  9 10  1  0
 10 11  1  0
 11 12  2  0
 12 13  1  0
 13 14  1  0
 14 15  1  0
 15 16  1  0
 16 17  2  0
 16 18  1  0
 18 19  1  0
 18 20  1  0
 20 21  2  0
 20 22  1  0
 12 23  1  0
 23 24  2  0
 24 25  1  0
 25 26  2  0
 26 27  1  0
 27 28  2  0
 28 29  1  0
 29 30  2  0
  9 31  1  0
 31 32  2  0
  2 33  1  0
 33 34  1  0
 34 35  2  0
 34 36  1  0
 36 37  2  0
 37 38  1  0
 38 39  2  0
 39 40  1  0
 40 41  2  0
 41 42  1  0
 42 43  2  0
 32  6  1  0
 42 33  1  0
 22 10  1  0
 28 23  1  0
 41 36  1  0
 29 11  1  0
 22 14  2  0
  1 44  1  0
  1 45  1  0
  1 46  1  0
  2 47  1  6
  7 48  1  0
  8 49  1  0
 10 50  1  1
 13 51  1  0
 15 52  1  0
 19 53  1  0
 19 54  1  0
 19 55  1  0
 24 56  1  0
 25 57  1  0
 26 58  1  0
 27 59  1  0
 31 60  1  0
 32 61  1  0
 37 62  1  0
 38 63  1  0
 39 64  1  0
 40 65  1  0
M  END
>  <Binding energies>  (1) 
[-9.96]

>  <Ligand effiencies>  (1) 
[-0.22133333333333335]

>  <Interactions>  (1) 
["V-B:TYR:539:CE2:9847, V-B:PRO:540:CA:9854, V-B:ALA:541:CB:9863, V-B:PRO:540:N:9855, V-B:TYR:539:CZ:9848, H-A:ARG:545:NH2:4928, H-A:GLY:454:N:4049, H-A:ARG:545:NH1:4927, V-A:ILE:369:CD1:3238, V-A:ILE:369:CG2:3236, H-B:TYR:539:OH:9849, V-A:ARG:545:CZ:4926, H-B:ARG:545:NH2:9899, V-A:GLU:543:CD:4908, V-A:GLU:543:CG:4907, V-A:GLU:543:CB:4906, V-B:HIS:456:CE1:9041, V-A:HIS:456:CE1:4069, V-B:TYR:484:CE1:9316, V-B:GLU:543:CD:9879, V-A:GLY:454:CA:4048, V-B:ASP:366:CG:8184, H-B:TYR:484:OH:9319, V-B:TYR:484:CZ:9318, V-A:GLU:543:CA:4904, V-A:GLU:543:C:4902"]

$$$$
RR24_Rahimova_2017-again1
     RDKit          3D

 63 69  0  0  0  0  0  0  0  0999 V2000
  129.1630  121.0520   61.1330 C   0  0  0  0  0  0  0  0  0  0  0  0
  129.1120  122.5800   60.9950 C   0  0  2  0  0  0  0  0  0  0  0  0
  129.3690  123.3300   62.3340 C   0  0  0  0  0  0  0  0  0  0  0  0
  128.8820  122.9460   63.4040 O   0  0  0  0  0  0  0  0  0  0  0  0
  130.1520  124.4380   62.1750 O   0  0  0  0  0  0  0  0  0  0  0  0
  129.5750  125.6870   62.2030 C   0  0  0  0  0  0  0  0  0  0  0  0
  128.3600  125.8980   61.5490 C   0  0  0  0  0  0  0  0  0  0  0  0
  127.7600  127.1530   61.5880 C   0  0  0  0  0  0  0  0  0  0  0  0
  128.3670  128.2020   62.2870 C   0  0  0  0  0  0  0  0  0  0  0  0
  127.7090  129.5880   62.3330 C   0  0  1  0  0  0  0  0  0  0  0  0
  127.1220  129.9780   60.9570 C   0  0  0  0  0  0  0  0  0  0  0  0
  127.6960  130.2040   59.7540 C   0  0  0  0  0  0  0  0  0  0  0  0
  128.9650  130.1670   59.5230 O   0  0  0  0  0  0  0  0  0  0  0  0
  126.6720  130.4700   58.7450 C   0  0  0  0  0  0  0  0  0  0  0  0
  126.7470  130.7460   57.3730 C   0  0  0  0  0  0  0  0  0  0  0  0
  125.5730  130.9550   56.6480 C   0  0  0  0  0  0  0  0  0  0  0  0
  124.3340  130.8920   57.2880 C   0  0  0  0  0  0  0  0  0  0  0  0
  124.2650  130.6190   58.6560 C   0  0  0  0  0  0  0  0  0  0  0  0
  125.4410  130.4060   59.3790 C   0  0  0  0  0  0  0  0  0  0  0  0
  125.6860  130.1250   60.7830 C   0  0  0  0  0  0  0  0  0  0  0  0
  124.8630  130.0200   61.7570 N   0  0  0  0  0  0  0  0  0  0  0  0
  125.2910  129.8730   63.0430 C   0  0  0  0  0  0  0  0  0  0  0  0
  124.2780  129.9430   63.9550 N   0  0  0  0  0  0  0  0  0  0  0  0
  124.5450  129.8010   65.2050 C   0  0  0  0  0  0  0  0  0  0  0  0
  123.5470  129.8780   65.9420 O   0  0  0  0  0  0  0  0  0  0  0  0
  125.8410  129.5860   65.6720 N   0  0  0  0  0  0  0  0  0  0  0  0
  126.1800  129.4180   67.1050 C   0  0  0  0  0  0  0  0  0  0  0  0
  126.9290  129.5190   64.8240 C   0  0  0  0  0  0  0  0  0  0  0  0
  128.0950  129.3540   65.1970 O   0  0  0  0  0  0  0  0  0  0  0  0
  126.5960  129.6690   63.4040 C   0  0  0  0  0  0  0  0  0  0  0  0
  129.5790  127.9830   62.9510 C   0  0  0  0  0  0  0  0  0  0  0  0
  130.1780  126.7280   62.9140 C   0  0  0  0  0  0  0  0  0  0  0  0
  127.8630  123.0390   60.3190 N   0  0  0  0  0  0  0  0  0  0  0  0
  126.7390  123.3450   61.0290 C   0  0  0  0  0  0  0  0  0  0  0  0
  126.5860  123.2890   62.2500 O   0  0  0  0  0  0  0  0  0  0  0  0
  125.7340  123.7580   60.0170 C   0  0  0  0  0  0  0  0  0  0  0  0
  124.4090  124.1710   60.1610 C   0  0  0  0  0  0  0  0  0  0  0  0
  123.6840  124.5050   59.0120 C   0  0  0  0  0  0  0  0  0  0  0  0
  124.2840  124.4250   57.7490 C   0  0  0  0  0  0  0  0  0  0  0  0
  125.6140  124.0090   57.6250 C   0  0  0  0  0  0  0  0  0  0  0  0
  126.3200  123.6780   58.7830 C   0  0  0  0  0  0  0  0  0  0  0  0
  127.7180  123.2150   58.9700 C   0  0  0  0  0  0  0  0  0  0  0  0
  128.5660  123.0310   58.0970 O   0  0  0  0  0  0  0  0  0  0  0  0
  129.1721  120.7802   62.1989 H   0  0  0  0  0  0  0  0  0  0  0  0
  128.2791  120.6105   60.6495 H   0  0  0  0  0  0  0  0  0  0  0  0
  130.0744  120.6704   60.6495 H   0  0  0  0  0  0  0  0  0  0  0  0
  129.9529  122.8512   60.3398 H   0  0  0  0  0  0  0  0  0  0  0  0
  127.8775  125.0735   61.0036 H   0  0  0  0  0  0  0  0  0  0  0  0
  126.8055  127.3208   61.0676 H   0  0  0  0  0  0  0  0  0  0  0  0
  128.5047  130.2979   62.6030 H   0  0  0  0  0  0  0  0  0  0  0  0
  127.7245  130.7975   56.8711 H   0  0  0  0  0  0  0  0  0  0  0  0
  125.6240  131.1698   55.5704 H   0  0  0  0  0  0  0  0  0  0  0  0
  123.4104  131.0577   56.7139 H   0  0  0  0  0  0  0  0  0  0  0  0
  123.2892  130.5720   59.1616 H   0  0  0  0  0  0  0  0  0  0  0  0
  125.3654  129.8217   67.7243 H   0  0  0  0  0  0  0  0  0  0  0  0
  126.3143  128.3491   67.3271 H   0  0  0  0  0  0  0  0  0  0  0  0
  127.1119  129.9586   67.3271 H   0  0  0  0  0  0  0  0  0  0  0  0
  130.0589  128.8045   63.5031 H   0  0  0  0  0  0  0  0  0  0  0  0
  131.1261  126.5551   63.4443 H   0  0  0  0  0  0  0  0  0  0  0  0
  123.9446  124.2326   61.1562 H   0  0  0  0  0  0  0  0  0  0  0  0
  122.6375  124.8321   59.1010 H   0  0  0  0  0  0  0  0  0  0  0  0
  123.7071  124.6904   56.8508 H   0  0  0  0  0  0  0  0  0  0  0  0
  126.0929  123.9442   56.6368 H   0  0  0  0  0  0  0  0  0  0  0  0
  1  2  1  0
  2  3  1  0
  3  4  2  0
  3  5  1  0
  5  6  1  0
  6  7  2  0
  7  8  1  0
  8  9  2  0
  9 10  1  0
 10 11  1  0
 11 12  2  0
 12 13  1  0
 12 14  1  0
 14 15  2  0
 15 16  1  0
 16 17  2  0
 17 18  1  0
 18 19  2  0
 19 20  1  0
 20 21  2  0
 21 22  1  0
 22 23  1  0
 23 24  2  0
 24 25  1  0
 24 26  1  0
 26 27  1  0
 26 28  1  0
 28 29  2  0
 28 30  1  0
  9 31  1  0
 31 32  2  0
  2 33  1  0
 33 34  1  0
 34 35  2  0
 34 36  1  0
 36 37  2  0
 37 38  1  0
 38 39  2  0
 39 40  1  0
 40 41  2  0
 41 42  1  0
 42 43  2  0
 32  6  1  0
 42 33  1  0
 30 10  1  0
 41 36  1  0
 20 11  1  0
 30 22  2  0
 19 14  1  0
  1 44  1  0
  1 45  1  0
  1 46  1  0
  2 47  1  6
  7 48  1  0
  8 49  1  0
 10 50  1  1
 15 51  1  0
 16 52  1  0
 17 53  1  0
 18 54  1  0
 27 55  1  0
 27 56  1  0
 27 57  1  0
 31 58  1  0
 32 59  1  0
 37 60  1  0
 38 61  1  0
 39 62  1  0
 40 63  1  0
M  CHG  2  13  -1  25  -1
M  END
>  <Binding energies>  (1) 
[-8.54]

>  <Ligand effiencies>  (1) 
[-0.1986046511627907]

>  <Interactions>  (1) 
["V-B:PRO:540:CA:9854, V-B:TYR:539:CD2:9845, V-B:LEU:363:CD1:8160, V-B:PRO:540:CB:9856, V-B:ALA:541:CB:9863, V-B:ALA:541:CA:9861, H-B:ALA:541:N:9862, H-B:TYR:539:OH:9849, V-B:LEU:363:CA:8156, H-B:ARG:545:NH2:9899, V-B:TYR:531:CE2:9764, V-A:GLU:543:CD:4908, V-B:HIS:456:CE1:9041, V-B:PRO:540:C:9852, V-A:TYR:539:CZ:4877, V-A:TYR:539:CE2:4876, V-B:ASP:366:CB:8183, V-B:ARG:545:CZ:9897, V-B:ASP:366:CG:8184, V-B:ASP:366:CA:8181, H-B:GLY:454:N:9021, H-B:ARG:545:NE:9895, V-B:ASN:362:C:8143, V-B:LEU:363:CB:8158, V-B:ASP:366:C:8179, H-B:ARG:545:NH1:9898, V-B:TYR:531:CE1:9763, V-B:ASN:370:CB:8216"]

$$$$
RR25_Rahimova_2017
     RDKit          3D

 63 68  0  0  0  0  0  0  0  0999 V2000
  133.3660  125.3440   67.0560 O   0  0  0  0  0  0  0  0  0  0  0  0
  132.3400  125.8350   66.5830 C   0  0  0  0  0  0  0  0  0  0  0  0
  131.2840  125.9860   67.4480 O   0  0  0  0  0  0  0  0  0  0  0  0
  130.1770  126.7430   67.1110 C   0  0  0  0  0  0  0  0  0  0  0  0
  129.4510  127.2960   68.1650 C   0  0  0  0  0  0  0  0  0  0  0  0
  128.3190  128.0630   67.8980 C   0  0  0  0  0  0  0  0  0  0  0  0
  127.8960  128.2850   66.5800 C   0  0  0  0  0  0  0  0  0  0  0  0
  126.6950  129.1090   66.2980 N   0  0  0  0  0  0  0  0  0  0  0  0
  126.4790  129.4570   65.1390 O   0  0  0  0  0  0  0  0  0  0  0  0
  125.9600  129.4150   67.2320 O   0  0  0  0  0  0  0  0  0  0  0  0
  128.6340  127.7090   65.5330 C   0  0  0  0  0  0  0  0  0  0  0  0
  129.7670  126.9300   65.7840 C   0  0  0  0  0  0  0  0  0  0  0  0
  130.6040  126.2960   64.6880 C   0  0  0  0  0  0  0  0  0  0  0  0
  132.1000  126.2840   65.1120 C   0  0  2  0  0  0  0  0  0  0  0  0
  132.9760  125.5510   64.0550 C   0  0  0  0  0  0  0  0  0  0  0  0
  133.8900  124.8510   64.5000 O   0  0  0  0  0  0  0  0  0  0  0  0
  132.6790  125.5750   62.7210 N   0  0  0  0  0  0  0  0  0  0  0  0
  131.8220  126.6120   62.1100 C   0  0  0  0  0  0  0  0  0  0  0  0
  130.9670  125.9660   60.9990 C   0  0  0  0  0  0  0  0  0  0  0  0
  131.8030  125.2690   60.0180 N   0  0  0  0  0  0  0  0  0  0  0  0
  131.0050  124.7680   58.8900 C   0  0  0  0  0  0  0  0  0  0  0  0
  130.2070  123.4830   59.2410 C   0  0  0  0  0  0  0  0  0  0  0  0
  128.7240  123.6310   59.3120 N   0  0  0  0  0  0  0  0  0  0  0  0
  128.1800  123.5050   60.5730 C   0  0  0  0  0  0  0  0  0  0  0  0
  128.8530  123.2510   61.5790 O   0  0  0  0  0  0  0  0  0  0  0  0
  126.6810  123.7240   60.6380 C   0  0  0  0  0  0  0  0  0  0  0  0
  126.0270  123.6450   61.8740 C   0  0  0  0  0  0  0  0  0  0  0  0
  124.6520  123.8480   61.9720 C   0  0  0  0  0  0  0  0  0  0  0  0
  123.8880  124.1380   60.8420 C   0  0  0  0  0  0  0  0  0  0  0  0
  124.5050  124.2280   59.5710 C   0  0  0  0  0  0  0  0  0  0  0  0
  123.7910  124.5200   58.3850 C   0  0  0  0  0  0  0  0  0  0  0  0
  124.4620  124.5960   57.1660 C   0  0  0  0  0  0  0  0  0  0  0  0
  125.8370  124.3870   57.0910 C   0  0  0  0  0  0  0  0  0  0  0  0
  126.5850  124.0950   58.2390 C   0  0  0  0  0  0  0  0  0  0  0  0
  125.9100  124.0170   59.4840 C   0  0  0  0  0  0  0  0  0  0  0  0
  128.0820  123.8820   58.1170 C   0  0  0  0  0  0  0  0  0  0  0  0
  128.6670  123.9480   57.0310 O   0  0  0  0  0  0  0  0  0  0  0  0
  132.5470  124.1930   60.6740 C   0  0  0  0  0  0  0  0  0  0  0  0
  133.4700  124.7350   61.7920 C   0  0  0  0  0  0  0  0  0  0  0  0
  129.7709  127.1273   69.2039 H   0  0  0  0  0  0  0  0  0  0  0  0
  127.7500  128.4999   68.7319 H   0  0  0  0  0  0  0  0  0  0  0  0
  128.3136  127.8744   64.4938 H   0  0  0  0  0  0  0  0  0  0  0  0
  130.2636  125.2638   64.5187 H   0  0  0  0  0  0  0  0  0  0  0  0
  130.4925  126.8783   63.7614 H   0  0  0  0  0  0  0  0  0  0  0  0
  132.4408  127.3298   65.1216 H   0  0  0  0  0  0  0  0  0  0  0  0
  131.1636  127.0455   62.8772 H   0  0  0  0  0  0  0  0  0  0  0  0
  132.4491  127.4076   61.6814 H   0  0  0  0  0  0  0  0  0  0  0  0
  130.2734  125.2443   61.4552 H   0  0  0  0  0  0  0  0  0  0  0  0
  130.4151  126.7631   60.4794 H   0  0  0  0  0  0  0  0  0  0  0  0
  130.2945  125.5511   58.5869 H   0  0  0  0  0  0  0  0  0  0  0  0
  131.7024  124.5133   58.0783 H   0  0  0  0  0  0  0  0  0  0  0  0
  130.4331  122.7270   58.4747 H   0  0  0  0  0  0  0  0  0  0  0  0
  130.5255  123.2052   60.2566 H   0  0  0  0  0  0  0  0  0  0  0  0
  126.6074  123.4194   62.7807 H   0  0  0  0  0  0  0  0  0  0  0  0
  124.1623  123.7785   62.9545 H   0  0  0  0  0  0  0  0  0  0  0  0
  122.8038  124.2971   60.9384 H   0  0  0  0  0  0  0  0  0  0  0  0
  122.7045  124.6873   58.4252 H   0  0  0  0  0  0  0  0  0  0  0  0
  123.8976  124.8243   56.2498 H   0  0  0  0  0  0  0  0  0  0  0  0
  126.3429  124.4521   56.1164 H   0  0  0  0  0  0  0  0  0  0  0  0
  131.8322  123.4826   61.1149 H   0  0  0  0  0  0  0  0  0  0  0  0
  133.1764  123.7006   59.9181 H   0  0  0  0  0  0  0  0  0  0  0  0
  133.9106  123.8921   62.3446 H   0  0  0  0  0  0  0  0  0  0  0  0
  134.2727  125.3393   61.3442 H   0  0  0  0  0  0  0  0  0  0  0  0
  1  2  2  0
  2  3  1  0
  3  4  1  0
  4  5  2  0
  5  6  1  0
  6  7  2  0
  7  8  1  0
  8  9  2  0
  8 10  1  0
  7 11  1  0
 11 12  2  0
 12 13  1  0
 13 14  1  0
 14 15  1  0
 15 16  2  0
 15 17  1  0
 17 18  1  0
 18 19  1  0
 19 20  1  0
 20 21  1  0
 21 22  1  0
 22 23  1  0
 23 24  1  0
 24 25  2  0
 24 26  1  0
 26 27  2  0
 27 28  1  0
 28 29  2  0
 29 30  1  0
 30 31  2  0
 31 32  1  0
 32 33  2  0
 33 34  1  0
 34 35  2  0
 34 36  1  0
 36 37  2  0
 20 38  1  0
 38 39  1  0
 14  2  1  0
 39 17  1  0
 12  4  1  0
 36 23  1  0
 35 26  1  0
 35 30  1  0
  5 40  1  0
  6 41  1  0
 11 42  1  0
 13 43  1  0
 13 44  1  0
 14 45  1  1
 18 46  1  0
 18 47  1  0
 19 48  1  0
 19 49  1  0
 21 50  1  0
 21 51  1  0
 22 52  1  0
 22 53  1  0
 27 54  1  0
 28 55  1  0
 29 56  1  0
 31 57  1  0
 32 58  1  0
 33 59  1  0
 38 60  1  0
 38 61  1  0
 39 62  1  0
 39 63  1  0
M  CHG  2   8   1  10  -1
M  END
>  <Binding energies>  (1) 
[-10.25]

>  <Ligand effiencies>  (1) 
[-0.26282051282051283]

>  <Interactions>  (1) 
["V-B:TYR:539:CE2:9847, V-B:PRO:540:CA:9854, V-B:TYR:539:CD2:9845, V-B:LEU:363:CD1:8160, V-B:PRO:540:CB:9856, V-B:TYR:539:CZ:9848, H-A:GLY:454:N:4049, H-A:ARG:545:NE:4924, V-A:ASP:366:CG:3212, V-A:ILE:369:CD1:3238, V-A:ILE:369:CG2:3236, H-B:TYR:539:OH:9849, H-A:TYR:484:OH:4347, V-A:ARG:545:CZ:4926, V-B:MET:535:CE:9806, V-B:LEU:363:CA:8156, V-B:TYR:531:CZ:9765, V-B:TYR:531:CE2:9764, V-A:GLU:543:CD:4908, V-A:GLU:543:CG:4907, V-B:HIS:456:CE1:9041, V-A:HIS:456:CE1:4069, V-B:GLU:543:CD:9879, H-A:HIS:456:ND1:4066, V-B:ASN:362:CB:8147, V-A:ARG:545:CD:4923, V-B:ASP:366:CB:8183, V-B:ASP:366:CG:8184, H-B:TYR:484:OH:9319, V-B:ASN:362:C:8143, V-B:LEU:363:CB:8158, V-B:ASN:362:CA:8145"]

$$$$
RR26_Rahimova_2017
     RDKit          3D

 59 65  0  0  0  0  0  0  0  0999 V2000
  130.1420  121.3760   61.2910 C   0  0  0  0  0  0  0  0  0  0  0  0
  131.6040  120.9870   61.4760 C   0  0  0  0  0  0  0  0  0  0  0  0
  132.1330  119.9900   60.6490 C   0  0  0  0  0  0  0  0  0  0  0  0
  133.4740  119.6230   60.7470 C   0  0  0  0  0  0  0  0  0  0  0  0
  134.3000  120.2560   61.6700 C   0  0  0  0  0  0  0  0  0  0  0  0
  133.7850  121.2510   62.4980 C   0  0  0  0  0  0  0  0  0  0  0  0
  132.4350  121.6280   62.4200 C   0  0  0  0  0  0  0  0  0  0  0  0
  131.9570  122.6970   63.3600 C   0  0  0  0  0  0  0  0  0  0  0  0
  130.7310  123.2090   63.2900 N   0  0  0  0  0  0  0  0  0  0  0  0
  130.7410  124.0690   64.2720 C   0  0  0  0  0  0  0  0  0  0  0  0
  129.6190  125.1950   64.9420 S   0  0  0  0  0  0  0  0  0  0  0  0
  130.8600  125.6710   66.1610 C   0  0  0  0  0  0  0  0  0  0  0  0
  130.7460  126.5950   67.1410 C   0  0  0  0  0  0  0  0  0  0  0  0
  129.5970  127.4280   67.4580 C   0  0  0  0  0  0  0  0  0  0  0  0
  128.6270  127.9150   66.5950 C   0  0  0  0  0  0  0  0  0  0  0  0
  127.7140  128.6170   67.3400 N   0  0  0  0  0  0  0  0  0  0  0  0
  126.5470  129.2890   66.8920 C   0  0  0  0  0  0  0  0  0  0  0  0
  125.3040  129.0490   67.4960 C   0  0  0  0  0  0  0  0  0  0  0  0
  124.1660  129.7120   67.0450 C   0  0  0  0  0  0  0  0  0  0  0  0
  124.2670  130.6180   65.9920 C   0  0  0  0  0  0  0  0  0  0  0  0
  125.4960  130.8680   65.3860 C   0  0  0  0  0  0  0  0  0  0  0  0
  126.6350  130.2040   65.8330 C   0  0  0  0  0  0  0  0  0  0  0  0
  128.0420  128.5750   68.6400 N   0  0  0  0  0  0  0  0  0  0  0  0
  129.1580  127.8780   68.7240 C   0  0  0  0  0  0  0  0  0  0  0  0
  129.7990  127.6540   70.0590 C   0  0  0  0  0  0  0  0  0  0  0  0
  131.0960  128.1270   70.3130 C   0  0  0  0  0  0  0  0  0  0  0  0
  131.7030  127.9200   71.5530 C   0  0  0  0  0  0  0  0  0  0  0  0
  131.0140  127.2340   72.5520 C   0  0  0  0  0  0  0  0  0  0  0  0
  129.7110  126.7730   72.3170 C   0  0  0  0  0  0  0  0  0  0  0  0
  129.1090  126.9760   71.0760 C   0  0  0  0  0  0  0  0  0  0  0  0
  129.0080  126.0510   73.2620 O   0  0  0  0  0  0  0  0  0  0  0  0
  129.5060  126.1930   74.5960 C   0  0  0  0  0  0  0  0  0  0  0  0
  131.0500  126.0870   74.6140 C   0  0  0  0  0  0  0  0  0  0  0  0
  131.6320  127.0940   73.7790 O   0  0  0  0  0  0  0  0  0  0  0  0
  132.1110  124.9360   65.9960 C   0  0  0  0  0  0  0  0  0  0  0  0
  133.1530  125.0190   66.6480 O   0  0  0  0  0  0  0  0  0  0  0  0
  131.9260  124.0680   64.9090 N   0  0  0  0  0  0  0  0  0  0  0  0
  132.7280  123.1720   64.3260 N   0  0  0  0  0  0  0  0  0  0  0  0
  129.6686  121.5019   62.2759 H   0  0  0  0  0  0  0  0  0  0  0  0
  130.0820  122.3213   60.7318 H   0  0  0  0  0  0  0  0  0  0  0  0
  129.6202  120.5855   60.7318 H   0  0  0  0  0  0  0  0  0  0  0  0
  131.4841  119.4909   59.9142 H   0  0  0  0  0  0  0  0  0  0  0  0
  133.8784  118.8342   60.0956 H   0  0  0  0  0  0  0  0  0  0  0  0
  135.3597  119.9710   61.7461 H   0  0  0  0  0  0  0  0  0  0  0  0
  134.4457  121.7484   63.2233 H   0  0  0  0  0  0  0  0  0  0  0  0
  131.6322  126.7340   67.7776 H   0  0  0  0  0  0  0  0  0  0  0  0
  128.5953  127.7649   65.5057 H   0  0  0  0  0  0  0  0  0  0  0  0
  125.2282  128.3345   68.3289 H   0  0  0  0  0  0  0  0  0  0  0  0
  123.1915  129.5212   67.5181 H   0  0  0  0  0  0  0  0  0  0  0  0
  123.3675  131.1412   65.6355 H   0  0  0  0  0  0  0  0  0  0  0  0
  125.5663  131.5876   64.5570 H   0  0  0  0  0  0  0  0  0  0  0  0
  127.6063  130.3975   65.3544 H   0  0  0  0  0  0  0  0  0  0  0  0
  131.6409  128.6676   69.5251 H   0  0  0  0  0  0  0  0  0  0  0  0
  132.7195  128.2962   71.7408 H   0  0  0  0  0  0  0  0  0  0  0  0
  128.0902  126.6037   70.8933 H   0  0  0  0  0  0  0  0  0  0  0  0
  129.2062  127.1747   74.9914 H   0  0  0  0  0  0  0  0  0  0  0  0
  129.0875  125.3886   75.2188 H   0  0  0  0  0  0  0  0  0  0  0  0
  131.4098  126.2194   75.6450 H   0  0  0  0  0  0  0  0  0  0  0  0
  131.3429  125.0971   74.2340 H   0  0  0  0  0  0  0  0  0  0  0  0
  1  2  1  0
  2  3  2  0
  3  4  1  0
  4  5  2  0
  5  6  1  0
  6  7  2  0
  7  8  1  0
  8  9  1  0
  9 10  2  0
 10 11  1  0
 11 12  1  0
 12 13  2  0
 13 14  1  0
 14 15  2  0
 15 16  1  0
 16 17  1  0
 17 18  2  0
 18 19  1  0
 19 20  2  0
 20 21  1  0
 21 22  2  0
 16 23  1  0
 23 24  2  0
 24 25  1  0
 25 26  2  0
 26 27  1  0
 27 28  2  0
 28 29  1  0
 29 30  2  0
 29 31  1  0
 31 32  1  0
 32 33  1  0
 33 34  1  0
 12 35  1  0
 35 36  2  0
 35 37  1  0
 37 38  1  0
  7  2  1  0
 38  8  2  0
 37 10  1  0
 24 14  1  0
 30 25  1  0
 22 17  1  0
 34 28  1  0
  1 39  1  0
  1 40  1  0
  1 41  1  0
  3 42  1  0
  4 43  1  0
  5 44  1  0
  6 45  1  0
 13 46  1  0
 15 47  1  0
 18 48  1  0
 19 49  1  0
 20 50  1  0
 21 51  1  0
 22 52  1  0
 26 53  1  0
 27 54  1  0
 30 55  1  0
 32 56  1  0
 32 57  1  0
 33 58  1  0
 33 59  1  0
M  END
>  <Binding energies>  (1) 
[-9.79]

>  <Ligand effiencies>  (1) 
[-0.2576315789473684]

>  <Interactions>  (1) 
["V-B:TYR:539:CE2:9847, V-B:TYR:539:CD2:9845, V-B:ALA:541:CB:9863, V-A:LEU:475:CD2:4258, H-A:GLY:454:N:4049, V-A:ILE:369:CD1:3238, V-A:ILE:369:CG2:3236, H-A:TYR:484:OH:4347, V-A:GLU:543:CD:4908, V-A:GLU:543:CG:4907, V-A:GLU:543:CB:4906, V-B:HIS:456:CE1:9041, V-A:TYR:484:CZ:4346, V-A:HIS:456:CE1:4069, V-B:GLU:543:CG:9878, V-B:GLU:543:CD:9879, V-A:HIS:456:CD2:4067, V-A:GLY:454:CA:4048, V-B:GLY:454:CA:9020, V-B:ARG:545:CG:9893, V-B:ARG:545:CD:9894, H-B:LYS:547:NZ:9922, V-B:LYS:547:CE:9921, V-A:TRP:381:CH2:3371, V-A:TRP:381:CZ2:3369, V-A:ILE:369:CG1:3237, V-A:HIS:456:CG:4065, H-A:LYS:547:NZ:4951, V-A:SER:385:C:3404, V-A:SER:385:CA:3406, V-A:ARG:545:CA:4919, V-A:GLY:544:C:4912, V-B:GLY:454:C:9018"]

$$$$
RR27_Rahimova_2017
     RDKit          3D

 66 71  0  0  0  0  0  0  0  0999 V2000
  133.4470  124.9330   62.3550 O   0  0  0  0  0  0  0  0  0  0  0  0
  132.4590  124.2480   62.6370 C   0  0  0  0  0  0  0  0  0  0  0  0
  131.4860  123.8500   61.4890 C   0  0  0  0  0  0  0  0  0  0  0  0
  131.2930  122.3270   61.3600 C   0  0  0  0  0  0  0  0  0  0  0  0
  130.0190  121.7390   61.3570 C   0  0  0  0  0  0  0  0  0  0  0  0
  129.8810  120.3600   61.2360 C   0  0  0  0  0  0  0  0  0  0  0  0
  131.0150  119.5610   61.1190 C   0  0  0  0  0  0  0  0  0  0  0  0
  132.2860  120.1300   61.1230 C   0  0  0  0  0  0  0  0  0  0  0  0
  132.4240  121.5090   61.2440 C   0  0  0  0  0  0  0  0  0  0  0  0
  131.8260  124.5750   60.1730 C   0  0  0  0  0  0  0  0  0  0  0  0
  131.0880  125.6800   59.7280 C   0  0  0  0  0  0  0  0  0  0  0  0
  131.4160  126.3050   58.5270 C   0  0  0  0  0  0  0  0  0  0  0  0
  132.4780  125.8250   57.7660 C   0  0  0  0  0  0  0  0  0  0  0  0
  133.2130  124.7210   58.1910 C   0  0  0  0  0  0  0  0  0  0  0  0
  132.8840  124.0970   59.3900 C   0  0  0  0  0  0  0  0  0  0  0  0
  132.2890  123.7160   63.8810 N   0  0  0  0  0  0  0  0  0  0  0  0
  131.0280  123.1150   64.3400 C   0  0  0  0  0  0  0  0  0  0  0  0
  130.1710  124.2630   64.9200 C   0  0  0  0  0  0  0  0  0  0  0  0
  130.9140  125.0650   66.0360 C   0  0  0  0  0  0  0  0  0  0  0  0
  130.1470  126.2890   66.5700 C   0  0  0  0  0  0  0  0  0  0  0  0
  129.1640  126.7880   65.7650 N   0  0  0  0  0  0  0  0  0  0  0  0
  128.4380  127.8540   66.2010 C   0  0  0  0  0  0  0  0  0  0  0  0
  127.4250  128.4390   65.4880 O   0  0  0  0  0  0  0  0  0  0  0  0
  128.7330  128.4000   67.4660 C   0  0  0  0  0  0  0  0  0  0  0  0
  128.2130  129.4330   68.1890 N   0  0  0  0  0  0  0  0  0  0  0  0
  128.9210  129.5030   69.3740 N   0  0  0  0  0  0  0  0  0  0  0  0
  129.8530  128.5260   69.3820 N   0  0  0  0  0  0  0  0  0  0  0  0
  130.7670  128.3830   70.5130 C   0  0  0  0  0  0  0  0  0  0  0  0
  130.3160  127.3510   71.5380 C   0  0  0  0  0  0  0  0  0  0  0  0
  129.1380  126.6240   71.3340 C   0  0  0  0  0  0  0  0  0  0  0  0
  128.7310  125.6700   72.2680 C   0  0  0  0  0  0  0  0  0  0  0  0
  129.5010  125.4350   73.4070 C   0  0  0  0  0  0  0  0  0  0  0  0
  130.6820  126.1490   73.6120 C   0  0  0  0  0  0  0  0  0  0  0  0
  131.6500  125.8400   75.0080 Cl  0  0  0  0  0  0  0  0  0  0  0  0
  131.0850  127.1080   72.6820 C   0  0  0  0  0  0  0  0  0  0  0  0
  129.7800  127.8050   68.2020 C   0  0  0  0  0  0  0  0  0  0  0  0
  130.5120  126.7660   67.7940 N   0  0  0  0  0  0  0  0  0  0  0  0
  132.3890  125.3830   65.6410 C   0  0  0  0  0  0  0  0  0  0  0  0
  133.1230  124.1760   65.0020 C   0  0  0  0  0  0  0  0  0  0  0  0
  130.4860  124.2140   61.7673 H   0  0  0  0  0  0  0  0  0  0  0  0
  129.1243  122.3720   61.4509 H   0  0  0  0  0  0  0  0  0  0  0  0
  128.8804  119.9030   61.2328 H   0  0  0  0  0  0  0  0  0  0  0  0
  130.9061  118.4707   61.0225 H   0  0  0  0  0  0  0  0  0  0  0  0
  133.1771  119.4917   61.0309 H   0  0  0  0  0  0  0  0  0  0  0  0
  133.4274  121.9597   61.2486 H   0  0  0  0  0  0  0  0  0  0  0  0
  130.2467  126.0552   60.3292 H   0  0  0  0  0  0  0  0  0  0  0  0
  130.8379  127.1746   58.1813 H   0  0  0  0  0  0  0  0  0  0  0  0
  132.7392  126.3222   56.8202 H   0  0  0  0  0  0  0  0  0  0  0  0
  134.0485  124.3448   57.5824 H   0  0  0  0  0  0  0  0  0  0  0  0
  133.4593  123.2215   59.7255 H   0  0  0  0  0  0  0  0  0  0  0  0
  130.5051  122.6412   63.4961 H   0  0  0  0  0  0  0  0  0  0  0  0
  131.2133  122.3393   65.0976 H   0  0  0  0  0  0  0  0  0  0  0  0
  129.9098  124.9538   64.1048 H   0  0  0  0  0  0  0  0  0  0  0  0
  129.2759  123.8129   65.3741 H   0  0  0  0  0  0  0  0  0  0  0  0
  130.9530  124.3880   66.9021 H   0  0  0  0  0  0  0  0  0  0  0  0
  126.6130  127.9300   65.5120 H   0  0  0  0  0  0  0  0  0  0  0  0
  131.7522  128.0819   70.1274 H   0  0  0  0  0  0  0  0  0  0  0  0
  130.7967  129.3550   71.0272 H   0  0  0  0  0  0  0  0  0  0  0  0
  128.5308  126.8049   70.4348 H   0  0  0  0  0  0  0  0  0  0  0  0
  127.8024  125.1031   72.1057 H   0  0  0  0  0  0  0  0  0  0  0  0
  129.1768  124.6859   74.1444 H   0  0  0  0  0  0  0  0  0  0  0  0
  132.0121  127.6761   72.8488 H   0  0  0  0  0  0  0  0  0  0  0  0
  132.3866  126.2130   64.9191 H   0  0  0  0  0  0  0  0  0  0  0  0
  132.9269  125.6413   66.5651 H   0  0  0  0  0  0  0  0  0  0  0  0
  134.1128  124.4856   64.6354 H   0  0  0  0  0  0  0  0  0  0  0  0
  133.2742  123.3719   65.7372 H   0  0  0  0  0  0  0  0  0  0  0  0
  1  2  2  0
  2  3  1  0
  3  4  1  0
  4  5  2  0
  5  6  1  0
  6  7  2  0
  7  8  1  0
  8  9  2  0
  3 10  1  0
 10 11  2  0
 11 12  1  0
 12 13  2  0
 13 14  1  0
 14 15  2  0
  2 16  1  0
 16 17  1  0
 17 18  1  0
 18 19  1  0
 19 20  1  0
 20 21  2  0
 21 22  1  0
 22 23  1  0
 22 24  2  0
 24 25  1  0
 25 26  2  0
 26 27  1  0
 27 28  1  0
 28 29  1  0
 29 30  2  0
 30 31  1  0
 31 32  2  0
 32 33  1  0
 33 34  1  0
 33 35  2  0
 27 36  1  0
 36 37  2  0
 19 38  1  0
 38 39  1  0
  9  4  1  0
 15 10  1  0
 39 16  1  0
 37 20  1  0
 36 24  1  0
 35 29  1  0
  3 40  1  0
  5 41  1  0
  6 42  1  0
  7 43  1  0
  8 44  1  0
  9 45  1  0
 11 46  1  0
 12 47  1  0
 13 48  1  0
 14 49  1  0
 15 50  1  0
 17 51  1  0
 17 52  1  0
 18 53  1  0
 18 54  1  0
 19 55  1  0
 23 56  1  0
 28 57  1  0
 28 58  1  0
 30 59  1  0
 31 60  1  0
 32 61  1  0
 35 62  1  0
 38 63  1  0
 38 64  1  0
 39 65  1  0
 39 66  1  0
M  END
>  <Binding energies>  (1) 
[-9.94]

>  <Ligand effiencies>  (1) 
[-0.2485]

>  <Interactions>  (1) 
["V-B:TYR:539:CE2:9847, V-B:TYR:539:CD2:9845, V-B:ALA:541:CB:9863, V-A:LEU:475:CD2:4258, H-B:GLU:543:OE2:9881, V-A:ASP:366:CB:3211, V-A:ASP:366:CA:3209, V-A:ILE:369:CG2:3236, V-A:GLU:543:CD:4908, V-A:GLU:543:CG:4907, V-A:GLU:543:CB:4906, V-B:HIS:456:CE1:9041, V-A:HIS:456:CE1:4069, V-B:GLU:543:CG:9878, V-A:ASP:366:C:3207, V-B:GLU:543:CD:9879, V-A:HIS:456:CD2:4067, V-A:TYR:531:CZ:4794, V-A:GLY:454:CA:4048, H-B:GLU:543:OE1:9880, V-A:TRP:381:CH2:3371, V-A:TRP:381:CZ2:3369, V-A:ILE:369:CB:3235, V-A:HIS:456:CG:4065, V-A:HIS:456:CB:4064"]

$$$$
RR27_Rahimova_2017-again1
     RDKit          3D

 66 71  0  0  0  0  0  0  0  0999 V2000
  127.2880  125.7300   60.1080 O   0  0  0  0  0  0  0  0  0  0  0  0
  128.3330  125.5150   59.4870 C   0  0  0  0  0  0  0  0  0  0  0  0
  128.5540  124.0940   58.8850 C   0  0  0  0  0  0  0  0  0  0  0  0
  127.3200  123.5800   58.1200 C   0  0  0  0  0  0  0  0  0  0  0  0
  127.4350  122.7820   56.9710 C   0  0  0  0  0  0  0  0  0  0  0  0
  126.2960  122.3350   56.3070 C   0  0  0  0  0  0  0  0  0  0  0  0
  125.0360  122.6820   56.7870 C   0  0  0  0  0  0  0  0  0  0  0  0
  124.9060  123.4710   57.9250 C   0  0  0  0  0  0  0  0  0  0  0  0
  126.0440  123.9180   58.5900 C   0  0  0  0  0  0  0  0  0  0  0  0
  129.0910  123.1010   59.9320 C   0  0  0  0  0  0  0  0  0  0  0  0
  128.6850  121.7580   59.9440 C   0  0  0  0  0  0  0  0  0  0  0  0
  129.1690  120.8830   60.9130 C   0  0  0  0  0  0  0  0  0  0  0  0
  130.0640  121.3450   61.8740 C   0  0  0  0  0  0  0  0  0  0  0  0
  130.4760  122.6740   61.8770 C   0  0  0  0  0  0  0  0  0  0  0  0
  129.9860  123.5510   60.9120 C   0  0  0  0  0  0  0  0  0  0  0  0
  129.1990  126.5270   59.1880 N   0  0  0  0  0  0  0  0  0  0  0  0
  130.5710  126.3120   58.7080 C   0  0  0  0  0  0  0  0  0  0  0  0
  131.4770  126.1130   59.9460 C   0  0  0  0  0  0  0  0  0  0  0  0
  131.2330  127.1050   61.1310 C   0  0  0  0  0  0  0  0  0  0  0  0
  131.6540  126.5430   62.4930 C   0  0  0  0  0  0  0  0  0  0  0  0
  130.8000  126.4630   63.4650 N   0  0  0  0  0  0  0  0  0  0  0  0
  131.2850  125.9540   64.6310 C   0  0  0  0  0  0  0  0  0  0  0  0
  132.5830  125.5280   64.8640 C   0  0  0  0  0  0  0  0  0  0  0  0
  132.7110  125.1020   66.1090 N   0  0  0  0  0  0  0  0  0  0  0  0
  131.4730  125.2420   66.7270 N   0  0  0  0  0  0  0  0  0  0  0  0
  130.6240  125.7420   65.8130 N   0  0  0  0  0  0  0  0  0  0  0  0
  129.2360  126.0270   66.1560 C   0  0  0  0  0  0  0  0  0  0  0  0
  129.0850  127.1560   67.1650 C   0  0  0  0  0  0  0  0  0  0  0  0
  128.1460  128.1710   66.9460 C   0  0  0  0  0  0  0  0  0  0  0  0
  128.0120  129.2130   67.8650 C   0  0  0  0  0  0  0  0  0  0  0  0
  128.8120  129.2440   69.0070 C   0  0  0  0  0  0  0  0  0  0  0  0
  129.7450  128.2320   69.2330 C   0  0  0  0  0  0  0  0  0  0  0  0
  130.7370  128.2740   70.6440 Cl  0  0  0  0  0  0  0  0  0  0  0  0
  129.8800  127.1900   68.3160 C   0  0  0  0  0  0  0  0  0  0  0  0
  133.5650  125.6010   63.7820 C   0  0  0  0  0  0  0  0  0  0  0  0
  134.7480  125.2710   63.7970 O   0  0  0  0  0  0  0  0  0  0  0  0
  132.9710  126.1240   62.6530 N   0  0  0  0  0  0  0  0  0  0  0  0
  129.8280  127.7830   61.1790 C   0  0  0  0  0  0  0  0  0  0  0  0
  129.0500  127.8360   59.8410 C   0  0  0  0  0  0  0  0  0  0  0  0
  129.3455  124.1835   58.1264 H   0  0  0  0  0  0  0  0  0  0  0  0
  128.4311  122.5082   56.5930 H   0  0  0  0  0  0  0  0  0  0  0  0
  126.3911  121.7102   55.4067 H   0  0  0  0  0  0  0  0  0  0  0  0
  124.1360  122.3293   56.2620 H   0  0  0  0  0  0  0  0  0  0  0  0
  123.9071  123.7408   58.2982 H   0  0  0  0  0  0  0  0  0  0  0  0
  125.9410  124.5409   59.4908 H   0  0  0  0  0  0  0  0  0  0  0  0
  127.9795  121.3938   59.1827 H   0  0  0  0  0  0  0  0  0  0  0  0
  128.8457  119.8316   60.9191 H   0  0  0  0  0  0  0  0  0  0  0  0
  130.4489  120.6532   62.6378 H   0  0  0  0  0  0  0  0  0  0  0  0
  131.1856  123.0306   62.6381 H   0  0  0  0  0  0  0  0  0  0  0  0
  130.3038  124.6041   60.9193 H   0  0  0  0  0  0  0  0  0  0  0  0
  130.6084  125.4175   58.0688 H   0  0  0  0  0  0  0  0  0  0  0  0
  130.9115  127.1744   58.1162 H   0  0  0  0  0  0  0  0  0  0  0  0
  131.3166  125.0916   60.3216 H   0  0  0  0  0  0  0  0  0  0  0  0
  132.5036  126.3048   59.6006 H   0  0  0  0  0  0  0  0  0  0  0  0
  131.9185  127.9320   60.8942 H   0  0  0  0  0  0  0  0  0  0  0  0
  128.6995  126.3059   65.2371 H   0  0  0  0  0  0  0  0  0  0  0  0
  128.8217  125.1191   66.6186 H   0  0  0  0  0  0  0  0  0  0  0  0
  127.5121  128.1473   66.0473 H   0  0  0  0  0  0  0  0  0  0  0  0
  127.2750  130.0102   67.6884 H   0  0  0  0  0  0  0  0  0  0  0  0
  128.7072  130.0667   69.7296 H   0  0  0  0  0  0  0  0  0  0  0  0
  130.6144  126.3916   68.4983 H   0  0  0  0  0  0  0  0  0  0  0  0
  133.5830  126.2110   61.8550 H   0  0  0  0  0  0  0  0  0  0  0  0
  129.2126  127.2297   61.9037 H   0  0  0  0  0  0  0  0  0  0  0  0
  130.0157  128.8317   61.4529 H   0  0  0  0  0  0  0  0  0  0  0  0
  127.9864  128.0403   60.0334 H   0  0  0  0  0  0  0  0  0  0  0  0
  129.4434  128.6361   59.1968 H   0  0  0  0  0  0  0  0  0  0  0  0
  1  2  2  0
  2  3  1  0
  3  4  1  0
  4  5  2  0
  5  6  1  0
  6  7  2  0
  7  8  1  0
  8  9  2  0
  3 10  1  0
 10 11  2  0
 11 12  1  0
 12 13  2  0
 13 14  1  0
 14 15  2  0
  2 16  1  0
 16 17  1  0
 17 18  1  0
 18 19  1  0
 19 20  1  0
 20 21  2  0
 21 22  1  0
 22 23  2  0
 23 24  1  0
 24 25  2  0
 25 26  1  0
 26 27  1  0
 27 28  1  0
 28 29  2  0
 29 30  1  0
 30 31  2  0
 31 32  1  0
 32 33  1  0
 32 34  2  0
 23 35  1  0
 35 36  2  0
 35 37  1  0
 19 38  1  0
 38 39  1  0
  9  4  1  0
 15 10  1  0
 39 16  1  0
 37 20  1  0
 26 22  1  0
 34 28  1  0
  3 40  1  0
  5 41  1  0
  6 42  1  0
  7 43  1  0
  8 44  1  0
  9 45  1  0
 11 46  1  0
 12 47  1  0
 13 48  1  0
 14 49  1  0
 15 50  1  0
 17 51  1  0
 17 52  1  0
 18 53  1  0
 18 54  1  0
 19 55  1  0
 27 56  1  0
 27 57  1  0
 29 58  1  0
 30 59  1  0
 31 60  1  0
 34 61  1  0
 37 62  1  0
 38 63  1  0
 38 64  1  0
 39 65  1  0
 39 66  1  0
M  END
>  <Binding energies>  (1) 
[-9.83]

>  <Ligand effiencies>  (1) 
[-0.24575]

>  <Interactions>  (1) 
["V-B:TYR:539:CE2:9847, V-B:PRO:540:CA:9854, V-B:TYR:539:CD2:9845, V-B:LEU:363:CD1:8160, V-B:PRO:540:CD:9858, V-B:TYR:539:CG:9843, V-B:PRO:540:CB:9856, V-B:ALA:541:CB:9863, V-B:TYR:539:C:9838, V-A:LEU:475:CD2:4258, V-B:PRO:540:N:9855, V-B:TYR:539:CD1:9844, V-B:ALA:541:CA:9861, V-B:TYR:539:CE1:9846, H-A:ASP:366:OD2:3214, V-B:TYR:539:CZ:9848, H-A:ARG:545:NH2:4928, H-A:GLY:454:N:4049, H-A:ARG:545:NH1:4927, V-A:ASP:366:CG:3212, H-A:ASP:366:OD1:3213, H-A:TYR:484:OH:4347, V-A:ARG:545:CZ:4926, V-A:GLU:543:CD:4908, V-A:GLU:543:CG:4907, V-A:GLU:543:CB:4906, V-B:HIS:456:CE1:9041, V-B:GLU:543:CB:9877, V-A:HIS:456:CE1:4069, V-B:GLU:543:CG:9878, V-B:GLU:543:CD:9879, V-B:PRO:540:C:9852"]

$$$$
RR28_Rahimova_2017
     RDKit          3D

 82 85  0  0  0  0  0  0  0  0999 V2000
  125.6710  129.2840   67.1100 C   0  0  0  0  0  0  0  0  0  0  0  0
  126.7720  129.5890   66.1000 C   0  0  0  0  0  0  0  0  0  0  0  0
  127.5210  130.5450   66.2890 O   0  0  0  0  0  0  0  0  0  0  0  0
  126.8510  128.7650   65.0350 N   0  0  0  0  0  0  0  0  0  0  0  0
  127.8020  128.8210   63.9020 C   0  0  0  0  0  0  0  0  0  0  0  0
  128.9840  127.8590   64.2120 C   0  0  0  0  0  0  0  0  0  0  0  0
  129.1220  127.3320   65.5050 C   0  0  0  0  0  0  0  0  0  0  0  0
  130.1700  126.4720   65.8190 C   0  0  0  0  0  0  0  0  0  0  0  0
  131.1060  126.1200   64.8470 C   0  0  0  0  0  0  0  0  0  0  0  0
  132.2530  125.1770   65.2110 C   0  0  0  0  0  0  0  0  0  0  0  0
  131.9190  123.8930   65.0680 F   0  0  0  0  0  0  0  0  0  0  0  0
  133.3120  125.4160   64.4370 F   0  0  0  0  0  0  0  0  0  0  0  0
  132.5970  125.3790   66.4840 F   0  0  0  0  0  0  0  0  0  0  0  0
  130.9820  126.6390   63.5550 C   0  0  0  0  0  0  0  0  0  0  0  0
  129.9330  127.5000   63.2420 C   0  0  0  0  0  0  0  0  0  0  0  0
  128.2470  130.3030   63.6300 C   0  0  0  0  0  0  0  0  0  0  0  0
  127.0910  131.2100   63.1390 C   0  0  0  0  0  0  0  0  0  0  0  0
  126.5760  130.5970   61.9040 N   0  0  0  0  0  0  0  0  0  0  0  0
  127.0470  130.9950   60.6910 C   0  0  0  0  0  0  0  0  0  0  0  0
  127.7800  131.9780   60.5640 O   0  0  0  0  0  0  0  0  0  0  0  0
  126.5170  130.2940   59.4160 C   0  0  0  0  0  0  0  0  0  0  0  0
  127.5660  130.0290   58.3010 C   0  0  0  0  0  0  0  0  0  0  0  0
  127.3750  128.7080   57.5210 C   0  0  0  0  0  0  0  0  0  0  0  0
  126.6290  128.7190   56.5370 O   0  0  0  0  0  0  0  0  0  0  0  0
  128.1250  127.6170   57.8450 N   0  0  0  0  0  0  0  0  0  0  0  0
  128.7690  127.4390   59.1520 C   0  0  0  0  0  0  0  0  0  0  0  0
  127.7100  126.8120   60.0840 C   0  0  0  0  0  0  0  0  0  0  0  0
  127.0970  125.4630   59.5680 C   0  0  0  0  0  0  0  0  0  0  0  0
  125.8500  125.1820   60.3100 N   0  0  0  0  0  0  0  0  0  0  0  0
  125.6500  124.2720   61.2840 C   0  0  0  0  0  0  0  0  0  0  0  0
  124.2380  124.1950   61.8570 C   0  0  0  0  0  0  0  0  0  0  0  0
  126.5240  123.5230   61.7180 O   0  0  0  0  0  0  0  0  0  0  0  0
  128.1150  124.3270   59.9080 C   0  0  0  0  0  0  0  0  0  0  0  0
  128.0190  123.0320   59.3700 C   0  0  0  0  0  0  0  0  0  0  0  0
  128.9470  122.0480   59.6970 C   0  0  0  0  0  0  0  0  0  0  0  0
  129.9960  122.3320   60.5750 C   0  0  0  0  0  0  0  0  0  0  0  0
  131.0260  121.2640   60.9420 C   0  0  0  0  0  0  0  0  0  0  0  0
  132.1780  121.4850   60.3070 F   0  0  0  0  0  0  0  0  0  0  0  0
  131.2480  121.3040   62.2550 F   0  0  0  0  0  0  0  0  0  0  0  0
  130.6110  120.0360   60.6250 F   0  0  0  0  0  0  0  0  0  0  0  0
  130.1010  123.6110   61.1250 C   0  0  0  0  0  0  0  0  0  0  0  0
  129.1710  124.5920   60.7950 C   0  0  0  0  0  0  0  0  0  0  0  0
  126.8020  125.5910   58.0230 C   0  0  0  0  0  0  0  0  0  0  0  0
  127.8780  126.3300   57.1820 C   0  0  0  0  0  0  0  0  0  0  0  0
  125.9550  129.2830   62.1210 C   0  0  0  0  0  0  0  0  0  0  0  0
  127.0740  128.3270   62.6100 C   0  0  0  0  0  0  0  0  0  0  0  0
  126.0682  129.3940   68.1298 H   0  0  0  0  0  0  0  0  0  0  0  0
  124.8355  129.9845   66.9644 H   0  0  0  0  0  0  0  0  0  0  0  0
  125.3150  128.2534   66.9644 H   0  0  0  0  0  0  0  0  0  0  0  0
  126.1670  128.0250   64.9760 H   0  0  0  0  0  0  0  0  0  0  0  0
  128.3914  127.6025   66.2815 H   0  0  0  0  0  0  0  0  0  0  0  0
  130.2605  126.0682   66.8382 H   0  0  0  0  0  0  0  0  0  0  0  0
  131.7159  126.3663   62.7824 H   0  0  0  0  0  0  0  0  0  0  0  0
  129.8471  127.9036   62.2223 H   0  0  0  0  0  0  0  0  0  0  0  0
  128.6485  130.7239   64.5636 H   0  0  0  0  0  0  0  0  0  0  0  0
  129.0012  130.2749   62.8298 H   0  0  0  0  0  0  0  0  0  0  0  0
  126.2971  131.2590   63.8989 H   0  0  0  0  0  0  0  0  0  0  0  0
  127.4402  132.2373   62.9581 H   0  0  0  0  0  0  0  0  0  0  0  0
  126.0922  129.3248   59.7162 H   0  0  0  0  0  0  0  0  0  0  0  0
  125.7853  130.9883   58.9771 H   0  0  0  0  0  0  0  0  0  0  0  0
  127.5159  130.8597   57.5817 H   0  0  0  0  0  0  0  0  0  0  0  0
  128.5384  129.9469   58.8087 H   0  0  0  0  0  0  0  0  0  0  0  0
  129.6370  126.7697   59.0594 H   0  0  0  0  0  0  0  0  0  0  0  0
  129.1296  128.3988   59.5505 H   0  0  0  0  0  0  0  0  0  0  0  0
  128.1815  126.6228   61.0596 H   0  0  0  0  0  0  0  0  0  0  0  0
  126.8787  127.5304   60.1364 H   0  0  0  0  0  0  0  0  0  0  0  0
  125.0500  125.7200   60.0130 H   0  0  0  0  0  0  0  0  0  0  0  0
  124.2876  124.1977   62.9559 H   0  0  0  0  0  0  0  0  0  0  0  0
  123.6553  125.0627   61.5141 H   0  0  0  0  0  0  0  0  0  0  0  0
  123.7531  123.2691   61.5141 H   0  0  0  0  0  0  0  0  0  0  0  0
  127.1970  122.7925   58.6793 H   0  0  0  0  0  0  0  0  0  0  0  0
  128.8542  121.0419   59.2622 H   0  0  0  0  0  0  0  0  0  0  0  0
  130.9207  123.8436   61.8207 H   0  0  0  0  0  0  0  0  0  0  0  0
  129.2648  125.5947   61.2375 H   0  0  0  0  0  0  0  0  0  0  0  0
  126.6962  124.5747   57.6155 H   0  0  0  0  0  0  0  0  0  0  0  0
  125.8926  126.2049   57.9453 H   0  0  0  0  0  0  0  0  0  0  0  0
  128.8043  125.7378   57.1477 H   0  0  0  0  0  0  0  0  0  0  0  0
  127.5365  126.4785   56.1470 H   0  0  0  0  0  0  0  0  0  0  0  0
  125.1647  129.3599   62.8822 H   0  0  0  0  0  0  0  0  0  0  0  0
  125.4961  128.9082   61.1942 H   0  0  0  0  0  0  0  0  0  0  0  0
  126.6250  127.3447   62.8184 H   0  0  0  0  0  0  0  0  0  0  0  0
  127.8300  128.2821   61.8122 H   0  0  0  0  0  0  0  0  0  0  0  0
  1  2  1  0
  2  3  2  0
  2  4  1  0
  4  5  1  0
  5  6  1  0
  6  7  2  0
  7  8  1  0
  8  9  2  0
  9 10  1  0
 10 11  1  0
 10 12  1  0
 10 13  1  0
  9 14  1  0
 14 15  2  0
  5 16  1  0
 16 17  1  0
 17 18  1  0
 18 19  1  0
 19 20  2  0
 19 21  1  0
 21 22  1  0
 22 23  1  0
 23 24  2  0
 23 25  1  0
 25 26  1  0
 26 27  1  0
 27 28  1  0
 28 29  1  0
 29 30  1  0
 30 31  1  0
 30 32  2  0
 28 33  1  0
 33 34  2  0
 34 35  1  0
 35 36  2  0
 36 37  1  0
 37 38  1  0
 37 39  1  0
 37 40  1  0
 36 41  1  0
 41 42  2  0
 28 43  1  0
 43 44  1  0
 18 45  1  0
 45 46  1  0
 46  5  1  0
 15  6  1  0
 44 25  1  0
 42 33  1  0
  1 47  1  0
  1 48  1  0
  1 49  1  0
  4 50  1  0
  7 51  1  0
  8 52  1  0
 14 53  1  0
 15 54  1  0
 16 55  1  0
 16 56  1  0
 17 57  1  0
 17 58  1  0
 21 59  1  0
 21 60  1  0
 22 61  1  0
 22 62  1  0
 26 63  1  0
 26 64  1  0
 27 65  1  0
 27 66  1  0
 29 67  1  0
 31 68  1  0
 31 69  1  0
 31 70  1  0
 34 71  1  0
 35 72  1  0
 41 73  1  0
 42 74  1  0
 43 75  1  0
 43 76  1  0
 44 77  1  0
 44 78  1  0
 45 79  1  0
 45 80  1  0
 46 81  1  0
 46 82  1  0
M  END
>  <Binding energies>  (1) 
[-8.0]

>  <Ligand effiencies>  (1) 
[-0.16666666666666666]

>  <Interactions>  (1) 
["H-B:ASP:366:OD2:8186, V-B:TYR:539:CE2:9847, V-B:PRO:540:CA:9854, V-B:TYR:539:CD2:9845, V-B:ALA:541:CB:9863, V-B:TYR:539:C:9838, V-A:LEU:475:CD2:4258, H-B:GLU:543:OE2:9881, H-B:TYR:531:OH:9766, H-B:ALA:541:N:9862, V-A:ILE:369:CG2:3236, V-A:ARG:545:CZ:4926, V-A:GLU:543:CD:4908, V-A:GLU:543:CG:4907, V-B:HIS:456:CE1:9041, V-A:TYR:484:CZ:4346, V-A:HIS:456:CE1:4069, V-B:GLU:543:CD:9879, V-B:ASN:362:CB:8147, H-B:GLU:543:OE1:9880, V-B:ARG:545:CZ:9897, V-B:ASP:366:CG:8184, H-B:TYR:484:OH:9319, V-A:TRP:381:CH2:3371, V-B:ASN:362:C:8143, V-B:ASN:362:CA:8145, V-B:ASN:362:CG:8148"]

$$$$
RR29_Rahimova_2017
     RDKit          3D

 35 36  0  0  0  0  0  0  0  0999 V2000
  129.8370  124.3400   67.1850 C   0  0  0  0  0  0  0  0  0  0  0  0
  129.9920  125.7140   66.5510 C   0  0  0  0  0  0  0  0  0  0  0  0
  129.7640  126.8690   67.5520 C   0  0  0  0  0  0  0  0  0  0  0  0
  128.7600  126.4770   68.6550 C   0  0  0  0  0  0  0  0  0  0  0  0
  129.2380  126.8830   70.0410 C   0  0  0  0  0  0  0  0  0  0  0  0
  130.1790  127.9220   70.1850 C   0  0  0  0  0  0  0  0  0  0  0  0
  130.6320  128.3120   71.4530 C   0  0  0  0  0  0  0  0  0  0  0  0
  130.1290  127.6280   72.5540 C   0  0  0  0  0  0  0  0  0  0  0  0
  129.2180  126.6180   72.4200 C   0  0  0  0  0  0  0  0  0  0  0  0
  128.7430  126.2170   71.1760 C   0  0  0  0  0  0  0  0  0  0  0  0
  128.8760  126.1560   73.6520 O   0  0  0  0  0  0  0  0  0  0  0  0
  129.7670  126.7680   74.5470 C   0  0  0  0  0  0  0  0  0  0  0  0
  130.3860  127.8310   73.8730 O   0  0  0  0  0  0  0  0  0  0  0  0
  130.2750  125.7860   65.3030 N   0  0  0  0  0  0  0  0  0  0  0  0
  130.3310  127.0280   64.7080 N   0  0  0  0  0  0  0  0  0  0  0  0
  129.4420  127.4680   63.8030 C   0  0  0  0  0  0  0  0  0  0  0  0
  128.3840  126.7790   63.3750 N   0  0  0  0  0  0  0  0  0  0  0  0
  129.6270  128.6780   63.2960 N   0  0  0  0  0  0  0  0  0  0  0  0
  129.8481  124.4383   68.2805 H   0  0  0  0  0  0  0  0  0  0  0  0
  128.8829  123.8947   66.8665 H   0  0  0  0  0  0  0  0  0  0  0  0
  130.6679  123.6934   66.8665 H   0  0  0  0  0  0  0  0  0  0  0  0
  130.7245  127.1298   68.0204 H   0  0  0  0  0  0  0  0  0  0  0  0
  129.3499  127.7253   66.9995 H   0  0  0  0  0  0  0  0  0  0  0  0
  127.7998  126.9739   68.4523 H   0  0  0  0  0  0  0  0  0  0  0  0
  128.6561  125.3820   68.6420 H   0  0  0  0  0  0  0  0  0  0  0  0
  130.5633  128.4339   69.2904 H   0  0  0  0  0  0  0  0  0  0  0  0
  131.3587  129.1291   71.5725 H   0  0  0  0  0  0  0  0  0  0  0  0
  128.0052  125.4064   71.0832 H   0  0  0  0  0  0  0  0  0  0  0  0
  129.2180  127.1478   75.4213 H   0  0  0  0  0  0  0  0  0  0  0  0
  130.5180  126.0448   74.8977 H   0  0  0  0  0  0  0  0  0  0  0  0
  131.1120  127.6170   64.9610 H   0  0  0  0  0  0  0  0  0  0  0  0
  127.6020  127.2580   62.9530 H   0  0  0  0  0  0  0  0  0  0  0  0
  128.3670  125.7750   63.4860 H   0  0  0  0  0  0  0  0  0  0  0  0
  130.5420  129.1050   63.3260 H   0  0  0  0  0  0  0  0  0  0  0  0
  128.8530  129.1700   62.8740 H   0  0  0  0  0  0  0  0  0  0  0  0
  1  2  1  0
  2  3  1  0
  3  4  1  0
  4  5  1  0
  5  6  2  0
  6  7  1  0
  7  8  2  0
  8  9  1  0
  9 10  2  0
  9 11  1  0
 11 12  1  0
 12 13  1  0
  2 14  2  0
 14 15  1  0
 15 16  1  0
 16 17  1  0
 16 18  2  0
 10  5  1  0
 13  8  1  0
  1 19  1  0
  1 20  1  0
  1 21  1  0
  3 22  1  0
  3 23  1  0
  4 24  1  0
  4 25  1  0
  6 26  1  0
  7 27  1  0
 10 28  1  0
 12 29  1  0
 12 30  1  0
 15 31  1  0
 17 32  1  0
 17 33  1  0
 18 34  1  0
 18 35  1  0
M  CHG  1  18   1
M  END
>  <Binding energies>  (1) 
[-7.36]

>  <Ligand effiencies>  (1) 
[-0.32]

>  <Interactions>  (1) 
["H-B:GLU:543:OE2:9881, H-A:GLU:543:OE2:4910, V-A:GLU:543:CD:4908, V-A:GLU:543:CB:4906, V-B:HIS:456:CE1:9041, V-B:GLU:543:CB:9877, V-A:TYR:484:CZ:4346, V-A:HIS:456:CE1:4069, V-B:GLU:543:CG:9878, V-B:GLU:543:CD:9879, V-A:TYR:484:CE1:4344, H-A:GLU:543:OE1:4909, H-B:LYS:547:NZ:9922, V-B:GLU:543:CA:9875, H-A:LYS:547:NZ:4951"]

$$$$
RR29_Rahimova_2017-again1
     RDKit          3D

 34 35  0  0  0  0  0  0  0  0999 V2000
  123.8660  124.9510   57.8090 C   0  0  0  0  0  0  0  0  0  0  0  0
  124.4610  124.1720   58.9720 C   0  0  0  0  0  0  0  0  0  0  0  0
  125.8000  123.4890   58.6330 C   0  0  0  0  0  0  0  0  0  0  0  0
  127.0010  124.3930   58.9810 C   0  0  0  0  0  0  0  0  0  0  0  0
  128.1790  123.6010   59.5270 C   0  0  0  0  0  0  0  0  0  0  0  0
  129.4760  124.1500   59.4820 C   0  0  0  0  0  0  0  0  0  0  0  0
  130.5760  123.4390   59.9810 C   0  0  0  0  0  0  0  0  0  0  0  0
  130.3400  122.1750   60.5090 C   0  0  0  0  0  0  0  0  0  0  0  0
  129.0840  121.6370   60.5530 C   0  0  0  0  0  0  0  0  0  0  0  0
  127.9740  122.3240   60.0750 C   0  0  0  0  0  0  0  0  0  0  0  0
  129.1400  120.4150   61.1450 O   0  0  0  0  0  0  0  0  0  0  0  0
  130.5050  120.1190   61.2730 C   0  0  0  0  0  0  0  0  0  0  0  0
  131.2210  121.3080   61.0720 O   0  0  0  0  0  0  0  0  0  0  0  0
  123.8250  124.1290   60.0900 N   0  0  0  0  0  0  0  0  0  0  0  0
  124.3510  123.4320   61.0450 N   0  0  0  0  0  0  0  0  0  0  0  0
  125.1620  124.0340   61.8360 C   0  0  0  0  0  0  0  0  0  0  0  0
  125.5720  125.3960   61.8010 N   0  0  0  0  0  0  0  0  0  0  0  0
  125.7780  123.3540   62.9080 N   0  0  0  0  0  0  0  0  0  0  0  0
  123.2412  125.7690   58.1970 H   0  0  0  0  0  0  0  0  0  0  0  0
  124.6770  125.3689   57.1944 H   0  0  0  0  0  0  0  0  0  0  0  0
  123.2495  124.2785   57.1944 H   0  0  0  0  0  0  0  0  0  0  0  0
  125.8791  122.5535   59.2062 H   0  0  0  0  0  0  0  0  0  0  0  0
  125.8209  123.2891   57.5515 H   0  0  0  0  0  0  0  0  0  0  0  0
  127.3213  124.9219   58.0712 H   0  0  0  0  0  0  0  0  0  0  0  0
  126.6776  125.0973   59.7616 H   0  0  0  0  0  0  0  0  0  0  0  0
  129.6272  125.1500   59.0494 H   0  0  0  0  0  0  0  0  0  0  0  0
  131.5895  123.8659   59.9557 H   0  0  0  0  0  0  0  0  0  0  0  0
  126.9679  121.8820   60.1243 H   0  0  0  0  0  0  0  0  0  0  0  0
  130.7098  119.7242   62.2791 H   0  0  0  0  0  0  0  0  0  0  0  0
  130.8049  119.3599   60.5355 H   0  0  0  0  0  0  0  0  0  0  0  0
  125.2380  126.0380   61.0970 H   0  0  0  0  0  0  0  0  0  0  0  0
  126.2220  125.7840   62.4680 H   0  0  0  0  0  0  0  0  0  0  0  0
  125.6110  122.3750   63.0900 H   0  0  0  0  0  0  0  0  0  0  0  0
  126.4220  123.8070   63.5400 H   0  0  0  0  0  0  0  0  0  0  0  0
  1  2  1  0
  2  3  1  0
  3  4  1  0
  4  5  1  0
  5  6  2  0
  6  7  1  0
  7  8  2  0
  8  9  1  0
  9 10  2  0
  9 11  1  0
 11 12  1  0
 12 13  1  0
  2 14  2  0
 14 15  1  0
 15 16  2  0
 16 17  1  0
 16 18  1  0
 10  5  1  0
 13  8  1  0
  1 19  1  0
  1 20  1  0
  1 21  1  0
  3 22  1  0
  3 23  1  0
  4 24  1  0
  4 25  1  0
  6 26  1  0
  7 27  1  0
 10 28  1  0
 12 29  1  0
 12 30  1  0
 17 31  1  0
 17 32  1  0
 18 33  1  0
 18 34  1  0
M  END
>  <Binding energies>  (1) 
[-6.41]

>  <Ligand effiencies>  (1) 
[-0.2913636363636364]

>  <Interactions>  (1) 
["H-B:ASP:366:OD2:8186, V-B:TYR:539:CE2:9847, V-B:PRO:540:CA:9854, V-B:TYR:539:CD2:9845, V-B:LEU:363:CD1:8160, H-B:ALA:541:O:9860, V-B:PRO:540:CB:9856, V-B:ALA:541:CB:9863, V-B:TYR:539:C:9838, V-A:LEU:475:CD2:4258, H-B:GLU:543:OE2:9881, V-B:PRO:540:N:9855, V-B:ALA:541:CA:9861, H-B:ALA:541:N:9862, V-B:LEU:363:CA:8156, V-B:TYR:531:CZ:9765, V-B:TYR:531:CE2:9764, V-B:GLU:543:CG:9878, V-B:GLU:543:CD:9879, V-B:PRO:540:C:9852, V-B:ASN:362:CB:8147, H-B:LEU:363:N:8157, V-B:ASP:366:CB:8183, V-B:ARG:545:CZ:9897, V-B:ASP:366:CG:8184, V-B:ALA:541:C:9859"]

$$$$
RR2_Rahimova_2017
     RDKit          3D

 76 80  0  0  0  0  0  0  0  0999 V2000
  124.0190  129.7470   67.0000 C   0  0  0  0  0  0  0  0  0  0  0  0
  123.8800  130.1970   65.6570 O   0  0  0  0  0  0  0  0  0  0  0  0
  124.9780  130.1610   64.8170 C   0  0  0  0  0  0  0  0  0  0  0  0
  124.9030  130.1760   63.4170 C   0  0  0  0  0  0  0  0  0  0  0  0
  126.0650  130.1330   62.6510 C   0  0  0  0  0  0  0  0  0  0  0  0
  127.3250  130.0720   63.2630 C   0  0  0  0  0  0  0  0  0  0  0  0
  128.5740  130.0190   62.4060 C   0  0  0  0  0  0  0  0  0  0  0  0
  128.6120  129.2970   61.4040 O   0  0  0  0  0  0  0  0  0  0  0  0
  129.6080  130.7870   62.8220 N   0  0  0  0  0  0  0  0  0  0  0  0
  130.8090  130.7050   62.1250 N   0  0  0  0  0  0  0  0  0  0  0  0
  131.1970  131.7700   61.3950 C   0  0  0  0  0  0  0  0  0  0  0  0
  130.4890  132.7510   61.1470 O   0  0  0  0  0  0  0  0  0  0  0  0
  132.6390  131.7250   60.8740 C   0  0  0  0  0  0  0  0  0  0  0  0
  132.8290  131.0620   59.1780 S   0  0  0  0  0  0  0  0  0  0  0  0
  131.1460  130.7000   58.7790 C   0  0  0  0  0  0  0  0  0  0  0  0
  130.3150  131.5970   58.3110 N   0  0  0  0  0  0  0  0  0  0  0  0
  129.0740  130.9900   58.1830 N   0  0  0  0  0  0  0  0  0  0  0  0
  129.2090  129.7370   58.5510 C   0  0  0  0  0  0  0  0  0  0  0  0
  128.0860  128.7510   58.5350 C   0  0  0  0  0  0  0  0  0  0  0  0
  128.3330  127.4230   58.1800 C   0  0  0  0  0  0  0  0  0  0  0  0
  127.2930  126.4990   58.1550 C   0  0  0  0  0  0  0  0  0  0  0  0
  125.9950  126.8920   58.5010 C   0  0  0  0  0  0  0  0  0  0  0  0
  124.9070  126.0070   58.4840 N   0  0  0  0  0  0  0  0  0  0  0  0
  124.9900  124.3120   57.9540 S   0  0  0  0  0  0  0  0  0  0  0  0
  125.4490  124.3460   56.5610 O   0  0  0  0  0  0  0  0  0  0  0  0
  123.7240  123.6610   58.3130 O   0  0  0  0  0  0  0  0  0  0  0  0
  126.3130  123.5840   58.9170 C   0  0  0  0  0  0  0  0  0  0  0  0
  126.3480  123.7330   60.3050 C   0  0  0  0  0  0  0  0  0  0  0  0
  127.3940  123.1730   61.0340 C   0  0  0  0  0  0  0  0  0  0  0  0
  128.4000  122.4610   60.3760 C   0  0  0  0  0  0  0  0  0  0  0  0
  129.5470  121.8630   61.1700 C   0  0  0  0  0  0  0  0  0  0  0  0
  128.3640  122.3160   58.9870 C   0  0  0  0  0  0  0  0  0  0  0  0
  127.3190  122.8770   58.2580 C   0  0  0  0  0  0  0  0  0  0  0  0
  125.7500  128.2180   58.8580 C   0  0  0  0  0  0  0  0  0  0  0  0
  126.7890  129.1440   58.8780 C   0  0  0  0  0  0  0  0  0  0  0  0
  130.5100  129.4840   58.9500 N   0  0  0  0  0  0  0  0  0  0  0  0
  131.0550  128.2860   59.4560 C   0  0  0  0  0  0  0  0  0  0  0  0
  131.6410  127.3650   58.5860 C   0  0  0  0  0  0  0  0  0  0  0  0
  132.1810  126.1860   59.0920 C   0  0  0  0  0  0  0  0  0  0  0  0
  132.1400  125.9160   60.4600 C   0  0  0  0  0  0  0  0  0  0  0  0
  132.7000  124.7210   60.8670 O   0  0  0  0  0  0  0  0  0  0  0  0
  133.6240  124.7190   61.9520 C   0  0  0  0  0  0  0  0  0  0  0  0
  131.5480  126.8480   61.3280 C   0  0  0  0  0  0  0  0  0  0  0  0
  131.0090  128.0290   60.8280 C   0  0  0  0  0  0  0  0  0  0  0  0
  127.3910  130.0630   64.6650 C   0  0  0  0  0  0  0  0  0  0  0  0
  126.2280  130.1080   65.4290 C   0  0  0  0  0  0  0  0  0  0  0  0
  123.7660  130.5661   67.6892 H   0  0  0  0  0  0  0  0  0  0  0  0
  123.3411  128.8985   67.1744 H   0  0  0  0  0  0  0  0  0  0  0  0
  125.0574  129.4286   67.1744 H   0  0  0  0  0  0  0  0  0  0  0  0
  123.9219  130.2219   62.9216 H   0  0  0  0  0  0  0  0  0  0  0  0
  125.9936  130.1470   61.5534 H   0  0  0  0  0  0  0  0  0  0  0  0
  129.7570  130.9860   63.8010 H   0  0  0  0  0  0  0  0  0  0  0  0
  131.4550  130.0360   62.5200 H   0  0  0  0  0  0  0  0  0  0  0  0
  133.0384  132.7499   60.8864 H   0  0  0  0  0  0  0  0  0  0  0  0
  133.1836  131.0358   61.5361 H   0  0  0  0  0  0  0  0  0  0  0  0
  129.3536  127.1063   57.9192 H   0  0  0  0  0  0  0  0  0  0  0  0
  127.4914  125.4573   57.8626 H   0  0  0  0  0  0  0  0  0  0  0  0
  124.0180  126.3490   58.8190 H   0  0  0  0  0  0  0  0  0  0  0  0
  125.5523  124.2907   60.8206 H   0  0  0  0  0  0  0  0  0  0  0  0
  127.4282  123.2911   62.1271 H   0  0  0  0  0  0  0  0  0  0  0  0
  129.3430  121.9694   62.2457 H   0  0  0  0  0  0  0  0  0  0  0  0
  129.6494  120.7967   60.9199 H   0  0  0  0  0  0  0  0  0  0  0  0
  130.4798  122.3895   60.9199 H   0  0  0  0  0  0  0  0  0  0  0  0
  129.1599  121.7596   58.4703 H   0  0  0  0  0  0  0  0  0  0  0  0
  127.2866  122.7630   57.1644 H   0  0  0  0  0  0  0  0  0  0  0  0
  124.7306  128.5334   59.1251 H   0  0  0  0  0  0  0  0  0  0  0  0
  126.5892  130.1871   59.1643 H   0  0  0  0  0  0  0  0  0  0  0  0
  131.6759  127.5699   57.5058 H   0  0  0  0  0  0  0  0  0  0  0  0
  132.6442  125.4607   58.4069 H   0  0  0  0  0  0  0  0  0  0  0  0
  133.0722  124.7202   62.9036 H   0  0  0  0  0  0  0  0  0  0  0  0
  134.2546  123.8195   61.8950 H   0  0  0  0  0  0  0  0  0  0  0  0
  134.2585  125.6158   61.8950 H   0  0  0  0  0  0  0  0  0  0  0  0
  131.5104  126.6432   62.4081 H   0  0  0  0  0  0  0  0  0  0  0  0
  130.5482  128.7579   61.5109 H   0  0  0  0  0  0  0  0  0  0  0  0
  128.3701  130.0200   65.1645 H   0  0  0  0  0  0  0  0  0  0  0  0
  126.2970  130.1016   66.5268 H   0  0  0  0  0  0  0  0  0  0  0  0
  1  2  1  0
  2  3  1  0
  3  4  2  0
  4  5  1  0
  5  6  2  0
  6  7  1  0
  7  8  2  0
  7  9  1  0
  9 10  1  0
 10 11  1  0
 11 12  2  0
 11 13  1  0
 13 14  1  0
 14 15  1  0
 15 16  2  0
 16 17  1  0
 17 18  2  0
 18 19  1  0
 19 20  2  0
 20 21  1  0
 21 22  2  0
 22 23  1  0
 23 24  1  0
 24 25  2  0
 24 26  2  0
 24 27  1  0
 27 28  2  0
 28 29  1  0
 29 30  2  0
 30 31  1  0
 30 32  1  0
 32 33  2  0
 22 34  1  0
 34 35  2  0
 18 36  1  0
 36 37  1  0
 37 38  2  0
 38 39  1  0
 39 40  2  0
 40 41  1  0
 41 42  1  0
 40 43  1  0
 43 44  2  0
  6 45  1  0
 45 46  2  0
 46  3  1  0
 36 15  1  0
 44 37  1  0
 35 19  1  0
 33 27  1  0
  1 47  1  0
  1 48  1  0
  1 49  1  0
  4 50  1  0
  5 51  1  0
  9 52  1  0
 10 53  1  0
 13 54  1  0
 13 55  1  0
 20 56  1  0
 21 57  1  0
 23 58  1  0
 28 59  1  0
 29 60  1  0
 31 61  1  0
 31 62  1  0
 31 63  1  0
 32 64  1  0
 33 65  1  0
 34 66  1  0
 35 67  1  0
 38 68  1  0
 39 69  1  0
 42 70  1  0
 42 71  1  0
 42 72  1  0
 43 73  1  0
 44 74  1  0
 45 75  1  0
 46 76  1  0
M  END
>  <Binding energies>  (1) 
[-9.49]

>  <Ligand effiencies>  (1) 
[-0.1936734693877551]

>  <Interactions>  (1) 
["H-B:ASP:366:OD2:8186, V-B:TYR:539:CE2:9847, V-B:PRO:540:CA:9854, V-B:TYR:539:CD2:9845, V-B:TYR:539:CG:9843, V-B:PRO:540:CB:9856, V-B:ALA:541:CB:9863, V-B:TYR:539:C:9838, V-B:PRO:540:N:9855, H-B:TYR:531:OH:9766, H-A:ASP:366:OD2:3214, V-B:TYR:539:CZ:9848, V-A:ASP:366:CG:3212, V-A:ILE:369:CD1:3238, V-A:ASP:366:CB:3211, V-A:ASP:366:CA:3209, V-B:TYR:531:CZ:9765, V-A:GLU:543:CD:4908, V-A:GLU:543:CG:4907, V-A:PRO:540:CA:4883, H-A:GLU:543:OE1:4909, V-A:PRO:540:CB:4885, H-A:ALA:541:N:4891, V-B:GLY:454:CA:9020, V-B:ARG:545:CG:9893, H-B:LEU:363:N:8157, V-B:ASP:366:CB:8183, V-B:ARG:545:CD:9894, V-B:ARG:545:CZ:9897, V-B:ASP:366:CG:8184, H-B:TYR:484:OH:9319, H-B:GLY:454:N:9021, H-B:ARG:545:NE:9895"]

$$$$
RR30_Rahimova_2017
     RDKit          3D

 29 30  0  0  0  0  0  0  0  0999 V2000
  132.5460  123.9320   60.4710 C   0  0  0  0  0  0  0  0  0  0  0  0
  133.7230  124.6180   61.1800 C   0  0  0  0  0  0  0  0  0  0  0  0
  133.4640  124.8210   62.6570 C   0  0  0  0  0  0  0  0  0  0  0  0
  134.3140  124.7320   63.6490 N   0  0  0  0  0  0  0  0  0  0  0  0
  133.5830  124.9980   64.8040 N   0  0  0  0  0  0  0  0  0  0  0  0
  132.3530  125.2160   64.4120 C   0  0  0  0  0  0  0  0  0  0  0  0
  130.9600  125.6190   65.4150 S   0  0  0  0  0  0  0  0  0  0  0  0
  130.2820  123.9520   65.6930 C   0  0  0  0  0  0  0  0  0  0  0  0
  129.8520  123.2770   64.3880 C   0  0  0  0  0  0  0  0  0  0  0  0
  130.4510  122.2700   64.0050 O   0  0  0  0  0  0  0  0  0  0  0  0
  128.8410  123.8760   63.7180 N   0  0  0  0  0  0  0  0  0  0  0  0
  128.2840  123.4550   62.5200 C   0  0  0  0  0  0  0  0  0  0  0  0
  127.0350  123.1320   62.2720 N   0  0  0  0  0  0  0  0  0  0  0  0
  126.8390  122.7530   60.9500 N   0  0  0  0  0  0  0  0  0  0  0  0
  127.9350  122.7970   60.2280 C   0  0  0  0  0  0  0  0  0  0  0  0
  127.9770  122.4290   58.7630 C   0  0  0  0  0  0  0  0  0  0  0  0
  129.3260  123.3220   61.1370 S   0  0  0  0  0  0  0  0  0  0  0  0
  132.2060  125.1250   63.0650 O   0  0  0  0  0  0  0  0  0  0  0  0
  131.8513  123.5271   61.2217 H   0  0  0  0  0  0  0  0  0  0  0  0
  132.0196  124.6647   59.8417 H   0  0  0  0  0  0  0  0  0  0  0  0
  132.9241  123.1128   59.8417 H   0  0  0  0  0  0  0  0  0  0  0  0
  134.6205  123.9933   61.0608 H   0  0  0  0  0  0  0  0  0  0  0  0
  133.8599  125.6091   60.7229 H   0  0  0  0  0  0  0  0  0  0  0  0
  131.0523  123.3322   66.1752 H   0  0  0  0  0  0  0  0  0  0  0  0
  129.3913  124.0520   66.3306 H   0  0  0  0  0  0  0  0  0  0  0  0
  128.4480  124.7160   64.1170 H   0  0  0  0  0  0  0  0  0  0  0  0
  128.1012  121.3407   58.6617 H   0  0  0  0  0  0  0  0  0  0  0  0
  127.0378  122.7373   58.2804 H   0  0  0  0  0  0  0  0  0  0  0  0
  128.8225  122.9410   58.2804 H   0  0  0  0  0  0  0  0  0  0  0  0
  1  2  1  0
  2  3  1  0
  3  4  2  0
  4  5  1  0
  5  6  2  0
  6  7  1  0
  7  8  1  0
  8  9  1  0
  9 10  2  0
  9 11  1  0
 11 12  1  0
 12 13  2  0
 13 14  1  0
 14 15  2  0
 15 16  1  0
 15 17  1  0
  6 18  1  0
 18  3  1  0
 17 12  1  0
  1 19  1  0
  1 20  1  0
  1 21  1  0
  2 22  1  0
  2 23  1  0
  8 24  1  0
  8 25  1  0
 11 26  1  0
 16 27  1  0
 16 28  1  0
 16 29  1  0
M  END
>  <Binding energies>  (1) 
[-6.13]

>  <Ligand effiencies>  (1) 
[-0.32263157894736844]

>  <Interactions>  (1) 
["V-B:TYR:539:CE2:9847, V-B:PRO:540:CA:9854, V-B:TYR:539:CD2:9845, V-B:TYR:539:CG:9843, V-B:ALA:541:CB:9863, V-B:TYR:539:C:9838, H-B:GLU:543:OE2:9881, V-B:PRO:540:N:9855, H-B:ALA:541:N:9862, V-B:TYR:539:CZ:9848, H-A:GLY:454:N:4049, V-A:ASP:366:CG:3212, V-A:ILE:369:CD1:3238, V-A:ILE:369:CG2:3236, H-A:TYR:484:OH:4347, V-A:ARG:545:CZ:4926, V-A:TYR:484:CZ:4346, V-B:GLU:543:CG:9878, V-B:GLU:543:CD:9879, V-A:TYR:484:CE1:4344"]

$$$$
RR31_Rahimova_2017
     RDKit          3D

 44 45  0  0  0  0  0  0  0  0999 V2000
  134.0630  119.7170   61.4040 C   0  0  0  0  0  0  0  0  0  0  0  0
  132.7250  120.4380   61.3070 C   0  0  0  0  0  0  0  0  0  0  0  0
  131.6220  119.7580   60.7880 C   0  0  0  0  0  0  0  0  0  0  0  0
  130.3830  120.3880   60.6900 C   0  0  0  0  0  0  0  0  0  0  0  0
  130.2080  121.7150   61.1150 C   0  0  0  0  0  0  0  0  0  0  0  0
  128.9750  122.3640   61.0130 N   0  0  0  0  0  0  0  0  0  0  0  0
  128.0240  122.0690   59.9240 C   0  0  0  0  0  0  0  0  0  0  0  0
  126.9290  123.1450   59.7340 C   0  0  0  0  0  0  0  0  0  0  0  0
  126.1930  123.3680   60.9820 N   0  0  0  0  0  0  0  0  0  0  0  0
  125.1230  124.3580   60.8240 C   0  0  0  0  0  0  0  0  0  0  0  0
  124.0350  123.9160   59.8250 C   0  0  0  0  0  0  0  0  0  0  0  0
  124.2990  124.4420   58.4050 C   0  0  0  0  0  0  0  0  0  0  0  0
  124.6720  125.9280   58.4570 N   0  0  0  0  0  0  0  0  0  0  0  0
  127.1540  123.8360   61.9790 C   0  0  0  0  0  0  0  0  0  0  0  0
  128.2460  122.7710   62.2310 C   0  0  0  0  0  0  0  0  0  0  0  0
  131.3270  122.3890   61.6250 C   0  0  0  0  0  0  0  0  0  0  0  0
  132.5770  121.7680   61.7280 C   0  0  0  0  0  0  0  0  0  0  0  0
  133.7550  122.5560   62.2890 C   0  0  0  0  0  0  0  0  0  0  0  0
  134.3270  119.5748   62.4623 H   0  0  0  0  0  0  0  0  0  0  0  0
  133.9881  118.7371   60.9099 H   0  0  0  0  0  0  0  0  0  0  0  0
  134.8403  120.3184   60.9099 H   0  0  0  0  0  0  0  0  0  0  0  0
  131.7318  118.7159   60.4535 H   0  0  0  0  0  0  0  0  0  0  0  0
  129.5275  119.8366   60.2727 H   0  0  0  0  0  0  0  0  0  0  0  0
  128.5901  121.9824   58.9848 H   0  0  0  0  0  0  0  0  0  0  0  0
  127.5086  121.1362   60.1965 H   0  0  0  0  0  0  0  0  0  0  0  0
  127.4010  124.0879   59.4208 H   0  0  0  0  0  0  0  0  0  0  0  0
  126.2224  122.7958   58.9667 H   0  0  0  0  0  0  0  0  0  0  0  0
  124.6520  124.5244   61.8041 H   0  0  0  0  0  0  0  0  0  0  0  0
  125.5806  125.2760   60.4267 H   0  0  0  0  0  0  0  0  0  0  0  0
  124.0072  122.8167   59.7956 H   0  0  0  0  0  0  0  0  0  0  0  0
  123.0758  124.3330   60.1656 H   0  0  0  0  0  0  0  0  0  0  0  0
  125.1264  123.8743   57.9543 H   0  0  0  0  0  0  0  0  0  0  0  0
  123.3888  124.3192   57.7996 H   0  0  0  0  0  0  0  0  0  0  0  0
  125.3590  126.1390   57.7470 H   0  0  0  0  0  0  0  0  0  0  0  0
  125.0570  126.1590   59.3620 H   0  0  0  0  0  0  0  0  0  0  0  0
  123.8540  126.4990   58.2970 H   0  0  0  0  0  0  0  0  0  0  0  0
  127.6282  124.7601   61.6169 H   0  0  0  0  0  0  0  0  0  0  0  0
  126.6203  124.0239   62.9223 H   0  0  0  0  0  0  0  0  0  0  0  0
  128.9717  123.1816   62.9484 H   0  0  0  0  0  0  0  0  0  0  0  0
  127.7364  121.8744   62.6136 H   0  0  0  0  0  0  0  0  0  0  0  0
  131.2194  123.4335   61.9528 H   0  0  0  0  0  0  0  0  0  0  0  0
  133.7211  122.5333   63.3882 H   0  0  0  0  0  0  0  0  0  0  0  0
  134.6964  122.1052   61.9418 H   0  0  0  0  0  0  0  0  0  0  0  0
  133.6976  123.5982   61.9418 H   0  0  0  0  0  0  0  0  0  0  0  0
  1  2  1  0
  2  3  2  0
  3  4  1  0
  4  5  2  0
  5  6  1  0
  6  7  1  0
  7  8  1  0
  8  9  1  0
  9 10  1  0
 10 11  1  0
 11 12  1  0
 12 13  1  0
  9 14  1  0
 14 15  1  0
  5 16  1  0
 16 17  2  0
 17 18  1  0
 17  2  1  0
 15  6  1  0
  1 19  1  0
  1 20  1  0
  1 21  1  0
  3 22  1  0
  4 23  1  0
  7 24  1  0
  7 25  1  0
  8 26  1  0
  8 27  1  0
 10 28  1  0
 10 29  1  0
 11 30  1  0
 11 31  1  0
 12 32  1  0
 12 33  1  0
 13 34  1  0
 13 35  1  0
 13 36  1  0
 14 37  1  0
 14 38  1  0
 15 39  1  0
 15 40  1  0
 16 41  1  0
 18 42  1  0
 18 43  1  0
 18 44  1  0
M  CHG  1  13   1
M  END
>  <Binding energies>  (1) 
[-6.98]

>  <Ligand effiencies>  (1) 
[-0.3323809523809524]

>  <Interactions>  (1) 
["H-B:ASP:366:OD2:8186, V-B:TYR:539:CE2:9847, V-B:PRO:540:CA:9854, V-B:TYR:539:CD2:9845, V-B:LEU:363:CD1:8160, V-B:PRO:540:CB:9856, V-B:ALA:541:CB:9863, V-B:TYR:539:C:9838, V-A:LEU:475:CD2:4258, V-B:PRO:540:N:9855, V-B:ALA:541:CA:9861, H-B:TYR:531:OH:9766, H-B:ALA:541:N:9862, V-A:ILE:369:CD1:3238, V-A:ILE:369:CG2:3236, V-B:LEU:363:CA:8156, V-B:TYR:531:CZ:9765, V-B:GLU:543:CD:9879, V-B:PRO:540:C:9852, V-A:GLY:454:CA:4048, V-B:ASP:366:CB:8183, V-B:ASP:366:CG:8184, V-A:TRP:381:CH2:3371, V-B:ASN:362:C:8143, V-A:TRP:381:CZ2:3369, V-A:SER:385:C:3404, V-A:SER:385:CA:3406"]

$$$$
RR32_Rahimova_2017
     RDKit          3D

 37 39  0  0  0  0  0  0  0  0999 V2000
  126.2630  123.3000   56.7260 C   0  0  0  0  0  0  0  0  0  0  0  0
  126.6990  123.1320   58.1780 C   0  0  0  0  0  0  0  0  0  0  0  0
  127.9640  122.6000   58.4300 C   0  0  0  0  0  0  0  0  0  0  0  0
  128.3970  122.4360   59.7430 C   0  0  0  0  0  0  0  0  0  0  0  0
  129.6530  121.9090   59.9890 N   0  0  0  0  0  0  0  0  0  0  0  0
  130.7150  122.8500   60.3850 C   0  0  0  0  0  0  0  0  0  0  0  0
  132.1150  122.1950   60.4590 C   0  0  0  0  0  0  0  0  0  0  0  0
  132.1020  121.0810   61.4070 N   0  0  0  0  0  0  0  0  0  0  0  0
  133.4290  120.4840   61.5010 C   0  0  0  0  0  0  0  0  0  0  0  0
  131.1350  120.0950   60.9290 C   0  0  0  0  0  0  0  0  0  0  0  0
  129.7210  120.7180   60.8580 C   0  0  0  0  0  0  0  0  0  0  0  0
  127.6320  122.7720   60.8130 N   0  0  0  0  0  0  0  0  0  0  0  0
  126.3920  123.2910   60.6000 C   0  0  0  0  0  0  0  0  0  0  0  0
  125.6150  123.6300   61.7350 C   0  0  0  0  0  0  0  0  0  0  0  0
  124.3410  124.1630   61.5770 C   0  0  0  0  0  0  0  0  0  0  0  0
  123.8150  124.3700   60.3070 C   0  0  0  0  0  0  0  0  0  0  0  0
  124.5520  124.0470   59.1710 C   0  0  0  0  0  0  0  0  0  0  0  0
  125.8630  123.4970   59.2840 C   0  0  0  0  0  0  0  0  0  0  0  0
  125.2370  123.6953   56.6947 H   0  0  0  0  0  0  0  0  0  0  0  0
  126.9417  124.0010   56.2181 H   0  0  0  0  0  0  0  0  0  0  0  0
  126.2959  122.3248   56.2181 H   0  0  0  0  0  0  0  0  0  0  0  0
  128.6174  122.3110   57.5936 H   0  0  0  0  0  0  0  0  0  0  0  0
  130.7500  123.6671   59.6494 H   0  0  0  0  0  0  0  0  0  0  0  0
  130.4704  123.2122   61.3944 H   0  0  0  0  0  0  0  0  0  0  0  0
  132.3944  121.8212   59.4629 H   0  0  0  0  0  0  0  0  0  0  0  0
  132.8449  122.9453   60.7969 H   0  0  0  0  0  0  0  0  0  0  0  0
  133.7017  120.3613   62.5596 H   0  0  0  0  0  0  0  0  0  0  0  0
  133.4247  119.5011   61.0072 H   0  0  0  0  0  0  0  0  0  0  0  0
  134.1617  121.1392   61.0072 H   0  0  0  0  0  0  0  0  0  0  0  0
  131.4313  119.7531   59.9264 H   0  0  0  0  0  0  0  0  0  0  0  0
  131.1163  119.2455   61.6275 H   0  0  0  0  0  0  0  0  0  0  0  0
  129.0246  119.9609   60.4684 H   0  0  0  0  0  0  0  0  0  0  0  0
  129.4545  121.0402   61.8754 H   0  0  0  0  0  0  0  0  0  0  0  0
  126.0212  123.4709   62.7448 H   0  0  0  0  0  0  0  0  0  0  0  0
  123.7444  124.4230   62.4638 H   0  0  0  0  0  0  0  0  0  0  0  0
  122.8056  124.7936   60.1985 H   0  0  0  0  0  0  0  0  0  0  0  0
  124.1182  124.2180   58.1747 H   0  0  0  0  0  0  0  0  0  0  0  0
  1  2  1  0
  2  3  2  0
  3  4  1  0
  4  5  1  0
  5  6  1  0
  6  7  1  0
  7  8  1  0
  8  9  1  0
  8 10  1  0
 10 11  1  0
  4 12  2  0
 12 13  1  0
 13 14  2  0
 14 15  1  0
 15 16  2  0
 16 17  1  0
 17 18  2  0
 18  2  1  0
 11  5  1  0
 18 13  1  0
  1 19  1  0
  1 20  1  0
  1 21  1  0
  3 22  1  0
  6 23  1  0
  6 24  1  0
  7 25  1  0
  7 26  1  0
  9 27  1  0
  9 28  1  0
  9 29  1  0
 10 30  1  0
 10 31  1  0
 11 32  1  0
 11 33  1  0
 14 34  1  0
 15 35  1  0
 16 36  1  0
 17 37  1  0
M  END
>  <Binding energies>  (1) 
[-6.75]

>  <Ligand effiencies>  (1) 
[-0.375]

>  <Interactions>  (1) 
["V-B:TYR:539:CE2:9847, V-B:PRO:540:CA:9854, V-B:TYR:539:CD2:9845, V-B:TYR:539:CG:9843, V-B:PRO:540:CB:9856, V-B:ALA:541:CB:9863, V-B:TYR:539:C:9838, V-A:LEU:475:CD2:4258, V-B:PRO:540:N:9855, H-B:ALA:541:N:9862, V-B:TYR:539:CZ:9848, V-A:ILE:369:CG2:3236, V-B:LEU:363:CA:8156, V-B:PRO:540:C:9852, V-B:ASN:362:CB:8147, V-B:ASP:366:CG:8184, V-A:TRP:381:CH2:3371, V-B:ASN:362:C:8143, V-B:ASN:362:CA:8145"]

$$$$
RR32_Rahimova_2017-again1
     RDKit          3D

 38 40  0  0  0  0  0  0  0  0999 V2000
  134.3750  120.5850   61.9470 C   0  0  0  0  0  0  0  0  0  0  0  0
  133.2620  121.5890   62.2140 C   0  0  0  0  0  0  0  0  0  0  0  0
  133.5400  122.7880   62.8700 C   0  0  0  0  0  0  0  0  0  0  0  0
  132.5160  123.7110   63.1100 C   0  0  0  0  0  0  0  0  0  0  0  0
  132.7690  124.9150   63.7750 N   0  0  0  0  0  0  0  0  0  0  0  0
  132.1280  126.1670   63.3220 C   0  0  0  0  0  0  0  0  0  0  0  0
  130.7260  126.3740   63.9420 C   0  0  0  0  0  0  0  0  0  0  0  0
  130.8730  126.4530   65.4740 N   0  0  0  0  0  0  0  0  0  0  0  0
  129.5000  126.6430   66.1470 C   0  0  0  0  0  0  0  0  0  0  0  0
  131.5510  125.1610   65.9730 C   0  0  0  0  0  0  0  0  0  0  0  0
  132.9060  125.0010   65.2450 C   0  0  0  0  0  0  0  0  0  0  0  0
  131.2310  123.4560   62.7390 N   0  0  0  0  0  0  0  0  0  0  0  0
  130.9310  122.2960   62.0950 C   0  0  0  0  0  0  0  0  0  0  0  0
  129.5870  122.0710   61.7100 C   0  0  0  0  0  0  0  0  0  0  0  0
  129.2360  120.8990   61.0460 C   0  0  0  0  0  0  0  0  0  0  0  0
  130.1970  119.9360   60.7550 C   0  0  0  0  0  0  0  0  0  0  0  0
  131.5260  120.1280   61.1220 C   0  0  0  0  0  0  0  0  0  0  0  0
  131.9240  121.3130   61.8000 C   0  0  0  0  0  0  0  0  0  0  0  0
  134.7781  120.2214   62.9037 H   0  0  0  0  0  0  0  0  0  0  0  0
  133.9739  119.7372   61.3722 H   0  0  0  0  0  0  0  0  0  0  0  0
  135.1771  121.0710   61.3722 H   0  0  0  0  0  0  0  0  0  0  0  0
  134.5661  123.0085   63.1993 H   0  0  0  0  0  0  0  0  0  0  0  0
  132.7685  127.0144   63.6078 H   0  0  0  0  0  0  0  0  0  0  0  0
  132.0042  126.1028   62.2309 H   0  0  0  0  0  0  0  0  0  0  0  0
  130.2875  127.3089   63.5630 H   0  0  0  0  0  0  0  0  0  0  0  0
  130.0673  125.5359   63.6703 H   0  0  0  0  0  0  0  0  0  0  0  0
  131.4710  127.2360   65.6990 H   0  0  0  0  0  0  0  0  0  0  0  0
  129.6220  126.6261   67.2401 H   0  0  0  0  0  0  0  0  0  0  0  0
  129.0720  127.6089   65.8407 H   0  0  0  0  0  0  0  0  0  0  0  0
  128.8258  125.8296   65.8407 H   0  0  0  0  0  0  0  0  0  0  0  0
  131.7189  125.2261   67.0582 H   0  0  0  0  0  0  0  0  0  0  0  0
  130.9073  124.2940   65.7631 H   0  0  0  0  0  0  0  0  0  0  0  0
  133.5380  125.8681   65.4874 H   0  0  0  0  0  0  0  0  0  0  0  0
  133.3528  124.0563   65.5883 H   0  0  0  0  0  0  0  0  0  0  0  0
  128.8182  122.8245   61.9363 H   0  0  0  0  0  0  0  0  0  0  0  0
  128.1900  120.7329   60.7489 H   0  0  0  0  0  0  0  0  0  0  0  0
  129.9040  119.0147   60.2303 H   0  0  0  0  0  0  0  0  0  0  0  0
  132.2742  119.3570   60.8857 H   0  0  0  0  0  0  0  0  0  0  0  0
  1  2  1  0
  2  3  2  0
  3  4  1  0
  4  5  1  0
  5  6  1  0
  6  7  1  0
  7  8  1  0
  8  9  1  0
  8 10  1  0
 10 11  1  0
  4 12  2  0
 12 13  1  0
 13 14  2  0
 14 15  1  0
 15 16  2  0
 16 17  1  0
 17 18  2  0
 18  2  1  0
 11  5  1  0
 18 13  1  0
  1 19  1  0
  1 20  1  0
  1 21  1  0
  3 22  1  0
  6 23  1  0
  6 24  1  0
  7 25  1  0
  7 26  1  0
  8 27  1  0
  9 28  1  0
  9 29  1  0
  9 30  1  0
 10 31  1  0
 10 32  1  0
 11 33  1  0
 11 34  1  0
 14 35  1  0
 15 36  1  0
 16 37  1  0
 17 38  1  0
M  CHG  1   8   1
M  END
>  <Binding energies>  (1) 
[-6.45]

>  <Ligand effiencies>  (1) 
[-0.3394736842105263]

>  <Interactions>  (1) 
["V-B:TYR:539:CE2:9847, V-B:TYR:539:CD2:9845, V-B:ALA:541:CB:9863, V-B:TYR:539:C:9838, V-A:LEU:475:CD2:4258, V-B:ALA:541:CA:9861, V-A:ILE:369:CD1:3238, V-A:ILE:369:CG2:3236, H-A:GLU:543:OE2:4910, V-A:ARG:545:CZ:4926, V-A:GLU:543:CD:4908, V-A:HIS:456:CE1:4069, V-B:GLU:543:CG:9878, V-B:GLU:543:CD:9879, V-B:PRO:540:C:9852, H-A:GLU:543:OE1:4909, V-A:GLY:454:CA:4048, V-A:TRP:381:CH2:3371, V-A:ILE:369:CG1:3237, V-A:SER:385:C:3404"]

$$$$
RR32_Rahimova_2017-again2
     RDKit          3D

 39 41  0  0  0  0  0  0  0  0999 V2000
  127.2010  126.2290   57.6600 C   0  0  0  0  0  0  0  0  0  0  0  0
  127.2040  125.9680   59.1610 C   0  0  0  0  0  0  0  0  0  0  0  0
  128.2350  126.4720   59.9590 C   0  0  0  0  0  0  0  0  0  0  0  0
  128.2580  126.2370   61.3400 C   0  0  0  0  0  0  0  0  0  0  0  0
  129.2890  126.7450   62.2090 N   0  0  0  0  0  0  0  0  0  0  0  0
  130.6290  127.1040   61.6730 C   0  0  0  0  0  0  0  0  0  0  0  0
  130.6300  128.5540   61.1190 C   0  0  0  0  0  0  0  0  0  0  0  0
  130.2500  129.5390   62.2510 N   0  0  0  0  0  0  0  0  0  0  0  0
  130.1840  130.9850   61.7250 C   0  0  0  0  0  0  0  0  0  0  0  0
  128.9050  129.1210   62.8930 C   0  0  0  0  0  0  0  0  0  0  0  0
  128.9970  127.6430   63.3560 C   0  0  0  0  0  0  0  0  0  0  0  0
  127.2500  125.5170   61.8750 N   0  0  0  0  0  0  0  0  0  0  0  0
  126.1960  124.9840   61.1700 C   0  0  0  0  0  0  0  0  0  0  0  0
  125.1900  124.2430   61.8310 C   0  0  0  0  0  0  0  0  0  0  0  0
  124.1350  123.7210   61.0860 C   0  0  0  0  0  0  0  0  0  0  0  0
  124.0690  123.9240   59.7100 C   0  0  0  0  0  0  0  0  0  0  0  0
  125.0550  124.6530   59.0460 C   0  0  0  0  0  0  0  0  0  0  0  0
  126.1530  125.2070   59.7620 C   0  0  0  0  0  0  0  0  0  0  0  0
  127.1885  127.3135   57.4764 H   0  0  0  0  0  0  0  0  0  0  0  0
  128.1042  125.7913   57.2099 H   0  0  0  0  0  0  0  0  0  0  0  0
  126.3081  125.7706   57.2099 H   0  0  0  0  0  0  0  0  0  0  0  0
  129.0400  127.0617   59.4960 H   0  0  0  0  0  0  0  0  0  0  0  0
  131.3730  127.0254   62.4794 H   0  0  0  0  0  0  0  0  0  0  0  0
  130.8781  126.4132   60.8540 H   0  0  0  0  0  0  0  0  0  0  0  0
  131.6325  128.8008   60.7394 H   0  0  0  0  0  0  0  0  0  0  0  0
  129.8983  128.6348   60.3016 H   0  0  0  0  0  0  0  0  0  0  0  0
  130.9630  129.4780   62.9650 H   0  0  0  0  0  0  0  0  0  0  0  0
  130.1521  131.6831   62.5745 H   0  0  0  0  0  0  0  0  0  0  0  0
  131.0736  131.1933   61.1124 H   0  0  0  0  0  0  0  0  0  0  0  0
  129.2792  131.1114   61.1124 H   0  0  0  0  0  0  0  0  0  0  0  0
  128.6951  129.7654   63.7594 H   0  0  0  0  0  0  0  0  0  0  0  0
  128.0954  129.2272   62.1560 H   0  0  0  0  0  0  0  0  0  0  0  0
  129.8007  127.5484   64.1011 H   0  0  0  0  0  0  0  0  0  0  0  0
  128.0309  127.3512   63.7936 H   0  0  0  0  0  0  0  0  0  0  0  0
  127.2690  125.3640   62.8720 H   0  0  0  0  0  0  0  0  0  0  0  0
  125.2395  124.0809   62.9179 H   0  0  0  0  0  0  0  0  0  0  0  0
  123.3463  123.1428   61.5896 H   0  0  0  0  0  0  0  0  0  0  0  0
  123.2279  123.5037   59.1392 H   0  0  0  0  0  0  0  0  0  0  0  0
  124.9834  124.8012   57.9584 H   0  0  0  0  0  0  0  0  0  0  0  0
  1  2  1  0
  2  3  2  0
  3  4  1  0
  4  5  1  0
  5  6  1  0
  6  7  1  0
  7  8  1  0
  8  9  1  0
  8 10  1  0
 10 11  1  0
  4 12  2  0
 12 13  1  0
 13 14  2  0
 14 15  1  0
 15 16  2  0
 16 17  1  0
 17 18  2  0
 18  2  1  0
 11  5  1  0
 18 13  1  0
  1 19  1  0
  1 20  1  0
  1 21  1  0
  3 22  1  0
  6 23  1  0
  6 24  1  0
  7 25  1  0
  7 26  1  0
  8 27  1  0
  9 28  1  0
  9 29  1  0
  9 30  1  0
 10 31  1  0
 10 32  1  0
 11 33  1  0
 11 34  1  0
 12 35  1  0
 14 36  1  0
 15 37  1  0
 16 38  1  0
 17 39  1  0
M  CHG  2   8   1  12   1
M  END
>  <Binding energies>  (1) 
[-6.85]

>  <Ligand effiencies>  (1) 
[-0.34249999999999997]

>  <Interactions>  (1) 
["V-B:PRO:540:CA:9854, V-B:PRO:540:CB:9856, H-B:GLU:543:OE2:9881, H-A:ASP:366:OD2:3214, H-A:GLU:543:OE2:4910, V-B:LEU:363:CA:8156, V-A:GLU:543:CD:4908, V-B:GLU:543:CD:9879, V-B:ASN:362:CB:8147, H-A:GLU:543:OE1:4909, V-B:ASN:362:C:8143, V-B:ASN:362:CA:8145"]

$$$$
RR33_Rahimova_2017
     RDKit          3D

 36 37  0  0  0  0  0  0  0  0999 V2000
  132.8760  122.0100   63.3750 C   0  0  0  0  0  0  0  0  0  0  0  0
  133.7840  121.4460   62.2780 C   0  0  0  0  0  0  0  0  0  0  0  0
  132.9810  120.7370   61.3390 O   0  0  0  0  0  0  0  0  0  0  0  0
  131.6910  121.1670   61.0890 C   0  0  0  0  0  0  0  0  0  0  0  0
  131.5580  122.4140   60.4800 C   0  0  0  0  0  0  0  0  0  0  0  0
  130.2980  122.9310   60.1930 C   0  0  0  0  0  0  0  0  0  0  0  0
  129.1470  122.2040   60.5110 C   0  0  0  0  0  0  0  0  0  0  0  0
  127.7950  122.7610   60.2030 C   0  0  0  0  0  0  0  0  0  0  0  0
  127.2950  123.0480   59.0220 N   0  0  0  0  0  0  0  0  0  0  0  0
  126.0770  123.5090   59.2600 C   0  0  0  0  0  0  0  0  0  0  0  0
  125.1720  123.9390   58.1250 C   0  0  0  0  0  0  0  0  0  0  0  0
  125.7830  123.6370   56.8390 N   0  0  0  0  0  0  0  0  0  0  0  0
  125.2500  122.3980   56.2960 C   0  0  0  0  0  0  0  0  0  0  0  0
  125.8340  123.5000   60.6280 C   0  0  0  0  0  0  0  0  0  0  0  0
  124.6740  123.8830   61.5140 C   0  0  0  0  0  0  0  0  0  0  0  0
  126.9440  123.0180   61.2310 O   0  0  0  0  0  0  0  0  0  0  0  0
  129.2760  120.9510   61.1180 C   0  0  0  0  0  0  0  0  0  0  0  0
  130.5370  120.4340   61.4070 C   0  0  0  0  0  0  0  0  0  0  0  0
  133.2896  121.7531   64.3614 H   0  0  0  0  0  0  0  0  0  0  0  0
  132.8170  123.1039   63.2757 H   0  0  0  0  0  0  0  0  0  0  0  0
  131.8692  121.5780   63.2757 H   0  0  0  0  0  0  0  0  0  0  0  0
  134.3065  122.2701   61.7702 H   0  0  0  0  0  0  0  0  0  0  0  0
  134.5291  120.7685   62.7204 H   0  0  0  0  0  0  0  0  0  0  0  0
  132.4567  122.9944   60.2241 H   0  0  0  0  0  0  0  0  0  0  0  0
  130.2074  123.9168   59.7134 H   0  0  0  0  0  0  0  0  0  0  0  0
  124.2140  123.4043   58.2043 H   0  0  0  0  0  0  0  0  0  0  0  0
  125.0092  125.0247   58.1936 H   0  0  0  0  0  0  0  0  0  0  0  0
  126.7820  123.5380   56.9600 H   0  0  0  0  0  0  0  0  0  0  0  0
  124.9625  121.7298   57.1211 H   0  0  0  0  0  0  0  0  0  0  0  0
  124.3671  122.6184   55.6780 H   0  0  0  0  0  0  0  0  0  0  0  0
  126.0172  121.9085   55.6780 H   0  0  0  0  0  0  0  0  0  0  0  0
  124.9703  123.7852   62.5688 H   0  0  0  0  0  0  0  0  0  0  0  0
  124.3846  124.9244   61.3095 H   0  0  0  0  0  0  0  0  0  0  0  0
  123.8215  123.2187   61.3095 H   0  0  0  0  0  0  0  0  0  0  0  0
  128.3763  120.3699   61.3689 H   0  0  0  0  0  0  0  0  0  0  0  0
  130.6286  119.4480   61.8860 H   0  0  0  0  0  0  0  0  0  0  0  0
  1  2  1  0
  2  3  1  0
  3  4  1  0
  4  5  2  0
  5  6  1  0
  6  7  2  0
  7  8  1  0
  8  9  2  0
  9 10  1  0
 10 11  1  0
 11 12  1  0
 12 13  1  0
 10 14  2  0
 14 15  1  0
 14 16  1  0
  7 17  1  0
 17 18  2  0
 18  4  1  0
 16  8  1  0
  1 19  1  0
  1 20  1  0
  1 21  1  0
  2 22  1  0
  2 23  1  0
  5 24  1  0
  6 25  1  0
 11 26  1  0
 11 27  1  0
 12 28  1  0
 13 29  1  0
 13 30  1  0
 13 31  1  0
 15 32  1  0
 15 33  1  0
 15 34  1  0
 17 35  1  0
 18 36  1  0
M  END
>  <Binding energies>  (1) 
[-5.11]

>  <Ligand effiencies>  (1) 
[-0.26894736842105266]

>  <Interactions>  (1) 
["V-B:TYR:539:CE2:9847, V-B:PRO:540:CA:9854, V-B:TYR:539:CD2:9845, V-B:LEU:363:CD1:8160, V-B:PRO:540:CD:9858, V-B:PRO:540:CB:9856, V-B:ALA:541:CB:9863, V-A:LEU:475:CD2:4258, V-B:PRO:540:N:9855, V-B:ALA:541:CA:9861, H-B:ALA:541:N:9862, V-A:ILE:369:CD1:3238, V-A:ILE:369:CG2:3236, V-B:MET:535:CE:9806, V-B:PRO:540:C:9852, V-B:ASN:362:CB:8147, V-A:GLY:454:CA:4048"]

$$$$
RR33_Rahimova_2017-again1
     RDKit          3D

 37 38  0  0  0  0  0  0  0  0999 V2000
  134.7990  118.6310   59.7350 C   0  0  0  0  0  0  0  0  0  0  0  0
  134.2640  119.4510   60.9120 C   0  0  0  0  0  0  0  0  0  0  0  0
  132.9520  118.9960   61.2290 O   0  0  0  0  0  0  0  0  0  0  0  0
  131.8740  119.8360   61.0230 C   0  0  0  0  0  0  0  0  0  0  0  0
  130.6130  119.3110   61.3060 C   0  0  0  0  0  0  0  0  0  0  0  0
  129.4670  120.0830   61.1310 C   0  0  0  0  0  0  0  0  0  0  0  0
  129.5680  121.3980   60.6660 C   0  0  0  0  0  0  0  0  0  0  0  0
  128.3410  122.2310   60.4780 C   0  0  0  0  0  0  0  0  0  0  0  0
  127.6430  122.8530   61.4030 N   0  0  0  0  0  0  0  0  0  0  0  0
  126.6560  123.4530   60.7560 C   0  0  0  0  0  0  0  0  0  0  0  0
  125.6170  124.2740   61.4960 C   0  0  0  0  0  0  0  0  0  0  0  0
  126.1320  125.7140   61.6520 N   0  0  0  0  0  0  0  0  0  0  0  0
  127.1960  126.1020   60.6170 C   0  0  0  0  0  0  0  0  0  0  0  0
  126.7570  123.1780   59.3970 C   0  0  0  0  0  0  0  0  0  0  0  0
  125.9680  123.5440   58.1640 C   0  0  0  0  0  0  0  0  0  0  0  0
  127.8460  122.3920   59.2240 O   0  0  0  0  0  0  0  0  0  0  0  0
  130.8320  121.9280   60.3810 C   0  0  0  0  0  0  0  0  0  0  0  0
  131.9760  121.1560   60.5580 C   0  0  0  0  0  0  0  0  0  0  0  0
  135.3628  117.7669   60.1164 H   0  0  0  0  0  0  0  0  0  0  0  0
  133.9571  118.2777   59.1215 H   0  0  0  0  0  0  0  0  0  0  0  0
  135.4615  119.2593   59.1215 H   0  0  0  0  0  0  0  0  0  0  0  0
  134.9218  119.3193   61.7838 H   0  0  0  0  0  0  0  0  0  0  0  0
  134.2352  120.5171   60.6426 H   0  0  0  0  0  0  0  0  0  0  0  0
  130.5228  118.2772   61.6709 H   0  0  0  0  0  0  0  0  0  0  0  0
  128.4790  119.6568   61.3594 H   0  0  0  0  0  0  0  0  0  0  0  0
  124.6766  124.2789   60.9254 H   0  0  0  0  0  0  0  0  0  0  0  0
  125.4361  123.8354   62.4884 H   0  0  0  0  0  0  0  0  0  0  0  0
  125.3510  126.3500   61.5750 H   0  0  0  0  0  0  0  0  0  0  0  0
  126.5240  125.8160   62.5780 H   0  0  0  0  0  0  0  0  0  0  0  0
  128.1076  126.4344   61.1352 H   0  0  0  0  0  0  0  0  0  0  0  0
  127.4293  125.2311   59.9869 H   0  0  0  0  0  0  0  0  0  0  0  0
  126.8139  126.9187   59.9869 H   0  0  0  0  0  0  0  0  0  0  0  0
  125.0075  123.9896   58.4622 H   0  0  0  0  0  0  0  0  0  0  0  0
  126.5386  124.2694   57.5655 H   0  0  0  0  0  0  0  0  0  0  0  0
  125.7827  122.6399   57.5655 H   0  0  0  0  0  0  0  0  0  0  0  0
  130.9214  122.9614   60.0148 H   0  0  0  0  0  0  0  0  0  0  0  0
  132.9646  121.5823   60.3324 H   0  0  0  0  0  0  0  0  0  0  0  0
  1  2  1  0
  2  3  1  0
  3  4  1  0
  4  5  2  0
  5  6  1  0
  6  7  2  0
  7  8  1  0
  8  9  2  0
  9 10  1  0
 10 11  1  0
 11 12  1  0
 12 13  1  0
 10 14  2  0
 14 15  1  0
 14 16  1  0
  7 17  1  0
 17 18  2  0
 18  4  1  0
 16  8  1  0
  1 19  1  0
  1 20  1  0
  1 21  1  0
  2 22  1  0
  2 23  1  0
  5 24  1  0
  6 25  1  0
 11 26  1  0
 11 27  1  0
 12 28  1  0
 12 29  1  0
 13 30  1  0
 13 31  1  0
 13 32  1  0
 15 33  1  0
 15 34  1  0
 15 35  1  0
 17 36  1  0
 18 37  1  0
M  CHG  1  12   1
M  END
>  <Binding energies>  (1) 
[-6.26]

>  <Ligand effiencies>  (1) 
[-0.313]

>  <Interactions>  (1) 
["V-A:PRO:482:CG:4326, H-B:ASP:366:OD2:8186, V-B:TYR:539:CE2:9847, V-B:PRO:540:CA:9854, V-B:TYR:539:CD2:9845, V-B:PRO:540:CB:9856, V-B:ALA:541:CB:9863, V-B:TYR:539:C:9838, V-A:LEU:475:CD2:4258, H-B:GLU:543:OE2:9881, V-B:PRO:540:N:9855, V-B:ALA:541:CA:9861, H-B:ALA:541:N:9862, V-A:PRO:482:CB:4325, V-A:ILE:369:CG2:3236, V-B:GLU:543:CD:9879, V-B:PRO:540:C:9852, V-A:TRP:381:CH2:3371, V-A:TRP:381:CZ2:3369, H-B:ASP:366:OD1:8185, V-A:SER:385:C:3404, V-A:SER:385:CA:3406, V-A:SER:385:CB:3408"]

$$$$
RR3_Rahimova_2017
     RDKit          3D

 63 69  0  0  0  0  0  0  0  0999 V2000
  131.1230  121.5540   61.6670 C   0  0  0  0  0  0  0  0  0  0  0  0
  132.0990  121.9620   62.5700 C   0  0  0  0  0  0  0  0  0  0  0  0
  131.7830  122.8960   63.5520 C   0  0  0  0  0  0  0  0  0  0  0  0
  130.4900  123.4330   63.6450 C   0  0  0  0  0  0  0  0  0  0  0  0
  130.1510  124.4360   64.7030 C   0  0  0  0  0  0  0  0  0  0  0  0
  129.8670  124.0330   66.0150 C   0  0  0  0  0  0  0  0  0  0  0  0
  129.5480  124.9660   66.9970 C   0  0  0  0  0  0  0  0  0  0  0  0
  129.4990  126.3280   66.6870 C   0  0  0  0  0  0  0  0  0  0  0  0
  129.1520  127.3360   67.7370 C   0  0  0  0  0  0  0  0  0  0  0  0
  129.6570  127.2220   68.9610 N   0  0  0  0  0  0  0  0  0  0  0  0
  129.2230  128.2550   69.6430 C   0  0  0  0  0  0  0  0  0  0  0  0
  129.5350  128.5300   71.0420 C   0  0  0  0  0  0  0  0  0  0  0  0
  130.2880  127.7230   71.8780 C   0  0  0  0  0  0  0  0  0  0  0  0
  130.3880  128.2920   73.1210 N   0  0  0  0  0  0  0  0  0  0  0  0
  129.7040  129.4870   73.1460 C   0  0  0  0  0  0  0  0  0  0  0  0
  129.5220  130.4150   74.1770 C   0  0  0  0  0  0  0  0  0  0  0  0
  128.7630  131.5470   73.8840 C   0  0  0  0  0  0  0  0  0  0  0  0
  128.2080  131.7530   72.6260 C   0  0  0  0  0  0  0  0  0  0  0  0
  128.3900  130.8300   71.5970 C   0  0  0  0  0  0  0  0  0  0  0  0
  129.1470  129.6700   71.8410 C   0  0  0  0  0  0  0  0  0  0  0  0
  128.4220  129.0500   68.8700 N   0  0  0  0  0  0  0  0  0  0  0  0
  128.3330  128.4730   67.6290 C   0  0  0  0  0  0  0  0  0  0  0  0
  127.4890  129.0350   66.5330 C   0  0  0  0  0  0  0  0  0  0  0  0
  128.0270  129.2180   65.2580 C   0  0  0  0  0  0  0  0  0  0  0  0
  127.2470  129.7530   64.2380 C   0  0  0  0  0  0  0  0  0  0  0  0
  125.9110  130.1140   64.4650 C   0  0  0  0  0  0  0  0  0  0  0  0
  125.0810  130.7070   63.3700 C   0  0  0  0  0  0  0  0  0  0  0  0
  124.3220  131.8660   63.5910 C   0  0  0  0  0  0  0  0  0  0  0  0
  123.5530  132.4210   62.5700 C   0  0  0  0  0  0  0  0  0  0  0  0
  123.5360  131.8210   61.3150 C   0  0  0  0  0  0  0  0  0  0  0  0
  124.2830  130.6720   61.0740 C   0  0  0  0  0  0  0  0  0  0  0  0
  125.0490  130.1190   62.0970 C   0  0  0  0  0  0  0  0  0  0  0  0
  125.3780  129.9090   65.7450 C   0  0  0  0  0  0  0  0  0  0  0  0
  126.1550  129.3740   66.7680 C   0  0  0  0  0  0  0  0  0  0  0  0
  129.7930  126.7410   65.3860 C   0  0  0  0  0  0  0  0  0  0  0  0
  130.1110  125.8050   64.4060 C   0  0  0  0  0  0  0  0  0  0  0  0
  129.5220  123.0070   62.7240 C   0  0  0  0  0  0  0  0  0  0  0  0
  129.8350  122.0720   61.7400 C   0  0  0  0  0  0  0  0  0  0  0  0
  131.3719  120.8164   60.8898 H   0  0  0  0  0  0  0  0  0  0  0  0
  133.1163  121.5482   62.5082 H   0  0  0  0  0  0  0  0  0  0  0  0
  132.5569  123.2175   64.2646 H   0  0  0  0  0  0  0  0  0  0  0  0
  129.8967  122.9639   66.2722 H   0  0  0  0  0  0  0  0  0  0  0  0
  129.3334  124.6299   68.0222 H   0  0  0  0  0  0  0  0  0  0  0  0
  130.7406  126.7637   71.5867 H   0  0  0  0  0  0  0  0  0  0  0  0
  130.9000  127.8600   73.8760 H   0  0  0  0  0  0  0  0  0  0  0  0
  129.9584  130.2584   75.1745 H   0  0  0  0  0  0  0  0  0  0  0  0
  128.5986  132.2985   74.6703 H   0  0  0  0  0  0  0  0  0  0  0  0
  127.6148  132.6603   72.4392 H   0  0  0  0  0  0  0  0  0  0  0  0
  127.9467  131.0069   70.6059 H   0  0  0  0  0  0  0  0  0  0  0  0
  127.9570  129.8950   69.1680 H   0  0  0  0  0  0  0  0  0  0  0  0
  129.0720  128.9380   65.0591 H   0  0  0  0  0  0  0  0  0  0  0  0
  127.6845  129.8950   63.2388 H   0  0  0  0  0  0  0  0  0  0  0  0
  124.3341  132.3425   64.5824 H   0  0  0  0  0  0  0  0  0  0  0  0
  122.9618  133.3299   62.7556 H   0  0  0  0  0  0  0  0  0  0  0  0
  122.9285  132.2574   60.5085 H   0  0  0  0  0  0  0  0  0  0  0  0
  124.2685  130.2024   60.0794 H   0  0  0  0  0  0  0  0  0  0  0  0
  125.6366  129.2093   61.9043 H   0  0  0  0  0  0  0  0  0  0  0  0
  124.3294  130.1751   65.9440 H   0  0  0  0  0  0  0  0  0  0  0  0
  125.7169  129.2177   67.7648 H   0  0  0  0  0  0  0  0  0  0  0  0
  129.7732  127.8116   65.1342 H   0  0  0  0  0  0  0  0  0  0  0  0
  130.3341  126.1447   63.3838 H   0  0  0  0  0  0  0  0  0  0  0  0
  128.5025  123.4164   62.7793 H   0  0  0  0  0  0  0  0  0  0  0  0
  129.0666  121.7450   61.0240 H   0  0  0  0  0  0  0  0  0  0  0  0
  1  2  2  0
  2  3  1  0
  3  4  2  0
  4  5  1  0
  5  6  2  0
  6  7  1  0
  7  8  2  0
  8  9  1  0
  9 10  1  0
 10 11  2  0
 11 12  1  0
 12 13  2  0
 13 14  1  0
 14 15  1  0
 15 16  2  0
 16 17  1  0
 17 18  2  0
 18 19  1  0
 19 20  2  0
 11 21  1  0
 21 22  1  0
 22 23  1  0
 23 24  2  0
 24 25  1  0
 25 26  2  0
 26 27  1  0
 27 28  2  0
 28 29  1  0
 29 30  2  0
 30 31  1  0
 31 32  2  0
 26 33  1  0
 33 34  2  0
  8 35  1  0
 35 36  2  0
  4 37  1  0
 37 38  2  0
 38  1  1  0
 36  5  1  0
 22  9  2  0
 34 23  1  0
 20 12  1  0
 32 27  1  0
 20 15  1  0
  1 39  1  0
  2 40  1  0
  3 41  1  0
  6 42  1  0
  7 43  1  0
 13 44  1  0
 14 45  1  0
 16 46  1  0
 17 47  1  0
 18 48  1  0
 19 49  1  0
 21 50  1  0
 24 51  1  0
 25 52  1  0
 28 53  1  0
 29 54  1  0
 30 55  1  0
 31 56  1  0
 32 57  1  0
 33 58  1  0
 34 59  1  0
 35 60  1  0
 36 61  1  0
 37 62  1  0
 38 63  1  0
M  END
>  <Binding energies>  (1) 
[-9.56]

>  <Ligand effiencies>  (1) 
[-0.23900000000000002]

>  <Interactions>  (1) 
["V-B:ALA:541:CB:9863, V-A:LEU:475:CD2:4258, V-A:GLU:543:CD:4908, V-A:GLU:543:CG:4907, V-A:GLU:543:CB:4906, V-B:HIS:456:CE1:9041, V-B:GLU:543:CB:9877, V-A:TYR:484:CZ:4346, V-A:HIS:456:CE1:4069, V-B:HIS:456:CG:9037, V-B:GLU:543:CG:9878, V-B:HIS:456:CD2:9039, V-B:TYR:484:CE1:9316, V-B:TYR:484:CD1:9314, V-B:GLU:543:CD:9879, V-A:TYR:484:CE1:4344, V-B:GLY:454:CA:9020, V-B:ILE:369:CB:8207, V-B:ASP:366:CB:8183, V-B:ILE:369:CG2:8208, V-B:ASP:366:CG:8184, H-B:TYR:484:OH:9319, V-B:ILE:369:CD1:8210, H-B:HIS:456:NE2:9042, V-B:TYR:484:CG:9313, V-A:LYS:547:CE:4950"]

$$$$
RR4_Rahimova_2017
     RDKit          3D

 66 70  0  0  0  0  0  0  0  0999 V2000
  129.8690  125.0200   74.3030 C   0  0  0  0  0  0  0  0  0  0  0  0
  128.8150  125.8200   73.7790 O   0  0  0  0  0  0  0  0  0  0  0  0
  128.8460  126.1870   72.4470 C   0  0  0  0  0  0  0  0  0  0  0  0
  128.0420  125.4540   71.5770 C   0  0  0  0  0  0  0  0  0  0  0  0
  128.0080  125.7530   70.2190 C   0  0  0  0  0  0  0  0  0  0  0  0
  128.7820  126.7960   69.6880 C   0  0  0  0  0  0  0  0  0  0  0  0
  128.7440  127.1150   68.2210 C   0  0  0  0  0  0  0  0  0  0  0  0
  127.9500  128.1350   67.6880 C   0  0  0  0  0  0  0  0  0  0  0  0
  127.9520  128.3980   66.3120 C   0  0  0  0  0  0  0  0  0  0  0  0
  127.0990  129.5210   65.8190 C   0  0  0  0  0  0  0  0  0  0  0  0
  125.7590  129.2940   65.4930 C   0  0  0  0  0  0  0  0  0  0  0  0
  124.9540  130.3380   65.0450 C   0  0  0  0  0  0  0  0  0  0  0  0
  125.4700  131.6280   64.9190 C   0  0  0  0  0  0  0  0  0  0  0  0
  124.5980  132.5990   64.4670 O   0  0  0  0  0  0  0  0  0  0  0  0
  124.1990  132.5930   63.1000 C   0  0  0  0  0  0  0  0  0  0  0  0
  126.8130  131.8610   65.2500 C   0  0  0  0  0  0  0  0  0  0  0  0
  127.6160  130.8160   65.6980 C   0  0  0  0  0  0  0  0  0  0  0  0
  128.7550  127.5880   65.4720 C   0  0  0  0  0  0  0  0  0  0  0  0
  128.7960  127.8200   64.0250 C   0  0  0  0  0  0  0  0  0  0  0  0
  128.8280  128.0030   62.8830 N   0  0  0  0  0  0  0  0  0  0  0  0
  129.5110  126.5560   66.0740 C   0  0  0  0  0  0  0  0  0  0  0  0
  130.5630  125.4370   65.1740 S   0  0  0  0  0  0  0  0  0  0  0  0
  129.5470  124.0140   64.6540 C   0  0  0  0  0  0  0  0  0  0  0  0
  129.2550  123.9570   63.1480 C   0  0  0  0  0  0  0  0  0  0  0  0
  130.1770  123.9840   62.3300 O   0  0  0  0  0  0  0  0  0  0  0  0
  127.9410  123.8920   62.8280 N   0  0  0  0  0  0  0  0  0  0  0  0
  127.3590  123.8270   61.5600 C   0  0  0  0  0  0  0  0  0  0  0  0
  126.0100  124.8240   61.0830 S   0  0  0  0  0  0  0  0  0  0  0  0
  125.9690  124.1100   59.5000 C   0  0  0  0  0  0  0  0  0  0  0  0
  126.9640  123.1310   59.3500 C   0  0  0  0  0  0  0  0  0  0  0  0
  127.7600  122.9830   60.5120 C   0  0  0  0  0  0  0  0  0  0  0  0
  128.8740  122.0450   60.6100 C   0  0  0  0  0  0  0  0  0  0  0  0
  129.7570  121.3010   60.6870 N   0  0  0  0  0  0  0  0  0  0  0  0
  127.1580  122.3810   58.0270 C   0  0  0  0  0  0  0  0  0  0  0  0
  126.4370  123.1140   56.8740 C   0  0  0  0  0  0  0  0  0  0  0  0
  125.0100  123.5410   57.2600 C   0  0  0  0  0  0  0  0  0  0  0  0
  125.0050  124.5670   58.4130 C   0  0  0  0  0  0  0  0  0  0  0  0
  129.5150  126.3450   67.4110 N   0  0  0  0  0  0  0  0  0  0  0  0
  129.5870  127.5310   70.5730 C   0  0  0  0  0  0  0  0  0  0  0  0
  129.6230  127.2340   71.9320 C   0  0  0  0  0  0  0  0  0  0  0  0
  129.8364  125.0447   75.4022 H   0  0  0  0  0  0  0  0  0  0  0  0
  129.7496  123.9831   73.9559 H   0  0  0  0  0  0  0  0  0  0  0  0
  130.8356  125.4139   73.9559 H   0  0  0  0  0  0  0  0  0  0  0  0
  127.4274  124.6298   71.9682 H   0  0  0  0  0  0  0  0  0  0  0  0
  127.3641  125.1624   69.5507 H   0  0  0  0  0  0  0  0  0  0  0  0
  127.3170  128.7374   68.3562 H   0  0  0  0  0  0  0  0  0  0  0  0
  125.3371  128.2829   65.5911 H   0  0  0  0  0  0  0  0  0  0  0  0
  123.9021  130.1440   64.7882 H   0  0  0  0  0  0  0  0  0  0  0  0
  123.1008  132.5765   63.0386 H   0  0  0  0  0  0  0  0  0  0  0  0
  124.5805  133.4970   62.6027 H   0  0  0  0  0  0  0  0  0  0  0  0
  124.6075  131.7009   62.6027 H   0  0  0  0  0  0  0  0  0  0  0  0
  127.2331  132.8732   65.1552 H   0  0  0  0  0  0  0  0  0  0  0  0
  128.6668  131.0098   65.9594 H   0  0  0  0  0  0  0  0  0  0  0  0
  130.0766  123.0922   64.9364 H   0  0  0  0  0  0  0  0  0  0  0  0
  128.5750  124.1229   65.1573 H   0  0  0  0  0  0  0  0  0  0  0  0
  127.2890  123.8770   63.5980 H   0  0  0  0  0  0  0  0  0  0  0  0
  128.2327  122.3203   57.8004 H   0  0  0  0  0  0  0  0  0  0  0  0
  126.7317  121.3718   58.1263 H   0  0  0  0  0  0  0  0  0  0  0  0
  127.0155  124.0109   56.6077 H   0  0  0  0  0  0  0  0  0  0  0  0
  126.3637  122.4186   56.0249 H   0  0  0  0  0  0  0  0  0  0  0  0
  124.5244  123.9914   56.3818 H   0  0  0  0  0  0  0  0  0  0  0  0
  124.4679  122.6461   57.5994 H   0  0  0  0  0  0  0  0  0  0  0  0
  125.3206  125.5493   58.0317 H   0  0  0  0  0  0  0  0  0  0  0  0
  123.9904  124.6459   58.8307 H   0  0  0  0  0  0  0  0  0  0  0  0
  130.2008  128.3572   70.1847 H   0  0  0  0  0  0  0  0  0  0  0  0
  130.2636  127.8231   72.6048 H   0  0  0  0  0  0  0  0  0  0  0  0
  1  2  1  0
  2  3  1  0
  3  4  2  0
  4  5  1  0
  5  6  2  0
  6  7  1  0
  7  8  2  0
  8  9  1  0
  9 10  1  0
 10 11  2  0
 11 12  1  0
 12 13  2  0
 13 14  1  0
 14 15  1  0
 13 16  1  0
 16 17  2  0
  9 18  2  0
 18 19  1  0
 19 20  3  0
 18 21  1  0
 21 22  1  0
 22 23  1  0
 23 24  1  0
 24 25  2  0
 24 26  1  0
 26 27  1  0
 27 28  1  0
 28 29  1  0
 29 30  2  0
 30 31  1  0
 31 32  1  0
 32 33  3  0
 30 34  1  0
 34 35  1  0
 35 36  1  0
 36 37  1  0
 21 38  2  0
  6 39  1  0
 39 40  2  0
 40  3  1  0
 38  7  1  0
 17 10  1  0
 31 27  2  0
 37 29  1  0
  1 41  1  0
  1 42  1  0
  1 43  1  0
  4 44  1  0
  5 45  1  0
  8 46  1  0
 11 47  1  0
 12 48  1  0
 15 49  1  0
 15 50  1  0
 15 51  1  0
 16 52  1  0
 17 53  1  0
 23 54  1  0
 23 55  1  0
 26 56  1  0
 34 57  1  0
 34 58  1  0
 35 59  1  0
 35 60  1  0
 36 61  1  0
 36 62  1  0
 37 63  1  0
 37 64  1  0
 39 65  1  0
 40 66  1  0
M  END
>  <Binding energies>  (1) 
[-11.26]

>  <Ligand effiencies>  (1) 
[-0.27463414634146344]

>  <Interactions>  (1) 
["V-B:TYR:539:CE2:9847, V-B:PRO:540:CA:9854, V-B:TYR:539:CD2:9845, V-B:LEU:363:CD1:8160, V-B:PRO:540:CD:9858, V-B:PRO:540:CB:9856, V-B:ALA:541:CB:9863, V-B:TYR:539:C:9838, H-B:GLU:543:OE2:9881, V-B:PRO:540:N:9855, V-A:GLU:543:CD:4908, V-A:GLU:543:CG:4907, V-B:HIS:456:CE1:9041, V-B:GLU:543:CB:9877, V-A:HIS:456:CE1:4069, V-B:GLU:543:CG:9878, V-B:GLU:543:CD:9879, V-A:HIS:456:CD2:4067, V-B:LEU:475:CD1:9229, V-B:GLY:454:CA:9020, V-B:ARG:545:CZ:9897, H-B:GLY:454:N:9021, V-B:ILE:369:CD1:8210, H-B:LYS:547:NZ:9922, V-B:LYS:547:CE:9921, V-B:GLU:543:C:9873, V-B:GLY:544:C:9883"]

$$$$
RR5_Rahimova_2017
     RDKit          3D

 77 82  0  0  0  0  0  0  0  0999 V2000
  131.2000  122.5390   63.3290 O   0  0  0  0  0  0  0  0  0  0  0  0
  130.5440  123.5680   63.1730 C   0  0  0  0  0  0  0  0  0  0  0  0
  130.3460  124.5330   64.3580 C   0  0  0  0  0  0  0  0  0  0  0  0
  131.5240  125.5530   64.5540 C   0  0  2  0  0  0  0  0  0  0  0  0
  131.2790  126.9020   64.0060 N   0  0  0  0  0  0  0  0  0  0  0  0
  131.0590  127.1080   62.6510 C   0  0  0  0  0  0  0  0  0  0  0  0
  130.9940  126.2410   61.7760 O   0  0  0  0  0  0  0  0  0  0  0  0
  130.9410  128.4290   62.4360 O   0  0  0  0  0  0  0  0  0  0  0  0
  130.8350  128.9620   61.1190 C   0  0  0  0  0  0  0  0  0  0  0  0
  131.1960  130.4640   61.1040 C   0  0  0  0  0  0  0  0  0  0  0  0
  131.4780  131.0080   59.7150 C   0  0  0  0  0  0  0  0  0  0  0  0
  132.4290  130.5990   58.7760 C   0  0  0  0  0  0  0  0  0  0  0  0
  132.4990  131.2350   57.5350 C   0  0  0  0  0  0  0  0  0  0  0  0
  131.6240  132.2790   57.2320 C   0  0  0  0  0  0  0  0  0  0  0  0
  130.6750  132.6910   58.1690 C   0  0  0  0  0  0  0  0  0  0  0  0
  130.6070  132.0540   59.4100 C   0  0  0  0  0  0  0  0  0  0  0  0
  129.7290  132.2820   60.5680 C   0  0  0  0  0  0  0  0  0  0  0  0
  128.7060  133.2100   60.7780 C   0  0  0  0  0  0  0  0  0  0  0  0
  128.0320  133.2290   62.0000 C   0  0  0  0  0  0  0  0  0  0  0  0
  128.3770  132.3230   63.0050 C   0  0  0  0  0  0  0  0  0  0  0  0
  129.3970  131.3960   62.7900 C   0  0  0  0  0  0  0  0  0  0  0  0
  130.0720  131.3710   61.5680 C   0  0  0  0  0  0  0  0  0  0  0  0
  132.8440  124.9860   63.9750 C   0  0  0  0  0  0  0  0  0  0  0  0
  133.4610  125.4780   63.0510 O   0  0  0  0  0  0  0  0  0  0  0  0
  133.2100  123.8710   64.6730 O   0  0  0  0  0  0  0  0  0  0  0  0
  129.9850  123.9580   62.0050 N   0  0  0  0  0  0  0  0  0  0  0  0
  129.9300  123.3530   60.6410 C   0  0  0  0  0  0  0  0  0  0  0  0
  128.4190  123.5250   60.2680 C   0  0  0  0  0  0  0  0  0  0  0  0
  127.9080  123.0580   59.0450 C   0  0  0  0  0  0  0  0  0  0  0  0
  126.5620  123.2150   58.7250 C   0  0  0  0  0  0  0  0  0  0  0  0
  125.7070  123.8520   59.6170 C   0  0  0  0  0  0  0  0  0  0  0  0
  126.1850  124.3240   60.8340 C   0  0  0  0  0  0  0  0  0  0  0  0
  127.5280  124.1570   61.1580 C   0  0  0  0  0  0  0  0  0  0  0  0
  130.8770  124.1930   59.7190 C   0  0  0  0  0  0  0  0  0  0  0  0
  132.2640  124.2350   59.9300 C   0  0  0  0  0  0  0  0  0  0  0  0
  133.0860  125.0050   59.1090 C   0  0  0  0  0  0  0  0  0  0  0  0
  132.5300  125.7430   58.0700 C   0  0  0  0  0  0  0  0  0  0  0  0
  131.1590  125.7140   57.8390 C   0  0  0  0  0  0  0  0  0  0  0  0
  130.3410  124.9380   58.6540 C   0  0  0  0  0  0  0  0  0  0  0  0
  130.3470  121.8540   60.8120 C   0  0  0  0  0  0  0  0  0  0  0  0
  131.6790  121.4450   60.6130 C   0  0  0  0  0  0  0  0  0  0  0  0
  132.0540  120.1120   60.7570 C   0  0  0  0  0  0  0  0  0  0  0  0
  131.1030  119.1620   61.1090 C   0  0  0  0  0  0  0  0  0  0  0  0
  129.7830  119.5370   61.3260 C   0  0  0  0  0  0  0  0  0  0  0  0
  129.4110  120.8710   61.1820 C   0  0  0  0  0  0  0  0  0  0  0  0
  129.4199  125.1022   64.1897 H   0  0  0  0  0  0  0  0  0  0  0  0
  130.3042  123.9160   65.2677 H   0  0  0  0  0  0  0  0  0  0  0  0
  131.6039  125.6807   65.6436 H   0  0  0  0  0  0  0  0  0  0  0  0
  131.4450  127.6980   64.6040 H   0  0  0  0  0  0  0  0  0  0  0  0
  131.5228  128.4192   60.4539 H   0  0  0  0  0  0  0  0  0  0  0  0
  129.7970  128.8456   60.7742 H   0  0  0  0  0  0  0  0  0  0  0  0
  132.0718  130.4818   61.7694 H   0  0  0  0  0  0  0  0  0  0  0  0
  133.1209  129.7777   59.0142 H   0  0  0  0  0  0  0  0  0  0  0  0
  133.2456  130.9124   56.7944 H   0  0  0  0  0  0  0  0  0  0  0  0
  131.6822  132.7779   56.2534 H   0  0  0  0  0  0  0  0  0  0  0  0
  129.9841  133.5133   57.9312 H   0  0  0  0  0  0  0  0  0  0  0  0
  128.4333  133.9216   59.9848 H   0  0  0  0  0  0  0  0  0  0  0  0
  127.2274  133.9591   62.1718 H   0  0  0  0  0  0  0  0  0  0  0  0
  127.8440  132.3403   63.9671 H   0  0  0  0  0  0  0  0  0  0  0  0
  129.6696  130.6845   63.5834 H   0  0  0  0  0  0  0  0  0  0  0  0
  132.4530  123.3520   64.9520 H   0  0  0  0  0  0  0  0  0  0  0  0
  129.4000  124.7770   62.0820 H   0  0  0  0  0  0  0  0  0  0  0  0
  128.5809  122.5614   58.3304 H   0  0  0  0  0  0  0  0  0  0  0  0
  126.1757  122.8354   57.7676 H   0  0  0  0  0  0  0  0  0  0  0  0
  124.6460  123.9833   59.3583 H   0  0  0  0  0  0  0  0  0  0  0  0
  125.5051  124.8270   61.5374 H   0  0  0  0  0  0  0  0  0  0  0  0
  127.9004  124.5247   62.1255 H   0  0  0  0  0  0  0  0  0  0  0  0
  132.7071  123.6539   60.7522 H   0  0  0  0  0  0  0  0  0  0  0  0
  134.1720  125.0288   59.2826 H   0  0  0  0  0  0  0  0  0  0  0  0
  133.1794  126.3543   57.4260 H   0  0  0  0  0  0  0  0  0  0  0  0
  130.7239  126.3011   57.0168 H   0  0  0  0  0  0  0  0  0  0  0  0
  129.2583  124.9069   58.4622 H   0  0  0  0  0  0  0  0  0  0  0  0
  132.4379  122.1925   60.3386 H   0  0  0  0  0  0  0  0  0  0  0  0
  133.0994  119.8119   60.5927 H   0  0  0  0  0  0  0  0  0  0  0  0
  131.3969  118.1074   61.2164 H   0  0  0  0  0  0  0  0  0  0  0  0
  129.0345  118.7828   61.6105 H   0  0  0  0  0  0  0  0  0  0  0  0
  128.3653  121.1618   61.3609 H   0  0  0  0  0  0  0  0  0  0  0  0
  1  2  2  0
  2  3  1  0
  3  4  1  0
  4  5  1  0
  5  6  1  0
  6  7  2  0
  6  8  1  0
  8  9  1  0
  9 10  1  0
 10 11  1  0
 11 12  2  0
 12 13  1  0
 13 14  2  0
 14 15  1  0
 15 16  2  0
 16 17  1  0
 17 18  2  0
 18 19  1  0
 19 20  2  0
 20 21  1  0
 21 22  2  0
  4 23  1  0
 23 24  2  0
 23 25  1  0
  2 26  1  0
 26 27  1  0
 27 28  1  0
 28 29  2  0
 29 30  1  0
 30 31  2  0
 31 32  1  0
 32 33  2  0
 27 34  1  0
 34 35  2  0
 35 36  1  0
 36 37  2  0
 37 38  1  0
 38 39  2  0
 27 40  1  0
 40 41  2  0
 41 42  1  0
 42 43  2  0
 43 44  1  0
 44 45  2  0
 22 10  1  0
 33 28  1  0
 39 34  1  0
 45 40  1  0
 16 11  1  0
 22 17  1  0
  3 46  1  0
  3 47  1  0
  4 48  1  1
  5 49  1  0
  9 50  1  0
  9 51  1  0
 10 52  1  0
 12 53  1  0
 13 54  1  0
 14 55  1  0
 15 56  1  0
 18 57  1  0
 19 58  1  0
 20 59  1  0
 21 60  1  0
 25 61  1  0
 26 62  1  0
 29 63  1  0
 30 64  1  0
 31 65  1  0
 32 66  1  0
 33 67  1  0
 35 68  1  0
 36 69  1  0
 37 70  1  0
 38 71  1  0
 39 72  1  0
 41 73  1  0
 42 74  1  0
 43 75  1  0
 44 76  1  0
 45 77  1  0
M  END
>  <Binding energies>  (1) 
[-10.43]

>  <Ligand effiencies>  (1) 
[-0.21729166666666666]

>  <Interactions>  (1) 
["V-A:PRO:482:CG:4326, V-B:TYR:539:CE2:9847, V-B:PRO:540:CA:9854, V-B:TYR:539:CD2:9845, V-B:PRO:540:CB:9856, V-B:ALA:541:CB:9863, V-A:LEU:475:CD2:4258, V-B:PRO:540:N:9855, V-B:ALA:541:CA:9861, V-A:PRO:482:CB:4325, V-B:TYR:539:CZ:9848, H-A:ARG:545:NH2:4928, H-A:GLY:454:N:4049, H-A:ARG:545:NH1:4927, V-A:ASP:366:CG:3212, V-A:ASP:366:CB:3211, V-A:ASP:366:CA:3209, V-A:ILE:369:CG2:3236, H-A:TYR:484:OH:4347, H-A:GLU:543:OE2:4910, V-A:ARG:545:CZ:4926, V-A:GLU:543:CD:4908, V-A:ASP:366:C:3207, V-A:PRO:540:N:4884, V-A:LEU:363:CD1:3188, V-A:TYR:539:C:4867, V-A:PRO:540:CA:4883, V-A:TYR:531:CE2:4793, V-B:PRO:540:C:9852, H-A:GLU:543:OE1:4909, V-A:ALA:541:CB:4892, V-A:TRP:381:CH2:3371, V-A:TRP:381:CZ2:3369, V-A:TRP:381:CZ3:3370"]

$$$$
RR5_Rahimova_2017-again1
     RDKit          3D

 76 81  0  0  0  0  0  0  0  0999 V2000
  130.6100  126.4530   61.6560 O   0  0  0  0  0  0  0  0  0  0  0  0
  130.8670  125.5570   62.4600 C   0  0  0  0  0  0  0  0  0  0  0  0
  131.3350  125.9430   63.8780 C   0  0  0  0  0  0  0  0  0  0  0  0
  132.0590  124.8310   64.7060 C   0  0  2  0  0  0  0  0  0  0  0  0
  131.4730  124.7780   66.0620 N   0  0  0  0  0  0  0  0  0  0  0  0
  130.0980  124.7490   66.2620 C   0  0  0  0  0  0  0  0  0  0  0  0
  129.2270  124.7850   65.3880 O   0  0  0  0  0  0  0  0  0  0  0  0
  129.8560  124.6740   67.5850 O   0  0  0  0  0  0  0  0  0  0  0  0
  129.0570  125.6540   68.2390 C   0  0  0  0  0  0  0  0  0  0  0  0
  129.6730  127.0530   68.0480 C   0  0  0  0  0  0  0  0  0  0  0  0
  128.8190  127.9800   67.2010 C   0  0  0  0  0  0  0  0  0  0  0  0
  128.3860  127.8350   65.8810 C   0  0  0  0  0  0  0  0  0  0  0  0
  127.5850  128.8190   65.2980 C   0  0  0  0  0  0  0  0  0  0  0  0
  127.2200  129.9510   66.0310 C   0  0  0  0  0  0  0  0  0  0  0  0
  127.6570  130.1020   67.3480 C   0  0  0  0  0  0  0  0  0  0  0  0
  128.4570  129.1160   67.9290 C   0  0  0  0  0  0  0  0  0  0  0  0
  129.0570  129.0220   69.2680 C   0  0  0  0  0  0  0  0  0  0  0  0
  129.0090  129.8920   70.3590 C   0  0  0  0  0  0  0  0  0  0  0  0
  129.6910  129.5660   71.5330 C   0  0  0  0  0  0  0  0  0  0  0  0
  130.4170  128.3770   71.6140 C   0  0  0  0  0  0  0  0  0  0  0  0
  130.4620  127.5080   70.5220 C   0  0  0  0  0  0  0  0  0  0  0  0
  129.7770  127.8300   69.3460 C   0  0  0  0  0  0  0  0  0  0  0  0
  133.6250  125.0490   64.7490 C   0  0  0  0  0  0  0  0  0  0  0  0
  134.1070  125.1090   65.9050 O   0  0  0  0  0  0  0  0  0  0  0  0
  134.2210  125.0980   63.6460 O   0  0  0  0  0  0  0  0  0  0  0  0
  130.6410  124.2510   62.2000 N   0  0  0  0  0  0  0  0  0  0  0  0
  130.1770  123.6030   60.9470 C   0  0  0  0  0  0  0  0  0  0  0  0
  130.4880  122.0730   60.9880 C   0  0  0  0  0  0  0  0  0  0  0  0
  131.7790  121.5900   60.7110 C   0  0  0  0  0  0  0  0  0  0  0  0
  132.0620  120.2280   60.7600 C   0  0  0  0  0  0  0  0  0  0  0  0
  131.0560  119.3270   61.0910 C   0  0  0  0  0  0  0  0  0  0  0  0
  129.7700  119.7780   61.3730 C   0  0  0  0  0  0  0  0  0  0  0  0
  129.4890  121.1410   61.3240 C   0  0  0  0  0  0  0  0  0  0  0  0
  128.6360  123.6580   60.6990 C   0  0  0  0  0  0  0  0  0  0  0  0
  127.7650  124.1650   61.6790 C   0  0  0  0  0  0  0  0  0  0  0  0
  126.3910  124.2150   61.4630 C   0  0  0  0  0  0  0  0  0  0  0  0
  125.8670  123.7630   60.2560 C   0  0  0  0  0  0  0  0  0  0  0  0
  126.7080  123.2660   59.2650 C   0  0  0  0  0  0  0  0  0  0  0  0
  128.0820  123.2170   59.4860 C   0  0  0  0  0  0  0  0  0  0  0  0
  131.0110  124.3050   59.8200 C   0  0  0  0  0  0  0  0  0  0  0  0
  130.3920  124.9960   58.7640 C   0  0  0  0  0  0  0  0  0  0  0  0
  131.1460  125.6300   57.7810 C   0  0  0  0  0  0  0  0  0  0  0  0
  132.5350  125.5940   57.8470 C   0  0  0  0  0  0  0  0  0  0  0  0
  133.1740  124.9380   58.8940 C   0  0  0  0  0  0  0  0  0  0  0  0
  132.4160  124.3040   59.8750 C   0  0  0  0  0  0  0  0  0  0  0  0
  132.0288  126.7910   63.7807 H   0  0  0  0  0  0  0  0  0  0  0  0
  130.4134  126.1650   64.4361 H   0  0  0  0  0  0  0  0  0  0  0  0
  131.9030  123.8613   64.2108 H   0  0  0  0  0  0  0  0  0  0  0  0
  132.0950  124.6950   66.8540 H   0  0  0  0  0  0  0  0  0  0  0  0
  128.0435  125.6413   67.8116 H   0  0  0  0  0  0  0  0  0  0  0  0
  129.0130  125.4238   69.3137 H   0  0  0  0  0  0  0  0  0  0  0  0
  130.6449  126.8195   67.5888 H   0  0  0  0  0  0  0  0  0  0  0  0
  128.6758  126.9463   65.3012 H   0  0  0  0  0  0  0  0  0  0  0  0
  127.2408  128.7027   64.2597 H   0  0  0  0  0  0  0  0  0  0  0  0
  126.5877  130.7240   65.5698 H   0  0  0  0  0  0  0  0  0  0  0  0
  127.3724  130.9938   67.9257 H   0  0  0  0  0  0  0  0  0  0  0  0
  128.4369  130.8293   70.2940 H   0  0  0  0  0  0  0  0  0  0  0  0
  129.6559  130.2477   72.3956 H   0  0  0  0  0  0  0  0  0  0  0  0
  130.9547  128.1239   72.5396 H   0  0  0  0  0  0  0  0  0  0  0  0
  131.0354  126.5715   70.5866 H   0  0  0  0  0  0  0  0  0  0  0  0
  130.9490  123.6010   62.9080 H   0  0  0  0  0  0  0  0  0  0  0  0
  132.5782  122.2998   60.4514 H   0  0  0  0  0  0  0  0  0  0  0  0
  133.0768  119.8661   60.5379 H   0  0  0  0  0  0  0  0  0  0  0  0
  131.2782  118.2504   61.1302 H   0  0  0  0  0  0  0  0  0  0  0  0
  128.9782  119.0603   61.6337 H   0  0  0  0  0  0  0  0  0  0  0  0
  128.4722  121.4938   61.5511 H   0  0  0  0  0  0  0  0  0  0  0  0
  128.1762  124.5282   62.6324 H   0  0  0  0  0  0  0  0  0  0  0  0
  125.7228  124.6098   62.2425 H   0  0  0  0  0  0  0  0  0  0  0  0
  124.7811  123.7987   60.0840 H   0  0  0  0  0  0  0  0  0  0  0  0
  126.2892  122.9133   58.3110 H   0  0  0  0  0  0  0  0  0  0  0  0
  128.7436  122.8269   58.6985 H   0  0  0  0  0  0  0  0  0  0  0  0
  129.2939  125.0363   58.7138 H   0  0  0  0  0  0  0  0  0  0  0  0
  130.6457  126.1573   56.9554 H   0  0  0  0  0  0  0  0  0  0  0  0
  133.1320  126.0876   57.0660 H   0  0  0  0  0  0  0  0  0  0  0  0
  134.2726  124.9202   58.9467 H   0  0  0  0  0  0  0  0  0  0  0  0
  132.9246  123.7941   60.7065 H   0  0  0  0  0  0  0  0  0  0  0  0
  1  2  2  0
  2  3  1  0
  3  4  1  0
  4  5  1  0
  5  6  1  0
  6  7  2  0
  6  8  1  0
  8  9  1  0
  9 10  1  0
 10 11  1  0
 11 12  2  0
 12 13  1  0
 13 14  2  0
 14 15  1  0
 15 16  2  0
 16 17  1  0
 17 18  2  0
 18 19  1  0
 19 20  2  0
 20 21  1  0
 21 22  2  0
  4 23  1  0
 23 24  2  0
 23 25  1  0
  2 26  1  0
 26 27  1  0
 27 28  1  0
 28 29  2  0
 29 30  1  0
 30 31  2  0
 31 32  1  0
 32 33  2  0
 27 34  1  0
 34 35  2  0
 35 36  1  0
 36 37  2  0
 37 38  1  0
 38 39  2  0
 27 40  1  0
 40 41  2  0
 41 42  1  0
 42 43  2  0
 43 44  1  0
 44 45  2  0
 22 10  1  0
 33 28  1  0
 39 34  1  0
 45 40  1  0
 16 11  1  0
 22 17  1  0
  3 46  1  0
  3 47  1  0
  4 48  1  6
  5 49  1  0
  9 50  1  0
  9 51  1  0
 10 52  1  0
 12 53  1  0
 13 54  1  0
 14 55  1  0
 15 56  1  0
 18 57  1  0
 19 58  1  0
 20 59  1  0
 21 60  1  0
 26 61  1  0
 29 62  1  0
 30 63  1  0
 31 64  1  0
 32 65  1  0
 33 66  1  0
 35 67  1  0
 36 68  1  0
 37 69  1  0
 38 70  1  0
 39 71  1  0
 41 72  1  0
 42 73  1  0
 43 74  1  0
 44 75  1  0
 45 76  1  0
M  CHG  1  25  -1
M  END
>  <Binding energies>  (1) 
[-10.56]

>  <Ligand effiencies>  (1) 
[-0.2246808510638298]

>  <Interactions>  (1) 
["V-A:PRO:482:CG:4326, V-B:TYR:539:CE2:9847, V-B:PRO:540:CA:9854, V-B:TYR:539:CD2:9845, V-B:PRO:540:CB:9856, V-B:ALA:541:CB:9863, V-A:LEU:475:CD2:4258, V-B:PRO:540:N:9855, V-B:ALA:541:CA:9861, V-A:PRO:482:CB:4325, V-B:TYR:539:CZ:9848, H-A:ARG:545:NH2:4928, H-A:GLY:454:N:4049, H-A:ARG:545:NE:4924, H-A:ARG:545:NH1:4927, V-A:ASP:366:CG:3212, V-A:ASP:366:CB:3211, V-A:ASP:366:CA:3209, V-A:ILE:369:CG2:3236, H-A:TYR:484:OH:4347, V-A:ARG:545:CZ:4926, V-A:GLU:543:CD:4908, V-A:GLU:543:CG:4907, V-A:GLU:543:CB:4906, V-B:HIS:456:CE1:9041, V-B:GLU:543:CB:9877, V-A:TYR:484:CZ:4346, V-A:HIS:456:CE1:4069, V-B:GLU:543:CG:9878, V-A:ASP:366:C:3207, V-B:TYR:484:CE1:9316, V-B:GLU:543:CD:9879, V-A:TYR:484:CE1:4344, V-A:TYR:531:CZ:4794, V-A:GLY:454:CA:4048, V-A:TRP:381:CH2:3371, V-A:TRP:381:CZ2:3369, V-A:ILE:369:CB:3235, V-B:TYR:484:CZ:9318, V-A:GLU:543:CA:4904, V-A:GLU:543:C:4902"]

$$$$
RR6_Rahimova_2017
     RDKit          3D

 63 66  0  0  0  0  0  0  0  0999 V2000
  132.4590  131.3780   56.7290 C   0  0  0  0  0  0  0  0  0  0  0  0
  132.1080  132.6090   57.3460 O   0  0  0  0  0  0  0  0  0  0  0  0
  130.8250  132.8680   57.7080 C   0  0  0  0  0  0  0  0  0  0  0  0
  130.0010  133.4000   56.9570 O   0  0  0  0  0  0  0  0  0  0  0  0
  130.5070  132.4440   59.1130 C   0  0  0  0  0  0  0  0  0  0  0  0
  131.4300  131.7470   59.9060 C   0  0  0  0  0  0  0  0  0  0  0  0
  131.1020  131.3600   61.2040 C   0  0  0  0  0  0  0  0  0  0  0  0
  129.8370  131.6620   61.7290 C   0  0  0  0  0  0  0  0  0  0  0  0
  129.3930  131.2950   63.0130 N   0  0  0  0  0  0  0  0  0  0  0  0
  128.1480  130.9710   63.4280 C   0  0  0  0  0  0  0  0  0  0  0  0
  127.1460  130.9310   62.7150 O   0  0  0  0  0  0  0  0  0  0  0  0
  128.0020  130.6980   64.9290 C   0  0  0  0  0  0  0  0  0  0  0  0
  127.1660  129.1220   65.3080 S   0  0  0  0  0  0  0  0  0  0  0  0
  128.4100  128.0240   65.9560 C   0  0  0  0  0  0  0  0  0  0  0  0
  128.4500  127.9620   67.3090 N   0  0  0  0  0  0  0  0  0  0  0  0
  129.3370  127.1370   67.9190 C   0  0  0  0  0  0  0  0  0  0  0  0
  129.2750  127.0820   69.4170 C   0  0  0  0  0  0  0  0  0  0  0  0
  129.9120  128.0550   70.2030 C   0  0  0  0  0  0  0  0  0  0  0  0
  129.8650  127.9960   71.5940 C   0  0  0  0  0  0  0  0  0  0  0  0
  129.1740  126.9620   72.2250 C   0  0  0  0  0  0  0  0  0  0  0  0
  129.1340  126.8970   73.7410 C   0  0  0  0  0  0  0  0  0  0  0  0
  128.5340  125.9880   71.4630 C   0  0  0  0  0  0  0  0  0  0  0  0
  128.5830  126.0530   70.0750 C   0  0  0  0  0  0  0  0  0  0  0  0
  130.2220  126.3580   67.1680 C   0  0  0  0  0  0  0  0  0  0  0  0
  130.2040  126.4070   65.7660 C   0  0  0  0  0  0  0  0  0  0  0  0
  131.1640  125.5350   65.0260 C   0  0  0  0  0  0  0  0  0  0  0  0
  132.3930  126.0460   64.6000 C   0  0  0  0  0  0  0  0  0  0  0  0
  133.3010  125.2350   63.9230 C   0  0  0  0  0  0  0  0  0  0  0  0
  133.0000  123.8990   63.6650 C   0  0  0  0  0  0  0  0  0  0  0  0
  133.9610  123.1700   62.9910 O   0  0  0  0  0  0  0  0  0  0  0  0
  133.5920  121.9420   62.3720 C   0  0  0  0  0  0  0  0  0  0  0  0
  131.7700  123.3790   64.0960 C   0  0  0  0  0  0  0  0  0  0  0  0
  130.8650  124.1930   64.7730 C   0  0  0  0  0  0  0  0  0  0  0  0
  129.2740  127.2700   65.1360 C   0  0  0  0  0  0  0  0  0  0  0  0
  129.2210  127.3920   63.6760 C   0  0  0  0  0  0  0  0  0  0  0  0
  129.1780  127.4870   62.5230 N   0  0  0  0  0  0  0  0  0  0  0  0
  128.9220  132.3700   60.9490 C   0  0  0  0  0  0  0  0  0  0  0  0
  129.2510  132.7540   59.6510 C   0  0  0  0  0  0  0  0  0  0  0  0
  132.6730  130.6273   57.5040 H   0  0  0  0  0  0  0  0  0  0  0  0
  131.6241  131.0306   56.1027 H   0  0  0  0  0  0  0  0  0  0  0  0
  133.3516  131.5232   56.1027 H   0  0  0  0  0  0  0  0  0  0  0  0
  132.4227  131.5033   59.4995 H   0  0  0  0  0  0  0  0  0  0  0  0
  131.8361  130.8171   61.8175 H   0  0  0  0  0  0  0  0  0  0  0  0
  130.0960  131.3680   63.7330 H   0  0  0  0  0  0  0  0  0  0  0  0
  129.0062  130.6753   65.3774 H   0  0  0  0  0  0  0  0  0  0  0  0
  127.3762  131.5023   65.3432 H   0  0  0  0  0  0  0  0  0  0  0  0
  130.4562  128.8761   69.7134 H   0  0  0  0  0  0  0  0  0  0  0  0
  130.3729  128.7650   72.1946 H   0  0  0  0  0  0  0  0  0  0  0  0
  129.6672  127.7634   74.1593 H   0  0  0  0  0  0  0  0  0  0  0  0
  128.0880  126.9109   74.0811 H   0  0  0  0  0  0  0  0  0  0  0  0
  129.6178  125.9695   74.0811 H   0  0  0  0  0  0  0  0  0  0  0  0
  127.9911  125.1693   71.9579 H   0  0  0  0  0  0  0  0  0  0  0  0
  128.0694  125.2829   69.4807 H   0  0  0  0  0  0  0  0  0  0  0  0
  130.9392  125.7004   67.6811 H   0  0  0  0  0  0  0  0  0  0  0  0
  132.6455  127.0976   64.8010 H   0  0  0  0  0  0  0  0  0  0  0  0
  134.2627  125.6522   63.5896 H   0  0  0  0  0  0  0  0  0  0  0  0
  133.3672  121.1940   63.1466 H   0  0  0  0  0  0  0  0  0  0  0  0
  132.7017  122.1001   61.7456 H   0  0  0  0  0  0  0  0  0  0  0  0
  134.4220  121.5832   61.7456 H   0  0  0  0  0  0  0  0  0  0  0  0
  131.5200  122.3261   63.8987 H   0  0  0  0  0  0  0  0  0  0  0  0
  129.9053  123.7757   65.1120 H   0  0  0  0  0  0  0  0  0  0  0  0
  127.9350  132.6264   61.3615 H   0  0  0  0  0  0  0  0  0  0  0  0
  128.5184  133.3053   59.0432 H   0  0  0  0  0  0  0  0  0  0  0  0
  1  2  1  0
  2  3  1  0
  3  4  2  0
  3  5  1  0
  5  6  2  0
  6  7  1  0
  7  8  2  0
  8  9  1  0
  9 10  1  0
 10 11  2  0
 10 12  1  0
 12 13  1  0
 13 14  1  0
 14 15  2  0
 15 16  1  0
 16 17  1  0
 17 18  2  0
 18 19  1  0
 19 20  2  0
 20 21  1  0
 20 22  1  0
 22 23  2  0
 16 24  2  0
 24 25  1  0
 25 26  1  0
 26 27  2  0
 27 28  1  0
 28 29  2  0
 29 30  1  0
 30 31  1  0
 29 32  1  0
 32 33  2  0
 25 34  2  0
 34 35  1  0
 35 36  3  0
  8 37  1  0
 37 38  2  0
 38  5  1  0
 34 14  1  0
 23 17  1  0
 33 26  1  0
  1 39  1  0
  1 40  1  0
  1 41  1  0
  6 42  1  0
  7 43  1  0
  9 44  1  0
 12 45  1  0
 12 46  1  0
 18 47  1  0
 19 48  1  0
 21 49  1  0
 21 50  1  0
 21 51  1  0
 22 52  1  0
 23 53  1  0
 24 54  1  0
 27 55  1  0
 28 56  1  0
 31 57  1  0
 31 58  1  0
 31 59  1  0
 32 60  1  0
 33 61  1  0
 37 62  1  0
 38 63  1  0
M  END
>  <Binding energies>  (1) 
[-9.16]

>  <Ligand effiencies>  (1) 
[-0.23487179487179488]

>  <Interactions>  (1) 
["V-A:LEU:475:CD2:4258, H-A:GLY:454:N:4049, V-A:ILE:369:CD1:3238, V-A:ILE:369:CG2:3236, V-A:ARG:545:CZ:4926, V-A:GLU:543:CD:4908, V-A:GLU:543:CG:4907, V-A:GLU:543:CB:4906, V-B:HIS:456:CE1:9041, V-B:GLU:543:CB:9877, V-A:HIS:456:CE1:4069, V-B:GLU:543:CD:9879, V-A:PRO:540:N:4884, V-A:LEU:363:CD1:3188, V-A:TYR:539:C:4867, H-A:TYR:539:N:4870, V-A:PRO:540:CA:4883, V-A:TYR:531:CE2:4793, H-A:GLU:543:OE1:4909, V-A:PRO:540:CD:4887, V-A:PRO:540:CB:4885, V-A:GLY:454:CA:4048"]

$$$$
RR7_Rahimova_2017
     RDKit          3D

 80 86  0  0  0  0  0  0  0  0999 V2000
  124.5140  131.0460   59.4970 C   0  0  0  0  0  0  0  0  0  0  0  0
  125.8080  130.6430   59.9350 O   0  0  0  0  0  0  0  0  0  0  0  0
  126.2240  129.3470   59.7010 C   0  0  0  0  0  0  0  0  0  0  0  0
  126.8580  128.6960   60.7580 C   0  0  0  0  0  0  0  0  0  0  0  0
  127.3070  127.3870   60.6180 C   0  0  0  0  0  0  0  0  0  0  0  0
  127.1410  126.6970   59.4080 C   0  0  0  0  0  0  0  0  0  0  0  0
  127.6050  125.2180   59.2330 C   0  0  0  0  0  0  0  0  0  0  0  0
  128.9100  125.2710   58.6150 O   0  0  0  0  0  0  0  0  0  0  0  0
  129.2460  126.3520   57.7400 C   0  0  0  0  0  0  0  0  0  0  0  0
  130.7530  126.6350   57.8490 C   0  0  1  0  0  0  0  0  0  0  0  0
  130.9830  127.1490   59.1580 O   0  0  0  0  0  0  0  0  0  0  0  0
  131.8890  126.3620   59.8770 C   0  0  1  0  0  0  0  0  0  0  0  0
  131.5520  126.3740   61.2870 N   0  0  0  0  0  0  0  0  0  0  0  0
  130.4630  126.9710   61.8980 C   0  0  0  0  0  0  0  0  0  0  0  0
  130.4250  126.8670   63.2040 N   0  0  0  0  0  0  0  0  0  0  0  0
  131.5790  126.1990   63.5110 C   0  0  0  0  0  0  0  0  0  0  0  0
  132.1330  125.7900   64.7400 C   0  0  0  0  0  0  0  0  0  0  0  0
  131.4270  126.0700   65.9250 N   0  0  0  0  0  0  0  0  0  0  0  0
  130.3540  125.4310   66.4490 C   0  0  0  0  0  0  0  0  0  0  0  0
  129.7950  124.4650   65.9220 O   0  0  0  0  0  0  0  0  0  0  0  0
  129.8250  125.9970   67.7490 C   0  0  0  0  0  0  0  0  0  0  0  0
  130.0350  127.3510   68.0530 C   0  0  0  0  0  0  0  0  0  0  0  0
  129.5520  127.8930   69.2410 C   0  0  0  0  0  0  0  0  0  0  0  0
  128.8510  127.0880   70.1330 C   0  0  0  0  0  0  0  0  0  0  0  0
  128.6280  125.7430   69.8480 C   0  0  0  0  0  0  0  0  0  0  0  0
  129.1120  125.1990   68.6600 C   0  0  0  0  0  0  0  0  0  0  0  0
  133.3360  125.1400   64.7470 N   0  0  0  0  0  0  0  0  0  0  0  0
  133.9450  124.9200   63.5530 C   0  0  0  0  0  0  0  0  0  0  0  0
  133.5010  125.2670   62.3150 N   0  0  0  0  0  0  0  0  0  0  0  0
  132.3180  125.8950   62.3390 C   0  0  0  0  0  0  0  0  0  0  0  0
  131.8410  124.9890   59.2150 C   0  0  0  0  0  0  0  0  0  0  0  0
  131.6540  125.3950   57.7640 C   0  0  2  0  0  0  0  0  0  0  0  0
  132.8900  125.6670   57.1240 O   0  0  0  0  0  0  0  0  0  0  0  0
  127.7770  124.4880   60.5920 C   0  0  0  0  0  0  0  0  0  0  0  0
  126.6510  124.1310   61.3520 C   0  0  0  0  0  0  0  0  0  0  0  0
  126.7930  123.4890   62.5780 C   0  0  0  0  0  0  0  0  0  0  0  0
  128.0660  123.1990   63.0590 C   0  0  0  0  0  0  0  0  0  0  0  0
  129.1960  123.5440   62.3240 C   0  0  0  0  0  0  0  0  0  0  0  0
  129.0520  124.1870   61.0980 C   0  0  0  0  0  0  0  0  0  0  0  0
  126.6670  124.3100   58.3880 C   0  0  0  0  0  0  0  0  0  0  0  0
  127.2040  123.3550   57.5110 C   0  0  0  0  0  0  0  0  0  0  0  0
  126.3740  122.5440   56.7430 C   0  0  0  0  0  0  0  0  0  0  0  0
  124.9930  122.6870   56.8380 C   0  0  0  0  0  0  0  0  0  0  0  0
  124.4380  123.6370   57.6910 C   0  0  0  0  0  0  0  0  0  0  0  0
  125.2710  124.4460   58.4580 C   0  0  0  0  0  0  0  0  0  0  0  0
  126.4890  127.3520   58.3530 C   0  0  0  0  0  0  0  0  0  0  0  0
  126.0390  128.6620   58.4920 C   0  0  0  0  0  0  0  0  0  0  0  0
  123.8764  131.2446   60.3711 H   0  0  0  0  0  0  0  0  0  0  0  0
  124.6002  131.9599   58.8908 H   0  0  0  0  0  0  0  0  0  0  0  0
  124.0661  130.2448   58.8908 H   0  0  0  0  0  0  0  0  0  0  0  0
  127.0047  129.2228   61.7125 H   0  0  0  0  0  0  0  0  0  0  0  0
  127.7980  126.8871   61.4660 H   0  0  0  0  0  0  0  0  0  0  0  0
  128.9961  126.0792   56.7041 H   0  0  0  0  0  0  0  0  0  0  0  0
  128.6780  127.2501   58.0241 H   0  0  0  0  0  0  0  0  0  0  0  0
  130.9986  127.3031   57.0103 H   0  0  0  0  0  0  0  0  0  0  0  0
  132.9232  126.7358   59.8492 H   0  0  0  0  0  0  0  0  0  0  0  0
  129.6833  127.4964   61.3270 H   0  0  0  0  0  0  0  0  0  0  0  0
  131.7790  126.8600   66.4450 H   0  0  0  0  0  0  0  0  0  0  0  0
  130.5859  127.9894   67.3466 H   0  0  0  0  0  0  0  0  0  0  0  0
  129.7241  128.9543   69.4735 H   0  0  0  0  0  0  0  0  0  0  0  0
  128.4696  127.5172   71.0712 H   0  0  0  0  0  0  0  0  0  0  0  0
  128.0721  125.1128   70.5578 H   0  0  0  0  0  0  0  0  0  0  0  0
  128.9347  124.1373   68.4335 H   0  0  0  0  0  0  0  0  0  0  0  0
  134.9130  124.3989   63.5918 H   0  0  0  0  0  0  0  0  0  0  0  0
  132.7777  124.4320   59.3645 H   0  0  0  0  0  0  0  0  0  0  0  0
  131.0661  124.3146   59.6084 H   0  0  0  0  0  0  0  0  0  0  0  0
  131.2089  124.5959   57.1530 H   0  0  0  0  0  0  0  0  0  0  0  0
  133.5970  125.2850   57.6500 H   0  0  0  0  0  0  0  0  0  0  0  0
  125.6445  124.3619   60.9731 H   0  0  0  0  0  0  0  0  0  0  0  0
  125.9040  123.2122   63.1637 H   0  0  0  0  0  0  0  0  0  0  0  0
  128.1801  122.6926   64.0288 H   0  0  0  0  0  0  0  0  0  0  0  0
  130.1989  123.3095   62.7103 H   0  0  0  0  0  0  0  0  0  0  0  0
  129.9461  124.4623   60.5194 H   0  0  0  0  0  0  0  0  0  0  0  0
  128.2956  123.2461   57.4296 H   0  0  0  0  0  0  0  0  0  0  0  0
  126.8071  121.7941   56.0647 H   0  0  0  0  0  0  0  0  0  0  0  0
  124.3349  122.0445   56.2345 H   0  0  0  0  0  0  0  0  0  0  0  0
  123.3457  123.7477   57.7584 H   0  0  0  0  0  0  0  0  0  0  0  0
  124.8310  125.2005   59.1267 H   0  0  0  0  0  0  0  0  0  0  0  0
  126.3309  126.8228   57.4017 H   0  0  0  0  0  0  0  0  0  0  0  0
  125.5366  129.1613   57.6504 H   0  0  0  0  0  0  0  0  0  0  0  0
  1  2  1  0
  2  3  1  0
  3  4  2  0
  4  5  1  0
  5  6  2  0
  6  7  1  0
  7  8  1  0
  8  9  1  0
  9 10  1  0
 10 11  1  0
 11 12  1  0
 12 13  1  0
 13 14  1  0
 14 15  2  0
 15 16  1  0
 16 17  2  0
 17 18  1  0
 18 19  1  0
 19 20  2  0
 19 21  1  0
 21 22  2  0
 22 23  1  0
 23 24  2  0
 24 25  1  0
 25 26  2  0
 17 27  1  0
 27 28  2  0
 28 29  1  0
 29 30  2  0
 12 31  1  0
 31 32  1  0
 32 33  1  0
  7 34  1  0
 34 35  2  0
 35 36  1  0
 36 37  2  0
 37 38  1  0
 38 39  2  0
  7 40  1  0
 40 41  2  0
 41 42  1  0
 42 43  2  0
 43 44  1  0
 44 45  2  0
  6 46  1  0
 46 47  2  0
 47  3  1  0
 32 10  1  0
 39 34  1  0
 45 40  1  0
 30 13  1  0
 30 16  1  0
 26 21  1  0
  1 48  1  0
  1 49  1  0
  1 50  1  0
  4 51  1  0
  5 52  1  0
  9 53  1  0
  9 54  1  0
 10 55  1  6
 12 56  1  1
 14 57  1  0
 18 58  1  0
 22 59  1  0
 23 60  1  0
 24 61  1  0
 25 62  1  0
 26 63  1  0
 28 64  1  0
 31 65  1  0
 31 66  1  0
 32 67  1  6
 33 68  1  0
 35 69  1  0
 36 70  1  0
 37 71  1  0
 38 72  1  0
 39 73  1  0
 41 74  1  0
 42 75  1  0
 43 76  1  0
 44 77  1  0
 45 78  1  0
 46 79  1  0
 47 80  1  0
M  END
>  <Binding energies>  (1) 
[-9.16]

>  <Ligand effiencies>  (1) 
[-0.18693877551020407]

>  <Interactions>  (1) 
["V-B:PRO:540:CA:9854, V-B:LEU:363:CD1:8160, V-B:PRO:540:CD:9858, V-B:PRO:540:CB:9856, V-B:ALA:541:CB:9863, V-B:TYR:539:C:9838, V-B:PRO:540:N:9855, V-B:ALA:541:CA:9861, V-B:TYR:539:CZ:9848, H-A:ARG:545:NH2:4928, H-A:GLY:454:N:4049, V-A:ASP:366:CG:3212, H-A:ASP:366:O:3208, V-A:ASP:366:CB:3211, H-B:TYR:539:OH:9849, H-A:TYR:484:OH:4347, H-A:GLU:543:OE2:4910, V-A:ARG:545:CZ:4926, V-B:LEU:363:CA:8156, V-B:PRO:540:CG:9857, V-A:GLU:543:CD:4908, V-A:GLU:543:CG:4907, V-A:GLU:543:CB:4906, V-B:HIS:456:CE1:9041, V-B:GLU:543:CB:9877, V-A:HIS:456:CE1:4069, V-B:GLU:543:CG:9878, V-B:GLU:543:CD:9879, H-A:TYR:531:OH:4795, V-B:ASP:366:CB:8183, V-B:ASP:366:CG:8184, V-B:ASP:366:CA:8181, V-A:GLY:453:C:4041, V-A:GLY:453:CA:4043, V-B:GLU:543:CA:9875, V-B:GLU:543:C:9873"]

$$$$
RR8_A_Rahimova_2017
     RDKit          3D

 73 77  0  0  0  0  0  0  0  0999 V2000
  133.4920  123.9890   57.8230 O   0  0  0  0  0  0  0  0  0  0  0  0
  132.8450  124.8370   58.4460 C   0  0  0  0  0  0  0  0  0  0  0  0
  131.9730  125.7220   57.8700 O   0  0  0  0  0  0  0  0  0  0  0  0
  130.6380  125.3190   57.7310 C   0  0  1  0  0  0  0  0  0  0  0  0
  130.3320  124.2460   58.5730 O   0  0  0  0  0  0  0  0  0  0  0  0
  129.0210  124.3590   59.1200 C   0  0  2  0  0  0  0  0  0  0  0  0
  128.2360  123.0820   58.7770 C   0  0  0  0  0  0  0  0  0  0  0  0
  128.0350  122.3340   59.9690 O   0  0  0  0  0  0  0  0  0  0  0  0
  129.1670  121.5760   60.3730 C   0  0  0  0  0  0  0  0  0  0  0  0
  129.7260  122.1370   61.6730 C   0  0  0  0  0  0  0  0  0  0  0  0
  129.0250  123.1300   62.3610 C   0  0  0  0  0  0  0  0  0  0  0  0
  129.5300  123.6410   63.5550 C   0  0  0  0  0  0  0  0  0  0  0  0
  130.7340  123.1530   64.0590 C   0  0  0  0  0  0  0  0  0  0  0  0
  131.4370  122.1580   63.3820 C   0  0  0  0  0  0  0  0  0  0  0  0
  130.9310  121.6470   62.1900 C   0  0  0  0  0  0  0  0  0  0  0  0
  128.4780  125.6540   58.5020 C   0  0  1  0  0  0  0  0  0  0  0  0
  127.6960  126.4250   59.4110 O   0  0  0  0  0  0  0  0  0  0  0  0
  127.5050  125.8520   60.7000 C   0  0  0  0  0  0  0  0  0  0  0  0
  126.2300  125.0190   60.7140 C   0  0  0  0  0  0  0  0  0  0  0  0
  125.4070  124.9920   59.5830 C   0  0  0  0  0  0  0  0  0  0  0  0
  124.2350  124.2410   59.5920 C   0  0  0  0  0  0  0  0  0  0  0  0
  123.8860  123.5200   60.7330 C   0  0  0  0  0  0  0  0  0  0  0  0
  124.6960  123.5470   61.8650 C   0  0  0  0  0  0  0  0  0  0  0  0
  125.8680  124.3000   61.8570 C   0  0  0  0  0  0  0  0  0  0  0  0
  129.7340  126.4510   58.1990 C   0  0  2  0  0  0  0  0  0  0  0  0
  129.4770  127.4310   57.1970 O   0  0  0  0  0  0  0  0  0  0  0  0
  129.1420  128.7290   57.6760 C   0  0  0  0  0  0  0  0  0  0  0  0
  130.3340  129.6620   57.5240 C   0  0  0  0  0  0  0  0  0  0  0  0
  130.2620  130.7620   56.6630 C   0  0  0  0  0  0  0  0  0  0  0  0
  131.3530  131.6180   56.5350 C   0  0  0  0  0  0  0  0  0  0  0  0
  132.5110  131.3750   57.2700 C   0  0  0  0  0  0  0  0  0  0  0  0
  132.5890  130.2850   58.1330 C   0  0  0  0  0  0  0  0  0  0  0  0
  131.4980  129.4280   58.2620 C   0  0  0  0  0  0  0  0  0  0  0  0
  132.9270  124.9940   59.9370 C   0  0  0  0  0  0  0  0  0  0  0  0
  133.8430  124.2640   60.7110 C   0  0  0  0  0  0  0  0  0  0  0  0
  133.8950  124.4320   62.0920 C   0  0  0  0  0  0  0  0  0  0  0  0
  133.0330  125.3300   62.7350 C   0  0  0  0  0  0  0  0  0  0  0  0
  133.0900  125.5090   64.2060 N   0  0  0  0  0  0  0  0  0  0  0  0
  134.0640  125.0750   64.8140 O   0  0  0  0  0  0  0  0  0  0  0  0
  132.1610  126.0850   64.7650 O   0  0  0  0  0  0  0  0  0  0  0  0
  132.1180  126.0560   61.9620 C   0  0  0  0  0  0  0  0  0  0  0  0
  132.0650  125.8900   60.5820 C   0  0  0  0  0  0  0  0  0  0  0  0
  130.4917  125.0435   56.6762 H   0  0  0  0  0  0  0  0  0  0  0  0
  128.9607  124.4303   60.2160 H   0  0  0  0  0  0  0  0  0  0  0  0
  127.2627  123.3521   58.3414 H   0  0  0  0  0  0  0  0  0  0  0  0
  128.8001  122.4806   58.0489 H   0  0  0  0  0  0  0  0  0  0  0  0
  128.8693  120.5281   60.5256 H   0  0  0  0  0  0  0  0  0  0  0  0
  129.9392  121.6319   59.5916 H   0  0  0  0  0  0  0  0  0  0  0  0
  128.0734  123.5090   61.9600 H   0  0  0  0  0  0  0  0  0  0  0  0
  128.9812  124.4254   64.0968 H   0  0  0  0  0  0  0  0  0  0  0  0
  131.1337  123.5572   65.0008 H   0  0  0  0  0  0  0  0  0  0  0  0
  132.3866  121.7785   63.7874 H   0  0  0  0  0  0  0  0  0  0  0  0
  131.4785  120.8577   61.6541 H   0  0  0  0  0  0  0  0  0  0  0  0
  127.8308  125.4272   57.6419 H   0  0  0  0  0  0  0  0  0  0  0  0
  128.3634  125.2089   60.9440 H   0  0  0  0  0  0  0  0  0  0  0  0
  127.4195  126.6570   61.4448 H   0  0  0  0  0  0  0  0  0  0  0  0
  125.6862  125.5645   58.6862 H   0  0  0  0  0  0  0  0  0  0  0  0
  123.5874  124.2166   58.7032 H   0  0  0  0  0  0  0  0  0  0  0  0
  122.9615  122.9239   60.7389 H   0  0  0  0  0  0  0  0  0  0  0  0
  124.4119  122.9764   62.7615 H   0  0  0  0  0  0  0  0  0  0  0  0
  126.5089  124.3289   62.7505 H   0  0  0  0  0  0  0  0  0  0  0  0
  130.1556  127.0426   59.0250 H   0  0  0  0  0  0  0  0  0  0  0  0
  128.2941  129.1236   57.0969 H   0  0  0  0  0  0  0  0  0  0  0  0
  128.8681  128.6625   58.7393 H   0  0  0  0  0  0  0  0  0  0  0  0
  129.3440  130.9509   56.0872 H   0  0  0  0  0  0  0  0  0  0  0  0
  131.3005  132.4822   55.8565 H   0  0  0  0  0  0  0  0  0  0  0  0
  133.3727  132.0511   57.1676 H   0  0  0  0  0  0  0  0  0  0  0  0
  133.5073  130.1014   58.7100 H   0  0  0  0  0  0  0  0  0  0  0  0
  131.5526  128.5672   58.9446 H   0  0  0  0  0  0  0  0  0  0  0  0
  134.5254  123.5532   60.2221 H   0  0  0  0  0  0  0  0  0  0  0  0
  134.6199  123.8541   62.6841 H   0  0  0  0  0  0  0  0  0  0  0  0
  131.4341  126.7650   62.4515 H   0  0  0  0  0  0  0  0  0  0  0  0
  131.3390  126.4681   59.9914 H   0  0  0  0  0  0  0  0  0  0  0  0
  1  2  2  0
  2  3  1  0
  3  4  1  0
  4  5  1  0
  5  6  1  0
  6  7  1  0
  7  8  1  0
  8  9  1  0
  9 10  1  0
 10 11  2  0
 11 12  1  0
 12 13  2  0
 13 14  1  0
 14 15  2  0
  6 16  1  0
 16 17  1  0
 17 18  1  0
 18 19  1  0
 19 20  2  0
 20 21  1  0
 21 22  2  0
 22 23  1  0
 23 24  2  0
 16 25  1  0
 25 26  1  0
 26 27  1  0
 27 28  1  0
 28 29  2  0
 29 30  1  0
 30 31  2  0
 31 32  1  0
 32 33  2  0
  2 34  1  0
 34 35  2  0
 35 36  1  0
 36 37  2  0
 37 38  1  0
 38 39  2  0
 38 40  1  0
 37 41  1  0
 41 42  2  0
 25  4  1  0
 33 28  1  0
 42 34  1  0
 15 10  1  0
 24 19  1  0
  4 43  1  6
  6 44  1  1
  7 45  1  0
  7 46  1  0
  9 47  1  0
  9 48  1  0
 11 49  1  0
 12 50  1  0
 13 51  1  0
 14 52  1  0
 15 53  1  0
 16 54  1  6
 18 55  1  0
 18 56  1  0
 20 57  1  0
 21 58  1  0
 22 59  1  0
 23 60  1  0
 24 61  1  0
 25 62  1  1
 27 63  1  0
 27 64  1  0
 29 65  1  0
 30 66  1  0
 31 67  1  0
 32 68  1  0
 33 69  1  0
 35 70  1  0
 36 71  1  0
 41 72  1  0
 42 73  1  0
M  CHG  2  38   1  40  -1
M  END
>  <Binding energies>  (1) 
[-8.92]

>  <Ligand effiencies>  (1) 
[-0.2123809523809524]

>  <Interactions>  (1) 
["V-B:TYR:539:CE2:9847, V-B:PRO:540:CA:9854, V-B:TYR:539:CD2:9845, V-B:PRO:540:CB:9856, V-B:ALA:541:CB:9863, V-B:TYR:539:C:9838, V-A:LEU:475:CD2:4258, H-B:ALA:541:N:9862, V-B:TYR:539:CZ:9848, H-A:ARG:545:NH2:4928, H-A:GLY:454:N:4049, H-A:ARG:545:NE:4924, H-A:ARG:545:NH1:4927, V-A:ASP:366:CG:3212, V-A:ILE:369:CD1:3238, V-A:ASP:366:CB:3211, V-A:ASP:366:CA:3209, V-A:ILE:369:CG2:3236, H-B:TYR:539:OH:9849, V-A:ARG:545:CZ:4926, V-B:LEU:363:CA:8156, V-B:GLU:543:CG:9878, V-A:ASP:366:C:3207, V-B:GLU:543:CD:9879, V-A:LEU:363:CD1:3188, V-A:TYR:531:CE2:4793, H-A:TYR:531:OH:4795, V-B:ASN:362:CB:8147, V-A:MET:535:CE:4835, V-B:ASP:366:CG:8184, V-B:ASN:362:C:8143, H-A:ASN:370:N:3243, V-B:ASN:362:CA:8145, V-A:ILE:369:CB:3235, V-A:ILE:369:CG1:3237"]

$$$$
RR8_B_Rahimova_2017
     RDKit          3D

 73 77  0  0  0  0  0  0  0  0999 V2000
  123.5630  131.7660   57.9440 O   0  0  0  0  0  0  0  0  0  0  0  0
  124.6260  131.5580   58.5370 C   0  0  0  0  0  0  0  0  0  0  0  0
  125.8640  131.6740   57.9680 O   0  0  0  0  0  0  0  0  0  0  0  0
  126.0950  131.0240   56.7430 C   0  0  2  0  0  0  0  0  0  0  0  0
  125.7800  129.6610   56.8080 O   0  0  0  0  0  0  0  0  0  0  0  0
  126.9160  128.8790   57.1750 C   0  0  2  0  0  0  0  0  0  0  0  0
  126.6010  128.0880   58.4570 C   0  0  0  0  0  0  0  0  0  0  0  0
  127.0850  126.7580   58.3160 O   0  0  0  0  0  0  0  0  0  0  0  0
  127.3680  126.0920   59.5380 C   0  0  0  0  0  0  0  0  0  0  0  0
  126.1560  125.2740   59.9550 C   0  0  0  0  0  0  0  0  0  0  0  0
  125.1840  124.9400   59.0070 C   0  0  0  0  0  0  0  0  0  0  0  0
  124.0600  124.2120   59.3870 C   0  0  0  0  0  0  0  0  0  0  0  0
  123.9120  123.8180   60.7160 C   0  0  0  0  0  0  0  0  0  0  0  0
  124.8790  124.1410   61.6650 C   0  0  0  0  0  0  0  0  0  0  0  0
  126.0020  124.8720   61.2850 C   0  0  0  0  0  0  0  0  0  0  0  0
  128.0560  129.8980   57.2920 C   0  0  1  0  0  0  0  0  0  0  0  0
  129.2800  129.3090   56.8440 O   0  0  0  0  0  0  0  0  0  0  0  0
  130.2550  128.9970   57.8430 C   0  0  0  0  0  0  0  0  0  0  0  0
  130.3420  127.4990   58.1170 C   0  0  0  0  0  0  0  0  0  0  0  0
  129.7750  126.5880   57.2210 C   0  0  0  0  0  0  0  0  0  0  0  0
  129.8850  125.2210   57.4580 C   0  0  0  0  0  0  0  0  0  0  0  0
  130.5560  124.7690   58.5920 C   0  0  0  0  0  0  0  0  0  0  0  0
  131.1200  125.6710   59.4920 C   0  0  0  0  0  0  0  0  0  0  0  0
  131.0130  127.0390   59.2530 C   0  0  0  0  0  0  0  0  0  0  0  0
  127.5890  131.0590   56.4210 C   0  0  2  0  0  0  0  0  0  0  0  0
  128.2340  132.2670   56.8150 O   0  0  0  0  0  0  0  0  0  0  0  0
  128.6150  132.3420   58.1800 C   0  0  0  0  0  0  0  0  0  0  0  0
  130.1210  132.1720   58.2640 C   0  0  0  0  0  0  0  0  0  0  0  0
  130.9110  132.2970   57.1170 C   0  0  0  0  0  0  0  0  0  0  0  0
  132.2890  132.1200   57.2020 C   0  0  0  0  0  0  0  0  0  0  0  0
  132.8730  131.8180   58.4300 C   0  0  0  0  0  0  0  0  0  0  0  0
  132.0920  131.6930   59.5780 C   0  0  0  0  0  0  0  0  0  0  0  0
  130.7140  131.8710   59.4940 C   0  0  0  0  0  0  0  0  0  0  0  0
  124.6930  131.1100   59.9690 C   0  0  0  0  0  0  0  0  0  0  0  0
  125.7790  130.3710   60.4620 C   0  0  0  0  0  0  0  0  0  0  0  0
  125.8100  129.9620   61.7910 C   0  0  0  0  0  0  0  0  0  0  0  0
  124.7550  130.2710   62.6570 C   0  0  0  0  0  0  0  0  0  0  0  0
  124.7780  129.8110   64.0680 N   0  0  0  0  0  0  0  0  0  0  0  0
  123.8830  130.1820   64.8230 O   0  0  0  0  0  0  0  0  0  0  0  0
  125.6890  129.0710   64.4300 O   0  0  0  0  0  0  0  0  0  0  0  0
  123.6740  131.0150   62.1660 C   0  0  0  0  0  0  0  0  0  0  0  0
  123.6450  131.4310   60.8390 C   0  0  0  0  0  0  0  0  0  0  0  0
  125.4737  131.5396   55.9959 H   0  0  0  0  0  0  0  0  0  0  0  0
  127.2020  128.1026   56.4501 H   0  0  0  0  0  0  0  0  0  0  0  0
  127.0915  128.5690   59.3161 H   0  0  0  0  0  0  0  0  0  0  0  0
  125.5137  128.0703   58.6229 H   0  0  0  0  0  0  0  0  0  0  0  0
  128.2324  125.4254   59.4019 H   0  0  0  0  0  0  0  0  0  0  0  0
  127.5992  126.8330   60.3174 H   0  0  0  0  0  0  0  0  0  0  0  0
  125.3077  125.2529   57.9597 H   0  0  0  0  0  0  0  0  0  0  0  0
  123.2933  123.9492   58.6432 H   0  0  0  0  0  0  0  0  0  0  0  0
  123.0223  123.2461   61.0183 H   0  0  0  0  0  0  0  0  0  0  0  0
  124.7563  123.8202   62.7100 H   0  0  0  0  0  0  0  0  0  0  0  0
  126.7672  125.1328   62.0309 H   0  0  0  0  0  0  0  0  0  0  0  0
  128.2632  130.2344   58.3186 H   0  0  0  0  0  0  0  0  0  0  0  0
  131.2384  129.3520   57.5010 H   0  0  0  0  0  0  0  0  0  0  0  0
  129.9519  129.4935   58.7766 H   0  0  0  0  0  0  0  0  0  0  0  0
  129.2425  126.9512   56.3296 H   0  0  0  0  0  0  0  0  0  0  0  0
  129.4441  124.5008   56.7531 H   0  0  0  0  0  0  0  0  0  0  0  0
  130.6416  123.6884   58.7790 H   0  0  0  0  0  0  0  0  0  0  0  0
  131.6465  125.3049   60.3857 H   0  0  0  0  0  0  0  0  0  0  0  0
  131.4566  127.7571   59.9584 H   0  0  0  0  0  0  0  0  0  0  0  0
  127.8109  130.9946   55.3455 H   0  0  0  0  0  0  0  0  0  0  0  0
  128.3274  133.3200   58.5933 H   0  0  0  0  0  0  0  0  0  0  0  0
  128.1115  131.5531   58.7581 H   0  0  0  0  0  0  0  0  0  0  0  0
  130.4445  132.5347   56.1496 H   0  0  0  0  0  0  0  0  0  0  0  0
  132.9146  132.2183   56.3026 H   0  0  0  0  0  0  0  0  0  0  0  0
  133.9620  131.6766   58.4946 H   0  0  0  0  0  0  0  0  0  0  0  0
  132.5616  131.4553   60.5439 H   0  0  0  0  0  0  0  0  0  0  0  0
  130.0913  131.7748   60.3956 H   0  0  0  0  0  0  0  0  0  0  0  0
  126.6125  130.1130   59.7921 H   0  0  0  0  0  0  0  0  0  0  0  0
  126.6721  129.3902   62.1650 H   0  0  0  0  0  0  0  0  0  0  0  0
  122.8406  131.2725   62.8361 H   0  0  0  0  0  0  0  0  0  0  0  0
  122.7906  132.0175   60.4702 H   0  0  0  0  0  0  0  0  0  0  0  0
  1  2  2  0
  2  3  1  0
  3  4  1  0
  4  5  1  0
  5  6  1  0
  6  7  1  0
  7  8  1  0
  8  9  1  0
  9 10  1  0
 10 11  2  0
 11 12  1  0
 12 13  2  0
 13 14  1  0
 14 15  2  0
  6 16  1  0
 16 17  1  0
 17 18  1  0
 18 19  1  0
 19 20  2  0
 20 21  1  0
 21 22  2  0
 22 23  1  0
 23 24  2  0
 16 25  1  0
 25 26  1  0
 26 27  1  0
 27 28  1  0
 28 29  2  0
 29 30  1  0
 30 31  2  0
 31 32  1  0
 32 33  2  0
  2 34  1  0
 34 35  2  0
 35 36  1  0
 36 37  2  0
 37 38  1  0
 38 39  2  0
 38 40  1  0
 37 41  1  0
 41 42  2  0
 25  4  1  0
 33 28  1  0
 42 34  1  0
 15 10  1  0
 24 19  1  0
  4 43  1  6
  6 44  1  6
  7 45  1  0
  7 46  1  0
  9 47  1  0
  9 48  1  0
 11 49  1  0
 12 50  1  0
 13 51  1  0
 14 52  1  0
 15 53  1  0
 16 54  1  1
 18 55  1  0
 18 56  1  0
 20 57  1  0
 21 58  1  0
 22 59  1  0
 23 60  1  0
 24 61  1  0
 25 62  1  6
 27 63  1  0
 27 64  1  0
 29 65  1  0
 30 66  1  0
 31 67  1  0
 32 68  1  0
 33 69  1  0
 35 70  1  0
 36 71  1  0
 41 72  1  0
 42 73  1  0
M  CHG  2  38   1  40  -1
M  END
>  <Binding energies>  (1) 
[-9.3]

>  <Ligand effiencies>  (1) 
[-0.22142857142857145]

>  <Interactions>  (1) 
["V-B:TYR:539:CE2:9847, V-B:PRO:540:CA:9854, V-B:PRO:540:CB:9856, H-B:TYR:531:OH:9766, V-B:TYR:539:CZ:9848, V-A:ASP:366:CG:3212, V-B:LEU:363:CA:8156, H-B:ARG:545:NH2:9899, V-A:LEU:363:CD1:3188, V-A:PRO:540:CA:4883, H-A:TYR:531:OH:4795, V-B:ASN:362:CB:8147, V-A:MET:535:CE:4835, V-A:TYR:539:CZ:4877, V-A:TYR:539:CE2:4876, V-A:TYR:539:CD2:4874, V-A:PRO:540:CB:4885, V-B:ASP:366:CB:8183, V-B:ILE:369:CG2:8208, V-B:ARG:545:CZ:9897, V-B:ASP:366:CG:8184, V-B:ASP:366:CA:8181, H-B:GLY:454:N:9021, H-B:ARG:545:NE:9895, V-B:ILE:369:CD1:8210, V-B:ASN:362:C:8143, V-B:ASN:362:CA:8145, H-A:TYR:539:OH:4878, H-B:ASN:370:N:8215"]

$$$$
RR9_Rahimova_2017
     RDKit          3D

 64 68  0  0  0  0  0  0  0  0999 V2000
  132.1650  128.3950   70.3360 C   0  0  0  0  0  0  0  0  0  0  0  0
  131.6960  127.6880   71.6120 C   0  0  0  0  0  0  0  0  0  0  0  0
  130.2750  127.5910   71.5860 O   0  0  0  0  0  0  0  0  0  0  0  0
  129.5880  127.9920   70.4560 C   0  0  0  0  0  0  0  0  0  0  0  0
  129.1970  126.9860   69.5740 C   0  0  0  0  0  0  0  0  0  0  0  0
  128.5030  127.2960   68.4090 C   0  0  0  0  0  0  0  0  0  0  0  0
  128.1800  128.6240   68.0910 C   0  0  0  0  0  0  0  0  0  0  0  0
  127.4370  128.9640   66.8340 C   0  0  0  0  0  0  0  0  0  0  0  0
  128.0120  128.7810   65.5660 C   0  0  0  0  0  0  0  0  0  0  0  0
  127.3050  129.0890   64.3900 C   0  0  0  0  0  0  0  0  0  0  0  0
  127.9380  128.7770   63.0610 C   0  0  0  0  0  0  0  0  0  0  0  0
  128.7430  129.5590   62.5550 O   0  0  0  0  0  0  0  0  0  0  0  0
  127.5450  127.6250   62.4820 N   0  0  0  0  0  0  0  0  0  0  0  0
  127.9160  127.1680   61.1380 C   0  0  0  0  0  0  0  0  0  0  0  0
  127.7840  125.6380   60.9610 C   0  0  0  0  0  0  0  0  0  0  0  0
  126.3970  125.1620   60.5430 C   0  0  0  0  0  0  0  0  0  0  0  0
  125.9960  125.2560   59.2070 C   0  0  0  0  0  0  0  0  0  0  0  0
  124.7420  124.7880   58.8230 C   0  0  0  0  0  0  0  0  0  0  0  0
  123.8910  124.2340   59.7760 C   0  0  0  0  0  0  0  0  0  0  0  0
  124.2820  124.1410   61.1110 C   0  0  0  0  0  0  0  0  0  0  0  0
  125.5370  124.6070   61.4950 C   0  0  0  0  0  0  0  0  0  0  0  0
  126.0040  129.6220   64.5610 C   0  0  0  0  0  0  0  0  0  0  0  0
  124.9170  130.1180   63.7500 C   0  0  0  0  0  0  0  0  0  0  0  0
  124.8500  130.3150   62.2710 C   0  0  0  0  0  0  0  0  0  0  0  0
  125.7360  129.6340   61.4300 C   0  0  0  0  0  0  0  0  0  0  0  0
  125.6820  129.8320   60.0520 C   0  0  0  0  0  0  0  0  0  0  0  0
  124.7400  130.7080   59.5110 C   0  0  0  0  0  0  0  0  0  0  0  0
  124.6940  130.9370   58.0110 C   0  0  0  0  0  0  0  0  0  0  0  0
  123.8560  131.3900   60.3470 C   0  0  0  0  0  0  0  0  0  0  0  0
  123.9090  131.1900   61.7230 C   0  0  0  0  0  0  0  0  0  0  0  0
  123.8890  130.4390   64.5030 N   0  0  0  0  0  0  0  0  0  0  0  0
  124.2380  130.2430   65.7840 N   0  0  0  0  0  0  0  0  0  0  0  0
  125.5200  129.7570   65.8840 C   0  0  0  0  0  0  0  0  0  0  0  0
  126.1780  129.4580   67.0030 N   0  0  0  0  0  0  0  0  0  0  0  0
  128.5800  129.6300   68.9820 C   0  0  0  0  0  0  0  0  0  0  0  0
  129.2730  129.3230   70.1500 C   0  0  0  0  0  0  0  0  0  0  0  0
  132.7546  129.2838   70.6049 H   0  0  0  0  0  0  0  0  0  0  0  0
  132.7870  127.7079   69.7436 H   0  0  0  0  0  0  0  0  0  0  0  0
  131.2901  128.7008   69.7436 H   0  0  0  0  0  0  0  0  0  0  0  0
  132.1347  126.6804   71.6592 H   0  0  0  0  0  0  0  0  0  0  0  0
  132.0160  128.2596   72.4957 H   0  0  0  0  0  0  0  0  0  0  0  0
  129.4394  125.9374   69.8013 H   0  0  0  0  0  0  0  0  0  0  0  0
  128.2027  126.4874   67.7263 H   0  0  0  0  0  0  0  0  0  0  0  0
  129.0369  128.3885   65.4910 H   0  0  0  0  0  0  0  0  0  0  0  0
  126.9470  127.0060   63.0100 H   0  0  0  0  0  0  0  0  0  0  0  0
  127.2606  127.6631   60.4063 H   0  0  0  0  0  0  0  0  0  0  0  0
  128.9740  127.4265   60.9836 H   0  0  0  0  0  0  0  0  0  0  0  0
  128.5021  125.3190   60.1912 H   0  0  0  0  0  0  0  0  0  0  0  0
  127.9808  125.1931   61.9476 H   0  0  0  0  0  0  0  0  0  0  0  0
  126.6706  125.6993   58.4597 H   0  0  0  0  0  0  0  0  0  0  0  0
  124.4251  124.8556   57.7718 H   0  0  0  0  0  0  0  0  0  0  0  0
  122.8999  123.8659   59.4723 H   0  0  0  0  0  0  0  0  0  0  0  0
  123.6030  123.7020   61.8569 H   0  0  0  0  0  0  0  0  0  0  0  0
  125.8513  124.5383   62.5469 H   0  0  0  0  0  0  0  0  0  0  0  0
  126.4762  128.9414   61.8570 H   0  0  0  0  0  0  0  0  0  0  0  0
  126.3811  129.2985   59.3912 H   0  0  0  0  0  0  0  0  0  0  0  0
  124.4811  131.9970   57.8083 H   0  0  0  0  0  0  0  0  0  0  0  0
  125.6644  130.6669   57.5689 H   0  0  0  0  0  0  0  0  0  0  0  0
  123.9032  130.3131   57.5689 H   0  0  0  0  0  0  0  0  0  0  0  0
  123.1182  132.0848   59.9193 H   0  0  0  0  0  0  0  0  0  0  0  0
  123.2074  131.7228   62.3816 H   0  0  0  0  0  0  0  0  0  0  0  0
  123.5880  130.4450   66.5310 H   0  0  0  0  0  0  0  0  0  0  0  0
  128.3423  130.6796   68.7544 H   0  0  0  0  0  0  0  0  0  0  0  0
  129.5746  130.1286   70.8356 H   0  0  0  0  0  0  0  0  0  0  0  0
  1  2  1  0
  2  3  1  0
  3  4  1  0
  4  5  2  0
  5  6  1  0
  6  7  2  0
  7  8  1  0
  8  9  2  0
  9 10  1  0
 10 11  1  0
 11 12  2  0
 11 13  1  0
 13 14  1  0
 14 15  1  0
 15 16  1  0
 16 17  2  0
 17 18  1  0
 18 19  2  0
 19 20  1  0
 20 21  2  0
 10 22  2  0
 22 23  1  0
 23 24  1  0
 24 25  2  0
 25 26  1  0
 26 27  2  0
 27 28  1  0
 27 29  1  0
 29 30  2  0
 23 31  2  0
 31 32  1  0
 32 33  1  0
 33 34  2  0
  7 35  1  0
 35 36  2  0
 36  4  1  0
 34  8  1  0
 21 16  1  0
 33 22  1  0
 30 24  1  0
  1 37  1  0
  1 38  1  0
  1 39  1  0
  2 40  1  0
  2 41  1  0
  5 42  1  0
  6 43  1  0
  9 44  1  0
 13 45  1  0
 14 46  1  0
 14 47  1  0
 15 48  1  0
 15 49  1  0
 17 50  1  0
 18 51  1  0
 19 52  1  0
 20 53  1  0
 21 54  1  0
 25 55  1  0
 26 56  1  0
 28 57  1  0
 28 58  1  0
 28 59  1  0
 29 60  1  0
 30 61  1  0
 32 62  1  0
 35 63  1  0
 36 64  1  0
M  END
>  <Binding energies>  (1) 
[-9.27]

>  <Ligand effiencies>  (1) 
[-0.2439473684210526]

>  <Interactions>  (1) 
["V-B:PRO:540:CB:9856, H-B:GLU:543:OE2:9881, V-B:LEU:363:CA:8156, H-B:ARG:545:NH2:9899, V-A:GLU:543:CD:4908, V-A:GLU:543:CG:4907, V-A:GLU:543:CB:4906, V-B:HIS:456:CE1:9041, V-A:HIS:456:CE1:4069, V-B:TYR:484:CE1:9316, V-B:GLU:543:CD:9879, V-B:ASN:362:CB:8147, V-A:TYR:539:CE2:4876, V-A:ARG:545:CG:4922, H-B:GLU:543:OE1:9880, V-B:GLY:454:CA:9020, V-B:ASP:366:CB:8183, V-B:ILE:369:CG2:8208, V-B:ARG:545:CZ:9897, V-B:ASP:366:CG:8184, H-B:TYR:484:OH:9319, V-B:ASP:366:CA:8181, H-B:GLY:454:N:9021, V-B:ILE:369:CD1:8210, V-B:ASN:362:C:8143, V-A:HIS:456:CG:4065, V-A:ARG:545:CB:4921, V-A:ARG:545:CA:4919, V-A:GLY:544:C:4912"]

$$$$
