1a_Ghoteimi_2023
     RDKit          3D

 40 43  0  0  0  0  0  0  0  0999 V2000
  126.8160  131.4170   57.4140 C   0  0  0  0  0  0  0  0  0  0  0  0
  126.0390  130.2220   56.8530 C   0  0  0  0  0  0  0  0  0  0  0  0
  124.8090  130.0890   57.5540 O   0  0  0  0  0  0  0  0  0  0  0  0
  124.3990  131.0350   58.4370 C   0  0  0  0  0  0  0  0  0  0  0  0
  123.8560  132.0910   58.1000 O   0  0  0  0  0  0  0  0  0  0  0  0
  124.6690  130.6670   59.8680 C   0  0  0  0  0  0  0  0  0  0  0  0
  123.8190  131.0670   60.9100 C   0  0  0  0  0  0  0  0  0  0  0  0
  124.0970  130.7130   62.2280 C   0  0  0  0  0  0  0  0  0  0  0  0
  125.2330  129.9460   62.5270 C   0  0  0  0  0  0  0  0  0  0  0  0
  125.6120  129.5360   63.8200 N   0  0  0  0  0  0  0  0  0  0  0  0
  124.9760  129.6990   65.0000 C   0  0  0  0  0  0  0  0  0  0  0  0
  123.8870  130.2520   65.1570 O   0  0  0  0  0  0  0  0  0  0  0  0
  125.6990  129.1300   66.2200 C   0  0  0  0  0  0  0  0  0  0  0  0
  127.3390  129.8800   66.4420 S   0  0  0  0  0  0  0  0  0  0  0  0
  128.4330  128.5540   66.8970 C   0  0  0  0  0  0  0  0  0  0  0  0
  128.7520  128.5320   68.2130 N   0  0  0  0  0  0  0  0  0  0  0  0
  129.5770  127.5640   68.6920 C   0  0  0  0  0  0  0  0  0  0  0  0
  129.8660  127.5960   70.1650 C   0  0  0  0  0  0  0  0  0  0  0  0
  129.1410  126.8020   71.0680 C   0  0  0  0  0  0  0  0  0  0  0  0
  129.4120  126.8320   72.4330 C   0  0  0  0  0  0  0  0  0  0  0  0
  130.4130  127.6580   72.9390 C   0  0  0  0  0  0  0  0  0  0  0  0
  130.6150  127.6220   74.3050 O   0  0  0  0  0  0  0  0  0  0  0  0
  129.5050  127.8100   75.1760 C   0  0  0  0  0  0  0  0  0  0  0  0
  131.1440  128.4600   72.0510 C   0  0  0  0  0  0  0  0  0  0  0  0
  130.8700  128.4270   70.6870 C   0  0  0  0  0  0  0  0  0  0  0  0
  130.1030  126.5890   67.8360 C   0  0  0  0  0  0  0  0  0  0  0  0
  129.8070  126.6060   66.4660 C   0  0  0  0  0  0  0  0  0  0  0  0
  130.4290  125.5530   65.6080 C   0  0  0  0  0  0  0  0  0  0  0  0
  129.8510  124.2830   65.4980 C   0  0  0  0  0  0  0  0  0  0  0  0
  130.4290  123.3130   64.6840 C   0  0  0  0  0  0  0  0  0  0  0  0
  131.5880  123.5920   63.9600 C   0  0  0  0  0  0  0  0  0  0  0  0
  132.0880  122.5680   63.1800 O   0  0  0  0  0  0  0  0  0  0  0  0
  131.2490  121.9690   62.1990 C   0  0  0  0  0  0  0  0  0  0  0  0
  132.1660  124.8670   64.0620 C   0  0  0  0  0  0  0  0  0  0  0  0
  131.5870  125.8360   64.8770 C   0  0  0  0  0  0  0  0  0  0  0  0
  128.9430  127.6140   65.9760 C   0  0  0  0  0  0  0  0  0  0  0  0
  128.5840  127.6740   64.5550 C   0  0  0  0  0  0  0  0  0  0  0  0
  128.3020  127.7200   63.4340 N   0  0  0  0  0  0  0  0  0  0  0  0
  126.0820  129.5500   61.4930 C   0  0  0  0  0  0  0  0  0  0  0  0
  125.8030  129.9050   60.1760 C   0  0  0  0  0  0  0  0  0  0  0  0
  1  2  1  0
  2  3  1  0
  3  4  1  0
  4  5  2  0
  4  6  1  0
  6  7  2  0
  7  8  1  0
  8  9  2  0
  9 10  1  0
 10 11  1  0
 11 12  2  0
 11 13  1  0
 13 14  1  0
 14 15  1  0
 15 16  2  0
 16 17  1  0
 17 18  1  0
 18 19  2  0
 19 20  1  0
 20 21  2  0
 21 22  1  0
 22 23  1  0
 21 24  1  0
 24 25  2  0
 17 26  2  0
 26 27  1  0
 27 28  1  0
 28 29  2  0
 29 30  1  0
 30 31  2  0
 31 32  1  0
 32 33  1  0
 31 34  1  0
 34 35  2  0
 27 36  2  0
 36 37  1  0
 37 38  3  0
  9 39  1  0
 39 40  2  0
 40  6  1  0
 36 15  1  0
 25 18  1  0
 35 28  1  0
M  END
>  <Binding energies>  (1) 
[-9.69]

>  <Ligand effiencies>  (1) 
[-0.23634146341463413]

>  <Interactions>  (1) 
["V-A:LEU:475:CD2:4258, H-B:GLU:543:OE2:9881, H-B:TYR:531:OH:9766, V-A:GLU:543:CD:4908, V-A:GLU:543:CG:4907, V-A:GLU:543:CB:4906, V-B:HIS:456:CE1:9041, V-A:HIS:456:CE1:4069, V-B:GLU:543:CG:9878, V-B:GLU:543:CD:9879, V-A:TYR:539:CZ:4877, V-A:TYR:539:CE2:4876, H-B:GLU:543:OE1:9880, V-B:ASP:366:CB:8183, V-B:ARG:545:CZ:9897, V-B:ASP:366:CG:8184, H-B:TYR:484:OH:9319, V-B:ASP:366:CA:8181, H-B:GLY:454:N:9021, H-B:ARG:545:NE:9895, V-B:ILE:369:CD1:8210, H-A:TYR:539:OH:4878, H-A:LYS:547:NZ:4951, V-A:LYS:547:CE:4950, V-A:GLY:544:C:4912"]

$$$$
1b_Ghoteimi_2023
     RDKit          3D

 34 37  0  0  0  0  0  0  0  0999 V2000
  129.8540  125.0990   74.4260 C   0  0  0  0  0  0  0  0  0  0  0  0
  128.7810  125.8560   73.8790 O   0  0  0  0  0  0  0  0  0  0  0  0
  128.8260  126.2230   72.5480 C   0  0  0  0  0  0  0  0  0  0  0  0
  128.0930  125.4390   71.6590 C   0  0  0  0  0  0  0  0  0  0  0  0
  128.0790  125.7320   70.2990 C   0  0  0  0  0  0  0  0  0  0  0  0
  128.7970  126.8220   69.7850 C   0  0  0  0  0  0  0  0  0  0  0  0
  128.7820  127.1340   68.3140 C   0  0  0  0  0  0  0  0  0  0  0  0
  127.9810  128.1360   67.7570 C   0  0  0  0  0  0  0  0  0  0  0  0
  128.0070  128.3900   66.3800 C   0  0  0  0  0  0  0  0  0  0  0  0
  127.1220  129.4720   65.8540 C   0  0  0  0  0  0  0  0  0  0  0  0
  125.7920  129.1960   65.5220 C   0  0  0  0  0  0  0  0  0  0  0  0
  124.9660  130.1990   65.0230 C   0  0  0  0  0  0  0  0  0  0  0  0
  125.4520  131.4940   64.8430 C   0  0  0  0  0  0  0  0  0  0  0  0
  124.5600  132.4240   64.3430 O   0  0  0  0  0  0  0  0  0  0  0  0
  124.0950  132.2890   63.0040 C   0  0  0  0  0  0  0  0  0  0  0  0
  126.7880  131.7730   65.1670 C   0  0  0  0  0  0  0  0  0  0  0  0
  127.6120  130.7680   65.6650 C   0  0  0  0  0  0  0  0  0  0  0  0
  128.8720  127.6160   65.5680 C   0  0  0  0  0  0  0  0  0  0  0  0
  129.0070  127.9060   64.1370 C   0  0  0  0  0  0  0  0  0  0  0  0
  129.1140  128.1350   63.0070 N   0  0  0  0  0  0  0  0  0  0  0  0
  129.6390  126.6060   66.1910 C   0  0  0  0  0  0  0  0  0  0  0  0
  130.7700  125.5330   65.3290 S   0  0  0  0  0  0  0  0  0  0  0  0
  130.1550  123.8230   65.4910 C   0  0  0  0  0  0  0  0  0  0  0  0
  129.6980  123.1710   64.1780 C   0  0  0  0  0  0  0  0  0  0  0  0
  130.2830  122.1830   63.7280 O   0  0  0  0  0  0  0  0  0  0  0  0
  128.6350  123.7670   63.5940 N   0  0  0  0  0  0  0  0  0  0  0  0
  128.0080  123.3960   62.4100 C   0  0  0  0  0  0  0  0  0  0  0  0
  128.6880  123.2530   61.2010 C   0  0  0  0  0  0  0  0  0  0  0  0
  127.7250  122.8810   60.2910 C   0  0  0  0  0  0  0  0  0  0  0  0
  126.5280  122.8020   60.9200 O   0  0  0  0  0  0  0  0  0  0  0  0
  126.7200  123.1310   62.2620 N   0  0  0  0  0  0  0  0  0  0  0  0
  129.6040  126.3910   67.5280 N   0  0  0  0  0  0  0  0  0  0  0  0
  129.5340  127.6040   70.6880 C   0  0  0  0  0  0  0  0  0  0  0  0
  129.5510  127.3140   72.0490 C   0  0  0  0  0  0  0  0  0  0  0  0
  1  2  1  0
  2  3  1  0
  3  4  2  0
  4  5  1  0
  5  6  2  0
  6  7  1  0
  7  8  2  0
  8  9  1  0
  9 10  1  0
 10 11  2  0
 11 12  1  0
 12 13  2  0
 13 14  1  0
 14 15  1  0
 13 16  1  0
 16 17  2  0
  9 18  2  0
 18 19  1  0
 19 20  3  0
 18 21  1  0
 21 22  1  0
 22 23  1  0
 23 24  1  0
 24 25  2  0
 24 26  1  0
 26 27  1  0
 27 28  1  0
 28 29  2  0
 29 30  1  0
 30 31  1  0
 21 32  2  0
  6 33  1  0
 33 34  2  0
 34  3  1  0
 32  7  1  0
 17 10  1  0
 31 27  2  0
M  END
>  <Binding energies>  (2) 
[-9.26]

>  <Ligand effiencies>  (2) 
[-0.26457142857142857]

>  <Interactions>  (2) 
["V-B:PRO:540:CA:9854, V-B:ALA:541:CB:9863, H-B:GLU:543:OE2:9881, H-B:ALA:541:N:9862, V-A:GLU:543:CD:4908, V-A:GLU:543:CG:4907, V-B:HIS:456:CE1:9041, V-B:GLU:543:CB:9877, V-A:TYR:484:CZ:4346, V-A:HIS:456:CE1:4069, V-B:GLU:543:CG:9878, V-B:GLU:543:CD:9879, V-A:TYR:484:CE1:4344, V-A:HIS:456:CD2:4067, V-B:LEU:475:CD1:9229, V-B:GLY:454:CA:9020, V-B:ARG:545:CZ:9897, H-B:GLY:454:N:9021, V-B:ILE:369:CD1:8210, H-B:LYS:547:NZ:9922, V-B:LYS:547:CE:9921, V-B:GLU:543:C:9873, V-B:GLY:544:C:9883"]

$$$$
1c_Ghoteimi_2023
     RDKit          3D

 34 37  0  0  0  0  0  0  0  0999 V2000
  129.8920  125.0850   74.3980 C   0  0  0  0  0  0  0  0  0  0  0  0
  128.8180  125.8610   73.8770 O   0  0  0  0  0  0  0  0  0  0  0  0
  128.8290  126.2190   72.5430 C   0  0  0  0  0  0  0  0  0  0  0  0
  128.0440  125.4550   71.6840 C   0  0  0  0  0  0  0  0  0  0  0  0
  127.9970  125.7440   70.3230 C   0  0  0  0  0  0  0  0  0  0  0  0
  128.7360  126.8060   69.7800 C   0  0  0  0  0  0  0  0  0  0  0  0
  128.6920  127.1180   68.3120 C   0  0  0  0  0  0  0  0  0  0  0  0
  127.8880  128.1300   67.7770 C   0  0  0  0  0  0  0  0  0  0  0  0
  127.9000  128.4020   66.4040 C   0  0  0  0  0  0  0  0  0  0  0  0
  127.0680  129.5390   65.9120 C   0  0  0  0  0  0  0  0  0  0  0  0
  125.6730  129.4680   65.9480 C   0  0  0  0  0  0  0  0  0  0  0  0
  124.8990  130.5200   65.4690 C   0  0  0  0  0  0  0  0  0  0  0  0
  125.5030  131.6610   64.9420 C   0  0  0  0  0  0  0  0  0  0  0  0
  124.6560  132.6550   64.4900 O   0  0  0  0  0  0  0  0  0  0  0  0
  124.2460  132.6510   63.1260 C   0  0  0  0  0  0  0  0  0  0  0  0
  126.9040  131.7340   64.8980 C   0  0  0  0  0  0  0  0  0  0  0  0
  127.6760  130.6800   65.3770 C   0  0  0  0  0  0  0  0  0  0  0  0
  128.7230  127.6100   65.5680 C   0  0  0  0  0  0  0  0  0  0  0  0
  128.7560  127.8220   64.1170 C   0  0  0  0  0  0  0  0  0  0  0  0
  128.7810  127.9910   62.9720 N   0  0  0  0  0  0  0  0  0  0  0  0
  129.5210  126.6180   66.1750 C   0  0  0  0  0  0  0  0  0  0  0  0
  130.7240  125.6660   65.2730 S   0  0  0  0  0  0  0  0  0  0  0  0
  130.1210  123.9490   65.3610 C   0  0  0  0  0  0  0  0  0  0  0  0
  129.7190  123.4060   63.9850 C   0  0  0  0  0  0  0  0  0  0  0  0
  130.2840  122.4070   63.5370 O   0  0  0  0  0  0  0  0  0  0  0  0
  128.7120  124.0700   63.3760 N   0  0  0  0  0  0  0  0  0  0  0  0
  128.0610  123.6980   62.2100 C   0  0  0  0  0  0  0  0  0  0  0  0
  126.7780  123.4590   62.0420 N   0  0  0  0  0  0  0  0  0  0  0  0
  126.5010  123.1680   60.7860 C   0  0  0  0  0  0  0  0  0  0  0  0
  127.5760  123.1690   59.9030 C   0  0  0  0  0  0  0  0  0  0  0  0
  129.0250  123.5720   60.7740 S   0  0  0  0  0  0  0  0  0  0  0  0
  129.5100  126.3870   67.5100 N   0  0  0  0  0  0  0  0  0  0  0  0
  129.5180  127.5740   70.6560 C   0  0  0  0  0  0  0  0  0  0  0  0
  129.5690  127.2880   72.0170 C   0  0  0  0  0  0  0  0  0  0  0  0
  1  2  1  0
  2  3  1  0
  3  4  2  0
  4  5  1  0
  5  6  2  0
  6  7  1  0
  7  8  2  0
  8  9  1  0
  9 10  1  0
 10 11  2  0
 11 12  1  0
 12 13  2  0
 13 14  1  0
 14 15  1  0
 13 16  1  0
 16 17  2  0
  9 18  2  0
 18 19  1  0
 19 20  3  0
 18 21  1  0
 21 22  1  0
 22 23  1  0
 23 24  1  0
 24 25  2  0
 24 26  1  0
 26 27  1  0
 27 28  2  0
 28 29  1  0
 29 30  2  0
 30 31  1  0
 21 32  2  0
  6 33  1  0
 33 34  2  0
 34  3  1  0
 32  7  1  0
 17 10  1  0
 31 27  1  0
M  END
>  <Binding energies>  (3) 
[-8.5]

>  <Ligand effiencies>  (3) 
[-0.24285714285714285]

>  <Interactions>  (3) 
["V-B:PRO:540:CA:9854, V-B:PRO:540:CB:9856, V-B:ALA:541:CB:9863, H-B:GLU:543:OE2:9881, H-B:ALA:541:N:9862, V-A:GLU:543:CD:4908, V-A:GLU:543:CG:4907, V-B:HIS:456:CE1:9041, V-B:GLU:543:CB:9877, V-A:HIS:456:CE1:4069, V-B:GLU:543:CG:9878, V-B:GLU:543:CD:9879, V-A:TYR:484:CE1:4344, V-A:HIS:456:CD2:4067, V-B:PRO:540:C:9852, V-B:LEU:475:CD1:9229, V-B:GLY:454:CA:9020, H-B:GLY:454:N:9021, H-B:LYS:547:NZ:9922, V-B:LYS:547:CE:9921, V-B:GLU:543:C:9873, V-B:GLY:544:C:9883"]

$$$$
1d_Ghoteimi_2023
     RDKit          3D

 30 32  0  0  0  0  0  0  0  0999 V2000
  133.7450  125.3690   63.6240 C   0  0  0  0  0  0  0  0  0  0  0  0
  133.5570  124.6610   64.8390 O   0  0  0  0  0  0  0  0  0  0  0  0
  133.9510  125.1980   66.0130 C   0  0  0  0  0  0  0  0  0  0  0  0
  135.0430  125.0340   66.5590 O   0  0  0  0  0  0  0  0  0  0  0  0
  132.8690  126.0690   66.6440 C   0  0  0  0  0  0  0  0  0  0  0  0
  131.3070  125.7080   65.7880 S   0  0  0  0  0  0  0  0  0  0  0  0
  130.0350  126.6460   66.6070 C   0  0  0  0  0  0  0  0  0  0  0  0
  129.9890  126.4490   67.9460 N   0  0  0  0  0  0  0  0  0  0  0  0
  129.0620  127.1000   68.6950 C   0  0  0  0  0  0  0  0  0  0  0  0
  129.0820  126.8310   70.1720 C   0  0  0  0  0  0  0  0  0  0  0  0
  128.3780  125.7500   70.7250 C   0  0  0  0  0  0  0  0  0  0  0  0
  128.3920  125.5060   72.0940 C   0  0  0  0  0  0  0  0  0  0  0  0
  129.1090  126.3340   72.9550 C   0  0  0  0  0  0  0  0  0  0  0  0
  129.0630  126.0180   74.2990 O   0  0  0  0  0  0  0  0  0  0  0  0
  130.0870  125.2000   74.8540 C   0  0  0  0  0  0  0  0  0  0  0  0
  129.8170  127.4180   72.4180 C   0  0  0  0  0  0  0  0  0  0  0  0
  129.8010  127.6580   71.0470 C   0  0  0  0  0  0  0  0  0  0  0  0
  128.1570  127.9850   68.0970 C   0  0  0  0  0  0  0  0  0  0  0  0
  128.1720  128.1950   66.7130 C   0  0  0  0  0  0  0  0  0  0  0  0
  127.1730  129.1480   66.1400 C   0  0  0  0  0  0  0  0  0  0  0  0
  127.5510  130.0470   65.1390 C   0  0  0  0  0  0  0  0  0  0  0  0
  126.6250  130.9370   64.6010 C   0  0  0  0  0  0  0  0  0  0  0  0
  125.3040  130.9420   65.0470 C   0  0  0  0  0  0  0  0  0  0  0  0
  124.4570  131.8630   64.4610 O   0  0  0  0  0  0  0  0  0  0  0  0
  124.1170  131.7190   63.0870 C   0  0  0  0  0  0  0  0  0  0  0  0
  124.9160  130.0320   66.0420 C   0  0  0  0  0  0  0  0  0  0  0  0
  125.8440  129.1430   66.5780 C   0  0  0  0  0  0  0  0  0  0  0  0
  129.1250  127.4920   65.9340 C   0  0  0  0  0  0  0  0  0  0  0  0
  129.1180  127.5950   64.4720 C   0  0  0  0  0  0  0  0  0  0  0  0
  129.1120  127.6770   63.3170 N   0  0  0  0  0  0  0  0  0  0  0  0
  1  2  1  0
  2  3  1  0
  3  4  2  0
  3  5  1  0
  5  6  1  0
  6  7  1  0
  7  8  2  0
  8  9  1  0
  9 10  1  0
 10 11  2  0
 11 12  1  0
 12 13  2  0
 13 14  1  0
 14 15  1  0
 13 16  1  0
 16 17  2  0
  9 18  2  0
 18 19  1  0
 19 20  1  0
 20 21  2  0
 21 22  1  0
 22 23  2  0
 23 24  1  0
 24 25  1  0
 23 26  1  0
 26 27  2  0
 19 28  2  0
 28 29  1  0
 29 30  3  0
 28  7  1  0
 17 10  1  0
 27 20  1  0
M  END
>  <Binding energies>  (4) 
[-8.39]

>  <Ligand effiencies>  (4) 
[-0.2796666666666667]

>  <Interactions>  (4) 
["H-A:GLY:454:N:4049, H-A:ARG:545:NE:4924, H-A:TYR:484:OH:4347, V-A:ARG:545:CZ:4926, V-A:GLU:543:CD:4908, V-A:GLU:543:CG:4907, V-B:HIS:456:CE1:9041, V-A:HIS:456:CE1:4069, V-B:GLU:543:CD:9879, V-A:ARG:545:CG:4922, V-A:ARG:545:CD:4923, V-A:GLY:454:CA:4048, V-B:GLY:454:CA:9020, H-B:GLY:454:N:9021, H-B:LYS:547:NZ:9922, V-B:GLU:543:C:9873, H-A:ILE:455:N:4054"]

$$$$
1j_Grossjean_2025
     RDKit          3D

 20 21  0  0  0  0  0  0  0  0999 V2000
  126.7640  128.4840   58.7760 C   0  0  0  0  0  0  0  0  0  0  0  0
  126.7180  127.0690   58.2280 C   0  0  0  0  0  0  0  0  0  0  0  0
  127.7830  126.5310   57.5090 C   0  0  0  0  0  0  0  0  0  0  0  0
  127.6910  125.2180   57.0390 C   0  0  0  0  0  0  0  0  0  0  0  0
  128.8790  124.6430   56.2680 C   0  0  0  0  0  0  0  0  0  0  0  0
  126.5180  124.4720   57.2970 C   0  0  0  0  0  0  0  0  0  0  0  0
  126.4210  123.0770   56.8610 C   0  0  0  0  0  0  0  0  0  0  0  0
  126.3480  121.9750   56.5150 N   0  0  0  0  0  0  0  0  0  0  0  0
  125.4760  125.1080   58.0130 C   0  0  0  0  0  0  0  0  0  0  0  0
  123.9330  124.3220   58.4240 S   0  0  0  0  0  0  0  0  0  0  0  0
  123.8940  124.0890   60.2260 C   0  0  0  0  0  0  0  0  0  0  0  0
  125.2980  124.0830   60.8340 C   0  0  0  0  0  0  0  0  0  0  0  0
  125.7710  123.0250   61.2520 O   0  0  0  0  0  0  0  0  0  0  0  0
  125.9260  125.2790   60.8620 N   0  0  0  0  0  0  0  0  0  0  0  0
  127.1940  125.5370   61.3650 C   0  0  0  0  0  0  0  0  0  0  0  0
  127.6380  126.6570   61.8950 N   0  0  0  0  0  0  0  0  0  0  0  0
  128.8980  126.5470   62.2700 C   0  0  0  0  0  0  0  0  0  0  0  0
  129.5020  125.3130   62.0460 C   0  0  0  0  0  0  0  0  0  0  0  0
  128.3490  124.2450   61.3040 S   0  0  0  0  0  0  0  0  0  0  0  0
  125.5840  126.3760   58.4830 N   0  0  0  0  0  0  0  0  0  0  0  0
  1  2  1  0
  2  3  2  0
  3  4  1  0
  4  5  1  0
  4  6  2  0
  6  7  1  0
  7  8  3  0
  6  9  1  0
  9 10  1  0
 10 11  1  0
 11 12  1  0
 12 13  2  0
 12 14  1  0
 14 15  1  0
 15 16  2  0
 16 17  1  0
 17 18  2  0
 18 19  1  0
  9 20  2  0
 20  2  1  0
 19 15  1  0
M  END
>  <Binding energies>  (5) 
[-5.76]

>  <Ligand effiencies>  (5) 
[-0.2742857142857143]

>  <Interactions>  (5) 
["H-B:ASP:366:OD2:8186, V-B:PRO:540:CA:9854, V-B:PRO:540:CB:9856, V-B:PRO:540:N:9855, V-B:TYR:539:CE1:9846, H-B:TYR:531:OH:9766, H-B:ALA:541:N:9862, V-B:TYR:539:CZ:9848, V-B:LEU:363:CA:8156, V-B:ASN:362:CB:8147, V-B:ASP:366:CG:8184, V-B:ASN:362:C:8143, H-B:TYR:539:N:9841"]

$$$$
1o_Grossjean_2025
     RDKit          3D

 26 27  0  0  0  0  0  0  0  0999 V2000
  129.6770  129.8970   73.5130 C   0  0  0  0  0  0  0  0  0  0  0  0
  130.1660  128.5700   73.6490 O   0  0  0  0  0  0  0  0  0  0  0  0
  129.4620  127.5130   73.1700 C   0  0  0  0  0  0  0  0  0  0  0  0
  128.7500  126.7920   73.8770 O   0  0  0  0  0  0  0  0  0  0  0  0
  129.6300  127.3080   71.6920 C   0  0  0  0  0  0  0  0  0  0  0  0
  130.5840  128.0170   70.9480 C   0  0  0  0  0  0  0  0  0  0  0  0
  130.7170  127.8020   69.5790 C   0  0  0  0  0  0  0  0  0  0  0  0
  129.8980  126.8810   68.9250 C   0  0  0  0  0  0  0  0  0  0  0  0
  130.1230  126.7350   67.5420 N   0  0  0  0  0  0  0  0  0  0  0  0
  130.0690  125.6290   66.7670 C   0  0  0  0  0  0  0  0  0  0  0  0
  129.7530  124.5050   67.1570 O   0  0  0  0  0  0  0  0  0  0  0  0
  130.4070  125.8430   65.2850 C   0  0  0  0  0  0  0  0  0  0  0  0
  131.9030  126.1150   65.0330 C   0  0  0  0  0  0  0  0  0  0  0  0
  132.9150  124.6110   64.8990 S   0  0  0  0  0  0  0  0  0  0  0  0
  132.5500  123.8220   63.3440 C   0  0  0  0  0  0  0  0  0  0  0  0
  133.1410  124.4240   62.2810 N   0  0  0  0  0  0  0  0  0  0  0  0
  132.9420  123.9070   61.0460 C   0  0  0  0  0  0  0  0  0  0  0  0
  133.6460  124.6240   59.9100 C   0  0  0  0  0  0  0  0  0  0  0  0
  132.1450  122.7870   60.8200 C   0  0  0  0  0  0  0  0  0  0  0  0
  131.5100  122.1740   61.9050 C   0  0  0  0  0  0  0  0  0  0  0  0
  130.6290  120.9570   61.6290 C   0  0  0  0  0  0  0  0  0  0  0  0
  131.6990  122.6990   63.2040 C   0  0  0  0  0  0  0  0  0  0  0  0
  130.9960  122.1070   64.3440 C   0  0  0  0  0  0  0  0  0  0  0  0
  130.4400  121.6360   65.2430 N   0  0  0  0  0  0  0  0  0  0  0  0
  128.9450  126.1640   69.6630 C   0  0  0  0  0  0  0  0  0  0  0  0
  128.8140  126.3790   71.0320 C   0  0  0  0  0  0  0  0  0  0  0  0
  1  2  1  0
  2  3  1  0
  3  4  2  0
  3  5  1  0
  5  6  2  0
  6  7  1  0
  7  8  2  0
  8  9  1  0
  9 10  1  0
 10 11  2  0
 10 12  1  0
 12 13  1  0
 13 14  1  0
 14 15  1  0
 15 16  2  0
 16 17  1  0
 17 18  1  0
 17 19  2  0
 19 20  1  0
 20 21  1  0
 20 22  2  0
 22 23  1  0
 23 24  3  0
  8 25  1  0
 25 26  2  0
 26  5  1  0
 22 15  1  0
M  END
>  <Binding energies>  (6) 
[-7.39]

>  <Ligand effiencies>  (6) 
[-0.27370370370370367]

>  <Interactions>  (6) 
["V-B:TYR:539:CE2:9847, V-B:ALA:541:CB:9863, V-A:LEU:475:CD2:4258, H-A:GLY:454:N:4049, V-A:ASP:366:CG:3212, V-A:ILE:369:CD1:3238, V-A:ASP:366:CB:3211, V-A:ASP:366:CA:3209, V-A:ILE:369:CG2:3236, H-A:TYR:484:OH:4347, H-A:GLU:543:OE2:4910, V-A:ARG:545:CZ:4926, V-A:GLU:543:CD:4908, V-A:GLU:543:CB:4906, V-B:HIS:456:CE1:9041, V-B:GLU:543:CB:9877, V-A:HIS:456:CE1:4069, V-B:GLU:543:CG:9878, V-B:GLU:543:CD:9879, V-A:LEU:475:CD1:4257, H-B:LYS:547:NZ:9922, V-A:ILE:369:CB:3235, H-A:LYS:547:NZ:4951, V-A:LYS:547:CE:4950"]

$$$$
1p_Grossjean_2025
     RDKit          3D

 21 22  0  0  0  0  0  0  0  0999 V2000
  125.0010  123.6430   62.7490 C   0  0  0  0  0  0  0  0  0  0  0  0
  125.5110  123.5680   61.3220 C   0  0  0  0  0  0  0  0  0  0  0  0
  124.7080  123.9310   60.2420 C   0  0  0  0  0  0  0  0  0  0  0  0
  125.2250  123.8290   58.9460 C   0  0  0  0  0  0  0  0  0  0  0  0
  124.3220  124.2190   57.7770 C   0  0  0  0  0  0  0  0  0  0  0  0
  126.5480  123.3690   58.7640 C   0  0  0  0  0  0  0  0  0  0  0  0
  127.0960  123.2070   57.4160 C   0  0  0  0  0  0  0  0  0  0  0  0
  127.5270  123.0810   56.3500 N   0  0  0  0  0  0  0  0  0  0  0  0
  127.2980  123.0440   59.9190 C   0  0  0  0  0  0  0  0  0  0  0  0
  128.9780  122.4600   59.8700 S   0  0  0  0  0  0  0  0  0  0  0  0
  129.3320  121.7390   61.5000 C   0  0  0  0  0  0  0  0  0  0  0  0
  130.8300  121.4800   61.7520 C   0  0  0  0  0  0  0  0  0  0  0  0
  131.3710  122.1800   63.0070 C   0  0  0  0  0  0  0  0  0  0  0  0
  131.1710  121.6800   64.1160 O   0  0  0  0  0  0  0  0  0  0  0  0
  132.0600  123.3220   62.7880 N   0  0  0  0  0  0  0  0  0  0  0  0
  132.6520  124.1430   63.7400 C   0  0  0  0  0  0  0  0  0  0  0  0
  131.9710  124.6250   64.8570 C   0  0  0  0  0  0  0  0  0  0  0  0
  132.8940  125.3860   65.5380 C   0  0  0  0  0  0  0  0  0  0  0  0
  134.0680  125.3650   64.8640 O   0  0  0  0  0  0  0  0  0  0  0  0
  133.9020  124.5740   63.7260 N   0  0  0  0  0  0  0  0  0  0  0  0
  126.7810  123.1260   61.1710 N   0  0  0  0  0  0  0  0  0  0  0  0
  1  2  1  0
  2  3  2  0
  3  4  1  0
  4  5  1  0
  4  6  2  0
  6  7  1  0
  7  8  3  0
  6  9  1  0
  9 10  1  0
 10 11  1  0
 11 12  1  0
 12 13  1  0
 13 14  2  0
 13 15  1  0
 15 16  1  0
 16 17  1  0
 17 18  2  0
 18 19  1  0
 19 20  1  0
  9 21  2  0
 21  2  1  0
 20 16  2  0
M  END
>  <Binding energies>  (7) 
[-7.64]

>  <Ligand effiencies>  (7) 
[-0.34727272727272723]

>  <Interactions>  (7) 
["V-B:PRO:540:CA:9854, V-B:LEU:363:CD1:8160, V-B:PRO:540:CB:9856, V-B:ALA:541:CB:9863, V-A:LEU:475:CD2:4258, V-B:PRO:540:N:9855, V-B:ALA:541:CA:9861, H-B:ALA:541:N:9862, H-A:ARG:545:NH2:4928, H-A:GLY:454:N:4049, H-A:ARG:545:NE:4924, H-A:ARG:545:NH1:4927, H-A:TYR:484:OH:4347, V-A:ARG:545:CZ:4926, V-B:LEU:363:CA:8156, V-B:TYR:531:CE2:9764, V-B:GLU:543:CG:9878, V-B:GLU:543:CD:9879, V-B:ASN:362:CB:8147, V-B:ALA:541:C:9859, V-B:ASN:362:CG:8148"]

$$$$
2a_Ghoteimi_2023
     RDKit          3D

 48 53  0  0  0  0  0  0  0  0999 V2000
  133.6020  131.0250   58.4980 C   0  0  0  0  0  0  0  0  0  0  0  0
  132.1530  131.1790   58.0260 C   0  0  0  0  0  0  0  0  0  0  0  0
  131.7190  132.5120   58.2640 O   0  0  0  0  0  0  0  0  0  0  0  0
  130.4080  132.8520   58.1610 C   0  0  0  0  0  0  0  0  0  0  0  0
  129.8950  133.2720   57.1190 O   0  0  0  0  0  0  0  0  0  0  0  0
  129.6440  132.6590   59.4400 C   0  0  0  0  0  0  0  0  0  0  0  0
  128.2520  132.8230   59.5040 C   0  0  0  0  0  0  0  0  0  0  0  0
  127.5740  132.6360   60.7050 C   0  0  0  0  0  0  0  0  0  0  0  0
  128.2680  132.2770   61.8620 C   0  0  0  0  0  0  0  0  0  0  0  0
  127.4830  132.1180   63.0200 N   0  0  0  0  0  0  0  0  0  0  0  0
  126.1960  132.4610   63.2480 C   0  0  0  0  0  0  0  0  0  0  0  0
  125.4670  133.0470   62.4460 O   0  0  0  0  0  0  0  0  0  0  0  0
  125.6630  132.1060   64.6420 C   0  0  0  0  0  0  0  0  0  0  0  0
  125.1070  130.3800   64.8190 S   0  0  0  0  0  0  0  0  0  0  0  0
  126.5900  129.4110   64.9640 C   0  0  0  0  0  0  0  0  0  0  0  0
  126.9720  129.1810   66.2420 N   0  0  0  0  0  0  0  0  0  0  0  0
  128.0960  128.4600   66.4830 C   0  0  0  0  0  0  0  0  0  0  0  0
  128.4610  128.2550   67.9180 C   0  0  0  0  0  0  0  0  0  0  0  0
  128.4670  126.9760   68.4890 C   0  0  0  0  0  0  0  0  0  0  0  0
  128.7960  126.7920   69.8290 C   0  0  0  0  0  0  0  0  0  0  0  0
  129.1410  127.8780   70.6470 C   0  0  0  0  0  0  0  0  0  0  0  0
  129.4410  127.6810   71.9990 N   0  0  0  0  0  0  0  0  0  0  0  0
  129.1270  128.7070   73.0140 C   0  0  0  0  0  0  0  0  0  0  0  0
  129.1880  128.1850   74.4650 C   0  0  0  0  0  0  0  0  0  0  0  0
  130.4510  127.5920   74.7160 O   0  0  0  0  0  0  0  0  0  0  0  0
  130.6880  126.4930   73.8520 C   0  0  0  0  0  0  0  0  0  0  0  0
  130.6730  126.9610   72.3810 C   0  0  0  0  0  0  0  0  0  0  0  0
  129.1220  129.1590   70.0720 C   0  0  0  0  0  0  0  0  0  0  0  0
  128.7950  129.3420   68.7320 C   0  0  0  0  0  0  0  0  0  0  0  0
  128.8580  127.9380   65.4350 C   0  0  0  0  0  0  0  0  0  0  0  0
  128.4820  128.1630   64.1030 C   0  0  0  0  0  0  0  0  0  0  0  0
  129.3470  127.5820   63.0310 C   0  0  0  0  0  0  0  0  0  0  0  0
  129.3910  126.1990   62.8370 C   0  0  0  0  0  0  0  0  0  0  0  0
  130.2070  125.6460   61.8550 C   0  0  0  0  0  0  0  0  0  0  0  0
  131.0030  126.4610   61.0350 C   0  0  0  0  0  0  0  0  0  0  0  0
  131.8430  125.9250   60.0550 N   0  0  0  0  0  0  0  0  0  0  0  0
  131.3370  125.7630   58.6770 C   0  0  0  0  0  0  0  0  0  0  0  0
  132.4570  125.5410   57.6380 C   0  0  0  0  0  0  0  0  0  0  0  0
  133.2570  124.4310   58.0160 O   0  0  0  0  0  0  0  0  0  0  0  0
  133.8670  124.6290   59.2810 C   0  0  0  0  0  0  0  0  0  0  0  0
  132.7860  124.8320   60.3630 C   0  0  0  0  0  0  0  0  0  0  0  0
  130.9610  127.8470   61.2440 C   0  0  0  0  0  0  0  0  0  0  0  0
  130.1460  128.3990   62.2270 C   0  0  0  0  0  0  0  0  0  0  0  0
  127.3100  128.9170   63.8530 C   0  0  0  0  0  0  0  0  0  0  0  0
  126.8350  129.1370   62.4830 C   0  0  0  0  0  0  0  0  0  0  0  0
  126.4640  129.3110   61.4010 N   0  0  0  0  0  0  0  0  0  0  0  0
  129.6600  132.1200   61.8070 C   0  0  0  0  0  0  0  0  0  0  0  0
  130.3380  132.3060   60.6050 C   0  0  0  0  0  0  0  0  0  0  0  0
  1  2  1  0
  2  3  1  0
  3  4  1  0
  4  5  2  0
  4  6  1  0
  6  7  2  0
  7  8  1  0
  8  9  2  0
  9 10  1  0
 10 11  1  0
 11 12  2  0
 11 13  1  0
 13 14  1  0
 14 15  1  0
 15 16  2  0
 16 17  1  0
 17 18  1  0
 18 19  2  0
 19 20  1  0
 20 21  2  0
 21 22  1  0
 22 23  1  0
 23 24  1  0
 24 25  1  0
 25 26  1  0
 26 27  1  0
 21 28  1  0
 28 29  2  0
 17 30  2  0
 30 31  1  0
 31 32  1  0
 32 33  2  0
 33 34  1  0
 34 35  2  0
 35 36  1  0
 36 37  1  0
 37 38  1  0
 38 39  1  0
 39 40  1  0
 40 41  1  0
 35 42  1  0
 42 43  2  0
 31 44  2  0
 44 45  1  0
 45 46  3  0
  9 47  1  0
 47 48  2  0
 48  6  1  0
 44 15  1  0
 29 18  1  0
 43 32  1  0
 27 22  1  0
 41 36  1  0
M  END
>  <Binding energies>  (8) 
[-9.78]

>  <Ligand effiencies>  (8) 
[-0.19959183673469386]

>  <Interactions>  (8) 
["V-A:ASP:366:CG:3212, V-A:ILE:369:CD1:3238, V-A:ASP:366:CB:3211, V-A:ASP:366:CA:3209, V-A:ILE:369:CG2:3236, H-B:TYR:539:OH:9849, V-A:GLU:543:CD:4908, V-A:GLU:543:CG:4907, V-A:GLU:543:CB:4906, V-B:HIS:456:CE1:9041, V-B:GLU:543:CB:9877, V-A:HIS:456:CE1:4069, V-B:HIS:456:CD2:9039, V-A:ASP:366:C:3207, V-B:GLU:543:CD:9879, V-A:HIS:456:CD2:4067, V-A:PRO:540:N:4884, V-A:LEU:363:CD1:3188, V-A:TYR:539:C:4867, H-A:TYR:539:N:4870, V-A:LEU:363:CA:3184, V-A:PRO:540:CA:4883, V-A:TYR:539:CE2:4876, V-A:TYR:539:CD2:4874, V-A:TYR:531:CZ:4794, V-A:PRO:540:CB:4885, V-A:ALA:541:CB:4892, V-B:LEU:475:CD1:9229, V-B:GLY:454:CA:9020, V-A:ILE:369:CB:3235, V-A:HIS:456:CG:4065, H-A:LYS:547:NZ:4951"]

$$$$
2aa_Ghoteimi_2023
     RDKit          3D

 48 53  0  0  0  0  0  0  0  0999 V2000
  130.5730  132.8550   56.9320 C   0  0  0  0  0  0  0  0  0  0  0  0
  132.1030  132.8450   56.8460 C   0  0  0  0  0  0  0  0  0  0  0  0
  132.5720  131.5070   56.9510 O   0  0  0  0  0  0  0  0  0  0  0  0
  133.1830  131.0640   58.0810 C   0  0  0  0  0  0  0  0  0  0  0  0
  134.3810  130.7670   58.1340 O   0  0  0  0  0  0  0  0  0  0  0  0
  132.2600  130.9860   59.2630 C   0  0  0  0  0  0  0  0  0  0  0  0
  132.4790  131.7400   60.4250 C   0  0  0  0  0  0  0  0  0  0  0  0
  131.6030  131.6500   61.5020 C   0  0  0  0  0  0  0  0  0  0  0  0
  130.4970  130.7990   61.4450 C   0  0  0  0  0  0  0  0  0  0  0  0
  129.6760  130.7870   62.5890 N   0  0  0  0  0  0  0  0  0  0  0  0
  128.3610  130.5020   62.7070 C   0  0  0  0  0  0  0  0  0  0  0  0
  127.6250  130.1590   61.7800 O   0  0  0  0  0  0  0  0  0  0  0  0
  127.8090  130.6130   64.1340 C   0  0  0  0  0  0  0  0  0  0  0  0
  127.2500  129.3560   64.5330 O   0  0  0  0  0  0  0  0  0  0  0  0
  128.0460  128.4080   65.1610 C   0  0  0  0  0  0  0  0  0  0  0  0
  128.1890  128.4870   66.5140 N   0  0  0  0  0  0  0  0  0  0  0  0
  128.9560  127.5740   67.1600 C   0  0  0  0  0  0  0  0  0  0  0  0
  129.0720  127.7270   68.6440 C   0  0  0  0  0  0  0  0  0  0  0  0
  129.0720  128.9950   69.2330 C   0  0  0  0  0  0  0  0  0  0  0  0
  129.1720  129.1430   70.6150 C   0  0  0  0  0  0  0  0  0  0  0  0
  129.2630  128.0260   71.4590 C   0  0  0  0  0  0  0  0  0  0  0  0
  129.3770  128.1570   72.8480 N   0  0  0  0  0  0  0  0  0  0  0  0
  128.7560  129.2870   73.5690 C   0  0  0  0  0  0  0  0  0  0  0  0
  129.2730  129.4660   75.0110 C   0  0  0  0  0  0  0  0  0  0  0  0
  129.1190  128.2570   75.7360 O   0  0  0  0  0  0  0  0  0  0  0  0
  129.8520  127.1970   75.1400 C   0  0  0  0  0  0  0  0  0  0  0  0
  129.3510  126.9510   73.7010 C   0  0  0  0  0  0  0  0  0  0  0  0
  129.2840  126.7570   70.8620 C   0  0  0  0  0  0  0  0  0  0  0  0
  129.1860  126.6100   69.4810 C   0  0  0  0  0  0  0  0  0  0  0  0
  129.6170  126.5600   66.4600 C   0  0  0  0  0  0  0  0  0  0  0  0
  129.4950  126.4630   65.0680 C   0  0  0  0  0  0  0  0  0  0  0  0
  130.2450  125.3730   64.3720 C   0  0  0  0  0  0  0  0  0  0  0  0
  131.2500  125.6850   63.4520 C   0  0  0  0  0  0  0  0  0  0  0  0
  131.9390  124.6750   62.7850 C   0  0  0  0  0  0  0  0  0  0  0  0
  131.6330  123.3240   63.0090 C   0  0  0  0  0  0  0  0  0  0  0  0
  132.3140  122.2940   62.3540 N   0  0  0  0  0  0  0  0  0  0  0  0
  131.5900  121.2490   61.6050 C   0  0  0  0  0  0  0  0  0  0  0  0
  132.4980  120.4210   60.6710 C   0  0  0  0  0  0  0  0  0  0  0  0
  133.5730  119.8620   61.4100 O   0  0  0  0  0  0  0  0  0  0  0  0
  134.3680  120.8680   62.0190 C   0  0  0  0  0  0  0  0  0  0  0  0
  133.5100  121.7050   62.9890 C   0  0  0  0  0  0  0  0  0  0  0  0
  130.6280  123.0210   63.9390 C   0  0  0  0  0  0  0  0  0  0  0  0
  129.9400  124.0300   64.6060 C   0  0  0  0  0  0  0  0  0  0  0  0
  128.6750  127.4040   64.4040 C   0  0  0  0  0  0  0  0  0  0  0  0
  128.4490  127.3490   62.9570 C   0  0  0  0  0  0  0  0  0  0  0  0
  128.2710  127.3050   61.8150 N   0  0  0  0  0  0  0  0  0  0  0  0
  130.2680  130.0460   60.2850 C   0  0  0  0  0  0  0  0  0  0  0  0
  131.1430  130.1420   59.2070 C   0  0  0  0  0  0  0  0  0  0  0  0
  1  2  1  0
  2  3  1  0
  3  4  1  0
  4  5  2  0
  4  6  1  0
  6  7  2  0
  7  8  1  0
  8  9  2  0
  9 10  1  0
 10 11  1  0
 11 12  2  0
 11 13  1  0
 13 14  1  0
 14 15  1  0
 15 16  2  0
 16 17  1  0
 17 18  1  0
 18 19  2  0
 19 20  1  0
 20 21  2  0
 21 22  1  0
 22 23  1  0
 23 24  1  0
 24 25  1  0
 25 26  1  0
 26 27  1  0
 21 28  1  0
 28 29  2  0
 17 30  2  0
 30 31  1  0
 31 32  1  0
 32 33  2  0
 33 34  1  0
 34 35  2  0
 35 36  1  0
 36 37  1  0
 37 38  1  0
 38 39  1  0
 39 40  1  0
 40 41  1  0
 35 42  1  0
 42 43  2  0
 31 44  2  0
 44 45  1  0
 45 46  3  0
  9 47  1  0
 47 48  2  0
 48  6  1  0
 44 15  1  0
 29 18  1  0
 43 32  1  0
 27 22  1  0
 41 36  1  0
M  END
>  <Binding energies>  (9) 
[-8.52]

>  <Ligand effiencies>  (9) 
[-0.17387755102040817]

>  <Interactions>  (9) 
["V-B:TYR:539:CE2:9847, V-B:TYR:539:CD2:9845, V-B:ALA:541:CB:9863, V-A:LEU:475:CD2:4258, V-A:ASP:366:CG:3212, V-A:ILE:369:CD1:3238, V-A:ASP:366:CB:3211, V-A:ILE:369:CG2:3236, V-A:GLU:543:CD:4908, V-A:GLU:543:CG:4907, V-A:GLU:543:CB:4906, V-B:HIS:456:CE1:9041, V-A:HIS:456:CE1:4069, V-B:GLU:543:CG:9878, V-B:HIS:456:CD2:9039, V-B:GLU:543:CD:9879, V-A:PRO:540:N:4884, V-A:LEU:363:CD1:3188, V-A:TYR:539:C:4867, V-A:LEU:363:CA:3184, V-A:PRO:540:CA:4883, H-A:GLU:543:OE1:4909, V-A:PRO:540:CD:4887, V-A:PRO:540:CB:4885, V-A:GLY:454:CA:4048, V-A:TRP:381:CH2:3371, V-A:ILE:369:CG1:3237, V-A:LYS:547:CE:4950, V-A:SER:385:C:3404, H-A:LEU:363:N:3185"]

$$$$
2b_Ghoteimi_2023
     RDKit          3D

 42 47  0  0  0  0  0  0  0  0999 V2000
  129.4130  123.1530   66.1520 N   0  0  0  0  0  0  0  0  0  0  0  0
  129.4880  124.0470   65.4210 C   0  0  0  0  0  0  0  0  0  0  0  0
  129.5850  125.1830   64.4990 C   0  0  0  0  0  0  0  0  0  0  0  0
  129.6170  126.5110   64.9940 C   0  0  0  0  0  0  0  0  0  0  0  0
  129.5580  126.8580   66.4460 C   0  0  0  0  0  0  0  0  0  0  0  0
  130.6760  126.6700   67.2600 C   0  0  0  0  0  0  0  0  0  0  0  0
  130.6270  126.9910   68.6140 C   0  0  0  0  0  0  0  0  0  0  0  0
  129.4500  127.4920   69.1940 C   0  0  0  0  0  0  0  0  0  0  0  0
  129.3800  127.8320   70.5460 N   0  0  0  0  0  0  0  0  0  0  0  0
  129.4630  126.7640   71.5620 C   0  0  0  0  0  0  0  0  0  0  0  0
  128.9980  127.2160   72.9630 C   0  0  0  0  0  0  0  0  0  0  0  0
  129.7220  128.3670   73.3710 O   0  0  0  0  0  0  0  0  0  0  0  0
  129.5330  129.4500   72.4740 C   0  0  0  0  0  0  0  0  0  0  0  0
  130.0210  129.0570   71.0650 C   0  0  0  0  0  0  0  0  0  0  0  0
  128.3320  127.6730   68.3690 C   0  0  0  0  0  0  0  0  0  0  0  0
  128.3820  127.3560   67.0140 C   0  0  0  0  0  0  0  0  0  0  0  0
  129.7150  127.5630   64.0760 C   0  0  0  0  0  0  0  0  0  0  0  0
  129.8110  127.3000   62.7060 C   0  0  0  0  0  0  0  0  0  0  0  0
  129.9480  128.3860   61.6870 C   0  0  0  0  0  0  0  0  0  0  0  0
  130.3710  128.0950   60.3860 C   0  0  0  0  0  0  0  0  0  0  0  0
  130.4850  129.0980   59.4270 C   0  0  0  0  0  0  0  0  0  0  0  0
  130.1920  130.4350   59.7380 C   0  0  0  0  0  0  0  0  0  0  0  0
  130.2730  131.4500   58.7770 N   0  0  0  0  0  0  0  0  0  0  0  0
  131.4760  131.5650   57.9280 C   0  0  0  0  0  0  0  0  0  0  0  0
  131.5970  132.9260   57.2090 C   0  0  0  0  0  0  0  0  0  0  0  0
  130.4190  133.1870   56.4620 O   0  0  0  0  0  0  0  0  0  0  0  0
  129.2750  133.2420   57.2980 C   0  0  0  0  0  0  0  0  0  0  0  0
  129.0840  131.8920   58.0220 C   0  0  0  0  0  0  0  0  0  0  0  0
  129.7610  130.7220   61.0410 C   0  0  0  0  0  0  0  0  0  0  0  0
  129.6450  129.7180   61.9980 C   0  0  0  0  0  0  0  0  0  0  0  0
  129.7820  126.0280   62.2340 N   0  0  0  0  0  0  0  0  0  0  0  0
  129.6540  124.9950   63.1010 C   0  0  0  0  0  0  0  0  0  0  0  0
  129.6290  123.4010   62.3100 S   0  0  0  0  0  0  0  0  0  0  0  0
  129.5700  123.6800   60.5140 C   0  0  0  0  0  0  0  0  0  0  0  0
  128.2820  123.1390   59.8910 C   0  0  0  0  0  0  0  0  0  0  0  0
  127.3980  122.6900   60.6240 O   0  0  0  0  0  0  0  0  0  0  0  0
  128.2210  123.1950   58.5430 N   0  0  0  0  0  0  0  0  0  0  0  0
  127.1730  122.7860   57.7300 C   0  0  0  0  0  0  0  0  0  0  0  0
  125.9400  123.4360   57.6930 C   0  0  0  0  0  0  0  0  0  0  0  0
  125.1920  122.7330   56.7780 C   0  0  0  0  0  0  0  0  0  0  0  0
  125.9350  121.7120   56.2900 O   0  0  0  0  0  0  0  0  0  0  0  0
  127.1910  121.7570   56.8990 N   0  0  0  0  0  0  0  0  0  0  0  0
  1  2  3  0
  2  3  1  0
  3  4  2  0
  4  5  1  0
  5  6  2  0
  6  7  1  0
  7  8  2  0
  8  9  1  0
  9 10  1  0
 10 11  1  0
 11 12  1  0
 12 13  1  0
 13 14  1  0
  8 15  1  0
 15 16  2  0
  4 17  1  0
 17 18  2  0
 18 19  1  0
 19 20  2  0
 20 21  1  0
 21 22  2  0
 22 23  1  0
 23 24  1  0
 24 25  1  0
 25 26  1  0
 26 27  1  0
 27 28  1  0
 22 29  1  0
 29 30  2  0
 18 31  1  0
 31 32  2  0
 32 33  1  0
 33 34  1  0
 34 35  1  0
 35 36  2  0
 35 37  1  0
 37 38  1  0
 38 39  1  0
 39 40  2  0
 40 41  1  0
 41 42  1  0
 32  3  1  0
 42 38  2  0
 16  5  1  0
 30 19  1  0
 14  9  1  0
 28 23  1  0
M  END
>  <Binding energies>  (10) 
[-9.9]

>  <Ligand effiencies>  (10) 
[-0.2302325581395349]

>  <Interactions>  (10) 
["V-B:TYR:539:CE2:9847, V-B:PRO:540:CA:9854, V-B:TYR:539:CD2:9845, V-B:LEU:363:CD1:8160, V-B:PRO:540:CD:9858, V-B:PRO:540:CB:9856, V-B:TYR:539:C:9838, V-B:PRO:540:N:9855, H-B:ALA:541:N:9862, V-B:TYR:539:CZ:9848, H-B:TYR:539:OH:9849, H-A:TYR:484:OH:4347, V-A:GLU:543:CD:4908, V-A:GLU:543:CB:4906, V-B:HIS:456:CE1:9041, V-B:GLU:543:CB:9877, V-A:HIS:456:CE1:4069, V-B:GLU:543:CG:9878, V-B:HIS:456:CD2:9039, V-B:GLU:543:CD:9879, V-A:HIS:456:CD2:4067, V-A:PRO:540:N:4884, V-A:LEU:363:CD1:3188, V-A:TYR:539:C:4867, H-A:TYR:539:N:4870, V-A:PRO:540:CA:4883, V-A:TYR:539:CE1:4875, V-A:TYR:539:CZ:4877, V-A:TYR:539:CA:4869, V-A:TYR:539:CE2:4876, V-A:PRO:540:CD:4887, V-A:TYR:539:CD2:4874, V-A:TYR:539:CD1:4873, V-A:TYR:539:CG:4872, V-A:PRO:540:CB:4885, H-B:TYR:539:N:9841, H-A:LYS:547:NZ:4951"]

$$$$
2c_Ghoteimi_2023
     RDKit          3D

 42 47  0  0  0  0  0  0  0  0999 V2000
  131.8300  125.0220   58.8600 N   0  0  0  0  0  0  0  0  0  0  0  0
  131.5400  125.1630   59.9710 C   0  0  0  0  0  0  0  0  0  0  0  0
  131.1710  125.3470   61.3780 C   0  0  0  0  0  0  0  0  0  0  0  0
  130.7520  126.6140   61.8540 C   0  0  0  0  0  0  0  0  0  0  0  0
  130.6550  127.8340   60.9980 C   0  0  0  0  0  0  0  0  0  0  0  0
  130.9810  129.0870   61.5200 C   0  0  0  0  0  0  0  0  0  0  0  0
  130.8980  130.2290   60.7270 C   0  0  0  0  0  0  0  0  0  0  0  0
  130.4720  130.1510   59.3920 C   0  0  0  0  0  0  0  0  0  0  0  0
  130.4000  131.2790   58.5720 N   0  0  0  0  0  0  0  0  0  0  0  0
  131.4970  131.5550   57.6240 C   0  0  0  0  0  0  0  0  0  0  0  0
  131.4830  132.9980   57.0780 C   0  0  0  0  0  0  0  0  0  0  0  0
  130.2230  133.2840   56.4910 O   0  0  0  0  0  0  0  0  0  0  0  0
  129.1670  133.1630   57.4310 C   0  0  0  0  0  0  0  0  0  0  0  0
  129.1200  131.7240   57.9870 C   0  0  0  0  0  0  0  0  0  0  0  0
  130.1420  128.8880   58.8780 C   0  0  0  0  0  0  0  0  0  0  0  0
  130.2280  127.7470   59.6700 C   0  0  0  0  0  0  0  0  0  0  0  0
  130.4070  126.7380   63.2060 C   0  0  0  0  0  0  0  0  0  0  0  0
  130.4520  125.6260   64.0530 C   0  0  0  0  0  0  0  0  0  0  0  0
  130.0770  125.7020   65.4980 C   0  0  0  0  0  0  0  0  0  0  0  0
  130.1410  124.5680   66.3140 C   0  0  0  0  0  0  0  0  0  0  0  0
  129.7990  124.6330   67.6620 C   0  0  0  0  0  0  0  0  0  0  0  0
  129.3670  125.8360   68.2430 C   0  0  0  0  0  0  0  0  0  0  0  0
  129.0440  125.9250   69.6010 N   0  0  0  0  0  0  0  0  0  0  0  0
  129.6050  127.0180   70.4210 C   0  0  0  0  0  0  0  0  0  0  0  0
  129.4850  126.7770   71.9410 C   0  0  0  0  0  0  0  0  0  0  0  0
  128.1320  126.5290   72.2880 O   0  0  0  0  0  0  0  0  0  0  0  0
  127.6280  125.3800   71.6270 C   0  0  0  0  0  0  0  0  0  0  0  0
  127.6960  125.5750   70.0970 C   0  0  0  0  0  0  0  0  0  0  0  0
  129.3160  126.9740   67.4250 C   0  0  0  0  0  0  0  0  0  0  0  0
  129.6610  126.9070   66.0770 C   0  0  0  0  0  0  0  0  0  0  0  0
  130.8510  124.4130   63.5940 N   0  0  0  0  0  0  0  0  0  0  0  0
  131.2200  124.2750   62.2980 C   0  0  0  0  0  0  0  0  0  0  0  0
  131.7250  122.6240   61.8730 S   0  0  0  0  0  0  0  0  0  0  0  0
  130.7200  122.0940   60.4530 C   0  0  0  0  0  0  0  0  0  0  0  0
  129.2310  122.0300   60.7960 C   0  0  0  0  0  0  0  0  0  0  0  0
  128.7010  120.9340   60.9850 O   0  0  0  0  0  0  0  0  0  0  0  0
  128.5960  123.2200   60.8610 N   0  0  0  0  0  0  0  0  0  0  0  0
  127.2600  123.4320   61.1670 C   0  0  0  0  0  0  0  0  0  0  0  0
  126.6280  123.1270   62.2800 N   0  0  0  0  0  0  0  0  0  0  0  0
  125.3590  123.4790   62.2290 C   0  0  0  0  0  0  0  0  0  0  0  0
  124.9360  124.0860   61.0500 C   0  0  0  0  0  0  0  0  0  0  0  0
  126.2820  124.1970   59.9560 S   0  0  0  0  0  0  0  0  0  0  0  0
  1  2  3  0
  2  3  1  0
  3  4  2  0
  4  5  1  0
  5  6  2  0
  6  7  1  0
  7  8  2  0
  8  9  1  0
  9 10  1  0
 10 11  1  0
 11 12  1  0
 12 13  1  0
 13 14  1  0
  8 15  1  0
 15 16  2  0
  4 17  1  0
 17 18  2  0
 18 19  1  0
 19 20  2  0
 20 21  1  0
 21 22  2  0
 22 23  1  0
 23 24  1  0
 24 25  1  0
 25 26  1  0
 26 27  1  0
 27 28  1  0
 22 29  1  0
 29 30  2  0
 18 31  1  0
 31 32  2  0
 32 33  1  0
 33 34  1  0
 34 35  1  0
 35 36  2  0
 35 37  1  0
 37 38  1  0
 38 39  2  0
 39 40  1  0
 40 41  2  0
 41 42  1  0
 32  3  1  0
 42 38  1  0
 16  5  1  0
 30 19  1  0
 14  9  1  0
 28 23  1  0
M  END
>  <Binding energies>  (11) 
[-9.7]

>  <Ligand effiencies>  (11) 
[-0.2255813953488372]

>  <Interactions>  (11) 
["V-B:TYR:539:CE2:9847, V-B:PRO:540:CA:9854, V-B:TYR:539:CD2:9845, V-B:PRO:540:CB:9856, V-B:ALA:541:CB:9863, H-B:ALA:541:N:9862, V-A:ASP:366:CG:3212, H-B:TYR:539:OH:9849, V-A:GLU:543:CD:4908, V-B:HIS:456:CE1:9041, V-B:GLU:543:CB:9877, V-A:TYR:484:CZ:4346, V-A:HIS:456:CE1:4069, V-B:GLU:543:CG:9878, V-B:HIS:456:CD2:9039, V-B:GLU:543:CD:9879, V-A:TYR:484:CE1:4344, V-A:HIS:456:CD2:4067, V-A:PRO:540:N:4884, V-A:LEU:363:CD1:3188, V-A:TYR:539:C:4867, H-A:TYR:539:N:4870, V-A:PRO:540:CA:4883, V-B:ASN:362:CB:8147, V-A:TYR:539:CZ:4877, V-A:TYR:539:CA:4869, V-A:TYR:539:CE2:4876, V-A:PRO:540:CD:4887, V-A:TYR:539:CD2:4874, V-A:TYR:539:CD1:4873, V-A:TYR:539:CG:4872, V-A:PRO:540:CB:4885, H-B:LYS:547:NZ:9922, V-B:GLU:543:CA:9875, V-B:GLU:543:C:9873, V-B:GLY:544:C:9883, V-B:GLY:544:CA:9885"]

$$$$
2j_Grossjean_2025
     RDKit          3D

 23 24  0  0  0  0  0  0  0  0999 V2000
  132.5350  125.0000   58.5610 C   0  0  0  0  0  0  0  0  0  0  0  0
  132.6070  124.3440   59.9270 C   0  0  0  0  0  0  0  0  0  0  0  0
  132.7890  125.0930   61.0870 C   0  0  0  0  0  0  0  0  0  0  0  0
  132.8460  124.4410   62.3280 C   0  0  0  0  0  0  0  0  0  0  0  0
  133.0470  125.2850   63.6010 C   0  0  0  0  0  0  0  0  0  0  0  0
  134.3490  125.4250   63.8550 F   0  0  0  0  0  0  0  0  0  0  0  0
  132.5060  126.4930   63.4390 F   0  0  0  0  0  0  0  0  0  0  0  0
  132.4850  124.7350   64.6790 F   0  0  0  0  0  0  0  0  0  0  0  0
  132.7170  123.0300   62.3580 C   0  0  0  0  0  0  0  0  0  0  0  0
  132.7690  122.2960   63.6260 C   0  0  0  0  0  0  0  0  0  0  0  0
  132.8100  121.7180   64.6280 N   0  0  0  0  0  0  0  0  0  0  0  0
  132.5350  122.3480   61.1300 C   0  0  0  0  0  0  0  0  0  0  0  0
  132.3590  120.5720   61.0480 S   0  0  0  0  0  0  0  0  0  0  0  0
  130.5830  120.1650   61.1630 C   0  0  0  0  0  0  0  0  0  0  0  0
  129.6570  121.3700   61.3820 C   0  0  0  0  0  0  0  0  0  0  0  0
  129.7900  122.0940   62.3710 O   0  0  0  0  0  0  0  0  0  0  0  0
  128.7150  121.5410   60.4280 N   0  0  0  0  0  0  0  0  0  0  0  0
  127.7560  122.5440   60.3800 C   0  0  0  0  0  0  0  0  0  0  0  0
  127.1270  123.1090   61.3880 N   0  0  0  0  0  0  0  0  0  0  0  0
  126.2800  124.0320   60.9760 C   0  0  0  0  0  0  0  0  0  0  0  0
  126.2080  124.2320   59.6000 C   0  0  0  0  0  0  0  0  0  0  0  0
  127.3160  123.1460   58.8140 S   0  0  0  0  0  0  0  0  0  0  0  0
  132.4810  122.9980   59.9400 N   0  0  0  0  0  0  0  0  0  0  0  0
  1  2  1  0
  2  3  2  0
  3  4  1  0
  4  5  1  0
  5  6  1  0
  5  7  1  0
  5  8  1  0
  4  9  2  0
  9 10  1  0
 10 11  3  0
  9 12  1  0
 12 13  1  0
 13 14  1  0
 14 15  1  0
 15 16  2  0
 15 17  1  0
 17 18  1  0
 18 19  2  0
 19 20  1  0
 20 21  2  0
 21 22  1  0
 12 23  2  0
 23  2  1  0
 22 18  1  0
M  END
>  <Binding energies>  (12) 
[-5.74]

>  <Ligand effiencies>  (12) 
[-0.23916666666666667]

>  <Interactions>  (12) 
["V-B:TYR:539:CE2:9847, V-B:PRO:540:CA:9854, V-B:TYR:539:CD2:9845, V-B:ALA:541:CB:9863, V-B:TYR:539:C:9838, V-A:LEU:475:CD2:4258, V-B:PRO:540:N:9855, H-B:TYR:539:O:9839, H-B:ALA:541:N:9862, H-A:GLY:454:N:4049, V-A:ASP:366:CG:3212, V-A:ASP:366:CB:3211, V-A:ASP:366:CA:3209, V-A:ILE:369:CG2:3236, H-A:TYR:484:OH:4347, V-A:ARG:545:CZ:4926, V-B:PRO:540:C:9852, V-A:GLY:454:CA:4048, V-A:GLY:453:C:4041, V-A:GLY:453:CA:4043"]

$$$$
3ab_Grossjean_2025
     RDKit          3D

 33 35  0  0  0  0  0  0  0  0999 V2000
  129.8370  124.5790   74.3460 C   0  0  0  0  0  0  0  0  0  0  0  0
  129.0830  125.7600   74.1090 O   0  0  0  0  0  0  0  0  0  0  0  0
  129.6210  126.8080   73.4350 C   0  0  0  0  0  0  0  0  0  0  0  0
  130.2580  127.7140   73.9800 O   0  0  0  0  0  0  0  0  0  0  0  0
  129.3680  126.7550   71.9560 C   0  0  0  0  0  0  0  0  0  0  0  0
  128.5490  125.7730   71.3770 C   0  0  0  0  0  0  0  0  0  0  0  0
  128.3310  125.7480   70.0020 C   0  0  0  0  0  0  0  0  0  0  0  0
  128.9320  126.7120   69.1770 C   0  0  0  0  0  0  0  0  0  0  0  0
  128.7770  126.7860   67.7800 N   0  0  0  0  0  0  0  0  0  0  0  0
  129.6810  126.5940   66.7960 C   0  0  0  0  0  0  0  0  0  0  0  0
  130.8700  126.3180   66.9610 O   0  0  0  0  0  0  0  0  0  0  0  0
  129.1430  126.7450   65.3720 C   0  0  0  0  0  0  0  0  0  0  0  0
  130.4580  126.6050   64.1240 S   0  0  0  0  0  0  0  0  0  0  0  0
  130.1590  125.1130   63.1990 C   0  0  0  0  0  0  0  0  0  0  0  0
  128.8730  124.9710   62.8010 N   0  0  0  0  0  0  0  0  0  0  0  0
  128.5040  123.8800   62.0810 C   0  0  0  0  0  0  0  0  0  0  0  0
  127.0620  123.8000   61.6760 C   0  0  0  0  0  0  0  0  0  0  0  0
  126.0670  123.5000   62.6200 C   0  0  0  0  0  0  0  0  0  0  0  0
  124.7260  123.4250   62.2500 C   0  0  0  0  0  0  0  0  0  0  0  0
  124.3620  123.6480   60.9260 C   0  0  0  0  0  0  0  0  0  0  0  0
  125.3290  123.9420   59.9700 C   0  0  0  0  0  0  0  0  0  0  0  0
  126.6670  124.0160   60.3440 C   0  0  0  0  0  0  0  0  0  0  0  0
  129.4350  122.8850   61.7610 C   0  0  0  0  0  0  0  0  0  0  0  0
  130.7690  123.0000   62.1790 C   0  0  0  0  0  0  0  0  0  0  0  0
  131.7610  121.8800   61.8110 C   0  0  0  0  0  0  0  0  0  0  0  0
  131.1530  120.7370   61.4830 F   0  0  0  0  0  0  0  0  0  0  0  0
  132.5060  122.2490   60.7680 F   0  0  0  0  0  0  0  0  0  0  0  0
  132.5640  121.6250   62.8460 F   0  0  0  0  0  0  0  0  0  0  0  0
  131.1490  124.1410   62.9280 C   0  0  0  0  0  0  0  0  0  0  0  0
  132.5150  124.2830   63.4380 C   0  0  0  0  0  0  0  0  0  0  0  0
  133.5950  124.3920   63.8390 N   0  0  0  0  0  0  0  0  0  0  0  0
  129.7420  127.6940   69.7510 C   0  0  0  0  0  0  0  0  0  0  0  0
  129.9600  127.7150   71.1250 C   0  0  0  0  0  0  0  0  0  0  0  0
  1  2  1  0
  2  3  1  0
  3  4  2  0
  3  5  1  0
  5  6  2  0
  6  7  1  0
  7  8  2  0
  8  9  1  0
  9 10  1  0
 10 11  2  0
 10 12  1  0
 12 13  1  0
 13 14  1  0
 14 15  2  0
 15 16  1  0
 16 17  1  0
 17 18  2  0
 18 19  1  0
 19 20  2  0
 20 21  1  0
 21 22  2  0
 16 23  2  0
 23 24  1  0
 24 25  1  0
 25 26  1  0
 25 27  1  0
 25 28  1  0
 24 29  2  0
 29 30  1  0
 30 31  3  0
  8 32  1  0
 32 33  2  0
 33  5  1  0
 29 14  1  0
 22 17  1  0
M  END
>  <Binding energies>  (13) 
[-8.16]

>  <Ligand effiencies>  (13) 
[-0.24]

>  <Interactions>  (13) 
["V-B:TYR:539:CE2:9847, V-B:PRO:540:CA:9854, V-B:PRO:540:CB:9856, V-B:ALA:541:CB:9863, V-A:LEU:475:CD2:4258, V-B:ALA:541:CA:9861, H-A:GLY:454:N:4049, V-A:ILE:369:CG2:3236, V-A:GLU:543:CD:4908, V-B:HIS:456:CE1:9041, V-B:GLU:543:CB:9877, V-A:HIS:456:CE1:4069, V-B:GLU:543:CG:9878, V-B:GLU:543:CD:9879, V-A:HIS:456:CD2:4067, V-B:ASN:362:CB:8147, H-B:GLU:543:OE1:9880, V-B:ALA:541:C:9859, H-B:LYS:547:NZ:9922, V-B:LYS:547:CE:9921, V-B:GLU:543:C:9873, V-B:ASN:362:C:8143, H-A:LYS:547:NZ:4951, V-B:ASN:362:CG:8148"]

$$$$
3ac_Grossjean_2025
     RDKit          3D

 31 33  0  0  0  0  0  0  0  0999 V2000
  129.5060  129.5770   73.9900 C   0  0  0  0  0  0  0  0  0  0  0  0
  130.5740  128.7790   73.4890 O   0  0  0  0  0  0  0  0  0  0  0  0
  130.5910  128.4360   72.1510 C   0  0  0  0  0  0  0  0  0  0  0  0
  129.4360  127.8360   71.6480 C   0  0  0  0  0  0  0  0  0  0  0  0
  129.3580  127.4600   70.3100 C   0  0  0  0  0  0  0  0  0  0  0  0
  130.4420  127.6700   69.4560 C   0  0  0  0  0  0  0  0  0  0  0  0
  130.2610  127.2750   68.1170 N   0  0  0  0  0  0  0  0  0  0  0  0
  129.6660  126.1660   67.6290 C   0  0  0  0  0  0  0  0  0  0  0  0
  129.1190  125.2950   68.3080 O   0  0  0  0  0  0  0  0  0  0  0  0
  129.6910  126.0180   66.1070 C   0  0  0  0  0  0  0  0  0  0  0  0
  130.2290  124.3610   65.5850 S   0  0  0  0  0  0  0  0  0  0  0  0
  130.0800  124.2440   63.8130 C   0  0  0  0  0  0  0  0  0  0  0  0
  128.7980  124.1340   63.3910 N   0  0  0  0  0  0  0  0  0  0  0  0
  128.5270  124.0420   62.0640 C   0  0  0  0  0  0  0  0  0  0  0  0
  127.0820  123.9160   61.6820 C   0  0  0  0  0  0  0  0  0  0  0  0
  126.1260  123.4860   62.6170 C   0  0  0  0  0  0  0  0  0  0  0  0
  124.7830  123.3720   62.2710 C   0  0  0  0  0  0  0  0  0  0  0  0
  124.3750  123.6860   60.9780 C   0  0  0  0  0  0  0  0  0  0  0  0
  125.3010  124.1100   60.0310 C   0  0  0  0  0  0  0  0  0  0  0  0
  126.6440  124.2220   60.3820 C   0  0  0  0  0  0  0  0  0  0  0  0
  129.5590  124.0410   61.1210 C   0  0  0  0  0  0  0  0  0  0  0  0
  130.8970  124.1310   61.5310 C   0  0  0  0  0  0  0  0  0  0  0  0
  132.0040  124.1210   60.4590 C   0  0  0  0  0  0  0  0  0  0  0  0
  132.8780  123.1270   60.6260 F   0  0  0  0  0  0  0  0  0  0  0  0
  131.4690  123.9780   59.2450 F   0  0  0  0  0  0  0  0  0  0  0  0
  132.6830  125.2680   60.4990 F   0  0  0  0  0  0  0  0  0  0  0  0
  131.1750  124.2210   62.9180 C   0  0  0  0  0  0  0  0  0  0  0  0
  132.5580  124.2390   63.3990 C   0  0  0  0  0  0  0  0  0  0  0  0
  133.6520  124.2530   63.7790 N   0  0  0  0  0  0  0  0  0  0  0  0
  131.6050  128.2790   69.9520 C   0  0  0  0  0  0  0  0  0  0  0  0
  131.6790  128.6550   71.2910 C   0  0  0  0  0  0  0  0  0  0  0  0
  1  2  1  0
  2  3  1  0
  3  4  2  0
  4  5  1  0
  5  6  2  0
  6  7  1  0
  7  8  1  0
  8  9  2  0
  8 10  1  0
 10 11  1  0
 11 12  1  0
 12 13  2  0
 13 14  1  0
 14 15  1  0
 15 16  2  0
 16 17  1  0
 17 18  2  0
 18 19  1  0
 19 20  2  0
 14 21  2  0
 21 22  1  0
 22 23  1  0
 23 24  1  0
 23 25  1  0
 23 26  1  0
 22 27  2  0
 27 28  1  0
 28 29  3  0
  6 30  1  0
 30 31  2  0
 31  3  1  0
 27 12  1  0
 20 15  1  0
M  END
>  <Binding energies>  (14) 
[-7.94]

>  <Ligand effiencies>  (14) 
[-0.248125]

>  <Interactions>  (14) 
["V-B:TYR:539:CE2:9847, V-B:PRO:540:CA:9854, V-B:PRO:540:CB:9856, V-B:ALA:541:CB:9863, V-B:ALA:541:CA:9861, V-B:TYR:539:CZ:9848, H-A:GLY:454:N:4049, V-A:ASP:366:CG:3212, V-A:ILE:369:CD1:3238, V-A:ASP:366:CB:3211, V-A:ILE:369:CG2:3236, H-A:TYR:484:OH:4347, H-A:GLU:543:OE2:4910, V-A:GLU:543:CD:4908, V-A:GLU:543:CB:4906, V-B:HIS:456:CE1:9041, V-B:GLU:543:CB:9877, V-A:HIS:456:CE1:4069, V-B:GLU:543:CG:9878, V-B:GLU:543:CD:9879, V-B:ASN:362:CB:8147, H-A:GLU:543:OE1:4909, V-A:ARG:545:CG:4922, V-B:ALA:541:C:9859, V-B:ASN:362:C:8143, V-A:ILE:369:CB:3235, H-A:LYS:547:NZ:4951, V-A:LYS:547:CE:4950, V-A:ARG:545:CA:4919, V-A:GLY:544:C:4912"]

$$$$
3af_Grossjean_2025
     RDKit          3D

 29 31  0  0  0  0  0  0  0  0999 V2000
  129.6110  127.2640   62.9790 N   0  0  0  0  0  0  0  0  0  0  0  0
  129.4620  127.1900   64.1240 C   0  0  0  0  0  0  0  0  0  0  0  0
  129.2720  127.0990   65.5750 C   0  0  0  0  0  0  0  0  0  0  0  0
  128.4270  128.0120   66.2510 C   0  0  0  0  0  0  0  0  0  0  0  0
  127.6280  129.1070   65.5180 C   0  0  0  0  0  0  0  0  0  0  0  0
  126.7390  128.6100   64.6550 F   0  0  0  0  0  0  0  0  0  0  0  0
  126.9590  129.8500   66.4010 F   0  0  0  0  0  0  0  0  0  0  0  0
  128.4550  129.8930   64.8280 F   0  0  0  0  0  0  0  0  0  0  0  0
  128.3200  127.9180   67.6480 C   0  0  0  0  0  0  0  0  0  0  0  0
  129.0380  126.9430   68.3480 C   0  0  0  0  0  0  0  0  0  0  0  0
  128.9760  126.8110   69.8400 C   0  0  0  0  0  0  0  0  0  0  0  0
  128.2950  125.7380   70.4380 C   0  0  0  0  0  0  0  0  0  0  0  0
  128.2360  125.6090   71.8230 C   0  0  0  0  0  0  0  0  0  0  0  0
  128.8590  126.5530   72.6310 C   0  0  0  0  0  0  0  0  0  0  0  0
  129.5420  127.6240   72.0650 C   0  0  0  0  0  0  0  0  0  0  0  0
  129.6000  127.7500   70.6790 C   0  0  0  0  0  0  0  0  0  0  0  0
  129.8500  126.0730   67.6950 N   0  0  0  0  0  0  0  0  0  0  0  0
  129.9520  126.1290   66.3450 C   0  0  0  0  0  0  0  0  0  0  0  0
  131.0500  124.8990   65.6700 S   0  0  0  0  0  0  0  0  0  0  0  0
  132.6550  125.6930   65.3510 C   0  0  0  0  0  0  0  0  0  0  0  0
  133.1590  125.4090   63.9360 C   0  0  0  0  0  0  0  0  0  0  0  0
  134.3090  124.9990   63.7810 O   0  0  0  0  0  0  0  0  0  0  0  0
  132.2710  125.6490   62.9470 N   0  0  0  0  0  0  0  0  0  0  0  0
  132.4170  125.5010   61.5540 C   0  0  0  0  0  0  0  0  0  0  0  0
  131.7300  126.2400   60.5730 C   0  0  0  0  0  0  0  0  0  0  0  0
  131.9720  125.9870   59.2210 C   0  0  0  0  0  0  0  0  0  0  0  0
  132.8970  124.9980   58.8820 C   0  0  0  0  0  0  0  0  0  0  0  0
  133.5720  124.2730   59.8070 N   0  0  0  0  0  0  0  0  0  0  0  0
  133.3260  124.5310   61.1160 C   0  0  0  0  0  0  0  0  0  0  0  0
  1  2  3  0
  2  3  1  0
  3  4  2  0
  4  5  1  0
  5  6  1  0
  5  7  1  0
  5  8  1  0
  4  9  1  0
  9 10  2  0
 10 11  1  0
 11 12  2  0
 12 13  1  0
 13 14  2  0
 14 15  1  0
 15 16  2  0
 10 17  1  0
 17 18  2  0
 18 19  1  0
 19 20  1  0
 20 21  1  0
 21 22  2  0
 21 23  1  0
 23 24  1  0
 24 25  2  0
 25 26  1  0
 26 27  2  0
 27 28  1  0
 28 29  2  0
 18  3  1  0
 29 24  1  0
 16 11  1  0
M  END
>  <Binding energies>  (15) 
[-6.67]

>  <Ligand effiencies>  (15) 
[-0.22233333333333333]

>  <Interactions>  (15) 
["H-A:GLY:454:N:4049, H-A:ARG:545:NH1:4927, V-A:ASP:366:CG:3212, V-A:ILE:369:CD1:3238, V-A:ASP:366:CB:3211, V-A:ASP:366:CA:3209, V-A:ILE:369:CG2:3236, H-A:TYR:484:OH:4347, V-A:ARG:545:CZ:4926, V-A:GLU:543:CD:4908, V-A:GLU:543:CG:4907, V-B:HIS:456:CE1:9041, V-B:GLU:543:CB:9877, V-A:HIS:456:CE1:4069, V-B:GLU:543:CG:9878, V-B:HIS:456:CD2:9039, V-A:ASP:366:C:3207, V-B:GLU:543:CD:9879, V-B:GLU:543:C:9873"]

$$$$
3ag_Grossjean_2025
     RDKit          3D

 30 32  0  0  0  0  0  0  0  0999 V2000
  124.0560  124.4500   58.4330 N   0  0  0  0  0  0  0  0  0  0  0  0
  124.9810  124.1340   59.0530 C   0  0  0  0  0  0  0  0  0  0  0  0
  126.1500  123.7340   59.8410 C   0  0  0  0  0  0  0  0  0  0  0  0
  126.0480  123.5410   61.2410 C   0  0  0  0  0  0  0  0  0  0  0  0
  124.7160  123.6770   62.0040 C   0  0  0  0  0  0  0  0  0  0  0  0
  124.8560  123.5180   63.3220 F   0  0  0  0  0  0  0  0  0  0  0  0
  124.1970  124.8890   61.7990 F   0  0  0  0  0  0  0  0  0  0  0  0
  123.8470  122.7580   61.5820 F   0  0  0  0  0  0  0  0  0  0  0  0
  127.2070  123.2110   61.9590 C   0  0  0  0  0  0  0  0  0  0  0  0
  128.4360  123.0890   61.3010 C   0  0  0  0  0  0  0  0  0  0  0  0
  129.7050  122.7420   62.0180 C   0  0  0  0  0  0  0  0  0  0  0  0
  129.8920  123.1050   63.3610 C   0  0  0  0  0  0  0  0  0  0  0  0
  131.0680  122.7860   64.0340 C   0  0  0  0  0  0  0  0  0  0  0  0
  132.0770  122.0950   63.3690 C   0  0  0  0  0  0  0  0  0  0  0  0
  131.9180  121.7260   62.0370 C   0  0  0  0  0  0  0  0  0  0  0  0
  130.7410  122.0480   61.3690 C   0  0  0  0  0  0  0  0  0  0  0  0
  128.5270  123.2630   59.9570 N   0  0  0  0  0  0  0  0  0  0  0  0
  127.4170  123.5620   59.2410 C   0  0  0  0  0  0  0  0  0  0  0  0
  127.7240  123.7500   57.4980 S   0  0  0  0  0  0  0  0  0  0  0  0
  128.4400  125.4030   57.2500 C   0  0  0  0  0  0  0  0  0  0  0  0
  129.9690  125.3780   57.2630 C   0  0  0  0  0  0  0  0  0  0  0  0
  130.5990  125.7540   56.2730 O   0  0  0  0  0  0  0  0  0  0  0  0
  130.5500  124.9400   58.3940 N   0  0  0  0  0  0  0  0  0  0  0  0
  131.9900  124.8670   58.6360 C   0  0  0  0  0  0  0  0  0  0  0  0
  132.3830  125.0180   60.1010 C   0  0  0  0  0  0  0  0  0  0  0  0
  133.5850  124.4700   60.5580 C   0  0  0  0  0  0  0  0  0  0  0  0
  133.9620  124.6310   61.8880 C   0  0  0  0  0  0  0  0  0  0  0  0
  133.1410  125.3490   62.7560 C   0  0  0  0  0  0  0  0  0  0  0  0
  131.9490  125.9110   62.3040 C   0  0  0  0  0  0  0  0  0  0  0  0
  131.5720  125.7510   60.9730 C   0  0  0  0  0  0  0  0  0  0  0  0
  1  2  3  0
  2  3  1  0
  3  4  2  0
  4  5  1  0
  5  6  1  0
  5  7  1  0
  5  8  1  0
  4  9  1  0
  9 10  2  0
 10 11  1  0
 11 12  2  0
 12 13  1  0
 13 14  2  0
 14 15  1  0
 15 16  2  0
 10 17  1  0
 17 18  2  0
 18 19  1  0
 19 20  1  0
 20 21  1  0
 21 22  2  0
 21 23  1  0
 23 24  1  0
 24 25  1  0
 25 26  2  0
 26 27  1  0
 27 28  2  0
 28 29  1  0
 29 30  2  0
 18  3  1  0
 30 25  1  0
 16 11  1  0
M  END
>  <Binding energies>  (16) 
[-6.69]

>  <Ligand effiencies>  (16) 
[-0.21580645161290324]

>  <Interactions>  (16) 
["V-B:TYR:539:CE2:9847, V-B:PRO:540:CA:9854, V-B:PRO:540:CB:9856, V-B:ALA:541:CB:9863, V-A:LEU:475:CD2:4258, V-B:ALA:541:CA:9861, V-B:TYR:539:CZ:9848, V-A:ASP:366:CG:3212, V-A:ILE:369:CD1:3238, V-A:ASP:366:CB:3211, V-A:ASP:366:CA:3209, V-A:ILE:369:CG2:3236, H-B:TYR:539:OH:9849, V-A:ARG:545:CZ:4926, V-B:GLU:543:CG:9878, V-B:GLU:543:CD:9879, H-A:TYR:531:OH:4795, V-B:PRO:540:C:9852, V-B:ASN:362:CB:8147, V-B:ARG:545:CZ:9897, V-B:ASP:366:CG:8184, V-B:ALA:541:C:9859, V-B:ASN:362:C:8143, V-B:ASN:362:CA:8145, V-A:ILE:369:CB:3235, V-B:ASN:362:CG:8148"]

$$$$
3bc_Grossjean_2025
     RDKit          3D

 28 30  0  0  0  0  0  0  0  0999 V2000
  133.9670  125.3760   65.7840 C   0  0  0  0  0  0  0  0  0  0  0  0
  133.6220  124.7730   64.5420 O   0  0  0  0  0  0  0  0  0  0  0  0
  132.3170  124.8540   64.0940 C   0  0  0  0  0  0  0  0  0  0  0  0
  131.8650  126.1190   63.7210 C   0  0  0  0  0  0  0  0  0  0  0  0
  130.5640  126.3000   63.2570 C   0  0  0  0  0  0  0  0  0  0  0  0
  129.6930  125.2120   63.1680 C   0  0  0  0  0  0  0  0  0  0  0  0
  128.4030  125.4890   62.6770 N   0  0  0  0  0  0  0  0  0  0  0  0
  128.0180  126.4080   61.7650 C   0  0  0  0  0  0  0  0  0  0  0  0
  128.7840  127.1620   61.1620 O   0  0  0  0  0  0  0  0  0  0  0  0
  126.5090  126.4340   61.4800 C   0  0  0  0  0  0  0  0  0  0  0  0
  125.6980  124.8000   61.4400 S   0  0  0  0  0  0  0  0  0  0  0  0
  126.5240  123.8120   60.2130 C   0  0  0  0  0  0  0  0  0  0  0  0
  127.6900  123.2700   60.6430 N   0  0  0  0  0  0  0  0  0  0  0  0
  128.4230  122.4900   59.8070 C   0  0  0  0  0  0  0  0  0  0  0  0
  129.7100  121.9470   60.3530 C   0  0  0  0  0  0  0  0  0  0  0  0
  129.7890  120.6270   60.8230 C   0  0  0  0  0  0  0  0  0  0  0  0
  130.9800  120.1150   61.3310 C   0  0  0  0  0  0  0  0  0  0  0  0
  132.1120  120.9210   61.3770 C   0  0  0  0  0  0  0  0  0  0  0  0
  132.0610  122.2340   60.9200 C   0  0  0  0  0  0  0  0  0  0  0  0
  130.8670  122.7420   60.4140 C   0  0  0  0  0  0  0  0  0  0  0  0
  127.9930  122.2360   58.5010 C   0  0  0  0  0  0  0  0  0  0  0  0
  126.7810  122.7690   58.0480 C   0  0  0  0  0  0  0  0  0  0  0  0
  126.3420  122.4500   56.6200 C   0  0  0  0  0  0  0  0  0  0  0  0
  126.0110  123.5710   58.9180 C   0  0  0  0  0  0  0  0  0  0  0  0
  124.7170  124.0980   58.4830 C   0  0  0  0  0  0  0  0  0  0  0  0
  123.6940  124.5140   58.1360 N   0  0  0  0  0  0  0  0  0  0  0  0
  130.1440  123.9340   63.5280 C   0  0  0  0  0  0  0  0  0  0  0  0
  131.4460  123.7580   63.9910 C   0  0  0  0  0  0  0  0  0  0  0  0
  1  2  1  0
  2  3  1  0
  3  4  2  0
  4  5  1  0
  5  6  2  0
  6  7  1  0
  7  8  1  0
  8  9  2  0
  8 10  1  0
 10 11  1  0
 11 12  1  0
 12 13  2  0
 13 14  1  0
 14 15  1  0
 15 16  2  0
 16 17  1  0
 17 18  2  0
 18 19  1  0
 19 20  2  0
 14 21  2  0
 21 22  1  0
 22 23  1  0
 22 24  2  0
 24 25  1  0
 25 26  3  0
  6 27  1  0
 27 28  2  0
 28  3  1  0
 24 12  1  0
 20 15  1  0
M  END
>  <Binding energies>  (17) 
[-7.82]

>  <Ligand effiencies>  (17) 
[-0.2696551724137931]

>  <Interactions>  (17) 
["V-B:TYR:539:CE2:9847, V-B:PRO:540:CA:9854, V-B:TYR:539:CD2:9845, V-B:PRO:540:CD:9858, V-B:TYR:539:CG:9843, V-B:PRO:540:CB:9856, V-B:ALA:541:CB:9863, V-B:TYR:539:C:9838, V-A:LEU:475:CD2:4258, H-B:GLU:543:OE2:9881, V-B:PRO:540:N:9855, H-B:TYR:531:OH:9766, H-B:ALA:541:N:9862, V-B:TYR:539:CZ:9848, H-A:GLY:454:N:4049, V-A:ILE:369:CG2:3236, H-A:TYR:484:OH:4347, V-A:ARG:545:CZ:4926, H-B:ARG:545:NH2:9899, V-B:GLU:543:CD:9879, V-A:ARG:545:CD:4923, V-A:GLY:453:CA:4043"]

$$$$
3bd_Grossjean_2025
     RDKit          3D

 26 28  0  0  0  0  0  0  0  0999 V2000
  127.7590  129.1210   65.6850 C   0  0  0  0  0  0  0  0  0  0  0  0
  128.5170  128.0030   66.3980 C   0  0  0  0  0  0  0  0  0  0  0  0
  128.3820  127.8930   67.7870 C   0  0  0  0  0  0  0  0  0  0  0  0
  129.0640  126.8850   68.4780 C   0  0  0  0  0  0  0  0  0  0  0  0
  128.9600  126.7080   69.9640 C   0  0  0  0  0  0  0  0  0  0  0  0
  129.7090  127.5130   70.8360 C   0  0  0  0  0  0  0  0  0  0  0  0
  129.6190  127.3530   72.2170 C   0  0  0  0  0  0  0  0  0  0  0  0
  128.7750  126.3810   72.7450 C   0  0  0  0  0  0  0  0  0  0  0  0
  128.0250  125.5690   71.9030 C   0  0  0  0  0  0  0  0  0  0  0  0
  128.1180  125.7310   70.5230 C   0  0  0  0  0  0  0  0  0  0  0  0
  129.8490  125.9960   67.8150 N   0  0  0  0  0  0  0  0  0  0  0  0
  129.9920  126.0890   66.4680 C   0  0  0  0  0  0  0  0  0  0  0  0
  131.0600  124.8700   65.7190 S   0  0  0  0  0  0  0  0  0  0  0  0
  132.6860  125.6370   65.4460 C   0  0  0  0  0  0  0  0  0  0  0  0
  133.2010  125.3980   64.0260 C   0  0  0  0  0  0  0  0  0  0  0  0
  134.3550  124.9990   63.8680 O   0  0  0  0  0  0  0  0  0  0  0  0
  132.3260  125.6650   63.0330 N   0  0  0  0  0  0  0  0  0  0  0  0
  132.4930  125.5220   61.6430 C   0  0  0  0  0  0  0  0  0  0  0  0
  131.6720  126.3180   60.8390 C   0  0  0  0  0  0  0  0  0  0  0  0
  131.7600  126.2390   59.4520 C   0  0  0  0  0  0  0  0  0  0  0  0
  132.6620  125.3550   58.8660 C   0  0  0  0  0  0  0  0  0  0  0  0
  133.4750  124.5460   59.6560 C   0  0  0  0  0  0  0  0  0  0  0  0
  133.3910  124.6240   61.0440 C   0  0  0  0  0  0  0  0  0  0  0  0
  129.3410  127.0860   65.7110 C   0  0  0  0  0  0  0  0  0  0  0  0
  129.5020  127.1740   64.2570 C   0  0  0  0  0  0  0  0  0  0  0  0
  129.6270  127.2430   63.1090 N   0  0  0  0  0  0  0  0  0  0  0  0
  1  2  1  0
  2  3  2  0
  3  4  1  0
  4  5  1  0
  5  6  2  0
  6  7  1  0
  7  8  2  0
  8  9  1  0
  9 10  2  0
  4 11  2  0
 11 12  1  0
 12 13  1  0
 13 14  1  0
 14 15  1  0
 15 16  2  0
 15 17  1  0
 17 18  1  0
 18 19  2  0
 19 20  1  0
 20 21  2  0
 21 22  1  0
 22 23  2  0
 12 24  2  0
 24 25  1  0
 25 26  3  0
 24  2  1  0
 10  5  1  0
 23 18  1  0
M  END
>  <Binding energies>  (18) 
[-7.18]

>  <Ligand effiencies>  (18) 
[-0.2659259259259259]

>  <Interactions>  (18) 
["H-A:GLY:454:N:4049, H-A:ARG:545:NH1:4927, V-A:ASP:366:CG:3212, V-A:ILE:369:CD1:3238, V-A:ASP:366:CB:3211, V-A:ASP:366:CA:3209, V-A:ILE:369:CG2:3236, H-A:TYR:484:OH:4347, V-A:ARG:545:CZ:4926, V-A:GLU:543:CD:4908, V-A:GLU:543:CG:4907, V-B:HIS:456:CE1:9041, V-B:GLU:543:CB:9877, V-A:HIS:456:CE1:4069, V-B:HIS:456:CD2:9039, V-A:ASP:366:C:3207, V-B:GLU:543:CD:9879, V-B:GLU:543:C:9873, V-A:ILE:369:CB:3235, V-B:GLY:544:C:9883"]

$$$$
3be_Grossjean_2025
     RDKit          3D

 27 29  0  0  0  0  0  0  0  0999 V2000
  134.7320  125.2060   66.7900 C   0  0  0  0  0  0  0  0  0  0  0  0
  133.6340  125.3620   65.7560 C   0  0  0  0  0  0  0  0  0  0  0  0
  132.3400  125.7480   66.1150 C   0  0  0  0  0  0  0  0  0  0  0  0
  131.3800  125.8680   65.1110 C   0  0  0  0  0  0  0  0  0  0  0  0
  131.7320  125.6020   63.7850 C   0  0  0  0  0  0  0  0  0  0  0  0
  133.0460  125.2220   63.4930 C   0  0  0  0  0  0  0  0  0  0  0  0
  133.3350  124.9580   62.1420 N   0  0  0  0  0  0  0  0  0  0  0  0
  132.8580  125.5750   61.0390 C   0  0  0  0  0  0  0  0  0  0  0  0
  132.0520  126.5070   61.0520 O   0  0  0  0  0  0  0  0  0  0  0  0
  133.4020  125.0280   59.7100 C   0  0  0  0  0  0  0  0  0  0  0  0
  132.4870  123.6050   59.0240 S   0  0  0  0  0  0  0  0  0  0  0  0
  131.2390  123.1320   60.2010 C   0  0  0  0  0  0  0  0  0  0  0  0
  129.9730  123.3570   59.7700 N   0  0  0  0  0  0  0  0  0  0  0  0
  128.9190  123.0380   60.5670 C   0  0  0  0  0  0  0  0  0  0  0  0
  127.5530  123.3310   60.0210 C   0  0  0  0  0  0  0  0  0  0  0  0
  126.5070  123.7190   60.8740 C   0  0  0  0  0  0  0  0  0  0  0  0
  125.2370  123.9900   60.3750 C   0  0  0  0  0  0  0  0  0  0  0  0
  124.9930  123.8760   59.0110 C   0  0  0  0  0  0  0  0  0  0  0  0
  126.0100  123.4910   58.1440 C   0  0  0  0  0  0  0  0  0  0  0  0
  127.2790  123.2200   58.6480 C   0  0  0  0  0  0  0  0  0  0  0  0
  129.1210  122.4820   61.8350 C   0  0  0  0  0  0  0  0  0  0  0  0
  130.4190  122.2210   62.2840 C   0  0  0  0  0  0  0  0  0  0  0  0
  130.5910  121.5970   63.6680 C   0  0  0  0  0  0  0  0  0  0  0  0
  131.5150  122.5380   61.4530 C   0  0  0  0  0  0  0  0  0  0  0  0
  132.8800  122.2240   61.8820 C   0  0  0  0  0  0  0  0  0  0  0  0
  133.9570  121.9740   62.2230 N   0  0  0  0  0  0  0  0  0  0  0  0
  133.9900  125.1000   64.4730 N   0  0  0  0  0  0  0  0  0  0  0  0
  1  2  1  0
  2  3  2  0
  3  4  1  0
  4  5  2  0
  5  6  1  0
  6  7  1  0
  7  8  1  0
  8  9  2  0
  8 10  1  0
 10 11  1  0
 11 12  1  0
 12 13  2  0
 13 14  1  0
 14 15  1  0
 15 16  2  0
 16 17  1  0
 17 18  2  0
 18 19  1  0
 19 20  2  0
 14 21  2  0
 21 22  1  0
 22 23  1  0
 22 24  2  0
 24 25  1  0
 25 26  3  0
  6 27  2  0
 27  2  1  0
 24 12  1  0
 20 15  1  0
M  END
>  <Binding energies>  (19) 
[-7.42]

>  <Ligand effiencies>  (19) 
[-0.265]

>  <Interactions>  (19) 
["V-B:TYR:539:CE2:9847, V-B:PRO:540:CA:9854, V-B:PRO:540:CB:9856, V-B:ALA:541:CB:9863, V-A:LEU:475:CD2:4258, V-B:PRO:540:N:9855, H-A:GLY:454:N:4049, H-A:ARG:545:NH1:4927, V-A:ASP:366:CG:3212, V-A:ASP:366:CB:3211, H-A:ASP:366:OD1:3213, V-A:ASP:366:CA:3209, V-A:ILE:369:CG2:3236, H-B:TYR:539:OH:9849, V-A:ARG:545:CZ:4926, V-A:HIS:456:CE1:4069, V-A:ASP:366:C:3207, V-A:ARG:545:CG:4922, V-A:LEU:475:CD1:4257, V-A:ARG:545:CD:4923, V-A:GLY:454:CA:4048, V-A:GLY:453:C:4041, V-A:GLY:453:CA:4043, V-A:ILE:455:C:4051, V-A:ILE:369:CB:3235, V-A:GLY:454:C:4046"]

$$$$
3bf_Grossjean_2025
     RDKit          3D

 26 28  0  0  0  0  0  0  0  0999 V2000
  130.1750  120.5560   61.8770 C   0  0  0  0  0  0  0  0  0  0  0  0
  130.0180  121.6710   60.8460 C   0  0  0  0  0  0  0  0  0  0  0  0
  128.8200  121.7390   60.1270 C   0  0  0  0  0  0  0  0  0  0  0  0
  128.6290  122.7540   59.1830 C   0  0  0  0  0  0  0  0  0  0  0  0
  127.3610  122.8950   58.3950 C   0  0  0  0  0  0  0  0  0  0  0  0
  127.2620  122.3700   57.0970 C   0  0  0  0  0  0  0  0  0  0  0  0
  126.0890  122.4980   56.3590 C   0  0  0  0  0  0  0  0  0  0  0  0
  124.9950  123.1550   56.9110 C   0  0  0  0  0  0  0  0  0  0  0  0
  125.0670  123.6860   58.1950 C   0  0  0  0  0  0  0  0  0  0  0  0
  126.2430  123.5570   58.9290 C   0  0  0  0  0  0  0  0  0  0  0  0
  129.5940  123.6830   58.9520 N   0  0  0  0  0  0  0  0  0  0  0  0
  130.7700  123.6160   59.6240 C   0  0  0  0  0  0  0  0  0  0  0  0
  131.9150  124.9070   59.1880 S   0  0  0  0  0  0  0  0  0  0  0  0
  131.2850  126.4770   59.8730 C   0  0  0  0  0  0  0  0  0  0  0  0
  131.6030  126.7160   61.3560 C   0  0  0  0  0  0  0  0  0  0  0  0
  131.3050  127.7810   61.9000 O   0  0  0  0  0  0  0  0  0  0  0  0
  132.1880  125.6720   61.9820 N   0  0  0  0  0  0  0  0  0  0  0  0
  132.6130  125.5690   63.3190 C   0  0  0  0  0  0  0  0  0  0  0  0
  131.6280  125.6440   64.3100 C   0  0  0  0  0  0  0  0  0  0  0  0
  131.9850  125.5350   65.6560 C   0  0  0  0  0  0  0  0  0  0  0  0
  133.3300  125.3470   65.9750 C   0  0  0  0  0  0  0  0  0  0  0  0
  134.3050  125.2600   65.0360 N   0  0  0  0  0  0  0  0  0  0  0  0
  133.9430  125.3680   63.7310 C   0  0  0  0  0  0  0  0  0  0  0  0
  131.0240  122.6300   60.6030 C   0  0  0  0  0  0  0  0  0  0  0  0
  132.2660  122.6070   61.3820 C   0  0  0  0  0  0  0  0  0  0  0  0
  133.2470  122.5870   61.9960 N   0  0  0  0  0  0  0  0  0  0  0  0
  1  2  1  0
  2  3  2  0
  3  4  1  0
  4  5  1  0
  5  6  2  0
  6  7  1  0
  7  8  2  0
  8  9  1  0
  9 10  2  0
  4 11  2  0
 11 12  1  0
 12 13  1  0
 13 14  1  0
 14 15  1  0
 15 16  2  0
 15 17  1  0
 17 18  1  0
 18 19  2  0
 19 20  1  0
 20 21  2  0
 21 22  1  0
 22 23  2  0
 12 24  2  0
 24 25  1  0
 25 26  3  0
 24  2  1  0
 10  5  1  0
 23 18  1  0
M  END
>  <Binding energies>  (20) 
[-7.54]

>  <Ligand effiencies>  (20) 
[-0.27925925925925926]

>  <Interactions>  (20) 
["V-B:TYR:539:CE2:9847, V-B:PRO:540:CA:9854, V-B:TYR:539:CD2:9845, V-B:LEU:363:CD1:8160, V-B:PRO:540:CD:9858, V-B:TYR:539:CG:9843, V-B:PRO:540:CB:9856, V-B:ALA:541:CB:9863, V-B:TYR:539:C:9838, V-A:LEU:475:CD2:4258, V-B:PRO:540:N:9855, V-B:TYR:539:CD1:9844, V-B:TYR:539:CE1:9846, V-B:TYR:539:CA:9840, V-B:TYR:539:CZ:9848, H-A:ARG:545:NH2:4928, H-A:GLY:454:N:4049, H-A:ARG:545:NE:4924, H-A:ARG:545:NH1:4927, V-A:ASP:366:CG:3212, V-A:ILE:369:CG2:3236, H-B:TYR:539:OH:9849, V-A:ARG:545:CZ:4926, V-B:PRO:540:C:9852, V-A:ARG:545:CD:4923, V-A:GLY:453:CA:4043"]

$$$$
3bg_Grossjean_2025
     RDKit          3D

 27 29  0  0  0  0  0  0  0  0999 V2000
  130.2730  120.4630   61.8750 C   0  0  0  0  0  0  0  0  0  0  0  0
  130.1380  121.5970   60.8600 C   0  0  0  0  0  0  0  0  0  0  0  0
  128.9020  121.7770   60.2320 C   0  0  0  0  0  0  0  0  0  0  0  0
  128.7320  122.8110   59.3010 C   0  0  0  0  0  0  0  0  0  0  0  0
  127.4270  123.0660   58.5980 C   0  0  0  0  0  0  0  0  0  0  0  0
  127.1840  122.5560   57.3120 C   0  0  0  0  0  0  0  0  0  0  0  0
  125.9710  122.7750   56.6660 C   0  0  0  0  0  0  0  0  0  0  0  0
  124.9770  123.5150   57.2970 C   0  0  0  0  0  0  0  0  0  0  0  0
  125.1930  124.0430   58.5640 C   0  0  0  0  0  0  0  0  0  0  0  0
  126.4080  123.8220   59.2060 C   0  0  0  0  0  0  0  0  0  0  0  0
  129.7570  123.6560   59.0130 N   0  0  0  0  0  0  0  0  0  0  0  0
  130.9630  123.4960   59.6160 C   0  0  0  0  0  0  0  0  0  0  0  0
  132.2130  124.6940   59.1760 S   0  0  0  0  0  0  0  0  0  0  0  0
  132.0500  126.1260   60.2910 C   0  0  0  0  0  0  0  0  0  0  0  0
  131.7560  125.6970   61.7310 C   0  0  0  0  0  0  0  0  0  0  0  0
  130.6500  125.2390   62.0210 O   0  0  0  0  0  0  0  0  0  0  0  0
  132.7460  125.8730   62.6230 N   0  0  0  0  0  0  0  0  0  0  0  0
  132.6250  125.7060   64.0710 C   0  0  0  0  0  0  0  0  0  0  0  0
  131.8850  124.4240   64.4330 C   0  0  0  0  0  0  0  0  0  0  0  0
  132.5310  123.1880   64.3240 C   0  0  0  0  0  0  0  0  0  0  0  0
  131.8520  122.0160   64.6450 C   0  0  0  0  0  0  0  0  0  0  0  0
  130.5320  122.0830   65.0870 C   0  0  0  0  0  0  0  0  0  0  0  0
  129.8880  123.3110   65.2180 C   0  0  0  0  0  0  0  0  0  0  0  0
  130.5680  124.4840   64.8960 C   0  0  0  0  0  0  0  0  0  0  0  0
  131.2040  122.4670   60.5490 C   0  0  0  0  0  0  0  0  0  0  0  0
  132.5080  122.3070   61.1970 C   0  0  0  0  0  0  0  0  0  0  0  0
  133.5380  122.1800   61.7090 N   0  0  0  0  0  0  0  0  0  0  0  0
  1  2  1  0
  2  3  2  0
  3  4  1  0
  4  5  1  0
  5  6  2  0
  6  7  1  0
  7  8  2  0
  8  9  1  0
  9 10  2  0
  4 11  2  0
 11 12  1  0
 12 13  1  0
 13 14  1  0
 14 15  1  0
 15 16  2  0
 15 17  1  0
 17 18  1  0
 18 19  1  0
 19 20  2  0
 20 21  1  0
 21 22  2  0
 22 23  1  0
 23 24  2  0
 12 25  2  0
 25 26  1  0
 26 27  3  0
 25  2  1  0
 10  5  1  0
 24 19  1  0
M  END
>  <Binding energies>  (21) 
[-7.36]

>  <Ligand effiencies>  (21) 
[-0.26285714285714284]

>  <Interactions>  (21) 
["V-B:TYR:539:CE2:9847, V-B:PRO:540:CA:9854, V-B:TYR:539:CD2:9845, V-B:LEU:363:CD1:8160, V-B:PRO:540:CD:9858, V-B:TYR:539:CG:9843, V-B:PRO:540:CB:9856, V-B:ALA:541:CB:9863, V-B:TYR:539:C:9838, V-A:LEU:475:CD2:4258, V-B:PRO:540:N:9855, V-B:TYR:539:CD1:9844, V-B:TYR:539:CE1:9846, H-A:ASP:366:OD2:3214, V-B:TYR:539:CZ:9848, V-A:ASP:366:CG:3212, V-A:ASP:366:CB:3211, H-A:ASP:366:OD1:3213, V-A:ILE:369:CG2:3236, H-B:TYR:539:OH:9849, V-A:ARG:545:CZ:4926, V-A:TYR:484:CZ:4346, V-B:GLU:543:CG:9878, V-A:TYR:484:CE1:4344, V-A:LEU:475:CG:4256, V-A:LEU:475:CD1:4257, V-A:GLY:454:CA:4048"]

$$$$
3ca_Grossjean_2025
     RDKit          3D

 31 33  0  0  0  0  0  0  0  0999 V2000
  128.6980  129.7430   72.9300 C   0  0  0  0  0  0  0  0  0  0  0  0
  130.1940  129.4530   72.7830 C   0  0  0  0  0  0  0  0  0  0  0  0
  130.4240  128.0590   72.9490 O   0  0  0  0  0  0  0  0  0  0  0  0
  129.5090  127.1430   72.5420 C   0  0  0  0  0  0  0  0  0  0  0  0
  128.7750  126.5230   73.3180 O   0  0  0  0  0  0  0  0  0  0  0  0
  129.4710  126.9630   71.0510 C   0  0  0  0  0  0  0  0  0  0  0  0
  128.6640  125.9580   70.5040 C   0  0  0  0  0  0  0  0  0  0  0  0
  128.6080  125.7660   69.1260 C   0  0  0  0  0  0  0  0  0  0  0  0
  129.3620  126.5690   68.2690 C   0  0  0  0  0  0  0  0  0  0  0  0
  129.2310  126.2920   66.8950 N   0  0  0  0  0  0  0  0  0  0  0  0
  129.8890  125.3940   66.1300 C   0  0  0  0  0  0  0  0  0  0  0  0
  130.7480  124.6100   66.5320 O   0  0  0  0  0  0  0  0  0  0  0  0
  129.4830  125.3700   64.6520 C   0  0  0  0  0  0  0  0  0  0  0  0
  130.7010  124.5310   63.5870 S   0  0  0  0  0  0  0  0  0  0  0  0
  129.8600  123.4490   62.4380 C   0  0  0  0  0  0  0  0  0  0  0  0
  130.3420  122.1830   62.3640 N   0  0  0  0  0  0  0  0  0  0  0  0
  129.7410  121.3040   61.5320 C   0  0  0  0  0  0  0  0  0  0  0  0
  130.3250  119.9050   61.5180 C   0  0  0  0  0  0  0  0  0  0  0  0
  128.6550  121.6510   60.7330 C   0  0  0  0  0  0  0  0  0  0  0  0
  128.1510  122.9570   60.7780 C   0  0  0  0  0  0  0  0  0  0  0  0
  126.9930  123.2880   59.8930 C   0  0  0  0  0  0  0  0  0  0  0  0
  125.7900  123.7400   60.4500 C   0  0  0  0  0  0  0  0  0  0  0  0
  124.7020  124.0410   59.6340 C   0  0  0  0  0  0  0  0  0  0  0  0
  124.8120  123.8860   58.2540 C   0  0  0  0  0  0  0  0  0  0  0  0
  125.9990  123.4310   57.6850 C   0  0  0  0  0  0  0  0  0  0  0  0
  127.0840  123.1300   58.5050 C   0  0  0  0  0  0  0  0  0  0  0  0
  128.7610  123.8850   61.6600 C   0  0  0  0  0  0  0  0  0  0  0  0
  128.2450  125.2520   61.7890 C   0  0  0  0  0  0  0  0  0  0  0  0
  127.8360  126.3300   61.8890 N   0  0  0  0  0  0  0  0  0  0  0  0
  130.1670  127.5850   68.8080 C   0  0  0  0  0  0  0  0  0  0  0  0
  130.2190  127.7760   70.1860 C   0  0  0  0  0  0  0  0  0  0  0  0
  1  2  1  0
  2  3  1  0
  3  4  1  0
  4  5  2  0
  4  6  1  0
  6  7  2  0
  7  8  1  0
  8  9  2  0
  9 10  1  0
 10 11  1  0
 11 12  2  0
 11 13  1  0
 13 14  1  0
 14 15  1  0
 15 16  2  0
 16 17  1  0
 17 18  1  0
 17 19  2  0
 19 20  1  0
 20 21  1  0
 21 22  2  0
 22 23  1  0
 23 24  2  0
 24 25  1  0
 25 26  2  0
 20 27  2  0
 27 28  1  0
 28 29  3  0
  9 30  1  0
 30 31  2  0
 31  6  1  0
 27 15  1  0
 26 21  1  0
M  END
>  <Binding energies>  (22) 
[-7.97]

>  <Ligand effiencies>  (22) 
[-0.2490625]

>  <Interactions>  (22) 
["V-B:PRO:540:CA:9854, V-B:TYR:539:CD2:9845, V-B:LEU:363:CD1:8160, V-B:PRO:540:CB:9856, V-B:ALA:541:CB:9863, V-B:TYR:539:C:9838, V-A:LEU:475:CD2:4258, H-B:GLU:543:OE2:9881, V-B:PRO:540:N:9855, V-B:ALA:541:CA:9861, V-A:PRO:482:CB:4325, H-A:TYR:484:OH:4347, V-A:GLU:543:CD:4908, V-A:GLU:543:CB:4906, V-B:HIS:456:CE1:9041, V-B:GLU:543:CB:9877, V-A:HIS:456:CE1:4069, V-B:HIS:456:CG:9037, V-B:GLU:543:CG:9878, V-B:HIS:456:CD2:9039, V-B:GLU:543:CD:9879, V-B:PRO:540:C:9852, H-B:GLU:543:OE1:9880, H-B:LYS:547:NZ:9922, V-B:GLU:543:C:9873, H-A:LYS:547:NZ:4951"]

$$$$
3ce_Grossjean_2025
     RDKit          3D

 27 29  0  0  0  0  0  0  0  0999 V2000
  134.7210  125.1660   66.9380 C   0  0  0  0  0  0  0  0  0  0  0  0
  133.5930  125.3950   65.9500 C   0  0  0  0  0  0  0  0  0  0  0  0
  132.3090  125.7460   66.3760 C   0  0  0  0  0  0  0  0  0  0  0  0
  131.3230  125.9500   65.4110 C   0  0  0  0  0  0  0  0  0  0  0  0
  131.6390  125.8010   64.0580 C   0  0  0  0  0  0  0  0  0  0  0  0
  132.9420  125.4370   63.7010 C   0  0  0  0  0  0  0  0  0  0  0  0
  133.2070  125.3210   62.3260 N   0  0  0  0  0  0  0  0  0  0  0  0
  133.3930  124.1930   61.6040 C   0  0  0  0  0  0  0  0  0  0  0  0
  133.3500  123.0490   62.0570 O   0  0  0  0  0  0  0  0  0  0  0  0
  133.6650  124.3980   60.1140 C   0  0  0  0  0  0  0  0  0  0  0  0
  132.2570  125.1760   59.2670 S   0  0  0  0  0  0  0  0  0  0  0  0
  130.9000  124.0420   59.4460 C   0  0  0  0  0  0  0  0  0  0  0  0
  131.1060  123.0780   60.3760 N   0  0  0  0  0  0  0  0  0  0  0  0
  130.1240  122.1740   60.6000 C   0  0  0  0  0  0  0  0  0  0  0  0
  130.4150  121.1320   61.6630 C   0  0  0  0  0  0  0  0  0  0  0  0
  128.9190  122.1890   59.9030 C   0  0  0  0  0  0  0  0  0  0  0  0
  128.6970  123.1620   58.9190 C   0  0  0  0  0  0  0  0  0  0  0  0
  127.4000  123.1210   58.1810 C   0  0  0  0  0  0  0  0  0  0  0  0
  127.2960  122.4110   56.9790 C   0  0  0  0  0  0  0  0  0  0  0  0
  126.0910  122.3740   56.2820 C   0  0  0  0  0  0  0  0  0  0  0  0
  124.9840  123.0540   56.7810 C   0  0  0  0  0  0  0  0  0  0  0  0
  125.0730  123.7740   57.9700 C   0  0  0  0  0  0  0  0  0  0  0  0
  126.2790  123.8080   58.6650 C   0  0  0  0  0  0  0  0  0  0  0  0
  129.7120  124.1230   58.6810 C   0  0  0  0  0  0  0  0  0  0  0  0
  129.5310  125.1740   57.6740 C   0  0  0  0  0  0  0  0  0  0  0  0
  129.3870  126.0020   56.8800 N   0  0  0  0  0  0  0  0  0  0  0  0
  133.9150  125.2430   64.6400 N   0  0  0  0  0  0  0  0  0  0  0  0
  1  2  1  0
  2  3  2  0
  3  4  1  0
  4  5  2  0
  5  6  1  0
  6  7  1  0
  7  8  1  0
  8  9  2  0
  8 10  1  0
 10 11  1  0
 11 12  1  0
 12 13  2  0
 13 14  1  0
 14 15  1  0
 14 16  2  0
 16 17  1  0
 17 18  1  0
 18 19  2  0
 19 20  1  0
 20 21  2  0
 21 22  1  0
 22 23  2  0
 17 24  2  0
 24 25  1  0
 25 26  3  0
  6 27  2  0
 27  2  1  0
 24 12  1  0
 23 18  1  0
M  END
>  <Binding energies>  (23) 
[-8.77]

>  <Ligand effiencies>  (23) 
[-0.3132142857142857]

>  <Interactions>  (23) 
["V-B:TYR:539:CE2:9847, V-B:PRO:540:CA:9854, V-B:TYR:539:CD2:9845, V-B:LEU:363:CD1:8160, V-B:PRO:540:CD:9858, V-B:TYR:539:CG:9843, V-B:PRO:540:CB:9856, V-B:ALA:541:CB:9863, V-B:TYR:539:C:9838, V-A:LEU:475:CD2:4258, V-B:PRO:540:N:9855, V-B:TYR:539:CD1:9844, V-B:TYR:539:CE1:9846, H-A:ASP:366:OD2:3214, V-B:TYR:539:CZ:9848, H-A:ARG:545:NH2:4928, H-A:GLY:454:N:4049, H-A:ARG:545:NE:4924, H-A:ARG:545:NH1:4927, V-A:ASP:366:CG:3212, V-A:ILE:369:CD1:3238, V-A:ASP:366:CB:3211, H-A:ASP:366:OD1:3213, V-A:ASP:366:CA:3209, V-A:ILE:369:CG2:3236, H-B:TYR:539:OH:9849, V-A:ARG:545:CZ:4926, V-B:MET:535:CE:9806, V-A:GLU:543:CD:4908, V-A:HIS:456:CE1:4069, H-A:TYR:531:OH:4795, V-A:ARG:545:CG:4922, V-A:ARG:545:CD:4923, V-A:GLY:454:CA:4048, V-A:GLY:453:C:4041, V-A:GLY:453:CA:4043, V-A:ILE:455:C:4051, V-A:ILE:369:CB:3235, V-A:GLY:454:C:4046"]

$$$$
3cj_Grossjean_2025
     RDKit          3D

 25 27  0  0  0  0  0  0  0  0999 V2000
  130.2750  120.7890   61.8150 C   0  0  0  0  0  0  0  0  0  0  0  0
  130.0300  121.8610   60.7710 C   0  0  0  0  0  0  0  0  0  0  0  0
  128.7940  121.9960   60.1410 C   0  0  0  0  0  0  0  0  0  0  0  0
  128.6050  123.0160   59.1990 C   0  0  0  0  0  0  0  0  0  0  0  0
  127.2470  123.1630   58.5980 C   0  0  0  0  0  0  0  0  0  0  0  0
  126.9640  122.6220   57.3390 C   0  0  0  0  0  0  0  0  0  0  0  0
  125.7000  122.7720   56.7730 C   0  0  0  0  0  0  0  0  0  0  0  0
  124.7150  123.4710   57.4660 C   0  0  0  0  0  0  0  0  0  0  0  0
  124.9840  124.0230   58.7150 C   0  0  0  0  0  0  0  0  0  0  0  0
  126.2490  123.8710   59.2790 C   0  0  0  0  0  0  0  0  0  0  0  0
  129.6990  123.8610   58.8910 C   0  0  0  0  0  0  0  0  0  0  0  0
  129.5720  124.9280   57.8930 C   0  0  0  0  0  0  0  0  0  0  0  0
  129.4700  125.7700   57.1050 N   0  0  0  0  0  0  0  0  0  0  0  0
  130.9150  123.6550   59.5810 C   0  0  0  0  0  0  0  0  0  0  0  0
  132.3230  124.7270   59.3890 S   0  0  0  0  0  0  0  0  0  0  0  0
  131.9080  126.2200   60.3470 C   0  0  0  0  0  0  0  0  0  0  0  0
  131.7310  125.9110   61.8370 C   0  0  0  0  0  0  0  0  0  0  0  0
  130.6430  125.4990   62.2470 O   0  0  0  0  0  0  0  0  0  0  0  0
  132.8320  126.0860   62.5990 N   0  0  0  0  0  0  0  0  0  0  0  0
  132.9740  125.7530   63.9360 C   0  0  0  0  0  0  0  0  0  0  0  0
  134.0210  125.2250   64.5310 N   0  0  0  0  0  0  0  0  0  0  0  0
  133.8160  125.0700   65.8230 C   0  0  0  0  0  0  0  0  0  0  0  0
  132.5750  125.4770   66.3040 C   0  0  0  0  0  0  0  0  0  0  0  0
  131.6310  126.0950   64.9810 S   0  0  0  0  0  0  0  0  0  0  0  0
  131.0740  122.6800   60.5110 N   0  0  0  0  0  0  0  0  0  0  0  0
  1  2  1  0
  2  3  2  0
  3  4  1  0
  4  5  1  0
  5  6  2  0
  6  7  1  0
  7  8  2  0
  8  9  1  0
  9 10  2  0
  4 11  2  0
 11 12  1  0
 12 13  3  0
 11 14  1  0
 14 15  1  0
 15 16  1  0
 16 17  1  0
 17 18  2  0
 17 19  1  0
 19 20  1  0
 20 21  2  0
 21 22  1  0
 22 23  2  0
 23 24  1  0
 14 25  2  0
 25  2  1  0
 10  5  1  0
 24 20  1  0
M  END
>  <Binding energies>  (24) 
[-7.49]

>  <Ligand effiencies>  (24) 
[-0.28807692307692306]

>  <Interactions>  (24) 
["V-B:TYR:539:CE2:9847, V-B:PRO:540:CA:9854, V-B:TYR:539:CD2:9845, V-B:LEU:363:CD1:8160, V-B:PRO:540:CD:9858, V-B:PRO:540:CB:9856, V-B:ALA:541:CB:9863, V-B:TYR:539:C:9838, V-A:LEU:475:CD2:4258, V-B:PRO:540:N:9855, H-A:ASP:366:OD2:3214, V-B:TYR:539:CZ:9848, H-A:ARG:545:NH2:4928, H-A:GLY:454:N:4049, H-A:ARG:545:NE:4924, H-A:ARG:545:NH1:4927, V-A:ASP:366:CG:3212, V-A:ASP:366:CB:3211, H-A:ASP:366:OD1:3213, H-B:TYR:539:OH:9849, V-A:ARG:545:CZ:4926, V-A:GLU:543:CD:4908, V-A:HIS:456:CE1:4069, H-A:TYR:531:OH:4795, V-A:ARG:545:CD:4923, V-A:GLY:454:CA:4048"]

$$$$
4ba_Grossjean_2025
     RDKit          3D

 28 30  0  0  0  0  0  0  0  0999 V2000
  128.7190  131.9310   73.2250 C   0  0  0  0  0  0  0  0  0  0  0  0
  128.7300  130.8370   72.1420 C   0  0  0  0  0  0  0  0  0  0  0  0
  129.8940  129.8290   72.2400 C   0  0  0  0  0  0  0  0  0  0  0  0
  130.5500  129.7600   73.2820 O   0  0  0  0  0  0  0  0  0  0  0  0
  130.1720  128.9640   71.0460 C   0  0  0  0  0  0  0  0  0  0  0  0
  129.1260  128.2350   70.4670 C   0  0  0  0  0  0  0  0  0  0  0  0
  129.3550  127.4240   69.3590 C   0  0  0  0  0  0  0  0  0  0  0  0
  130.6320  127.3280   68.8050 C   0  0  0  0  0  0  0  0  0  0  0  0
  130.7540  126.4730   67.6930 N   0  0  0  0  0  0  0  0  0  0  0  0
  130.1810  125.2680   67.4520 C   0  0  0  0  0  0  0  0  0  0  0  0
  129.4470  124.6800   68.2480 O   0  0  0  0  0  0  0  0  0  0  0  0
  130.5110  124.6660   66.1580 C   0  0  0  0  0  0  0  0  0  0  0  0
  129.6530  123.2300   65.6040 S   0  0  0  0  0  0  0  0  0  0  0  0
  130.6170  123.1600   64.1480 C   0  0  0  0  0  0  0  0  0  0  0  0
  130.4310  122.2040   63.2380 N   0  0  0  0  0  0  0  0  0  0  0  0
  131.2370  122.2520   62.1530 C   0  0  0  0  0  0  0  0  0  0  0  0
  131.0150  121.1490   61.1340 C   0  0  0  0  0  0  0  0  0  0  0  0
  132.2130  123.2260   61.9560 C   0  0  0  0  0  0  0  0  0  0  0  0
  132.4130  124.2360   62.9110 C   0  0  0  0  0  0  0  0  0  0  0  0
  133.4970  125.2860   62.6490 C   0  0  0  0  0  0  0  0  0  0  0  0
  134.3730  125.3940   63.6490 F   0  0  0  0  0  0  0  0  0  0  0  0
  134.1820  124.9660   61.5500 F   0  0  0  0  0  0  0  0  0  0  0  0
  132.9330  126.4830   62.4820 F   0  0  0  0  0  0  0  0  0  0  0  0
  131.5820  124.2100   64.0710 C   0  0  0  0  0  0  0  0  0  0  0  0
  131.5030  125.0500   65.2410 C   0  0  0  0  0  0  0  0  0  0  0  0
  132.3270  126.1300   65.4330 N   0  0  0  0  0  0  0  0  0  0  0  0
  131.6870  128.0500   69.3830 C   0  0  0  0  0  0  0  0  0  0  0  0
  131.4560  128.8610   70.4910 C   0  0  0  0  0  0  0  0  0  0  0  0
  1  2  1  0
  2  3  1  0
  3  4  2  0
  3  5  1  0
  5  6  2  0
  6  7  1  0
  7  8  2  0
  8  9  1  0
  9 10  1  0
 10 11  2  0
 10 12  1  0
 12 13  1  0
 13 14  1  0
 14 15  2  0
 15 16  1  0
 16 17  1  0
 16 18  2  0
 18 19  1  0
 19 20  1  0
 20 21  1  0
 20 22  1  0
 20 23  1  0
 19 24  2  0
 24 25  1  0
 25 26  1  0
  8 27  1  0
 27 28  2  0
 28  5  1  0
 25 12  2  0
 24 14  1  0
M  END
>  <Binding energies>  (25) 
[-6.93]

>  <Ligand effiencies>  (25) 
[-0.2235483870967742]

>  <Interactions>  (25) 
["V-B:TYR:539:CE2:9847, V-B:TYR:539:CD2:9845, V-B:ALA:541:CB:9863, V-A:LEU:475:CD2:4258, V-A:ASP:366:CG:3212, V-A:ILE:369:CD1:3238, V-A:ASP:366:CB:3211, V-A:ASP:366:CA:3209, H-A:TYR:484:OH:4347, H-A:GLU:543:OE2:4910, V-A:ARG:545:CZ:4926, V-A:GLU:543:CD:4908, V-A:GLU:543:CB:4906, V-B:HIS:456:CE1:9041, V-B:GLU:543:CB:9877, V-A:TYR:484:CZ:4346, V-A:HIS:456:CE1:4069, V-B:HIS:456:CG:9037, V-B:GLU:543:CG:9878, V-B:TYR:484:CE1:9316, V-B:TYR:484:CD1:9314, V-A:TYR:484:CE1:4344, H-A:GLU:543:OE1:4909, V-A:ARG:545:CG:4922, V-A:GLY:453:C:4041, V-A:GLY:453:CA:4043, H-A:LYS:547:NZ:4951, V-A:GLU:543:C:4902, V-A:ARG:545:CA:4919, V-A:GLY:544:C:4912"]

$$$$
4bb_Grossjean_2025
     RDKit          3D

 27 29  0  0  0  0  0  0  0  0999 V2000
  128.7320  130.8170   72.1800 C   0  0  0  0  0  0  0  0  0  0  0  0
  129.8970  129.8270   72.2470 C   0  0  0  0  0  0  0  0  0  0  0  0
  130.5680  129.7890   73.2800 O   0  0  0  0  0  0  0  0  0  0  0  0
  130.1660  128.9640   71.0510 C   0  0  0  0  0  0  0  0  0  0  0  0
  129.1130  128.2450   70.4700 C   0  0  0  0  0  0  0  0  0  0  0  0
  129.3360  127.4370   69.3600 C   0  0  0  0  0  0  0  0  0  0  0  0
  130.6130  127.3360   68.8040 C   0  0  0  0  0  0  0  0  0  0  0  0
  130.7270  126.4880   67.6840 N   0  0  0  0  0  0  0  0  0  0  0  0
  130.1510  125.2860   67.4400 C   0  0  0  0  0  0  0  0  0  0  0  0
  129.4100  124.7000   68.2290 O   0  0  0  0  0  0  0  0  0  0  0  0
  130.4930  124.6810   66.1500 C   0  0  0  0  0  0  0  0  0  0  0  0
  129.6310  123.2510   65.5840 S   0  0  0  0  0  0  0  0  0  0  0  0
  130.6070  123.1780   64.1350 C   0  0  0  0  0  0  0  0  0  0  0  0
  130.4190  122.2320   63.2170 N   0  0  0  0  0  0  0  0  0  0  0  0
  131.2360  122.2790   62.1400 C   0  0  0  0  0  0  0  0  0  0  0  0
  131.0040  121.1920   61.1060 C   0  0  0  0  0  0  0  0  0  0  0  0
  132.2270  123.2400   61.9600 C   0  0  0  0  0  0  0  0  0  0  0  0
  132.4290  124.2400   62.9240 C   0  0  0  0  0  0  0  0  0  0  0  0
  133.5320  125.2760   62.6820 C   0  0  0  0  0  0  0  0  0  0  0  0
  134.2850  124.9980   61.6160 F   0  0  0  0  0  0  0  0  0  0  0  0
  132.9860  126.4770   62.4840 F   0  0  0  0  0  0  0  0  0  0  0  0
  134.3410  125.3300   63.7400 F   0  0  0  0  0  0  0  0  0  0  0  0
  131.5840  124.2200   64.0740 C   0  0  0  0  0  0  0  0  0  0  0  0
  131.4970  125.0590   65.2430 C   0  0  0  0  0  0  0  0  0  0  0  0
  132.3210  126.1370   65.4430 N   0  0  0  0  0  0  0  0  0  0  0  0
  131.6740  128.0470   69.3840 C   0  0  0  0  0  0  0  0  0  0  0  0
  131.4490  128.8540   70.4960 C   0  0  0  0  0  0  0  0  0  0  0  0
  1  2  1  0
  2  3  2  0
  2  4  1  0
  4  5  2  0
  5  6  1  0
  6  7  2  0
  7  8  1  0
  8  9  1  0
  9 10  2  0
  9 11  1  0
 11 12  1  0
 12 13  1  0
 13 14  2  0
 14 15  1  0
 15 16  1  0
 15 17  2  0
 17 18  1  0
 18 19  1  0
 19 20  1  0
 19 21  1  0
 19 22  1  0
 18 23  2  0
 23 24  1  0
 24 25  1  0
  7 26  1  0
 26 27  2  0
 27  4  1  0
 24 11  2  0
 23 13  1  0
M  END
>  <Binding energies>  (26) 
[-6.78]

>  <Ligand effiencies>  (26) 
[-0.226]

>  <Interactions>  (26) 
["V-B:TYR:539:CE2:9847, V-B:TYR:539:CD2:9845, V-B:ALA:541:CB:9863, V-A:LEU:475:CD2:4258, V-A:ASP:366:CG:3212, V-A:ILE:369:CD1:3238, V-A:ASP:366:CB:3211, V-A:ASP:366:CA:3209, H-A:GLU:543:OE2:4910, V-A:ARG:545:CZ:4926, V-A:GLU:543:CD:4908, V-A:GLU:543:CB:4906, V-B:HIS:456:CE1:9041, V-B:GLU:543:CB:9877, V-A:TYR:484:CZ:4346, V-A:HIS:456:CE1:4069, V-B:HIS:456:CG:9037, V-B:GLU:543:CG:9878, V-B:TYR:484:CD1:9314, V-A:TYR:484:CE1:4344, H-A:GLU:543:OE1:4909, V-A:ARG:545:CG:4922, V-A:GLY:453:C:4041, V-A:GLY:453:CA:4043, H-A:LYS:547:NZ:4951, V-A:GLU:543:C:4902, V-A:ARG:545:CA:4919, V-A:GLY:544:C:4912"]

$$$$
4bd_Grossjean_2025
     RDKit          3D

 24 26  0  0  0  0  0  0  0  0999 V2000
  126.4530  122.3640   56.2620 C   0  0  0  0  0  0  0  0  0  0  0  0
  126.7610  122.7150   57.7070 C   0  0  0  0  0  0  0  0  0  0  0  0
  125.7800  123.2420   58.5430 C   0  0  0  0  0  0  0  0  0  0  0  0
  126.0790  123.5640   59.8750 C   0  0  0  0  0  0  0  0  0  0  0  0
  124.9680  124.1440   60.7570 C   0  0  0  0  0  0  0  0  0  0  0  0
  124.6560  123.3570   61.7890 F   0  0  0  0  0  0  0  0  0  0  0  0
  125.3510  125.3200   61.2520 F   0  0  0  0  0  0  0  0  0  0  0  0
  123.8600  124.3100   60.0340 F   0  0  0  0  0  0  0  0  0  0  0  0
  127.4140  123.3270   60.3200 C   0  0  0  0  0  0  0  0  0  0  0  0
  128.0770  123.5270   61.5860 C   0  0  0  0  0  0  0  0  0  0  0  0
  127.4340  124.0330   62.6850 N   0  0  0  0  0  0  0  0  0  0  0  0
  129.4330  123.1590   61.5880 C   0  0  0  0  0  0  0  0  0  0  0  0
  130.4000  123.2430   62.6860 C   0  0  0  0  0  0  0  0  0  0  0  0
  131.0000  122.2400   63.0740 O   0  0  0  0  0  0  0  0  0  0  0  0
  130.5790  124.4820   63.2090 N   0  0  0  0  0  0  0  0  0  0  0  0
  131.3920  124.8910   64.2830 C   0  0  0  0  0  0  0  0  0  0  0  0
  130.7220  125.4100   65.3940 C   0  0  0  0  0  0  0  0  0  0  0  0
  131.4370  125.8330   66.5110 C   0  0  0  0  0  0  0  0  0  0  0  0
  132.8250  125.7290   66.5220 C   0  0  0  0  0  0  0  0  0  0  0  0
  133.5040  125.2010   65.4270 C   0  0  0  0  0  0  0  0  0  0  0  0
  132.7920  124.7770   64.3070 C   0  0  0  0  0  0  0  0  0  0  0  0
  129.9290  122.5430   60.0130 S   0  0  0  0  0  0  0  0  0  0  0  0
  128.3240  122.7850   59.3620 C   0  0  0  0  0  0  0  0  0  0  0  0
  128.0350  122.4800   58.0980 N   0  0  0  0  0  0  0  0  0  0  0  0
  1  2  1  0
  2  3  2  0
  3  4  1  0
  4  5  1  0
  5  6  1  0
  5  7  1  0
  5  8  1  0
  4  9  2  0
  9 10  1  0
 10 11  1  0
 10 12  2  0
 12 13  1  0
 13 14  2  0
 13 15  1  0
 15 16  1  0
 16 17  2  0
 17 18  1  0
 18 19  2  0
 19 20  1  0
 20 21  2  0
 12 22  1  0
 22 23  1  0
 23 24  2  0
 24  2  1  0
 23  9  1  0
 21 16  1  0
M  END
>  <Binding energies>  (27) 
[-6.27]

>  <Ligand effiencies>  (27) 
[-0.23222222222222222]

>  <Interactions>  (27) 
["V-B:TYR:539:CE2:9847, V-B:PRO:540:CA:9854, V-B:TYR:539:CD2:9845, V-B:PRO:540:CD:9858, V-B:PRO:540:CB:9856, V-B:ALA:541:CB:9863, V-B:TYR:539:C:9838, H-B:GLU:543:OE2:9881, V-B:PRO:540:N:9855, V-B:TYR:539:CD1:9844, V-B:TYR:539:CE1:9846, V-A:ARG:545:CZ:4926, V-B:LEU:363:CA:8156, V-A:HIS:456:CE1:4069, V-B:GLU:543:CG:9878, V-B:GLU:543:CD:9879, V-B:ASN:362:CB:8147, V-A:ARG:545:CG:4922, V-A:ARG:545:CD:4923, V-B:ASP:366:CG:8184, V-B:ASN:362:C:8143"]

$$$$
4be_Grossjean_2025
     RDKit          3D

 25 27  0  0  0  0  0  0  0  0999 V2000
  124.3380  124.2460   58.8850 C   0  0  0  0  0  0  0  0  0  0  0  0
  125.7470  123.6940   58.7860 C   0  0  0  0  0  0  0  0  0  0  0  0
  126.1480  122.9050   57.7040 C   0  0  0  0  0  0  0  0  0  0  0  0
  127.4600  122.4290   57.6800 C   0  0  0  0  0  0  0  0  0  0  0  0
  128.3290  122.7490   58.7250 C   0  0  0  0  0  0  0  0  0  0  0  0
  127.8650  123.5500   59.7750 C   0  0  0  0  0  0  0  0  0  0  0  0
  128.7870  123.8300   60.7990 N   0  0  0  0  0  0  0  0  0  0  0  0
  129.7410  123.0250   61.3300 C   0  0  0  0  0  0  0  0  0  0  0  0
  129.9460  121.8670   60.9600 O   0  0  0  0  0  0  0  0  0  0  0  0
  130.5270  123.6130   62.4180 C   0  0  0  0  0  0  0  0  0  0  0  0
  132.2630  123.3220   62.5140 S   0  0  0  0  0  0  0  0  0  0  0  0
  132.3860  124.2660   63.9800 C   0  0  0  0  0  0  0  0  0  0  0  0
  133.5540  124.4390   64.5970 N   0  0  0  0  0  0  0  0  0  0  0  0
  133.5240  125.1910   65.7230 C   0  0  0  0  0  0  0  0  0  0  0  0
  134.8630  125.3750   66.4130 C   0  0  0  0  0  0  0  0  0  0  0  0
  132.3660  125.7690   66.2370 C   0  0  0  0  0  0  0  0  0  0  0  0
  131.1330  125.5900   65.5900 C   0  0  0  0  0  0  0  0  0  0  0  0
  129.8870  126.2480   66.1920 C   0  0  0  0  0  0  0  0  0  0  0  0
  130.1740  127.1180   67.1630 F   0  0  0  0  0  0  0  0  0  0  0  0
  129.2260  126.9130   65.2450 F   0  0  0  0  0  0  0  0  0  0  0  0
  129.0910  125.3150   66.7120 F   0  0  0  0  0  0  0  0  0  0  0  0
  131.1290  124.7980   64.4030 C   0  0  0  0  0  0  0  0  0  0  0  0
  130.0830  124.3980   63.4940 C   0  0  0  0  0  0  0  0  0  0  0  0
  128.7720  124.7620   63.6670 N   0  0  0  0  0  0  0  0  0  0  0  0
  126.5810  124.0150   59.8080 N   0  0  0  0  0  0  0  0  0  0  0  0
  1  2  1  0
  2  3  2  0
  3  4  1  0
  4  5  2  0
  5  6  1  0
  6  7  1  0
  7  8  1  0
  8  9  2  0
  8 10  1  0
 10 11  1  0
 11 12  1  0
 12 13  2  0
 13 14  1  0
 14 15  1  0
 14 16  2  0
 16 17  1  0
 17 18  1  0
 18 19  1  0
 18 20  1  0
 18 21  1  0
 17 22  2  0
 22 23  1  0
 23 24  1  0
  6 25  2  0
 25  2  1  0
 23 10  2  0
 22 12  1  0
M  END
>  <Binding energies>  (28) 
[-6.34]

>  <Ligand effiencies>  (28) 
[-0.22642857142857142]

>  <Interactions>  (28) 
["V-B:TYR:539:CE2:9847, V-B:PRO:540:CA:9854, V-B:TYR:539:CD2:9845, V-B:PRO:540:CD:9858, V-B:TYR:539:CG:9843, V-B:PRO:540:CB:9856, V-B:TYR:539:C:9838, H-B:GLU:543:OE2:9881, V-B:PRO:540:N:9855, V-B:TYR:539:CD1:9844, V-B:TYR:539:CE1:9846, V-B:TYR:539:CZ:9848, H-A:GLY:454:N:4049, H-A:TYR:484:OH:4347, V-A:ARG:545:CZ:4926, V-B:LEU:363:CA:8156, V-A:GLU:543:CD:4908, V-A:GLU:543:CG:4907, V-B:GLU:543:CB:9877, V-A:HIS:456:CE1:4069, V-B:GLU:543:CG:9878, V-B:GLU:543:CD:9879, V-A:ARG:545:CG:4922, V-A:ARG:545:CD:4923, V-A:GLY:454:CA:4048, V-A:GLY:453:C:4041, V-A:GLY:453:CA:4043"]

$$$$
4bg_Grossjean_2025
     RDKit          3D

 25 27  0  0  0  0  0  0  0  0999 V2000
  134.7670  125.3710   66.7420 C   0  0  0  0  0  0  0  0  0  0  0  0
  133.4650  125.1760   65.9880 C   0  0  0  0  0  0  0  0  0  0  0  0
  132.2910  125.7940   66.4120 C   0  0  0  0  0  0  0  0  0  0  0  0
  131.0910  125.6000   65.7080 C   0  0  0  0  0  0  0  0  0  0  0  0
  129.8250  126.3000   66.2120 C   0  0  0  0  0  0  0  0  0  0  0  0
  130.0680  127.1780   67.1880 F   0  0  0  0  0  0  0  0  0  0  0  0
  129.2490  126.9660   65.2110 F   0  0  0  0  0  0  0  0  0  0  0  0
  128.9700  125.3970   66.6910 F   0  0  0  0  0  0  0  0  0  0  0  0
  131.1390  124.7570   64.5580 C   0  0  0  0  0  0  0  0  0  0  0  0
  130.1370  124.3280   63.6130 C   0  0  0  0  0  0  0  0  0  0  0  0
  128.8220  124.7100   63.7000 N   0  0  0  0  0  0  0  0  0  0  0  0
  130.6290  123.4960   62.5960 C   0  0  0  0  0  0  0  0  0  0  0  0
  129.8950  122.8610   61.5020 C   0  0  0  0  0  0  0  0  0  0  0  0
  130.1900  121.7360   61.0970 O   0  0  0  0  0  0  0  0  0  0  0  0
  128.8600  123.5650   60.9990 N   0  0  0  0  0  0  0  0  0  0  0  0
  127.9980  123.1380   59.8970 C   0  0  0  0  0  0  0  0  0  0  0  0
  126.5310  123.4960   60.0960 C   0  0  0  0  0  0  0  0  0  0  0  0
  125.9950  123.5680   61.3850 C   0  0  0  0  0  0  0  0  0  0  0  0
  124.6640  123.9330   61.5660 C   0  0  0  0  0  0  0  0  0  0  0  0
  123.8750  124.2400   60.4590 C   0  0  0  0  0  0  0  0  0  0  0  0
  124.4080  124.1880   59.1720 C   0  0  0  0  0  0  0  0  0  0  0  0
  125.7390  123.8210   58.9910 C   0  0  0  0  0  0  0  0  0  0  0  0
  132.3510  123.1830   62.8000 S   0  0  0  0  0  0  0  0  0  0  0  0
  132.4080  124.1900   64.2270 C   0  0  0  0  0  0  0  0  0  0  0  0
  133.5440  124.3750   64.9010 N   0  0  0  0  0  0  0  0  0  0  0  0
  1  2  1  0
  2  3  2  0
  3  4  1  0
  4  5  1  0
  5  6  1  0
  5  7  1  0
  5  8  1  0
  4  9  2  0
  9 10  1  0
 10 11  1  0
 10 12  2  0
 12 13  1  0
 13 14  2  0
 13 15  1  0
 15 16  1  0
 16 17  1  0
 17 18  2  0
 18 19  1  0
 19 20  2  0
 20 21  1  0
 21 22  2  0
 12 23  1  0
 23 24  1  0
 24 25  2  0
 25  2  1  0
 24  9  1  0
 22 17  1  0
M  END
>  <Binding energies>  (29) 
[-6.46]

>  <Ligand effiencies>  (29) 
[-0.2307142857142857]

>  <Interactions>  (29) 
["V-B:PRO:540:CA:9854, V-B:PRO:540:CB:9856, H-B:GLU:543:OE2:9881, H-A:GLY:454:N:4049, H-A:TYR:484:OH:4347, V-A:ARG:545:CZ:4926, V-B:LEU:363:CA:8156, V-A:GLU:543:CD:4908, V-A:GLU:543:CG:4907, V-B:GLU:543:CB:9877, V-A:HIS:456:CE1:4069, V-B:GLU:543:CG:9878, V-B:GLU:543:CD:9879, V-B:ASN:362:CB:8147, V-A:ARG:545:CG:4922, V-A:ARG:545:CD:4923, V-A:GLY:454:CA:4048, V-B:ASP:366:CG:8184, V-A:GLY:453:C:4041, V-A:GLY:453:CA:4043, V-A:ILE:455:C:4051, V-B:ASN:362:C:8143, V-B:ASN:362:CA:8145"]

$$$$
4ca_Grossjean_2025
     RDKit          3D

 34 37  0  0  0  0  0  0  0  0999 V2000
  127.6610  133.0410   73.8780 C   0  0  0  0  0  0  0  0  0  0  0  0
  127.7350  131.6980   73.1450 C   0  0  0  0  0  0  0  0  0  0  0  0
  129.0030  131.5720   72.5150 O   0  0  0  0  0  0  0  0  0  0  0  0
  129.7890  130.4860   72.7310 C   0  0  0  0  0  0  0  0  0  0  0  0
  130.3470  130.2540   73.8090 O   0  0  0  0  0  0  0  0  0  0  0  0
  129.9100  129.5930   71.5310 C   0  0  0  0  0  0  0  0  0  0  0  0
  130.8590  128.5620   71.5370 C   0  0  0  0  0  0  0  0  0  0  0  0
  130.9910  127.7150   70.4400 C   0  0  0  0  0  0  0  0  0  0  0  0
  130.1860  127.8850   69.3140 C   0  0  0  0  0  0  0  0  0  0  0  0
  130.3980  126.9670   68.2670 N   0  0  0  0  0  0  0  0  0  0  0  0
  129.8000  125.7760   68.0150 C   0  0  0  0  0  0  0  0  0  0  0  0
  128.8830  125.3070   68.6890 O   0  0  0  0  0  0  0  0  0  0  0  0
  130.3080  125.0570   66.8450 C   0  0  0  0  0  0  0  0  0  0  0  0
  129.4980  123.5960   66.2830 S   0  0  0  0  0  0  0  0  0  0  0  0
  130.6170  123.4350   64.9500 C   0  0  0  0  0  0  0  0  0  0  0  0
  130.5180  122.4340   64.0790 N   0  0  0  0  0  0  0  0  0  0  0  0
  131.4240  122.3980   63.0680 C   0  0  0  0  0  0  0  0  0  0  0  0
  131.2800  121.2630   62.0960 C   0  0  0  0  0  0  0  0  0  0  0  0
  130.1090  120.4890   62.0620 C   0  0  0  0  0  0  0  0  0  0  0  0
  129.9710  119.4310   61.1670 C   0  0  0  0  0  0  0  0  0  0  0  0
  131.0080  119.1310   60.2890 C   0  0  0  0  0  0  0  0  0  0  0  0
  132.1800  119.8800   60.3020 C   0  0  0  0  0  0  0  0  0  0  0  0
  132.3130  120.9360   61.1990 C   0  0  0  0  0  0  0  0  0  0  0  0
  132.4380  123.3550   62.9500 C   0  0  0  0  0  0  0  0  0  0  0  0
  132.5540  124.4110   63.8660 C   0  0  0  0  0  0  0  0  0  0  0  0
  133.6870  125.4260   63.6760 C   0  0  0  0  0  0  0  0  0  0  0  0
  134.7110  124.9410   62.9710 F   0  0  0  0  0  0  0  0  0  0  0  0
  133.2300  126.4970   63.0290 F   0  0  0  0  0  0  0  0  0  0  0  0
  134.1630  125.7990   64.8640 F   0  0  0  0  0  0  0  0  0  0  0  0
  131.5980  124.4680   64.9210 C   0  0  0  0  0  0  0  0  0  0  0  0
  131.3950  125.3840   66.0170 C   0  0  0  0  0  0  0  0  0  0  0  0
  132.1970  126.4760   66.2280 N   0  0  0  0  0  0  0  0  0  0  0  0
  129.2300  128.9100   69.3000 C   0  0  0  0  0  0  0  0  0  0  0  0
  129.0960  129.7550   70.3990 C   0  0  0  0  0  0  0  0  0  0  0  0
  1  2  1  0
  2  3  1  0
  3  4  1  0
  4  5  2  0
  4  6  1  0
  6  7  2  0
  7  8  1  0
  8  9  2  0
  9 10  1  0
 10 11  1  0
 11 12  2  0
 11 13  1  0
 13 14  1  0
 14 15  1  0
 15 16  2  0
 16 17  1  0
 17 18  1  0
 18 19  2  0
 19 20  1  0
 20 21  2  0
 21 22  1  0
 22 23  2  0
 17 24  2  0
 24 25  1  0
 25 26  1  0
 26 27  1  0
 26 28  1  0
 26 29  1  0
 25 30  2  0
 30 31  1  0
 31 32  1  0
  9 33  1  0
 33 34  2  0
 34  6  1  0
 31 13  2  0
 30 15  1  0
 23 18  1  0
M  END
>  <Binding energies>  (30) 
[-7.38]

>  <Ligand effiencies>  (30) 
[-0.19945945945945945]

>  <Interactions>  (30) 
["V-A:PRO:482:CG:4326, V-B:TYR:539:CE2:9847, V-B:TYR:539:CD2:9845, V-B:ALA:541:CB:9863, V-A:LEU:475:CD2:4258, V-B:ALA:541:CA:9861, V-A:PRO:482:CB:4325, V-A:ASP:366:CG:3212, V-A:ILE:369:CD1:3238, V-A:ILE:369:CG2:3236, H-A:GLU:543:OE2:4910, V-A:ARG:545:CZ:4926, V-A:GLU:543:CD:4908, V-A:GLU:543:CG:4907, V-A:GLU:543:CB:4906, V-B:HIS:456:CE1:9041, V-B:GLU:543:CB:9877, V-A:TYR:484:CZ:4346, V-A:HIS:456:CE1:4069, V-B:HIS:456:CG:9037, V-B:GLU:543:CG:9878, V-B:TYR:484:CD1:9314, V-B:GLU:543:CD:9879, V-A:TYR:484:CE1:4344, H-A:GLU:543:OE1:4909, V-A:ARG:545:CG:4922, V-A:ARG:545:CD:4923, V-A:GLY:453:C:4041, V-A:GLY:453:CA:4043, V-B:GLU:543:CA:9875, V-A:TRP:381:CH2:3371, V-A:TRP:381:CZ2:3369, V-A:TRP:381:CZ3:3370, H-A:LYS:547:NZ:4951, V-B:TYR:484:CG:9313, V-A:GLU:543:C:4902, V-B:ASP:473:CG:9211, V-B:ASP:473:CB:9210, V-B:TYR:484:CB:9312, V-B:HIS:456:CB:9036"]

$$$$
4cb_Grossjean_2025
     RDKit          3D

 33 36  0  0  0  0  0  0  0  0999 V2000
  124.9660  123.8730   56.3830 C   0  0  0  0  0  0  0  0  0  0  0  0
  125.4280  122.7380   57.1030 O   0  0  0  0  0  0  0  0  0  0  0  0
  126.7500  122.5610   57.3550 C   0  0  0  0  0  0  0  0  0  0  0  0
  127.5170  121.9740   56.5860 O   0  0  0  0  0  0  0  0  0  0  0  0
  127.1890  123.1520   58.6650 C   0  0  0  0  0  0  0  0  0  0  0  0
  126.7830  124.4500   59.0000 C   0  0  0  0  0  0  0  0  0  0  0  0
  127.1670  125.0220   60.2090 C   0  0  0  0  0  0  0  0  0  0  0  0
  127.9670  124.3130   61.1050 C   0  0  0  0  0  0  0  0  0  0  0  0
  128.2830  124.9810   62.3040 N   0  0  0  0  0  0  0  0  0  0  0  0
  129.4700  125.4600   62.7490 C   0  0  0  0  0  0  0  0  0  0  0  0
  130.5190  125.4200   62.1040 O   0  0  0  0  0  0  0  0  0  0  0  0
  129.4380  126.0690   64.0810 C   0  0  0  0  0  0  0  0  0  0  0  0
  130.3880  125.3790   65.3950 S   0  0  0  0  0  0  0  0  0  0  0  0
  129.8560  126.6270   66.4970 C   0  0  0  0  0  0  0  0  0  0  0  0
  130.2670  126.6590   67.7620 N   0  0  0  0  0  0  0  0  0  0  0  0
  129.8080  127.6740   68.5400 C   0  0  0  0  0  0  0  0  0  0  0  0
  130.2940  127.6860   69.9610 C   0  0  0  0  0  0  0  0  0  0  0  0
  129.4340  127.3420   71.0160 C   0  0  0  0  0  0  0  0  0  0  0  0
  129.8770  127.3550   72.3370 C   0  0  0  0  0  0  0  0  0  0  0  0
  131.1910  127.7140   72.6200 C   0  0  0  0  0  0  0  0  0  0  0  0
  132.0630  128.0620   71.5930 C   0  0  0  0  0  0  0  0  0  0  0  0
  131.6150  128.0500   70.2760 C   0  0  0  0  0  0  0  0  0  0  0  0
  128.9210  128.6380   68.0490 C   0  0  0  0  0  0  0  0  0  0  0  0
  128.4780  128.6110   66.7180 C   0  0  0  0  0  0  0  0  0  0  0  0
  127.5070  129.7000   66.2440 C   0  0  0  0  0  0  0  0  0  0  0  0
  127.8590  130.2410   65.0760 F   0  0  0  0  0  0  0  0  0  0  0  0
  126.2890  129.1810   66.0930 F   0  0  0  0  0  0  0  0  0  0  0  0
  127.4590  130.6840   67.1410 F   0  0  0  0  0  0  0  0  0  0  0  0
  128.9670  127.5600   65.8890 C   0  0  0  0  0  0  0  0  0  0  0  0
  128.7500  127.2190   64.5040 C   0  0  0  0  0  0  0  0  0  0  0  0
  127.9400  127.9560   63.6770 N   0  0  0  0  0  0  0  0  0  0  0  0
  128.3750  123.0100   60.7790 C   0  0  0  0  0  0  0  0  0  0  0  0
  127.9900  122.4400   59.5700 C   0  0  0  0  0  0  0  0  0  0  0  0
  1  2  1  0
  2  3  1  0
  3  4  2  0
  3  5  1  0
  5  6  2  0
  6  7  1  0
  7  8  2  0
  8  9  1  0
  9 10  1  0
 10 11  2  0
 10 12  1  0
 12 13  1  0
 13 14  1  0
 14 15  2  0
 15 16  1  0
 16 17  1  0
 17 18  2  0
 18 19  1  0
 19 20  2  0
 20 21  1  0
 21 22  2  0
 16 23  2  0
 23 24  1  0
 24 25  1  0
 25 26  1  0
 25 27  1  0
 25 28  1  0
 24 29  2  0
 29 30  1  0
 30 31  1  0
  8 32  1  0
 32 33  2  0
 33  5  1  0
 30 12  2  0
 29 14  1  0
 22 17  1  0
M  END
>  <Binding energies>  (31) 
[-7.36]

>  <Ligand effiencies>  (31) 
[-0.20444444444444446]

>  <Interactions>  (31) 
["V-B:TYR:539:CE2:9847, V-B:PRO:540:CA:9854, V-B:TYR:539:CD2:9845, V-B:LEU:363:CD1:8160, V-B:PRO:540:CD:9858, V-B:PRO:540:CB:9856, V-B:TYR:539:C:9838, H-B:GLU:543:OE2:9881, V-B:PRO:540:N:9855, V-B:MET:535:CE:9806, V-B:TYR:531:CE2:9764, V-A:GLU:543:CD:4908, V-A:GLU:543:CG:4907, V-A:GLU:543:CB:4906, V-B:HIS:456:CE1:9041, V-A:HIS:456:CE1:4069, V-B:GLU:543:CG:9878, V-B:TYR:484:CE1:9316, V-B:GLU:543:CD:9879, V-A:ARG:545:CG:4922, H-B:GLU:543:OE1:9880, H-B:TYR:539:N:9841, V-B:TYR:484:CZ:9318, V-A:HIS:456:CG:4065, V-A:ARG:545:CA:4919, V-A:GLY:544:C:4912"]

$$$$
4cc_Grossjean_2025
     RDKit          3D

 31 34  0  0  0  0  0  0  0  0999 V2000
  126.2640  122.6360   56.8100 C   0  0  0  0  0  0  0  0  0  0  0  0
  127.2420  122.0050   57.6290 O   0  0  0  0  0  0  0  0  0  0  0  0
  127.6020  122.5940   58.8250 C   0  0  0  0  0  0  0  0  0  0  0  0
  126.9750  123.8000   59.1380 C   0  0  0  0  0  0  0  0  0  0  0  0
  127.2720  124.4670   60.3230 C   0  0  0  0  0  0  0  0  0  0  0  0
  128.2120  123.9400   61.2110 C   0  0  0  0  0  0  0  0  0  0  0  0
  128.4350  124.6750   62.3900 N   0  0  0  0  0  0  0  0  0  0  0  0
  129.5520  125.3260   62.7950 C   0  0  0  0  0  0  0  0  0  0  0  0
  130.5850  125.4030   62.1280 O   0  0  0  0  0  0  0  0  0  0  0  0
  129.4670  125.9610   64.1140 C   0  0  0  0  0  0  0  0  0  0  0  0
  130.3270  125.2690   65.4890 S   0  0  0  0  0  0  0  0  0  0  0  0
  129.7410  126.5310   66.5470 C   0  0  0  0  0  0  0  0  0  0  0  0
  130.0740  126.5670   67.8350 N   0  0  0  0  0  0  0  0  0  0  0  0
  129.5780  127.5920   68.5760 C   0  0  0  0  0  0  0  0  0  0  0  0
  129.9680  127.6050   70.0260 C   0  0  0  0  0  0  0  0  0  0  0  0
  129.2330  126.8740   70.9730 C   0  0  0  0  0  0  0  0  0  0  0  0
  129.5870  126.8820   72.3200 C   0  0  0  0  0  0  0  0  0  0  0  0
  130.6840  127.6260   72.7400 C   0  0  0  0  0  0  0  0  0  0  0  0
  131.4280  128.3620   71.8230 C   0  0  0  0  0  0  0  0  0  0  0  0
  131.0690  128.3510   70.4780 C   0  0  0  0  0  0  0  0  0  0  0  0
  128.7390  128.5650   68.0240 C   0  0  0  0  0  0  0  0  0  0  0  0
  128.3810  128.5350   66.6670 C   0  0  0  0  0  0  0  0  0  0  0  0
  127.4620  129.6370   66.1270 C   0  0  0  0  0  0  0  0  0  0  0  0
  126.2490  129.1900   65.7910 F   0  0  0  0  0  0  0  0  0  0  0  0
  127.2960  130.5800   67.0540 F   0  0  0  0  0  0  0  0  0  0  0  0
  128.0020  130.1810   65.0380 F   0  0  0  0  0  0  0  0  0  0  0  0
  128.9020  127.4700   65.8780 C   0  0  0  0  0  0  0  0  0  0  0  0
  128.7600  127.1150   64.4870 C   0  0  0  0  0  0  0  0  0  0  0  0
  128.0000  127.8470   63.6100 N   0  0  0  0  0  0  0  0  0  0  0  0
  128.8380  122.7210   60.9090 C   0  0  0  0  0  0  0  0  0  0  0  0
  128.5370  122.0570   59.7230 C   0  0  0  0  0  0  0  0  0  0  0  0
  1  2  1  0
  2  3  1  0
  3  4  2  0
  4  5  1  0
  5  6  2  0
  6  7  1  0
  7  8  1  0
  8  9  2  0
  8 10  1  0
 10 11  1  0
 11 12  1  0
 12 13  2  0
 13 14  1  0
 14 15  1  0
 15 16  2  0
 16 17  1  0
 17 18  2  0
 18 19  1  0
 19 20  2  0
 14 21  2  0
 21 22  1  0
 22 23  1  0
 23 24  1  0
 23 25  1  0
 23 26  1  0
 22 27  2  0
 27 28  1  0
 28 29  1  0
  6 30  1  0
 30 31  2  0
 31  3  1  0
 28 10  2  0
 27 12  1  0
 20 15  1  0
M  END
>  <Binding energies>  (32) 
[-7.0]

>  <Ligand effiencies>  (32) 
[-0.20588235294117646]

>  <Interactions>  (32) 
["V-B:TYR:539:CE2:9847, V-B:PRO:540:CA:9854, V-B:TYR:539:CD2:9845, V-B:PRO:540:CD:9858, V-B:ALA:541:CB:9863, V-B:TYR:539:C:9838, H-B:GLU:543:OE2:9881, V-B:PRO:540:N:9855, V-A:GLU:543:CD:4908, V-A:GLU:543:CG:4907, V-A:GLU:543:CB:4906, V-B:HIS:456:CE1:9041, V-A:HIS:456:CE1:4069, V-B:GLU:543:CG:9878, V-B:TYR:484:CE1:9316, V-B:GLU:543:CD:9879, H-B:GLU:543:OE1:9880, H-B:TYR:539:N:9841, V-B:TYR:484:CZ:9318, V-A:GLY:544:C:4912"]

$$$$
4ce_Grossjean_2025
     RDKit          3D

 30 33  0  0  0  0  0  0  0  0999 V2000
  124.8050  130.1960   58.1050 C   0  0  0  0  0  0  0  0  0  0  0  0
  124.5800  130.7760   59.4890 C   0  0  0  0  0  0  0  0  0  0  0  0
  123.6720  131.8160   59.7060 C   0  0  0  0  0  0  0  0  0  0  0  0
  123.5100  132.2950   61.0070 C   0  0  0  0  0  0  0  0  0  0  0  0
  124.2500  131.7290   62.0470 C   0  0  0  0  0  0  0  0  0  0  0  0
  125.1470  130.6940   61.7590 C   0  0  0  0  0  0  0  0  0  0  0  0
  125.8460  130.1500   62.8510 N   0  0  0  0  0  0  0  0  0  0  0  0
  125.4120  129.9480   64.1210 C   0  0  0  0  0  0  0  0  0  0  0  0
  124.2720  130.2160   64.5050 O   0  0  0  0  0  0  0  0  0  0  0  0
  126.3980  129.3750   65.0400 C   0  0  0  0  0  0  0  0  0  0  0  0
  126.3660  129.7970   66.7500 S   0  0  0  0  0  0  0  0  0  0  0  0
  127.7170  128.7410   67.0820 C   0  0  0  0  0  0  0  0  0  0  0  0
  128.2070  128.6060   68.3120 N   0  0  0  0  0  0  0  0  0  0  0  0
  129.2500  127.7500   68.4750 C   0  0  0  0  0  0  0  0  0  0  0  0
  129.7750  127.6170   69.8730 C   0  0  0  0  0  0  0  0  0  0  0  0
  129.1220  126.7990   70.8100 C   0  0  0  0  0  0  0  0  0  0  0  0
  129.6010  126.6760   72.1120 C   0  0  0  0  0  0  0  0  0  0  0  0
  130.7420  127.3710   72.4960 C   0  0  0  0  0  0  0  0  0  0  0  0
  131.4070  128.1890   71.5890 C   0  0  0  0  0  0  0  0  0  0  0  0
  130.9250  128.3110   70.2880 C   0  0  0  0  0  0  0  0  0  0  0  0
  129.8070  127.0500   67.4000 C   0  0  0  0  0  0  0  0  0  0  0  0
  129.3010  127.1880   66.0980 C   0  0  0  0  0  0  0  0  0  0  0  0
  129.9580  126.3900   64.9670 C   0  0  0  0  0  0  0  0  0  0  0  0
  129.1300  125.5130   64.3950 F   0  0  0  0  0  0  0  0  0  0  0  0
  130.3780  127.2220   64.0130 F   0  0  0  0  0  0  0  0  0  0  0  0
  130.9980  125.7060   65.4420 F   0  0  0  0  0  0  0  0  0  0  0  0
  128.1980  128.0720   65.9180 C   0  0  0  0  0  0  0  0  0  0  0  0
  127.4240  128.4570   64.7630 C   0  0  0  0  0  0  0  0  0  0  0  0
  127.6710  127.9640   63.5070 N   0  0  0  0  0  0  0  0  0  0  0  0
  125.3080  130.2170   60.4900 N   0  0  0  0  0  0  0  0  0  0  0  0
  1  2  1  0
  2  3  2  0
  3  4  1  0
  4  5  2  0
  5  6  1  0
  6  7  1  0
  7  8  1  0
  8  9  2  0
  8 10  1  0
 10 11  1  0
 11 12  1  0
 12 13  2  0
 13 14  1  0
 14 15  1  0
 15 16  2  0
 16 17  1  0
 17 18  2  0
 18 19  1  0
 19 20  2  0
 14 21  2  0
 21 22  1  0
 22 23  1  0
 23 24  1  0
 23 25  1  0
 23 26  1  0
 22 27  2  0
 27 28  1  0
 28 29  1  0
  6 30  2  0
 30  2  1  0
 28 10  2  0
 27 12  1  0
 20 15  1  0
M  END
>  <Binding energies>  (33) 
[-7.15]

>  <Ligand effiencies>  (33) 
[-0.21666666666666667]

>  <Interactions>  (33) 
["H-B:GLU:543:OE2:9881, H-B:ARG:545:NH2:9899, V-A:GLU:543:CD:4908, V-A:GLU:543:CG:4907, V-A:GLU:543:CB:4906, V-B:HIS:456:CE1:9041, V-A:HIS:456:CE1:4069, V-B:GLU:543:CG:9878, V-B:GLU:543:CD:9879, V-A:HIS:456:CD2:4067, H-B:GLU:543:OE1:9880, V-B:ILE:369:CB:8207, V-B:ASP:366:CB:8183, V-B:ILE:369:CG2:8208, V-B:ARG:545:CZ:9897, V-B:ASP:366:CG:8184, V-B:ASP:366:CA:8181, H-B:GLY:454:N:9021, V-B:ILE:369:CD1:8210, V-A:HIS:456:CG:4065, V-A:GLY:544:C:4912, V-B:ILE:369:CG1:8209"]

$$$$
4cf_Grossjean_2025
     RDKit          3D

 29 32  0  0  0  0  0  0  0  0999 V2000
  127.6230  128.0060   63.4990 N   0  0  0  0  0  0  0  0  0  0  0  0
  127.3750  128.4750   64.7640 C   0  0  0  0  0  0  0  0  0  0  0  0
  126.3300  129.3640   65.0640 C   0  0  0  0  0  0  0  0  0  0  0  0
  125.3620  129.9780   64.1510 C   0  0  0  0  0  0  0  0  0  0  0  0
  124.2160  130.2290   64.5280 O   0  0  0  0  0  0  0  0  0  0  0  0
  125.8260  130.2450   62.9060 N   0  0  0  0  0  0  0  0  0  0  0  0
  125.1510  130.7770   61.7910 C   0  0  0  0  0  0  0  0  0  0  0  0
  125.3210  130.3580   60.4570 C   0  0  0  0  0  0  0  0  0  0  0  0
  124.5970  130.9830   59.4400 C   0  0  0  0  0  0  0  0  0  0  0  0
  123.7210  132.0150   59.7790 C   0  0  0  0  0  0  0  0  0  0  0  0
  123.5450  132.4420   61.0550 N   0  0  0  0  0  0  0  0  0  0  0  0
  124.2570  131.8250   62.0330 C   0  0  0  0  0  0  0  0  0  0  0  0
  126.2990  129.7520   66.7830 S   0  0  0  0  0  0  0  0  0  0  0  0
  127.6850  128.7310   67.0840 C   0  0  0  0  0  0  0  0  0  0  0  0
  128.1980  128.5980   68.3060 N   0  0  0  0  0  0  0  0  0  0  0  0
  129.2870  127.7950   68.4380 C   0  0  0  0  0  0  0  0  0  0  0  0
  129.8470  127.6700   69.8250 C   0  0  0  0  0  0  0  0  0  0  0  0
  131.0470  128.3090   70.1730 C   0  0  0  0  0  0  0  0  0  0  0  0
  131.5740  128.1990   71.4580 C   0  0  0  0  0  0  0  0  0  0  0  0
  130.9020  127.4480   72.4160 C   0  0  0  0  0  0  0  0  0  0  0  0
  129.7080  126.8070   72.0990 C   0  0  0  0  0  0  0  0  0  0  0  0
  129.1860  126.9200   70.8140 C   0  0  0  0  0  0  0  0  0  0  0  0
  129.8380  127.1120   67.3500 C   0  0  0  0  0  0  0  0  0  0  0  0
  129.3020  127.2410   66.0600 C   0  0  0  0  0  0  0  0  0  0  0  0
  129.9590  126.4670   64.9110 C   0  0  0  0  0  0  0  0  0  0  0  0
  130.3390  127.2520   63.8990 F   0  0  0  0  0  0  0  0  0  0  0  0
  131.0460  125.8370   65.3560 F   0  0  0  0  0  0  0  0  0  0  0  0
  129.1020  125.5720   64.4200 F   0  0  0  0  0  0  0  0  0  0  0  0
  128.1720  128.0950   65.9050 C   0  0  0  0  0  0  0  0  0  0  0  0
  1  2  1  0
  2  3  2  0
  3  4  1  0
  4  5  2  0
  4  6  1  0
  6  7  1  0
  7  8  2  0
  8  9  1  0
  9 10  2  0
 10 11  1  0
 11 12  2  0
  3 13  1  0
 13 14  1  0
 14 15  2  0
 15 16  1  0
 16 17  1  0
 17 18  2  0
 18 19  1  0
 19 20  2  0
 20 21  1  0
 21 22  2  0
 16 23  2  0
 23 24  1  0
 24 25  1  0
 25 26  1  0
 25 27  1  0
 25 28  1  0
 24 29  2  0
 29  2  1  0
 12  7  1  0
 29 14  1  0
 22 17  1  0
M  END
>  <Binding energies>  (34) 
[-6.73]

>  <Ligand effiencies>  (34) 
[-0.2103125]

>  <Interactions>  (34) 
["H-B:GLU:543:OE2:9881, H-B:ARG:545:NH2:9899, V-A:GLU:543:CD:4908, V-A:GLU:543:CG:4907, V-A:GLU:543:CB:4906, V-B:HIS:456:CE1:9041, V-A:HIS:456:CE1:4069, V-B:GLU:543:CG:9878, V-B:GLU:543:CD:9879, V-A:HIS:456:CD2:4067, H-B:GLU:543:OE1:9880, V-B:ILE:369:CB:8207, V-B:ASP:366:CB:8183, V-B:ILE:369:CG2:8208, V-B:ARG:545:CZ:9897, V-B:ASP:366:CG:8184, V-B:ASP:366:CA:8181, H-B:GLY:454:N:9021, V-B:ILE:369:CD1:8210, V-A:HIS:456:CG:4065, V-A:ARG:545:CA:4919, V-A:GLY:544:C:4912"]

$$$$
4ci_Grossjean_2025
     RDKit          3D

 28 31  0  0  0  0  0  0  0  0999 V2000
  125.3500  126.3410   58.1330 N   0  0  0  0  0  0  0  0  0  0  0  0
  126.4630  126.2510   58.9270 C   0  0  0  0  0  0  0  0  0  0  0  0
  127.0010  127.3440   59.6260 C   0  0  0  0  0  0  0  0  0  0  0  0
  126.5180  128.7270   59.6700 C   0  0  0  0  0  0  0  0  0  0  0  0
  127.0010  129.5370   60.4640 O   0  0  0  0  0  0  0  0  0  0  0  0
  125.5190  129.0240   58.8010 N   0  0  0  0  0  0  0  0  0  0  0  0
  124.8780  130.2450   58.6350 C   0  0  0  0  0  0  0  0  0  0  0  0
  124.5510  131.0860   59.6970 C   0  0  0  0  0  0  0  0  0  0  0  0
  123.9380  132.1730   59.1200 C   0  0  0  0  0  0  0  0  0  0  0  0
  123.8970  131.9960   57.7770 O   0  0  0  0  0  0  0  0  0  0  0  0
  124.4960  130.7700   57.4820 N   0  0  0  0  0  0  0  0  0  0  0  0
  128.4220  126.8700   60.5530 S   0  0  0  0  0  0  0  0  0  0  0  0
  128.2930  125.2190   59.9930 C   0  0  0  0  0  0  0  0  0  0  0  0
  129.1600  124.2850   60.3770 N   0  0  0  0  0  0  0  0  0  0  0  0
  128.9770  123.0290   59.8930 C   0  0  0  0  0  0  0  0  0  0  0  0
  129.9730  121.9980   60.3400 C   0  0  0  0  0  0  0  0  0  0  0  0
  129.5550  120.7190   60.7420 C   0  0  0  0  0  0  0  0  0  0  0  0
  130.4750  119.7590   61.1570 C   0  0  0  0  0  0  0  0  0  0  0  0
  131.8310  120.0660   61.1760 C   0  0  0  0  0  0  0  0  0  0  0  0
  132.2730  121.3250   60.7870 C   0  0  0  0  0  0  0  0  0  0  0  0
  131.3500  122.2830   60.3750 C   0  0  0  0  0  0  0  0  0  0  0  0
  127.9340  122.7230   59.0120 C   0  0  0  0  0  0  0  0  0  0  0  0
  127.0140  123.7010   58.6000 C   0  0  0  0  0  0  0  0  0  0  0  0
  125.8960  123.2950   57.6330 C   0  0  0  0  0  0  0  0  0  0  0  0
  125.9980  122.0330   57.2130 F   0  0  0  0  0  0  0  0  0  0  0  0
  124.7140  123.4200   58.2360 F   0  0  0  0  0  0  0  0  0  0  0  0
  125.9250  124.0790   56.5550 F   0  0  0  0  0  0  0  0  0  0  0  0
  127.1900  125.0180   59.1130 C   0  0  0  0  0  0  0  0  0  0  0  0
  1  2  1  0
  2  3  2  0
  3  4  1  0
  4  5  2  0
  4  6  1  0
  6  7  1  0
  7  8  1  0
  8  9  2  0
  9 10  1  0
 10 11  1  0
  3 12  1  0
 12 13  1  0
 13 14  2  0
 14 15  1  0
 15 16  1  0
 16 17  2  0
 17 18  1  0
 18 19  2  0
 19 20  1  0
 20 21  2  0
 15 22  2  0
 22 23  1  0
 23 24  1  0
 24 25  1  0
 24 26  1  0
 24 27  1  0
 23 28  2  0
 28  2  1  0
 11  7  2  0
 28 13  1  0
 21 16  1  0
M  END
>  <Binding energies>  (35) 
[-6.84]

>  <Ligand effiencies>  (35) 
[-0.22064516129032258]

>  <Interactions>  (35) 
["H-B:ASP:366:OD2:8186, V-B:TYR:539:CE2:9847, V-B:PRO:540:CA:9854, V-B:TYR:539:CD2:9845, V-B:LEU:363:CD1:8160, V-B:PRO:540:CD:9858, V-B:PRO:540:CB:9856, V-B:ALA:541:CB:9863, V-B:TYR:539:C:9838, V-A:LEU:475:CD2:4258, V-B:PRO:540:N:9855, H-B:TYR:531:OH:9766, V-B:TYR:539:CA:9840, V-A:PRO:482:CB:4325, V-A:ILE:369:CG2:3236, V-B:MET:535:CE:9806, V-B:TYR:531:CZ:9765, V-B:PRO:540:CG:9857, V-A:TYR:539:CE2:4876, V-B:ILE:369:CB:8207, V-B:ASP:366:CB:8183, V-B:ILE:369:CG2:8208, V-B:ASP:366:CG:8184, V-B:ASP:366:CA:8181, V-A:TRP:381:CH2:3371, H-A:TYR:539:OH:4878"]

$$$$
8a_Ghoteimi_2023
     RDKit          3D

 40 44  0  0  0  0  0  0  0  0999 V2000
  132.8090  131.7880   57.7580 C   0  0  0  0  0  0  0  0  0  0  0  0
  131.9460  132.3200   56.6100 C   0  0  0  0  0  0  0  0  0  0  0  0
  131.0090  133.2600   57.1200 O   0  0  0  0  0  0  0  0  0  0  0  0
  129.7310  132.8950   57.4000 C   0  0  0  0  0  0  0  0  0  0  0  0
  128.7810  133.1090   56.6400 O   0  0  0  0  0  0  0  0  0  0  0  0
  129.5870  132.2100   58.7280 C   0  0  0  0  0  0  0  0  0  0  0  0
  129.9500  130.8630   58.8460 C   0  0  0  0  0  0  0  0  0  0  0  0
  129.8270  130.2000   60.0630 C   0  0  0  0  0  0  0  0  0  0  0  0
  129.3390  130.8670   61.1880 C   0  0  0  0  0  0  0  0  0  0  0  0
  129.2540  130.0950   62.3630 N   0  0  0  0  0  0  0  0  0  0  0  0
  128.1910  129.4670   62.9250 C   0  0  0  0  0  0  0  0  0  0  0  0
  127.0520  129.4790   62.4580 O   0  0  0  0  0  0  0  0  0  0  0  0
  128.4800  128.7360   64.1620 C   0  0  0  0  0  0  0  0  0  0  0  0
  127.8150  129.2880   65.6990 S   0  0  0  0  0  0  0  0  0  0  0  0
  128.5950  127.9820   66.5600 C   0  0  0  0  0  0  0  0  0  0  0  0
  128.4850  127.8510   67.8820 N   0  0  0  0  0  0  0  0  0  0  0  0
  129.1360  126.8030   68.4540 C   0  0  0  0  0  0  0  0  0  0  0  0
  129.0160  126.6870   69.9400 C   0  0  0  0  0  0  0  0  0  0  0  0
  129.6460  127.6060   70.7900 C   0  0  0  0  0  0  0  0  0  0  0  0
  129.5400  127.4860   72.1730 C   0  0  0  0  0  0  0  0  0  0  0  0
  128.8030  126.4490   72.7400 C   0  0  0  0  0  0  0  0  0  0  0  0
  128.7550  126.4070   74.1200 O   0  0  0  0  0  0  0  0  0  0  0  0
  128.9630  127.6070   74.8570 C   0  0  0  0  0  0  0  0  0  0  0  0
  128.1640  125.5270   71.8980 C   0  0  0  0  0  0  0  0  0  0  0  0
  128.2740  125.6480   70.5140 C   0  0  0  0  0  0  0  0  0  0  0  0
  129.8840  125.8910   67.7060 C   0  0  0  0  0  0  0  0  0  0  0  0
  129.9880  126.0160   66.3160 C   0  0  0  0  0  0  0  0  0  0  0  0
  130.7700  125.0000   65.5650 C   0  0  0  0  0  0  0  0  0  0  0  0
  132.0960  125.2550   65.2100 C   0  0  0  0  0  0  0  0  0  0  0  0
  132.8380  124.2980   64.5250 C   0  0  0  0  0  0  0  0  0  0  0  0
  132.2710  123.0690   64.1870 C   0  0  0  0  0  0  0  0  0  0  0  0
  133.0820  122.1810   63.5070 O   0  0  0  0  0  0  0  0  0  0  0  0
  133.2530  122.3310   62.1030 C   0  0  0  0  0  0  0  0  0  0  0  0
  130.9400  122.8070   64.5490 C   0  0  0  0  0  0  0  0  0  0  0  0
  130.2010  123.7670   65.2370 C   0  0  0  0  0  0  0  0  0  0  0  0
  129.3330  127.1180   65.6980 C   0  0  0  0  0  0  0  0  0  0  0  0
  129.2650  127.5850   64.3350 C   0  0  0  0  0  0  0  0  0  0  0  0
  129.9270  126.9600   63.3080 N   0  0  0  0  0  0  0  0  0  0  0  0
  128.9770  132.2190   61.0810 C   0  0  0  0  0  0  0  0  0  0  0  0
  129.1010  132.8800   59.8620 C   0  0  0  0  0  0  0  0  0  0  0  0
  1  2  1  0
  2  3  1  0
  3  4  1  0
  4  5  2  0
  4  6  1  0
  6  7  2  0
  7  8  1  0
  8  9  2  0
  9 10  1  0
 10 11  1  0
 11 12  2  0
 11 13  1  0
 13 14  1  0
 14 15  1  0
 15 16  2  0
 16 17  1  0
 17 18  1  0
 18 19  2  0
 19 20  1  0
 20 21  2  0
 21 22  1  0
 22 23  1  0
 21 24  1  0
 24 25  2  0
 17 26  2  0
 26 27  1  0
 27 28  1  0
 28 29  2  0
 29 30  1  0
 30 31  2  0
 31 32  1  0
 32 33  1  0
 31 34  1  0
 34 35  2  0
 27 36  2  0
 36 37  1  0
 37 38  1  0
  9 39  1  0
 39 40  2  0
 40  6  1  0
 37 13  2  0
 36 15  1  0
 25 18  1  0
 35 28  1  0
M  END
>  <Binding energies>  (36) 
[-9.51]

>  <Ligand effiencies>  (36) 
[-0.22116279069767442]

>  <Interactions>  (36) 
["V-A:LEU:475:CD2:4258, H-B:GLU:543:OE2:9881, H-A:GLY:454:N:4049, V-A:ILE:369:CD1:3238, V-A:ILE:369:CG2:3236, V-A:GLU:543:CD:4908, V-A:GLU:543:CG:4907, V-B:HIS:456:CE1:9041, V-B:GLU:543:CB:9877, V-A:HIS:456:CE1:4069, V-B:GLU:543:CG:9878, V-B:HIS:456:CD2:9039, V-B:GLU:543:CD:9879, V-A:TYR:484:CE1:4344, V-A:PRO:540:N:4884, V-A:LEU:363:CD1:3188, V-A:TYR:539:C:4867, H-A:TYR:539:N:4870, V-A:PRO:540:CA:4883, H-A:GLU:543:OE1:4909, V-A:PRO:540:CB:4885, V-A:GLY:454:CA:4048, H-B:LYS:547:NZ:9922, V-B:GLU:543:C:9873"]

$$$$
8c_Ghoteimi_2023
     RDKit          3D

 34 38  0  0  0  0  0  0  0  0999 V2000
  129.1920  128.8270   75.3450 C   0  0  0  0  0  0  0  0  0  0  0  0
  130.2480  128.4860   74.4540 O   0  0  0  0  0  0  0  0  0  0  0  0
  129.9950  128.4390   73.0960 C   0  0  0  0  0  0  0  0  0  0  0  0
  129.7990  127.1760   72.5420 C   0  0  0  0  0  0  0  0  0  0  0  0
  129.5410  127.0330   71.1820 C   0  0  0  0  0  0  0  0  0  0  0  0
  129.4730  128.1520   70.3390 C   0  0  0  0  0  0  0  0  0  0  0  0
  129.2010  128.0040   68.8760 C   0  0  0  0  0  0  0  0  0  0  0  0
  128.3660  128.8900   68.1880 C   0  0  0  0  0  0  0  0  0  0  0  0
  128.1300  128.7320   66.8190 C   0  0  0  0  0  0  0  0  0  0  0  0
  127.2340  129.6820   66.1220 C   0  0  0  0  0  0  0  0  0  0  0  0
  125.8480  129.5110   66.1750 C   0  0  0  0  0  0  0  0  0  0  0  0
  125.0070  130.4110   65.5280 C   0  0  0  0  0  0  0  0  0  0  0  0
  125.5340  131.4910   64.8180 C   0  0  0  0  0  0  0  0  0  0  0  0
  124.6240  132.3340   64.2100 O   0  0  0  0  0  0  0  0  0  0  0  0
  123.9950  131.9220   63.0020 C   0  0  0  0  0  0  0  0  0  0  0  0
  126.9270  131.6590   64.7620 C   0  0  0  0  0  0  0  0  0  0  0  0
  127.7680  130.7580   65.4110 C   0  0  0  0  0  0  0  0  0  0  0  0
  128.7660  127.6510   66.1520 C   0  0  0  0  0  0  0  0  0  0  0  0
  128.7500  127.2030   64.7850 C   0  0  0  0  0  0  0  0  0  0  0  0
  128.0250  127.8410   63.8100 N   0  0  0  0  0  0  0  0  0  0  0  0
  129.5390  126.0650   64.5490 C   0  0  0  0  0  0  0  0  0  0  0  0
  129.7550  125.3500   63.2890 C   0  0  0  0  0  0  0  0  0  0  0  0
  130.8450  125.4000   62.7160 O   0  0  0  0  0  0  0  0  0  0  0  0
  128.6870  124.6560   62.8250 N   0  0  0  0  0  0  0  0  0  0  0  0
  128.6270  123.8960   61.6650 C   0  0  0  0  0  0  0  0  0  0  0  0
  128.0040  122.7530   61.4790 N   0  0  0  0  0  0  0  0  0  0  0  0
  128.1560  122.3120   60.2460 C   0  0  0  0  0  0  0  0  0  0  0  0
  128.9200  123.1080   59.3980 C   0  0  0  0  0  0  0  0  0  0  0  0
  129.4650  124.5060   60.2750 S   0  0  0  0  0  0  0  0  0  0  0  0
  130.3290  125.5210   66.0290 S   0  0  0  0  0  0  0  0  0  0  0  0
  129.5990  126.8150   66.9510 C   0  0  0  0  0  0  0  0  0  0  0  0
  129.8230  126.9640   68.2570 N   0  0  0  0  0  0  0  0  0  0  0  0
  129.6700  129.4190   70.9050 C   0  0  0  0  0  0  0  0  0  0  0  0
  129.9280  129.5660   72.2640 C   0  0  0  0  0  0  0  0  0  0  0  0
  1  2  1  0
  2  3  1  0
  3  4  2  0
  4  5  1  0
  5  6  2  0
  6  7  1  0
  7  8  2  0
  8  9  1  0
  9 10  1  0
 10 11  2  0
 11 12  1  0
 12 13  2  0
 13 14  1  0
 14 15  1  0
 13 16  1  0
 16 17  2  0
  9 18  2  0
 18 19  1  0
 19 20  1  0
 19 21  2  0
 21 22  1  0
 22 23  2  0
 22 24  1  0
 24 25  1  0
 25 26  2  0
 26 27  1  0
 27 28  2  0
 28 29  1  0
 21 30  1  0
 30 31  1  0
 31 32  2  0
  6 33  1  0
 33 34  2  0
 34  3  1  0
 32  7  1  0
 17 10  1  0
 31 18  1  0
 29 25  1  0
M  END
>  <Binding energies>  (37) 
[-8.32]

>  <Ligand effiencies>  (37) 
[-0.22486486486486487]

>  <Interactions>  (37) 
["V-B:TYR:539:CE2:9847, V-B:PRO:540:CA:9854, V-B:TYR:539:CD2:9845, V-B:TYR:539:C:9838, H-B:GLU:543:OE2:9881, H-B:ALA:541:N:9862, V-B:TYR:539:CZ:9848, V-A:GLU:543:CD:4908, V-A:GLU:543:CG:4907, V-A:GLU:543:CB:4906, V-B:HIS:456:CE1:9041, V-A:HIS:456:CE1:4069, V-B:GLU:543:CG:9878, V-B:GLU:543:CD:9879, V-B:PRO:540:C:9852, H-A:GLU:543:OE1:4909, V-B:LEU:475:CD1:9229, H-B:GLU:543:OE1:9880, V-B:GLY:454:CA:9020, H-B:GLY:454:N:9021, V-B:ILE:369:CD1:8210, H-A:LYS:547:NZ:4951, V-A:LYS:547:CE:4950, V-A:GLU:543:C:4902"]

$$$$
8d_Ghoteimi_2023
     RDKit          3D

 30 33  0  0  0  0  0  0  0  0999 V2000
  124.5430  129.5040   67.0500 C   0  0  0  0  0  0  0  0  0  0  0  0
  124.9620  130.2060   65.8880 O   0  0  0  0  0  0  0  0  0  0  0  0
  126.2450  130.6320   65.7570 C   0  0  0  0  0  0  0  0  0  0  0  0
  126.5640  131.8030   65.5380 O   0  0  0  0  0  0  0  0  0  0  0  0
  127.2320  129.5410   65.9050 C   0  0  0  0  0  0  0  0  0  0  0  0
  127.6310  128.5210   64.5210 S   0  0  0  0  0  0  0  0  0  0  0  0
  128.7560  127.5900   65.4820 C   0  0  0  0  0  0  0  0  0  0  0  0
  129.4480  126.5730   64.9660 N   0  0  0  0  0  0  0  0  0  0  0  0
  130.2980  125.9170   65.8010 C   0  0  0  0  0  0  0  0  0  0  0  0
  131.0590  124.7790   65.1980 C   0  0  0  0  0  0  0  0  0  0  0  0
  132.3740  124.9470   64.7410 C   0  0  0  0  0  0  0  0  0  0  0  0
  133.0770  123.8850   64.1800 C   0  0  0  0  0  0  0  0  0  0  0  0
  132.4860  122.6270   64.0620 C   0  0  0  0  0  0  0  0  0  0  0  0
  133.2580  121.6320   63.4950 O   0  0  0  0  0  0  0  0  0  0  0  0
  133.4450  121.6180   62.0830 C   0  0  0  0  0  0  0  0  0  0  0  0
  131.1730  122.4470   64.5180 C   0  0  0  0  0  0  0  0  0  0  0  0
  130.4730  123.5120   65.0790 C   0  0  0  0  0  0  0  0  0  0  0  0
  130.4480  126.2720   67.1440 C   0  0  0  0  0  0  0  0  0  0  0  0
  129.7240  127.3400   67.6840 C   0  0  0  0  0  0  0  0  0  0  0  0
  129.9100  127.6980   69.1100 C   0  0  0  0  0  0  0  0  0  0  0  0
  128.9360  127.3600   70.0510 C   0  0  0  0  0  0  0  0  0  0  0  0
  129.1070  127.7040   71.3900 C   0  0  0  0  0  0  0  0  0  0  0  0
  130.2520  128.3840   71.8060 C   0  0  0  0  0  0  0  0  0  0  0  0
  130.3360  128.6840   73.1510 O   0  0  0  0  0  0  0  0  0  0  0  0
  129.4590  129.6620   73.7010 C   0  0  0  0  0  0  0  0  0  0  0  0
  131.2330  128.7180   70.8570 C   0  0  0  0  0  0  0  0  0  0  0  0
  131.0600  128.3740   69.5190 C   0  0  0  0  0  0  0  0  0  0  0  0
  128.8330  128.0420   66.8300 C   0  0  0  0  0  0  0  0  0  0  0  0
  127.9510  129.1560   67.0430 C   0  0  0  0  0  0  0  0  0  0  0  0
  127.8280  129.7790   68.2590 N   0  0  0  0  0  0  0  0  0  0  0  0
  1  2  1  0
  2  3  1  0
  3  4  2  0
  3  5  1  0
  5  6  1  0
  6  7  1  0
  7  8  2  0
  8  9  1  0
  9 10  1  0
 10 11  2  0
 11 12  1  0
 12 13  2  0
 13 14  1  0
 14 15  1  0
 13 16  1  0
 16 17  2  0
  9 18  2  0
 18 19  1  0
 19 20  1  0
 20 21  2  0
 21 22  1  0
 22 23  2  0
 23 24  1  0
 24 25  1  0
 23 26  1  0
 26 27  2  0
 19 28  2  0
 28 29  1  0
 29 30  1  0
 29  5  2  0
 28  7  1  0
 17 10  1  0
 27 20  1  0
M  END
>  <Binding energies>  (38) 
[-7.03]

>  <Ligand effiencies>  (38) 
[-0.2196875]

>  <Interactions>  (38) 
["V-A:LEU:475:CD2:4258, H-A:GLY:454:N:4049, V-A:ILE:369:CD1:3238, V-A:ILE:369:CG2:3236, V-A:GLU:543:CD:4908, V-A:GLU:543:CG:4907, V-A:GLU:543:CB:4906, V-B:HIS:456:CE1:9041, V-A:TYR:484:CZ:4346, V-A:HIS:456:CE1:4069, V-B:HIS:456:CD2:9039, V-B:TYR:484:CE1:9316, V-B:GLU:543:CD:9879, V-A:TYR:484:CE1:4344, V-A:ARG:545:CG:4922, V-A:GLY:454:CA:4048, V-B:ARG:545:CG:9893, V-B:ARG:545:CD:9894, H-B:TYR:484:OH:9319, H-B:GLY:454:N:9021, V-B:TYR:484:CZ:9318, H-A:LYS:547:NZ:4951, V-A:LYS:547:CE:4950, V-A:GLU:543:C:4902, V-A:GLY:544:C:4912"]

$$$$
9a_Ghoteimi_2023
     RDKit          3D

 48 54  0  0  0  0  0  0  0  0999 V2000
  137.5800  118.9420   58.9540 C   0  0  0  0  0  0  0  0  0  0  0  0
  136.9760  118.4710   57.6270 C   0  0  0  0  0  0  0  0  0  0  0  0
  135.5570  118.5510   57.6970 O   0  0  0  0  0  0  0  0  0  0  0  0
  134.8730  117.9810   58.7210 C   0  0  0  0  0  0  0  0  0  0  0  0
  134.7710  116.7590   58.8740 O   0  0  0  0  0  0  0  0  0  0  0  0
  134.2460  118.9820   59.6480 C   0  0  0  0  0  0  0  0  0  0  0  0
  132.9230  119.3850   59.4260 C   0  0  0  0  0  0  0  0  0  0  0  0
  132.3140  120.3130   60.2660 C   0  0  0  0  0  0  0  0  0  0  0  0
  133.0110  120.8550   61.3450 C   0  0  0  0  0  0  0  0  0  0  0  0
  132.2960  121.7840   62.1260 N   0  0  0  0  0  0  0  0  0  0  0  0
  131.0280  121.7360   62.6050 C   0  0  0  0  0  0  0  0  0  0  0  0
  130.2510  120.8000   62.4160 O   0  0  0  0  0  0  0  0  0  0  0  0
  130.6150  122.8980   63.3980 C   0  0  0  0  0  0  0  0  0  0  0  0
  130.7570  122.8740   65.1560 S   0  0  0  0  0  0  0  0  0  0  0  0
  130.1210  124.4980   65.2750 C   0  0  0  0  0  0  0  0  0  0  0  0
  129.9890  125.1110   66.4510 N   0  0  0  0  0  0  0  0  0  0  0  0
  129.4950  126.3780   66.4330 C   0  0  0  0  0  0  0  0  0  0  0  0
  129.3670  127.0510   67.7610 C   0  0  0  0  0  0  0  0  0  0  0  0
  128.5300  128.1620   67.9180 C   0  0  0  0  0  0  0  0  0  0  0  0
  128.4030  128.7940   69.1520 C   0  0  0  0  0  0  0  0  0  0  0  0
  129.0980  128.3300   70.2800 C   0  0  0  0  0  0  0  0  0  0  0  0
  128.9960  128.9660   71.5210 N   0  0  0  0  0  0  0  0  0  0  0  0
  128.6530  128.2170   72.7470 C   0  0  0  0  0  0  0  0  0  0  0  0
  128.2330  129.1150   73.9290 C   0  0  0  0  0  0  0  0  0  0  0  0
  129.2370  130.0810   74.1870 O   0  0  0  0  0  0  0  0  0  0  0  0
  129.4570  130.9170   73.0620 C   0  0  0  0  0  0  0  0  0  0  0  0
  129.9190  130.0700   71.8590 C   0  0  0  0  0  0  0  0  0  0  0  0
  129.9460  127.2250   70.1140 C   0  0  0  0  0  0  0  0  0  0  0  0
  130.0750  126.5960   68.8800 C   0  0  0  0  0  0  0  0  0  0  0  0
  129.1110  127.0120   65.2500 C   0  0  0  0  0  0  0  0  0  0  0  0
  129.2290  126.3630   64.0150 C   0  0  0  0  0  0  0  0  0  0  0  0
  128.7720  127.0700   62.7910 C   0  0  0  0  0  0  0  0  0  0  0  0
  129.1840  128.3790   62.5290 C   0  0  0  0  0  0  0  0  0  0  0  0
  128.7660  129.0340   61.3750 C   0  0  0  0  0  0  0  0  0  0  0  0
  127.9380  128.3910   60.4420 C   0  0  0  0  0  0  0  0  0  0  0  0
  127.4960  129.0330   59.2820 N   0  0  0  0  0  0  0  0  0  0  0  0
  126.0550  129.3130   59.1190 C   0  0  0  0  0  0  0  0  0  0  0  0
  125.7550  130.3400   58.0070 C   0  0  0  0  0  0  0  0  0  0  0  0
  126.3290  129.9120   56.7820 O   0  0  0  0  0  0  0  0  0  0  0  0
  127.7380  129.7760   56.8810 C   0  0  0  0  0  0  0  0  0  0  0  0
  128.0910  128.7330   57.9640 C   0  0  0  0  0  0  0  0  0  0  0  0
  127.5320  127.0760   60.7130 C   0  0  0  0  0  0  0  0  0  0  0  0
  127.9470  126.4230   61.8700 C   0  0  0  0  0  0  0  0  0  0  0  0
  129.7780  125.0490   64.0060 C   0  0  0  0  0  0  0  0  0  0  0  0
  130.0940  124.1220   62.9480 C   0  0  0  0  0  0  0  0  0  0  0  0
  129.9110  124.4240   61.6230 N   0  0  0  0  0  0  0  0  0  0  0  0
  134.3370  120.4540   61.5780 C   0  0  0  0  0  0  0  0  0  0  0  0
  134.9450  119.5270   60.7360 C   0  0  0  0  0  0  0  0  0  0  0  0
  1  2  1  0
  2  3  1  0
  3  4  1  0
  4  5  2  0
  4  6  1  0
  6  7  2  0
  7  8  1  0
  8  9  2  0
  9 10  1  0
 10 11  1  0
 11 12  2  0
 11 13  1  0
 13 14  1  0
 14 15  1  0
 15 16  2  0
 16 17  1  0
 17 18  1  0
 18 19  2  0
 19 20  1  0
 20 21  2  0
 21 22  1  0
 22 23  1  0
 23 24  1  0
 24 25  1  0
 25 26  1  0
 26 27  1  0
 21 28  1  0
 28 29  2  0
 17 30  2  0
 30 31  1  0
 31 32  1  0
 32 33  2  0
 33 34  1  0
 34 35  2  0
 35 36  1  0
 36 37  1  0
 37 38  1  0
 38 39  1  0
 39 40  1  0
 40 41  1  0
 35 42  1  0
 42 43  2  0
 31 44  2  0
 44 45  1  0
 45 46  1  0
  9 47  1  0
 47 48  2  0
 48  6  1  0
 45 13  2  0
 44 15  1  0
 29 18  1  0
 43 32  1  0
 27 22  1  0
 41 36  1  0
M  END
>  <Binding energies>  (39) 
[-3.52]

>  <Ligand effiencies>  (39) 
[-0.06901960784313725]

>  <Interactions>  (39) 
["V-B:TYR:539:CE2:9847, V-B:TYR:539:CD2:9845, V-B:ALA:541:CB:9863, V-A:LEU:475:CD2:4258, H-B:TYR:531:OH:9766, V-A:ILE:369:CD1:3238, V-A:ILE:369:CG2:3236, H-A:TYR:484:OH:4347, V-A:GLU:543:CD:4908, V-A:GLU:543:CG:4907, V-A:GLU:543:CB:4906, V-B:HIS:456:CE1:9041, V-A:TYR:484:CZ:4346, V-A:HIS:456:CE1:4069, V-B:HIS:456:CG:9037, V-B:GLU:543:CG:9878, V-B:HIS:456:CD2:9039, V-B:GLU:543:CD:9879, V-A:TYR:484:CE1:4344, V-A:MET:535:CE:4835, V-B:ASP:366:CB:8183, V-B:ASP:366:CG:8184, V-A:TRP:381:CH2:3371, V-A:TRP:381:CZ2:3369, V-A:TRP:381:CZ3:3370, V-A:ILE:369:CB:3235, V-A:ILE:369:CG1:3237, V-A:GLU:543:C:4902, V-A:SER:385:C:3404, V-A:SER:385:CA:3406, V-A:ASN:372:CA:3264, V-A:ILE:369:CA:3233, V-A:SER:385:CB:3408, V-A:ASN:372:C:3262, V-A:ILE:496:CD1:4466, V-A:LEU:373:CD2:3280, V-A:ILE:369:C:3231, V-A:ASN:372:CB:3266, V-A:VAL:384:CG1:3401, H-A:ASN:382:ND2:3380"]

$$$$
9b_Ghoteimi_2023
     RDKit          3D

 42 48  0  0  0  0  0  0  0  0999 V2000
  128.8460  127.0060   61.2820 N   0  0  0  0  0  0  0  0  0  0  0  0
  128.4980  127.8680   62.2910 C   0  0  0  0  0  0  0  0  0  0  0  0
  127.9380  129.1350   62.0670 C   0  0  0  0  0  0  0  0  0  0  0  0
  127.5980  129.7710   60.7910 C   0  0  0  0  0  0  0  0  0  0  0  0
  128.1720  130.8010   60.4290 O   0  0  0  0  0  0  0  0  0  0  0  0
  126.6280  129.1530   60.0720 N   0  0  0  0  0  0  0  0  0  0  0  0
  126.1060  129.5410   58.8450 C   0  0  0  0  0  0  0  0  0  0  0  0
  125.0220  130.4090   58.7190 C   0  0  0  0  0  0  0  0  0  0  0  0
  124.8230  130.5390   57.3640 C   0  0  0  0  0  0  0  0  0  0  0  0
  125.7400  129.7870   56.7080 O   0  0  0  0  0  0  0  0  0  0  0  0
  126.5470  129.1600   57.6570 N   0  0  0  0  0  0  0  0  0  0  0  0
  127.6460  129.9820   63.5860 S   0  0  0  0  0  0  0  0  0  0  0  0
  128.2910  128.6440   64.5070 C   0  0  0  0  0  0  0  0  0  0  0  0
  128.3760  128.6880   65.8360 N   0  0  0  0  0  0  0  0  0  0  0  0
  128.9090  127.6030   66.4560 C   0  0  0  0  0  0  0  0  0  0  0  0
  129.0120  127.6870   67.9440 C   0  0  0  0  0  0  0  0  0  0  0  0
  129.0150  126.5320   68.7360 C   0  0  0  0  0  0  0  0  0  0  0  0
  129.0970  126.6160   70.1220 C   0  0  0  0  0  0  0  0  0  0  0  0
  129.1640  127.8600   70.7700 C   0  0  0  0  0  0  0  0  0  0  0  0
  129.2490  127.9610   72.1630 N   0  0  0  0  0  0  0  0  0  0  0  0
  129.1700  129.2680   72.8460 C   0  0  0  0  0  0  0  0  0  0  0  0
  128.9340  129.1630   74.3670 C   0  0  0  0  0  0  0  0  0  0  0  0
  129.9280  128.3420   74.9570 O   0  0  0  0  0  0  0  0  0  0  0  0
  129.9000  127.0280   74.4250 C   0  0  0  0  0  0  0  0  0  0  0  0
  130.1610  127.0640   72.9040 C   0  0  0  0  0  0  0  0  0  0  0  0
  129.1800  129.0120   69.9710 C   0  0  0  0  0  0  0  0  0  0  0  0
  129.1030  128.9270   68.5840 C   0  0  0  0  0  0  0  0  0  0  0  0
  129.3290  126.4720   65.7520 C   0  0  0  0  0  0  0  0  0  0  0  0
  129.2220  126.4130   64.3570 C   0  0  0  0  0  0  0  0  0  0  0  0
  129.6540  125.1760   63.6580 C   0  0  0  0  0  0  0  0  0  0  0  0
  130.9890  124.7730   63.6990 C   0  0  0  0  0  0  0  0  0  0  0  0
  131.3940  123.6050   63.0620 C   0  0  0  0  0  0  0  0  0  0  0  0
  130.4740  122.8070   62.3640 C   0  0  0  0  0  0  0  0  0  0  0  0
  130.8550  121.6220   61.7290 N   0  0  0  0  0  0  0  0  0  0  0  0
  129.8200  120.7580   61.1280 C   0  0  0  0  0  0  0  0  0  0  0  0
  130.3190  119.3280   60.8290 C   0  0  0  0  0  0  0  0  0  0  0  0
  131.4720  119.3800   60.0020 O   0  0  0  0  0  0  0  0  0  0  0  0
  132.5310  120.0950   60.6200 C   0  0  0  0  0  0  0  0  0  0  0  0
  132.0870  121.5430   60.9200 C   0  0  0  0  0  0  0  0  0  0  0  0
  129.1310  123.2120   62.3450 C   0  0  0  0  0  0  0  0  0  0  0  0
  128.7260  124.3810   62.9830 C   0  0  0  0  0  0  0  0  0  0  0  0
  128.6990  127.5530   63.6840 C   0  0  0  0  0  0  0  0  0  0  0  0
  1  2  1  0
  2  3  2  0
  3  4  1  0
  4  5  2  0
  4  6  1  0
  6  7  1  0
  7  8  1  0
  8  9  2  0
  9 10  1  0
 10 11  1  0
  3 12  1  0
 12 13  1  0
 13 14  2  0
 14 15  1  0
 15 16  1  0
 16 17  2  0
 17 18  1  0
 18 19  2  0
 19 20  1  0
 20 21  1  0
 21 22  1  0
 22 23  1  0
 23 24  1  0
 24 25  1  0
 19 26  1  0
 26 27  2  0
 15 28  2  0
 28 29  1  0
 29 30  1  0
 30 31  2  0
 31 32  1  0
 32 33  2  0
 33 34  1  0
 34 35  1  0
 35 36  1  0
 36 37  1  0
 37 38  1  0
 38 39  1  0
 33 40  1  0
 40 41  2  0
 29 42  2  0
 42  2  1  0
 11  7  2  0
 42 13  1  0
 27 16  1  0
 41 30  1  0
 25 20  1  0
 39 34  1  0
M  END
>  <Binding energies>  (40) 
[-8.23]

>  <Ligand effiencies>  (40) 
[-0.1828888888888889]

>  <Interactions>  (40) 
["V-A:PRO:482:CG:4326, H-B:ASP:366:OD2:8186, V-B:TYR:539:CE2:9847, V-B:TYR:539:CD2:9845, V-B:ALA:541:CB:9863, V-A:LEU:475:CD2:4258, H-B:TYR:531:OH:9766, V-A:PRO:482:CB:4325, V-A:ILE:369:CG2:3236, V-B:TYR:531:CZ:9765, V-A:GLU:543:CD:4908, V-A:GLU:543:CG:4907, V-A:GLU:543:CB:4906, V-B:HIS:456:CE1:9041, V-B:GLU:543:CB:9877, V-A:HIS:456:CE1:4069, V-B:GLU:543:CG:9878, V-B:HIS:456:CD2:9039, V-B:GLU:543:CD:9879, V-B:ASP:366:CB:8183, V-B:ASP:366:CG:8184, V-A:TRP:381:CH2:3371, V-A:TRP:381:CZ2:3369, H-A:LYS:547:NZ:4951, V-B:TYR:531:CE1:9763"]

$$$$
9c_Ghoteimi_2023
     RDKit          3D

 42 48  0  0  0  0  0  0  0  0999 V2000
  128.8750  126.8860   61.7480 N   0  0  0  0  0  0  0  0  0  0  0  0
  128.5240  127.6870   62.8050 C   0  0  0  0  0  0  0  0  0  0  0  0
  127.9160  128.9440   62.6550 C   0  0  0  0  0  0  0  0  0  0  0  0
  127.5270  129.6280   61.4180 C   0  0  0  0  0  0  0  0  0  0  0  0
  128.2880  130.4330   60.8760 O   0  0  0  0  0  0  0  0  0  0  0  0
  126.2970  129.3140   60.9420 N   0  0  0  0  0  0  0  0  0  0  0  0
  125.6860  129.8270   59.8060 C   0  0  0  0  0  0  0  0  0  0  0  0
  125.9180  129.5100   58.5500 N   0  0  0  0  0  0  0  0  0  0  0  0
  125.1540  130.2020   57.7270 C   0  0  0  0  0  0  0  0  0  0  0  0
  124.2760  131.1070   58.3160 C   0  0  0  0  0  0  0  0  0  0  0  0
  124.4690  131.0400   60.0420 S   0  0  0  0  0  0  0  0  0  0  0  0
  127.6330  129.7070   64.2190 S   0  0  0  0  0  0  0  0  0  0  0  0
  128.3450  128.3510   65.0600 C   0  0  0  0  0  0  0  0  0  0  0  0
  128.4590  128.3340   66.3870 N   0  0  0  0  0  0  0  0  0  0  0  0
  129.0430  127.2400   66.9420 C   0  0  0  0  0  0  0  0  0  0  0  0
  129.1780  127.2580   68.4300 C   0  0  0  0  0  0  0  0  0  0  0  0
  128.6340  126.2370   69.2200 C   0  0  0  0  0  0  0  0  0  0  0  0
  128.7540  126.2630   70.6050 C   0  0  0  0  0  0  0  0  0  0  0  0
  129.4130  127.3190   71.2560 C   0  0  0  0  0  0  0  0  0  0  0  0
  129.5490  127.3550   72.6480 N   0  0  0  0  0  0  0  0  0  0  0  0
  129.2390  128.5770   73.4190 C   0  0  0  0  0  0  0  0  0  0  0  0
  129.1050  128.3390   74.9380 C   0  0  0  0  0  0  0  0  0  0  0  0
  130.2760  127.7090   75.4340 O   0  0  0  0  0  0  0  0  0  0  0  0
  130.4890  126.4500   74.8170 C   0  0  0  0  0  0  0  0  0  0  0  0
  130.6620  126.6280   73.2930 C   0  0  0  0  0  0  0  0  0  0  0  0
  129.9730  128.3280   70.4590 C   0  0  0  0  0  0  0  0  0  0  0  0
  129.8550  128.2990   69.0730 C   0  0  0  0  0  0  0  0  0  0  0  0
  129.4830  126.1590   66.1750 C   0  0  0  0  0  0  0  0  0  0  0  0
  129.3440  126.1620   64.7830 C   0  0  0  0  0  0  0  0  0  0  0  0
  129.7990  124.9760   64.0150 C   0  0  0  0  0  0  0  0  0  0  0  0
  131.1500  124.6270   63.9910 C   0  0  0  0  0  0  0  0  0  0  0  0
  131.5780  123.5060   63.2860 C   0  0  0  0  0  0  0  0  0  0  0  0
  130.6650  122.7040   62.5840 C   0  0  0  0  0  0  0  0  0  0  0  0
  131.0700  121.5660   61.8790 N   0  0  0  0  0  0  0  0  0  0  0  0
  130.0620  120.7800   61.1400 C   0  0  0  0  0  0  0  0  0  0  0  0
  130.5570  119.3710   60.7470 C   0  0  0  0  0  0  0  0  0  0  0  0
  131.7620  119.4700   60.0020 O   0  0  0  0  0  0  0  0  0  0  0  0
  132.7890  120.1050   60.7480 C   0  0  0  0  0  0  0  0  0  0  0  0
  132.3500  121.5310   61.1460 C   0  0  0  0  0  0  0  0  0  0  0  0
  129.3070  123.0510   62.6330 C   0  0  0  0  0  0  0  0  0  0  0  0
  128.8790  124.1730   63.3380 C   0  0  0  0  0  0  0  0  0  0  0  0
  128.7680  127.3140   64.1760 C   0  0  0  0  0  0  0  0  0  0  0  0
  1  2  1  0
  2  3  2  0
  3  4  1  0
  4  5  2  0
  4  6  1  0
  6  7  1  0
  7  8  2  0
  8  9  1  0
  9 10  2  0
 10 11  1  0
  3 12  1  0
 12 13  1  0
 13 14  2  0
 14 15  1  0
 15 16  1  0
 16 17  2  0
 17 18  1  0
 18 19  2  0
 19 20  1  0
 20 21  1  0
 21 22  1  0
 22 23  1  0
 23 24  1  0
 24 25  1  0
 19 26  1  0
 26 27  2  0
 15 28  2  0
 28 29  1  0
 29 30  1  0
 30 31  2  0
 31 32  1  0
 32 33  2  0
 33 34  1  0
 34 35  1  0
 35 36  1  0
 36 37  1  0
 37 38  1  0
 38 39  1  0
 33 40  1  0
 40 41  2  0
 29 42  2  0
 42  2  1  0
 11  7  1  0
 42 13  1  0
 27 16  1  0
 41 30  1  0
 25 20  1  0
 39 34  1  0
M  END
>  <Binding energies>  (41) 
[-8.18]

>  <Ligand effiencies>  (41) 
[-0.18177777777777776]

>  <Interactions>  (41) 
["V-A:PRO:482:CG:4326, H-B:ASP:366:OD2:8186, V-B:TYR:539:CE2:9847, V-B:TYR:539:CD2:9845, V-B:ALA:541:CB:9863, V-A:LEU:475:CD2:4258, H-B:GLU:543:OE2:9881, H-B:TYR:531:OH:9766, V-A:PRO:482:CB:4325, V-A:ILE:369:CG2:3236, V-A:GLU:543:CD:4908, V-A:GLU:543:CG:4907, V-A:GLU:543:CB:4906, V-B:HIS:456:CE1:9041, V-B:GLU:543:CB:9877, V-A:HIS:456:CE1:4069, V-B:GLU:543:CG:9878, V-B:HIS:456:CD2:9039, V-B:GLU:543:CD:9879, V-A:HIS:456:CD2:4067, V-A:TYR:539:CE2:4876, V-B:ASP:366:CB:8183, V-B:ASP:366:CG:8184, V-B:ASP:366:CA:8181, V-A:TRP:381:CH2:3371, V-A:TRP:381:CZ2:3369, V-A:TRP:381:CZ3:3370, H-B:ASP:366:OD1:8185, V-A:HIS:456:CG:4065, H-A:LYS:547:NZ:4951, V-A:LYS:547:CE:4950, V-B:ASP:366:C:8179"]

$$$$
RR11_Rahimova_2017
     RDKit          3D

 33 38  0  0  0  0  0  0  0  0999 V2000
  130.0730  133.0060   57.0690 N   0  0  0  0  0  0  0  0  0  0  0  0
  130.4010  131.7460   57.5670 C   0  0  0  0  0  0  0  0  0  0  0  0
  129.6980  130.6240   57.1300 C   0  0  0  0  0  0  0  0  0  0  0  0
  130.0280  129.3660   57.6250 C   0  0  0  0  0  0  0  0  0  0  0  0
  131.0620  129.2170   58.5590 C   0  0  0  0  0  0  0  0  0  0  0  0
  131.4190  127.8590   59.0870 C   0  0  0  0  0  0  0  0  0  0  0  0
  131.3580  127.5150   60.3550 N   0  0  0  0  0  0  0  0  0  0  0  0
  131.7530  126.2030   60.3940 C   0  0  0  0  0  0  0  0  0  0  0  0
  131.8630  125.3440   61.4950 C   0  0  0  0  0  0  0  0  0  0  0  0
  132.2760  124.0250   61.2720 C   0  0  0  0  0  0  0  0  0  0  0  0
  132.4110  123.0690   62.4500 C   0  0  0  0  0  0  0  0  0  0  0  0
  131.6600  123.5420   63.6870 C   0  0  0  0  0  0  0  0  0  0  0  0
  130.5640  122.8060   64.1510 C   0  0  0  0  0  0  0  0  0  0  0  0
  129.8490  123.1940   65.2850 C   0  0  0  0  0  0  0  0  0  0  0  0
  130.2620  124.3490   65.9630 C   0  0  0  0  0  0  0  0  0  0  0  0
  129.7300  124.9360   67.0810 N   0  0  0  0  0  0  0  0  0  0  0  0
  130.4780  125.9950   67.3060 C   0  0  0  0  0  0  0  0  0  0  0  0
  130.2600  126.9650   68.4320 C   0  0  0  0  0  0  0  0  0  0  0  0
  128.9690  127.2140   68.9150 C   0  0  0  0  0  0  0  0  0  0  0  0
  128.7650  128.1210   69.9530 C   0  0  0  0  0  0  0  0  0  0  0  0
  129.8530  128.7850   70.5150 C   0  0  0  0  0  0  0  0  0  0  0  0
  129.6500  129.6970   71.5500 N   0  0  0  0  0  0  0  0  0  0  0  0
  131.1430  128.5440   70.0480 C   0  0  0  0  0  0  0  0  0  0  0  0
  131.3450  127.6370   69.0110 C   0  0  0  0  0  0  0  0  0  0  0  0
  131.4880  126.1210   66.3770 N   0  0  0  0  0  0  0  0  0  0  0  0
  131.3790  125.0770   65.4890 C   0  0  0  0  0  0  0  0  0  0  0  0
  132.1020  124.6900   64.3570 C   0  0  0  0  0  0  0  0  0  0  0  0
  132.5960  123.5870   59.9820 C   0  0  0  0  0  0  0  0  0  0  0  0
  132.5010  124.4200   58.8650 C   0  0  0  0  0  0  0  0  0  0  0  0
  132.0720  125.7290   59.1000 C   0  0  0  0  0  0  0  0  0  0  0  0
  131.8490  126.8180   58.2900 N   0  0  0  0  0  0  0  0  0  0  0  0
  131.7590  130.3540   58.9900 C   0  0  0  0  0  0  0  0  0  0  0  0
  131.4310  131.6130   58.4960 C   0  0  0  0  0  0  0  0  0  0  0  0
  1  2  1  0
  2  3  2  0
  3  4  1  0
  4  5  2  0
  5  6  1  0
  6  7  2  0
  7  8  1  0
  8  9  2  0
  9 10  1  0
 10 11  1  0
 11 12  1  0
 12 13  2  0
 13 14  1  0
 14 15  2  0
 15 16  1  0
 16 17  2  0
 17 18  1  0
 18 19  2  0
 19 20  1  0
 20 21  2  0
 21 22  1  0
 21 23  1  0
 23 24  2  0
 17 25  1  0
 25 26  1  0
 26 27  2  0
 10 28  2  0
 28 29  1  0
 29 30  2  0
 30 31  1  0
  5 32  1  0
 32 33  2  0
 33  2  1  0
 31  6  1  0
 30  8  1  0
 27 12  1  0
 26 15  1  0
 24 18  1  0
M  END
>  <Binding energies>  (42) 
[-7.32]

>  <Ligand effiencies>  (42) 
[-0.18769230769230769]

>  <Interactions>  (42) 
["V-B:TYR:539:CE2:9847, V-B:ALA:541:CB:9863, V-B:TYR:539:CZ:9848, V-A:ASP:366:CG:3212, V-A:ASP:366:CB:3211, V-A:ILE:369:CG2:3236, H-A:TYR:484:OH:4347, H-A:GLU:543:OE2:4910, V-A:GLU:543:CD:4908, V-A:GLU:543:CB:4906, V-B:HIS:456:CE1:9041, V-A:TYR:484:CZ:4346, V-A:HIS:456:CE1:4069, V-B:GLU:543:CG:9878, V-A:TYR:484:CE1:4344, V-A:PRO:540:N:4884, V-A:TYR:539:C:4867, V-A:PRO:540:CA:4883, H-A:TYR:531:OH:4795, V-A:MET:535:CE:4835, V-A:TYR:539:CA:4869, V-A:TYR:531:CZ:4794, V-A:ARG:545:CG:4922, H-A:TYR:539:O:4868, H-B:HIS:456:NE2:9042, V-A:GLU:543:C:4902, H-A:GLU:543:O:4903"]

$$$$
RR16_Rahimova_2017
     RDKit          3D

 44 49  0  0  0  0  0  0  0  0999 V2000
  131.5190  119.6970   59.9950 O   0  0  0  0  0  0  0  0  0  0  0  0
  130.6320  120.0690   61.1040 S   0  0  0  0  0  0  0  0  0  0  0  0
  130.1200  119.0530   62.0310 O   0  0  0  0  0  0  0  0  0  0  0  0
  129.2530  120.9280   60.4160 N   0  0  0  0  0  0  0  0  0  0  0  0
  129.1340  122.4000   60.5410 C   0  0  0  0  0  0  0  0  0  0  0  0
  128.6300  122.9860   59.1960 C   0  0  0  0  0  0  0  0  0  0  0  0
  128.4930  124.5180   59.1000 C   0  0  0  0  0  0  0  0  0  0  0  0
  129.2180  125.2820   60.2210 C   0  0  0  0  0  0  0  0  0  0  0  0
  128.4950  125.3230   61.5810 C   0  0  0  0  0  0  0  0  0  0  0  0
  128.5810  124.0620   62.4630 C   0  0  0  0  0  0  0  0  0  0  0  0
  128.2640  122.7180   61.7790 C   0  0  0  0  0  0  0  0  0  0  0  0
  131.4950  121.3060   62.0650 C   0  0  0  0  0  0  0  0  0  0  0  0
  131.0260  121.6700   63.3290 C   0  0  0  0  0  0  0  0  0  0  0  0
  131.6340  122.7190   64.0140 C   0  0  0  0  0  0  0  0  0  0  0  0
  132.7060  123.3980   63.4320 C   0  0  0  0  0  0  0  0  0  0  0  0
  133.3970  124.8370   64.2460 S   0  0  0  0  0  0  0  0  0  0  0  0
  134.4560  125.3660   63.3770 O   0  0  0  0  0  0  0  0  0  0  0  0
  133.6960  124.4560   65.6320 O   0  0  0  0  0  0  0  0  0  0  0  0
  132.0620  126.0050   64.2700 N   0  0  0  0  0  0  0  0  0  0  0  0
  131.5990  126.4390   62.9270 C   0  0  0  0  0  0  0  0  0  0  0  0
  130.6720  127.6660   63.0450 C   0  0  0  0  0  0  0  0  0  0  0  0
  129.5060  127.4120   64.0330 C   0  0  0  0  0  0  0  0  0  0  0  0
  128.6000  128.6340   64.2010 C   0  0  0  0  0  0  0  0  0  0  0  0
  127.8010  128.7560   65.3460 C   0  0  0  0  0  0  0  0  0  0  0  0
  126.9660  129.8570   65.5440 C   0  0  0  0  0  0  0  0  0  0  0  0
  126.1940  129.9610   66.6720 O   0  0  0  0  0  0  0  0  0  0  0  0
  126.9430  130.8560   64.5590 C   0  0  0  0  0  0  0  0  0  0  0  0
  126.2520  132.0310   64.4900 N   0  0  0  0  0  0  0  0  0  0  0  0
  126.6180  132.6580   63.3190 N   0  0  0  0  0  0  0  0  0  0  0  0
  127.4820  131.8620   62.6610 N   0  0  0  0  0  0  0  0  0  0  0  0
  128.1020  132.3170   61.4230 C   0  0  0  0  0  0  0  0  0  0  0  0
  129.6140  132.1450   61.4250 C   0  0  0  0  0  0  0  0  0  0  0  0
  130.3270  132.2190   62.6260 C   0  0  0  0  0  0  0  0  0  0  0  0
  131.7110  132.0400   62.6340 C   0  0  0  0  0  0  0  0  0  0  0  0
  132.3890  131.7840   61.4420 C   0  0  0  0  0  0  0  0  0  0  0  0
  131.6830  131.7070   60.2410 C   0  0  0  0  0  0  0  0  0  0  0  0
  132.5170  131.3800   58.7650 Cl  0  0  0  0  0  0  0  0  0  0  0  0
  130.2990  131.8900   60.2320 C   0  0  0  0  0  0  0  0  0  0  0  0
  127.7470  130.7220   63.4020 C   0  0  0  0  0  0  0  0  0  0  0  0
  128.5810  129.6170   63.2010 C   0  0  0  0  0  0  0  0  0  0  0  0
  129.9980  126.8380   65.3880 C   0  0  0  0  0  0  0  0  0  0  0  0
  130.9550  125.6450   65.1950 C   0  0  0  0  0  0  0  0  0  0  0  0
  133.1990  123.0060   62.1860 C   0  0  0  0  0  0  0  0  0  0  0  0
  132.5900  121.9610   61.5000 C   0  0  0  0  0  0  0  0  0  0  0  0
  1  2  2  0
  2  3  2  0
  2  4  1  0
  4  5  1  0
  5  6  1  0
  6  7  1  0
  7  8  1  0
  8  9  1  0
  9 10  1  0
 10 11  1  0
  2 12  1  0
 12 13  2  0
 13 14  1  0
 14 15  2  0
 15 16  1  0
 16 17  2  0
 16 18  2  0
 16 19  1  0
 19 20  1  0
 20 21  1  0
 21 22  1  0
 22 23  1  0
 23 24  2  0
 24 25  1  0
 25 26  1  0
 25 27  2  0
 27 28  1  0
 28 29  2  0
 29 30  1  0
 30 31  1  0
 31 32  1  0
 32 33  2  0
 33 34  1  0
 34 35  2  0
 35 36  1  0
 36 37  1  0
 36 38  2  0
 30 39  1  0
 39 40  2  0
 22 41  1  0
 41 42  1  0
 15 43  1  0
 43 44  2  0
 11  5  1  0
 44 12  1  0
 42 19  1  0
 40 23  1  0
 39 27  1  0
 38 32  1  0
M  END
>  <Binding energies>  (43) 
[-9.49]

>  <Ligand effiencies>  (43) 
[-0.19770833333333335]

>  <Interactions>  (43) 
["V-B:TYR:539:CE2:9847, V-B:TYR:539:CD2:9845, V-B:ALA:541:CB:9863, V-A:LEU:475:CD2:4258, V-B:ALA:541:CA:9861, H-B:TYR:539:O:9839, H-B:ALA:541:N:9862, V-B:TYR:539:CZ:9848, H-A:ARG:545:NH2:4928, H-A:GLY:454:N:4049, H-A:ARG:545:NH1:4927, V-A:ILE:369:CD1:3238, V-A:ILE:369:CG2:3236, H-A:TYR:484:OH:4347, V-A:ARG:545:CZ:4926, V-A:GLU:543:CD:4908, V-A:GLU:543:CG:4907, V-B:GLU:543:CD:9879, V-A:PRO:540:CA:4883, V-A:PRO:540:CB:4885, V-A:LEU:475:CD1:4257, V-A:GLY:454:CA:4048, V-A:ALA:541:CB:4892, H-B:TYR:484:OH:9319, V-A:ALA:541:CA:4890, V-A:ALA:541:C:4888"]

$$$$
RR18_Rahimova_2017
     RDKit          3D

 36 41  0  0  0  0  0  0  0  0999 V2000
  133.0000  124.9990   61.0440 C   0  0  0  0  0  0  0  0  0  0  0  0
  132.4640  125.1450   62.4460 C   0  0  0  0  0  0  0  0  0  0  0  0
  133.0260  125.0540   63.7090 C   0  0  0  0  0  0  0  0  0  0  0  0
  132.0010  125.2920   64.6240 C   0  0  0  0  0  0  0  0  0  0  0  0
  130.8500  125.5210   63.8870 C   0  0  0  0  0  0  0  0  0  0  0  0
  129.4050  125.8450   64.2570 C   0  0  1  0  0  0  0  0  0  0  0  0
  129.3300  126.8710   65.4270 C   0  0  0  0  0  0  0  0  0  0  0  0
  129.8250  126.5170   66.7530 C   0  0  0  0  0  0  0  0  0  0  0  0
  130.1800  125.3690   67.0290 O   0  0  0  0  0  0  0  0  0  0  0  0
  129.8720  127.5520   67.6230 N   0  0  0  0  0  0  0  0  0  0  0  0
  130.2680  127.5900   68.9770 C   0  0  0  0  0  0  0  0  0  0  0  0
  131.4480  128.2140   69.4220 C   0  0  0  0  0  0  0  0  0  0  0  0
  131.7850  128.2100   70.7740 C   0  0  0  0  0  0  0  0  0  0  0  0
  130.9580  127.5800   71.6990 C   0  0  0  0  0  0  0  0  0  0  0  0
  129.7930  126.9480   71.2710 C   0  0  0  0  0  0  0  0  0  0  0  0
  129.4410  126.9450   69.9180 C   0  0  0  0  0  0  0  0  0  0  0  0
  128.1560  126.2340   69.5010 C   0  0  0  0  0  0  0  0  0  0  0  0
  128.8910  128.1280   65.1570 C   0  0  0  0  0  0  0  0  0  0  0  0
  128.3930  128.5370   63.9570 N   0  0  0  0  0  0  0  0  0  0  0  0
  128.2410  127.6830   63.0140 C   0  0  0  0  0  0  0  0  0  0  0  0
  127.4790  128.0260   61.4780 S   0  0  0  0  0  0  0  0  0  0  0  0
  127.6990  126.3340   60.9320 C   0  0  0  0  0  0  0  0  0  0  0  0
  127.3150  125.7920   59.7240 C   0  0  0  0  0  0  0  0  0  0  0  0
  126.5710  126.6040   58.7500 C   0  0  0  0  0  0  0  0  0  0  0  0
  126.2180  127.7810   58.8050 O   0  0  0  0  0  0  0  0  0  0  0  0
  126.2880  125.8160   57.7080 N   0  0  0  0  0  0  0  0  0  0  0  0
  126.7870  124.5560   57.8440 C   0  0  0  0  0  0  0  0  0  0  0  0
  126.6870  123.4950   56.9440 C   0  0  0  0  0  0  0  0  0  0  0  0
  127.2990  122.2860   57.2600 C   0  0  0  0  0  0  0  0  0  0  0  0
  128.0030  122.1610   58.4560 C   0  0  0  0  0  0  0  0  0  0  0  0
  128.0880  123.2380   59.3420 C   0  0  0  0  0  0  0  0  0  0  0  0
  127.4560  124.4620   59.0520 C   0  0  0  0  0  0  0  0  0  0  0  0
  128.3560  125.5930   62.0090 C   0  0  0  0  0  0  0  0  0  0  0  0
  128.6210  124.3950   62.0150 O   0  0  0  0  0  0  0  0  0  0  0  0
  128.6450  126.3880   63.0750 N   0  0  0  0  0  0  0  0  0  0  0  0
  131.1400  125.4290   62.5620 O   0  0  0  0  0  0  0  0  0  0  0  0
  1  2  1  0
  2  3  2  0
  3  4  1  0
  4  5  2  0
  6  5  1  6
  6  7  1  0
  7  8  1  0
  8  9  2  0
  8 10  1  0
 10 11  1  0
 11 12  2  0
 12 13  1  0
 13 14  2  0
 14 15  1  0
 15 16  2  0
 16 17  1  0
  7 18  2  0
 18 19  1  0
 19 20  2  0
 20 21  1  0
 21 22  1  0
 22 23  2  0
 23 24  1  0
 24 25  2  0
 24 26  1  0
 26 27  1  0
 27 28  2  0
 28 29  1  0
 29 30  2  0
 30 31  1  0
 31 32  2  0
 22 33  1  0
 33 34  2  0
 33 35  1  0
  5 36  1  0
 36  2  1  0
 35  6  1  0
 16 11  1  0
 35 20  1  0
 32 23  1  0
 32 27  1  0
M  END
>  <Binding energies>  (44) 
[-8.15]

>  <Ligand effiencies>  (44) 
[-0.21447368421052632]

>  <Interactions>  (44) 
["V-B:TYR:539:CE2:9847, V-B:PRO:540:CA:9854, V-B:TYR:539:CD2:9845, V-B:TYR:539:CG:9843, V-B:TYR:539:C:9838, V-B:PRO:540:N:9855, V-B:TYR:539:CD1:9844, V-B:TYR:539:CE1:9846, H-B:TYR:531:OH:9766, V-B:TYR:539:CA:9840, V-B:TYR:539:CZ:9848, V-A:ASP:366:CG:3212, H-A:TYR:484:OH:4347, H-A:GLU:543:OE2:4910, V-A:ARG:545:CZ:4926, V-A:GLU:543:CD:4908, V-A:GLU:543:CG:4907, V-A:GLU:543:CB:4906, V-B:HIS:456:CE1:9041, V-B:GLU:543:CB:9877, V-A:HIS:456:CE1:4069, V-B:GLU:543:CG:9878, V-B:GLU:543:CD:9879, V-A:HIS:456:CD2:4067, H-A:GLU:543:OE1:4909, V-A:ARG:545:CG:4922, V-A:HIS:456:CG:4065, V-A:ARG:545:CA:4919, V-A:GLY:544:C:4912, H-B:MET:535:SD:9805"]

$$$$
RR20_Rahimova_2017
     RDKit          3D

 38 43  0  0  0  0  0  0  0  0999 V2000
  126.9640  133.0600   73.4790 C   0  0  0  0  0  0  0  0  0  0  0  0
  127.6640  131.7170   73.3890 C   0  0  0  0  0  0  0  0  0  0  0  0
  128.3620  131.3730   72.2310 C   0  0  0  0  0  0  0  0  0  0  0  0
  129.0130  130.1450   72.1500 C   0  0  0  0  0  0  0  0  0  0  0  0
  128.9600  129.2450   73.2210 C   0  0  0  0  0  0  0  0  0  0  0  0
  129.6910  127.9240   73.1210 C   0  0  0  0  0  0  0  0  0  0  0  0
  130.6210  127.7250   73.9060 O   0  0  0  0  0  0  0  0  0  0  0  0
  129.2930  127.0090   72.1900 N   0  0  0  0  0  0  0  0  0  0  0  0
  128.1380  126.1260   72.4200 C   0  0  0  0  0  0  0  0  0  0  0  0
  127.9130  125.3690   71.1220 C   0  0  0  0  0  0  0  0  0  0  0  0
  128.7210  126.1530   70.1330 C   0  0  0  0  0  0  0  0  0  0  0  0
  128.8300  125.9800   68.7530 C   0  0  0  0  0  0  0  0  0  0  0  0
  129.7680  126.7120   68.0140 C   0  0  0  0  0  0  0  0  0  0  0  0
  129.8790  126.5330   66.5260 C   0  0  0  0  0  0  0  0  0  0  0  0
  130.6370  125.5510   66.0660 N   0  0  0  0  0  0  0  0  0  0  0  0
  130.6450  125.4760   64.7590 C   0  0  0  0  0  0  0  0  0  0  0  0
  131.3240  124.5690   63.9600 N   0  0  0  0  0  0  0  0  0  0  0  0
  132.6640  124.3740   63.9060 C   0  0  0  0  0  0  0  0  0  0  0  0
  133.4780  124.9850   64.6010 O   0  0  0  0  0  0  0  0  0  0  0  0
  133.2040  123.3000   62.9310 C   0  0  0  0  0  0  0  0  0  0  0  0
  132.1630  122.7590   62.0370 N   0  0  0  0  0  0  0  0  0  0  0  0
  131.1860  121.9240   62.7510 C   0  0  0  0  0  0  0  0  0  0  0  0
  130.2880  121.1740   61.7420 C   0  0  0  0  0  0  0  0  0  0  0  0
  129.7700  122.0730   60.6200 C   0  0  0  0  0  0  0  0  0  0  0  0
  128.7400  121.6490   59.7730 C   0  0  0  0  0  0  0  0  0  0  0  0
  128.2950  122.4530   58.7260 C   0  0  0  0  0  0  0  0  0  0  0  0
  128.8770  123.6980   58.5140 C   0  0  0  0  0  0  0  0  0  0  0  0
  129.8980  124.1370   59.3550 C   0  0  0  0  0  0  0  0  0  0  0  0
  130.3550  123.3390   60.4100 C   0  0  0  0  0  0  0  0  0  0  0  0
  131.4350  123.8440   61.3680 C   0  0  0  0  0  0  0  0  0  0  0  0
  129.6880  126.6690   63.9730 S   0  0  0  0  0  0  0  0  0  0  0  0
  129.2530  127.3200   65.5350 C   0  0  0  0  0  0  0  0  0  0  0  0
  128.3690  128.5430   65.6370 C   0  0  0  0  0  0  0  0  0  0  0  0
  130.6310  127.5790   68.7010 C   0  0  0  0  0  0  0  0  0  0  0  0
  130.5370  127.7400   70.0840 C   0  0  0  0  0  0  0  0  0  0  0  0
  129.5380  127.0660   70.7990 C   0  0  0  0  0  0  0  0  0  0  0  0
  128.2820  129.6090   74.3910 C   0  0  0  0  0  0  0  0  0  0  0  0
  127.6320  130.8380   74.4740 C   0  0  0  0  0  0  0  0  0  0  0  0
  1  2  1  0
  2  3  2  0
  3  4  1  0
  4  5  2  0
  5  6  1  0
  6  7  2  0
  6  8  1  0
  8  9  1  0
  9 10  1  0
 10 11  1  0
 11 12  2  0
 12 13  1  0
 13 14  1  0
 14 15  1  0
 15 16  2  0
 16 17  1  0
 17 18  1  0
 18 19  2  0
 18 20  1  0
 20 21  1  0
 21 22  1  0
 22 23  1  0
 23 24  1  0
 24 25  2  0
 25 26  1  0
 26 27  2  0
 27 28  1  0
 28 29  2  0
 29 30  1  0
 16 31  1  0
 31 32  1  0
 32 33  1  0
 13 34  2  0
 34 35  1  0
 35 36  2  0
  5 37  1  0
 37 38  2  0
 38  2  1  0
 36  8  1  0
 36 11  1  0
 32 14  2  0
 30 21  1  0
 29 24  1  0
M  END
>  <Binding energies>  (45) 
[-9.87]

>  <Ligand effiencies>  (45) 
[-0.25307692307692303]

>  <Interactions>  (45) 
["V-B:TYR:539:CE2:9847, V-B:PRO:540:CA:9854, V-B:TYR:539:CD2:9845, V-B:TYR:539:CG:9843, V-B:ALA:541:CB:9863, V-B:TYR:539:C:9838, V-A:LEU:475:CD2:4258, V-B:PRO:540:N:9855, V-B:TYR:539:CZ:9848, H-A:GLY:454:N:4049, V-A:ILE:369:CD1:3238, H-A:TYR:484:OH:4347, V-A:GLU:543:CD:4908, V-A:GLU:543:CG:4907, V-A:GLU:543:CB:4906, V-B:HIS:456:CE1:9041, V-B:GLU:543:CB:9877, V-A:HIS:456:CE1:4069, V-B:HIS:456:CG:9037, V-B:HIS:456:CD2:9039, V-B:TYR:484:CE1:9316, V-B:TYR:484:CD1:9314, V-B:GLU:543:CD:9879, V-B:PRO:540:C:9852, V-A:GLY:454:CA:4048, V-B:GLU:543:C:9873, V-B:GLY:544:C:9883, H-A:LYS:547:NZ:4951, V-B:TYR:484:CG:9313, V-B:ASP:473:CG:9211, V-B:ASP:473:CB:9210, V-B:TYR:484:CB:9312, V-B:HIS:456:CB:9036, V-B:TYR:484:CD2:9315"]

$$$$
RR21_Rahimova_2017
     RDKit          3D

 40 45  0  0  0  0  0  0  0  0999 V2000
  123.6720  131.2090   62.9600 C   0  0  0  0  0  0  0  0  0  0  0  0
  124.1280  131.8370   64.1540 O   0  0  0  0  0  0  0  0  0  0  0  0
  125.0240  131.1710   64.9680 C   0  0  0  0  0  0  0  0  0  0  0  0
  124.6740  130.1260   65.8390 C   0  0  0  0  0  0  0  0  0  0  0  0
  125.6420  129.5030   66.6260 C   0  0  0  0  0  0  0  0  0  0  0  0
  126.9820  129.9030   66.5610 C   0  0  0  0  0  0  0  0  0  0  0  0
  128.0210  129.2290   67.4030 C   0  0  0  0  0  0  0  0  0  0  0  0
  128.2430  129.6500   68.6330 N   0  0  0  0  0  0  0  0  0  0  0  0
  129.2100  128.8700   69.1390 N   0  0  0  0  0  0  0  0  0  0  0  0
  129.6810  129.0420   70.4670 C   0  0  0  0  0  0  0  0  0  0  0  0
  130.8040  128.3360   70.9260 C   0  0  0  0  0  0  0  0  0  0  0  0
  131.2600  128.5160   72.2290 C   0  0  0  0  0  0  0  0  0  0  0  0
  130.5960  129.4000   73.0770 C   0  0  0  0  0  0  0  0  0  0  0  0
  129.4780  130.1030   72.6340 C   0  0  0  0  0  0  0  0  0  0  0  0
  129.0200  129.9250   71.3320 C   0  0  0  0  0  0  0  0  0  0  0  0
  129.5910  127.9300   68.2160 C   0  0  0  0  0  0  0  0  0  0  0  0
  128.8500  128.1360   67.0620 C   0  0  0  0  0  0  0  0  0  0  0  0
  128.8700  127.3620   65.8300 C   0  0  0  0  0  0  0  0  0  0  0  0
  129.8320  126.5200   65.3860 C   0  0  0  0  0  0  0  0  0  0  0  0
  131.3730  126.1110   66.1710 S   0  0  0  0  0  0  0  0  0  0  0  0
  131.7430  125.0190   64.8450 C   0  0  0  0  0  0  0  0  0  0  0  0
  132.7920  124.2700   64.7000 N   0  0  0  0  0  0  0  0  0  0  0  0
  132.9650  123.4160   63.5750 C   0  0  0  0  0  0  0  0  0  0  0  0
  133.9170  122.6630   63.3750 O   0  0  0  0  0  0  0  0  0  0  0  0
  131.8370  123.4840   62.5820 C   0  0  0  0  0  0  0  0  0  0  0  0
  131.9220  122.6210   61.3170 C   0  0  0  0  0  0  0  0  0  0  0  0
  130.6790  122.6760   60.4320 C   0  0  0  0  0  0  0  0  0  0  0  0
  130.5060  123.7320   59.5330 C   0  0  0  0  0  0  0  0  0  0  0  0
  129.3800  123.7730   58.7150 C   0  0  0  0  0  0  0  0  0  0  0  0
  128.4240  122.7580   58.7920 C   0  0  0  0  0  0  0  0  0  0  0  0
  127.2050  122.8010   57.8890 C   0  0  0  0  0  0  0  0  0  0  0  0
  128.6010  121.6960   59.6820 C   0  0  0  0  0  0  0  0  0  0  0  0
  129.7260  121.6550   60.5000 C   0  0  0  0  0  0  0  0  0  0  0  0
  130.8000  124.2410   62.7370 N   0  0  0  0  0  0  0  0  0  0  0  0
  130.7530  125.0230   63.8980 N   0  0  0  0  0  0  0  0  0  0  0  0
  129.6790  125.8200   64.1180 C   0  0  0  0  0  0  0  0  0  0  0  0
  128.7120  125.9270   63.3540 O   0  0  0  0  0  0  0  0  0  0  0  0
  127.3300  130.9470   65.6980 C   0  0  0  0  0  0  0  0  0  0  0  0
  126.3630  131.5730   64.9100 C   0  0  0  0  0  0  0  0  0  0  0  0
  126.7330  132.5800   64.0850 F   0  0  0  0  0  0  0  0  0  0  0  0
  1  2  1  0
  2  3  1  0
  3  4  2  0
  4  5  1  0
  5  6  2  0
  6  7  1  0
  7  8  2  0
  8  9  1  0
  9 10  1  0
 10 11  2  0
 11 12  1  0
 12 13  2  0
 13 14  1  0
 14 15  2  0
  9 16  1  0
 16 17  2  0
 17 18  1  0
 18 19  2  0
 19 20  1  0
 20 21  1  0
 21 22  2  0
 22 23  1  0
 23 24  2  0
 23 25  1  0
 25 26  1  0
 26 27  1  0
 27 28  2  0
 28 29  1  0
 29 30  2  0
 30 31  1  0
 30 32  1  0
 32 33  2  0
 25 34  2  0
 34 35  1  0
 35 36  1  0
 36 37  2  0
  6 38  1  0
 38 39  2  0
 39 40  1  0
 39  3  1  0
 17  7  1  0
 36 19  1  0
 15 10  1  0
 35 21  1  0
 33 27  1  0
M  END
>  <Binding energies>  (46) 
[-8.85]

>  <Ligand effiencies>  (46) 
[-0.22125]

>  <Interactions>  (46) 
["V-B:TYR:539:CE2:9847, V-B:PRO:540:CA:9854, V-B:TYR:539:CD2:9845, V-B:TYR:539:CG:9843, V-B:TYR:539:C:9838, V-B:PRO:540:N:9855, V-B:TYR:539:CZ:9848, H-A:GLY:454:N:4049, V-A:ILE:369:CG2:3236, H-A:TYR:484:OH:4347, V-A:GLU:543:CD:4908, V-A:GLU:543:CG:4907, V-A:GLU:543:CB:4906, V-B:HIS:456:CE1:9041, V-A:HIS:456:CE1:4069, V-B:GLU:543:CD:9879, V-B:PRO:540:C:9852, V-A:GLY:454:CA:4048, V-B:LEU:475:CD1:9229, V-B:GLY:454:CA:9020, V-B:ARG:545:CZ:9897, H-B:TYR:484:OH:9319, H-B:GLY:454:N:9021, H-B:HIS:456:ND1:9038, V-B:ILE:369:CD1:8210, V-A:LYS:547:CE:4950, V-A:GLY:544:C:4912"]

$$$$
RR23_Rahimova_2017
     RDKit          3D

 39 44  0  0  0  0  0  0  0  0999 V2000
  127.6140  133.4060   73.8750 C   0  0  0  0  0  0  0  0  0  0  0  0
  128.3260  132.1490   73.4110 C   0  0  0  0  0  0  0  0  0  0  0  0
  129.5630  131.8040   73.9580 C   0  0  0  0  0  0  0  0  0  0  0  0
  130.2110  130.6450   73.5380 C   0  0  0  0  0  0  0  0  0  0  0  0
  129.6330  129.8280   72.5590 C   0  0  0  0  0  0  0  0  0  0  0  0
  130.3430  128.5640   72.1320 C   0  0  0  0  0  0  0  0  0  0  0  0
  131.4150  128.2970   72.6800 O   0  0  0  0  0  0  0  0  0  0  0  0
  129.7740  127.7640   71.1810 N   0  0  0  0  0  0  0  0  0  0  0  0
  129.3360  126.3930   71.4890 C   0  0  0  0  0  0  0  0  0  0  0  0
  128.6310  125.8800   70.2440 C   0  0  0  0  0  0  0  0  0  0  0  0
  128.3910  127.1330   69.4560 C   0  0  0  0  0  0  0  0  0  0  0  0
  127.6990  127.2970   68.2560 C   0  0  0  0  0  0  0  0  0  0  0  0
  127.7220  128.5300   67.5880 C   0  0  0  0  0  0  0  0  0  0  0  0
  126.9730  128.7540   66.2640 C   0  0  2  0  0  0  0  0  0  0  0  0
  127.5110  129.8700   65.5160 N   0  0  0  0  0  0  0  0  0  0  0  0
  126.6110  130.4650   64.8410 C   0  0  0  0  0  0  0  0  0  0  0  0
  126.7450  131.5620   64.0470 N   0  0  0  0  0  0  0  0  0  0  0  0
  127.8270  132.3630   63.8940 C   0  0  0  0  0  0  0  0  0  0  0  0
  128.9210  132.2000   64.4380 O   0  0  0  0  0  0  0  0  0  0  0  0
  127.6320  133.5680   62.9590 C   0  0  0  0  0  0  0  0  0  0  0  0
  128.0340  133.1860   61.5860 N   0  0  0  0  0  0  0  0  0  0  0  0
  127.0130  133.1850   60.6440 N   0  0  0  0  0  0  0  0  0  0  0  0
  127.2330  132.8690   59.4080 N   0  0  0  0  0  0  0  0  0  0  0  0
  128.5230  132.5200   59.0000 C   0  0  0  0  0  0  0  0  0  0  0  0
  128.7260  132.1820   57.6600 C   0  0  0  0  0  0  0  0  0  0  0  0
  130.0030  131.8280   57.2220 C   0  0  0  0  0  0  0  0  0  0  0  0
  131.0740  131.8110   58.1190 C   0  0  0  0  0  0  0  0  0  0  0  0
  130.8730  132.1480   59.4590 C   0  0  0  0  0  0  0  0  0  0  0  0
  129.5920  132.5040   59.8980 C   0  0  0  0  0  0  0  0  0  0  0  0
  129.3520  132.8690   61.3440 C   0  0  0  0  0  0  0  0  0  0  0  0
  130.2350  132.8700   62.2070 O   0  0  0  0  0  0  0  0  0  0  0  0
  124.9520  129.8070   64.9440 S   0  0  0  0  0  0  0  0  0  0  0  0
  125.4400  128.8870   66.4150 C   0  0  2  0  0  0  0  0  0  0  0  0
  124.9290  129.6310   67.6660 C   0  0  0  0  0  0  0  0  0  0  0  0
  128.4880  129.5730   68.1200 C   0  0  0  0  0  0  0  0  0  0  0  0
  129.1980  129.4030   69.3100 C   0  0  0  0  0  0  0  0  0  0  0  0
  129.1050  128.1950   70.0130 C   0  0  0  0  0  0  0  0  0  0  0  0
  128.3790  130.1660   72.0350 C   0  0  0  0  0  0  0  0  0  0  0  0
  127.7310  131.3240   72.4550 C   0  0  0  0  0  0  0  0  0  0  0  0
  1  2  1  0
  2  3  2  0
  3  4  1  0
  4  5  2  0
  5  6  1  0
  6  7  2  0
  6  8  1  0
  8  9  1  0
  9 10  1  0
 10 11  1  0
 11 12  2  0
 12 13  1  0
 14 13  1  1
 14 15  1  0
 15 16  2  0
 16 17  1  0
 17 18  1  0
 18 19  2  0
 18 20  1  0
 20 21  1  0
 21 22  1  0
 22 23  2  0
 23 24  1  0
 24 25  2  0
 25 26  1  0
 26 27  2  0
 27 28  1  0
 28 29  2  0
 29 30  1  0
 30 31  2  0
 16 32  1  0
 32 33  1  0
 33 34  1  1
 13 35  2  0
 35 36  1  0
 36 37  2  0
  5 38  1  0
 38 39  2  0
 39  2  1  0
 37  8  1  0
 37 11  1  0
 33 14  1  0
 30 21  1  0
 29 24  1  0
M  END
>  <Binding energies>  (47) 
[-9.41]

>  <Ligand effiencies>  (47) 
[-0.23525000000000001]

>  <Interactions>  (47) 
["H-B:ARG:545:NH2:9899, V-A:GLU:543:CD:4908, V-A:GLU:543:CG:4907, V-A:GLU:543:CB:4906, V-B:HIS:456:CE1:9041, V-B:GLU:543:CB:9877, V-A:HIS:456:CE1:4069, V-B:HIS:456:CG:9037, V-B:HIS:456:CD2:9039, V-B:TYR:484:CE1:9316, V-B:TYR:484:CD1:9314, V-B:GLU:543:CD:9879, V-A:HIS:456:CD2:4067, V-A:PRO:540:N:4884, V-A:TYR:539:C:4867, V-A:PRO:540:CA:4883, V-A:TYR:539:CE2:4876, V-A:TYR:539:CD2:4874, V-A:PRO:540:CB:4885, H-A:ALA:541:N:4891, V-A:ALA:541:CB:4892, V-B:LEU:475:CD1:9229, V-B:ARG:545:CG:9893, V-B:ARG:545:CD:9894, V-B:ARG:545:CZ:9897, H-B:ARG:545:NE:9895, V-B:TYR:484:CZ:9318, H-A:LYS:547:NZ:4951, V-B:TYR:484:CG:9313, V-A:LYS:547:CE:4950, V-A:GLU:543:CA:4904, V-B:ASP:473:CG:9211, V-B:ASP:473:CB:9210, V-B:TYR:484:CB:9312, V-B:HIS:456:CB:9036, V-B:TYR:484:CD2:9315"]

$$$$
RR26_Rahimova_2017
     RDKit          3D

 38 44  0  0  0  0  0  0  0  0999 V2000
  130.1420  121.3760   61.2910 C   0  0  0  0  0  0  0  0  0  0  0  0
  131.6040  120.9870   61.4760 C   0  0  0  0  0  0  0  0  0  0  0  0
  132.1330  119.9900   60.6490 C   0  0  0  0  0  0  0  0  0  0  0  0
  133.4740  119.6230   60.7470 C   0  0  0  0  0  0  0  0  0  0  0  0
  134.3000  120.2560   61.6700 C   0  0  0  0  0  0  0  0  0  0  0  0
  133.7850  121.2510   62.4980 C   0  0  0  0  0  0  0  0  0  0  0  0
  132.4350  121.6280   62.4200 C   0  0  0  0  0  0  0  0  0  0  0  0
  131.9570  122.6970   63.3600 C   0  0  0  0  0  0  0  0  0  0  0  0
  130.7310  123.2090   63.2900 N   0  0  0  0  0  0  0  0  0  0  0  0
  130.7410  124.0690   64.2720 C   0  0  0  0  0  0  0  0  0  0  0  0
  129.6190  125.1950   64.9420 S   0  0  0  0  0  0  0  0  0  0  0  0
  130.8600  125.6710   66.1610 C   0  0  0  0  0  0  0  0  0  0  0  0
  130.7460  126.5950   67.1410 C   0  0  0  0  0  0  0  0  0  0  0  0
  129.5970  127.4280   67.4580 C   0  0  0  0  0  0  0  0  0  0  0  0
  128.6270  127.9150   66.5950 C   0  0  0  0  0  0  0  0  0  0  0  0
  127.7140  128.6170   67.3400 N   0  0  0  0  0  0  0  0  0  0  0  0
  126.5470  129.2890   66.8920 C   0  0  0  0  0  0  0  0  0  0  0  0
  125.3040  129.0490   67.4960 C   0  0  0  0  0  0  0  0  0  0  0  0
  124.1660  129.7120   67.0450 C   0  0  0  0  0  0  0  0  0  0  0  0
  124.2670  130.6180   65.9920 C   0  0  0  0  0  0  0  0  0  0  0  0
  125.4960  130.8680   65.3860 C   0  0  0  0  0  0  0  0  0  0  0  0
  126.6350  130.2040   65.8330 C   0  0  0  0  0  0  0  0  0  0  0  0
  128.0420  128.5750   68.6400 N   0  0  0  0  0  0  0  0  0  0  0  0
  129.1580  127.8780   68.7240 C   0  0  0  0  0  0  0  0  0  0  0  0
  129.7990  127.6540   70.0590 C   0  0  0  0  0  0  0  0  0  0  0  0
  131.0960  128.1270   70.3130 C   0  0  0  0  0  0  0  0  0  0  0  0
  131.7030  127.9200   71.5530 C   0  0  0  0  0  0  0  0  0  0  0  0
  131.0140  127.2340   72.5520 C   0  0  0  0  0  0  0  0  0  0  0  0
  129.7110  126.7730   72.3170 C   0  0  0  0  0  0  0  0  0  0  0  0
  129.1090  126.9760   71.0760 C   0  0  0  0  0  0  0  0  0  0  0  0
  129.0080  126.0510   73.2620 O   0  0  0  0  0  0  0  0  0  0  0  0
  129.5060  126.1930   74.5960 C   0  0  0  0  0  0  0  0  0  0  0  0
  131.0500  126.0870   74.6140 C   0  0  0  0  0  0  0  0  0  0  0  0
  131.6320  127.0940   73.7790 O   0  0  0  0  0  0  0  0  0  0  0  0
  132.1110  124.9360   65.9960 C   0  0  0  0  0  0  0  0  0  0  0  0
  133.1530  125.0190   66.6480 O   0  0  0  0  0  0  0  0  0  0  0  0
  131.9260  124.0680   64.9090 N   0  0  0  0  0  0  0  0  0  0  0  0
  132.7280  123.1720   64.3260 N   0  0  0  0  0  0  0  0  0  0  0  0
  1  2  1  0
  2  3  2  0
  3  4  1  0
  4  5  2  0
  5  6  1  0
  6  7  2  0
  7  8  1  0
  8  9  1  0
  9 10  2  0
 10 11  1  0
 11 12  1  0
 12 13  2  0
 13 14  1  0
 14 15  2  0
 15 16  1  0
 16 17  1  0
 17 18  2  0
 18 19  1  0
 19 20  2  0
 20 21  1  0
 21 22  2  0
 16 23  1  0
 23 24  2  0
 24 25  1  0
 25 26  2  0
 26 27  1  0
 27 28  2  0
 28 29  1  0
 29 30  2  0
 29 31  1  0
 31 32  1  0
 32 33  1  0
 33 34  1  0
 12 35  1  0
 35 36  2  0
 35 37  1  0
 37 38  1  0
  7  2  1  0
 38  8  2  0
 37 10  1  0
 24 14  1  0
 30 25  1  0
 22 17  1  0
 34 28  1  0
M  END
>  <Binding energies>  (48) 
[-9.79]

>  <Ligand effiencies>  (48) 
[-0.2576315789473684]

>  <Interactions>  (48) 
["V-B:TYR:539:CE2:9847, V-B:TYR:539:CD2:9845, V-B:ALA:541:CB:9863, V-A:LEU:475:CD2:4258, H-A:GLY:454:N:4049, V-A:ILE:369:CD1:3238, V-A:ILE:369:CG2:3236, H-A:TYR:484:OH:4347, V-A:GLU:543:CD:4908, V-A:GLU:543:CG:4907, V-A:GLU:543:CB:4906, V-B:HIS:456:CE1:9041, V-A:TYR:484:CZ:4346, V-A:HIS:456:CE1:4069, V-B:GLU:543:CG:9878, V-B:GLU:543:CD:9879, V-A:HIS:456:CD2:4067, V-A:GLY:454:CA:4048, V-B:GLY:454:CA:9020, V-B:ARG:545:CG:9893, V-B:ARG:545:CD:9894, H-B:LYS:547:NZ:9922, V-B:LYS:547:CE:9921, V-A:TRP:381:CH2:3371, V-A:TRP:381:CZ2:3369, V-A:ILE:369:CG1:3237, V-A:HIS:456:CG:4065, H-A:LYS:547:NZ:4951, V-A:SER:385:C:3404, V-A:SER:385:CA:3406, V-A:ARG:545:CA:4919, V-A:GLY:544:C:4912, V-B:GLY:454:C:9018"]

$$$$
RR2_Rahimova_2017
     RDKit          3D

 46 50  0  0  0  0  0  0  0  0999 V2000
  124.0190  129.7470   67.0000 C   0  0  0  0  0  0  0  0  0  0  0  0
  123.8800  130.1970   65.6570 O   0  0  0  0  0  0  0  0  0  0  0  0
  124.9780  130.1610   64.8170 C   0  0  0  0  0  0  0  0  0  0  0  0
  124.9030  130.1760   63.4170 C   0  0  0  0  0  0  0  0  0  0  0  0
  126.0650  130.1330   62.6510 C   0  0  0  0  0  0  0  0  0  0  0  0
  127.3250  130.0720   63.2630 C   0  0  0  0  0  0  0  0  0  0  0  0
  128.5740  130.0190   62.4060 C   0  0  0  0  0  0  0  0  0  0  0  0
  128.6120  129.2970   61.4040 O   0  0  0  0  0  0  0  0  0  0  0  0
  129.6080  130.7870   62.8220 N   0  0  0  0  0  0  0  0  0  0  0  0
  130.8090  130.7050   62.1250 N   0  0  0  0  0  0  0  0  0  0  0  0
  131.1970  131.7700   61.3950 C   0  0  0  0  0  0  0  0  0  0  0  0
  130.4890  132.7510   61.1470 O   0  0  0  0  0  0  0  0  0  0  0  0
  132.6390  131.7250   60.8740 C   0  0  0  0  0  0  0  0  0  0  0  0
  132.8290  131.0620   59.1780 S   0  0  0  0  0  0  0  0  0  0  0  0
  131.1460  130.7000   58.7790 C   0  0  0  0  0  0  0  0  0  0  0  0
  130.3150  131.5970   58.3110 N   0  0  0  0  0  0  0  0  0  0  0  0
  129.0740  130.9900   58.1830 N   0  0  0  0  0  0  0  0  0  0  0  0
  129.2090  129.7370   58.5510 C   0  0  0  0  0  0  0  0  0  0  0  0
  128.0860  128.7510   58.5350 C   0  0  0  0  0  0  0  0  0  0  0  0
  128.3330  127.4230   58.1800 C   0  0  0  0  0  0  0  0  0  0  0  0
  127.2930  126.4990   58.1550 C   0  0  0  0  0  0  0  0  0  0  0  0
  125.9950  126.8920   58.5010 C   0  0  0  0  0  0  0  0  0  0  0  0
  124.9070  126.0070   58.4840 N   0  0  0  0  0  0  0  0  0  0  0  0
  124.9900  124.3120   57.9540 S   0  0  0  0  0  0  0  0  0  0  0  0
  125.4490  124.3460   56.5610 O   0  0  0  0  0  0  0  0  0  0  0  0
  123.7240  123.6610   58.3130 O   0  0  0  0  0  0  0  0  0  0  0  0
  126.3130  123.5840   58.9170 C   0  0  0  0  0  0  0  0  0  0  0  0
  126.3480  123.7330   60.3050 C   0  0  0  0  0  0  0  0  0  0  0  0
  127.3940  123.1730   61.0340 C   0  0  0  0  0  0  0  0  0  0  0  0
  128.4000  122.4610   60.3760 C   0  0  0  0  0  0  0  0  0  0  0  0
  129.5470  121.8630   61.1700 C   0  0  0  0  0  0  0  0  0  0  0  0
  128.3640  122.3160   58.9870 C   0  0  0  0  0  0  0  0  0  0  0  0
  127.3190  122.8770   58.2580 C   0  0  0  0  0  0  0  0  0  0  0  0
  125.7500  128.2180   58.8580 C   0  0  0  0  0  0  0  0  0  0  0  0
  126.7890  129.1440   58.8780 C   0  0  0  0  0  0  0  0  0  0  0  0
  130.5100  129.4840   58.9500 N   0  0  0  0  0  0  0  0  0  0  0  0
  131.0550  128.2860   59.4560 C   0  0  0  0  0  0  0  0  0  0  0  0
  131.6410  127.3650   58.5860 C   0  0  0  0  0  0  0  0  0  0  0  0
  132.1810  126.1860   59.0920 C   0  0  0  0  0  0  0  0  0  0  0  0
  132.1400  125.9160   60.4600 C   0  0  0  0  0  0  0  0  0  0  0  0
  132.7000  124.7210   60.8670 O   0  0  0  0  0  0  0  0  0  0  0  0
  133.6240  124.7190   61.9520 C   0  0  0  0  0  0  0  0  0  0  0  0
  131.5480  126.8480   61.3280 C   0  0  0  0  0  0  0  0  0  0  0  0
  131.0090  128.0290   60.8280 C   0  0  0  0  0  0  0  0  0  0  0  0
  127.3910  130.0630   64.6650 C   0  0  0  0  0  0  0  0  0  0  0  0
  126.2280  130.1080   65.4290 C   0  0  0  0  0  0  0  0  0  0  0  0
  1  2  1  0
  2  3  1  0
  3  4  2  0
  4  5  1  0
  5  6  2  0
  6  7  1  0
  7  8  2  0
  7  9  1  0
  9 10  1  0
 10 11  1  0
 11 12  2  0
 11 13  1  0
 13 14  1  0
 14 15  1  0
 15 16  2  0
 16 17  1  0
 17 18  2  0
 18 19  1  0
 19 20  2  0
 20 21  1  0
 21 22  2  0
 22 23  1  0
 23 24  1  0
 24 25  2  0
 24 26  2  0
 24 27  1  0
 27 28  2  0
 28 29  1  0
 29 30  2  0
 30 31  1  0
 30 32  1  0
 32 33  2  0
 22 34  1  0
 34 35  2  0
 18 36  1  0
 36 37  1  0
 37 38  2  0
 38 39  1  0
 39 40  2  0
 40 41  1  0
 41 42  1  0
 40 43  1  0
 43 44  2  0
  6 45  1  0
 45 46  2  0
 46  3  1  0
 36 15  1  0
 44 37  1  0
 35 19  1  0
 33 27  1  0
M  END
>  <Binding energies>  (49) 
[-9.49]

>  <Ligand effiencies>  (49) 
[-0.1936734693877551]

>  <Interactions>  (49) 
["H-B:ASP:366:OD2:8186, V-B:TYR:539:CE2:9847, V-B:PRO:540:CA:9854, V-B:TYR:539:CD2:9845, V-B:TYR:539:CG:9843, V-B:PRO:540:CB:9856, V-B:ALA:541:CB:9863, V-B:TYR:539:C:9838, V-B:PRO:540:N:9855, H-B:TYR:531:OH:9766, H-A:ASP:366:OD2:3214, V-B:TYR:539:CZ:9848, V-A:ASP:366:CG:3212, V-A:ILE:369:CD1:3238, V-A:ASP:366:CB:3211, V-A:ASP:366:CA:3209, V-B:TYR:531:CZ:9765, V-A:GLU:543:CD:4908, V-A:GLU:543:CG:4907, V-A:PRO:540:CA:4883, H-A:GLU:543:OE1:4909, V-A:PRO:540:CB:4885, H-A:ALA:541:N:4891, V-B:GLY:454:CA:9020, V-B:ARG:545:CG:9893, H-B:LEU:363:N:8157, V-B:ASP:366:CB:8183, V-B:ARG:545:CD:9894, V-B:ARG:545:CZ:9897, V-B:ASP:366:CG:8184, H-B:TYR:484:OH:9319, H-B:GLY:454:N:9021, H-B:ARG:545:NE:9895"]

$$$$
RR33_Rahimova_2017
     RDKit          3D

 18 19  0  0  0  0  0  0  0  0999 V2000
  132.8760  122.0100   63.3750 C   0  0  0  0  0  0  0  0  0  0  0  0
  133.7840  121.4460   62.2780 C   0  0  0  0  0  0  0  0  0  0  0  0
  132.9810  120.7370   61.3390 O   0  0  0  0  0  0  0  0  0  0  0  0
  131.6910  121.1670   61.0890 C   0  0  0  0  0  0  0  0  0  0  0  0
  131.5580  122.4140   60.4800 C   0  0  0  0  0  0  0  0  0  0  0  0
  130.2980  122.9310   60.1930 C   0  0  0  0  0  0  0  0  0  0  0  0
  129.1470  122.2040   60.5110 C   0  0  0  0  0  0  0  0  0  0  0  0
  127.7950  122.7610   60.2030 C   0  0  0  0  0  0  0  0  0  0  0  0
  127.2950  123.0480   59.0220 N   0  0  0  0  0  0  0  0  0  0  0  0
  126.0770  123.5090   59.2600 C   0  0  0  0  0  0  0  0  0  0  0  0
  125.1720  123.9390   58.1250 C   0  0  0  0  0  0  0  0  0  0  0  0
  125.7830  123.6370   56.8390 N   0  0  0  0  0  0  0  0  0  0  0  0
  125.2500  122.3980   56.2960 C   0  0  0  0  0  0  0  0  0  0  0  0
  125.8340  123.5000   60.6280 C   0  0  0  0  0  0  0  0  0  0  0  0
  124.6740  123.8830   61.5140 C   0  0  0  0  0  0  0  0  0  0  0  0
  126.9440  123.0180   61.2310 O   0  0  0  0  0  0  0  0  0  0  0  0
  129.2760  120.9510   61.1180 C   0  0  0  0  0  0  0  0  0  0  0  0
  130.5370  120.4340   61.4070 C   0  0  0  0  0  0  0  0  0  0  0  0
  1  2  1  0
  2  3  1  0
  3  4  1  0
  4  5  2  0
  5  6  1  0
  6  7  2  0
  7  8  1  0
  8  9  2  0
  9 10  1  0
 10 11  1  0
 11 12  1  0
 12 13  1  0
 10 14  2  0
 14 15  1  0
 14 16  1  0
  7 17  1  0
 17 18  2  0
 18  4  1  0
 16  8  1  0
M  END
>  <Binding energies>  (50) 
[-5.11]

>  <Ligand effiencies>  (50) 
[-0.26894736842105266]

>  <Interactions>  (50) 
["V-B:TYR:539:CE2:9847, V-B:PRO:540:CA:9854, V-B:TYR:539:CD2:9845, V-B:LEU:363:CD1:8160, V-B:PRO:540:CD:9858, V-B:PRO:540:CB:9856, V-B:ALA:541:CB:9863, V-A:LEU:475:CD2:4258, V-B:PRO:540:N:9855, V-B:ALA:541:CA:9861, H-B:ALA:541:N:9862, V-A:ILE:369:CD1:3238, V-A:ILE:369:CG2:3236, V-B:MET:535:CE:9806, V-B:PRO:540:C:9852, V-B:ASN:362:CB:8147, V-A:GLY:454:CA:4048"]

$$$$
RR3_Rahimova_2017
     RDKit          3D

 38 44  0  0  0  0  0  0  0  0999 V2000
  131.1230  121.5540   61.6670 C   0  0  0  0  0  0  0  0  0  0  0  0
  132.0990  121.9620   62.5700 C   0  0  0  0  0  0  0  0  0  0  0  0
  131.7830  122.8960   63.5520 C   0  0  0  0  0  0  0  0  0  0  0  0
  130.4900  123.4330   63.6450 C   0  0  0  0  0  0  0  0  0  0  0  0
  130.1510  124.4360   64.7030 C   0  0  0  0  0  0  0  0  0  0  0  0
  129.8670  124.0330   66.0150 C   0  0  0  0  0  0  0  0  0  0  0  0
  129.5480  124.9660   66.9970 C   0  0  0  0  0  0  0  0  0  0  0  0
  129.4990  126.3280   66.6870 C   0  0  0  0  0  0  0  0  0  0  0  0
  129.1520  127.3360   67.7370 C   0  0  0  0  0  0  0  0  0  0  0  0
  129.6570  127.2220   68.9610 N   0  0  0  0  0  0  0  0  0  0  0  0
  129.2230  128.2550   69.6430 C   0  0  0  0  0  0  0  0  0  0  0  0
  129.5350  128.5300   71.0420 C   0  0  0  0  0  0  0  0  0  0  0  0
  130.2880  127.7230   71.8780 C   0  0  0  0  0  0  0  0  0  0  0  0
  130.3880  128.2920   73.1210 N   0  0  0  0  0  0  0  0  0  0  0  0
  129.7040  129.4870   73.1460 C   0  0  0  0  0  0  0  0  0  0  0  0
  129.5220  130.4150   74.1770 C   0  0  0  0  0  0  0  0  0  0  0  0
  128.7630  131.5470   73.8840 C   0  0  0  0  0  0  0  0  0  0  0  0
  128.2080  131.7530   72.6260 C   0  0  0  0  0  0  0  0  0  0  0  0
  128.3900  130.8300   71.5970 C   0  0  0  0  0  0  0  0  0  0  0  0
  129.1470  129.6700   71.8410 C   0  0  0  0  0  0  0  0  0  0  0  0
  128.4220  129.0500   68.8700 N   0  0  0  0  0  0  0  0  0  0  0  0
  128.3330  128.4730   67.6290 C   0  0  0  0  0  0  0  0  0  0  0  0
  127.4890  129.0350   66.5330 C   0  0  0  0  0  0  0  0  0  0  0  0
  128.0270  129.2180   65.2580 C   0  0  0  0  0  0  0  0  0  0  0  0
  127.2470  129.7530   64.2380 C   0  0  0  0  0  0  0  0  0  0  0  0
  125.9110  130.1140   64.4650 C   0  0  0  0  0  0  0  0  0  0  0  0
  125.0810  130.7070   63.3700 C   0  0  0  0  0  0  0  0  0  0  0  0
  124.3220  131.8660   63.5910 C   0  0  0  0  0  0  0  0  0  0  0  0
  123.5530  132.4210   62.5700 C   0  0  0  0  0  0  0  0  0  0  0  0
  123.5360  131.8210   61.3150 C   0  0  0  0  0  0  0  0  0  0  0  0
  124.2830  130.6720   61.0740 C   0  0  0  0  0  0  0  0  0  0  0  0
  125.0490  130.1190   62.0970 C   0  0  0  0  0  0  0  0  0  0  0  0
  125.3780  129.9090   65.7450 C   0  0  0  0  0  0  0  0  0  0  0  0
  126.1550  129.3740   66.7680 C   0  0  0  0  0  0  0  0  0  0  0  0
  129.7930  126.7410   65.3860 C   0  0  0  0  0  0  0  0  0  0  0  0
  130.1110  125.8050   64.4060 C   0  0  0  0  0  0  0  0  0  0  0  0
  129.5220  123.0070   62.7240 C   0  0  0  0  0  0  0  0  0  0  0  0
  129.8350  122.0720   61.7400 C   0  0  0  0  0  0  0  0  0  0  0  0
  1  2  2  0
  2  3  1  0
  3  4  2  0
  4  5  1  0
  5  6  2  0
  6  7  1  0
  7  8  2  0
  8  9  1  0
  9 10  1  0
 10 11  2  0
 11 12  1  0
 12 13  2  0
 13 14  1  0
 14 15  1  0
 15 16  2  0
 16 17  1  0
 17 18  2  0
 18 19  1  0
 19 20  2  0
 11 21  1  0
 21 22  1  0
 22 23  1  0
 23 24  2  0
 24 25  1  0
 25 26  2  0
 26 27  1  0
 27 28  2  0
 28 29  1  0
 29 30  2  0
 30 31  1  0
 31 32  2  0
 26 33  1  0
 33 34  2  0
  8 35  1  0
 35 36  2  0
  4 37  1  0
 37 38  2  0
 38  1  1  0
 36  5  1  0
 22  9  2  0
 34 23  1  0
 20 12  1  0
 32 27  1  0
 20 15  1  0
M  END
>  <Binding energies>  (51) 
[-9.56]

>  <Ligand effiencies>  (51) 
[-0.23900000000000002]

>  <Interactions>  (51) 
["V-B:ALA:541:CB:9863, V-A:LEU:475:CD2:4258, V-A:GLU:543:CD:4908, V-A:GLU:543:CG:4907, V-A:GLU:543:CB:4906, V-B:HIS:456:CE1:9041, V-B:GLU:543:CB:9877, V-A:TYR:484:CZ:4346, V-A:HIS:456:CE1:4069, V-B:HIS:456:CG:9037, V-B:GLU:543:CG:9878, V-B:HIS:456:CD2:9039, V-B:TYR:484:CE1:9316, V-B:TYR:484:CD1:9314, V-B:GLU:543:CD:9879, V-A:TYR:484:CE1:4344, V-B:GLY:454:CA:9020, V-B:ILE:369:CB:8207, V-B:ASP:366:CB:8183, V-B:ILE:369:CG2:8208, V-B:ASP:366:CG:8184, H-B:TYR:484:OH:9319, V-B:ILE:369:CD1:8210, H-B:HIS:456:NE2:9042, V-B:TYR:484:CG:9313, V-A:LYS:547:CE:4950"]

$$$$
RR4_Rahimova_2017
     RDKit          3D

 40 44  0  0  0  0  0  0  0  0999 V2000
  129.8690  125.0200   74.3030 C   0  0  0  0  0  0  0  0  0  0  0  0
  128.8150  125.8200   73.7790 O   0  0  0  0  0  0  0  0  0  0  0  0
  128.8460  126.1870   72.4470 C   0  0  0  0  0  0  0  0  0  0  0  0
  128.0420  125.4540   71.5770 C   0  0  0  0  0  0  0  0  0  0  0  0
  128.0080  125.7530   70.2190 C   0  0  0  0  0  0  0  0  0  0  0  0
  128.7820  126.7960   69.6880 C   0  0  0  0  0  0  0  0  0  0  0  0
  128.7440  127.1150   68.2210 C   0  0  0  0  0  0  0  0  0  0  0  0
  127.9500  128.1350   67.6880 C   0  0  0  0  0  0  0  0  0  0  0  0
  127.9520  128.3980   66.3120 C   0  0  0  0  0  0  0  0  0  0  0  0
  127.0990  129.5210   65.8190 C   0  0  0  0  0  0  0  0  0  0  0  0
  125.7590  129.2940   65.4930 C   0  0  0  0  0  0  0  0  0  0  0  0
  124.9540  130.3380   65.0450 C   0  0  0  0  0  0  0  0  0  0  0  0
  125.4700  131.6280   64.9190 C   0  0  0  0  0  0  0  0  0  0  0  0
  124.5980  132.5990   64.4670 O   0  0  0  0  0  0  0  0  0  0  0  0
  124.1990  132.5930   63.1000 C   0  0  0  0  0  0  0  0  0  0  0  0
  126.8130  131.8610   65.2500 C   0  0  0  0  0  0  0  0  0  0  0  0
  127.6160  130.8160   65.6980 C   0  0  0  0  0  0  0  0  0  0  0  0
  128.7550  127.5880   65.4720 C   0  0  0  0  0  0  0  0  0  0  0  0
  128.7960  127.8200   64.0250 C   0  0  0  0  0  0  0  0  0  0  0  0
  128.8280  128.0030   62.8830 N   0  0  0  0  0  0  0  0  0  0  0  0
  129.5110  126.5560   66.0740 C   0  0  0  0  0  0  0  0  0  0  0  0
  130.5630  125.4370   65.1740 S   0  0  0  0  0  0  0  0  0  0  0  0
  129.5470  124.0140   64.6540 C   0  0  0  0  0  0  0  0  0  0  0  0
  129.2550  123.9570   63.1480 C   0  0  0  0  0  0  0  0  0  0  0  0
  130.1770  123.9840   62.3300 O   0  0  0  0  0  0  0  0  0  0  0  0
  127.9410  123.8920   62.8280 N   0  0  0  0  0  0  0  0  0  0  0  0
  127.3590  123.8270   61.5600 C   0  0  0  0  0  0  0  0  0  0  0  0
  126.0100  124.8240   61.0830 S   0  0  0  0  0  0  0  0  0  0  0  0
  125.9690  124.1100   59.5000 C   0  0  0  0  0  0  0  0  0  0  0  0
  126.9640  123.1310   59.3500 C   0  0  0  0  0  0  0  0  0  0  0  0
  127.7600  122.9830   60.5120 C   0  0  0  0  0  0  0  0  0  0  0  0
  128.8740  122.0450   60.6100 C   0  0  0  0  0  0  0  0  0  0  0  0
  129.7570  121.3010   60.6870 N   0  0  0  0  0  0  0  0  0  0  0  0
  127.1580  122.3810   58.0270 C   0  0  0  0  0  0  0  0  0  0  0  0
  126.4370  123.1140   56.8740 C   0  0  0  0  0  0  0  0  0  0  0  0
  125.0100  123.5410   57.2600 C   0  0  0  0  0  0  0  0  0  0  0  0
  125.0050  124.5670   58.4130 C   0  0  0  0  0  0  0  0  0  0  0  0
  129.5150  126.3450   67.4110 N   0  0  0  0  0  0  0  0  0  0  0  0
  129.5870  127.5310   70.5730 C   0  0  0  0  0  0  0  0  0  0  0  0
  129.6230  127.2340   71.9320 C   0  0  0  0  0  0  0  0  0  0  0  0
  1  2  1  0
  2  3  1  0
  3  4  2  0
  4  5  1  0
  5  6  2  0
  6  7  1  0
  7  8  2  0
  8  9  1  0
  9 10  1  0
 10 11  2  0
 11 12  1  0
 12 13  2  0
 13 14  1  0
 14 15  1  0
 13 16  1  0
 16 17  2  0
  9 18  2  0
 18 19  1  0
 19 20  3  0
 18 21  1  0
 21 22  1  0
 22 23  1  0
 23 24  1  0
 24 25  2  0
 24 26  1  0
 26 27  1  0
 27 28  1  0
 28 29  1  0
 29 30  2  0
 30 31  1  0
 31 32  1  0
 32 33  3  0
 30 34  1  0
 34 35  1  0
 35 36  1  0
 36 37  1  0
 21 38  2  0
  6 39  1  0
 39 40  2  0
 40  3  1  0
 38  7  1  0
 17 10  1  0
 31 27  2  0
 37 29  1  0
M  END
>  <Binding energies>  (52) 
[-11.26]

>  <Ligand effiencies>  (52) 
[-0.27463414634146344]

>  <Interactions>  (52) 
["V-B:TYR:539:CE2:9847, V-B:PRO:540:CA:9854, V-B:TYR:539:CD2:9845, V-B:LEU:363:CD1:8160, V-B:PRO:540:CD:9858, V-B:PRO:540:CB:9856, V-B:ALA:541:CB:9863, V-B:TYR:539:C:9838, H-B:GLU:543:OE2:9881, V-B:PRO:540:N:9855, V-A:GLU:543:CD:4908, V-A:GLU:543:CG:4907, V-B:HIS:456:CE1:9041, V-B:GLU:543:CB:9877, V-A:HIS:456:CE1:4069, V-B:GLU:543:CG:9878, V-B:GLU:543:CD:9879, V-A:HIS:456:CD2:4067, V-B:LEU:475:CD1:9229, V-B:GLY:454:CA:9020, V-B:ARG:545:CZ:9897, H-B:GLY:454:N:9021, V-B:ILE:369:CD1:8210, H-B:LYS:547:NZ:9922, V-B:LYS:547:CE:9921, V-B:GLU:543:C:9873, V-B:GLY:544:C:9883"]

$$$$
RR6_Rahimova_2017
     RDKit          3D

 38 41  0  0  0  0  0  0  0  0999 V2000
  132.4590  131.3780   56.7290 C   0  0  0  0  0  0  0  0  0  0  0  0
  132.1080  132.6090   57.3460 O   0  0  0  0  0  0  0  0  0  0  0  0
  130.8250  132.8680   57.7080 C   0  0  0  0  0  0  0  0  0  0  0  0
  130.0010  133.4000   56.9570 O   0  0  0  0  0  0  0  0  0  0  0  0
  130.5070  132.4440   59.1130 C   0  0  0  0  0  0  0  0  0  0  0  0
  131.4300  131.7470   59.9060 C   0  0  0  0  0  0  0  0  0  0  0  0
  131.1020  131.3600   61.2040 C   0  0  0  0  0  0  0  0  0  0  0  0
  129.8370  131.6620   61.7290 C   0  0  0  0  0  0  0  0  0  0  0  0
  129.3930  131.2950   63.0130 N   0  0  0  0  0  0  0  0  0  0  0  0
  128.1480  130.9710   63.4280 C   0  0  0  0  0  0  0  0  0  0  0  0
  127.1460  130.9310   62.7150 O   0  0  0  0  0  0  0  0  0  0  0  0
  128.0020  130.6980   64.9290 C   0  0  0  0  0  0  0  0  0  0  0  0
  127.1660  129.1220   65.3080 S   0  0  0  0  0  0  0  0  0  0  0  0
  128.4100  128.0240   65.9560 C   0  0  0  0  0  0  0  0  0  0  0  0
  128.4500  127.9620   67.3090 N   0  0  0  0  0  0  0  0  0  0  0  0
  129.3370  127.1370   67.9190 C   0  0  0  0  0  0  0  0  0  0  0  0
  129.2750  127.0820   69.4170 C   0  0  0  0  0  0  0  0  0  0  0  0
  129.9120  128.0550   70.2030 C   0  0  0  0  0  0  0  0  0  0  0  0
  129.8650  127.9960   71.5940 C   0  0  0  0  0  0  0  0  0  0  0  0
  129.1740  126.9620   72.2250 C   0  0  0  0  0  0  0  0  0  0  0  0
  129.1340  126.8970   73.7410 C   0  0  0  0  0  0  0  0  0  0  0  0
  128.5340  125.9880   71.4630 C   0  0  0  0  0  0  0  0  0  0  0  0
  128.5830  126.0530   70.0750 C   0  0  0  0  0  0  0  0  0  0  0  0
  130.2220  126.3580   67.1680 C   0  0  0  0  0  0  0  0  0  0  0  0
  130.2040  126.4070   65.7660 C   0  0  0  0  0  0  0  0  0  0  0  0
  131.1640  125.5350   65.0260 C   0  0  0  0  0  0  0  0  0  0  0  0
  132.3930  126.0460   64.6000 C   0  0  0  0  0  0  0  0  0  0  0  0
  133.3010  125.2350   63.9230 C   0  0  0  0  0  0  0  0  0  0  0  0
  133.0000  123.8990   63.6650 C   0  0  0  0  0  0  0  0  0  0  0  0
  133.9610  123.1700   62.9910 O   0  0  0  0  0  0  0  0  0  0  0  0
  133.5920  121.9420   62.3720 C   0  0  0  0  0  0  0  0  0  0  0  0
  131.7700  123.3790   64.0960 C   0  0  0  0  0  0  0  0  0  0  0  0
  130.8650  124.1930   64.7730 C   0  0  0  0  0  0  0  0  0  0  0  0
  129.2740  127.2700   65.1360 C   0  0  0  0  0  0  0  0  0  0  0  0
  129.2210  127.3920   63.6760 C   0  0  0  0  0  0  0  0  0  0  0  0
  129.1780  127.4870   62.5230 N   0  0  0  0  0  0  0  0  0  0  0  0
  128.9220  132.3700   60.9490 C   0  0  0  0  0  0  0  0  0  0  0  0
  129.2510  132.7540   59.6510 C   0  0  0  0  0  0  0  0  0  0  0  0
  1  2  1  0
  2  3  1  0
  3  4  2  0
  3  5  1  0
  5  6  2  0
  6  7  1  0
  7  8  2  0
  8  9  1  0
  9 10  1  0
 10 11  2  0
 10 12  1  0
 12 13  1  0
 13 14  1  0
 14 15  2  0
 15 16  1  0
 16 17  1  0
 17 18  2  0
 18 19  1  0
 19 20  2  0
 20 21  1  0
 20 22  1  0
 22 23  2  0
 16 24  2  0
 24 25  1  0
 25 26  1  0
 26 27  2  0
 27 28  1  0
 28 29  2  0
 29 30  1  0
 30 31  1  0
 29 32  1  0
 32 33  2  0
 25 34  2  0
 34 35  1  0
 35 36  3  0
  8 37  1  0
 37 38  2  0
 38  5  1  0
 34 14  1  0
 23 17  1  0
 33 26  1  0
M  END
>  <Binding energies>  (53) 
[-9.16]

>  <Ligand effiencies>  (53) 
[-0.23487179487179488]

>  <Interactions>  (53) 
["V-A:LEU:475:CD2:4258, H-A:GLY:454:N:4049, V-A:ILE:369:CD1:3238, V-A:ILE:369:CG2:3236, V-A:ARG:545:CZ:4926, V-A:GLU:543:CD:4908, V-A:GLU:543:CG:4907, V-A:GLU:543:CB:4906, V-B:HIS:456:CE1:9041, V-B:GLU:543:CB:9877, V-A:HIS:456:CE1:4069, V-B:GLU:543:CD:9879, V-A:PRO:540:N:4884, V-A:LEU:363:CD1:3188, V-A:TYR:539:C:4867, H-A:TYR:539:N:4870, V-A:PRO:540:CA:4883, V-A:TYR:531:CE2:4793, H-A:GLU:543:OE1:4909, V-A:PRO:540:CD:4887, V-A:PRO:540:CB:4885, V-A:GLY:454:CA:4048"]

$$$$
RR7_Rahimova_2017
     RDKit          3D

 47 53  0  0  0  0  0  0  0  0999 V2000
  124.5140  131.0460   59.4970 C   0  0  0  0  0  0  0  0  0  0  0  0
  125.8080  130.6430   59.9350 O   0  0  0  0  0  0  0  0  0  0  0  0
  126.2240  129.3470   59.7010 C   0  0  0  0  0  0  0  0  0  0  0  0
  126.8580  128.6960   60.7580 C   0  0  0  0  0  0  0  0  0  0  0  0
  127.3070  127.3870   60.6180 C   0  0  0  0  0  0  0  0  0  0  0  0
  127.1410  126.6970   59.4080 C   0  0  0  0  0  0  0  0  0  0  0  0
  127.6050  125.2180   59.2330 C   0  0  0  0  0  0  0  0  0  0  0  0
  128.9100  125.2710   58.6150 O   0  0  0  0  0  0  0  0  0  0  0  0
  129.2460  126.3520   57.7400 C   0  0  0  0  0  0  0  0  0  0  0  0
  130.7530  126.6350   57.8490 C   0  0  1  0  0  0  0  0  0  0  0  0
  130.9830  127.1490   59.1580 O   0  0  0  0  0  0  0  0  0  0  0  0
  131.8890  126.3620   59.8770 C   0  0  1  0  0  0  0  0  0  0  0  0
  131.5520  126.3740   61.2870 N   0  0  0  0  0  0  0  0  0  0  0  0
  130.4630  126.9710   61.8980 C   0  0  0  0  0  0  0  0  0  0  0  0
  130.4250  126.8670   63.2040 N   0  0  0  0  0  0  0  0  0  0  0  0
  131.5790  126.1990   63.5110 C   0  0  0  0  0  0  0  0  0  0  0  0
  132.1330  125.7900   64.7400 C   0  0  0  0  0  0  0  0  0  0  0  0
  131.4270  126.0700   65.9250 N   0  0  0  0  0  0  0  0  0  0  0  0
  130.3540  125.4310   66.4490 C   0  0  0  0  0  0  0  0  0  0  0  0
  129.7950  124.4650   65.9220 O   0  0  0  0  0  0  0  0  0  0  0  0
  129.8250  125.9970   67.7490 C   0  0  0  0  0  0  0  0  0  0  0  0
  130.0350  127.3510   68.0530 C   0  0  0  0  0  0  0  0  0  0  0  0
  129.5520  127.8930   69.2410 C   0  0  0  0  0  0  0  0  0  0  0  0
  128.8510  127.0880   70.1330 C   0  0  0  0  0  0  0  0  0  0  0  0
  128.6280  125.7430   69.8480 C   0  0  0  0  0  0  0  0  0  0  0  0
  129.1120  125.1990   68.6600 C   0  0  0  0  0  0  0  0  0  0  0  0
  133.3360  125.1400   64.7470 N   0  0  0  0  0  0  0  0  0  0  0  0
  133.9450  124.9200   63.5530 C   0  0  0  0  0  0  0  0  0  0  0  0
  133.5010  125.2670   62.3150 N   0  0  0  0  0  0  0  0  0  0  0  0
  132.3180  125.8950   62.3390 C   0  0  0  0  0  0  0  0  0  0  0  0
  131.8410  124.9890   59.2150 C   0  0  0  0  0  0  0  0  0  0  0  0
  131.6540  125.3950   57.7640 C   0  0  2  0  0  0  0  0  0  0  0  0
  132.8900  125.6670   57.1240 O   0  0  0  0  0  0  0  0  0  0  0  0
  127.7770  124.4880   60.5920 C   0  0  0  0  0  0  0  0  0  0  0  0
  126.6510  124.1310   61.3520 C   0  0  0  0  0  0  0  0  0  0  0  0
  126.7930  123.4890   62.5780 C   0  0  0  0  0  0  0  0  0  0  0  0
  128.0660  123.1990   63.0590 C   0  0  0  0  0  0  0  0  0  0  0  0
  129.1960  123.5440   62.3240 C   0  0  0  0  0  0  0  0  0  0  0  0
  129.0520  124.1870   61.0980 C   0  0  0  0  0  0  0  0  0  0  0  0
  126.6670  124.3100   58.3880 C   0  0  0  0  0  0  0  0  0  0  0  0
  127.2040  123.3550   57.5110 C   0  0  0  0  0  0  0  0  0  0  0  0
  126.3740  122.5440   56.7430 C   0  0  0  0  0  0  0  0  0  0  0  0
  124.9930  122.6870   56.8380 C   0  0  0  0  0  0  0  0  0  0  0  0
  124.4380  123.6370   57.6910 C   0  0  0  0  0  0  0  0  0  0  0  0
  125.2710  124.4460   58.4580 C   0  0  0  0  0  0  0  0  0  0  0  0
  126.4890  127.3520   58.3530 C   0  0  0  0  0  0  0  0  0  0  0  0
  126.0390  128.6620   58.4920 C   0  0  0  0  0  0  0  0  0  0  0  0
  1  2  1  0
  2  3  1  0
  3  4  2  0
  4  5  1  0
  5  6  2  0
  6  7  1  0
  7  8  1  0
  8  9  1  0
 10  9  1  1
 10 11  1  0
 11 12  1  0
 12 13  1  1
 13 14  1  0
 14 15  2  0
 15 16  1  0
 16 17  2  0
 17 18  1  0
 18 19  1  0
 19 20  2  0
 19 21  1  0
 21 22  2  0
 22 23  1  0
 23 24  2  0
 24 25  1  0
 25 26  2  0
 17 27  1  0
 27 28  2  0
 28 29  1  0
 29 30  2  0
 12 31  1  0
 31 32  1  0
 32 33  1  1
  7 34  1  0
 34 35  2  0
 35 36  1  0
 36 37  2  0
 37 38  1  0
 38 39  2  0
  7 40  1  0
 40 41  2  0
 41 42  1  0
 42 43  2  0
 43 44  1  0
 44 45  2  0
  6 46  1  0
 46 47  2  0
 47  3  1  0
 32 10  1  0
 39 34  1  0
 45 40  1  0
 30 13  1  0
 30 16  1  0
 26 21  1  0
M  END
>  <Binding energies>  (54) 
[-9.16]

>  <Ligand effiencies>  (54) 
[-0.18693877551020407]

>  <Interactions>  (54) 
["V-B:PRO:540:CA:9854, V-B:LEU:363:CD1:8160, V-B:PRO:540:CD:9858, V-B:PRO:540:CB:9856, V-B:ALA:541:CB:9863, V-B:TYR:539:C:9838, V-B:PRO:540:N:9855, V-B:ALA:541:CA:9861, V-B:TYR:539:CZ:9848, H-A:ARG:545:NH2:4928, H-A:GLY:454:N:4049, V-A:ASP:366:CG:3212, H-A:ASP:366:O:3208, V-A:ASP:366:CB:3211, H-B:TYR:539:OH:9849, H-A:TYR:484:OH:4347, H-A:GLU:543:OE2:4910, V-A:ARG:545:CZ:4926, V-B:LEU:363:CA:8156, V-B:PRO:540:CG:9857, V-A:GLU:543:CD:4908, V-A:GLU:543:CG:4907, V-A:GLU:543:CB:4906, V-B:HIS:456:CE1:9041, V-B:GLU:543:CB:9877, V-A:HIS:456:CE1:4069, V-B:GLU:543:CG:9878, V-B:GLU:543:CD:9879, H-A:TYR:531:OH:4795, V-B:ASP:366:CB:8183, V-B:ASP:366:CG:8184, V-B:ASP:366:CA:8181, V-A:GLY:453:C:4041, V-A:GLY:453:CA:4043, V-B:GLU:543:CA:9875, V-B:GLU:543:C:9873"]

$$$$
RR8_A_Rahimova_2017
     RDKit          3D

 42 46  0  0  0  0  0  0  0  0999 V2000
  133.4920  123.9890   57.8230 O   0  0  0  0  0  0  0  0  0  0  0  0
  132.8450  124.8370   58.4460 C   0  0  0  0  0  0  0  0  0  0  0  0
  131.9730  125.7220   57.8700 O   0  0  0  0  0  0  0  0  0  0  0  0
  130.6380  125.3190   57.7310 C   0  0  1  0  0  0  0  0  0  0  0  0
  130.3320  124.2460   58.5730 O   0  0  0  0  0  0  0  0  0  0  0  0
  129.0210  124.3590   59.1200 C   0  0  2  0  0  0  0  0  0  0  0  0
  128.2360  123.0820   58.7770 C   0  0  0  0  0  0  0  0  0  0  0  0
  128.0350  122.3340   59.9690 O   0  0  0  0  0  0  0  0  0  0  0  0
  129.1670  121.5760   60.3730 C   0  0  0  0  0  0  0  0  0  0  0  0
  129.7260  122.1370   61.6730 C   0  0  0  0  0  0  0  0  0  0  0  0
  129.0250  123.1300   62.3610 C   0  0  0  0  0  0  0  0  0  0  0  0
  129.5300  123.6410   63.5550 C   0  0  0  0  0  0  0  0  0  0  0  0
  130.7340  123.1530   64.0590 C   0  0  0  0  0  0  0  0  0  0  0  0
  131.4370  122.1580   63.3820 C   0  0  0  0  0  0  0  0  0  0  0  0
  130.9310  121.6470   62.1900 C   0  0  0  0  0  0  0  0  0  0  0  0
  128.4780  125.6540   58.5020 C   0  0  1  0  0  0  0  0  0  0  0  0
  127.6960  126.4250   59.4110 O   0  0  0  0  0  0  0  0  0  0  0  0
  127.5050  125.8520   60.7000 C   0  0  0  0  0  0  0  0  0  0  0  0
  126.2300  125.0190   60.7140 C   0  0  0  0  0  0  0  0  0  0  0  0
  125.4070  124.9920   59.5830 C   0  0  0  0  0  0  0  0  0  0  0  0
  124.2350  124.2410   59.5920 C   0  0  0  0  0  0  0  0  0  0  0  0
  123.8860  123.5200   60.7330 C   0  0  0  0  0  0  0  0  0  0  0  0
  124.6960  123.5470   61.8650 C   0  0  0  0  0  0  0  0  0  0  0  0
  125.8680  124.3000   61.8570 C   0  0  0  0  0  0  0  0  0  0  0  0
  129.7340  126.4510   58.1990 C   0  0  2  0  0  0  0  0  0  0  0  0
  129.4770  127.4310   57.1970 O   0  0  0  0  0  0  0  0  0  0  0  0
  129.1420  128.7290   57.6760 C   0  0  0  0  0  0  0  0  0  0  0  0
  130.3340  129.6620   57.5240 C   0  0  0  0  0  0  0  0  0  0  0  0
  130.2620  130.7620   56.6630 C   0  0  0  0  0  0  0  0  0  0  0  0
  131.3530  131.6180   56.5350 C   0  0  0  0  0  0  0  0  0  0  0  0
  132.5110  131.3750   57.2700 C   0  0  0  0  0  0  0  0  0  0  0  0
  132.5890  130.2850   58.1330 C   0  0  0  0  0  0  0  0  0  0  0  0
  131.4980  129.4280   58.2620 C   0  0  0  0  0  0  0  0  0  0  0  0
  132.9270  124.9940   59.9370 C   0  0  0  0  0  0  0  0  0  0  0  0
  133.8430  124.2640   60.7110 C   0  0  0  0  0  0  0  0  0  0  0  0
  133.8950  124.4320   62.0920 C   0  0  0  0  0  0  0  0  0  0  0  0
  133.0330  125.3300   62.7350 C   0  0  0  0  0  0  0  0  0  0  0  0
  133.0900  125.5090   64.2060 N   0  0  0  0  0  0  0  0  0  0  0  0
  134.0640  125.0750   64.8140 O   0  0  0  0  0  0  0  0  0  0  0  0
  132.1610  126.0850   64.7650 O   0  0  0  0  0  0  0  0  0  0  0  0
  132.1180  126.0560   61.9620 C   0  0  0  0  0  0  0  0  0  0  0  0
  132.0650  125.8900   60.5820 C   0  0  0  0  0  0  0  0  0  0  0  0
  1  2  2  0
  2  3  1  0
  4  3  1  1
  4  5  1  0
  5  6  1  0
  6  7  1  6
  7  8  1  0
  8  9  1  0
  9 10  1  0
 10 11  2  0
 11 12  1  0
 12 13  2  0
 13 14  1  0
 14 15  2  0
  6 16  1  0
 16 17  1  1
 17 18  1  0
 18 19  1  0
 19 20  2  0
 20 21  1  0
 21 22  2  0
 22 23  1  0
 23 24  2  0
 16 25  1  0
 25 26  1  6
 26 27  1  0
 27 28  1  0
 28 29  2  0
 29 30  1  0
 30 31  2  0
 31 32  1  0
 32 33  2  0
  2 34  1  0
 34 35  2  0
 35 36  1  0
 36 37  2  0
 37 38  1  0
 38 39  2  0
 38 40  1  0
 37 41  1  0
 41 42  2  0
 25  4  1  0
 33 28  1  0
 42 34  1  0
 15 10  1  0
 24 19  1  0
M  CHG  2  38   1  40  -1
M  END
>  <Binding energies>  (55) 
[-8.92]

>  <Ligand effiencies>  (55) 
[-0.2123809523809524]

>  <Interactions>  (55) 
["V-B:TYR:539:CE2:9847, V-B:PRO:540:CA:9854, V-B:TYR:539:CD2:9845, V-B:PRO:540:CB:9856, V-B:ALA:541:CB:9863, V-B:TYR:539:C:9838, V-A:LEU:475:CD2:4258, H-B:ALA:541:N:9862, V-B:TYR:539:CZ:9848, H-A:ARG:545:NH2:4928, H-A:GLY:454:N:4049, H-A:ARG:545:NE:4924, H-A:ARG:545:NH1:4927, V-A:ASP:366:CG:3212, V-A:ILE:369:CD1:3238, V-A:ASP:366:CB:3211, V-A:ASP:366:CA:3209, V-A:ILE:369:CG2:3236, H-B:TYR:539:OH:9849, V-A:ARG:545:CZ:4926, V-B:LEU:363:CA:8156, V-B:GLU:543:CG:9878, V-A:ASP:366:C:3207, V-B:GLU:543:CD:9879, V-A:LEU:363:CD1:3188, V-A:TYR:531:CE2:4793, H-A:TYR:531:OH:4795, V-B:ASN:362:CB:8147, V-A:MET:535:CE:4835, V-B:ASP:366:CG:8184, V-B:ASN:362:C:8143, H-A:ASN:370:N:3243, V-B:ASN:362:CA:8145, V-A:ILE:369:CB:3235, V-A:ILE:369:CG1:3237"]

$$$$
RR8_B_Rahimova_2017
     RDKit          3D

 42 46  0  0  0  0  0  0  0  0999 V2000
  123.5630  131.7660   57.9440 O   0  0  0  0  0  0  0  0  0  0  0  0
  124.6260  131.5580   58.5370 C   0  0  0  0  0  0  0  0  0  0  0  0
  125.8640  131.6740   57.9680 O   0  0  0  0  0  0  0  0  0  0  0  0
  126.0950  131.0240   56.7430 C   0  0  2  0  0  0  0  0  0  0  0  0
  125.7800  129.6610   56.8080 O   0  0  0  0  0  0  0  0  0  0  0  0
  126.9160  128.8790   57.1750 C   0  0  2  0  0  0  0  0  0  0  0  0
  126.6010  128.0880   58.4570 C   0  0  0  0  0  0  0  0  0  0  0  0
  127.0850  126.7580   58.3160 O   0  0  0  0  0  0  0  0  0  0  0  0
  127.3680  126.0920   59.5380 C   0  0  0  0  0  0  0  0  0  0  0  0
  126.1560  125.2740   59.9550 C   0  0  0  0  0  0  0  0  0  0  0  0
  125.1840  124.9400   59.0070 C   0  0  0  0  0  0  0  0  0  0  0  0
  124.0600  124.2120   59.3870 C   0  0  0  0  0  0  0  0  0  0  0  0
  123.9120  123.8180   60.7160 C   0  0  0  0  0  0  0  0  0  0  0  0
  124.8790  124.1410   61.6650 C   0  0  0  0  0  0  0  0  0  0  0  0
  126.0020  124.8720   61.2850 C   0  0  0  0  0  0  0  0  0  0  0  0
  128.0560  129.8980   57.2920 C   0  0  1  0  0  0  0  0  0  0  0  0
  129.2800  129.3090   56.8440 O   0  0  0  0  0  0  0  0  0  0  0  0
  130.2550  128.9970   57.8430 C   0  0  0  0  0  0  0  0  0  0  0  0
  130.3420  127.4990   58.1170 C   0  0  0  0  0  0  0  0  0  0  0  0
  129.7750  126.5880   57.2210 C   0  0  0  0  0  0  0  0  0  0  0  0
  129.8850  125.2210   57.4580 C   0  0  0  0  0  0  0  0  0  0  0  0
  130.5560  124.7690   58.5920 C   0  0  0  0  0  0  0  0  0  0  0  0
  131.1200  125.6710   59.4920 C   0  0  0  0  0  0  0  0  0  0  0  0
  131.0130  127.0390   59.2530 C   0  0  0  0  0  0  0  0  0  0  0  0
  127.5890  131.0590   56.4210 C   0  0  2  0  0  0  0  0  0  0  0  0
  128.2340  132.2670   56.8150 O   0  0  0  0  0  0  0  0  0  0  0  0
  128.6150  132.3420   58.1800 C   0  0  0  0  0  0  0  0  0  0  0  0
  130.1210  132.1720   58.2640 C   0  0  0  0  0  0  0  0  0  0  0  0
  130.9110  132.2970   57.1170 C   0  0  0  0  0  0  0  0  0  0  0  0
  132.2890  132.1200   57.2020 C   0  0  0  0  0  0  0  0  0  0  0  0
  132.8730  131.8180   58.4300 C   0  0  0  0  0  0  0  0  0  0  0  0
  132.0920  131.6930   59.5780 C   0  0  0  0  0  0  0  0  0  0  0  0
  130.7140  131.8710   59.4940 C   0  0  0  0  0  0  0  0  0  0  0  0
  124.6930  131.1100   59.9690 C   0  0  0  0  0  0  0  0  0  0  0  0
  125.7790  130.3710   60.4620 C   0  0  0  0  0  0  0  0  0  0  0  0
  125.8100  129.9620   61.7910 C   0  0  0  0  0  0  0  0  0  0  0  0
  124.7550  130.2710   62.6570 C   0  0  0  0  0  0  0  0  0  0  0  0
  124.7780  129.8110   64.0680 N   0  0  0  0  0  0  0  0  0  0  0  0
  123.8830  130.1820   64.8230 O   0  0  0  0  0  0  0  0  0  0  0  0
  125.6890  129.0710   64.4300 O   0  0  0  0  0  0  0  0  0  0  0  0
  123.6740  131.0150   62.1660 C   0  0  0  0  0  0  0  0  0  0  0  0
  123.6450  131.4310   60.8390 C   0  0  0  0  0  0  0  0  0  0  0  0
  1  2  2  0
  2  3  1  0
  4  3  1  1
  4  5  1  0
  5  6  1  0
  6  7  1  1
  7  8  1  0
  8  9  1  0
  9 10  1  0
 10 11  2  0
 11 12  1  0
 12 13  2  0
 13 14  1  0
 14 15  2  0
  6 16  1  0
 16 17  1  6
 17 18  1  0
 18 19  1  0
 19 20  2  0
 20 21  1  0
 21 22  2  0
 22 23  1  0
 23 24  2  0
 16 25  1  0
 25 26  1  1
 26 27  1  0
 27 28  1  0
 28 29  2  0
 29 30  1  0
 30 31  2  0
 31 32  1  0
 32 33  2  0
  2 34  1  0
 34 35  2  0
 35 36  1  0
 36 37  2  0
 37 38  1  0
 38 39  2  0
 38 40  1  0
 37 41  1  0
 41 42  2  0
 25  4  1  0
 33 28  1  0
 42 34  1  0
 15 10  1  0
 24 19  1  0
M  CHG  2  38   1  40  -1
M  END
>  <Binding energies>  (56) 
[-9.3]

>  <Ligand effiencies>  (56) 
[-0.22142857142857145]

>  <Interactions>  (56) 
["V-B:TYR:539:CE2:9847, V-B:PRO:540:CA:9854, V-B:PRO:540:CB:9856, H-B:TYR:531:OH:9766, V-B:TYR:539:CZ:9848, V-A:ASP:366:CG:3212, V-B:LEU:363:CA:8156, H-B:ARG:545:NH2:9899, V-A:LEU:363:CD1:3188, V-A:PRO:540:CA:4883, H-A:TYR:531:OH:4795, V-B:ASN:362:CB:8147, V-A:MET:535:CE:4835, V-A:TYR:539:CZ:4877, V-A:TYR:539:CE2:4876, V-A:TYR:539:CD2:4874, V-A:PRO:540:CB:4885, V-B:ASP:366:CB:8183, V-B:ILE:369:CG2:8208, V-B:ARG:545:CZ:9897, V-B:ASP:366:CG:8184, V-B:ASP:366:CA:8181, H-B:GLY:454:N:9021, H-B:ARG:545:NE:9895, V-B:ILE:369:CD1:8210, V-B:ASN:362:C:8143, V-B:ASN:362:CA:8145, H-A:TYR:539:OH:4878, H-B:ASN:370:N:8215"]

$$$$
RR9_Rahimova_2017
     RDKit          3D

 36 40  0  0  0  0  0  0  0  0999 V2000
  132.1650  128.3950   70.3360 C   0  0  0  0  0  0  0  0  0  0  0  0
  131.6960  127.6880   71.6120 C   0  0  0  0  0  0  0  0  0  0  0  0
  130.2750  127.5910   71.5860 O   0  0  0  0  0  0  0  0  0  0  0  0
  129.5880  127.9920   70.4560 C   0  0  0  0  0  0  0  0  0  0  0  0
  129.1970  126.9860   69.5740 C   0  0  0  0  0  0  0  0  0  0  0  0
  128.5030  127.2960   68.4090 C   0  0  0  0  0  0  0  0  0  0  0  0
  128.1800  128.6240   68.0910 C   0  0  0  0  0  0  0  0  0  0  0  0
  127.4370  128.9640   66.8340 C   0  0  0  0  0  0  0  0  0  0  0  0
  128.0120  128.7810   65.5660 C   0  0  0  0  0  0  0  0  0  0  0  0
  127.3050  129.0890   64.3900 C   0  0  0  0  0  0  0  0  0  0  0  0
  127.9380  128.7770   63.0610 C   0  0  0  0  0  0  0  0  0  0  0  0
  128.7430  129.5590   62.5550 O   0  0  0  0  0  0  0  0  0  0  0  0
  127.5450  127.6250   62.4820 N   0  0  0  0  0  0  0  0  0  0  0  0
  127.9160  127.1680   61.1380 C   0  0  0  0  0  0  0  0  0  0  0  0
  127.7840  125.6380   60.9610 C   0  0  0  0  0  0  0  0  0  0  0  0
  126.3970  125.1620   60.5430 C   0  0  0  0  0  0  0  0  0  0  0  0
  125.9960  125.2560   59.2070 C   0  0  0  0  0  0  0  0  0  0  0  0
  124.7420  124.7880   58.8230 C   0  0  0  0  0  0  0  0  0  0  0  0
  123.8910  124.2340   59.7760 C   0  0  0  0  0  0  0  0  0  0  0  0
  124.2820  124.1410   61.1110 C   0  0  0  0  0  0  0  0  0  0  0  0
  125.5370  124.6070   61.4950 C   0  0  0  0  0  0  0  0  0  0  0  0
  126.0040  129.6220   64.5610 C   0  0  0  0  0  0  0  0  0  0  0  0
  124.9170  130.1180   63.7500 C   0  0  0  0  0  0  0  0  0  0  0  0
  124.8500  130.3150   62.2710 C   0  0  0  0  0  0  0  0  0  0  0  0
  125.7360  129.6340   61.4300 C   0  0  0  0  0  0  0  0  0  0  0  0
  125.6820  129.8320   60.0520 C   0  0  0  0  0  0  0  0  0  0  0  0
  124.7400  130.7080   59.5110 C   0  0  0  0  0  0  0  0  0  0  0  0
  124.6940  130.9370   58.0110 C   0  0  0  0  0  0  0  0  0  0  0  0
  123.8560  131.3900   60.3470 C   0  0  0  0  0  0  0  0  0  0  0  0
  123.9090  131.1900   61.7230 C   0  0  0  0  0  0  0  0  0  0  0  0
  123.8890  130.4390   64.5030 N   0  0  0  0  0  0  0  0  0  0  0  0
  124.2380  130.2430   65.7840 N   0  0  0  0  0  0  0  0  0  0  0  0
  125.5200  129.7570   65.8840 C   0  0  0  0  0  0  0  0  0  0  0  0
  126.1780  129.4580   67.0030 N   0  0  0  0  0  0  0  0  0  0  0  0
  128.5800  129.6300   68.9820 C   0  0  0  0  0  0  0  0  0  0  0  0
  129.2730  129.3230   70.1500 C   0  0  0  0  0  0  0  0  0  0  0  0
  1  2  1  0
  2  3  1  0
  3  4  1  0
  4  5  2  0
  5  6  1  0
  6  7  2  0
  7  8  1  0
  8  9  2  0
  9 10  1  0
 10 11  1  0
 11 12  2  0
 11 13  1  0
 13 14  1  0
 14 15  1  0
 15 16  1  0
 16 17  2  0
 17 18  1  0
 18 19  2  0
 19 20  1  0
 20 21  2  0
 10 22  2  0
 22 23  1  0
 23 24  1  0
 24 25  2  0
 25 26  1  0
 26 27  2  0
 27 28  1  0
 27 29  1  0
 29 30  2  0
 23 31  2  0
 31 32  1  0
 32 33  1  0
 33 34  2  0
  7 35  1  0
 35 36  2  0
 36  4  1  0
 34  8  1  0
 21 16  1  0
 33 22  1  0
 30 24  1  0
M  END
>  <Binding energies>  (57) 
[-9.27]

>  <Ligand effiencies>  (57) 
[-0.2439473684210526]

>  <Interactions>  (57) 
["V-B:PRO:540:CB:9856, H-B:GLU:543:OE2:9881, V-B:LEU:363:CA:8156, H-B:ARG:545:NH2:9899, V-A:GLU:543:CD:4908, V-A:GLU:543:CG:4907, V-A:GLU:543:CB:4906, V-B:HIS:456:CE1:9041, V-A:HIS:456:CE1:4069, V-B:TYR:484:CE1:9316, V-B:GLU:543:CD:9879, V-B:ASN:362:CB:8147, V-A:TYR:539:CE2:4876, V-A:ARG:545:CG:4922, H-B:GLU:543:OE1:9880, V-B:GLY:454:CA:9020, V-B:ASP:366:CB:8183, V-B:ILE:369:CG2:8208, V-B:ARG:545:CZ:9897, V-B:ASP:366:CG:8184, H-B:TYR:484:OH:9319, V-B:ASP:366:CA:8181, H-B:GLY:454:N:9021, V-B:ILE:369:CD1:8210, V-B:ASN:362:C:8143, V-A:HIS:456:CG:4065, V-A:ARG:545:CB:4921, V-A:ARG:545:CA:4919, V-A:GLY:544:C:4912"]

$$$$
