1a_Grossjean_2025
     RDKit          3D

 26 27  0  0  0  0  0  0  0  0999 V2000
  128.1400  132.0270   73.0610 C   0  0  0  0  0  0  0  0  0  0  0  0
  128.5270  130.7720   72.2730 C   0  0  0  0  0  0  0  0  0  0  0  0
  129.7930  130.3030   72.7190 O   0  0  0  0  0  0  0  0  0  0  0  0
  130.0860  128.9760   72.7270 C   0  0  0  0  0  0  0  0  0  0  0  0
  130.2560  128.3240   73.7620 O   0  0  0  0  0  0  0  0  0  0  0  0
  130.2000  128.3850   71.3520 C   0  0  0  0  0  0  0  0  0  0  0  0
  129.1340  127.6320   70.8410 C   0  0  0  0  0  0  0  0  0  0  0  0
  129.2110  127.0680   69.5710 C   0  0  0  0  0  0  0  0  0  0  0  0
  130.3520  127.2410   68.7870 C   0  0  0  0  0  0  0  0  0  0  0  0
  130.3220  126.6240   67.5210 N   0  0  0  0  0  0  0  0  0  0  0  0
  129.9230  125.3840   67.1690 C   0  0  0  0  0  0  0  0  0  0  0  0
  129.4890  124.5270   67.9390 O   0  0  0  0  0  0  0  0  0  0  0  0
  130.0370  125.0560   65.6790 C   0  0  0  0  0  0  0  0  0  0  0  0
  130.2580  123.2770   65.3830 S   0  0  0  0  0  0  0  0  0  0  0  0
  130.7960  123.0780   63.6990 C   0  0  0  0  0  0  0  0  0  0  0  0
  129.9040  122.4230   62.9130 N   0  0  0  0  0  0  0  0  0  0  0  0
  130.2150  122.2120   61.6120 C   0  0  0  0  0  0  0  0  0  0  0  0
  129.1760  121.4620   60.7990 C   0  0  0  0  0  0  0  0  0  0  0  0
  131.4090  122.6500   61.0440 C   0  0  0  0  0  0  0  0  0  0  0  0
  132.3260  123.3450   61.8400 C   0  0  0  0  0  0  0  0  0  0  0  0
  133.6220  123.8290   61.1910 C   0  0  0  0  0  0  0  0  0  0  0  0
  132.0220  123.5800   63.2010 C   0  0  0  0  0  0  0  0  0  0  0  0
  132.9450  124.3480   64.0410 C   0  0  0  0  0  0  0  0  0  0  0  0
  133.6750  124.9540   64.7030 N   0  0  0  0  0  0  0  0  0  0  0  0
  131.4210  128.0010   69.2870 C   0  0  0  0  0  0  0  0  0  0  0  0
  131.3430  128.5640   70.5570 C   0  0  0  0  0  0  0  0  0  0  0  0
  1  2  1  0
  2  3  1  0
  3  4  1  0
  4  5  2  0
  4  6  1  0
  6  7  2  0
  7  8  1  0
  8  9  2  0
  9 10  1  0
 10 11  1  0
 11 12  2  0
 11 13  1  0
 13 14  1  0
 14 15  1  0
 15 16  2  0
 16 17  1  0
 17 18  1  0
 17 19  2  0
 19 20  1  0
 20 21  1  0
 20 22  2  0
 22 23  1  0
 23 24  3  0
  9 25  1  0
 25 26  2  0
 26  6  1  0
 22 15  1  0
M  END
>  <Binding energies>  (1) 
[-7.4]

>  <Ligand effiencies>  (1) 
[-0.2740740740740741]

>  <Interactions>  (1) 
["V-B:TYR:539:CE2:9847, V-B:TYR:539:CD2:9845, V-B:ALA:541:CB:9863, H-A:GLY:454:N:4049, V-A:ILE:369:CD1:3238, V-A:ILE:369:CG2:3236, H-A:TYR:484:OH:4347, H-A:GLU:543:OE2:4910, V-A:GLU:543:CD:4908, V-A:GLU:543:CB:4906, V-B:HIS:456:CE1:9041, V-B:GLU:543:CB:9877, V-A:HIS:456:CE1:4069, V-B:HIS:456:CG:9037, V-B:GLU:543:CG:9878, V-B:HIS:456:CD2:9039, V-B:TYR:484:CD1:9314, V-B:GLU:543:CD:9879, V-A:ARG:545:CG:4922, V-A:GLY:454:CA:4048, V-A:ILE:369:CB:3235, H-A:LYS:547:NZ:4951, V-B:TYR:484:CG:9313, V-A:GLU:543:C:4902, V-A:ARG:545:CA:4919, V-A:GLY:544:C:4912"]

$$$$
1aa_Ghoteimi_2023
     RDKit          3D

 40 43  0  0  0  0  0  0  0  0999 V2000
  126.7930  130.9950   56.8220 C   0  0  0  0  0  0  0  0  0  0  0  0
  125.3810  130.6330   56.3510 C   0  0  0  0  0  0  0  0  0  0  0  0
  124.5740  130.3110   57.4770 O   0  0  0  0  0  0  0  0  0  0  0  0
  124.3250  131.2290   58.4460 C   0  0  0  0  0  0  0  0  0  0  0  0
  123.7910  132.3210   58.2270 O   0  0  0  0  0  0  0  0  0  0  0  0
  124.7650  130.7860   59.8120 C   0  0  0  0  0  0  0  0  0  0  0  0
  125.8360  129.8980   59.9950 C   0  0  0  0  0  0  0  0  0  0  0  0
  126.2220  129.5050   61.2750 C   0  0  0  0  0  0  0  0  0  0  0  0
  125.5410  129.9980   62.3980 C   0  0  0  0  0  0  0  0  0  0  0  0
  125.8400  129.6720   63.7330 N   0  0  0  0  0  0  0  0  0  0  0  0
  125.0600  129.7000   64.8390 C   0  0  0  0  0  0  0  0  0  0  0  0
  123.8760  130.0350   64.8550 O   0  0  0  0  0  0  0  0  0  0  0  0
  125.7070  129.2800   66.1680 C   0  0  0  0  0  0  0  0  0  0  0  0
  127.1290  129.4510   66.1100 O   0  0  0  0  0  0  0  0  0  0  0  0
  127.9760  128.4300   66.5180 C   0  0  0  0  0  0  0  0  0  0  0  0
  128.0250  128.1310   67.8460 N   0  0  0  0  0  0  0  0  0  0  0  0
  128.8530  127.1480   68.2870 C   0  0  0  0  0  0  0  0  0  0  0  0
  128.8480  126.8780   69.7640 C   0  0  0  0  0  0  0  0  0  0  0  0
  128.2000  125.7500   70.2890 C   0  0  0  0  0  0  0  0  0  0  0  0
  128.1920  125.4990   71.6590 C   0  0  0  0  0  0  0  0  0  0  0  0
  128.8310  126.3640   72.5440 C   0  0  0  0  0  0  0  0  0  0  0  0
  128.7690  126.0350   73.8850 O   0  0  0  0  0  0  0  0  0  0  0  0
  129.8420  125.3040   74.4700 C   0  0  0  0  0  0  0  0  0  0  0  0
  129.4860  127.4930   72.0340 C   0  0  0  0  0  0  0  0  0  0  0  0
  129.4940  127.7410   70.6640 C   0  0  0  0  0  0  0  0  0  0  0  0
  129.6430  126.4230   67.3860 C   0  0  0  0  0  0  0  0  0  0  0  0
  129.6030  126.7030   66.0130 C   0  0  0  0  0  0  0  0  0  0  0  0
  130.4610  125.8880   65.1040 C   0  0  0  0  0  0  0  0  0  0  0  0
  131.5970  126.4520   64.5160 C   0  0  0  0  0  0  0  0  0  0  0  0
  132.4080  125.6960   63.6740 C   0  0  0  0  0  0  0  0  0  0  0  0
  132.1050  124.3610   63.4080 C   0  0  0  0  0  0  0  0  0  0  0  0
  132.9650  123.6890   62.5610 O   0  0  0  0  0  0  0  0  0  0  0  0
  133.6220  124.4080   61.5240 C   0  0  0  0  0  0  0  0  0  0  0  0
  130.9700  123.7880   64.0020 C   0  0  0  0  0  0  0  0  0  0  0  0
  130.1600  124.5460   64.8430 C   0  0  0  0  0  0  0  0  0  0  0  0
  128.7520  127.7420   65.5700 C   0  0  0  0  0  0  0  0  0  0  0  0
  128.6760  128.1360   64.1620 C   0  0  0  0  0  0  0  0  0  0  0  0
  128.6140  128.4480   63.0490 N   0  0  0  0  0  0  0  0  0  0  0  0
  124.4750  130.8800   62.2180 C   0  0  0  0  0  0  0  0  0  0  0  0
  124.0900  131.2710   60.9400 C   0  0  0  0  0  0  0  0  0  0  0  0
  1  2  1  0
  2  3  1  0
  3  4  1  0
  4  5  2  0
  4  6  1  0
  6  7  2  0
  7  8  1  0
  8  9  2  0
  9 10  1  0
 10 11  1  0
 11 12  2  0
 11 13  1  0
 13 14  1  0
 14 15  1  0
 15 16  2  0
 16 17  1  0
 17 18  1  0
 18 19  2  0
 19 20  1  0
 20 21  2  0
 21 22  1  0
 22 23  1  0
 21 24  1  0
 24 25  2  0
 17 26  2  0
 26 27  1  0
 27 28  1  0
 28 29  2  0
 29 30  1  0
 30 31  2  0
 31 32  1  0
 32 33  1  0
 31 34  1  0
 34 35  2  0
 27 36  2  0
 36 37  1  0
 37 38  3  0
  9 39  1  0
 39 40  2  0
 40  6  1  0
 36 15  1  0
 25 18  1  0
 35 28  1  0
M  END
>  <Binding energies>  (2) 
[-9.58]

>  <Ligand effiencies>  (2) 
[-0.23365853658536587]

>  <Interactions>  (2) 
["H-B:GLU:543:OE2:9881, H-B:TYR:531:OH:9766, V-A:ASP:366:CG:3212, V-A:ILE:369:CD1:3238, V-A:ILE:369:CG2:3236, V-A:ARG:545:CZ:4926, H-B:ARG:545:NH2:9899, V-B:TYR:531:CZ:9765, V-A:GLU:543:CD:4908, V-A:GLU:543:CG:4907, V-B:HIS:456:CE1:9041, V-B:GLU:543:CB:9877, V-A:HIS:456:CE1:4069, V-B:GLU:543:CG:9878, V-B:HIS:456:CD2:9039, V-B:GLU:543:CD:9879, V-A:HIS:456:CD2:4067, V-A:MET:535:CE:4835, V-A:TYR:539:CZ:4877, V-A:TYR:539:CE2:4876, V-B:ASP:366:CB:8183, V-B:ARG:545:CZ:9897, V-B:ASP:366:CG:8184, V-B:ASP:366:CA:8181, H-B:GLY:454:N:9021, H-B:ARG:545:NE:9895, V-B:ILE:369:CD1:8210, H-B:LYS:547:NZ:9922, V-B:LYS:547:CE:9921, V-B:GLU:543:C:9873, H-A:TYR:539:OH:4878, H-B:ARG:545:NH1:9898, V-B:TYR:531:CE1:9763"]

$$$$
1b_Grossjean_2025
     RDKit          3D

 25 26  0  0  0  0  0  0  0  0999 V2000
  124.3900  123.9050   57.9380 C   0  0  0  0  0  0  0  0  0  0  0  0
  125.2290  123.6980   56.8100 O   0  0  0  0  0  0  0  0  0  0  0  0
  126.2320  122.7840   56.8440 C   0  0  0  0  0  0  0  0  0  0  0  0
  126.1400  121.6530   56.3550 O   0  0  0  0  0  0  0  0  0  0  0  0
  127.4700  123.2860   57.5300 C   0  0  0  0  0  0  0  0  0  0  0  0
  128.1810  124.4000   57.0570 C   0  0  0  0  0  0  0  0  0  0  0  0
  129.3250  124.8390   57.7160 C   0  0  0  0  0  0  0  0  0  0  0  0
  129.7830  124.1800   58.8570 C   0  0  0  0  0  0  0  0  0  0  0  0
  130.9500  124.7100   59.4390 N   0  0  0  0  0  0  0  0  0  0  0  0
  132.2450  124.3740   59.2550 C   0  0  0  0  0  0  0  0  0  0  0  0
  132.6550  123.4980   58.4950 O   0  0  0  0  0  0  0  0  0  0  0  0
  133.2550  125.1840   60.0690 C   0  0  0  0  0  0  0  0  0  0  0  0
  133.9780  124.2140   61.4260 S   0  0  0  0  0  0  0  0  0  0  0  0
  132.6680  123.2420   62.1390 C   0  0  0  0  0  0  0  0  0  0  0  0
  132.2170  122.2540   61.3270 N   0  0  0  0  0  0  0  0  0  0  0  0
  131.2210  121.4510   61.7710 C   0  0  0  0  0  0  0  0  0  0  0  0
  130.7780  120.3590   60.8150 C   0  0  0  0  0  0  0  0  0  0  0  0
  130.6330  121.6060   63.0250 C   0  0  0  0  0  0  0  0  0  0  0  0
  131.0770  122.6360   63.8600 C   0  0  0  0  0  0  0  0  0  0  0  0
  130.4060  122.7960   65.2240 C   0  0  0  0  0  0  0  0  0  0  0  0
  132.1150  123.4860   63.4180 C   0  0  0  0  0  0  0  0  0  0  0  0
  132.5660  124.5990   64.2580 C   0  0  0  0  0  0  0  0  0  0  0  0
  132.9200  125.4760   64.9240 N   0  0  0  0  0  0  0  0  0  0  0  0
  129.0770  123.0660   59.3360 C   0  0  0  0  0  0  0  0  0  0  0  0
  127.9330  122.6280   58.6770 C   0  0  0  0  0  0  0  0  0  0  0  0
  1  2  1  0
  2  3  1  0
  3  4  2  0
  3  5  1  0
  5  6  2  0
  6  7  1  0
  7  8  2  0
  8  9  1  0
  9 10  1  0
 10 11  2  0
 10 12  1  0
 12 13  1  0
 13 14  1  0
 14 15  2  0
 15 16  1  0
 16 17  1  0
 16 18  2  0
 18 19  1  0
 19 20  1  0
 19 21  2  0
 21 22  1  0
 22 23  3  0
  8 24  1  0
 24 25  2  0
 25  5  1  0
 21 14  1  0
M  END
>  <Binding energies>  (3) 
[-6.86]

>  <Ligand effiencies>  (3) 
[-0.26384615384615384]

>  <Interactions>  (3) 
["V-B:TYR:539:CE2:9847, V-B:PRO:540:CA:9854, V-B:TYR:539:CD2:9845, V-B:LEU:363:CD1:8160, V-B:PRO:540:CD:9858, V-B:PRO:540:CB:9856, V-B:ALA:541:CB:9863, V-B:TYR:539:C:9838, V-A:LEU:475:CD2:4258, V-B:PRO:540:N:9855, V-B:TYR:539:CE1:9846, V-B:TYR:539:CZ:9848, H-A:ARG:545:NH2:4928, H-A:ARG:545:NE:4924, V-A:ASP:366:CG:3212, V-A:ASP:366:CB:3211, V-A:ASP:366:CA:3209, V-A:ILE:369:CG2:3236, H-B:TYR:539:OH:9849, H-A:TYR:484:OH:4347, V-B:LEU:363:CA:8156, V-A:TYR:484:CZ:4346, V-A:TYR:484:CE1:4344, H-B:TYR:539:N:9841"]

$$$$
1c_Grossjean_2025
     RDKit          3D

 23 24  0  0  0  0  0  0  0  0999 V2000
  129.8540  130.4010   73.3420 C   0  0  0  0  0  0  0  0  0  0  0  0
  130.6200  129.2350   73.0590 O   0  0  0  0  0  0  0  0  0  0  0  0
  130.5570  128.6780   71.7960 C   0  0  0  0  0  0  0  0  0  0  0  0
  131.7170  128.7550   71.0240 C   0  0  0  0  0  0  0  0  0  0  0  0
  131.7530  128.2220   69.7390 C   0  0  0  0  0  0  0  0  0  0  0  0
  130.6170  127.5940   69.2080 C   0  0  0  0  0  0  0  0  0  0  0  0
  130.5410  127.0320   67.9190 N   0  0  0  0  0  0  0  0  0  0  0  0
  129.9410  125.8920   67.5150 C   0  0  0  0  0  0  0  0  0  0  0  0
  129.3110  125.1210   68.2380 O   0  0  0  0  0  0  0  0  0  0  0  0
  130.0730  125.5750   66.0230 C   0  0  0  0  0  0  0  0  0  0  0  0
  129.9850  123.7890   65.7010 S   0  0  0  0  0  0  0  0  0  0  0  0
  130.6010  123.4830   64.0580 C   0  0  0  0  0  0  0  0  0  0  0  0
  129.7210  122.8200   63.2660 N   0  0  0  0  0  0  0  0  0  0  0  0
  130.0790  122.5310   61.9930 C   0  0  0  0  0  0  0  0  0  0  0  0
  129.0390  121.7980   61.1660 C   0  0  0  0  0  0  0  0  0  0  0  0
  131.3200  122.8760   61.4650 C   0  0  0  0  0  0  0  0  0  0  0  0
  132.2450  123.5370   62.2790 C   0  0  0  0  0  0  0  0  0  0  0  0
  133.6060  123.8900   61.6830 C   0  0  0  0  0  0  0  0  0  0  0  0
  131.8940  123.8490   63.6130 C   0  0  0  0  0  0  0  0  0  0  0  0
  132.8690  124.4920   64.4980 C   0  0  0  0  0  0  0  0  0  0  0  0
  133.6390  125.0000   65.1950 N   0  0  0  0  0  0  0  0  0  0  0  0
  129.4510  127.5250   69.9730 C   0  0  0  0  0  0  0  0  0  0  0  0
  129.4190  128.0590   71.2580 C   0  0  0  0  0  0  0  0  0  0  0  0
  1  2  1  0
  2  3  1  0
  3  4  2  0
  4  5  1  0
  5  6  2  0
  6  7  1  0
  7  8  1  0
  8  9  2  0
  8 10  1  0
 10 11  1  0
 11 12  1  0
 12 13  2  0
 13 14  1  0
 14 15  1  0
 14 16  2  0
 16 17  1  0
 17 18  1  0
 17 19  2  0
 19 20  1  0
 20 21  3  0
  6 22  1  0
 22 23  2  0
 23  3  1  0
 19 12  1  0
M  END
>  <Binding energies>  (4) 
[-6.88]

>  <Ligand effiencies>  (4) 
[-0.2866666666666667]

>  <Interactions>  (4) 
["V-B:ALA:541:CB:9863, V-B:ALA:541:CA:9861, H-A:GLY:454:N:4049, H-A:ARG:545:NE:4924, V-A:ILE:369:CD1:3238, V-A:ILE:369:CG2:3236, H-A:TYR:484:OH:4347, H-A:GLU:543:OE2:4910, V-A:GLU:543:CD:4908, V-A:GLU:543:CB:4906, V-B:HIS:456:CE1:9041, V-A:HIS:456:CE1:4069, V-B:GLU:543:CG:9878, V-B:GLU:543:CD:9879, H-A:GLU:543:OE1:4909, V-A:ARG:545:CG:4922, H-A:LYS:547:NZ:4951, V-A:LYS:547:CE:4950, V-A:GLU:543:C:4902, V-A:ARG:545:CA:4919, V-A:GLY:544:C:4912"]

$$$$
1d_Grossjean_2025
     RDKit          3D

 21 22  0  0  0  0  0  0  0  0999 V2000
  132.7660  125.0170   58.1160 C   0  0  0  0  0  0  0  0  0  0  0  0
  132.7940  124.3960   59.4990 C   0  0  0  0  0  0  0  0  0  0  0  0
  133.5080  124.9770   60.5450 C   0  0  0  0  0  0  0  0  0  0  0  0
  133.4900  124.3660   61.8030 C   0  0  0  0  0  0  0  0  0  0  0  0
  134.2670  125.0300   62.9380 C   0  0  0  0  0  0  0  0  0  0  0  0
  132.7560  123.1710   61.9800 C   0  0  0  0  0  0  0  0  0  0  0  0
  132.6830  122.5390   63.3000 C   0  0  0  0  0  0  0  0  0  0  0  0
  132.6270  122.0430   64.3440 N   0  0  0  0  0  0  0  0  0  0  0  0
  132.0810  122.6380   60.8570 C   0  0  0  0  0  0  0  0  0  0  0  0
  131.1140  121.1460   60.8980 S   0  0  0  0  0  0  0  0  0  0  0  0
  129.5240  121.5510   61.6840 C   0  0  0  0  0  0  0  0  0  0  0  0
  128.5620  122.2400   60.7150 C   0  0  0  0  0  0  0  0  0  0  0  0
  127.3980  122.4410   61.0650 O   0  0  0  0  0  0  0  0  0  0  0  0
  129.0960  122.6010   59.5280 N   0  0  0  0  0  0  0  0  0  0  0  0
  128.4940  123.2270   58.4210 C   0  0  0  0  0  0  0  0  0  0  0  0
  127.2950  122.6600   57.9820 C   0  0  0  0  0  0  0  0  0  0  0  0
  126.6140  123.2050   56.8970 C   0  0  0  0  0  0  0  0  0  0  0  0
  127.1290  124.3270   56.2530 C   0  0  0  0  0  0  0  0  0  0  0  0
  128.3190  124.9090   56.6860 C   0  0  0  0  0  0  0  0  0  0  0  0
  129.0020  124.3640   57.7700 C   0  0  0  0  0  0  0  0  0  0  0  0
  132.0880  123.2510   59.6450 N   0  0  0  0  0  0  0  0  0  0  0  0
  1  2  1  0
  2  3  2  0
  3  4  1  0
  4  5  1  0
  4  6  2  0
  6  7  1  0
  7  8  3  0
  6  9  1  0
  9 10  1  0
 10 11  1  0
 11 12  1  0
 12 13  2  0
 12 14  1  0
 14 15  1  0
 15 16  2  0
 16 17  1  0
 17 18  2  0
 18 19  1  0
 19 20  2  0
  9 21  2  0
 21  2  1  0
 20 15  1  0
M  END
>  <Binding energies>  (5) 
[-6.22]

>  <Ligand effiencies>  (5) 
[-0.2827272727272727]

>  <Interactions>  (5) 
["V-B:TYR:539:CE2:9847, V-B:PRO:540:CA:9854, V-B:TYR:539:CD2:9845, V-B:ALA:541:CB:9863, V-B:TYR:539:C:9838, V-A:LEU:475:CD2:4258, V-B:PRO:540:N:9855, V-B:ALA:541:CA:9861, H-B:ALA:541:N:9862, V-B:TYR:539:CZ:9848, H-A:GLY:454:N:4049, V-A:ASP:366:CG:3212, V-A:ILE:369:CD1:3238, V-A:ASP:366:CB:3211, V-A:ASP:366:CA:3209, V-A:ILE:369:CG2:3236, H-A:TYR:484:OH:4347, V-A:ARG:545:CZ:4926, V-B:MET:535:CE:9806, V-A:ASP:366:C:3207, V-B:PRO:540:C:9852, V-A:GLY:454:CA:4048, V-A:GLY:453:C:4041, V-A:GLY:453:CA:4043"]

$$$$
1e_Grossjean_2025
     RDKit          3D

 22 23  0  0  0  0  0  0  0  0999 V2000
  124.0130  124.2270   57.8400 C   0  0  0  0  0  0  0  0  0  0  0  0
  125.4140  123.6850   58.0520 C   0  0  0  0  0  0  0  0  0  0  0  0
  125.9850  122.7690   57.1640 C   0  0  0  0  0  0  0  0  0  0  0  0
  127.2770  122.3120   57.4240 C   0  0  0  0  0  0  0  0  0  0  0  0
  127.9600  122.7730   58.5520 C   0  0  0  0  0  0  0  0  0  0  0  0
  127.3300  123.6950   59.3970 C   0  0  0  0  0  0  0  0  0  0  0  0
  128.0620  124.1140   60.5230 N   0  0  0  0  0  0  0  0  0  0  0  0
  127.8550  123.8070   61.8220 C   0  0  0  0  0  0  0  0  0  0  0  0
  126.9470  123.0890   62.2430 O   0  0  0  0  0  0  0  0  0  0  0  0
  128.8270  124.4420   62.8190 C   0  0  0  0  0  0  0  0  0  0  0  0
  129.5630  123.2070   63.9320 S   0  0  0  0  0  0  0  0  0  0  0  0
  130.7370  122.2350   63.0090 C   0  0  0  0  0  0  0  0  0  0  0  0
  130.1610  121.2570   62.2640 N   0  0  0  0  0  0  0  0  0  0  0  0
  130.9530  120.4510   61.5200 C   0  0  0  0  0  0  0  0  0  0  0  0
  130.2380  119.3880   60.7090 C   0  0  0  0  0  0  0  0  0  0  0  0
  132.3410  120.5750   61.4970 C   0  0  0  0  0  0  0  0  0  0  0  0
  132.9480  121.5620   62.2800 C   0  0  0  0  0  0  0  0  0  0  0  0
  134.4720  121.6650   62.2510 C   0  0  0  0  0  0  0  0  0  0  0  0
  132.1400  122.4140   63.0670 C   0  0  0  0  0  0  0  0  0  0  0  0
  132.7630  123.4140   63.9370 C   0  0  0  0  0  0  0  0  0  0  0  0
  133.2580  124.2040   64.6240 N   0  0  0  0  0  0  0  0  0  0  0  0
  126.0640  124.1430   59.1510 N   0  0  0  0  0  0  0  0  0  0  0  0
  1  2  1  0
  2  3  2  0
  3  4  1  0
  4  5  2  0
  5  6  1  0
  6  7  1  0
  7  8  1  0
  8  9  2  0
  8 10  1  0
 10 11  1  0
 11 12  1  0
 12 13  2  0
 13 14  1  0
 14 15  1  0
 14 16  2  0
 16 17  1  0
 17 18  1  0
 17 19  2  0
 19 20  1  0
 20 21  3  0
  6 22  2  0
 22  2  1  0
 19 12  1  0
M  END
>  <Binding energies>  (6) 
[-6.75]

>  <Ligand effiencies>  (6) 
[-0.29347826086956524]

>  <Interactions>  (6) 
["V-A:PRO:482:CG:4326, V-B:TYR:539:CE2:9847, V-B:PRO:540:CA:9854, V-B:TYR:539:CD2:9845, V-B:LEU:363:CD1:8160, V-B:PRO:540:CD:9858, V-B:TYR:539:CG:9843, V-B:PRO:540:CB:9856, V-B:ALA:541:CB:9863, V-B:TYR:539:C:9838, V-A:LEU:475:CD2:4258, V-B:PRO:540:N:9855, V-B:TYR:539:CD1:9844, V-B:TYR:539:CE1:9846, H-B:ALA:541:N:9862, V-B:TYR:539:CA:9840, V-A:PRO:482:CB:4325, V-B:TYR:539:CZ:9848, H-A:GLY:454:N:4049, V-A:ILE:369:CD1:3238, V-A:ILE:369:CG2:3236, H-A:TYR:484:OH:4347, V-B:LEU:363:CA:8156, V-B:TYR:531:CE2:9764, V-B:GLU:543:CG:9878, V-B:GLU:543:CD:9879, V-A:GLY:454:CA:4048, V-A:TRP:381:CH2:3371, V-B:LEU:363:CB:8158, V-A:TRP:381:CZ2:3369, V-A:ILE:369:CB:3235, V-A:ILE:369:CG1:3237"]

$$$$
1f_Grossjean_2025
     RDKit          3D

 21 22  0  0  0  0  0  0  0  0999 V2000
  132.5970  131.6860   62.4540 C   0  0  0  0  0  0  0  0  0  0  0  0
  131.8880  131.9690   61.1430 C   0  0  0  0  0  0  0  0  0  0  0  0
  132.5100  131.7510   59.9160 C   0  0  0  0  0  0  0  0  0  0  0  0
  131.8110  132.0430   58.7400 C   0  0  0  0  0  0  0  0  0  0  0  0
  132.5200  131.8130   57.4070 C   0  0  0  0  0  0  0  0  0  0  0  0
  130.4910  132.5420   58.8250 C   0  0  0  0  0  0  0  0  0  0  0  0
  129.7640  132.9060   57.6060 C   0  0  0  0  0  0  0  0  0  0  0  0
  129.1910  133.1930   56.6420 N   0  0  0  0  0  0  0  0  0  0  0  0
  129.9290  132.7060   60.1130 C   0  0  0  0  0  0  0  0  0  0  0  0
  128.2840  133.3210   60.4160 S   0  0  0  0  0  0  0  0  0  0  0  0
  127.1370  131.9020   60.4580 C   0  0  0  0  0  0  0  0  0  0  0  0
  127.1400  131.1070   61.7720 C   0  0  0  0  0  0  0  0  0  0  0  0
  128.0900  130.3760   62.0580 O   0  0  0  0  0  0  0  0  0  0  0  0
  126.0330  131.2670   62.5280 N   0  0  0  0  0  0  0  0  0  0  0  0
  125.7070  130.7040   63.7770 C   0  0  0  0  0  0  0  0  0  0  0  0
  126.6170  130.4360   64.8170 C   0  0  0  0  0  0  0  0  0  0  0  0
  126.1550  129.8760   66.0110 C   0  0  0  0  0  0  0  0  0  0  0  0
  124.7940  129.6010   66.1380 C   0  0  0  0  0  0  0  0  0  0  0  0
  123.8960  129.8540   65.1530 N   0  0  0  0  0  0  0  0  0  0  0  0
  124.3600  130.3980   63.9980 C   0  0  0  0  0  0  0  0  0  0  0  0
  130.6240  132.4430   61.2480 N   0  0  0  0  0  0  0  0  0  0  0  0
  1  2  1  0
  2  3  2  0
  3  4  1  0
  4  5  1  0
  4  6  2  0
  6  7  1  0
  7  8  3  0
  6  9  1  0
  9 10  1  0
 10 11  1  0
 11 12  1  0
 12 13  2  0
 12 14  1  0
 14 15  1  0
 15 16  2  0
 16 17  1  0
 17 18  2  0
 18 19  1  0
 19 20  2  0
  9 21  2  0
 21  2  1  0
 20 15  1  0
M  END
>  <Binding energies>  (7) 
[-6.64]

>  <Ligand effiencies>  (7) 
[-0.3018181818181818]

>  <Interactions>  (7) 
["H-B:ARG:545:NH2:9899, V-A:GLU:543:CD:4908, V-A:PRO:540:N:4884, V-A:LEU:363:CD1:3188, V-A:TYR:539:C:4867, H-A:TYR:539:N:4870, V-A:PRO:540:CA:4883, V-A:ASN:362:CB:3175, V-A:PRO:540:CB:4885, V-A:PRO:540:C:4881, H-A:ALA:541:N:4891, V-B:ARG:545:CD:9894, V-B:ARG:545:CZ:9897, H-B:GLY:454:N:9021, H-B:ARG:545:NE:9895, H-B:ARG:545:NH1:9898"]

$$$$
1g_Grossjean_2025
     RDKit          3D

 22 23  0  0  0  0  0  0  0  0999 V2000
  125.0380  123.5130   62.7900 C   0  0  0  0  0  0  0  0  0  0  0  0
  125.4980  123.5150   61.3440 C   0  0  0  0  0  0  0  0  0  0  0  0
  124.6530  123.9110   60.3090 C   0  0  0  0  0  0  0  0  0  0  0  0
  125.1270  123.8770   58.9940 C   0  0  0  0  0  0  0  0  0  0  0  0
  124.1770  124.3000   57.8740 C   0  0  0  0  0  0  0  0  0  0  0  0
  126.4520  123.4520   58.7470 C   0  0  0  0  0  0  0  0  0  0  0  0
  126.9540  123.3590   57.3740 C   0  0  0  0  0  0  0  0  0  0  0  0
  127.3470  123.2850   56.2880 N   0  0  0  0  0  0  0  0  0  0  0  0
  127.2480  123.0930   59.8610 C   0  0  0  0  0  0  0  0  0  0  0  0
  128.9360  122.5460   59.7340 S   0  0  0  0  0  0  0  0  0  0  0  0
  129.0960  121.0480   60.7510 C   0  0  0  0  0  0  0  0  0  0  0  0
  130.3620  121.0720   61.6090 C   0  0  0  0  0  0  0  0  0  0  0  0
  131.2890  120.2990   61.3620 O   0  0  0  0  0  0  0  0  0  0  0  0
  130.3810  121.9600   62.6170 N   0  0  0  0  0  0  0  0  0  0  0  0
  131.5070  122.1920   63.5220 C   0  0  0  0  0  0  0  0  0  0  0  0
  131.3060  123.3560   64.4890 C   0  0  0  0  0  0  0  0  0  0  0  0
  132.2870  124.3450   64.6050 C   0  0  0  0  0  0  0  0  0  0  0  0
  132.1030  125.4070   65.4860 C   0  0  0  0  0  0  0  0  0  0  0  0
  130.9370  125.4790   66.2460 C   0  0  0  0  0  0  0  0  0  0  0  0
  129.9540  124.4990   66.1310 C   0  0  0  0  0  0  0  0  0  0  0  0
  130.1370  123.4360   65.2510 C   0  0  0  0  0  0  0  0  0  0  0  0
  126.7720  123.1080   61.1320 N   0  0  0  0  0  0  0  0  0  0  0  0
  1  2  1  0
  2  3  2  0
  3  4  1  0
  4  5  1  0
  4  6  2  0
  6  7  1  0
  7  8  3  0
  6  9  1  0
  9 10  1  0
 10 11  1  0
 11 12  1  0
 12 13  2  0
 12 14  1  0
 14 15  1  0
 15 16  1  0
 16 17  2  0
 17 18  1  0
 18 19  2  0
 19 20  1  0
 20 21  2  0
  9 22  2  0
 22  2  1  0
 21 16  1  0
M  END
>  <Binding energies>  (8) 
[-7.23]

>  <Ligand effiencies>  (8) 
[-0.31434782608695655]

>  <Interactions>  (8) 
["V-B:TYR:539:CE2:9847, V-B:PRO:540:CA:9854, V-B:TYR:539:CD2:9845, V-B:LEU:363:CD1:8160, V-B:PRO:540:CB:9856, V-B:ALA:541:CB:9863, V-B:TYR:539:C:9838, V-A:LEU:475:CD2:4258, V-B:PRO:540:N:9855, V-B:ALA:541:CA:9861, H-B:ALA:541:N:9862, V-B:LEU:363:CA:8156, V-B:TYR:531:CE2:9764, V-B:GLU:543:CB:9877, V-A:TYR:484:CZ:4346, V-A:HIS:456:CE1:4069, V-B:GLU:543:CG:9878, V-B:GLU:543:CD:9879, V-A:TYR:484:CE1:4344, V-B:PRO:540:C:9852, V-B:ASN:362:CB:8147, V-B:ALA:541:C:9859, V-B:ASN:362:CG:8148"]

$$$$
1h_Grossjean_2025
     RDKit          3D

 28 29  0  0  0  0  0  0  0  0999 V2000
  128.8110  123.6380   72.7370 C   0  0  0  0  0  0  0  0  0  0  0  0
  128.0230  124.7020   72.2160 O   0  0  0  0  0  0  0  0  0  0  0  0
  128.6270  125.9090   71.9140 C   0  0  0  0  0  0  0  0  0  0  0  0
  128.7450  126.4220   70.6130 C   0  0  0  0  0  0  0  0  0  0  0  0
  129.3800  127.6430   70.3810 C   0  0  0  0  0  0  0  0  0  0  0  0
  129.4810  128.2000   68.9640 C   0  0  0  0  0  0  0  0  0  0  0  0
  130.2710  127.3710   68.0540 N   0  0  0  0  0  0  0  0  0  0  0  0
  129.8520  126.2260   67.4840 C   0  0  0  0  0  0  0  0  0  0  0  0
  128.7280  125.7540   67.6470 O   0  0  0  0  0  0  0  0  0  0  0  0
  130.8620  125.4990   66.5950 C   0  0  0  0  0  0  0  0  0  0  0  0
  130.2480  123.8730   66.0600 S   0  0  0  0  0  0  0  0  0  0  0  0
  130.7000  123.6470   64.3470 C   0  0  0  0  0  0  0  0  0  0  0  0
  129.7350  123.1240   63.5460 N   0  0  0  0  0  0  0  0  0  0  0  0
  130.0100  122.9310   62.2350 C   0  0  0  0  0  0  0  0  0  0  0  0
  128.8820  122.3490   61.4050 C   0  0  0  0  0  0  0  0  0  0  0  0
  131.2450  123.2440   61.6710 C   0  0  0  0  0  0  0  0  0  0  0  0
  132.2480  123.7810   62.4860 C   0  0  0  0  0  0  0  0  0  0  0  0
  133.5930  124.1190   61.8470 C   0  0  0  0  0  0  0  0  0  0  0  0
  131.9820  123.9910   63.8580 C   0  0  0  0  0  0  0  0  0  0  0  0
  133.0140  124.5500   64.7360 C   0  0  0  0  0  0  0  0  0  0  0  0
  133.8300  124.9900   65.4290 N   0  0  0  0  0  0  0  0  0  0  0  0
  129.8720  128.3790   71.4590 C   0  0  0  0  0  0  0  0  0  0  0  0
  129.7630  127.8930   72.7720 C   0  0  0  0  0  0  0  0  0  0  0  0
  130.2280  128.5670   73.8860 O   0  0  0  0  0  0  0  0  0  0  0  0
  129.4900  129.6730   74.3940 C   0  0  0  0  0  0  0  0  0  0  0  0
  129.1470  126.6510   72.9840 C   0  0  0  0  0  0  0  0  0  0  0  0
  129.0280  126.1650   74.2640 O   0  0  0  0  0  0  0  0  0  0  0  0
  130.2570  125.7480   74.8420 C   0  0  0  0  0  0  0  0  0  0  0  0
  1  2  1  0
  2  3  1  0
  3  4  2  0
  4  5  1  0
  5  6  1  0
  6  7  1  0
  7  8  1  0
  8  9  2  0
  8 10  1  0
 10 11  1  0
 11 12  1  0
 12 13  2  0
 13 14  1  0
 14 15  1  0
 14 16  2  0
 16 17  1  0
 17 18  1  0
 17 19  2  0
 19 20  1  0
 20 21  3  0
  5 22  2  0
 22 23  1  0
 23 24  1  0
 24 25  1  0
 23 26  2  0
 26 27  1  0
 27 28  1  0
 26  3  1  0
 19 12  1  0
M  END
>  <Binding energies>  (9) 
[-7.25]

>  <Ligand effiencies>  (9) 
[-0.25]

>  <Interactions>  (9) 
["V-B:ALA:541:CB:9863, H-A:GLY:454:N:4049, H-A:ARG:545:NE:4924, V-A:ILE:369:CD1:3238, V-A:ILE:369:CG2:3236, H-A:TYR:484:OH:4347, H-A:GLU:543:OE2:4910, V-A:GLU:543:CD:4908, V-A:GLU:543:CG:4907, V-A:GLU:543:CB:4906, V-B:HIS:456:CE1:9041, V-A:HIS:456:CE1:4069, V-A:HIS:456:CD2:4067, V-A:GLY:454:CA:4048, H-B:LYS:547:NZ:9922, V-B:LYS:547:CE:9921, H-A:LYS:547:NZ:4951, V-A:LYS:547:CE:4950"]

$$$$
1i_Grossjean_2025
     RDKit          3D

 20 21  0  0  0  0  0  0  0  0999 V2000
  128.7670  126.1880   67.7810 C   0  0  0  0  0  0  0  0  0  0  0  0
  129.1500  126.4540   69.2250 C   0  0  0  0  0  0  0  0  0  0  0  0
  129.9940  127.5050   69.5740 C   0  0  0  0  0  0  0  0  0  0  0  0
  130.3050  127.7070   70.9230 C   0  0  0  0  0  0  0  0  0  0  0  0
  131.2200  128.8770   71.2830 C   0  0  0  0  0  0  0  0  0  0  0  0
  129.7600  126.8380   71.8970 C   0  0  0  0  0  0  0  0  0  0  0  0
  130.0320  127.0630   73.3190 C   0  0  0  0  0  0  0  0  0  0  0  0
  130.2470  127.2430   74.4420 N   0  0  0  0  0  0  0  0  0  0  0  0
  128.9320  125.7830   71.4480 C   0  0  0  0  0  0  0  0  0  0  0  0
  128.1650  124.5980   72.5320 S   0  0  0  0  0  0  0  0  0  0  0  0
  129.4860  123.5830   73.2600 C   0  0  0  0  0  0  0  0  0  0  0  0
  129.3410  122.1030   72.8960 C   0  0  0  0  0  0  0  0  0  0  0  0
  130.3080  121.3520   73.0290 O   0  0  0  0  0  0  0  0  0  0  0  0
  128.1230  121.7310   72.4460 N   0  0  0  0  0  0  0  0  0  0  0  0
  127.7260  120.4630   72.0460 C   0  0  0  0  0  0  0  0  0  0  0  0
  126.9650  119.6150   72.8490 C   0  0  0  0  0  0  0  0  0  0  0  0
  126.7890  118.4750   72.1000 C   0  0  0  0  0  0  0  0  0  0  0  0
  127.4130  118.6270   70.9080 O   0  0  0  0  0  0  0  0  0  0  0  0
  128.0060  119.8910   70.8860 N   0  0  0  0  0  0  0  0  0  0  0  0
  128.6200  125.6070   70.1390 N   0  0  0  0  0  0  0  0  0  0  0  0
  1  2  1  0
  2  3  2  0
  3  4  1  0
  4  5  1  0
  4  6  2  0
  6  7  1  0
  7  8  3  0
  6  9  1  0
  9 10  1  0
 10 11  1  0
 11 12  1  0
 12 13  2  0
 12 14  1  0
 14 15  1  0
 15 16  1  0
 16 17  2  0
 17 18  1  0
 18 19  1  0
  9 20  2  0
 20  2  1  0
 19 15  2  0
M  END
>  <Binding energies>  (10) 
[-6.6]

>  <Ligand effiencies>  (10) 
[-0.3142857142857143]

>  <Interactions>  (10) 
["V-A:GLU:543:CB:4906, V-B:GLU:543:CB:9877, V-A:HIS:456:CE1:4069, V-B:GLU:543:CG:9878, V-B:GLU:543:CD:9879, V-A:HIS:456:CD2:4067, H-B:LYS:547:NZ:9922, H-B:GLY:544:O:9884, H-B:GLU:543:O:9874, V-B:GLU:543:C:9873, V-B:GLY:544:CA:9885, V-A:TYR:484:CB:4340, H-A:LYS:547:NZ:4951, V-A:GLU:543:C:4902, V-A:GLY:544:C:4912, V-A:TYR:484:CG:4341, V-A:TYR:484:CD1:4342, H-A:TYR:484:N:4339"]

$$$$
1k_Grossjean_2025
     RDKit          3D

 25 25  0  0  0  0  0  0  0  0999 V2000
  125.1380  123.4940   57.4640 C   0  0  0  0  0  0  0  0  0  0  0  0
  123.9030  123.4810   58.1610 O   0  0  0  0  0  0  0  0  0  0  0  0
  123.9020  124.2930   59.3270 C   0  0  0  0  0  0  0  0  0  0  0  0
  125.2590  124.1770   60.0330 C   0  0  0  0  0  0  0  0  0  0  0  0
  125.1570  123.2500   61.1060 O   0  0  0  0  0  0  0  0  0  0  0  0
  125.7500  123.7070   62.3150 C   0  0  0  0  0  0  0  0  0  0  0  0
  127.2770  123.6330   62.1920 C   0  0  0  0  0  0  0  0  0  0  0  0
  127.6450  122.4020   61.5830 O   0  0  0  0  0  0  0  0  0  0  0  0
  128.3700  122.5600   60.3700 C   0  0  0  0  0  0  0  0  0  0  0  0
  129.5030  121.5190   60.3070 C   0  0  0  0  0  0  0  0  0  0  0  0
  130.7880  122.0060   60.8090 N   0  0  0  0  0  0  0  0  0  0  0  0
  131.1750  121.9880   62.0960 C   0  0  0  0  0  0  0  0  0  0  0  0
  130.4700  121.5440   63.0040 O   0  0  0  0  0  0  0  0  0  0  0  0
  132.5690  122.5700   62.3780 C   0  0  0  0  0  0  0  0  0  0  0  0
  132.6790  124.3940   62.3790 S   0  0  0  0  0  0  0  0  0  0  0  0
  132.5870  124.9870   64.0620 C   0  0  0  0  0  0  0  0  0  0  0  0
  133.7540  124.9830   64.7570 N   0  0  0  0  0  0  0  0  0  0  0  0
  133.7520  125.4100   66.0400 C   0  0  0  0  0  0  0  0  0  0  0  0
  135.0910  125.3680   66.7510 C   0  0  0  0  0  0  0  0  0  0  0  0
  132.6000  125.8640   66.6800 C   0  0  0  0  0  0  0  0  0  0  0  0
  131.3930  125.8790   65.9740 C   0  0  0  0  0  0  0  0  0  0  0  0
  130.1430  126.3790   66.6930 C   0  0  0  0  0  0  0  0  0  0  0  0
  131.3730  125.4330   64.6330 C   0  0  0  0  0  0  0  0  0  0  0  0
  130.1210  125.4350   63.8700 C   0  0  0  0  0  0  0  0  0  0  0  0
  129.1330  125.4360   63.2680 N   0  0  0  0  0  0  0  0  0  0  0  0
  1  2  1  0
  2  3  1  0
  3  4  1  0
  4  5  1  0
  5  6  1  0
  6  7  1  0
  7  8  1  0
  8  9  1  0
  9 10  1  0
 10 11  1  0
 11 12  1  0
 12 13  2  0
 12 14  1  0
 14 15  1  0
 15 16  1  0
 16 17  2  0
 17 18  1  0
 18 19  1  0
 18 20  2  0
 20 21  1  0
 21 22  1  0
 21 23  2  0
 23 24  1  0
 24 25  3  0
 23 16  1  0
M  END
>  <Binding energies>  (11) 
[-5.47]

>  <Ligand effiencies>  (11) 
[-0.21038461538461536]

>  <Interactions>  (11) 
["V-B:TYR:539:CE2:9847, V-B:PRO:540:CA:9854, V-B:TYR:539:CD2:9845, V-B:LEU:363:CD1:8160, V-B:PRO:540:CB:9856, V-B:ALA:541:CB:9863, V-A:LEU:475:CD2:4258, H-B:ALA:541:N:9862, H-A:GLY:454:N:4049, H-A:TYR:484:OH:4347, V-A:ARG:545:CZ:4926, V-B:LEU:363:CA:8156, V-A:GLU:543:CD:4908, V-A:HIS:456:CE1:4069, V-B:GLU:543:CG:9878, V-B:GLU:543:CD:9879, V-A:ARG:545:CG:4922, V-A:ARG:545:CD:4923, V-A:GLY:454:CA:4048, V-B:ASP:366:CG:8184, V-A:GLY:453:C:4041, V-A:GLY:453:CA:4043, V-A:ILE:455:C:4051, V-B:ASN:362:C:8143"]

$$$$
1l_Grossjean_2025
     RDKit          3D

 17 17  0  0  0  0  0  0  0  0999 V2000
  124.3910  123.9800   61.1690 C   0  0  0  0  0  0  0  0  0  0  0  0
  125.3190  123.1420   61.8440 O   0  0  0  0  0  0  0  0  0  0  0  0
  126.4410  123.8800   62.2190 N   0  0  0  0  0  0  0  0  0  0  0  0
  127.6650  123.3910   61.9440 C   0  0  0  0  0  0  0  0  0  0  0  0
  127.8680  122.4430   61.1810 O   0  0  0  0  0  0  0  0  0  0  0  0
  128.8260  124.1140   62.6420 C   0  0  0  0  0  0  0  0  0  0  0  0
  129.8470  123.0620   63.7310 S   0  0  0  0  0  0  0  0  0  0  0  0
  130.6930  124.1210   64.8910 C   0  0  0  0  0  0  0  0  0  0  0  0
  129.9010  124.7670   65.7870 N   0  0  0  0  0  0  0  0  0  0  0  0
  130.4780  125.5880   66.6960 C   0  0  0  0  0  0  0  0  0  0  0  0
  129.5300  126.2730   67.6610 C   0  0  0  0  0  0  0  0  0  0  0  0
  131.8540  125.7980   66.7530 C   0  0  0  0  0  0  0  0  0  0  0  0
  132.6800  125.1380   65.8370 C   0  0  0  0  0  0  0  0  0  0  0  0
  134.1860  125.3820   65.9180 C   0  0  0  0  0  0  0  0  0  0  0  0
  132.0990  124.2770   64.8790 C   0  0  0  0  0  0  0  0  0  0  0  0
  132.9400  123.5720   63.9070 C   0  0  0  0  0  0  0  0  0  0  0  0
  133.6060  123.0170   63.1410 N   0  0  0  0  0  0  0  0  0  0  0  0
  1  2  1  0
  2  3  1  0
  3  4  1  0
  4  5  2  0
  4  6  1  0
  6  7  1  0
  7  8  1  0
  8  9  2  0
  9 10  1  0
 10 11  1  0
 10 12  2  0
 12 13  1  0
 13 14  1  0
 13 15  2  0
 15 16  1  0
 16 17  3  0
 15  8  1  0
M  END
>  <Binding energies>  (12) 
[-5.88]

>  <Ligand effiencies>  (12) 
[-0.32666666666666666]

>  <Interactions>  (12) 
["V-B:PRO:540:CB:9856, V-B:ALA:541:CB:9863, H-B:GLU:543:OE2:9881, H-B:ALA:541:N:9862, H-A:GLY:454:N:4049, H-A:TYR:484:OH:4347, V-A:ARG:545:CZ:4926, V-B:GLU:543:CB:9877, V-A:HIS:456:CE1:4069, V-B:GLU:543:CG:9878, V-B:GLU:543:CD:9879, V-B:ASN:362:CB:8147, V-A:ARG:545:CD:4923, V-A:GLY:454:CA:4048, V-A:GLY:453:C:4041, V-A:GLY:453:CA:4043, V-B:ASN:362:C:8143"]

$$$$
1m_Grossjean_2025
     RDKit          3D

 20 20  0  0  0  0  0  0  0  0999 V2000
  127.4530  123.7670   62.3980 C   0  0  0  0  0  0  0  0  0  0  0  0
  126.4150  123.1720   61.6320 O   0  0  0  0  0  0  0  0  0  0  0  0
  125.1210  123.3910   61.9450 C   0  0  0  0  0  0  0  0  0  0  0  0
  124.5970  123.1570   63.0380 O   0  0  0  0  0  0  0  0  0  0  0  0
  124.3450  123.9930   60.7540 C   0  0  0  0  0  0  0  0  0  0  0  0
  125.1940  124.2100   59.5730 N   0  0  0  0  0  0  0  0  0  0  0  0
  124.7710  124.6470   58.3710 C   0  0  0  0  0  0  0  0  0  0  0  0
  123.5900  124.9040   58.1280 O   0  0  0  0  0  0  0  0  0  0  0  0
  125.8600  124.8030   57.3030 C   0  0  0  0  0  0  0  0  0  0  0  0
  126.8700  123.3080   57.0200 S   0  0  0  0  0  0  0  0  0  0  0  0
  128.2350  123.3420   58.1620 C   0  0  0  0  0  0  0  0  0  0  0  0
  128.1590  122.3890   59.1260 N   0  0  0  0  0  0  0  0  0  0  0  0
  129.1470  122.3150   60.0480 C   0  0  0  0  0  0  0  0  0  0  0  0
  129.0040  121.2130   61.0810 C   0  0  0  0  0  0  0  0  0  0  0  0
  130.2350  123.1860   60.0560 C   0  0  0  0  0  0  0  0  0  0  0  0
  130.3100  124.1880   59.0830 C   0  0  0  0  0  0  0  0  0  0  0  0
  131.5030  125.1410   59.1210 C   0  0  0  0  0  0  0  0  0  0  0  0
  129.2890  124.2860   58.1100 C   0  0  0  0  0  0  0  0  0  0  0  0
  129.3220  125.3590   57.1130 C   0  0  0  0  0  0  0  0  0  0  0  0
  129.3480  126.2060   56.3260 N   0  0  0  0  0  0  0  0  0  0  0  0
  1  2  1  0
  2  3  1  0
  3  4  2  0
  3  5  1  0
  5  6  1  0
  6  7  1  0
  7  8  2  0
  7  9  1  0
  9 10  1  0
 10 11  1  0
 11 12  2  0
 12 13  1  0
 13 14  1  0
 13 15  2  0
 15 16  1  0
 16 17  1  0
 16 18  2  0
 18 19  1  0
 19 20  3  0
 18 11  1  0
M  END
>  <Binding energies>  (13) 
[-5.32]

>  <Ligand effiencies>  (13) 
[-0.25333333333333335]

>  <Interactions>  (13) 
["V-B:TYR:539:CE2:9847, V-B:PRO:540:CA:9854, V-B:TYR:539:CD2:9845, V-B:PRO:540:CB:9856, V-B:ALA:541:CB:9863, V-B:ALA:541:CA:9861, H-B:TYR:531:OH:9766, H-B:ALA:541:N:9862, V-B:TYR:539:CZ:9848, H-B:TYR:539:OH:9849, V-B:GLU:543:CG:9878, V-B:GLU:543:CD:9879, H-A:TYR:531:OH:4795, V-B:PRO:540:C:9852, V-B:ASN:362:CB:8147, V-B:ASN:362:C:8143, H-B:ASN:362:ND2:8150"]

$$$$
1n_Grossjean_2025
     RDKit          3D

 27 28  0  0  0  0  0  0  0  0999 V2000
  129.1130  130.6520   73.1850 C   0  0  0  0  0  0  0  0  0  0  0  0
  129.4400  129.9210   74.4910 C   0  0  0  0  0  0  0  0  0  0  0  0
  130.1330  128.7140   74.1960 O   0  0  0  0  0  0  0  0  0  0  0  0
  129.4830  127.6430   73.6740 C   0  0  0  0  0  0  0  0  0  0  0  0
  128.7920  126.8720   74.3470 O   0  0  0  0  0  0  0  0  0  0  0  0
  129.6770  127.4960   72.1920 C   0  0  0  0  0  0  0  0  0  0  0  0
  128.8660  126.6530   71.4160 C   0  0  0  0  0  0  0  0  0  0  0  0
  129.0750  126.5380   70.0450 C   0  0  0  0  0  0  0  0  0  0  0  0
  130.0990  127.2520   69.4220 C   0  0  0  0  0  0  0  0  0  0  0  0
  130.2240  127.0570   68.0330 N   0  0  0  0  0  0  0  0  0  0  0  0
  130.0160  125.9450   67.2950 C   0  0  0  0  0  0  0  0  0  0  0  0
  129.6530  124.8540   67.7350 O   0  0  0  0  0  0  0  0  0  0  0  0
  130.2580  126.0950   65.7870 C   0  0  0  0  0  0  0  0  0  0  0  0
  129.6560  124.9400   64.9590 C   0  0  0  0  0  0  0  0  0  0  0  0
  130.6880  123.4450   64.8880 S   0  0  0  0  0  0  0  0  0  0  0  0
  131.2410  123.2510   63.2080 C   0  0  0  0  0  0  0  0  0  0  0  0
  130.4500  122.4360   62.4670 N   0  0  0  0  0  0  0  0  0  0  0  0
  130.7660  122.2280   61.1670 C   0  0  0  0  0  0  0  0  0  0  0  0
  129.8300  121.3150   60.3990 C   0  0  0  0  0  0  0  0  0  0  0  0
  131.8750  122.8120   60.5600 C   0  0  0  0  0  0  0  0  0  0  0  0
  132.7100  123.6380   61.3220 C   0  0  0  0  0  0  0  0  0  0  0  0
  133.9280  124.2560   60.6390 C   0  0  0  0  0  0  0  0  0  0  0  0
  132.4020  123.8650   62.6830 C   0  0  0  0  0  0  0  0  0  0  0  0
  133.2900  124.6840   63.5110 C   0  0  0  0  0  0  0  0  0  0  0  0
  133.9930  125.3300   64.1640 N   0  0  0  0  0  0  0  0  0  0  0  0
  130.9070  128.1040   70.1890 C   0  0  0  0  0  0  0  0  0  0  0  0
  130.6950  128.2210   71.5600 C   0  0  0  0  0  0  0  0  0  0  0  0
  1  2  1  0
  2  3  1  0
  3  4  1  0
  4  5  2  0
  4  6  1  0
  6  7  2  0
  7  8  1  0
  8  9  2  0
  9 10  1  0
 10 11  1  0
 11 12  2  0
 11 13  1  0
 13 14  1  0
 14 15  1  0
 15 16  1  0
 16 17  2  0
 17 18  1  0
 18 19  1  0
 18 20  2  0
 20 21  1  0
 21 22  1  0
 21 23  2  0
 23 24  1  0
 24 25  3  0
  9 26  1  0
 26 27  2  0
 27  6  1  0
 23 16  1  0
M  END
>  <Binding energies>  (14) 
[-7.51]

>  <Ligand effiencies>  (14) 
[-0.2682142857142857]

>  <Interactions>  (14) 
["V-B:TYR:539:CE2:9847, V-B:TYR:539:CD2:9845, H-A:ARG:545:NH2:4928, H-A:GLY:454:N:4049, H-A:ARG:545:NE:4924, H-A:ARG:545:NH1:4927, V-A:ASP:366:CG:3212, V-A:ILE:369:CD1:3238, V-A:ASP:366:CA:3209, V-A:ILE:369:CG2:3236, H-A:TYR:484:OH:4347, H-A:GLU:543:OE2:4910, V-A:GLU:543:CD:4908, V-A:GLU:543:CB:4906, V-B:HIS:456:CE1:9041, V-A:HIS:456:CE1:4069, V-B:GLU:543:CG:9878, V-B:GLU:543:CD:9879, H-B:LYS:547:NZ:9922, V-A:ILE:369:CB:3235, V-A:ILE:369:CG1:3237, H-A:LYS:547:NZ:4951, V-A:LYS:547:CE:4950"]

$$$$
1q_Grossjean_2025
     RDKit          3D

 21 21  0  0  0  0  0  0  0  0999 V2000
  124.6570  124.1130   57.1680 C   0  0  0  0  0  0  0  0  0  0  0  0
  125.3060  122.9160   56.7630 O   0  0  0  0  0  0  0  0  0  0  0  0
  126.4270  122.4920   57.3960 C   0  0  0  0  0  0  0  0  0  0  0  0
  127.2150  121.6470   56.9680 O   0  0  0  0  0  0  0  0  0  0  0  0
  126.6540  123.1440   58.7770 C   0  0  0  0  0  0  0  0  0  0  0  0
  127.9060  122.7140   59.4160 N   0  0  0  0  0  0  0  0  0  0  0  0
  128.1310  122.6420   60.7420 C   0  0  0  0  0  0  0  0  0  0  0  0
  127.2830  122.9360   61.5860 O   0  0  0  0  0  0  0  0  0  0  0  0
  129.5230  122.1480   61.1620 C   0  0  0  0  0  0  0  0  0  0  0  0
  130.0090  122.6980   62.5180 C   0  0  0  0  0  0  0  0  0  0  0  0
  130.1260  124.5110   62.5670 S   0  0  0  0  0  0  0  0  0  0  0  0
  130.7840  124.9940   64.1510 C   0  0  0  0  0  0  0  0  0  0  0  0
  129.8300  125.3810   65.0360 N   0  0  0  0  0  0  0  0  0  0  0  0
  130.2100  125.7730   66.2740 C   0  0  0  0  0  0  0  0  0  0  0  0
  129.0890  126.2060   67.2000 C   0  0  0  0  0  0  0  0  0  0  0  0
  131.5410  125.7860   66.6830 C   0  0  0  0  0  0  0  0  0  0  0  0
  132.5300  125.3660   65.7890 C   0  0  0  0  0  0  0  0  0  0  0  0
  133.9820  125.3730   66.2680 C   0  0  0  0  0  0  0  0  0  0  0  0
  132.1590  124.9500   64.4900 C   0  0  0  0  0  0  0  0  0  0  0  0
  133.1750  124.4530   63.5610 C   0  0  0  0  0  0  0  0  0  0  0  0
  133.9810  124.0600   62.8280 N   0  0  0  0  0  0  0  0  0  0  0  0
  1  2  1  0
  2  3  1  0
  3  4  2  0
  3  5  1  0
  5  6  1  0
  6  7  1  0
  7  8  2  0
  7  9  1  0
  9 10  1  0
 10 11  1  0
 11 12  1  0
 12 13  2  0
 13 14  1  0
 14 15  1  0
 14 16  2  0
 16 17  1  0
 17 18  1  0
 17 19  2  0
 19 20  1  0
 20 21  3  0
 19 12  1  0
M  END
>  <Binding energies>  (15) 
[-5.69]

>  <Ligand effiencies>  (15) 
[-0.25863636363636366]

>  <Interactions>  (15) 
["V-B:TYR:539:CE2:9847, V-B:PRO:540:CA:9854, V-B:LEU:363:CD1:8160, V-B:PRO:540:CD:9858, V-B:PRO:540:CB:9856, V-B:ALA:541:CB:9863, V-B:TYR:539:C:9838, V-B:PRO:540:N:9855, H-B:TYR:539:O:9839, H-B:ALA:541:N:9862, H-A:GLY:454:N:4049, V-A:ARG:545:CZ:4926, V-B:MET:535:CE:9806, V-B:TYR:531:CE2:9764, V-B:GLU:543:CB:9877, V-A:HIS:456:CE1:4069, V-B:GLU:543:CG:9878, V-B:GLU:543:CD:9879, V-B:PRO:540:C:9852, V-A:ARG:545:CG:4922, V-A:ARG:545:CD:4923, H-B:TYR:539:N:9841"]

$$$$
2a_Grossjean_2025
     RDKit          3D

 29 30  0  0  0  0  0  0  0  0999 V2000
  124.2420  123.9140   58.4340 C   0  0  0  0  0  0  0  0  0  0  0  0
  125.2410  124.8890   57.8030 C   0  0  0  0  0  0  0  0  0  0  0  0
  125.9450  124.2300   56.7570 O   0  0  0  0  0  0  0  0  0  0  0  0
  126.5250  123.0190   56.9580 C   0  0  0  0  0  0  0  0  0  0  0  0
  126.1490  121.9830   56.4000 O   0  0  0  0  0  0  0  0  0  0  0  0
  127.6850  123.0690   57.9110 C   0  0  0  0  0  0  0  0  0  0  0  0
  127.8940  122.0750   58.8780 C   0  0  0  0  0  0  0  0  0  0  0  0
  128.9780  122.1530   59.7470 C   0  0  0  0  0  0  0  0  0  0  0  0
  129.8690  123.2250   59.6750 C   0  0  0  0  0  0  0  0  0  0  0  0
  130.9190  123.2080   60.6110 N   0  0  0  0  0  0  0  0  0  0  0  0
  131.9330  122.3290   60.7630 C   0  0  0  0  0  0  0  0  0  0  0  0
  132.1100  121.3170   60.0830 O   0  0  0  0  0  0  0  0  0  0  0  0
  132.9230  122.6500   61.8870 C   0  0  0  0  0  0  0  0  0  0  0  0
  133.2580  124.4340   62.0660 S   0  0  0  0  0  0  0  0  0  0  0  0
  132.8850  124.9540   63.7380 C   0  0  0  0  0  0  0  0  0  0  0  0
  133.9420  125.0000   64.5890 N   0  0  0  0  0  0  0  0  0  0  0  0
  133.7320  125.3720   65.8710 C   0  0  0  0  0  0  0  0  0  0  0  0
  134.9560  125.3740   66.7680 C   0  0  0  0  0  0  0  0  0  0  0  0
  132.4750  125.7200   66.3560 C   0  0  0  0  0  0  0  0  0  0  0  0
  131.3690  125.6870   65.4920 C   0  0  0  0  0  0  0  0  0  0  0  0
  129.9840  126.0750   66.0440 C   0  0  0  0  0  0  0  0  0  0  0  0
  129.4150  126.9850   65.2530 F   0  0  0  0  0  0  0  0  0  0  0  0
  129.1990  124.9990   66.1030 F   0  0  0  0  0  0  0  0  0  0  0  0
  130.0460  126.5940   67.2730 F   0  0  0  0  0  0  0  0  0  0  0  0
  131.5750  125.2950   64.1450 C   0  0  0  0  0  0  0  0  0  0  0  0
  130.4550  125.2410   63.2000 C   0  0  0  0  0  0  0  0  0  0  0  0
  129.5710  125.1980   62.4540 N   0  0  0  0  0  0  0  0  0  0  0  0
  129.6710  124.2180   58.7050 C   0  0  0  0  0  0  0  0  0  0  0  0
  128.5880  124.1370   57.8340 C   0  0  0  0  0  0  0  0  0  0  0  0
  1  2  1  0
  2  3  1  0
  3  4  1  0
  4  5  2  0
  4  6  1  0
  6  7  2  0
  7  8  1  0
  8  9  2  0
  9 10  1  0
 10 11  1  0
 11 12  2  0
 11 13  1  0
 13 14  1  0
 14 15  1  0
 15 16  2  0
 16 17  1  0
 17 18  1  0
 17 19  2  0
 19 20  1  0
 20 21  1  0
 21 22  1  0
 21 23  1  0
 21 24  1  0
 20 25  2  0
 25 26  1  0
 26 27  3  0
  9 28  1  0
 28 29  2  0
 29  6  1  0
 25 15  1  0
M  END
>  <Binding energies>  (16) 
[-6.91]

>  <Ligand effiencies>  (16) 
[-0.23033333333333333]

>  <Interactions>  (16) 
["V-B:TYR:539:CE2:9847, V-B:PRO:540:CA:9854, V-B:TYR:539:CD2:9845, V-B:LEU:363:CD1:8160, V-B:TYR:539:CG:9843, V-B:PRO:540:CB:9856, V-B:TYR:539:C:9838, V-B:PRO:540:N:9855, H-B:TYR:531:OH:9766, V-B:TYR:539:CZ:9848, H-A:GLY:454:N:4049, H-A:ARG:545:NH1:4927, V-A:ILE:369:CD1:3238, V-A:ILE:369:CG2:3236, V-A:ARG:545:CZ:4926, V-B:LEU:363:CA:8156, V-A:GLU:543:CD:4908, V-B:GLU:543:CB:9877, V-A:HIS:456:CE1:4069, V-B:GLU:543:CG:9878, V-B:GLU:543:CD:9879, V-A:ARG:545:CG:4922, V-A:ARG:545:CD:4923, V-A:GLY:454:CA:4048, V-A:GLY:453:C:4041, V-A:GLY:453:CA:4043, V-A:ILE:455:C:4051, V-B:LEU:363:CB:8158, H-B:TYR:539:N:9841"]

$$$$
2b_Grossjean_2025
     RDKit          3D

 28 29  0  0  0  0  0  0  0  0999 V2000
  129.3540  129.6530   73.7840 C   0  0  0  0  0  0  0  0  0  0  0  0
  129.9800  128.3790   73.8370 O   0  0  0  0  0  0  0  0  0  0  0  0
  129.4110  127.2950   73.2510 C   0  0  0  0  0  0  0  0  0  0  0  0
  128.7790  126.4370   73.8760 O   0  0  0  0  0  0  0  0  0  0  0  0
  129.6300  127.2400   71.7660 C   0  0  0  0  0  0  0  0  0  0  0  0
  128.8610  126.4140   70.9330 C   0  0  0  0  0  0  0  0  0  0  0  0
  129.0910  126.3860   69.5600 C   0  0  0  0  0  0  0  0  0  0  0  0
  130.0850  127.1820   68.9930 C   0  0  0  0  0  0  0  0  0  0  0  0
  130.2370  127.0710   67.5970 N   0  0  0  0  0  0  0  0  0  0  0  0
  130.1040  125.9900   66.7990 C   0  0  0  0  0  0  0  0  0  0  0  0
  129.8380  124.8500   67.1810 O   0  0  0  0  0  0  0  0  0  0  0  0
  130.3290  126.2500   65.3060 C   0  0  0  0  0  0  0  0  0  0  0  0
  129.1970  125.3050   64.2350 S   0  0  0  0  0  0  0  0  0  0  0  0
  130.1140  124.0890   63.2990 C   0  0  0  0  0  0  0  0  0  0  0  0
  131.4620  124.1200   63.4550 N   0  0  0  0  0  0  0  0  0  0  0  0
  132.2190  123.2320   62.7730 C   0  0  0  0  0  0  0  0  0  0  0  0
  133.7160  123.3400   62.9920 C   0  0  0  0  0  0  0  0  0  0  0  0
  131.6730  122.2770   61.9210 C   0  0  0  0  0  0  0  0  0  0  0  0
  130.2810  122.2210   61.7500 C   0  0  0  0  0  0  0  0  0  0  0  0
  129.6920  121.1550   60.8070 C   0  0  0  0  0  0  0  0  0  0  0  0
  128.7610  120.4450   61.4460 F   0  0  0  0  0  0  0  0  0  0  0  0
  129.1350  121.7400   59.7450 F   0  0  0  0  0  0  0  0  0  0  0  0
  130.6110  120.2990   60.3560 F   0  0  0  0  0  0  0  0  0  0  0  0
  129.4740  123.1510   62.4540 C   0  0  0  0  0  0  0  0  0  0  0  0
  128.0150  123.1430   62.3090 C   0  0  0  0  0  0  0  0  0  0  0  0
  126.8640  123.1360   62.1940 N   0  0  0  0  0  0  0  0  0  0  0  0
  130.8640  128.0050   69.8200 C   0  0  0  0  0  0  0  0  0  0  0  0
  130.6340  128.0310   71.1920 C   0  0  0  0  0  0  0  0  0  0  0  0
  1  2  1  0
  2  3  1  0
  3  4  2  0
  3  5  1  0
  5  6  2  0
  6  7  1  0
  7  8  2  0
  8  9  1  0
  9 10  1  0
 10 11  2  0
 10 12  1  0
 12 13  1  0
 13 14  1  0
 14 15  2  0
 15 16  1  0
 16 17  1  0
 16 18  2  0
 18 19  1  0
 19 20  1  0
 20 21  1  0
 20 22  1  0
 20 23  1  0
 19 24  2  0
 24 25  1  0
 25 26  3  0
  8 27  1  0
 27 28  2  0
 28  5  1  0
 24 14  1  0
M  END
>  <Binding energies>  (17) 
[-6.85]

>  <Ligand effiencies>  (17) 
[-0.23620689655172414]

>  <Interactions>  (17) 
["V-B:TYR:539:CE2:9847, V-B:PRO:540:CA:9854, V-B:TYR:539:CD2:9845, V-B:TYR:539:CG:9843, V-B:ALA:541:CB:9863, V-B:TYR:539:C:9838, V-A:LEU:475:CD2:4258, V-B:ALA:541:CA:9861, H-B:ALA:541:N:9862, V-A:ILE:369:CD1:3238, H-A:TYR:484:OH:4347, H-A:GLU:543:OE2:4910, V-A:GLU:543:CD:4908, V-A:GLU:543:CB:4906, V-B:HIS:456:CE1:9041, V-A:HIS:456:CE1:4069, V-B:PRO:540:C:9852, H-A:GLU:543:OE1:4909, V-A:GLY:454:CA:4048, H-B:LYS:547:NZ:9922, H-A:LYS:547:NZ:4951"]

$$$$
2c_Grossjean_2025
     RDKit          3D

 26 27  0  0  0  0  0  0  0  0999 V2000
  129.9640  130.6830   73.5600 C   0  0  0  0  0  0  0  0  0  0  0  0
  130.6220  129.4440   73.3140 O   0  0  0  0  0  0  0  0  0  0  0  0
  130.5500  128.8820   72.0540 C   0  0  0  0  0  0  0  0  0  0  0  0
  131.7500  128.7740   71.3520 C   0  0  0  0  0  0  0  0  0  0  0  0
  131.7790  128.2220   70.0730 C   0  0  0  0  0  0  0  0  0  0  0  0
  130.5900  127.7790   69.4760 C   0  0  0  0  0  0  0  0  0  0  0  0
  130.5230  127.1920   68.1990 N   0  0  0  0  0  0  0  0  0  0  0  0
  129.8270  126.1020   67.8080 C   0  0  0  0  0  0  0  0  0  0  0  0
  129.1570  125.3920   68.5590 O   0  0  0  0  0  0  0  0  0  0  0  0
  129.9530  125.7560   66.3160 C   0  0  0  0  0  0  0  0  0  0  0  0
  129.9760  123.9710   65.9240 S   0  0  0  0  0  0  0  0  0  0  0  0
  130.3480  123.7490   64.1890 C   0  0  0  0  0  0  0  0  0  0  0  0
  129.3010  123.3810   63.4060 N   0  0  0  0  0  0  0  0  0  0  0  0
  129.5100  123.1860   62.0860 C   0  0  0  0  0  0  0  0  0  0  0  0
  128.2960  122.7610   61.2830 C   0  0  0  0  0  0  0  0  0  0  0  0
  130.7580  123.3550   61.4890 C   0  0  0  0  0  0  0  0  0  0  0  0
  131.8510  123.7420   62.2770 C   0  0  0  0  0  0  0  0  0  0  0  0
  133.2250  123.9270   61.6020 C   0  0  0  0  0  0  0  0  0  0  0  0
  134.0000  122.8690   61.8470 F   0  0  0  0  0  0  0  0  0  0  0  0
  133.0740  124.0570   60.2840 F   0  0  0  0  0  0  0  0  0  0  0  0
  133.8730  125.0090   62.0420 F   0  0  0  0  0  0  0  0  0  0  0  0
  131.6480  123.9450   63.6650 C   0  0  0  0  0  0  0  0  0  0  0  0
  132.7560  124.3480   64.5380 C   0  0  0  0  0  0  0  0  0  0  0  0
  133.6310  124.6660   65.2250 N   0  0  0  0  0  0  0  0  0  0  0  0
  129.3890  127.8700   70.1800 C   0  0  0  0  0  0  0  0  0  0  0  0
  129.3650  128.4220   71.4580 C   0  0  0  0  0  0  0  0  0  0  0  0
  1  2  1  0
  2  3  1  0
  3  4  2  0
  4  5  1  0
  5  6  2  0
  6  7  1  0
  7  8  1  0
  8  9  2  0
  8 10  1  0
 10 11  1  0
 11 12  1  0
 12 13  2  0
 13 14  1  0
 14 15  1  0
 14 16  2  0
 16 17  1  0
 17 18  1  0
 18 19  1  0
 18 20  1  0
 18 21  1  0
 17 22  2  0
 22 23  1  0
 23 24  3  0
  6 25  1  0
 25 26  2  0
 26  3  1  0
 22 12  1  0
M  END
>  <Binding energies>  (18) 
[-6.43]

>  <Ligand effiencies>  (18) 
[-0.23814814814814814]

>  <Interactions>  (18) 
["V-B:ALA:541:CB:9863, H-A:GLY:454:N:4049, V-A:ASP:366:CG:3212, V-A:ILE:369:CD1:3238, V-A:ILE:369:CG2:3236, H-A:TYR:484:OH:4347, H-A:GLU:543:OE2:4910, V-A:GLU:543:CD:4908, V-A:GLU:543:CB:4906, V-B:HIS:456:CE1:9041, V-A:HIS:456:CE1:4069, V-B:GLU:543:CG:9878, V-B:GLU:543:CD:9879, V-A:ARG:545:CG:4922, V-A:GLY:454:CA:4048, V-A:ILE:369:CB:3235, V-A:ILE:369:CG1:3237, H-A:LYS:547:NZ:4951, V-A:LYS:547:CE:4950, V-A:GLU:543:C:4902, V-A:ARG:545:CA:4919, V-A:GLY:544:C:4912"]

$$$$
2d_Ghoteimi_2023
     RDKit          3D

 38 42  0  0  0  0  0  0  0  0999 V2000
  127.6410  123.4890   57.9460 C   0  0  0  0  0  0  0  0  0  0  0  0
  127.4350  122.4270   58.8660 O   0  0  0  0  0  0  0  0  0  0  0  0
  128.0010  122.4610   60.0900 C   0  0  0  0  0  0  0  0  0  0  0  0
  127.4190  122.7490   61.1400 O   0  0  0  0  0  0  0  0  0  0  0  0
  129.4890  122.0840   60.0280 C   0  0  0  0  0  0  0  0  0  0  0  0
  130.3170  122.3960   61.6250 S   0  0  0  0  0  0  0  0  0  0  0  0
  130.1970  124.1350   61.9870 C   0  0  0  0  0  0  0  0  0  0  0  0
  130.0160  124.3960   63.3050 N   0  0  0  0  0  0  0  0  0  0  0  0
  129.9010  125.6810   63.7250 C   0  0  0  0  0  0  0  0  0  0  0  0
  129.6860  125.8900   65.1890 C   0  0  0  0  0  0  0  0  0  0  0  0
  129.9350  124.8570   66.1000 C   0  0  0  0  0  0  0  0  0  0  0  0
  129.7370  125.0450   67.4660 C   0  0  0  0  0  0  0  0  0  0  0  0
  129.2930  126.2760   67.9710 C   0  0  0  0  0  0  0  0  0  0  0  0
  129.0710  126.4750   69.3380 N   0  0  0  0  0  0  0  0  0  0  0  0
  128.7180  125.3560   70.2340 C   0  0  0  0  0  0  0  0  0  0  0  0
  128.1540  125.8100   71.5970 C   0  0  0  0  0  0  0  0  0  0  0  0
  129.0670  126.6940   72.2280 O   0  0  0  0  0  0  0  0  0  0  0  0
  129.2950  127.8540   71.4460 C   0  0  0  0  0  0  0  0  0  0  0  0
  129.8870  127.4610   70.0750 C   0  0  0  0  0  0  0  0  0  0  0  0
  129.0310  127.3030   67.0530 C   0  0  0  0  0  0  0  0  0  0  0  0
  129.2270  127.1150   65.6880 C   0  0  0  0  0  0  0  0  0  0  0  0
  129.9710  126.7440   62.8210 C   0  0  0  0  0  0  0  0  0  0  0  0
  130.1900  126.5040   61.4590 C   0  0  0  0  0  0  0  0  0  0  0  0
  130.2810  127.6900   60.5550 C   0  0  0  0  0  0  0  0  0  0  0  0
  131.3320  127.7980   59.6420 C   0  0  0  0  0  0  0  0  0  0  0  0
  131.4190  128.8920   58.7860 C   0  0  0  0  0  0  0  0  0  0  0  0
  130.4560  129.9140   58.8230 C   0  0  0  0  0  0  0  0  0  0  0  0
  130.5170  131.0160   57.9640 N   0  0  0  0  0  0  0  0  0  0  0  0
  131.7840  131.7300   57.7180 C   0  0  0  0  0  0  0  0  0  0  0  0
  131.7340  132.6680   56.4930 C   0  0  0  0  0  0  0  0  0  0  0  0
  130.6550  133.5800   56.6230 O   0  0  0  0  0  0  0  0  0  0  0  0
  129.4080  132.9080   56.7160 C   0  0  0  0  0  0  0  0  0  0  0  0
  129.3990  131.9790   57.9490 C   0  0  0  0  0  0  0  0  0  0  0  0
  129.3960  129.7890   59.7300 C   0  0  0  0  0  0  0  0  0  0  0  0
  129.3080  128.6930   60.5850 C   0  0  0  0  0  0  0  0  0  0  0  0
  130.3140  125.1620   61.0210 C   0  0  0  0  0  0  0  0  0  0  0  0
  130.5640  124.8600   59.6090 C   0  0  0  0  0  0  0  0  0  0  0  0
  130.7610  124.6260   58.4920 N   0  0  0  0  0  0  0  0  0  0  0  0
  1  2  1  0
  2  3  1  0
  3  4  2  0
  3  5  1  0
  5  6  1  0
  6  7  1  0
  7  8  2  0
  8  9  1  0
  9 10  1  0
 10 11  2  0
 11 12  1  0
 12 13  2  0
 13 14  1  0
 14 15  1  0
 15 16  1  0
 16 17  1  0
 17 18  1  0
 18 19  1  0
 13 20  1  0
 20 21  2  0
  9 22  2  0
 22 23  1  0
 23 24  1  0
 24 25  2  0
 25 26  1  0
 26 27  2  0
 27 28  1  0
 28 29  1  0
 29 30  1  0
 30 31  1  0
 31 32  1  0
 32 33  1  0
 27 34  1  0
 34 35  2  0
 23 36  2  0
 36 37  1  0
 37 38  3  0
 36  7  1  0
 21 10  1  0
 35 24  1  0
 19 14  1  0
 33 28  1  0
M  END
>  <Binding energies>  (19) 
[-7.95]

>  <Ligand effiencies>  (19) 
[-0.20921052631578949]

>  <Interactions>  (19) 
["V-B:TYR:539:CE2:9847, V-B:PRO:540:CA:9854, V-B:TYR:539:CD2:9845, V-B:TYR:539:C:9838, V-B:PRO:540:N:9855, H-B:ALA:541:N:9862, V-B:TYR:539:CZ:9848, V-A:ASP:366:CG:3212, V-A:ASP:366:CB:3211, H-B:TYR:539:OH:9849, V-A:GLU:543:CD:4908, V-B:HIS:456:CE1:9041, V-B:GLU:543:CB:9877, V-A:HIS:456:CE1:4069, V-B:GLU:543:CG:9878, V-B:HIS:456:CD2:9039, V-B:GLU:543:CD:9879, V-A:TYR:484:CE1:4344, V-A:HIS:456:CD2:4067, V-A:LEU:363:CD1:3188, V-A:TYR:539:C:4867, H-A:TYR:539:N:4870, V-B:PRO:540:C:9852, V-A:TYR:539:CE1:4875, V-A:TYR:539:CD2:4874, V-A:TYR:539:CD1:4873, V-A:TYR:539:CG:4872, V-B:GLU:543:C:9873, V-A:ILE:538:CB:4862"]

$$$$
2d_Grossjean_2025
     RDKit          3D

 24 25  0  0  0  0  0  0  0  0999 V2000
  129.1020  128.0990   62.6100 C   0  0  0  0  0  0  0  0  0  0  0  0
  128.9540  127.8940   64.1060 C   0  0  0  0  0  0  0  0  0  0  0  0
  128.1490  128.7270   64.8800 C   0  0  0  0  0  0  0  0  0  0  0  0
  128.0410  128.4930   66.2590 C   0  0  0  0  0  0  0  0  0  0  0  0
  127.1380  129.4190   67.0970 C   0  0  0  0  0  0  0  0  0  0  0  0
  126.7580  130.4680   66.3680 F   0  0  0  0  0  0  0  0  0  0  0  0
  126.0520  128.7560   67.5000 F   0  0  0  0  0  0  0  0  0  0  0  0
  127.7490  129.8870   68.1870 F   0  0  0  0  0  0  0  0  0  0  0  0
  128.7660  127.4130   66.8230 C   0  0  0  0  0  0  0  0  0  0  0  0
  128.6500  127.0990   68.2500 C   0  0  0  0  0  0  0  0  0  0  0  0
  128.5560  126.8510   69.3760 N   0  0  0  0  0  0  0  0  0  0  0  0
  129.5780  126.6350   65.9630 C   0  0  0  0  0  0  0  0  0  0  0  0
  130.5770  125.2640   66.5090 S   0  0  0  0  0  0  0  0  0  0  0  0
  132.3340  125.7390   66.3990 C   0  0  0  0  0  0  0  0  0  0  0  0
  132.9650  125.3900   65.0480 C   0  0  0  0  0  0  0  0  0  0  0  0
  134.1340  125.0010   65.0160 O   0  0  0  0  0  0  0  0  0  0  0  0
  132.1740  125.5700   63.9700 N   0  0  0  0  0  0  0  0  0  0  0  0
  132.4580  125.3390   62.6110 C   0  0  0  0  0  0  0  0  0  0  0  0
  131.6820  126.0500   61.6930 C   0  0  0  0  0  0  0  0  0  0  0  0
  131.8830  125.8840   60.3250 C   0  0  0  0  0  0  0  0  0  0  0  0
  132.8580  124.9960   59.8740 C   0  0  0  0  0  0  0  0  0  0  0  0
  133.6290  124.2720   60.7800 C   0  0  0  0  0  0  0  0  0  0  0  0
  133.4310  124.4370   62.1470 C   0  0  0  0  0  0  0  0  0  0  0  0
  129.6540  126.8620   64.6290 N   0  0  0  0  0  0  0  0  0  0  0  0
  1  2  1  0
  2  3  2  0
  3  4  1  0
  4  5  1  0
  5  6  1  0
  5  7  1  0
  5  8  1  0
  4  9  2  0
  9 10  1  0
 10 11  3  0
  9 12  1  0
 12 13  1  0
 13 14  1  0
 14 15  1  0
 15 16  2  0
 15 17  1  0
 17 18  1  0
 18 19  2  0
 19 20  1  0
 20 21  2  0
 21 22  1  0
 22 23  2  0
 12 24  2  0
 24  2  1  0
 23 18  1  0
M  END
>  <Binding energies>  (20) 
[-5.46]

>  <Ligand effiencies>  (20) 
[-0.2184]

>  <Interactions>  (20) 
["H-A:GLY:454:N:4049, H-A:ARG:545:NE:4924, V-A:ASP:366:CG:3212, V-A:ILE:369:CD1:3238, V-A:ASP:366:CB:3211, V-A:ASP:366:CA:3209, V-A:ILE:369:CG2:3236, H-A:TYR:484:OH:4347, H-A:GLU:543:OE2:4910, V-A:ARG:545:CZ:4926, V-A:GLU:543:CD:4908, V-A:GLU:543:CG:4907, V-A:GLU:543:CB:4906, V-B:HIS:456:CE1:9041, V-B:GLU:543:CB:9877, V-A:HIS:456:CE1:4069, V-B:GLU:543:CG:9878, V-B:TYR:484:CE1:9316, V-B:GLU:543:CD:9879, V-B:ARG:545:CG:9893, V-A:ILE:369:CB:3235, V-B:TYR:484:CZ:9318"]

$$$$
2e_Grossjean_2025
     RDKit          3D

 25 26  0  0  0  0  0  0  0  0999 V2000
  125.0500  124.2360   61.7220 C   0  0  0  0  0  0  0  0  0  0  0  0
  126.0640  123.8120   60.6780 C   0  0  0  0  0  0  0  0  0  0  0  0
  126.1220  124.4250   59.4230 C   0  0  0  0  0  0  0  0  0  0  0  0
  127.0910  123.9900   58.5170 C   0  0  0  0  0  0  0  0  0  0  0  0
  127.9670  122.9650   58.8810 C   0  0  0  0  0  0  0  0  0  0  0  0
  127.8470  122.3880   60.1510 C   0  0  0  0  0  0  0  0  0  0  0  0
  128.7810  121.3920   60.4810 N   0  0  0  0  0  0  0  0  0  0  0  0
  129.6730  121.3890   61.4960 C   0  0  0  0  0  0  0  0  0  0  0  0
  129.7600  122.2600   62.3630 O   0  0  0  0  0  0  0  0  0  0  0  0
  130.6630  120.2200   61.5100 C   0  0  0  0  0  0  0  0  0  0  0  0
  132.2540  120.6620   60.7400 S   0  0  0  0  0  0  0  0  0  0  0  0
  132.3830  122.4290   60.8960 C   0  0  0  0  0  0  0  0  0  0  0  0
  132.2890  123.1090   59.7260 N   0  0  0  0  0  0  0  0  0  0  0  0
  132.4220  124.4540   59.7490 C   0  0  0  0  0  0  0  0  0  0  0  0
  132.3060  125.1510   58.4070 C   0  0  0  0  0  0  0  0  0  0  0  0
  132.6570  125.1680   60.9240 C   0  0  0  0  0  0  0  0  0  0  0  0
  132.7650  124.4790   62.1410 C   0  0  0  0  0  0  0  0  0  0  0  0
  133.0460  125.2790   63.4260 C   0  0  0  0  0  0  0  0  0  0  0  0
  132.5450  124.6380   64.4830 F   0  0  0  0  0  0  0  0  0  0  0  0
  134.3600  125.4260   63.5930 F   0  0  0  0  0  0  0  0  0  0  0  0
  132.5040  126.4990   63.4030 F   0  0  0  0  0  0  0  0  0  0  0  0
  132.6230  123.0690   62.1340 C   0  0  0  0  0  0  0  0  0  0  0  0
  132.7560  122.2880   63.3680 C   0  0  0  0  0  0  0  0  0  0  0  0
  132.8610  121.6720   64.3430 N   0  0  0  0  0  0  0  0  0  0  0  0
  126.9080  122.8140   61.0460 N   0  0  0  0  0  0  0  0  0  0  0  0
  1  2  1  0
  2  3  2  0
  3  4  1  0
  4  5  2  0
  5  6  1  0
  6  7  1  0
  7  8  1  0
  8  9  2  0
  8 10  1  0
 10 11  1  0
 11 12  1  0
 12 13  2  0
 13 14  1  0
 14 15  1  0
 14 16  2  0
 16 17  1  0
 17 18  1  0
 18 19  1  0
 18 20  1  0
 18 21  1  0
 17 22  2  0
 22 23  1  0
 23 24  3  0
  6 25  2  0
 25  2  1  0
 22 12  1  0
M  END
>  <Binding energies>  (21) 
[-6.5]

>  <Ligand effiencies>  (21) 
[-0.25]

>  <Interactions>  (21) 
["V-B:TYR:539:CE2:9847, V-B:PRO:540:CA:9854, V-B:TYR:539:CD2:9845, V-B:PRO:540:CB:9856, V-B:ALA:541:CB:9863, V-B:TYR:539:C:9838, V-A:LEU:475:CD2:4258, V-B:PRO:540:N:9855, H-B:TYR:539:O:9839, H-B:ALA:541:N:9862, H-A:GLY:454:N:4049, V-A:ASP:366:CG:3212, V-A:ASP:366:CB:3211, V-A:ILE:369:CG2:3236, H-A:TYR:484:OH:4347, V-A:ARG:545:CZ:4926, V-B:PRO:540:C:9852, V-B:ASN:362:CB:8147, V-A:GLY:454:CA:4048, V-A:GLY:453:C:4041, V-A:GLY:453:CA:4043"]

$$$$
2f_Grossjean_2025
     RDKit          3D

 24 25  0  0  0  0  0  0  0  0999 V2000
  128.8130  126.5400   67.6280 C   0  0  0  0  0  0  0  0  0  0  0  0
  129.2200  126.7100   69.0790 C   0  0  0  0  0  0  0  0  0  0  0  0
  130.1510  127.6710   69.4670 C   0  0  0  0  0  0  0  0  0  0  0  0
  130.5020  127.7840   70.8220 C   0  0  0  0  0  0  0  0  0  0  0  0
  131.5420  128.8450   71.2300 C   0  0  0  0  0  0  0  0  0  0  0  0
  132.0990  129.3820   70.1430 F   0  0  0  0  0  0  0  0  0  0  0  0
  130.9530  129.8110   71.9360 F   0  0  0  0  0  0  0  0  0  0  0  0
  132.5270  128.3430   71.9770 F   0  0  0  0  0  0  0  0  0  0  0  0
  129.8850  126.9140   71.7570 C   0  0  0  0  0  0  0  0  0  0  0  0
  130.2600  126.9550   73.1730 C   0  0  0  0  0  0  0  0  0  0  0  0
  130.5560  126.9880   74.2910 N   0  0  0  0  0  0  0  0  0  0  0  0
  128.9310  125.9860   71.2740 C   0  0  0  0  0  0  0  0  0  0  0  0
  128.0540  124.8280   72.3050 S   0  0  0  0  0  0  0  0  0  0  0  0
  129.2750  123.9550   73.3430 C   0  0  0  0  0  0  0  0  0  0  0  0
  129.2130  122.4220   73.2720 C   0  0  0  0  0  0  0  0  0  0  0  0
  130.1610  121.7370   73.6570 O   0  0  0  0  0  0  0  0  0  0  0  0
  128.0690  121.9320   72.7470 N   0  0  0  0  0  0  0  0  0  0  0  0
  127.6780  120.5940   72.5470 C   0  0  0  0  0  0  0  0  0  0  0  0
  127.2760  119.7010   73.5570 C   0  0  0  0  0  0  0  0  0  0  0  0
  126.9070  118.3970   73.2200 C   0  0  0  0  0  0  0  0  0  0  0  0
  126.9450  118.0190   71.8770 C   0  0  0  0  0  0  0  0  0  0  0  0
  127.3210  118.8630   70.8840 N   0  0  0  0  0  0  0  0  0  0  0  0
  127.6760  120.1270   71.2270 C   0  0  0  0  0  0  0  0  0  0  0  0
  128.6220  125.8760   69.9590 N   0  0  0  0  0  0  0  0  0  0  0  0
  1  2  1  0
  2  3  2  0
  3  4  1  0
  4  5  1  0
  5  6  1  0
  5  7  1  0
  5  8  1  0
  4  9  2  0
  9 10  1  0
 10 11  3  0
  9 12  1  0
 12 13  1  0
 13 14  1  0
 14 15  1  0
 15 16  2  0
 15 17  1  0
 17 18  1  0
 18 19  2  0
 19 20  1  0
 20 21  2  0
 21 22  1  0
 22 23  2  0
 12 24  2  0
 24  2  1  0
 23 18  1  0
M  END
>  <Binding energies>  (22) 
[-6.48]

>  <Ligand effiencies>  (22) 
[-0.25920000000000004]

>  <Interactions>  (22) 
["V-A:GLU:543:CB:4906, V-B:GLU:543:CB:9877, V-A:HIS:456:CE1:4069, V-B:GLU:543:CG:9878, V-B:GLU:543:CD:9879, V-A:HIS:456:CD2:4067, V-A:ARG:545:CG:4922, H-B:LYS:547:NZ:9922, V-B:LYS:547:CE:9921, H-B:GLY:544:O:9884, H-B:GLU:543:O:9874, V-B:GLU:543:C:9873, V-B:GLY:544:CA:9885, V-A:TYR:484:CB:4340, H-A:LYS:547:NZ:4951, V-A:GLU:543:CA:4904, V-A:GLU:543:C:4902, V-A:ARG:545:CB:4921, V-A:ARG:545:CA:4919, V-A:GLY:544:C:4912, V-A:ARG:545:C:4917, V-A:TYR:484:CG:4341, V-A:TYR:484:CD1:4342, H-A:TYR:484:N:4339, V-A:GLY:544:CA:4914"]

$$$$
2g_Grossjean_2025
     RDKit          3D

 25 26  0  0  0  0  0  0  0  0999 V2000
  124.3730  122.7450   62.0020 C   0  0  0  0  0  0  0  0  0  0  0  0
  125.0020  123.7430   61.0490 C   0  0  0  0  0  0  0  0  0  0  0  0
  126.1160  124.4950   61.4120 C   0  0  0  0  0  0  0  0  0  0  0  0
  126.6570  125.4120   60.4970 C   0  0  0  0  0  0  0  0  0  0  0  0
  127.8850  126.2420   60.9190 C   0  0  0  0  0  0  0  0  0  0  0  0
  128.7310  126.3690   59.8950 F   0  0  0  0  0  0  0  0  0  0  0  0
  127.4970  127.4560   61.3120 F   0  0  0  0  0  0  0  0  0  0  0  0
  128.5610  125.6880   61.9280 F   0  0  0  0  0  0  0  0  0  0  0  0
  126.0500  125.5350   59.2210 C   0  0  0  0  0  0  0  0  0  0  0  0
  126.5400  126.5170   58.2500 C   0  0  0  0  0  0  0  0  0  0  0  0
  126.9280  127.2930   57.4840 N   0  0  0  0  0  0  0  0  0  0  0  0
  124.9390  124.7070   58.9300 C   0  0  0  0  0  0  0  0  0  0  0  0
  124.0760  124.7150   57.3730 S   0  0  0  0  0  0  0  0  0  0  0  0
  124.7050  123.3110   56.3910 C   0  0  0  0  0  0  0  0  0  0  0  0
  126.1760  122.9560   56.6470 C   0  0  0  0  0  0  0  0  0  0  0  0
  126.5600  121.7850   56.6710 O   0  0  0  0  0  0  0  0  0  0  0  0
  126.9970  124.0040   56.8460 N   0  0  0  0  0  0  0  0  0  0  0  0
  128.4360  123.9190   57.0990 C   0  0  0  0  0  0  0  0  0  0  0  0
  128.8000  123.4370   58.4990 C   0  0  0  0  0  0  0  0  0  0  0  0
  128.0170  122.4620   59.1250 C   0  0  0  0  0  0  0  0  0  0  0  0
  128.3690  121.9930   60.3880 C   0  0  0  0  0  0  0  0  0  0  0  0
  129.5080  122.4900   61.0160 C   0  0  0  0  0  0  0  0  0  0  0  0
  130.3010  123.4520   60.3920 C   0  0  0  0  0  0  0  0  0  0  0  0
  129.9490  123.9220   59.1300 C   0  0  0  0  0  0  0  0  0  0  0  0
  124.4160  123.8430   59.8340 N   0  0  0  0  0  0  0  0  0  0  0  0
  1  2  1  0
  2  3  2  0
  3  4  1  0
  4  5  1  0
  5  6  1  0
  5  7  1  0
  5  8  1  0
  4  9  2  0
  9 10  1  0
 10 11  3  0
  9 12  1  0
 12 13  1  0
 13 14  1  0
 14 15  1  0
 15 16  2  0
 15 17  1  0
 17 18  1  0
 18 19  1  0
 19 20  2  0
 20 21  1  0
 21 22  2  0
 22 23  1  0
 23 24  2  0
 12 25  2  0
 25  2  1  0
 24 19  1  0
M  END
>  <Binding energies>  (23) 
[-5.42]

>  <Ligand effiencies>  (23) 
[-0.20846153846153845]

>  <Interactions>  (23) 
["V-B:TYR:539:CE2:9847, V-B:PRO:540:CA:9854, V-B:TYR:539:CD2:9845, V-B:LEU:363:CD1:8160, V-B:PRO:540:CB:9856, V-B:ALA:541:CB:9863, V-B:TYR:539:C:9838, V-B:PRO:540:N:9855, V-B:ALA:541:CA:9861, V-B:TYR:539:CE1:9846, H-B:TYR:531:OH:9766, V-B:TYR:539:CZ:9848, V-B:MET:535:CE:9806, V-B:PRO:540:C:9852, V-B:ASN:362:CB:8147, V-B:ALA:541:C:9859, H-B:TYR:539:N:9841, V-B:ASN:362:CG:8148, H-B:MET:535:SD:9805"]

$$$$
2h_Grossjean_2025
     RDKit          3D

 31 32  0  0  0  0  0  0  0  0999 V2000
  129.8990  125.0240   74.4140 C   0  0  0  0  0  0  0  0  0  0  0  0
  128.8110  125.7510   73.8550 O   0  0  0  0  0  0  0  0  0  0  0  0
  128.8860  126.1830   72.5430 C   0  0  0  0  0  0  0  0  0  0  0  0
  128.2640  125.5310   71.4660 C   0  0  0  0  0  0  0  0  0  0  0  0
  128.3780  126.0310   70.1710 C   0  0  0  0  0  0  0  0  0  0  0  0
  129.1140  127.1910   69.9220 C   0  0  0  0  0  0  0  0  0  0  0  0
  129.2080  127.7320   68.4960 C   0  0  0  0  0  0  0  0  0  0  0  0
  129.2170  126.6870   67.4720 N   0  0  0  0  0  0  0  0  0  0  0  0
  130.3140  126.0400   67.0410 C   0  0  0  0  0  0  0  0  0  0  0  0
  131.4550  126.3230   67.4120 O   0  0  0  0  0  0  0  0  0  0  0  0
  130.0620  124.8990   66.0440 C   0  0  0  0  0  0  0  0  0  0  0  0
  129.8000  125.4270   64.3180 S   0  0  0  0  0  0  0  0  0  0  0  0
  130.2920  124.0650   63.2840 C   0  0  0  0  0  0  0  0  0  0  0  0
  129.2890  123.5760   62.5130 N   0  0  0  0  0  0  0  0  0  0  0  0
  129.5490  122.5260   61.7020 C   0  0  0  0  0  0  0  0  0  0  0  0
  128.3790  122.0270   60.8760 C   0  0  0  0  0  0  0  0  0  0  0  0
  130.8060  121.9310   61.6210 C   0  0  0  0  0  0  0  0  0  0  0  0
  131.8610  122.4380   62.3950 C   0  0  0  0  0  0  0  0  0  0  0  0
  133.2470  121.7720   62.2850 C   0  0  0  0  0  0  0  0  0  0  0  0
  134.1490  122.6650   61.8760 F   0  0  0  0  0  0  0  0  0  0  0  0
  133.6750  121.2760   63.4480 F   0  0  0  0  0  0  0  0  0  0  0  0
  133.2040  120.7670   61.4100 F   0  0  0  0  0  0  0  0  0  0  0  0
  131.6070  123.5430   63.2460 C   0  0  0  0  0  0  0  0  0  0  0  0
  132.6880  124.1460   64.0300 C   0  0  0  0  0  0  0  0  0  0  0  0
  133.5430  124.6220   64.6460 N   0  0  0  0  0  0  0  0  0  0  0  0
  129.7610  127.8390   70.9850 C   0  0  0  0  0  0  0  0  0  0  0  0
  130.4910  128.9800   70.7470 O   0  0  0  0  0  0  0  0  0  0  0  0
  131.8520  128.7460   70.4090 C   0  0  0  0  0  0  0  0  0  0  0  0
  129.6290  127.3440   72.2930 C   0  0  0  0  0  0  0  0  0  0  0  0
  130.2460  127.9880   73.3390 O   0  0  0  0  0  0  0  0  0  0  0  0
  129.6470  129.2270   73.6940 C   0  0  0  0  0  0  0  0  0  0  0  0
  1  2  1  0
  2  3  1  0
  3  4  2  0
  4  5  1  0
  5  6  2  0
  6  7  1  0
  7  8  1  0
  8  9  1  0
  9 10  2  0
  9 11  1  0
 11 12  1  0
 12 13  1  0
 13 14  2  0
 14 15  1  0
 15 16  1  0
 15 17  2  0
 17 18  1  0
 18 19  1  0
 19 20  1  0
 19 21  1  0
 19 22  1  0
 18 23  2  0
 23 24  1  0
 24 25  3  0
  6 26  1  0
 26 27  1  0
 27 28  1  0
 26 29  2  0
 29 30  1  0
 30 31  1  0
 29  3  1  0
 23 13  1  0
M  END
>  <Binding energies>  (24) 
[-6.43]

>  <Ligand effiencies>  (24) 
[-0.2009375]

>  <Interactions>  (24) 
["V-B:PRO:540:CA:9854, V-B:ALA:541:CB:9863, V-A:LEU:475:CD2:4258, H-B:GLU:543:OE2:9881, V-B:ALA:541:CA:9861, H-A:GLY:454:N:4049, V-A:ILE:369:CD1:3238, V-A:ILE:369:CG2:3236, H-A:TYR:484:OH:4347, V-A:GLU:543:CB:4906, V-B:HIS:456:CE1:9041, V-B:GLU:543:CB:9877, V-A:HIS:456:CE1:4069, V-B:GLU:543:CG:9878, V-B:GLU:543:CD:9879, V-A:HIS:456:CD2:4067, V-B:PRO:540:C:9852, V-A:ARG:545:CG:4922, V-A:LEU:475:CG:4256, V-A:GLY:454:CA:4048, H-B:GLU:543:OE1:9880, H-B:LYS:547:NZ:9922, V-B:LYS:547:CE:9921, V-A:ILE:369:CB:3235, V-A:ILE:369:CG1:3237, H-A:LYS:547:NZ:4951, V-A:LYS:547:CE:4950, V-A:GLU:543:C:4902, V-A:ARG:545:CA:4919, V-A:GLY:544:C:4912, V-A:LEU:475:CB:4255"]

$$$$
2i_Grossjean_2025
     RDKit          3D

 23 24  0  0  0  0  0  0  0  0999 V2000
  128.8720  126.3470   67.6130 C   0  0  0  0  0  0  0  0  0  0  0  0
  129.2420  126.5920   69.0640 C   0  0  0  0  0  0  0  0  0  0  0  0
  130.1770  127.5590   69.4250 C   0  0  0  0  0  0  0  0  0  0  0  0
  130.4840  127.7480   70.7810 C   0  0  0  0  0  0  0  0  0  0  0  0
  131.5210  128.8210   71.1630 C   0  0  0  0  0  0  0  0  0  0  0  0
  130.9310  129.8020   71.8480 F   0  0  0  0  0  0  0  0  0  0  0  0
  132.4800  128.2830   71.9170 F   0  0  0  0  0  0  0  0  0  0  0  0
  132.1100  129.3720   70.0990 F   0  0  0  0  0  0  0  0  0  0  0  0
  129.8250  126.9420   71.7430 C   0  0  0  0  0  0  0  0  0  0  0  0
  130.1060  127.0990   73.1740 C   0  0  0  0  0  0  0  0  0  0  0  0
  130.3280  127.2230   74.3030 N   0  0  0  0  0  0  0  0  0  0  0  0
  128.8910  125.9830   71.2880 C   0  0  0  0  0  0  0  0  0  0  0  0
  128.0070  124.9080   72.4070 S   0  0  0  0  0  0  0  0  0  0  0  0
  129.0670  123.4760   72.7690 C   0  0  0  0  0  0  0  0  0  0  0  0
  128.2640  122.1820   72.9190 C   0  0  0  0  0  0  0  0  0  0  0  0
  127.5190  122.0490   73.8910 O   0  0  0  0  0  0  0  0  0  0  0  0
  128.4610  121.2530   71.9590 N   0  0  0  0  0  0  0  0  0  0  0  0
  127.8680  120.0040   71.8830 C   0  0  0  0  0  0  0  0  0  0  0  0
  127.4210  119.1520   72.9030 C   0  0  0  0  0  0  0  0  0  0  0  0
  126.9190  118.0530   72.2460 C   0  0  0  0  0  0  0  0  0  0  0  0
  127.0480  118.2370   70.9110 O   0  0  0  0  0  0  0  0  0  0  0  0
  127.6460  119.4800   70.6970 N   0  0  0  0  0  0  0  0  0  0  0  0
  128.6070  125.8160   69.9710 N   0  0  0  0  0  0  0  0  0  0  0  0
  1  2  1  0
  2  3  2  0
  3  4  1  0
  4  5  1  0
  5  6  1  0
  5  7  1  0
  5  8  1  0
  4  9  2  0
  9 10  1  0
 10 11  3  0
  9 12  1  0
 12 13  1  0
 13 14  1  0
 14 15  1  0
 15 16  2  0
 15 17  1  0
 17 18  1  0
 18 19  1  0
 19 20  2  0
 20 21  1  0
 21 22  1  0
 12 23  2  0
 23  2  1  0
 22 18  2  0
M  END
>  <Binding energies>  (25) 
[-6.51]

>  <Ligand effiencies>  (25) 
[-0.27125]

>  <Interactions>  (25) 
["V-A:GLU:543:CB:4906, V-B:GLU:543:CB:9877, V-A:HIS:456:CE1:4069, V-B:GLU:543:CG:9878, V-B:GLU:543:CD:9879, V-A:HIS:456:CD2:4067, V-A:ARG:545:CG:4922, H-B:LYS:547:NZ:9922, H-B:GLU:543:O:9874, V-B:GLU:543:C:9873, V-A:HIS:456:CG:4065, V-B:GLY:544:CA:9885, V-A:TYR:484:CB:4340, H-A:LYS:547:NZ:4951, V-A:GLU:543:CA:4904, V-A:GLU:543:C:4902, V-A:ARG:545:CB:4921, V-A:ARG:545:CA:4919, V-A:GLY:544:C:4912, H-A:HIS:456:NE2:4070, V-A:ARG:545:C:4917, V-A:TYR:484:CG:4341, V-A:TYR:484:CD1:4342, H-A:TYR:484:N:4339, V-A:GLY:544:CA:4914"]

$$$$
2k_Grossjean_2025
     RDKit          3D

 28 28  0  0  0  0  0  0  0  0999 V2000
  123.8970  124.4260   59.3050 C   0  0  0  0  0  0  0  0  0  0  0  0
  123.9340  123.8240   60.5890 O   0  0  0  0  0  0  0  0  0  0  0  0
  124.7880  124.4960   61.5060 C   0  0  0  0  0  0  0  0  0  0  0  0
  125.4410  123.4770   62.4490 C   0  0  0  0  0  0  0  0  0  0  0  0
  126.7320  123.1510   61.9550 O   0  0  0  0  0  0  0  0  0  0  0  0
  127.7260  124.1320   62.2270 C   0  0  0  0  0  0  0  0  0  0  0  0
  129.0870  123.4300   62.3200 C   0  0  0  0  0  0  0  0  0  0  0  0
  130.0860  124.4310   62.4320 O   0  0  0  0  0  0  0  0  0  0  0  0
  131.3250  124.1210   61.8120 C   0  0  0  0  0  0  0  0  0  0  0  0
  132.4500  124.8910   62.5290 C   0  0  0  0  0  0  0  0  0  0  0  0
  132.0880  125.2950   63.8900 N   0  0  0  0  0  0  0  0  0  0  0  0
  132.9310  125.3560   64.9390 C   0  0  0  0  0  0  0  0  0  0  0  0
  134.1340  125.0990   64.8580 O   0  0  0  0  0  0  0  0  0  0  0  0
  132.2970  125.7520   66.2800 C   0  0  0  0  0  0  0  0  0  0  0  0
  130.5310  125.3250   66.4670 S   0  0  0  0  0  0  0  0  0  0  0  0
  129.5270  126.6580   65.8250 C   0  0  0  0  0  0  0  0  0  0  0  0
  129.5330  126.8030   64.4760 N   0  0  0  0  0  0  0  0  0  0  0  0
  128.7990  127.7930   63.9220 C   0  0  0  0  0  0  0  0  0  0  0  0
  128.8680  127.8960   62.4100 C   0  0  0  0  0  0  0  0  0  0  0  0
  128.0240  128.6680   64.6780 C   0  0  0  0  0  0  0  0  0  0  0  0
  127.9960  128.5320   66.0750 C   0  0  0  0  0  0  0  0  0  0  0  0
  127.1290  129.5050   66.8970 C   0  0  0  0  0  0  0  0  0  0  0  0
  126.0600  128.9160   67.4350 F   0  0  0  0  0  0  0  0  0  0  0  0
  127.8460  130.0230   67.8960 F   0  0  0  0  0  0  0  0  0  0  0  0
  126.6930  130.4960   66.1190 F   0  0  0  0  0  0  0  0  0  0  0  0
  128.7680  127.5020   66.6710 C   0  0  0  0  0  0  0  0  0  0  0  0
  128.7780  127.3160   68.1250 C   0  0  0  0  0  0  0  0  0  0  0  0
  128.7860  127.1700   69.2740 N   0  0  0  0  0  0  0  0  0  0  0  0
  1  2  1  0
  2  3  1  0
  3  4  1  0
  4  5  1  0
  5  6  1  0
  6  7  1  0
  7  8  1  0
  8  9  1  0
  9 10  1  0
 10 11  1  0
 11 12  1  0
 12 13  2  0
 12 14  1  0
 14 15  1  0
 15 16  1  0
 16 17  2  0
 17 18  1  0
 18 19  1  0
 18 20  2  0
 20 21  1  0
 21 22  1  0
 22 23  1  0
 22 24  1  0
 22 25  1  0
 21 26  2  0
 26 27  1  0
 27 28  3  0
 26 16  1  0
M  END
>  <Binding energies>  (26) 
[-4.63]

>  <Ligand effiencies>  (26) 
[-0.1596551724137931]

>  <Interactions>  (26) 
["V-B:PRO:540:CB:9856, V-B:ALA:541:CB:9863, V-B:ALA:541:CA:9861, H-B:ALA:541:N:9862, H-A:GLY:454:N:4049, H-A:ARG:545:NE:4924, H-A:ARG:545:NH1:4927, H-A:TYR:484:OH:4347, V-A:ARG:545:CZ:4926, V-B:LEU:363:CA:8156, V-A:GLU:543:CD:4908, V-A:GLU:543:CG:4907, V-A:GLU:543:CB:4906, V-B:HIS:456:CE1:9041, V-A:HIS:456:CE1:4069, V-B:GLU:543:CG:9878, V-B:TYR:484:CE1:9316, V-B:GLU:543:CD:9879, V-B:ASN:362:CB:8147, V-B:ARG:545:CG:9893, H-B:LEU:363:N:8157, V-B:ASP:366:CG:8184, V-B:ALA:541:C:9859, V-B:ASN:362:C:8143, V-B:TYR:484:CZ:9318"]

$$$$
3aa_Grossjean_2025
     RDKit          3D

 34 36  0  0  0  0  0  0  0  0999 V2000
  128.6830  123.4630   73.1350 C   0  0  0  0  0  0  0  0  0  0  0  0
  129.5370  124.4950   73.8790 C   0  0  0  0  0  0  0  0  0  0  0  0
  128.9260  125.7760   73.7790 O   0  0  0  0  0  0  0  0  0  0  0  0
  129.6070  126.8370   73.2750 C   0  0  0  0  0  0  0  0  0  0  0  0
  130.2570  127.6220   73.9720 O   0  0  0  0  0  0  0  0  0  0  0  0
  129.4790  126.9710   71.7840 C   0  0  0  0  0  0  0  0  0  0  0  0
  128.7000  126.0880   71.0230 C   0  0  0  0  0  0  0  0  0  0  0  0
  128.5990  126.2440   69.6420 C   0  0  0  0  0  0  0  0  0  0  0  0
  129.2670  127.2870   68.9980 C   0  0  0  0  0  0  0  0  0  0  0  0
  129.0950  127.3570   67.6010 N   0  0  0  0  0  0  0  0  0  0  0  0
  129.5930  126.5590   66.6310 C   0  0  0  0  0  0  0  0  0  0  0  0
  130.3400  125.5960   66.8110 O   0  0  0  0  0  0  0  0  0  0  0  0
  129.1820  126.9210   65.2040 C   0  0  0  0  0  0  0  0  0  0  0  0
  130.5510  126.6950   64.0280 S   0  0  0  0  0  0  0  0  0  0  0  0
  130.2240  125.1940   63.1310 C   0  0  0  0  0  0  0  0  0  0  0  0
  128.9350  125.0670   62.7360 N   0  0  0  0  0  0  0  0  0  0  0  0
  128.5490  123.9650   62.0430 C   0  0  0  0  0  0  0  0  0  0  0  0
  127.1090  123.9040   61.6290 C   0  0  0  0  0  0  0  0  0  0  0  0
  126.7250  124.2530   60.3250 C   0  0  0  0  0  0  0  0  0  0  0  0
  125.3890  124.1990   59.9330 C   0  0  0  0  0  0  0  0  0  0  0  0
  124.4190  123.7940   60.8440 C   0  0  0  0  0  0  0  0  0  0  0  0
  124.7740  123.4410   62.1410 C   0  0  0  0  0  0  0  0  0  0  0  0
  126.1100  123.4940   62.5290 C   0  0  0  0  0  0  0  0  0  0  0  0
  129.4670  122.9600   61.7210 C   0  0  0  0  0  0  0  0  0  0  0  0
  130.8040  123.0620   62.1340 C   0  0  0  0  0  0  0  0  0  0  0  0
  131.7820  121.9290   61.7700 C   0  0  0  0  0  0  0  0  0  0  0  0
  132.6110  121.6180   62.7690 F   0  0  0  0  0  0  0  0  0  0  0  0
  131.1080  120.8220   61.4540 F   0  0  0  0  0  0  0  0  0  0  0  0
  132.5290  122.2910   60.7260 F   0  0  0  0  0  0  0  0  0  0  0  0
  131.1980  124.2050   62.8710 C   0  0  0  0  0  0  0  0  0  0  0  0
  132.5670  124.3370   63.3780 C   0  0  0  0  0  0  0  0  0  0  0  0
  133.6490  124.4410   63.7780 N   0  0  0  0  0  0  0  0  0  0  0  0
  130.0590  128.1660   69.7520 C   0  0  0  0  0  0  0  0  0  0  0  0
  130.1600  128.0070   71.1300 C   0  0  0  0  0  0  0  0  0  0  0  0
  1  2  1  0
  2  3  1  0
  3  4  1  0
  4  5  2  0
  4  6  1  0
  6  7  2  0
  7  8  1  0
  8  9  2  0
  9 10  1  0
 10 11  1  0
 11 12  2  0
 11 13  1  0
 13 14  1  0
 14 15  1  0
 15 16  2  0
 16 17  1  0
 17 18  1  0
 18 19  2  0
 19 20  1  0
 20 21  2  0
 21 22  1  0
 22 23  2  0
 17 24  2  0
 24 25  1  0
 25 26  1  0
 26 27  1  0
 26 28  1  0
 26 29  1  0
 25 30  2  0
 30 31  1  0
 31 32  3  0
  9 33  1  0
 33 34  2  0
 34  6  1  0
 30 15  1  0
 23 18  1  0
M  END
>  <Binding energies>  (27) 
[-8.21]

>  <Ligand effiencies>  (27) 
[-0.2345714285714286]

>  <Interactions>  (27) 
["V-B:TYR:539:CE2:9847, V-B:PRO:540:CA:9854, V-B:PRO:540:CB:9856, V-B:ALA:541:CB:9863, V-A:LEU:475:CD2:4258, V-B:ALA:541:CA:9861, H-A:GLY:454:N:4049, V-A:ILE:369:CG2:3236, H-A:TYR:484:OH:4347, H-A:GLU:543:OE2:4910, V-A:GLU:543:CD:4908, V-A:GLU:543:CB:4906, V-B:HIS:456:CE1:9041, V-B:GLU:543:CB:9877, V-A:HIS:456:CE1:4069, V-B:GLU:543:CG:9878, V-B:GLU:543:CD:9879, V-A:HIS:456:CD2:4067, V-B:ASN:362:CB:8147, H-B:GLU:543:OE1:9880, H-B:LYS:547:NZ:9922, V-B:LYS:547:CE:9921, V-B:ASN:362:C:8143, H-A:LYS:547:NZ:4951"]

$$$$
3ad_Grossjean_2025
     RDKit          3D

 29 31  0  0  0  0  0  0  0  0999 V2000
  129.4910  127.2950   63.0110 N   0  0  0  0  0  0  0  0  0  0  0  0
  129.3700  127.2220   64.1600 C   0  0  0  0  0  0  0  0  0  0  0  0
  129.2130  127.1330   65.6150 C   0  0  0  0  0  0  0  0  0  0  0  0
  128.3850  128.0460   66.3110 C   0  0  0  0  0  0  0  0  0  0  0  0
  127.5730  129.1450   65.5990 C   0  0  0  0  0  0  0  0  0  0  0  0
  126.6560  128.6520   64.7640 F   0  0  0  0  0  0  0  0  0  0  0  0
  126.9370  129.8960   66.4990 F   0  0  0  0  0  0  0  0  0  0  0  0
  128.3860  129.9230   64.8820 F   0  0  0  0  0  0  0  0  0  0  0  0
  128.3060  127.9470   67.7090 C   0  0  0  0  0  0  0  0  0  0  0  0
  129.0340  126.9670   68.3910 C   0  0  0  0  0  0  0  0  0  0  0  0
  128.9980  126.8260   69.8840 C   0  0  0  0  0  0  0  0  0  0  0  0
  128.3280  125.7500   70.4870 C   0  0  0  0  0  0  0  0  0  0  0  0
  128.2910  125.6130   71.8720 C   0  0  0  0  0  0  0  0  0  0  0  0
  128.9280  126.5540   72.6750 C   0  0  0  0  0  0  0  0  0  0  0  0
  129.6010  127.6270   72.1030 C   0  0  0  0  0  0  0  0  0  0  0  0
  129.6360  127.7600   70.7170 C   0  0  0  0  0  0  0  0  0  0  0  0
  129.8310  126.0980   67.7190 N   0  0  0  0  0  0  0  0  0  0  0  0
  129.9080  126.1610   66.3690 C   0  0  0  0  0  0  0  0  0  0  0  0
  130.9880  124.9390   65.6580 S   0  0  0  0  0  0  0  0  0  0  0  0
  132.5760  125.7550   65.3170 C   0  0  0  0  0  0  0  0  0  0  0  0
  133.0870  125.4580   63.9050 C   0  0  0  0  0  0  0  0  0  0  0  0
  134.2160  124.9870   63.7650 O   0  0  0  0  0  0  0  0  0  0  0  0
  132.2280  125.7490   62.9050 N   0  0  0  0  0  0  0  0  0  0  0  0
  132.3760  125.5870   61.5150 C   0  0  0  0  0  0  0  0  0  0  0  0
  131.5870  126.4240   60.7200 C   0  0  0  0  0  0  0  0  0  0  0  0
  131.6530  126.3440   59.3320 C   0  0  0  0  0  0  0  0  0  0  0  0
  132.5070  125.4220   58.7340 C   0  0  0  0  0  0  0  0  0  0  0  0
  133.2940  124.5780   59.5130 C   0  0  0  0  0  0  0  0  0  0  0  0
  133.2310  124.6540   60.9020 C   0  0  0  0  0  0  0  0  0  0  0  0
  1  2  3  0
  2  3  1  0
  3  4  2  0
  4  5  1  0
  5  6  1  0
  5  7  1  0
  5  8  1  0
  4  9  1  0
  9 10  2  0
 10 11  1  0
 11 12  2  0
 12 13  1  0
 13 14  2  0
 14 15  1  0
 15 16  2  0
 10 17  1  0
 17 18  2  0
 18 19  1  0
 19 20  1  0
 20 21  1  0
 21 22  2  0
 21 23  1  0
 23 24  1  0
 24 25  2  0
 25 26  1  0
 26 27  2  0
 27 28  1  0
 28 29  2  0
 18  3  1  0
 29 24  1  0
 16 11  1  0
M  END
>  <Binding energies>  (28) 
[-6.94]

>  <Ligand effiencies>  (28) 
[-0.23133333333333334]

>  <Interactions>  (28) 
["H-A:GLY:454:N:4049, H-A:ARG:545:NH1:4927, V-A:ASP:366:CG:3212, V-A:ILE:369:CD1:3238, V-A:ASP:366:CB:3211, V-A:ASP:366:CA:3209, V-A:ILE:369:CG2:3236, H-A:TYR:484:OH:4347, V-A:ARG:545:CZ:4926, V-A:GLU:543:CD:4908, V-A:GLU:543:CG:4907, V-B:HIS:456:CE1:9041, V-B:GLU:543:CB:9877, V-A:HIS:456:CE1:4069, V-B:GLU:543:CG:9878, V-B:HIS:456:CD2:9039, V-B:GLU:543:CD:9879, V-B:GLU:543:C:9873, V-A:ILE:369:CB:3235"]

$$$$
3ai_Grossjean_2025
     RDKit          3D

 28 30  0  0  0  0  0  0  0  0999 V2000
  133.3430  122.7310   61.6990 N   0  0  0  0  0  0  0  0  0  0  0  0
  132.3190  122.7620   61.1620 C   0  0  0  0  0  0  0  0  0  0  0  0
  131.0200  122.8010   60.4820 C   0  0  0  0  0  0  0  0  0  0  0  0
  130.0670  121.7730   60.6830 C   0  0  0  0  0  0  0  0  0  0  0  0
  130.3070  120.5920   61.6430 C   0  0  0  0  0  0  0  0  0  0  0  0
  131.4630  119.9650   61.4150 F   0  0  0  0  0  0  0  0  0  0  0  0
  130.3290  121.0290   62.9040 F   0  0  0  0  0  0  0  0  0  0  0  0
  129.3330  119.6910   61.5150 F   0  0  0  0  0  0  0  0  0  0  0  0
  128.8590  121.8310   59.9720 C   0  0  0  0  0  0  0  0  0  0  0  0
  128.6090  122.8830   59.0850 C   0  0  0  0  0  0  0  0  0  0  0  0
  127.3410  122.9900   58.2930 C   0  0  0  0  0  0  0  0  0  0  0  0
  126.2470  123.7170   58.7870 C   0  0  0  0  0  0  0  0  0  0  0  0
  125.0680  123.8240   58.0550 C   0  0  0  0  0  0  0  0  0  0  0  0
  124.9680  123.2050   56.8130 C   0  0  0  0  0  0  0  0  0  0  0  0
  126.0390  122.4810   56.3000 C   0  0  0  0  0  0  0  0  0  0  0  0
  127.2160  122.3760   57.0350 C   0  0  0  0  0  0  0  0  0  0  0  0
  129.5290  123.8620   58.8900 N   0  0  0  0  0  0  0  0  0  0  0  0
  130.6940  123.8410   59.5820 C   0  0  0  0  0  0  0  0  0  0  0  0
  131.7640  125.2150   59.2130 S   0  0  0  0  0  0  0  0  0  0  0  0
  131.5030  126.4880   60.4940 C   0  0  0  0  0  0  0  0  0  0  0  0
  131.5260  125.9680   61.9390 C   0  0  0  0  0  0  0  0  0  0  0  0
  130.5190  125.4660   62.4450 O   0  0  0  0  0  0  0  0  0  0  0  0
  132.7120  126.1140   62.5730 N   0  0  0  0  0  0  0  0  0  0  0  0
  133.0240  125.7330   63.8710 C   0  0  0  0  0  0  0  0  0  0  0  0
  132.2060  126.0120   64.9650 C   0  0  0  0  0  0  0  0  0  0  0  0
  132.8630  125.4770   66.0490 C   0  0  0  0  0  0  0  0  0  0  0  0
  134.0170  124.9060   65.6310 O   0  0  0  0  0  0  0  0  0  0  0  0
  134.1070  125.0740   64.2480 N   0  0  0  0  0  0  0  0  0  0  0  0
  1  2  3  0
  2  3  1  0
  3  4  2  0
  4  5  1  0
  5  6  1  0
  5  7  1  0
  5  8  1  0
  4  9  1  0
  9 10  2  0
 10 11  1  0
 11 12  2  0
 12 13  1  0
 13 14  2  0
 14 15  1  0
 15 16  2  0
 10 17  1  0
 17 18  2  0
 18 19  1  0
 19 20  1  0
 20 21  1  0
 21 22  2  0
 21 23  1  0
 23 24  1  0
 24 25  1  0
 25 26  2  0
 26 27  1  0
 27 28  1  0
 18  3  1  0
 28 24  2  0
 16 11  1  0
M  END
>  <Binding energies>  (29) 
[-7.97]

>  <Ligand effiencies>  (29) 
[-0.27482758620689657]

>  <Interactions>  (29) 
["V-A:PRO:482:CG:4326, V-B:TYR:539:CE2:9847, V-B:PRO:540:CA:9854, V-B:TYR:539:CD2:9845, V-B:LEU:363:CD1:8160, V-B:PRO:540:CD:9858, V-B:TYR:539:CG:9843, V-B:PRO:540:CB:9856, V-B:ALA:541:CB:9863, V-B:TYR:539:C:9838, V-A:LEU:475:CD2:4258, V-B:PRO:540:N:9855, V-B:TYR:539:CD1:9844, V-B:ALA:541:CA:9861, V-B:TYR:539:CE1:9846, V-A:PRO:482:CB:4325, H-A:ASP:366:OD2:3214, V-B:TYR:539:CZ:9848, H-A:GLY:454:N:4049, H-A:ARG:545:NE:4924, H-A:ARG:545:NH1:4927, V-A:ASP:366:CG:3212, H-A:ASP:366:OD1:3213, V-A:ILE:369:CG2:3236, H-B:TYR:539:OH:9849, H-A:TYR:484:OH:4347, V-A:ARG:545:CZ:4926, V-B:MET:535:CE:9806, V-A:HIS:456:CE1:4069, V-B:PRO:540:C:9852, V-A:LEU:475:CD1:4257, V-A:ARG:545:CD:4923, V-A:TRP:381:CH2:3371"]

$$$$
3aj_Grossjean_2025
     RDKit          3D

 28 30  0  0  0  0  0  0  0  0999 V2000
  133.3510  122.1280   62.0110 N   0  0  0  0  0  0  0  0  0  0  0  0
  132.3470  122.2630   61.4520 C   0  0  0  0  0  0  0  0  0  0  0  0
  131.0740  122.4310   60.7450 C   0  0  0  0  0  0  0  0  0  0  0  0
  130.0610  121.4440   60.8340 C   0  0  0  0  0  0  0  0  0  0  0  0
  130.2090  120.1750   61.6950 C   0  0  0  0  0  0  0  0  0  0  0  0
  131.2730  119.4420   61.3580 F   0  0  0  0  0  0  0  0  0  0  0  0
  130.3410  120.5080   62.9800 F   0  0  0  0  0  0  0  0  0  0  0  0
  129.1320  119.4020   61.5580 F   0  0  0  0  0  0  0  0  0  0  0  0
  128.8790  121.6300   60.1000 C   0  0  0  0  0  0  0  0  0  0  0  0
  128.7140  122.7650   59.2990 C   0  0  0  0  0  0  0  0  0  0  0  0
  127.4780  123.0080   58.4890 C   0  0  0  0  0  0  0  0  0  0  0  0
  127.3200  122.4130   57.2280 C   0  0  0  0  0  0  0  0  0  0  0  0
  126.1710  122.6300   56.4710 C   0  0  0  0  0  0  0  0  0  0  0  0
  125.1630  123.4500   56.9680 C   0  0  0  0  0  0  0  0  0  0  0  0
  125.2950  124.0500   58.2150 C   0  0  0  0  0  0  0  0  0  0  0  0
  126.4430  123.8280   58.9690 C   0  0  0  0  0  0  0  0  0  0  0  0
  129.6910  123.7040   59.2120 N   0  0  0  0  0  0  0  0  0  0  0  0
  130.8310  123.5590   59.9290 C   0  0  0  0  0  0  0  0  0  0  0  0
  131.9840  124.8970   59.7070 S   0  0  0  0  0  0  0  0  0  0  0  0
  131.2580  126.3920   60.4600 C   0  0  0  0  0  0  0  0  0  0  0  0
  131.5350  126.5630   61.9610 C   0  0  0  0  0  0  0  0  0  0  0  0
  131.0070  127.4760   62.6010 O   0  0  0  0  0  0  0  0  0  0  0  0
  132.3790  125.6470   62.4870 N   0  0  0  0  0  0  0  0  0  0  0  0
  132.7930  125.5650   63.8100 C   0  0  0  0  0  0  0  0  0  0  0  0
  134.0120  125.3720   64.2640 N   0  0  0  0  0  0  0  0  0  0  0  0
  134.0420  125.3520   65.5820 C   0  0  0  0  0  0  0  0  0  0  0  0
  132.8220  125.5310   66.2280 C   0  0  0  0  0  0  0  0  0  0  0  0
  131.5760  125.7340   65.0340 S   0  0  0  0  0  0  0  0  0  0  0  0
  1  2  3  0
  2  3  1  0
  3  4  2  0
  4  5  1  0
  5  6  1  0
  5  7  1  0
  5  8  1  0
  4  9  1  0
  9 10  2  0
 10 11  1  0
 11 12  2  0
 12 13  1  0
 13 14  2  0
 14 15  1  0
 15 16  2  0
 10 17  1  0
 17 18  2  0
 18 19  1  0
 19 20  1  0
 20 21  1  0
 21 22  2  0
 21 23  1  0
 23 24  1  0
 24 25  2  0
 25 26  1  0
 26 27  2  0
 27 28  1  0
 18  3  1  0
 28 24  1  0
 16 11  1  0
M  END
>  <Binding energies>  (30) 
[-7.17]

>  <Ligand effiencies>  (30) 
[-0.24724137931034482]

>  <Interactions>  (30) 
["V-A:PRO:482:CG:4326, V-B:TYR:539:CE2:9847, V-B:PRO:540:CA:9854, V-B:TYR:539:CD2:9845, V-B:LEU:363:CD1:8160, V-B:PRO:540:CD:9858, V-B:TYR:539:CG:9843, V-B:PRO:540:CB:9856, V-B:ALA:541:CB:9863, V-B:TYR:539:C:9838, V-A:LEU:475:CD2:4258, V-B:PRO:540:N:9855, V-B:TYR:539:CD1:9844, V-B:ALA:541:CA:9861, V-B:TYR:539:CE1:9846, V-A:PRO:482:CB:4325, V-B:TYR:539:CZ:9848, H-A:ARG:545:NH2:4928, H-A:GLY:454:N:4049, H-A:ARG:545:NE:4924, H-A:ARG:545:NH1:4927, V-A:ASP:366:CG:3212, H-A:ASP:366:OD1:3213, V-A:ILE:369:CG2:3236, V-A:ARG:545:CZ:4926, V-A:HIS:456:CE1:4069, V-B:PRO:540:C:9852, V-A:LEU:475:CG:4256, V-A:LEU:475:CD1:4257, V-A:ARG:545:CD:4923, V-A:GLY:454:CA:4048, V-A:GLY:453:C:4041, V-A:GLY:453:CA:4043, V-A:TRP:381:CH2:3371, V-A:TRP:381:CZ2:3369"]

$$$$
3ak_Grossjean_2025
     RDKit          3D

 33 34  0  0  0  0  0  0  0  0999 V2000
  125.2840  122.4070   56.2590 C   0  0  0  0  0  0  0  0  0  0  0  0
  126.6210  121.9510   56.3950 O   0  0  0  0  0  0  0  0  0  0  0  0
  127.5230  122.9630   56.8200 C   0  0  0  0  0  0  0  0  0  0  0  0
  127.5490  122.9980   58.3530 C   0  0  0  0  0  0  0  0  0  0  0  0
  128.3230  121.9010   58.8270 O   0  0  0  0  0  0  0  0  0  0  0  0
  128.7950  122.0150   60.1670 C   0  0  0  0  0  0  0  0  0  0  0  0
  128.3170  123.2900   60.8860 C   0  0  0  0  0  0  0  0  0  0  0  0
  127.1930  122.9750   61.6970 O   0  0  0  0  0  0  0  0  0  0  0  0
  126.0940  123.8600   61.5280 C   0  0  0  0  0  0  0  0  0  0  0  0
  126.5110  125.0660   60.6670 C   0  0  0  0  0  0  0  0  0  0  0  0
  126.5060  126.3360   61.3960 N   0  0  0  0  0  0  0  0  0  0  0  0
  127.5830  126.9450   61.9300 C   0  0  0  0  0  0  0  0  0  0  0  0
  128.7220  126.4860   61.8390 O   0  0  0  0  0  0  0  0  0  0  0  0
  127.3850  128.2700   62.6860 C   0  0  0  0  0  0  0  0  0  0  0  0
  128.7740  128.8240   63.7430 S   0  0  0  0  0  0  0  0  0  0  0  0
  129.1310  127.5440   64.9360 C   0  0  0  0  0  0  0  0  0  0  0  0
  129.8130  126.4720   64.4610 N   0  0  0  0  0  0  0  0  0  0  0  0
  130.1250  125.4440   65.2900 C   0  0  0  0  0  0  0  0  0  0  0  0
  130.8810  124.3010   64.6810 C   0  0  0  0  0  0  0  0  0  0  0  0
  132.2240  124.4500   64.3010 C   0  0  0  0  0  0  0  0  0  0  0  0
  132.9310  123.3910   63.7380 C   0  0  0  0  0  0  0  0  0  0  0  0
  132.3030  122.1640   63.5490 C   0  0  0  0  0  0  0  0  0  0  0  0
  130.9750  121.9890   63.9190 C   0  0  0  0  0  0  0  0  0  0  0  0
  130.2700  123.0500   64.4820 C   0  0  0  0  0  0  0  0  0  0  0  0
  129.7680  125.4800   66.6420 C   0  0  0  0  0  0  0  0  0  0  0  0
  129.0640  126.5770   67.1600 C   0  0  0  0  0  0  0  0  0  0  0  0
  128.6850  126.5790   68.6540 C   0  0  0  0  0  0  0  0  0  0  0  0
  129.1390  125.4720   69.2420 F   0  0  0  0  0  0  0  0  0  0  0  0
  129.2200  127.6400   69.2600 F   0  0  0  0  0  0  0  0  0  0  0  0
  127.3660  126.6270   68.8540 F   0  0  0  0  0  0  0  0  0  0  0  0
  128.7320  127.6410   66.2870 C   0  0  0  0  0  0  0  0  0  0  0  0
  127.9970  128.8130   66.7730 C   0  0  0  0  0  0  0  0  0  0  0  0
  127.4150  129.7380   67.1560 N   0  0  0  0  0  0  0  0  0  0  0  0
  1  2  1  0
  2  3  1  0
  3  4  1  0
  4  5  1  0
  5  6  1  0
  6  7  1  0
  7  8  1  0
  8  9  1  0
  9 10  1  0
 10 11  1  0
 11 12  1  0
 12 13  2  0
 12 14  1  0
 14 15  1  0
 15 16  1  0
 16 17  2  0
 17 18  1  0
 18 19  1  0
 19 20  2  0
 20 21  1  0
 21 22  2  0
 22 23  1  0
 23 24  2  0
 18 25  2  0
 25 26  1  0
 26 27  1  0
 27 28  1  0
 27 29  1  0
 27 30  1  0
 26 31  2  0
 31 32  1  0
 32 33  3  0
 31 16  1  0
 24 19  1  0
M  END
>  <Binding energies>  (31) 
[-6.53]

>  <Ligand effiencies>  (31) 
[-0.19205882352941178]

>  <Interactions>  (31) 
["H-B:ASP:366:OD2:8186, V-B:TYR:539:CE2:9847, V-B:PRO:540:CA:9854, V-B:TYR:539:CD2:9845, V-B:LEU:363:CD1:8160, V-B:PRO:540:CD:9858, V-B:TYR:539:CG:9843, V-B:PRO:540:CB:9856, V-B:ALA:541:CB:9863, V-B:TYR:539:C:9838, V-A:LEU:475:CD2:4258, H-B:GLU:543:OE2:9881, V-B:PRO:540:N:9855, V-B:TYR:539:CD1:9844, V-B:TYR:539:CE1:9846, H-B:ALA:541:N:9862, V-B:TYR:539:CZ:9848, V-B:MET:535:CE:9806, V-A:GLU:543:CD:4908, V-A:GLU:543:CG:4907, V-B:HIS:456:CE1:9041, V-B:GLU:543:CB:9877, V-A:HIS:456:CE1:4069, V-B:GLU:543:CG:9878, V-B:GLU:543:CD:9879, V-A:LEU:475:CD1:4257, V-A:GLY:454:CA:4048, H-B:TYR:484:OH:9319, H-B:TYR:539:N:9841, H-B:ASP:366:OD1:8185"]

$$$$
3bk_Grossjean_2025
     RDKit          3D

 30 31  0  0  0  0  0  0  0  0999 V2000
  127.1880  122.7240   57.6570 C   0  0  0  0  0  0  0  0  0  0  0  0
  125.8110  122.9230   57.9380 O   0  0  0  0  0  0  0  0  0  0  0  0
  125.4740  124.2810   58.1870 C   0  0  0  0  0  0  0  0  0  0  0  0
  124.2450  124.3470   59.1050 C   0  0  0  0  0  0  0  0  0  0  0  0
  124.4590  123.5170   60.2380 O   0  0  0  0  0  0  0  0  0  0  0  0
  124.6200  124.2360   61.4540 C   0  0  0  0  0  0  0  0  0  0  0  0
  125.6350  123.5060   62.3430 C   0  0  0  0  0  0  0  0  0  0  0  0
  126.6520  122.9370   61.5290 O   0  0  0  0  0  0  0  0  0  0  0  0
  127.9700  123.1630   62.0130 C   0  0  0  0  0  0  0  0  0  0  0  0
  128.5280  124.4520   61.3930 C   0  0  0  0  0  0  0  0  0  0  0  0
  127.9900  125.6550   62.0300 N   0  0  0  0  0  0  0  0  0  0  0  0
  127.4460  126.7020   61.3880 C   0  0  0  0  0  0  0  0  0  0  0  0
  127.3180  126.7620   60.1640 O   0  0  0  0  0  0  0  0  0  0  0  0
  126.9440  127.8540   62.2620 C   0  0  0  0  0  0  0  0  0  0  0  0
  128.3050  128.6820   63.1440 S   0  0  0  0  0  0  0  0  0  0  0  0
  128.7760  127.6890   64.5500 C   0  0  0  0  0  0  0  0  0  0  0  0
  129.5130  126.5830   64.2750 N   0  0  0  0  0  0  0  0  0  0  0  0
  129.9140  125.7640   65.2830 C   0  0  0  0  0  0  0  0  0  0  0  0
  130.7420  124.5770   64.8940 C   0  0  0  0  0  0  0  0  0  0  0  0
  132.0860  124.7300   64.5190 C   0  0  0  0  0  0  0  0  0  0  0  0
  132.8580  123.6310   64.1510 C   0  0  0  0  0  0  0  0  0  0  0  0
  132.2940  122.3590   64.1540 C   0  0  0  0  0  0  0  0  0  0  0  0
  130.9660  122.1790   64.5260 C   0  0  0  0  0  0  0  0  0  0  0  0
  130.1980  123.2810   64.8950 C   0  0  0  0  0  0  0  0  0  0  0  0
  129.5830  126.0490   66.6130 C   0  0  0  0  0  0  0  0  0  0  0  0
  128.8230  127.1840   66.9150 C   0  0  0  0  0  0  0  0  0  0  0  0
  128.4830  127.4580   68.3790 C   0  0  0  0  0  0  0  0  0  0  0  0
  128.4030  128.0320   65.8680 C   0  0  0  0  0  0  0  0  0  0  0  0
  127.6080  129.2290   66.1550 C   0  0  0  0  0  0  0  0  0  0  0  0
  126.9800  130.1750   66.3810 N   0  0  0  0  0  0  0  0  0  0  0  0
  1  2  1  0
  2  3  1  0
  3  4  1  0
  4  5  1  0
  5  6  1  0
  6  7  1  0
  7  8  1  0
  8  9  1  0
  9 10  1  0
 10 11  1  0
 11 12  1  0
 12 13  2  0
 12 14  1  0
 14 15  1  0
 15 16  1  0
 16 17  2  0
 17 18  1  0
 18 19  1  0
 19 20  2  0
 20 21  1  0
 21 22  2  0
 22 23  1  0
 23 24  2  0
 18 25  2  0
 25 26  1  0
 26 27  1  0
 26 28  2  0
 28 29  1  0
 29 30  3  0
 28 16  1  0
 24 19  1  0
M  END
>  <Binding energies>  (32) 
[-5.85]

>  <Ligand effiencies>  (32) 
[-0.18870967741935482]

>  <Interactions>  (32) 
["V-B:PRO:540:CA:9854, V-B:PRO:540:CB:9856, V-B:ALA:541:CB:9863, V-B:TYR:539:C:9838, V-A:LEU:475:CD2:4258, H-B:GLU:543:OE2:9881, V-B:PRO:540:N:9855, V-B:ALA:541:CA:9861, H-B:ALA:541:N:9862, V-B:LEU:363:CA:8156, V-A:GLU:543:CD:4908, V-A:GLU:543:CG:4907, V-B:HIS:456:CE1:9041, V-B:GLU:543:CB:9877, V-A:TYR:484:CZ:4346, V-B:GLU:543:CG:9878, V-B:GLU:543:CD:9879, V-A:TYR:484:CE1:4344, V-B:ASN:362:CB:8147, V-A:LEU:475:CD1:4257, V-A:GLY:454:CA:4048, H-B:TYR:484:OH:9319, V-B:ASN:362:C:8143"]

$$$$
3cb_Grossjean_2025
     RDKit          3D

 30 32  0  0  0  0  0  0  0  0999 V2000
  129.7190  129.5770   73.1010 C   0  0  0  0  0  0  0  0  0  0  0  0
  130.2670  128.2720   73.2100 O   0  0  0  0  0  0  0  0  0  0  0  0
  129.5120  127.1730   72.9560 C   0  0  0  0  0  0  0  0  0  0  0  0
  128.9880  126.4890   73.8410 O   0  0  0  0  0  0  0  0  0  0  0  0
  129.3800  126.8690   71.4910 C   0  0  0  0  0  0  0  0  0  0  0  0
  130.0180  127.6420   70.5100 C   0  0  0  0  0  0  0  0  0  0  0  0
  129.8770  127.3310   69.1610 C   0  0  0  0  0  0  0  0  0  0  0  0
  129.0930  126.2480   68.7620 C   0  0  0  0  0  0  0  0  0  0  0  0
  129.0220  126.0230   67.3730 N   0  0  0  0  0  0  0  0  0  0  0  0
  129.9830  125.6350   66.5060 C   0  0  0  0  0  0  0  0  0  0  0  0
  131.1490  125.3820   66.8130 O   0  0  0  0  0  0  0  0  0  0  0  0
  129.5110  125.5040   65.0500 C   0  0  0  0  0  0  0  0  0  0  0  0
  129.5030  123.8010   64.3940 S   0  0  0  0  0  0  0  0  0  0  0  0
  129.9840  123.8740   62.6810 C   0  0  0  0  0  0  0  0  0  0  0  0
  131.2930  124.1770   62.5010 N   0  0  0  0  0  0  0  0  0  0  0  0
  131.7710  124.2600   61.2390 C   0  0  0  0  0  0  0  0  0  0  0  0
  133.2460  124.5900   61.1140 C   0  0  0  0  0  0  0  0  0  0  0  0
  130.9720  124.0520   60.1190 C   0  0  0  0  0  0  0  0  0  0  0  0
  129.6130  123.7540   60.2800 C   0  0  0  0  0  0  0  0  0  0  0  0
  128.7950  123.5460   59.0460 C   0  0  0  0  0  0  0  0  0  0  0  0
  128.0450  122.3730   58.8880 C   0  0  0  0  0  0  0  0  0  0  0  0
  127.2720  122.1750   57.7470 C   0  0  0  0  0  0  0  0  0  0  0  0
  127.2430  123.1530   56.7570 C   0  0  0  0  0  0  0  0  0  0  0  0
  127.9760  124.3280   56.9010 C   0  0  0  0  0  0  0  0  0  0  0  0
  128.7470  124.5240   58.0440 C   0  0  0  0  0  0  0  0  0  0  0  0
  129.0920  123.6760   61.5980 C   0  0  0  0  0  0  0  0  0  0  0  0
  127.6590  123.4600   61.8240 C   0  0  0  0  0  0  0  0  0  0  0  0
  126.5290  123.2890   62.0020 N   0  0  0  0  0  0  0  0  0  0  0  0
  128.4540  125.4670   69.7370 C   0  0  0  0  0  0  0  0  0  0  0  0
  128.5970  125.7780   71.0870 C   0  0  0  0  0  0  0  0  0  0  0  0
  1  2  1  0
  2  3  1  0
  3  4  2  0
  3  5  1  0
  5  6  2  0
  6  7  1  0
  7  8  2  0
  8  9  1  0
  9 10  1  0
 10 11  2  0
 10 12  1  0
 12 13  1  0
 13 14  1  0
 14 15  2  0
 15 16  1  0
 16 17  1  0
 16 18  2  0
 18 19  1  0
 19 20  1  0
 20 21  2  0
 21 22  1  0
 22 23  2  0
 23 24  1  0
 24 25  2  0
 19 26  2  0
 26 27  1  0
 27 28  3  0
  8 29  1  0
 29 30  2  0
 30  5  1  0
 26 14  1  0
 25 20  1  0
M  END
>  <Binding energies>  (33) 
[-8.15]

>  <Ligand effiencies>  (33) 
[-0.26290322580645165]

>  <Interactions>  (33) 
["V-B:TYR:539:CE2:9847, V-B:PRO:540:CA:9854, V-B:TYR:539:CD2:9845, V-B:PRO:540:CD:9858, V-B:TYR:539:CG:9843, V-B:PRO:540:CB:9856, V-B:ALA:541:CB:9863, V-B:TYR:539:C:9838, H-B:GLU:543:OE2:9881, V-B:PRO:540:N:9855, V-B:TYR:539:CD1:9844, V-B:TYR:539:CE1:9846, H-B:ALA:541:N:9862, V-B:TYR:539:CA:9840, V-B:TYR:539:CZ:9848, V-A:ASP:366:CG:3212, V-A:ILE:369:CD1:3238, V-A:ILE:369:CG2:3236, H-A:TYR:484:OH:4347, V-B:GLU:543:CB:9877, V-A:HIS:456:CE1:4069, V-B:GLU:543:CG:9878, V-B:GLU:543:CD:9879, H-B:GLU:543:OE1:9880, H-B:LYS:547:NZ:9922, V-B:GLU:543:CA:9875, V-B:GLU:543:C:9873, H-A:LYS:547:NZ:4951"]

$$$$
3ch_Grossjean_2025
     RDKit          3D

 32 34  0  0  0  0  0  0  0  0999 V2000
  129.8880  129.9530   73.2630 C   0  0  0  0  0  0  0  0  0  0  0  0
  130.2570  128.5920   73.4580 O   0  0  0  0  0  0  0  0  0  0  0  0
  129.7480  127.6200   72.6160 C   0  0  0  0  0  0  0  0  0  0  0  0
  129.7990  127.6900   71.2140 C   0  0  0  0  0  0  0  0  0  0  0  0
  129.2700  126.6600   70.4230 C   0  0  0  0  0  0  0  0  0  0  0  0
  129.2790  126.6380   69.0150 N   0  0  0  0  0  0  0  0  0  0  0  0
  128.9850  127.6200   68.1350 C   0  0  0  0  0  0  0  0  0  0  0  0
  128.6530  128.7680   68.4310 O   0  0  0  0  0  0  0  0  0  0  0  0
  129.1290  127.2480   66.6600 C   0  0  0  0  0  0  0  0  0  0  0  0
  129.5030  125.4850   66.4300 S   0  0  0  0  0  0  0  0  0  0  0  0
  131.0120  125.4200   65.4880 C   0  0  0  0  0  0  0  0  0  0  0  0
  132.1350  125.4090   66.2490 N   0  0  0  0  0  0  0  0  0  0  0  0
  133.3350  125.3680   65.6280 C   0  0  0  0  0  0  0  0  0  0  0  0
  134.5490  125.3640   66.5370 C   0  0  0  0  0  0  0  0  0  0  0  0
  133.4630  125.3380   64.2420 C   0  0  0  0  0  0  0  0  0  0  0  0
  132.3140  125.3400   63.4380 C   0  0  0  0  0  0  0  0  0  0  0  0
  132.5000  125.3170   61.9550 C   0  0  0  0  0  0  0  0  0  0  0  0
  131.7630  126.1850   61.1410 C   0  0  0  0  0  0  0  0  0  0  0  0
  131.9250  126.1640   59.7570 C   0  0  0  0  0  0  0  0  0  0  0  0
  132.8230  125.2680   59.1830 C   0  0  0  0  0  0  0  0  0  0  0  0
  133.5580  124.3940   59.9780 C   0  0  0  0  0  0  0  0  0  0  0  0
  133.3930  124.4170   61.3610 C   0  0  0  0  0  0  0  0  0  0  0  0
  131.0470  125.3630   64.0750 C   0  0  0  0  0  0  0  0  0  0  0  0
  129.8130  125.2720   63.2890 C   0  0  0  0  0  0  0  0  0  0  0  0
  128.8380  125.2020   62.6690 N   0  0  0  0  0  0  0  0  0  0  0  0
  128.6690  125.5650   71.0460 C   0  0  0  0  0  0  0  0  0  0  0  0
  128.6030  125.4730   72.4450 C   0  0  0  0  0  0  0  0  0  0  0  0
  128.0290  124.4120   73.1240 O   0  0  0  0  0  0  0  0  0  0  0  0
  128.6790  123.1450   73.1230 C   0  0  0  0  0  0  0  0  0  0  0  0
  129.1440  126.5080   73.2180 C   0  0  0  0  0  0  0  0  0  0  0  0
  129.1020  126.4220   74.5890 O   0  0  0  0  0  0  0  0  0  0  0  0
  130.2450  125.8050   75.1660 C   0  0  0  0  0  0  0  0  0  0  0  0
  1  2  1  0
  2  3  1  0
  3  4  2  0
  4  5  1  0
  5  6  1  0
  6  7  1  0
  7  8  2  0
  7  9  1  0
  9 10  1  0
 10 11  1  0
 11 12  2  0
 12 13  1  0
 13 14  1  0
 13 15  2  0
 15 16  1  0
 16 17  1  0
 17 18  2  0
 18 19  1  0
 19 20  2  0
 20 21  1  0
 21 22  2  0
 16 23  2  0
 23 24  1  0
 24 25  3  0
  5 26  2  0
 26 27  1  0
 27 28  1  0
 28 29  1  0
 27 30  2  0
 30 31  1  0
 31 32  1  0
 30  3  1  0
 23 11  1  0
 22 17  1  0
M  END
>  <Binding energies>  (34) 
[-7.84]

>  <Ligand effiencies>  (34) 
[-0.23757575757575758]

>  <Interactions>  (34) 
["V-A:ASP:366:CG:3212, V-A:ILE:369:CD1:3238, V-A:ASP:366:CB:3211, V-A:ASP:366:CA:3209, V-A:ILE:369:CG2:3236, H-A:TYR:484:OH:4347, V-A:ARG:545:CZ:4926, V-A:GLU:543:CD:4908, V-B:HIS:456:CE1:9041, V-A:HIS:456:CE1:4069, V-B:GLU:543:CD:9879, V-A:HIS:456:CD2:4067, V-A:ARG:545:CG:4922, V-A:ARG:545:CD:4923, V-A:GLY:454:CA:4048, H-B:LYS:547:NZ:9922, V-B:LYS:547:CE:9921, V-A:GLY:453:C:4041, V-A:GLY:453:CA:4043, V-A:ILE:369:CB:3235, H-A:LYS:547:NZ:4951, V-A:LYS:547:CE:4950, H-A:HIS:456:NE2:4070"]

$$$$
3ci_Grossjean_2025
     RDKit          3D

 25 27  0  0  0  0  0  0  0  0999 V2000
  130.2260  120.8620   61.5550 C   0  0  0  0  0  0  0  0  0  0  0  0
  129.9490  121.9440   60.5280 C   0  0  0  0  0  0  0  0  0  0  0  0
  128.7550  121.9860   59.8150 C   0  0  0  0  0  0  0  0  0  0  0  0
  128.5380  123.0150   58.8880 C   0  0  0  0  0  0  0  0  0  0  0  0
  127.2360  123.0300   58.1560 C   0  0  0  0  0  0  0  0  0  0  0  0
  127.0940  122.3640   56.9320 C   0  0  0  0  0  0  0  0  0  0  0  0
  125.8800  122.3870   56.2510 C   0  0  0  0  0  0  0  0  0  0  0  0
  124.8020  123.0850   56.7880 C   0  0  0  0  0  0  0  0  0  0  0  0
  124.9290  123.7600   58.0000 C   0  0  0  0  0  0  0  0  0  0  0  0
  126.1440  123.7330   58.6790 C   0  0  0  0  0  0  0  0  0  0  0  0
  129.5620  123.9790   58.7000 C   0  0  0  0  0  0  0  0  0  0  0  0
  129.4090  125.0540   57.7130 C   0  0  0  0  0  0  0  0  0  0  0  0
  129.2880  125.9020   56.9340 N   0  0  0  0  0  0  0  0  0  0  0  0
  130.7440  123.8640   59.4710 C   0  0  0  0  0  0  0  0  0  0  0  0
  132.0870  125.0360   59.3310 S   0  0  0  0  0  0  0  0  0  0  0  0
  131.7520  126.4760   60.3970 C   0  0  0  0  0  0  0  0  0  0  0  0
  131.6930  126.1270   61.8890 C   0  0  0  0  0  0  0  0  0  0  0  0
  130.5950  126.0180   62.4390 O   0  0  0  0  0  0  0  0  0  0  0  0
  132.8870  125.9780   62.5050 N   0  0  0  0  0  0  0  0  0  0  0  0
  133.1120  125.6380   63.8310 C   0  0  0  0  0  0  0  0  0  0  0  0
  132.1960  125.8990   64.8490 C   0  0  0  0  0  0  0  0  0  0  0  0
  132.7880  125.4180   65.9960 C   0  0  0  0  0  0  0  0  0  0  0  0
  133.9970  124.8950   65.6820 O   0  0  0  0  0  0  0  0  0  0  0  0
  134.1920  125.0410   64.3080 N   0  0  0  0  0  0  0  0  0  0  0  0
  130.9300  122.8580   60.3620 N   0  0  0  0  0  0  0  0  0  0  0  0
  1  2  1  0
  2  3  2  0
  3  4  1  0
  4  5  1  0
  5  6  2  0
  6  7  1  0
  7  8  2  0
  8  9  1  0
  9 10  2  0
  4 11  2  0
 11 12  1  0
 12 13  3  0
 11 14  1  0
 14 15  1  0
 15 16  1  0
 16 17  1  0
 17 18  2  0
 17 19  1  0
 19 20  1  0
 20 21  1  0
 21 22  2  0
 22 23  1  0
 23 24  1  0
 14 25  2  0
 25  2  1  0
 10  5  1  0
 24 20  2  0
M  END
>  <Binding energies>  (35) 
[-7.95]

>  <Ligand effiencies>  (35) 
[-0.3057692307692308]

>  <Interactions>  (35) 
["V-B:TYR:539:CE2:9847, V-B:PRO:540:CA:9854, V-B:TYR:539:CD2:9845, V-B:LEU:363:CD1:8160, V-B:PRO:540:CD:9858, V-B:TYR:539:CG:9843, V-B:PRO:540:CB:9856, V-B:ALA:541:CB:9863, V-B:TYR:539:C:9838, V-A:LEU:475:CD2:4258, V-B:PRO:540:N:9855, V-B:TYR:539:CD1:9844, V-B:TYR:539:CE1:9846, V-B:TYR:539:CA:9840, H-A:ASP:366:OD2:3214, V-B:TYR:539:CZ:9848, H-A:GLY:454:N:4049, H-A:ARG:545:NE:4924, H-A:ARG:545:NH1:4927, V-A:ASP:366:CG:3212, V-A:ASP:366:CB:3211, H-A:ASP:366:OD1:3213, H-B:TYR:539:OH:9849, H-A:TYR:484:OH:4347, V-A:ARG:545:CZ:4926, V-B:MET:535:CE:9806, V-A:HIS:456:CE1:4069, H-A:TYR:531:OH:4795"]

$$$$
3ck_Grossjean_2025
     RDKit          3D

 30 31  0  0  0  0  0  0  0  0999 V2000
  123.7940  131.7660   59.3350 C   0  0  0  0  0  0  0  0  0  0  0  0
  123.8480  132.0080   57.9380 O   0  0  0  0  0  0  0  0  0  0  0  0
  124.1200  130.8430   57.1720 C   0  0  0  0  0  0  0  0  0  0  0  0
  125.4080  130.1830   57.6800 C   0  0  0  0  0  0  0  0  0  0  0  0
  126.1250  129.6420   56.5780 O   0  0  0  0  0  0  0  0  0  0  0  0
  127.2970  128.9260   56.9480 C   0  0  0  0  0  0  0  0  0  0  0  0
  127.3360  128.7840   58.4740 C   0  0  0  0  0  0  0  0  0  0  0  0
  127.5480  127.4160   58.7910 O   0  0  0  0  0  0  0  0  0  0  0  0
  126.9860  126.9960   60.0250 C   0  0  0  0  0  0  0  0  0  0  0  0
  127.7660  127.6340   61.1900 C   0  0  0  0  0  0  0  0  0  0  0  0
  128.1210  126.6870   62.2510 N   0  0  0  0  0  0  0  0  0  0  0  0
  129.3140  126.6110   62.8680 C   0  0  0  0  0  0  0  0  0  0  0  0
  130.2540  127.3680   62.6170 O   0  0  0  0  0  0  0  0  0  0  0  0
  129.4410  125.5070   63.9300 C   0  0  0  0  0  0  0  0  0  0  0  0
  129.3910  123.7970   63.2920 S   0  0  0  0  0  0  0  0  0  0  0  0
  129.4180  123.8370   61.5060 C   0  0  0  0  0  0  0  0  0  0  0  0
  130.6300  124.0740   60.9440 N   0  0  0  0  0  0  0  0  0  0  0  0
  130.7230  124.1220   59.5960 C   0  0  0  0  0  0  0  0  0  0  0  0
  132.1080  124.3930   59.0410 C   0  0  0  0  0  0  0  0  0  0  0  0
  129.6240  123.9400   58.7610 C   0  0  0  0  0  0  0  0  0  0  0  0
  128.3620  123.7010   59.3190 C   0  0  0  0  0  0  0  0  0  0  0  0
  127.2080  123.5350   58.3860 C   0  0  0  0  0  0  0  0  0  0  0  0
  126.0960  124.3800   58.4850 C   0  0  0  0  0  0  0  0  0  0  0  0
  125.0120  124.2240   57.6230 C   0  0  0  0  0  0  0  0  0  0  0  0
  125.0340  123.2170   56.6630 C   0  0  0  0  0  0  0  0  0  0  0  0
  126.1290  122.3630   56.5580 C   0  0  0  0  0  0  0  0  0  0  0  0
  127.2110  122.5210   57.4190 C   0  0  0  0  0  0  0  0  0  0  0  0
  128.2520  123.6350   60.7320 C   0  0  0  0  0  0  0  0  0  0  0  0
  126.9630  123.3460   61.3720 C   0  0  0  0  0  0  0  0  0  0  0  0
  125.9460  123.1170   61.8750 N   0  0  0  0  0  0  0  0  0  0  0  0
  1  2  1  0
  2  3  1  0
  3  4  1  0
  4  5  1  0
  5  6  1  0
  6  7  1  0
  7  8  1  0
  8  9  1  0
  9 10  1  0
 10 11  1  0
 11 12  1  0
 12 13  2  0
 12 14  1  0
 14 15  1  0
 15 16  1  0
 16 17  2  0
 17 18  1  0
 18 19  1  0
 18 20  2  0
 20 21  1  0
 21 22  1  0
 22 23  2  0
 23 24  1  0
 24 25  2  0
 25 26  1  0
 26 27  2  0
 21 28  2  0
 28 29  1  0
 29 30  3  0
 28 16  1  0
 27 22  1  0
M  END
>  <Binding energies>  (36) 
[-6.3]

>  <Ligand effiencies>  (36) 
[-0.2032258064516129]

>  <Interactions>  (36) 
["V-B:TYR:539:CE2:9847, V-B:PRO:540:CA:9854, V-B:TYR:539:CD2:9845, V-B:LEU:363:CD1:8160, V-B:PRO:540:CD:9858, V-B:TYR:539:CG:9843, V-B:PRO:540:CB:9856, V-B:ALA:541:CB:9863, V-B:TYR:539:C:9838, H-B:GLU:543:OE2:9881, V-B:PRO:540:N:9855, V-B:TYR:539:CD1:9844, V-B:TYR:539:CE1:9846, H-B:TYR:531:OH:9766, H-B:ALA:541:N:9862, V-B:TYR:539:CZ:9848, V-A:ILE:369:CG2:3236, V-B:MET:535:CE:9806, V-B:TYR:531:CZ:9765, V-B:GLU:543:CG:9878, V-B:GLU:543:CD:9879, V-B:ILE:369:CB:8207, V-B:ASP:366:CB:8183, V-B:ILE:369:CG2:8208, V-B:ASP:366:CA:8181, H-A:TYR:539:OH:4878, V-B:ASP:366:C:8179, V-B:TYR:531:CE1:9763, V-B:ASN:370:CB:8216"]

$$$$
4aa_Grossjean_2025
     RDKit          3D

 26 28  0  0  0  0  0  0  0  0999 V2000
  127.2690  132.0530   73.1870 C   0  0  0  0  0  0  0  0  0  0  0  0
  128.7160  131.7870   72.7600 C   0  0  0  0  0  0  0  0  0  0  0  0
  128.7750  130.5740   72.0200 O   0  0  0  0  0  0  0  0  0  0  0  0
  129.7500  129.6580   72.2520 C   0  0  0  0  0  0  0  0  0  0  0  0
  130.2940  129.5060   73.3510 O   0  0  0  0  0  0  0  0  0  0  0  0
  130.1060  128.8500   71.0380 C   0  0  0  0  0  0  0  0  0  0  0  0
  129.0950  128.1640   70.3520 C   0  0  0  0  0  0  0  0  0  0  0  0
  129.3940  127.4030   69.2250 C   0  0  0  0  0  0  0  0  0  0  0  0
  130.7060  127.3190   68.7560 C   0  0  0  0  0  0  0  0  0  0  0  0
  130.8970  126.5160   67.6150 N   0  0  0  0  0  0  0  0  0  0  0  0
  130.2670  125.3790   67.2320 C   0  0  0  0  0  0  0  0  0  0  0  0
  129.3980  124.8120   67.8950 O   0  0  0  0  0  0  0  0  0  0  0  0
  130.7080  124.8210   65.9520 C   0  0  0  0  0  0  0  0  0  0  0  0
  129.7760  123.5410   65.1700 S   0  0  0  0  0  0  0  0  0  0  0  0
  130.9240  123.4460   63.8540 C   0  0  0  0  0  0  0  0  0  0  0  0
  130.7690  122.5890   62.8430 N   0  0  0  0  0  0  0  0  0  0  0  0
  131.7320  122.6140   61.8900 C   0  0  0  0  0  0  0  0  0  0  0  0
  131.5400  121.6270   60.7520 C   0  0  0  0  0  0  0  0  0  0  0  0
  132.8320  123.4680   61.9210 C   0  0  0  0  0  0  0  0  0  0  0  0
  132.9900  124.3670   62.9820 C   0  0  0  0  0  0  0  0  0  0  0  0
  134.2070  125.2800   62.9710 C   0  0  0  0  0  0  0  0  0  0  0  0
  132.0030  124.3680   64.0030 C   0  0  0  0  0  0  0  0  0  0  0  0
  131.8570  125.1370   65.2110 C   0  0  0  0  0  0  0  0  0  0  0  0
  132.7700  126.0910   65.5850 N   0  0  0  0  0  0  0  0  0  0  0  0
  131.7250  127.9980   69.4380 C   0  0  0  0  0  0  0  0  0  0  0  0
  131.4250  128.7560   70.5680 C   0  0  0  0  0  0  0  0  0  0  0  0
  1  2  1  0
  2  3  1  0
  3  4  1  0
  4  5  2  0
  4  6  1  0
  6  7  2  0
  7  8  1  0
  8  9  2  0
  9 10  1  0
 10 11  1  0
 11 12  2  0
 11 13  1  0
 13 14  1  0
 14 15  1  0
 15 16  2  0
 16 17  1  0
 17 18  1  0
 17 19  2  0
 19 20  1  0
 20 21  1  0
 20 22  2  0
 22 23  1  0
 23 24  1  0
  9 25  1  0
 25 26  2  0
 26  6  1  0
 23 13  2  0
 22 15  1  0
M  END
>  <Binding energies>  (37) 
[-6.92]

>  <Ligand effiencies>  (37) 
[-0.2386206896551724]

>  <Interactions>  (37) 
["V-B:TYR:539:CE2:9847, V-B:TYR:539:CD2:9845, V-B:ALA:541:CB:9863, V-A:ASP:366:CG:3212, V-A:ILE:369:CD1:3238, V-A:ILE:369:CG2:3236, H-A:TYR:484:OH:4347, H-A:GLU:543:OE2:4910, V-A:ARG:545:CZ:4926, V-A:GLU:543:CD:4908, V-A:GLU:543:CB:4906, V-B:HIS:456:CE1:9041, V-A:HIS:456:CE1:4069, V-B:HIS:456:CG:9037, V-B:GLU:543:CG:9878, V-B:TYR:484:CD1:9314, V-A:TYR:484:CE1:4344, H-A:GLU:543:OE1:4909, V-A:ARG:545:CG:4922, V-A:ARG:545:CD:4923, H-B:HIS:456:ND1:9038, V-A:GLY:453:CA:4043, H-A:LYS:547:NZ:4951, V-B:TYR:484:CG:9313, V-A:GLU:543:C:4902, V-A:ARG:545:CA:4919, V-A:GLY:544:C:4912, V-B:HIS:456:CB:9036, V-B:TYR:484:CD2:9315"]

$$$$
4ab_Grossjean_2025
     RDKit          3D

 25 27  0  0  0  0  0  0  0  0999 V2000
  128.3120  131.3970   73.1090 C   0  0  0  0  0  0  0  0  0  0  0  0
  128.8850  130.6490   72.0460 O   0  0  0  0  0  0  0  0  0  0  0  0
  129.7600  129.6410   72.2940 C   0  0  0  0  0  0  0  0  0  0  0  0
  130.2340  129.4100   73.4110 O   0  0  0  0  0  0  0  0  0  0  0  0
  130.1020  128.8390   71.0710 C   0  0  0  0  0  0  0  0  0  0  0  0
  129.1080  128.0560   70.4680 C   0  0  0  0  0  0  0  0  0  0  0  0
  129.3940  127.3000   69.3340 C   0  0  0  0  0  0  0  0  0  0  0  0
  130.6730  127.3170   68.7770 C   0  0  0  0  0  0  0  0  0  0  0  0
  130.8520  126.5100   67.6370 N   0  0  0  0  0  0  0  0  0  0  0  0
  130.2680  125.3350   67.2980 C   0  0  0  0  0  0  0  0  0  0  0  0
  129.4620  124.7320   68.0070 O   0  0  0  0  0  0  0  0  0  0  0  0
  130.6780  124.7850   66.0050 C   0  0  0  0  0  0  0  0  0  0  0  0
  129.7250  123.5130   65.2350 S   0  0  0  0  0  0  0  0  0  0  0  0
  130.8410  123.4220   63.8930 C   0  0  0  0  0  0  0  0  0  0  0  0
  130.6620  122.5720   62.8810 N   0  0  0  0  0  0  0  0  0  0  0  0
  131.6020  122.6000   61.9050 C   0  0  0  0  0  0  0  0  0  0  0  0
  131.3820  121.6210   60.7670 C   0  0  0  0  0  0  0  0  0  0  0  0
  132.7040  123.4530   61.9150 C   0  0  0  0  0  0  0  0  0  0  0  0
  132.8890  124.3440   62.9780 C   0  0  0  0  0  0  0  0  0  0  0  0
  134.1090  125.2540   62.9440 C   0  0  0  0  0  0  0  0  0  0  0  0
  131.9260  124.3410   64.0230 C   0  0  0  0  0  0  0  0  0  0  0  0
  131.8110  125.1000   65.2390 C   0  0  0  0  0  0  0  0  0  0  0  0
  132.7360  126.0480   65.6000 N   0  0  0  0  0  0  0  0  0  0  0  0
  131.6750  128.0940   69.3760 C   0  0  0  0  0  0  0  0  0  0  0  0
  131.3880  128.8480   70.5110 C   0  0  0  0  0  0  0  0  0  0  0  0
  1  2  1  0
  2  3  1  0
  3  4  2  0
  3  5  1  0
  5  6  2  0
  6  7  1  0
  7  8  2  0
  8  9  1  0
  9 10  1  0
 10 11  2  0
 10 12  1  0
 12 13  1  0
 13 14  1  0
 14 15  2  0
 15 16  1  0
 16 17  1  0
 16 18  2  0
 18 19  1  0
 19 20  1  0
 19 21  2  0
 21 22  1  0
 22 23  1  0
  8 24  1  0
 24 25  2  0
 25  5  1  0
 22 12  2  0
 21 14  1  0
M  END
>  <Binding energies>  (38) 
[-6.68]

>  <Ligand effiencies>  (38) 
[-0.23857142857142857]

>  <Interactions>  (38) 
["V-B:TYR:539:CE2:9847, V-B:TYR:539:CD2:9845, V-B:ALA:541:CB:9863, V-A:ASP:366:CG:3212, V-A:ILE:369:CD1:3238, V-A:ILE:369:CG2:3236, H-A:TYR:484:OH:4347, H-A:GLU:543:OE2:4910, V-A:ARG:545:CZ:4926, V-A:GLU:543:CD:4908, V-A:GLU:543:CB:4906, V-B:HIS:456:CE1:9041, V-A:TYR:484:CZ:4346, V-A:HIS:456:CE1:4069, V-B:HIS:456:CG:9037, V-B:GLU:543:CG:9878, V-B:GLU:543:CD:9879, V-A:TYR:484:CE1:4344, H-A:GLU:543:OE1:4909, V-A:ARG:545:CG:4922, V-A:ARG:545:CD:4923, V-A:GLY:453:CA:4043, H-A:LYS:547:NZ:4951, V-A:GLU:543:C:4902, V-A:ARG:545:CA:4919, V-A:GLY:544:C:4912"]

$$$$
4ac_Grossjean_2025
     RDKit          3D

 23 25  0  0  0  0  0  0  0  0999 V2000
  129.4950  129.8940   74.2950 C   0  0  0  0  0  0  0  0  0  0  0  0
  130.2470  128.7570   73.8820 O   0  0  0  0  0  0  0  0  0  0  0  0
  130.2300  128.3830   72.5530 C   0  0  0  0  0  0  0  0  0  0  0  0
  131.3240  128.7750   71.7820 C   0  0  0  0  0  0  0  0  0  0  0  0
  131.3940  128.4430   70.4310 C   0  0  0  0  0  0  0  0  0  0  0  0
  130.3720  127.7040   69.8360 C   0  0  0  0  0  0  0  0  0  0  0  0
  130.5230  127.4270   68.4640 N   0  0  0  0  0  0  0  0  0  0  0  0
  129.9130  126.4830   67.7080 C   0  0  0  0  0  0  0  0  0  0  0  0
  129.1110  125.6580   68.1500 O   0  0  0  0  0  0  0  0  0  0  0  0
  130.2730  126.4870   66.2870 C   0  0  0  0  0  0  0  0  0  0  0  0
  129.1840  127.1950   65.0930 S   0  0  0  0  0  0  0  0  0  0  0  0
  130.2820  126.8030   63.7900 C   0  0  0  0  0  0  0  0  0  0  0  0
  130.0090  127.1070   62.5200 N   0  0  0  0  0  0  0  0  0  0  0  0
  130.9430  126.7480   61.6080 C   0  0  0  0  0  0  0  0  0  0  0  0
  130.6130  127.1030   60.1700 C   0  0  0  0  0  0  0  0  0  0  0  0
  132.1330  126.0970   61.9310 C   0  0  0  0  0  0  0  0  0  0  0  0
  132.4170  125.7790   63.2640 C   0  0  0  0  0  0  0  0  0  0  0  0
  133.7270  125.0690   63.5660 C   0  0  0  0  0  0  0  0  0  0  0  0
  131.4600  126.1430   64.2500 C   0  0  0  0  0  0  0  0  0  0  0  0
  131.4300  125.9760   65.6780 C   0  0  0  0  0  0  0  0  0  0  0  0
  132.4500  125.3690   66.3660 N   0  0  0  0  0  0  0  0  0  0  0  0
  129.2620  127.3160   70.6010 C   0  0  0  0  0  0  0  0  0  0  0  0
  129.1950  127.6510   71.9510 C   0  0  0  0  0  0  0  0  0  0  0  0
  1  2  1  0
  2  3  1  0
  3  4  2  0
  4  5  1  0
  5  6  2  0
  6  7  1  0
  7  8  1  0
  8  9  2  0
  8 10  1  0
 10 11  1  0
 11 12  1  0
 12 13  2  0
 13 14  1  0
 14 15  1  0
 14 16  2  0
 16 17  1  0
 17 18  1  0
 17 19  2  0
 19 20  1  0
 20 21  1  0
  6 22  1  0
 22 23  2  0
 23  3  1  0
 20 10  2  0
 19 12  1  0
M  END
>  <Binding energies>  (39) 
[-6.3]

>  <Ligand effiencies>  (39) 
[-0.2423076923076923]

>  <Interactions>  (39) 
["V-A:ASP:366:CG:3212, H-A:TYR:484:OH:4347, H-A:GLU:543:OE2:4910, V-A:ARG:545:CZ:4926, V-A:GLU:543:CD:4908, V-A:GLU:543:CB:4906, V-B:HIS:456:CE1:9041, V-A:HIS:456:CE1:4069, V-B:HIS:456:CD2:9039, V-B:GLU:543:CD:9879, H-A:LYS:547:NZ:4951, V-A:LYS:547:CE:4950, V-A:ARG:545:CA:4919, V-A:GLY:544:C:4912, H-A:HIS:456:NE2:4070"]

$$$$
4ad_Grossjean_2025
     RDKit          3D

 21 23  0  0  0  0  0  0  0  0999 V2000
  134.4820  125.3730   66.0750 C   0  0  0  0  0  0  0  0  0  0  0  0
  133.1510  125.1450   65.3830 C   0  0  0  0  0  0  0  0  0  0  0  0
  131.9840  125.7390   65.8600 C   0  0  0  0  0  0  0  0  0  0  0  0
  130.7660  125.5130   65.2070 C   0  0  0  0  0  0  0  0  0  0  0  0
  129.5190  126.1800   65.7670 C   0  0  0  0  0  0  0  0  0  0  0  0
  130.7740  124.6700   64.0630 C   0  0  0  0  0  0  0  0  0  0  0  0
  129.7320  124.2340   63.1730 C   0  0  0  0  0  0  0  0  0  0  0  0
  128.4260  124.6270   63.3270 N   0  0  0  0  0  0  0  0  0  0  0  0
  130.1760  123.3820   62.1480 C   0  0  0  0  0  0  0  0  0  0  0  0
  129.3910  122.7460   61.0890 C   0  0  0  0  0  0  0  0  0  0  0  0
  129.5520  121.5540   60.8190 O   0  0  0  0  0  0  0  0  0  0  0  0
  128.4980  123.5510   60.4630 N   0  0  0  0  0  0  0  0  0  0  0  0
  127.6330  123.2650   59.3890 C   0  0  0  0  0  0  0  0  0  0  0  0
  126.3250  123.7420   59.5140 C   0  0  0  0  0  0  0  0  0  0  0  0
  125.3970  123.5200   58.5010 C   0  0  0  0  0  0  0  0  0  0  0  0
  125.7790  122.8260   57.3560 C   0  0  0  0  0  0  0  0  0  0  0  0
  127.0820  122.3570   57.2130 C   0  0  0  0  0  0  0  0  0  0  0  0
  128.0120  122.5770   58.2250 C   0  0  0  0  0  0  0  0  0  0  0  0
  131.9140  123.1030   62.2620 S   0  0  0  0  0  0  0  0  0  0  0  0
  132.0350  124.1230   63.6770 C   0  0  0  0  0  0  0  0  0  0  0  0
  133.1960  124.3370   64.2970 N   0  0  0  0  0  0  0  0  0  0  0  0
  1  2  1  0
  2  3  2  0
  3  4  1  0
  4  5  1  0
  4  6  2  0
  6  7  1  0
  7  8  1  0
  7  9  2  0
  9 10  1  0
 10 11  2  0
 10 12  1  0
 12 13  1  0
 13 14  2  0
 14 15  1  0
 15 16  2  0
 16 17  1  0
 17 18  2  0
  9 19  1  0
 19 20  1  0
 20 21  2  0
 21  2  1  0
 20  6  1  0
 18 13  1  0
M  END
>  <Binding energies>  (40) 
[-6.58]

>  <Ligand effiencies>  (40) 
[-0.27416666666666667]

>  <Interactions>  (40) 
["V-B:TYR:539:CE2:9847, V-B:PRO:540:CA:9854, V-B:TYR:539:CD2:9845, V-B:PRO:540:CD:9858, V-B:TYR:539:CG:9843, V-B:PRO:540:CB:9856, V-B:TYR:539:C:9838, H-B:GLU:543:OE2:9881, V-B:PRO:540:N:9855, V-B:TYR:539:CD1:9844, V-B:TYR:539:CE1:9846, V-B:TYR:539:CZ:9848, H-A:GLY:454:N:4049, H-A:TYR:484:OH:4347, V-A:ARG:545:CZ:4926, V-B:GLU:543:CG:9878, V-B:GLU:543:CD:9879, V-A:ARG:545:CG:4922, V-A:ARG:545:CD:4923, V-A:GLY:454:CA:4048, V-A:GLY:453:C:4041, V-A:GLY:453:CA:4043"]

$$$$
4ae_Grossjean_2025
     RDKit          3D

 22 24  0  0  0  0  0  0  0  0999 V2000
  124.2620  123.9600   58.5960 C   0  0  0  0  0  0  0  0  0  0  0  0
  125.7010  123.4920   58.5090 C   0  0  0  0  0  0  0  0  0  0  0  0
  126.1670  122.7590   57.4150 C   0  0  0  0  0  0  0  0  0  0  0  0
  127.5030  122.3560   57.4070 C   0  0  0  0  0  0  0  0  0  0  0  0
  128.3310  122.6900   58.4810 C   0  0  0  0  0  0  0  0  0  0  0  0
  127.8020  123.4340   59.5410 C   0  0  0  0  0  0  0  0  0  0  0  0
  128.6790  123.7230   60.6010 N   0  0  0  0  0  0  0  0  0  0  0  0
  129.6250  122.9280   61.1600 C   0  0  0  0  0  0  0  0  0  0  0  0
  129.8540  121.7730   60.7950 O   0  0  0  0  0  0  0  0  0  0  0  0
  130.3830  123.5310   62.2580 C   0  0  0  0  0  0  0  0  0  0  0  0
  132.1220  123.2620   62.3940 S   0  0  0  0  0  0  0  0  0  0  0  0
  132.2030  124.2120   63.8590 C   0  0  0  0  0  0  0  0  0  0  0  0
  133.3490  124.4020   64.5140 N   0  0  0  0  0  0  0  0  0  0  0  0
  133.2740  125.1530   65.6390 C   0  0  0  0  0  0  0  0  0  0  0  0
  134.5880  125.3510   66.3730 C   0  0  0  0  0  0  0  0  0  0  0  0
  132.0920  125.7160   66.1190 C   0  0  0  0  0  0  0  0  0  0  0  0
  130.8910  125.5150   65.4280 C   0  0  0  0  0  0  0  0  0  0  0  0
  129.6270  126.1460   65.9920 C   0  0  0  0  0  0  0  0  0  0  0  0
  130.9300  124.7300   64.2430 C   0  0  0  0  0  0  0  0  0  0  0  0
  129.9100  124.3290   63.3120 C   0  0  0  0  0  0  0  0  0  0  0  0
  128.5970  124.7000   63.4580 N   0  0  0  0  0  0  0  0  0  0  0  0
  126.4940  123.8270   59.5590 N   0  0  0  0  0  0  0  0  0  0  0  0
  1  2  1  0
  2  3  2  0
  3  4  1  0
  4  5  2  0
  5  6  1  0
  6  7  1  0
  7  8  1  0
  8  9  2  0
  8 10  1  0
 10 11  1  0
 11 12  1  0
 12 13  2  0
 13 14  1  0
 14 15  1  0
 14 16  2  0
 16 17  1  0
 17 18  1  0
 17 19  2  0
 19 20  1  0
 20 21  1  0
  6 22  2  0
 22  2  1  0
 20 10  2  0
 19 12  1  0
M  END
>  <Binding energies>  (41) 
[-6.8]

>  <Ligand effiencies>  (41) 
[-0.272]

>  <Interactions>  (41) 
["V-B:TYR:539:CE2:9847, V-B:PRO:540:CA:9854, V-B:TYR:539:CD2:9845, V-B:LEU:363:CD1:8160, V-B:PRO:540:CD:9858, V-B:TYR:539:CG:9843, V-B:PRO:540:CB:9856, V-B:TYR:539:C:9838, H-B:GLU:543:OE2:9881, V-B:PRO:540:N:9855, V-B:TYR:539:CD1:9844, V-B:TYR:539:CE1:9846, V-B:TYR:539:CZ:9848, H-A:GLY:454:N:4049, H-A:TYR:484:OH:4347, V-A:ARG:545:CZ:4926, V-B:LEU:363:CA:8156, V-A:HIS:456:CE1:4069, V-B:GLU:543:CG:9878, V-B:GLU:543:CD:9879, V-A:ARG:545:CG:4922, V-A:ARG:545:CD:4923, V-A:GLY:454:CA:4048, H-B:GLU:543:OE1:9880, V-A:GLY:453:C:4041, V-A:GLY:453:CA:4043"]

$$$$
4af_Grossjean_2025
     RDKit          3D

 21 23  0  0  0  0  0  0  0  0999 V2000
  125.9950  122.4020   56.3310 C   0  0  0  0  0  0  0  0  0  0  0  0
  126.3860  122.7770   57.7490 C   0  0  0  0  0  0  0  0  0  0  0  0
  125.4970  123.4500   58.5840 C   0  0  0  0  0  0  0  0  0  0  0  0
  125.8800  123.7880   59.8880 C   0  0  0  0  0  0  0  0  0  0  0  0
  124.8760  124.5220   60.7610 C   0  0  0  0  0  0  0  0  0  0  0  0
  127.1880  123.4240   60.3100 C   0  0  0  0  0  0  0  0  0  0  0  0
  127.8940  123.6110   61.5490 C   0  0  0  0  0  0  0  0  0  0  0  0
  127.3270  124.2450   62.6260 N   0  0  0  0  0  0  0  0  0  0  0  0
  129.1970  123.0890   61.5470 C   0  0  0  0  0  0  0  0  0  0  0  0
  130.1960  123.1300   62.6170 C   0  0  0  0  0  0  0  0  0  0  0  0
  130.7300  122.0940   63.0160 O   0  0  0  0  0  0  0  0  0  0  0  0
  130.4800  124.3640   63.0980 N   0  0  0  0  0  0  0  0  0  0  0  0
  131.3450  124.7410   64.1430 C   0  0  0  0  0  0  0  0  0  0  0  0
  130.9520  125.3540   65.3470 C   0  0  0  0  0  0  0  0  0  0  0  0
  131.9170  125.6930   66.2970 C   0  0  0  0  0  0  0  0  0  0  0  0
  133.2560  125.4150   66.0190 C   0  0  0  0  0  0  0  0  0  0  0  0
  133.6620  124.8320   64.8630 N   0  0  0  0  0  0  0  0  0  0  0  0
  132.7130  124.5080   63.9490 C   0  0  0  0  0  0  0  0  0  0  0  0
  129.5840  122.3480   59.9920 S   0  0  0  0  0  0  0  0  0  0  0  0
  128.0010  122.7380   59.3590 C   0  0  0  0  0  0  0  0  0  0  0  0
  127.6390  122.4140   58.1170 N   0  0  0  0  0  0  0  0  0  0  0  0
  1  2  1  0
  2  3  2  0
  3  4  1  0
  4  5  1  0
  4  6  2  0
  6  7  1  0
  7  8  1  0
  7  9  2  0
  9 10  1  0
 10 11  2  0
 10 12  1  0
 12 13  1  0
 13 14  2  0
 14 15  1  0
 15 16  2  0
 16 17  1  0
 17 18  2  0
  9 19  1  0
 19 20  1  0
 20 21  2  0
 21  2  1  0
 20  6  1  0
 18 13  1  0
M  END
>  <Binding energies>  (42) 
[-6.95]

>  <Ligand effiencies>  (42) 
[-0.28958333333333336]

>  <Interactions>  (42) 
["V-B:TYR:539:CE2:9847, V-B:PRO:540:CA:9854, V-B:TYR:539:CD2:9845, V-B:PRO:540:CD:9858, V-B:PRO:540:CB:9856, V-B:ALA:541:CB:9863, V-B:TYR:539:C:9838, H-B:GLU:543:OE2:9881, V-B:PRO:540:N:9855, H-A:GLY:454:N:4049, H-A:TYR:484:OH:4347, V-A:ARG:545:CZ:4926, V-A:HIS:456:CE1:4069, V-B:GLU:543:CG:9878, V-B:GLU:543:CD:9879, V-A:ARG:545:CD:4923, V-B:ASP:366:CG:8184"]

$$$$
4ag_Grossjean_2025
     RDKit          3D

 22 24  0  0  0  0  0  0  0  0999 V2000
  134.6900  125.3630   66.5880 C   0  0  0  0  0  0  0  0  0  0  0  0
  133.3810  125.1500   65.8500 C   0  0  0  0  0  0  0  0  0  0  0  0
  132.2320  125.8510   66.2120 C   0  0  0  0  0  0  0  0  0  0  0  0
  131.0350  125.6400   65.5180 C   0  0  0  0  0  0  0  0  0  0  0  0
  129.8080  126.4290   65.9500 C   0  0  0  0  0  0  0  0  0  0  0  0
  131.0440  124.7010   64.4520 C   0  0  0  0  0  0  0  0  0  0  0  0
  130.0200  124.2510   63.5490 C   0  0  0  0  0  0  0  0  0  0  0  0
  128.7340  124.7270   63.6010 N   0  0  0  0  0  0  0  0  0  0  0  0
  130.4570  123.2890   62.6270 C   0  0  0  0  0  0  0  0  0  0  0  0
  129.6910  122.6290   61.5690 C   0  0  0  0  0  0  0  0  0  0  0  0
  129.8200  121.4250   61.3390 O   0  0  0  0  0  0  0  0  0  0  0  0
  128.8580  123.4180   60.8590 N   0  0  0  0  0  0  0  0  0  0  0  0
  127.9810  122.9690   59.7790 C   0  0  0  0  0  0  0  0  0  0  0  0
  126.5350  123.4290   59.9230 C   0  0  0  0  0  0  0  0  0  0  0  0
  125.7800  123.7170   58.7820 C   0  0  0  0  0  0  0  0  0  0  0  0
  124.4510  124.1140   58.9100 C   0  0  0  0  0  0  0  0  0  0  0  0
  123.8780  124.2110   60.1770 C   0  0  0  0  0  0  0  0  0  0  0  0
  124.6210  123.9110   61.3170 C   0  0  0  0  0  0  0  0  0  0  0  0
  125.9490  123.5140   61.1890 C   0  0  0  0  0  0  0  0  0  0  0  0
  132.1680  122.9220   62.8480 S   0  0  0  0  0  0  0  0  0  0  0  0
  132.2850  124.0500   64.1800 C   0  0  0  0  0  0  0  0  0  0  0  0
  133.4270  124.2500   64.8390 N   0  0  0  0  0  0  0  0  0  0  0  0
  1  2  1  0
  2  3  2  0
  3  4  1  0
  4  5  1  0
  4  6  2  0
  6  7  1  0
  7  8  1  0
  7  9  2  0
  9 10  1  0
 10 11  2  0
 10 12  1  0
 12 13  1  0
 13 14  1  0
 14 15  2  0
 15 16  1  0
 16 17  2  0
 17 18  1  0
 18 19  2  0
  9 20  1  0
 20 21  1  0
 21 22  2  0
 22  2  1  0
 21  6  1  0
 19 14  1  0
M  END
>  <Binding energies>  (43) 
[-7.02]

>  <Ligand effiencies>  (43) 
[-0.2808]

>  <Interactions>  (43) 
["V-B:PRO:540:CA:9854, V-B:PRO:540:CB:9856, V-B:ALA:541:CB:9863, H-B:GLU:543:OE2:9881, H-A:GLY:454:N:4049, H-A:TYR:484:OH:4347, V-A:ARG:545:CZ:4926, V-B:LEU:363:CA:8156, V-A:GLU:543:CD:4908, V-A:HIS:456:CE1:4069, V-B:GLU:543:CG:9878, V-B:GLU:543:CD:9879, V-B:PRO:540:C:9852, V-B:ASN:362:CB:8147, V-A:ARG:545:CG:4922, V-A:ARG:545:CD:4923, V-A:GLY:454:CA:4048, V-B:ASP:366:CG:8184, V-A:GLY:453:C:4041, V-A:GLY:453:CA:4043, V-B:ASN:362:C:8143"]

$$$$
4ah_Grossjean_2025
     RDKit          3D

 28 30  0  0  0  0  0  0  0  0999 V2000
  128.7480  123.9180   72.8390 C   0  0  0  0  0  0  0  0  0  0  0  0
  128.7630  125.3110   73.1300 O   0  0  0  0  0  0  0  0  0  0  0  0
  129.0850  126.2110   72.1290 C   0  0  0  0  0  0  0  0  0  0  0  0
  128.5210  126.1870   70.8430 C   0  0  0  0  0  0  0  0  0  0  0  0
  128.8940  127.1260   69.8820 C   0  0  0  0  0  0  0  0  0  0  0  0
  128.2370  127.1140   68.5060 C   0  0  0  0  0  0  0  0  0  0  0  0
  128.9950  126.3660   67.5020 N   0  0  0  0  0  0  0  0  0  0  0  0
  129.3900  125.0810   67.6180 C   0  0  0  0  0  0  0  0  0  0  0  0
  129.1750  124.4080   68.6280 O   0  0  0  0  0  0  0  0  0  0  0  0
  130.1340  124.5350   66.4840 C   0  0  0  0  0  0  0  0  0  0  0  0
  129.5580  123.0830   65.6630 S   0  0  0  0  0  0  0  0  0  0  0  0
  130.9280  123.1020   64.5750 C   0  0  0  0  0  0  0  0  0  0  0  0
  131.0870  122.1810   63.6230 N   0  0  0  0  0  0  0  0  0  0  0  0
  132.1890  122.3110   62.8470 C   0  0  0  0  0  0  0  0  0  0  0  0
  132.3520  121.2510   61.7730 C   0  0  0  0  0  0  0  0  0  0  0  0
  133.1270  123.3300   62.9970 C   0  0  0  0  0  0  0  0  0  0  0  0
  132.9600  124.2940   63.9980 C   0  0  0  0  0  0  0  0  0  0  0  0
  134.0110  125.3860   64.1230 C   0  0  0  0  0  0  0  0  0  0  0  0
  131.8150  124.1900   64.8340 C   0  0  0  0  0  0  0  0  0  0  0  0
  131.3440  124.9840   65.9370 C   0  0  0  0  0  0  0  0  0  0  0  0
  132.0250  126.0850   66.3920 N   0  0  0  0  0  0  0  0  0  0  0  0
  129.8190  128.1180   70.2110 C   0  0  0  0  0  0  0  0  0  0  0  0
  130.4030  128.1640   71.4870 C   0  0  0  0  0  0  0  0  0  0  0  0
  131.3360  129.1080   71.8760 O   0  0  0  0  0  0  0  0  0  0  0  0
  130.9440  130.1510   72.7620 C   0  0  0  0  0  0  0  0  0  0  0  0
  130.0320  127.1990   72.4340 C   0  0  0  0  0  0  0  0  0  0  0  0
  130.5820  127.2420   73.6930 O   0  0  0  0  0  0  0  0  0  0  0  0
  131.4770  126.1740   73.9700 C   0  0  0  0  0  0  0  0  0  0  0  0
  1  2  1  0
  2  3  1  0
  3  4  2  0
  4  5  1  0
  5  6  1  0
  6  7  1  0
  7  8  1  0
  8  9  2  0
  8 10  1  0
 10 11  1  0
 11 12  1  0
 12 13  2  0
 13 14  1  0
 14 15  1  0
 14 16  2  0
 16 17  1  0
 17 18  1  0
 17 19  2  0
 19 20  1  0
 20 21  1  0
  5 22  2  0
 22 23  1  0
 23 24  1  0
 24 25  1  0
 23 26  2  0
 26 27  1  0
 27 28  1  0
 26  3  1  0
 20 10  2  0
 19 12  1  0
M  END
>  <Binding energies>  (44) 
[-6.84]

>  <Ligand effiencies>  (44) 
[-0.22064516129032258]

>  <Interactions>  (44) 
["V-B:ALA:541:CB:9863, V-A:LEU:475:CD2:4258, V-A:ILE:369:CG2:3236, H-A:TYR:484:OH:4347, H-A:GLU:543:OE2:4910, V-A:ARG:545:CZ:4926, V-A:GLU:543:CD:4908, V-A:GLU:543:CB:4906, V-B:HIS:456:CE1:9041, V-B:GLU:543:CB:9877, V-A:TYR:484:CZ:4346, V-A:HIS:456:CE1:4069, V-B:GLU:543:CG:9878, V-B:GLU:543:CD:9879, V-A:TYR:484:CE1:4344, V-A:HIS:456:CD2:4067, H-A:GLU:543:OE1:4909, V-A:GLY:454:CA:4048, H-B:GLU:543:OE1:9880, H-B:LYS:547:NZ:9922, V-B:LYS:547:CE:9921, V-A:GLY:453:C:4041, V-A:GLY:453:CA:4043, V-B:GLU:543:CA:9875, V-A:HIS:456:CG:4065, H-A:LYS:547:NZ:4951, V-A:LYS:547:CE:4950, V-A:GLU:543:C:4902, V-A:GLY:544:C:4912, V-A:HIS:456:CB:4064, V-A:GLY:544:CA:4914"]

$$$$
4ai_Grossjean_2025
     RDKit          3D

 20 22  0  0  0  0  0  0  0  0999 V2000
  126.7820  122.3630   56.4060 C   0  0  0  0  0  0  0  0  0  0  0  0
  127.0730  122.7560   57.8430 C   0  0  0  0  0  0  0  0  0  0  0  0
  126.0930  123.3520   58.6350 C   0  0  0  0  0  0  0  0  0  0  0  0
  126.3810  123.7010   59.9600 C   0  0  0  0  0  0  0  0  0  0  0  0
  125.2780  124.3460   60.7850 C   0  0  0  0  0  0  0  0  0  0  0  0
  127.6870  123.4260   60.4490 C   0  0  0  0  0  0  0  0  0  0  0  0
  128.3090  123.6460   61.7270 C   0  0  0  0  0  0  0  0  0  0  0  0
  127.6430  124.2290   62.7750 N   0  0  0  0  0  0  0  0  0  0  0  0
  129.6400  123.2060   61.7960 C   0  0  0  0  0  0  0  0  0  0  0  0
  130.5670  123.2820   62.9280 C   0  0  0  0  0  0  0  0  0  0  0  0
  130.6170  122.3760   63.7620 O   0  0  0  0  0  0  0  0  0  0  0  0
  131.3490  124.3900   62.9650 N   0  0  0  0  0  0  0  0  0  0  0  0
  132.3140  124.7110   63.9110 C   0  0  0  0  0  0  0  0  0  0  0  0
  132.0030  125.1790   65.1870 C   0  0  0  0  0  0  0  0  0  0  0  0
  133.2180  125.3790   65.8020 C   0  0  0  0  0  0  0  0  0  0  0  0
  134.2090  125.0470   64.9410 O   0  0  0  0  0  0  0  0  0  0  0  0
  133.6240  124.6240   63.7460 N   0  0  0  0  0  0  0  0  0  0  0  0
  130.1670  122.5250   60.2550 S   0  0  0  0  0  0  0  0  0  0  0  0
  128.5980  122.8140   59.5370 C   0  0  0  0  0  0  0  0  0  0  0  0
  128.3280  122.4810   58.2740 N   0  0  0  0  0  0  0  0  0  0  0  0
  1  2  1  0
  2  3  2  0
  3  4  1  0
  4  5  1  0
  4  6  2  0
  6  7  1  0
  7  8  1  0
  7  9  2  0
  9 10  1  0
 10 11  2  0
 10 12  1  0
 12 13  1  0
 13 14  1  0
 14 15  2  0
 15 16  1  0
 16 17  1  0
  9 18  1  0
 18 19  1  0
 19 20  2  0
 20  2  1  0
 19  6  1  0
 17 13  2  0
M  END
>  <Binding energies>  (45) 
[-6.87]

>  <Ligand effiencies>  (45) 
[-0.29869565217391303]

>  <Interactions>  (45) 
["V-B:TYR:539:CE2:9847, V-B:PRO:540:CA:9854, V-B:TYR:539:CD2:9845, V-B:TYR:539:CG:9843, V-B:PRO:540:CB:9856, V-B:ALA:541:CB:9863, V-B:TYR:539:C:9838, H-B:GLU:543:OE2:9881, V-B:PRO:540:N:9855, V-B:TYR:539:CD1:9844, V-B:TYR:539:CE1:9846, H-A:GLY:454:N:4049, H-A:ARG:545:NE:4924, H-A:ARG:545:NH1:4927, V-A:ARG:545:CZ:4926, V-B:GLU:543:CG:9878, V-B:GLU:543:CD:9879, V-A:ARG:545:CD:4923"]

$$$$
4aj_Grossjean_2025
     RDKit          3D

 20 22  0  0  0  0  0  0  0  0999 V2000
  126.8130  122.3690   56.5950 C   0  0  0  0  0  0  0  0  0  0  0  0
  127.1170  122.7420   58.0340 C   0  0  0  0  0  0  0  0  0  0  0  0
  126.1500  123.3380   58.8400 C   0  0  0  0  0  0  0  0  0  0  0  0
  126.4530  123.6790   60.1630 C   0  0  0  0  0  0  0  0  0  0  0  0
  125.3630  124.3290   61.0010 C   0  0  0  0  0  0  0  0  0  0  0  0
  127.7610  123.3950   60.6380 C   0  0  0  0  0  0  0  0  0  0  0  0
  128.3990  123.6070   61.9100 C   0  0  0  0  0  0  0  0  0  0  0  0
  127.7470  124.1880   62.9670 N   0  0  0  0  0  0  0  0  0  0  0  0
  129.7290  123.1620   61.9610 C   0  0  0  0  0  0  0  0  0  0  0  0
  130.6690  123.2290   63.0830 C   0  0  0  0  0  0  0  0  0  0  0  0
  131.0570  122.2010   63.6410 O   0  0  0  0  0  0  0  0  0  0  0  0
  131.0710  124.4760   63.4310 N   0  0  0  0  0  0  0  0  0  0  0  0
  131.9590  124.8130   64.4430 C   0  0  0  0  0  0  0  0  0  0  0  0
  133.2420  124.5300   64.5180 N   0  0  0  0  0  0  0  0  0  0  0  0
  133.7810  125.0130   65.6220 C   0  0  0  0  0  0  0  0  0  0  0  0
  132.9240  125.7060   66.4730 C   0  0  0  0  0  0  0  0  0  0  0  0
  131.3300  125.7220   65.7790 S   0  0  0  0  0  0  0  0  0  0  0  0
  130.2330  122.4780   60.4150 S   0  0  0  0  0  0  0  0  0  0  0  0
  128.6590  122.7790   59.7140 C   0  0  0  0  0  0  0  0  0  0  0  0
  128.3740  122.4540   58.4530 N   0  0  0  0  0  0  0  0  0  0  0  0
  1  2  1  0
  2  3  2  0
  3  4  1  0
  4  5  1  0
  4  6  2  0
  6  7  1  0
  7  8  1  0
  7  9  2  0
  9 10  1  0
 10 11  2  0
 10 12  1  0
 12 13  1  0
 13 14  2  0
 14 15  1  0
 15 16  2  0
 16 17  1  0
  9 18  1  0
 18 19  1  0
 19 20  2  0
 20  2  1  0
 19  6  1  0
 17 13  1  0
M  END
>  <Binding energies>  (46) 
[-6.14]

>  <Ligand effiencies>  (46) 
[-0.2669565217391304]

>  <Interactions>  (46) 
["V-B:TYR:539:CE2:9847, V-B:PRO:540:CA:9854, V-B:TYR:539:CD2:9845, V-B:PRO:540:CD:9858, V-B:TYR:539:CG:9843, V-B:PRO:540:CB:9856, V-B:ALA:541:CB:9863, V-B:TYR:539:C:9838, H-B:GLU:543:OE2:9881, V-B:PRO:540:N:9855, V-B:TYR:539:CD1:9844, V-B:TYR:539:CE1:9846, H-A:GLY:454:N:4049, H-A:TYR:484:OH:4347, V-A:ARG:545:CZ:4926, V-A:HIS:456:CE1:4069, V-B:GLU:543:CG:9878, V-B:GLU:543:CD:9879, V-A:ARG:545:CG:4922, V-A:ARG:545:CD:4923, V-A:GLY:454:CA:4048"]

$$$$
4ak_Grossjean_2025
     RDKit          3D

 25 26  0  0  0  0  0  0  0  0999 V2000
  128.5850  125.6480   72.1130 C   0  0  0  0  0  0  0  0  0  0  0  0
  128.7840  126.0190   73.4680 O   0  0  0  0  0  0  0  0  0  0  0  0
  130.1480  126.2470   73.7980 C   0  0  0  0  0  0  0  0  0  0  0  0
  130.8670  126.8730   72.5960 C   0  0  0  0  0  0  0  0  0  0  0  0
  130.9720  128.2770   72.7890 O   0  0  0  0  0  0  0  0  0  0  0  0
  131.1760  129.0080   71.5870 C   0  0  0  0  0  0  0  0  0  0  0  0
  131.8210  128.0920   70.5390 C   0  0  0  0  0  0  0  0  0  0  0  0
  131.0800  128.1680   69.3290 O   0  0  0  0  0  0  0  0  0  0  0  0
  129.7220  128.5470   69.5080 C   0  0  0  0  0  0  0  0  0  0  0  0
  128.8070  127.4260   68.9830 C   0  0  0  0  0  0  0  0  0  0  0  0
  129.4020  126.6440   67.9000 N   0  0  0  0  0  0  0  0  0  0  0  0
  129.4960  125.2990   67.8690 C   0  0  0  0  0  0  0  0  0  0  0  0
  129.0560  124.5850   68.7720 O   0  0  0  0  0  0  0  0  0  0  0  0
  130.1470  124.7260   66.6920 C   0  0  0  0  0  0  0  0  0  0  0  0
  129.5640  123.2120   66.0020 S   0  0  0  0  0  0  0  0  0  0  0  0
  130.7800  123.2640   64.7450 C   0  0  0  0  0  0  0  0  0  0  0  0
  130.8790  122.3090   63.8190 N   0  0  0  0  0  0  0  0  0  0  0  0
  131.8660  122.4680   62.9040 C   0  0  0  0  0  0  0  0  0  0  0  0
  131.9620  121.3720   61.8580 C   0  0  0  0  0  0  0  0  0  0  0  0
  132.7450  123.5490   62.8920 C   0  0  0  0  0  0  0  0  0  0  0  0
  132.6380  124.5500   63.8640 C   0  0  0  0  0  0  0  0  0  0  0  0
  133.6220  125.7080   63.8120 C   0  0  0  0  0  0  0  0  0  0  0  0
  131.6150  124.4170   64.8420 C   0  0  0  0  0  0  0  0  0  0  0  0
  131.2290  125.2370   65.9580 C   0  0  0  0  0  0  0  0  0  0  0  0
  131.8730  126.4090   66.2660 N   0  0  0  0  0  0  0  0  0  0  0  0
  1  2  1  0
  2  3  1  0
  3  4  1  0
  4  5  1  0
  5  6  1  0
  6  7  1  0
  7  8  1  0
  8  9  1  0
  9 10  1  0
 10 11  1  0
 11 12  1  0
 12 13  2  0
 12 14  1  0
 14 15  1  0
 15 16  1  0
 16 17  2  0
 17 18  1  0
 18 19  1  0
 18 20  2  0
 20 21  1  0
 21 22  1  0
 21 23  2  0
 23 24  1  0
 24 25  1  0
 24 14  2  0
 23 16  1  0
M  END
>  <Binding energies>  (47) 
[-5.45]

>  <Ligand effiencies>  (47) 
[-0.19464285714285715]

>  <Interactions>  (47) 
["V-B:ALA:541:CB:9863, V-A:LEU:475:CD2:4258, H-A:GLU:543:OE2:4910, V-A:ARG:545:CZ:4926, V-A:GLU:543:CD:4908, V-A:GLU:543:CG:4907, V-A:GLU:543:CB:4906, V-B:HIS:456:CE1:9041, V-B:GLU:543:CB:9877, V-A:TYR:484:CZ:4346, V-A:HIS:456:CE1:4069, V-B:GLU:543:CG:9878, V-B:GLU:543:CD:9879, V-A:TYR:484:CE1:4344, V-A:HIS:456:CD2:4067, H-A:GLU:543:OE1:4909, V-A:ARG:545:CG:4922, H-B:LYS:547:NZ:9922, V-B:GLU:543:CA:9875, V-A:HIS:456:CG:4065, H-A:LYS:547:NZ:4951, V-A:GLU:543:C:4902, V-A:ARG:545:CA:4919, V-A:GLY:544:C:4912"]

$$$$
4al_Grossjean_2025
     RDKit          3D

 16 17  0  0  0  0  0  0  0  0999 V2000
  130.2790  123.2940   65.2880 C   0  0  0  0  0  0  0  0  0  0  0  0
  129.5720  123.2810   64.0570 O   0  0  0  0  0  0  0  0  0  0  0  0
  129.9510  122.4610   63.0440 C   0  0  0  0  0  0  0  0  0  0  0  0
  130.9120  121.6910   63.1020 O   0  0  0  0  0  0  0  0  0  0  0  0
  129.0870  122.5840   61.8490 C   0  0  0  0  0  0  0  0  0  0  0  0
  129.5990  121.8800   60.3140 S   0  0  0  0  0  0  0  0  0  0  0  0
  128.1400  122.4330   59.5260 C   0  0  0  0  0  0  0  0  0  0  0  0
  127.9020  122.1960   58.2350 N   0  0  0  0  0  0  0  0  0  0  0  0
  126.7330  122.6790   57.7460 C   0  0  0  0  0  0  0  0  0  0  0  0
  126.4830  122.3980   56.2760 C   0  0  0  0  0  0  0  0  0  0  0  0
  125.8070  123.3860   58.5100 C   0  0  0  0  0  0  0  0  0  0  0  0
  126.0590  123.6330   59.8630 C   0  0  0  0  0  0  0  0  0  0  0  0
  125.0190  124.4090   60.6560 C   0  0  0  0  0  0  0  0  0  0  0  0
  127.2750  123.1420   60.4110 C   0  0  0  0  0  0  0  0  0  0  0  0
  127.8410  123.2120   61.7300 C   0  0  0  0  0  0  0  0  0  0  0  0
  127.2100  123.8400   62.7720 N   0  0  0  0  0  0  0  0  0  0  0  0
  1  2  1  0
  2  3  1  0
  3  4  2  0
  3  5  1  0
  5  6  1  0
  6  7  1  0
  7  8  2  0
  8  9  1  0
  9 10  1  0
  9 11  2  0
 11 12  1  0
 12 13  1  0
 12 14  2  0
 14 15  1  0
 15 16  1  0
 15  5  2  0
 14  7  1  0
M  END
>  <Binding energies>  (48) 
[-4.86]

>  <Ligand effiencies>  (48) 
[-0.27]

>  <Interactions>  (48) 
["V-B:TYR:539:CE2:9847, V-B:PRO:540:CA:9854, V-B:TYR:539:CD2:9845, V-B:PRO:540:CD:9858, V-B:PRO:540:CB:9856, V-B:ALA:541:CB:9863, V-B:TYR:539:C:9838, H-B:GLU:543:OE2:9881, V-B:PRO:540:N:9855, V-B:TYR:539:CD1:9844, V-B:TYR:539:CE1:9846, V-A:TYR:484:CZ:4346, V-B:GLU:543:CG:9878, V-B:GLU:543:CD:9879, V-A:TYR:484:CE1:4344"]

$$$$
4bc_Grossjean_2025
     RDKit          3D

 26 28  0  0  0  0  0  0  0  0999 V2000
  129.2710  129.6540   74.3610 C   0  0  0  0  0  0  0  0  0  0  0  0
  130.2440  128.7310   73.8840 O   0  0  0  0  0  0  0  0  0  0  0  0
  130.2250  128.3590   72.5540 C   0  0  0  0  0  0  0  0  0  0  0  0
  131.3190  128.7510   71.7820 C   0  0  0  0  0  0  0  0  0  0  0  0
  131.3880  128.4230   70.4310 C   0  0  0  0  0  0  0  0  0  0  0  0
  130.3630  127.6870   69.8330 C   0  0  0  0  0  0  0  0  0  0  0  0
  130.5120  127.4150   68.4610 N   0  0  0  0  0  0  0  0  0  0  0  0
  129.8900  126.4810   67.7000 C   0  0  0  0  0  0  0  0  0  0  0  0
  129.0800  125.6640   68.1390 O   0  0  0  0  0  0  0  0  0  0  0  0
  130.2490  126.4880   66.2780 C   0  0  0  0  0  0  0  0  0  0  0  0
  129.1810  127.2450   65.0980 S   0  0  0  0  0  0  0  0  0  0  0  0
  130.2630  126.8340   63.7880 C   0  0  0  0  0  0  0  0  0  0  0  0
  129.9870  127.1680   62.5270 N   0  0  0  0  0  0  0  0  0  0  0  0
  130.8990  126.7940   61.6010 C   0  0  0  0  0  0  0  0  0  0  0  0
  130.5690  127.1890   60.1730 C   0  0  0  0  0  0  0  0  0  0  0  0
  132.0690  126.1000   61.9010 C   0  0  0  0  0  0  0  0  0  0  0  0
  132.3640  125.7450   63.2260 C   0  0  0  0  0  0  0  0  0  0  0  0
  133.6620  124.9790   63.5070 C   0  0  0  0  0  0  0  0  0  0  0  0
  134.4210  125.5620   64.4370 F   0  0  0  0  0  0  0  0  0  0  0  0
  133.3750  123.7510   63.9360 F   0  0  0  0  0  0  0  0  0  0  0  0
  134.3880  124.8980   62.3920 F   0  0  0  0  0  0  0  0  0  0  0  0
  131.4230  126.1260   64.2290 C   0  0  0  0  0  0  0  0  0  0  0  0
  131.3870  125.9460   65.6600 C   0  0  0  0  0  0  0  0  0  0  0  0
  132.3810  125.3010   66.3510 N   0  0  0  0  0  0  0  0  0  0  0  0
  129.2530  127.3000   70.6000 C   0  0  0  0  0  0  0  0  0  0  0  0
  129.1870  127.6310   71.9500 C   0  0  0  0  0  0  0  0  0  0  0  0
  1  2  1  0
  2  3  1  0
  3  4  2  0
  4  5  1  0
  5  6  2  0
  6  7  1  0
  7  8  1  0
  8  9  2  0
  8 10  1  0
 10 11  1  0
 11 12  1  0
 12 13  2  0
 13 14  1  0
 14 15  1  0
 14 16  2  0
 16 17  1  0
 17 18  1  0
 18 19  1  0
 18 20  1  0
 18 21  1  0
 17 22  2  0
 22 23  1  0
 23 24  1  0
  6 25  1  0
 25 26  2  0
 26  3  1  0
 23 10  2  0
 22 12  1  0
M  END
>  <Binding energies>  (49) 
[-6.19]

>  <Ligand effiencies>  (49) 
[-0.213448275862069]

>  <Interactions>  (49) 
["V-A:ASP:366:CG:3212, V-A:ILE:369:CD1:3238, H-A:TYR:484:OH:4347, H-A:GLU:543:OE2:4910, V-A:ARG:545:CZ:4926, V-A:GLU:543:CD:4908, V-A:GLU:543:CB:4906, V-B:HIS:456:CE1:9041, V-A:TYR:484:CZ:4346, V-A:HIS:456:CE1:4069, V-B:HIS:456:CD2:9039, V-B:GLU:543:CD:9879, V-A:ARG:545:CD:4923, V-A:GLY:454:CA:4048, V-A:GLY:453:C:4041, V-A:GLY:453:CA:4043, H-A:LYS:547:NZ:4951, V-A:LYS:547:CE:4950, V-A:ARG:545:CA:4919, V-A:GLY:544:C:4912, H-A:HIS:456:NE2:4070"]

$$$$
4bf_Grossjean_2025
     RDKit          3D

 24 26  0  0  0  0  0  0  0  0999 V2000
  126.3070  122.4080   56.2650 C   0  0  0  0  0  0  0  0  0  0  0  0
  126.6380  122.7340   57.7110 C   0  0  0  0  0  0  0  0  0  0  0  0
  125.6900  123.3100   58.5510 C   0  0  0  0  0  0  0  0  0  0  0  0
  126.0100  123.6090   59.8840 C   0  0  0  0  0  0  0  0  0  0  0  0
  124.9340  124.2460   60.7710 C   0  0  0  0  0  0  0  0  0  0  0  0
  123.8360  124.5910   60.0940 F   0  0  0  0  0  0  0  0  0  0  0  0
  124.5640  123.3870   61.7210 F   0  0  0  0  0  0  0  0  0  0  0  0
  125.4150  125.3520   61.3400 F   0  0  0  0  0  0  0  0  0  0  0  0
  127.3310  123.2970   60.3240 C   0  0  0  0  0  0  0  0  0  0  0  0
  128.0080  123.4560   61.5870 C   0  0  0  0  0  0  0  0  0  0  0  0
  127.3970  123.9960   62.6910 N   0  0  0  0  0  0  0  0  0  0  0  0
  129.3390  123.0070   61.5870 C   0  0  0  0  0  0  0  0  0  0  0  0
  130.3170  123.0460   62.6790 C   0  0  0  0  0  0  0  0  0  0  0  0
  130.6850  122.0080   63.2280 O   0  0  0  0  0  0  0  0  0  0  0  0
  130.7730  124.2800   63.0050 N   0  0  0  0  0  0  0  0  0  0  0  0
  131.6660  124.6650   64.0230 C   0  0  0  0  0  0  0  0  0  0  0  0
  131.2980  125.0980   65.3090 C   0  0  0  0  0  0  0  0  0  0  0  0
  132.2870  125.4670   66.2240 C   0  0  0  0  0  0  0  0  0  0  0  0
  133.6230  125.3990   65.8260 C   0  0  0  0  0  0  0  0  0  0  0  0
  134.0030  124.9920   64.5900 N   0  0  0  0  0  0  0  0  0  0  0  0
  133.0300  124.6370   63.7120 C   0  0  0  0  0  0  0  0  0  0  0  0
  129.7960  122.3740   60.0080 S   0  0  0  0  0  0  0  0  0  0  0  0
  128.2070  122.7070   59.3610 C   0  0  0  0  0  0  0  0  0  0  0  0
  127.8980  122.4250   58.0960 N   0  0  0  0  0  0  0  0  0  0  0  0
  1  2  1  0
  2  3  2  0
  3  4  1  0
  4  5  1  0
  5  6  1  0
  5  7  1  0
  5  8  1  0
  4  9  2  0
  9 10  1  0
 10 11  1  0
 10 12  2  0
 12 13  1  0
 13 14  2  0
 13 15  1  0
 15 16  1  0
 16 17  2  0
 17 18  1  0
 18 19  2  0
 19 20  1  0
 20 21  2  0
 12 22  1  0
 22 23  1  0
 23 24  2  0
 24  2  1  0
 23  9  1  0
 21 16  1  0
M  END
>  <Binding energies>  (50) 
[-6.7]

>  <Ligand effiencies>  (50) 
[-0.24814814814814815]

>  <Interactions>  (50) 
["V-B:TYR:539:CE2:9847, V-B:PRO:540:CA:9854, V-B:TYR:539:CD2:9845, V-B:PRO:540:CD:9858, H-B:ALA:541:O:9860, V-B:PRO:540:CB:9856, V-B:ALA:541:CB:9863, V-B:TYR:539:C:9838, H-B:GLU:543:OE2:9881, V-B:PRO:540:N:9855, V-B:TYR:539:CD1:9844, H-A:GLY:454:N:4049, H-A:ARG:545:NH1:4927, V-A:ARG:545:CZ:4926, V-B:LEU:363:CA:8156, V-A:HIS:456:CE1:4069, V-B:GLU:543:CG:9878, V-B:GLU:543:CD:9879, V-B:ASN:362:CB:8147, V-A:ARG:545:CD:4923, V-B:ASP:366:CB:8183, V-B:ASP:366:CG:8184, V-B:ASN:362:C:8143"]

$$$$
4bh_Grossjean_2025
     RDKit          3D

 31 33  0  0  0  0  0  0  0  0999 V2000
  131.7540  129.1460   70.8440 C   0  0  0  0  0  0  0  0  0  0  0  0
  131.3390  128.4960   72.0400 O   0  0  0  0  0  0  0  0  0  0  0  0
  130.3920  127.4910   71.9740 C   0  0  0  0  0  0  0  0  0  0  0  0
  129.6500  127.1880   70.8210 C   0  0  0  0  0  0  0  0  0  0  0  0
  128.7060  126.1600   70.8260 C   0  0  0  0  0  0  0  0  0  0  0  0
  127.9430  125.8160   69.5530 C   0  0  0  0  0  0  0  0  0  0  0  0
  128.7930  125.7420   68.3640 N   0  0  0  0  0  0  0  0  0  0  0  0
  129.1580  126.7910   67.5980 C   0  0  0  0  0  0  0  0  0  0  0  0
  128.7640  127.9390   67.8140 O   0  0  0  0  0  0  0  0  0  0  0  0
  130.0210  126.4840   66.4570 C   0  0  0  0  0  0  0  0  0  0  0  0
  131.5060  125.5680   66.6960 S   0  0  0  0  0  0  0  0  0  0  0  0
  131.9030  125.6880   64.9970 C   0  0  0  0  0  0  0  0  0  0  0  0
  133.0110  125.1380   64.5020 N   0  0  0  0  0  0  0  0  0  0  0  0
  133.2090  125.2960   63.1730 C   0  0  0  0  0  0  0  0  0  0  0  0
  134.4790  124.6640   62.6300 C   0  0  0  0  0  0  0  0  0  0  0  0
  132.3350  125.9810   62.3350 C   0  0  0  0  0  0  0  0  0  0  0  0
  131.1660  126.5650   62.8510 C   0  0  0  0  0  0  0  0  0  0  0  0
  130.2320  127.3070   61.8890 C   0  0  0  0  0  0  0  0  0  0  0  0
  130.1300  128.6100   62.1610 F   0  0  0  0  0  0  0  0  0  0  0  0
  130.6860  127.1940   60.6420 F   0  0  0  0  0  0  0  0  0  0  0  0
  129.0070  126.7860   61.9600 F   0  0  0  0  0  0  0  0  0  0  0  0
  130.9280  126.4190   64.2500 C   0  0  0  0  0  0  0  0  0  0  0  0
  129.8690  126.8740   65.1170 C   0  0  0  0  0  0  0  0  0  0  0  0
  128.8060  127.6130   64.6670 N   0  0  0  0  0  0  0  0  0  0  0  0
  128.5190  125.4040   71.9860 C   0  0  0  0  0  0  0  0  0  0  0  0
  129.2410  125.6890   73.1550 C   0  0  0  0  0  0  0  0  0  0  0  0
  129.0970  124.9920   74.3410 O   0  0  0  0  0  0  0  0  0  0  0  0
  129.4740  123.6210   74.3940 C   0  0  0  0  0  0  0  0  0  0  0  0
  130.1710  126.7390   73.1370 C   0  0  0  0  0  0  0  0  0  0  0  0
  130.8980  127.0180   74.2700 O   0  0  0  0  0  0  0  0  0  0  0  0
  131.8760  126.0360   74.5850 C   0  0  0  0  0  0  0  0  0  0  0  0
  1  2  1  0
  2  3  1  0
  3  4  2  0
  4  5  1  0
  5  6  1  0
  6  7  1  0
  7  8  1  0
  8  9  2  0
  8 10  1  0
 10 11  1  0
 11 12  1  0
 12 13  2  0
 13 14  1  0
 14 15  1  0
 14 16  2  0
 16 17  1  0
 17 18  1  0
 18 19  1  0
 18 20  1  0
 18 21  1  0
 17 22  2  0
 22 23  1  0
 23 24  1  0
  5 25  2  0
 25 26  1  0
 26 27  1  0
 27 28  1  0
 26 29  2  0
 29 30  1  0
 30 31  1  0
 29  3  1  0
 23 10  2  0
 22 12  1  0
M  END
>  <Binding energies>  (51) 
[-6.07]

>  <Ligand effiencies>  (51) 
[-0.17852941176470588]

>  <Interactions>  (51) 
["H-B:GLU:543:OE2:9881, V-A:ASP:366:CG:3212, V-A:ILE:369:CD1:3238, H-A:GLU:543:OE2:4910, V-A:ARG:545:CZ:4926, V-A:GLU:543:CD:4908, V-A:GLU:543:CB:4906, V-B:HIS:456:CE1:9041, V-B:GLU:543:CB:9877, V-A:HIS:456:CE1:4069, V-B:GLU:543:CG:9878, V-B:GLU:543:CD:9879, V-A:HIS:456:CD2:4067, H-A:GLU:543:OE1:4909, H-B:GLU:543:OE1:9880, H-B:LYS:547:NZ:9922, V-B:LYS:547:CE:9921, V-A:GLY:453:C:4041, V-A:GLY:453:CA:4043, H-B:GLU:543:O:9874, V-B:GLU:543:CA:9875, V-B:GLU:543:C:9873, V-A:HIS:456:CG:4065, H-A:LYS:547:NZ:4951, V-A:GLU:543:C:4902, V-A:ARG:545:CA:4919, V-A:GLY:544:C:4912, V-A:HIS:456:CB:4064, H-A:HIS:456:NE2:4070, V-A:GLY:544:CA:4914"]

$$$$
4bi_Grossjean_2025
     RDKit          3D

 23 25  0  0  0  0  0  0  0  0999 V2000
  126.8410  122.4370   56.4900 C   0  0  0  0  0  0  0  0  0  0  0  0
  127.0940  122.7450   57.9550 C   0  0  0  0  0  0  0  0  0  0  0  0
  126.0610  123.1710   58.7870 C   0  0  0  0  0  0  0  0  0  0  0  0
  126.3080  123.4480   60.1420 C   0  0  0  0  0  0  0  0  0  0  0  0
  125.1390  123.9050   61.0200 C   0  0  0  0  0  0  0  0  0  0  0  0
  123.9990  124.0440   60.3400 F   0  0  0  0  0  0  0  0  0  0  0  0
  124.9220  123.0110   61.9840 F   0  0  0  0  0  0  0  0  0  0  0  0
  125.4230  125.0860   61.5700 F   0  0  0  0  0  0  0  0  0  0  0  0
  127.6460  123.2780   60.6080 C   0  0  0  0  0  0  0  0  0  0  0  0
  128.2660  123.4640   61.8970 C   0  0  0  0  0  0  0  0  0  0  0  0
  127.5710  123.8930   62.9990 N   0  0  0  0  0  0  0  0  0  0  0  0
  129.6380  123.1620   61.9240 C   0  0  0  0  0  0  0  0  0  0  0  0
  130.5710  123.2500   63.0500 C   0  0  0  0  0  0  0  0  0  0  0  0
  130.6300  122.3510   63.8910 O   0  0  0  0  0  0  0  0  0  0  0  0
  131.3510  124.3600   63.0740 N   0  0  0  0  0  0  0  0  0  0  0  0
  132.3210  124.6920   64.0110 C   0  0  0  0  0  0  0  0  0  0  0  0
  132.0180  125.1670   65.2860 C   0  0  0  0  0  0  0  0  0  0  0  0
  133.2370  125.3730   65.8910 C   0  0  0  0  0  0  0  0  0  0  0  0
  134.2230  125.0390   65.0250 O   0  0  0  0  0  0  0  0  0  0  0  0
  133.6290  124.6080   63.8360 N   0  0  0  0  0  0  0  0  0  0  0  0
  130.2100  122.6580   60.3350 S   0  0  0  0  0  0  0  0  0  0  0  0
  128.6110  122.8360   59.6520 C   0  0  0  0  0  0  0  0  0  0  0  0
  128.3700  122.5730   58.3680 N   0  0  0  0  0  0  0  0  0  0  0  0
  1  2  1  0
  2  3  2  0
  3  4  1  0
  4  5  1  0
  5  6  1  0
  5  7  1  0
  5  8  1  0
  4  9  2  0
  9 10  1  0
 10 11  1  0
 10 12  2  0
 12 13  1  0
 13 14  2  0
 13 15  1  0
 15 16  1  0
 16 17  1  0
 17 18  2  0
 18 19  1  0
 19 20  1  0
 12 21  1  0
 21 22  1  0
 22 23  2  0
 23  2  1  0
 22  9  1  0
 20 16  2  0
M  END
>  <Binding energies>  (52) 
[-6.71]

>  <Ligand effiencies>  (52) 
[-0.2580769230769231]

>  <Interactions>  (52) 
["V-B:TYR:539:CE2:9847, V-B:PRO:540:CA:9854, V-B:TYR:539:CD2:9845, V-B:TYR:539:CG:9843, V-B:PRO:540:CB:9856, V-B:ALA:541:CB:9863, V-B:TYR:539:C:9838, H-B:GLU:543:OE2:9881, V-B:PRO:540:N:9855, V-B:TYR:539:CD1:9844, V-B:ALA:541:CA:9861, V-B:TYR:539:CE1:9846, H-A:GLY:454:N:4049, H-A:ARG:545:NE:4924, H-A:ARG:545:NH1:4927, H-A:TYR:484:OH:4347, V-A:ARG:545:CZ:4926, V-B:LEU:363:CA:8156, V-B:GLU:543:CG:9878, V-B:GLU:543:CD:9879, V-B:PRO:540:C:9852, V-B:ASN:362:CB:8147, V-A:ARG:545:CD:4923, V-B:ASP:366:CG:8184, V-B:ALA:541:C:9859, V-B:ASN:362:C:8143"]

$$$$
4bj_Grossjean_2025
     RDKit          3D

 23 25  0  0  0  0  0  0  0  0999 V2000
  126.8470  122.3630   56.5550 C   0  0  0  0  0  0  0  0  0  0  0  0
  127.1130  122.7100   58.0080 C   0  0  0  0  0  0  0  0  0  0  0  0
  126.1060  123.2320   58.8160 C   0  0  0  0  0  0  0  0  0  0  0  0
  126.3680  123.5550   60.1570 C   0  0  0  0  0  0  0  0  0  0  0  0
  125.2290  124.1300   61.0080 C   0  0  0  0  0  0  0  0  0  0  0  0
  124.9170  123.3590   62.0510 F   0  0  0  0  0  0  0  0  0  0  0  0
  125.5790  125.3240   61.4830 F   0  0  0  0  0  0  0  0  0  0  0  0
  124.1310  124.2560   60.2620 F   0  0  0  0  0  0  0  0  0  0  0  0
  127.6900  123.3220   60.6380 C   0  0  0  0  0  0  0  0  0  0  0  0
  128.3190  123.5280   61.9210 C   0  0  0  0  0  0  0  0  0  0  0  0
  127.6500  124.0480   62.9990 N   0  0  0  0  0  0  0  0  0  0  0  0
  129.6690  123.1440   61.9660 C   0  0  0  0  0  0  0  0  0  0  0  0
  130.6030  123.2230   63.0910 C   0  0  0  0  0  0  0  0  0  0  0  0
  130.9830  122.2020   63.6690 O   0  0  0  0  0  0  0  0  0  0  0  0
  131.0120  124.4730   63.4220 N   0  0  0  0  0  0  0  0  0  0  0  0
  131.8960  124.8200   64.4340 C   0  0  0  0  0  0  0  0  0  0  0  0
  133.1900  124.5900   64.4910 N   0  0  0  0  0  0  0  0  0  0  0  0
  133.7200  125.0660   65.6000 C   0  0  0  0  0  0  0  0  0  0  0  0
  132.8450  125.7010   66.4760 C   0  0  0  0  0  0  0  0  0  0  0  0
  131.2430  125.6640   65.8020 S   0  0  0  0  0  0  0  0  0  0  0  0
  130.2110  122.5320   60.4050 S   0  0  0  0  0  0  0  0  0  0  0  0
  128.6280  122.7790   59.7070 C   0  0  0  0  0  0  0  0  0  0  0  0
  128.3760  122.4770   58.4340 N   0  0  0  0  0  0  0  0  0  0  0  0
  1  2  1  0
  2  3  2  0
  3  4  1  0
  4  5  1  0
  5  6  1  0
  5  7  1  0
  5  8  1  0
  4  9  2  0
  9 10  1  0
 10 11  1  0
 10 12  2  0
 12 13  1  0
 13 14  2  0
 13 15  1  0
 15 16  1  0
 16 17  2  0
 17 18  1  0
 18 19  2  0
 19 20  1  0
 12 21  1  0
 21 22  1  0
 22 23  2  0
 23  2  1  0
 22  9  1  0
 20 16  1  0
M  END
>  <Binding energies>  (53) 
[-5.97]

>  <Ligand effiencies>  (53) 
[-0.2296153846153846]

>  <Interactions>  (53) 
["V-B:TYR:539:CE2:9847, V-B:PRO:540:CA:9854, V-B:TYR:539:CD2:9845, V-B:PRO:540:CD:9858, V-B:TYR:539:CG:9843, V-B:PRO:540:CB:9856, V-B:ALA:541:CB:9863, V-B:TYR:539:C:9838, H-B:GLU:543:OE2:9881, V-B:PRO:540:N:9855, V-B:TYR:539:CD1:9844, V-B:TYR:539:CE1:9846, H-A:GLY:454:N:4049, H-A:TYR:484:OH:4347, V-A:ARG:545:CZ:4926, V-B:LEU:363:CA:8156, V-A:HIS:456:CE1:4069, V-B:GLU:543:CG:9878, V-B:GLU:543:CD:9879, V-B:ASN:362:CB:8147, V-A:ARG:545:CG:4922, V-A:ARG:545:CD:4923, V-A:GLY:454:CA:4048, V-B:ASP:366:CG:8184, V-B:ASN:362:C:8143"]

$$$$
4bk_Grossjean_2025
     RDKit          3D

 28 29  0  0  0  0  0  0  0  0999 V2000
  128.7020  125.0020   71.9880 C   0  0  0  0  0  0  0  0  0  0  0  0
  128.5000  125.8160   73.1340 O   0  0  0  0  0  0  0  0  0  0  0  0
  128.7580  127.1940   72.9010 C   0  0  0  0  0  0  0  0  0  0  0  0
  129.6260  127.7520   74.0370 C   0  0  0  0  0  0  0  0  0  0  0  0
  130.6180  128.6110   73.4930 O   0  0  0  0  0  0  0  0  0  0  0  0
  130.4570  128.8700   72.1050 C   0  0  0  0  0  0  0  0  0  0  0  0
  131.7020  128.3880   71.3490 C   0  0  0  0  0  0  0  0  0  0  0  0
  131.3310  127.9950   70.0350 O   0  0  0  0  0  0  0  0  0  0  0  0
  129.9640  127.6190   69.9120 C   0  0  0  0  0  0  0  0  0  0  0  0
  129.4600  127.9850   68.5050 C   0  0  0  0  0  0  0  0  0  0  0  0
  129.8850  127.0470   67.4660 N   0  0  0  0  0  0  0  0  0  0  0  0
  129.7050  125.7100   67.5010 C   0  0  0  0  0  0  0  0  0  0  0  0
  129.1300  125.1460   68.4340 O   0  0  0  0  0  0  0  0  0  0  0  0
  130.2250  124.9600   66.3570 C   0  0  0  0  0  0  0  0  0  0  0  0
  129.5050  123.4140   65.9130 S   0  0  0  0  0  0  0  0  0  0  0  0
  130.6000  123.2430   64.5620 C   0  0  0  0  0  0  0  0  0  0  0  0
  130.5550  122.1800   63.7610 N   0  0  0  0  0  0  0  0  0  0  0  0
  131.4520  122.1600   62.7470 C   0  0  0  0  0  0  0  0  0  0  0  0
  131.3810  120.9400   61.8460 C   0  0  0  0  0  0  0  0  0  0  0  0
  132.3830  123.1700   62.5180 C   0  0  0  0  0  0  0  0  0  0  0  0
  132.4370  124.2920   63.3590 C   0  0  0  0  0  0  0  0  0  0  0  0
  133.4810  125.3750   63.0700 C   0  0  0  0  0  0  0  0  0  0  0  0
  134.2050  125.7030   64.1420 F   0  0  0  0  0  0  0  0  0  0  0  0
  134.3270  124.9470   62.1330 F   0  0  0  0  0  0  0  0  0  0  0  0
  132.8770  126.4830   62.6430 F   0  0  0  0  0  0  0  0  0  0  0  0
  131.5040  124.3450   64.4380 C   0  0  0  0  0  0  0  0  0  0  0  0
  131.2600  125.3120   65.4780 C   0  0  0  0  0  0  0  0  0  0  0  0
  131.9810  126.4730   65.5960 N   0  0  0  0  0  0  0  0  0  0  0  0
  1  2  1  0
  2  3  1  0
  3  4  1  0
  4  5  1  0
  5  6  1  0
  6  7  1  0
  7  8  1  0
  8  9  1  0
  9 10  1  0
 10 11  1  0
 11 12  1  0
 12 13  2  0
 12 14  1  0
 14 15  1  0
 15 16  1  0
 16 17  2  0
 17 18  1  0
 18 19  1  0
 18 20  2  0
 20 21  1  0
 21 22  1  0
 22 23  1  0
 22 24  1  0
 22 25  1  0
 21 26  2  0
 26 27  1  0
 27 28  1  0
 27 14  2  0
 26 16  1  0
M  END
>  <Binding energies>  (54) 
[-5.46]

>  <Ligand effiencies>  (54) 
[-0.1761290322580645]

>  <Interactions>  (54) 
["V-A:LEU:475:CD2:4258, V-A:ASP:366:CG:3212, V-A:ILE:369:CD1:3238, H-A:GLU:543:OE2:4910, V-A:ARG:545:CZ:4926, V-A:GLU:543:CD:4908, V-A:GLU:543:CG:4907, V-A:GLU:543:CB:4906, V-B:GLU:543:CB:9877, V-A:TYR:484:CZ:4346, V-A:HIS:456:CE1:4069, V-B:GLU:543:CG:9878, V-B:HIS:456:CD2:9039, V-B:GLU:543:CD:9879, V-A:TYR:484:CE1:4344, V-A:HIS:456:CD2:4067, H-A:HIS:456:ND1:4066, H-A:GLU:543:OE1:4909, V-A:ARG:545:CD:4923, H-B:LYS:547:NZ:9922, V-A:GLY:453:C:4041, V-A:GLY:453:CA:4043, V-B:GLU:543:CA:9875, H-A:LYS:547:NZ:4951, V-A:ARG:545:CA:4919, V-A:GLY:544:C:4912"]

$$$$
4cd_Grossjean_2025
     RDKit          3D

 29 32  0  0  0  0  0  0  0  0999 V2000
  127.6670  128.0100   63.5380 N   0  0  0  0  0  0  0  0  0  0  0  0
  127.4050  128.4980   64.7930 C   0  0  0  0  0  0  0  0  0  0  0  0
  126.3550  129.3890   65.0690 C   0  0  0  0  0  0  0  0  0  0  0  0
  125.3830  129.9710   64.1380 C   0  0  0  0  0  0  0  0  0  0  0  0
  124.2260  130.1930   64.4960 O   0  0  0  0  0  0  0  0  0  0  0  0
  125.8570  130.2400   62.8970 N   0  0  0  0  0  0  0  0  0  0  0  0
  125.1830  130.7450   61.7700 C   0  0  0  0  0  0  0  0  0  0  0  0
  125.5750  130.2200   60.5350 C   0  0  0  0  0  0  0  0  0  0  0  0
  124.9580  130.6470   59.3630 C   0  0  0  0  0  0  0  0  0  0  0  0
  123.9410  131.5960   59.4240 C   0  0  0  0  0  0  0  0  0  0  0  0
  123.5310  132.1170   60.6480 C   0  0  0  0  0  0  0  0  0  0  0  0
  124.1460  131.6930   61.8240 C   0  0  0  0  0  0  0  0  0  0  0  0
  126.3030  129.8000   66.7810 S   0  0  0  0  0  0  0  0  0  0  0  0
  127.6880  128.7880   67.1130 C   0  0  0  0  0  0  0  0  0  0  0  0
  128.1840  128.6700   68.3430 N   0  0  0  0  0  0  0  0  0  0  0  0
  129.2720  127.8710   68.5000 C   0  0  0  0  0  0  0  0  0  0  0  0
  129.8100  127.7600   69.8960 C   0  0  0  0  0  0  0  0  0  0  0  0
  131.0060  128.4020   70.2580 C   0  0  0  0  0  0  0  0  0  0  0  0
  131.5110  128.3050   71.5520 C   0  0  0  0  0  0  0  0  0  0  0  0
  130.8240  127.5610   72.5060 C   0  0  0  0  0  0  0  0  0  0  0  0
  129.6370  126.9180   72.1750 C   0  0  0  0  0  0  0  0  0  0  0  0
  129.1340  127.0200   70.8820 C   0  0  0  0  0  0  0  0  0  0  0  0
  129.8420  127.1790   67.4270 C   0  0  0  0  0  0  0  0  0  0  0  0
  129.3230  127.2930   66.1270 C   0  0  0  0  0  0  0  0  0  0  0  0
  130.0000  126.5090   64.9960 C   0  0  0  0  0  0  0  0  0  0  0  0
  131.1360  125.9180   65.3740 F   0  0  0  0  0  0  0  0  0  0  0  0
  129.1810  125.5540   64.5560 F   0  0  0  0  0  0  0  0  0  0  0  0
  130.2960  127.3330   63.9910 F   0  0  0  0  0  0  0  0  0  0  0  0
  128.1910  128.1380   65.9480 C   0  0  0  0  0  0  0  0  0  0  0  0
  1  2  1  0
  2  3  2  0
  3  4  1  0
  4  5  2  0
  4  6  1  0
  6  7  1  0
  7  8  2  0
  8  9  1  0
  9 10  2  0
 10 11  1  0
 11 12  2  0
  3 13  1  0
 13 14  1  0
 14 15  2  0
 15 16  1  0
 16 17  1  0
 17 18  2  0
 18 19  1  0
 19 20  2  0
 20 21  1  0
 21 22  2  0
 16 23  2  0
 23 24  1  0
 24 25  1  0
 25 26  1  0
 25 27  1  0
 25 28  1  0
 24 29  2  0
 29  2  1  0
 12  7  1  0
 29 14  1  0
 22 17  1  0
M  END
>  <Binding energies>  (55) 
[-6.99]

>  <Ligand effiencies>  (55) 
[-0.2184375]

>  <Interactions>  (55) 
["H-B:GLU:543:OE2:9881, H-B:ARG:545:NH2:9899, V-A:GLU:543:CD:4908, V-A:GLU:543:CG:4907, V-A:GLU:543:CB:4906, V-B:HIS:456:CE1:9041, V-A:HIS:456:CE1:4069, V-B:GLU:543:CG:9878, V-B:GLU:543:CD:9879, H-B:GLU:543:OE1:9880, V-B:ILE:369:CB:8207, V-B:ASP:366:CB:8183, V-B:ILE:369:CG2:8208, V-B:ARG:545:CZ:9897, V-B:ASP:366:CG:8184, V-B:ASP:366:CA:8181, H-B:GLY:454:N:9021, V-B:ILE:369:CD1:8210, V-B:TYR:484:CZ:9318, V-A:ARG:545:CA:4919, V-A:GLY:544:C:4912"]

$$$$
4cg_Grossjean_2025
     RDKit          3D

 30 33  0  0  0  0  0  0  0  0999 V2000
  131.4450  125.0240   66.8780 N   0  0  0  0  0  0  0  0  0  0  0  0
  130.9600  125.7730   65.8370 C   0  0  0  0  0  0  0  0  0  0  0  0
  131.4380  125.6630   64.5240 C   0  0  0  0  0  0  0  0  0  0  0  0
  132.4550  124.7540   63.9970 C   0  0  0  0  0  0  0  0  0  0  0  0
  133.6040  124.7450   64.4450 O   0  0  0  0  0  0  0  0  0  0  0  0
  132.0690  123.9640   62.9720 N   0  0  0  0  0  0  0  0  0  0  0  0
  132.9080  122.9680   62.3080 C   0  0  0  0  0  0  0  0  0  0  0  0
  132.1240  121.7750   61.7740 C   0  0  0  0  0  0  0  0  0  0  0  0
  130.7430  121.7040   61.9780 C   0  0  0  0  0  0  0  0  0  0  0  0
  130.0190  120.6310   61.4640 C   0  0  0  0  0  0  0  0  0  0  0  0
  130.6760  119.6390   60.7410 C   0  0  0  0  0  0  0  0  0  0  0  0
  132.0500  119.7120   60.5200 C   0  0  0  0  0  0  0  0  0  0  0  0
  132.7740  120.7850   61.0310 C   0  0  0  0  0  0  0  0  0  0  0  0
  130.5840  126.7530   63.4350 S   0  0  0  0  0  0  0  0  0  0  0  0
  129.6070  127.3650   64.7500 C   0  0  0  0  0  0  0  0  0  0  0  0
  128.6840  128.3020   64.5500 N   0  0  0  0  0  0  0  0  0  0  0  0
  127.9700  128.7130   65.6300 C   0  0  0  0  0  0  0  0  0  0  0  0
  126.9380  129.7740   65.3730 C   0  0  0  0  0  0  0  0  0  0  0  0
  125.6140  129.6140   65.8150 C   0  0  0  0  0  0  0  0  0  0  0  0
  124.6540  130.5930   65.5780 C   0  0  0  0  0  0  0  0  0  0  0  0
  125.0040  131.7510   64.8900 C   0  0  0  0  0  0  0  0  0  0  0  0
  126.3060  131.9340   64.4390 C   0  0  0  0  0  0  0  0  0  0  0  0
  127.2630  130.9520   64.6780 C   0  0  0  0  0  0  0  0  0  0  0  0
  128.2000  128.1920   66.9090 C   0  0  0  0  0  0  0  0  0  0  0  0
  129.1710  127.2030   67.1310 C   0  0  0  0  0  0  0  0  0  0  0  0
  129.3720  126.6760   68.5560 C   0  0  0  0  0  0  0  0  0  0  0  0
  129.4520  125.3460   68.6170 F   0  0  0  0  0  0  0  0  0  0  0  0
  130.5020  127.1690   69.0640 F   0  0  0  0  0  0  0  0  0  0  0  0
  128.3480  127.0490   69.3220 F   0  0  0  0  0  0  0  0  0  0  0  0
  129.9150  126.7550   66.0010 C   0  0  0  0  0  0  0  0  0  0  0  0
  1  2  1  0
  2  3  2  0
  3  4  1  0
  4  5  2  0
  4  6  1  0
  6  7  1  0
  7  8  1  0
  8  9  2  0
  9 10  1  0
 10 11  2  0
 11 12  1  0
 12 13  2  0
  3 14  1  0
 14 15  1  0
 15 16  2  0
 16 17  1  0
 17 18  1  0
 18 19  2  0
 19 20  1  0
 20 21  2  0
 21 22  1  0
 22 23  2  0
 17 24  2  0
 24 25  1  0
 25 26  1  0
 26 27  1  0
 26 28  1  0
 26 29  1  0
 25 30  2  0
 30  2  1  0
 13  8  1  0
 30 15  1  0
 23 18  1  0
M  END
>  <Binding energies>  (56) 
[-7.31]

>  <Ligand effiencies>  (56) 
[-0.2215151515151515]

>  <Interactions>  (56) 
["V-B:TYR:539:CE2:9847, V-B:TYR:539:CD2:9845, V-B:ALA:541:CB:9863, V-A:LEU:475:CD2:4258, H-A:GLY:454:N:4049, V-A:ILE:369:CG2:3236, H-A:TYR:484:OH:4347, V-A:GLU:543:CD:4908, V-A:GLU:543:CG:4907, V-B:HIS:456:CE1:9041, V-B:GLU:543:CB:9877, V-A:TYR:484:CZ:4346, V-A:HIS:456:CE1:4069, V-B:GLU:543:CD:9879, V-A:TYR:484:CE1:4344, V-B:LEU:475:CD1:9229, V-B:GLY:454:CA:9020, V-A:TRP:381:CH2:3371, V-A:TRP:381:CZ2:3369, V-A:TRP:381:CZ3:3370, H-A:HIS:456:NE2:4070"]

$$$$
4ch_Grossjean_2025
     RDKit          3D

 36 39  0  0  0  0  0  0  0  0999 V2000
  129.0750  123.5670   72.4880 C   0  0  0  0  0  0  0  0  0  0  0  0
  128.2230  124.6280   72.0680 O   0  0  0  0  0  0  0  0  0  0  0  0
  128.7310  125.9110   71.9790 C   0  0  0  0  0  0  0  0  0  0  0  0
  128.7830  126.6530   70.7870 C   0  0  0  0  0  0  0  0  0  0  0  0
  129.3090  127.9460   70.7720 C   0  0  0  0  0  0  0  0  0  0  0  0
  129.3820  128.7250   69.4640 C   0  0  0  0  0  0  0  0  0  0  0  0
  129.7150  127.9090   68.2960 N   0  0  0  0  0  0  0  0  0  0  0  0
  128.9470  126.9260   67.7820 C   0  0  0  0  0  0  0  0  0  0  0  0
  127.8440  126.6330   68.2490 O   0  0  0  0  0  0  0  0  0  0  0  0
  129.4840  126.2420   66.6040 C   0  0  0  0  0  0  0  0  0  0  0  0
  130.4040  124.7530   66.7910 S   0  0  0  0  0  0  0  0  0  0  0  0
  130.6130  124.6140   65.0620 C   0  0  0  0  0  0  0  0  0  0  0  0
  131.2930  123.6050   64.5230 N   0  0  0  0  0  0  0  0  0  0  0  0
  131.3980  123.5780   63.1690 C   0  0  0  0  0  0  0  0  0  0  0  0
  132.1760  122.4300   62.5940 C   0  0  0  0  0  0  0  0  0  0  0  0
  131.5880  121.5570   61.6630 C   0  0  0  0  0  0  0  0  0  0  0  0
  132.3040  120.4900   61.1260 C   0  0  0  0  0  0  0  0  0  0  0  0
  133.6230  120.2790   61.5140 C   0  0  0  0  0  0  0  0  0  0  0  0
  134.2290  121.1260   62.4370 C   0  0  0  0  0  0  0  0  0  0  0  0
  133.5080  122.1900   62.9720 C   0  0  0  0  0  0  0  0  0  0  0  0
  130.8350  124.5730   62.3650 C   0  0  0  0  0  0  0  0  0  0  0  0
  130.1160  125.6440   62.9220 C   0  0  0  0  0  0  0  0  0  0  0  0
  129.5250  126.7000   61.9820 C   0  0  0  0  0  0  0  0  0  0  0  0
  128.1940  126.7800   62.0550 F   0  0  0  0  0  0  0  0  0  0  0  0
  130.0140  127.9010   62.2880 F   0  0  0  0  0  0  0  0  0  0  0  0
  129.8380  126.4070   60.7200 F   0  0  0  0  0  0  0  0  0  0  0  0
  129.9890  125.6750   64.3400 C   0  0  0  0  0  0  0  0  0  0  0  0
  129.3400  126.5860   65.2510 C   0  0  0  0  0  0  0  0  0  0  0  0
  128.6520  127.6950   64.8280 N   0  0  0  0  0  0  0  0  0  0  0  0
  129.8050  128.5010   71.9520 C   0  0  0  0  0  0  0  0  0  0  0  0
  129.7680  127.7810   73.1570 C   0  0  0  0  0  0  0  0  0  0  0  0
  130.2400  128.2700   74.3620 O   0  0  0  0  0  0  0  0  0  0  0  0
  129.3980  129.0960   75.1590 C   0  0  0  0  0  0  0  0  0  0  0  0
  129.2220  126.4900   73.1580 C   0  0  0  0  0  0  0  0  0  0  0  0
  129.1930  125.7690   74.3270 O   0  0  0  0  0  0  0  0  0  0  0  0
  130.4770  125.3860   74.8030 C   0  0  0  0  0  0  0  0  0  0  0  0
  1  2  1  0
  2  3  1  0
  3  4  2  0
  4  5  1  0
  5  6  1  0
  6  7  1  0
  7  8  1  0
  8  9  2  0
  8 10  1  0
 10 11  1  0
 11 12  1  0
 12 13  2  0
 13 14  1  0
 14 15  1  0
 15 16  2  0
 16 17  1  0
 17 18  2  0
 18 19  1  0
 19 20  2  0
 14 21  2  0
 21 22  1  0
 22 23  1  0
 23 24  1  0
 23 25  1  0
 23 26  1  0
 22 27  2  0
 27 28  1  0
 28 29  1  0
  5 30  2  0
 30 31  1  0
 31 32  1  0
 32 33  1  0
 31 34  2  0
 34 35  1  0
 35 36  1  0
 34  3  1  0
 28 10  2  0
 27 12  1  0
 20 15  1  0
M  END
>  <Binding energies>  (57) 
[-6.93]

>  <Ligand effiencies>  (57) 
[-0.17769230769230768]

>  <Interactions>  (57) 
["V-A:LEU:475:CD2:4258, H-B:GLU:543:OE2:9881, V-A:ILE:369:CD1:3238, V-A:ILE:369:CG2:3236, H-A:TYR:484:OH:4347, H-A:GLU:543:OE2:4910, V-A:GLU:543:CD:4908, V-A:GLU:543:CG:4907, V-A:GLU:543:CB:4906, V-B:HIS:456:CE1:9041, V-B:GLU:543:CB:9877, V-A:TYR:484:CZ:4346, V-A:HIS:456:CE1:4069, V-B:GLU:543:CG:9878, V-B:GLU:543:CD:9879, V-A:TYR:484:CE1:4344, V-A:HIS:456:CD2:4067, H-A:GLU:543:OE1:4909, V-A:GLY:454:CA:4048, H-B:GLU:543:OE1:9880, H-B:LYS:547:NZ:9922, H-A:LYS:547:NZ:4951, V-A:LYS:547:CE:4950"]

$$$$
4cj_Grossjean_2025
     RDKit          3D

 28 31  0  0  0  0  0  0  0  0999 V2000
  132.2450  126.4770   66.1010 N   0  0  0  0  0  0  0  0  0  0  0  0
  131.4280  125.3890   65.9280 C   0  0  0  0  0  0  0  0  0  0  0  0
  130.3430  125.1000   66.7720 C   0  0  0  0  0  0  0  0  0  0  0  0
  129.8690  125.8480   67.9390 C   0  0  0  0  0  0  0  0  0  0  0  0
  129.0480  125.3530   68.7150 O   0  0  0  0  0  0  0  0  0  0  0  0
  130.3870  127.0930   68.0820 N   0  0  0  0  0  0  0  0  0  0  0  0
  130.1060  128.0020   69.0940 C   0  0  0  0  0  0  0  0  0  0  0  0
  129.0620  128.7960   69.1980 N   0  0  0  0  0  0  0  0  0  0  0  0
  129.1170  129.5270   70.2940 C   0  0  0  0  0  0  0  0  0  0  0  0
  130.2280  129.3310   71.1090 C   0  0  0  0  0  0  0  0  0  0  0  0
  131.2490  128.1200   70.3930 S   0  0  0  0  0  0  0  0  0  0  0  0
  129.5040  123.6390   66.2540 S   0  0  0  0  0  0  0  0  0  0  0  0
  130.6100  123.4260   64.9170 C   0  0  0  0  0  0  0  0  0  0  0  0
  130.4870  122.4060   64.0710 N   0  0  0  0  0  0  0  0  0  0  0  0
  131.3870  122.3260   63.0580 C   0  0  0  0  0  0  0  0  0  0  0  0
  131.2120  121.1710   62.1140 C   0  0  0  0  0  0  0  0  0  0  0  0
  132.2260  120.8260   61.2050 C   0  0  0  0  0  0  0  0  0  0  0  0
  132.0680  119.7600   60.3230 C   0  0  0  0  0  0  0  0  0  0  0  0
  130.8880  119.0230   60.3370 C   0  0  0  0  0  0  0  0  0  0  0  0
  129.8680  119.3440   61.2250 C   0  0  0  0  0  0  0  0  0  0  0  0
  130.0310  120.4100   62.1050 C   0  0  0  0  0  0  0  0  0  0  0  0
  132.4220  123.2570   62.9140 C   0  0  0  0  0  0  0  0  0  0  0  0
  132.5620  124.3350   63.8020 C   0  0  0  0  0  0  0  0  0  0  0  0
  133.7170  125.3200   63.5840 C   0  0  0  0  0  0  0  0  0  0  0  0
  134.6820  124.8320   62.8040 F   0  0  0  0  0  0  0  0  0  0  0  0
  133.2580  126.4290   63.0050 F   0  0  0  0  0  0  0  0  0  0  0  0
  134.2700  125.6330   64.7560 F   0  0  0  0  0  0  0  0  0  0  0  0
  131.6110  124.4390   64.8570 C   0  0  0  0  0  0  0  0  0  0  0  0
  1  2  1  0
  2  3  2  0
  3  4  1  0
  4  5  2  0
  4  6  1  0
  6  7  1  0
  7  8  2  0
  8  9  1  0
  9 10  2  0
 10 11  1  0
  3 12  1  0
 12 13  1  0
 13 14  2  0
 14 15  1  0
 15 16  1  0
 16 17  2  0
 17 18  1  0
 18 19  2  0
 19 20  1  0
 20 21  2  0
 15 22  2  0
 22 23  1  0
 23 24  1  0
 24 25  1  0
 24 26  1  0
 24 27  1  0
 23 28  2  0
 28  2  1  0
 11  7  1  0
 28 13  1  0
 21 16  1  0
M  END
>  <Binding energies>  (58) 
[-6.58]

>  <Ligand effiencies>  (58) 
[-0.21225806451612902]

>  <Interactions>  (58) 
["V-A:PRO:482:CG:4326, V-B:TYR:539:CE2:9847, V-B:TYR:539:CD2:9845, V-B:ALA:541:CB:9863, V-A:LEU:475:CD2:4258, V-B:ALA:541:CA:9861, V-A:PRO:482:CB:4325, V-A:ASP:366:CG:3212, V-A:ILE:369:CD1:3238, V-A:ILE:369:CG2:3236, H-A:GLU:543:OE2:4910, V-A:ARG:545:CZ:4926, V-A:GLU:543:CD:4908, V-A:GLU:543:CG:4907, V-A:GLU:543:CB:4906, V-B:HIS:456:CE1:9041, V-B:GLU:543:CB:9877, V-A:TYR:484:CZ:4346, V-A:HIS:456:CE1:4069, V-B:GLU:543:CG:9878, V-B:GLU:543:CD:9879, V-A:TYR:484:CE1:4344, H-A:GLU:543:OE1:4909, V-A:ARG:545:CG:4922, V-A:ARG:545:CD:4923, V-A:GLY:453:C:4041, V-A:GLY:453:CA:4043, V-B:GLU:543:CA:9875, V-A:TRP:381:CH2:3371, V-A:TRP:381:CZ2:3369, V-A:TRP:381:CZ3:3370, V-A:GLU:543:C:4902"]

$$$$
4ck_Grossjean_2025
     RDKit          3D

 33 35  0  0  0  0  0  0  0  0999 V2000
  124.8020  123.6880   61.8360 C   0  0  0  0  0  0  0  0  0  0  0  0
  126.1090  123.1380   61.8790 O   0  0  0  0  0  0  0  0  0  0  0  0
  127.1360  124.1190   61.8690 C   0  0  0  0  0  0  0  0  0  0  0  0
  128.4560  123.4600   61.4490 C   0  0  0  0  0  0  0  0  0  0  0  0
  128.2940  122.0480   61.4640 O   0  0  0  0  0  0  0  0  0  0  0  0
  129.2230  121.3610   60.6370 C   0  0  0  0  0  0  0  0  0  0  0  0
  130.2790  120.6840   61.5200 C   0  0  0  0  0  0  0  0  0  0  0  0
  131.0500  121.6900   62.1630 O   0  0  0  0  0  0  0  0  0  0  0  0
  132.4260  121.6760   61.8040 C   0  0  0  0  0  0  0  0  0  0  0  0
  133.1900  122.7060   62.6500 C   0  0  0  0  0  0  0  0  0  0  0  0
  132.3020  123.7260   63.2090 N   0  0  0  0  0  0  0  0  0  0  0  0
  132.6840  124.7890   63.9460 C   0  0  0  0  0  0  0  0  0  0  0  0
  133.8650  125.0280   64.2060 O   0  0  0  0  0  0  0  0  0  0  0  0
  131.6080  125.6610   64.4170 C   0  0  0  0  0  0  0  0  0  0  0  0
  130.7900  126.7420   63.2920 S   0  0  0  0  0  0  0  0  0  0  0  0
  129.7160  127.3080   64.5490 C   0  0  0  0  0  0  0  0  0  0  0  0
  128.7780  128.2190   64.3040 N   0  0  0  0  0  0  0  0  0  0  0  0
  127.9920  128.5990   65.3450 C   0  0  0  0  0  0  0  0  0  0  0  0
  126.9320  129.6150   65.0310 C   0  0  0  0  0  0  0  0  0  0  0  0
  127.2620  130.9690   64.8560 C   0  0  0  0  0  0  0  0  0  0  0  0
  126.2830  131.9170   64.5670 C   0  0  0  0  0  0  0  0  0  0  0  0
  124.9550  131.5220   64.4480 C   0  0  0  0  0  0  0  0  0  0  0  0
  124.6000  130.1870   64.6110 C   0  0  0  0  0  0  0  0  0  0  0  0
  125.5830  129.2420   64.8980 C   0  0  0  0  0  0  0  0  0  0  0  0
  128.1450  128.0540   66.6240 C   0  0  0  0  0  0  0  0  0  0  0  0
  129.1310  127.0930   66.8940 C   0  0  0  0  0  0  0  0  0  0  0  0
  129.2470  126.5410   68.3200 C   0  0  0  0  0  0  0  0  0  0  0  0
  129.3540  125.2120   68.3600 F   0  0  0  0  0  0  0  0  0  0  0  0
  130.3280  127.0470   68.9130 F   0  0  0  0  0  0  0  0  0  0  0  0
  128.1640  126.8760   69.0210 F   0  0  0  0  0  0  0  0  0  0  0  0
  129.9640  126.6900   65.8110 C   0  0  0  0  0  0  0  0  0  0  0  0
  131.0490  125.7450   65.7020 C   0  0  0  0  0  0  0  0  0  0  0  0
  131.4940  125.0000   66.7630 N   0  0  0  0  0  0  0  0  0  0  0  0
  1  2  1  0
  2  3  1  0
  3  4  1  0
  4  5  1  0
  5  6  1  0
  6  7  1  0
  7  8  1  0
  8  9  1  0
  9 10  1  0
 10 11  1  0
 11 12  1  0
 12 13  2  0
 12 14  1  0
 14 15  1  0
 15 16  1  0
 16 17  2  0
 17 18  1  0
 18 19  1  0
 19 20  2  0
 20 21  1  0
 21 22  2  0
 22 23  1  0
 23 24  2  0
 18 25  2  0
 25 26  1  0
 26 27  1  0
 27 28  1  0
 27 29  1  0
 27 30  1  0
 26 31  2  0
 31 32  1  0
 32 33  1  0
 32 14  2  0
 31 16  1  0
 24 19  1  0
M  END
>  <Binding energies>  (59) 
[-6.36]

>  <Ligand effiencies>  (59) 
[-0.17666666666666667]

>  <Interactions>  (59) 
["V-B:TYR:539:CE2:9847, V-B:PRO:540:CA:9854, V-B:TYR:539:CD2:9845, V-B:PRO:540:CB:9856, V-B:ALA:541:CB:9863, V-B:TYR:539:C:9838, V-A:LEU:475:CD2:4258, H-B:ALA:541:N:9862, H-A:GLY:454:N:4049, H-A:ARG:545:NH1:4927, V-A:ILE:369:CD1:3238, V-A:ILE:369:CG2:3236, H-A:TYR:484:OH:4347, V-A:GLU:543:CD:4908, V-A:GLU:543:CG:4907, V-B:HIS:456:CE1:9041, V-B:GLU:543:CB:9877, V-A:TYR:484:CZ:4346, V-A:HIS:456:CE1:4069, V-B:GLU:543:CG:9878, V-B:GLU:543:CD:9879, V-A:TYR:484:CE1:4344, V-B:ASN:362:CB:8147, V-A:GLY:454:CA:4048, V-B:LEU:475:CD1:9229, V-B:GLY:454:CA:9020, V-B:ARG:545:CZ:9897, V-B:GLU:543:CA:9875, H-A:HIS:456:NE2:4070"]

$$$$
4dd_Grossjean_2025
     RDKit          3D

 26 29  0  0  0  0  0  0  0  0999 V2000
  134.0350  125.4040   64.1970 C   0  0  0  0  0  0  0  0  0  0  0  0
  132.8360  124.4690   64.2520 C   0  0  0  0  0  0  0  0  0  0  0  0
  132.7530  123.4450   63.3010 C   0  0  0  0  0  0  0  0  0  0  0  0
  131.6750  122.5520   63.2970 C   0  0  0  0  0  0  0  0  0  0  0  0
  131.5570  121.4490   62.2870 C   0  0  0  0  0  0  0  0  0  0  0  0
  132.6570  121.0770   61.4960 C   0  0  0  0  0  0  0  0  0  0  0  0
  132.5550  120.0530   60.5590 C   0  0  0  0  0  0  0  0  0  0  0  0
  131.3470  119.3840   60.3960 C   0  0  0  0  0  0  0  0  0  0  0  0
  130.2420  119.7300   61.1660 C   0  0  0  0  0  0  0  0  0  0  0  0
  130.3490  120.7540   62.1050 C   0  0  0  0  0  0  0  0  0  0  0  0
  130.6620  122.6440   64.2020 N   0  0  0  0  0  0  0  0  0  0  0  0
  130.7430  123.6140   65.1120 C   0  0  0  0  0  0  0  0  0  0  0  0
  129.5210  123.8350   66.3440 S   0  0  0  0  0  0  0  0  0  0  0  0
  130.3890  125.2130   67.0240 C   0  0  0  0  0  0  0  0  0  0  0  0
  129.8630  125.9150   68.1960 C   0  0  0  0  0  0  0  0  0  0  0  0
  129.0500  125.3680   68.9430 O   0  0  0  0  0  0  0  0  0  0  0  0
  130.3400  127.1700   68.3840 N   0  0  0  0  0  0  0  0  0  0  0  0
  130.0040  128.1190   69.3660 C   0  0  0  0  0  0  0  0  0  0  0  0
  130.6780  128.0010   70.5850 C   0  0  0  0  0  0  0  0  0  0  0  0
  130.4260  128.9010   71.6170 C   0  0  0  0  0  0  0  0  0  0  0  0
  129.5040  129.9270   71.4280 C   0  0  0  0  0  0  0  0  0  0  0  0
  128.8350  130.0640   70.2150 C   0  0  0  0  0  0  0  0  0  0  0  0
  129.0840  129.1650   69.1810 C   0  0  0  0  0  0  0  0  0  0  0  0
  131.5680  125.4720   66.3070 C   0  0  0  0  0  0  0  0  0  0  0  0
  132.4380  126.4890   66.6100 N   0  0  0  0  0  0  0  0  0  0  0  0
  131.7940  124.5690   65.2090 C   0  0  0  0  0  0  0  0  0  0  0  0
  1  2  1  0
  2  3  2  0
  3  4  1  0
  4  5  1  0
  5  6  2  0
  6  7  1  0
  7  8  2  0
  8  9  1  0
  9 10  2  0
  4 11  2  0
 11 12  1  0
 12 13  1  0
 13 14  1  0
 14 15  1  0
 15 16  2  0
 15 17  1  0
 17 18  1  0
 18 19  2  0
 19 20  1  0
 20 21  2  0
 21 22  1  0
 22 23  2  0
 14 24  2  0
 24 25  1  0
 24 26  1  0
 26  2  1  0
 10  5  1  0
 26 12  2  0
 23 18  1  0
M  END
>  <Binding energies>  (60) 
[-7.43]

>  <Ligand effiencies>  (60) 
[-0.25620689655172413]

>  <Interactions>  (60) 
["V-A:PRO:482:CG:4326, V-B:TYR:539:CE2:9847, V-B:TYR:539:CD2:9845, V-B:ALA:541:CB:9863, V-A:LEU:475:CD2:4258, V-A:PRO:482:CB:4325, V-A:ILE:369:CG2:3236, H-A:TYR:484:OH:4347, H-A:GLU:543:OE2:4910, V-A:ARG:545:CZ:4926, V-A:GLU:543:CD:4908, V-A:GLU:543:CG:4907, V-A:GLU:543:CB:4906, V-B:HIS:456:CE1:9041, V-B:GLU:543:CB:9877, V-A:TYR:484:CZ:4346, V-A:HIS:456:CE1:4069, V-B:GLU:543:CG:9878, V-B:TYR:484:CE1:9316, V-B:GLU:543:CD:9879, V-A:TYR:484:CE1:4344, H-A:GLU:543:OE1:4909, V-A:ARG:545:CG:4922, V-A:ARG:545:CD:4923, V-A:GLY:454:CA:4048, V-A:GLY:453:C:4041, V-A:GLY:453:CA:4043, V-B:GLU:543:CA:9875, V-A:TRP:381:CH2:3371, V-A:TRP:381:CZ2:3369, V-A:TRP:381:CZ3:3370, V-A:GLU:543:CA:4904, V-A:GLU:543:C:4902"]

$$$$
4dg_Grossjean_2025
     RDKit          3D

 27 30  0  0  0  0  0  0  0  0999 V2000
  134.0630  125.3900   64.1940 C   0  0  0  0  0  0  0  0  0  0  0  0
  132.8510  124.4720   64.2190 C   0  0  0  0  0  0  0  0  0  0  0  0
  132.7680  123.4610   63.2530 C   0  0  0  0  0  0  0  0  0  0  0  0
  131.6780  122.5830   63.2220 C   0  0  0  0  0  0  0  0  0  0  0  0
  131.5620  121.4880   62.1990 C   0  0  0  0  0  0  0  0  0  0  0  0
  130.3300  120.8650   61.9470 C   0  0  0  0  0  0  0  0  0  0  0  0
  130.2180  119.8470   61.0020 C   0  0  0  0  0  0  0  0  0  0  0  0
  131.3410  119.4360   60.2940 C   0  0  0  0  0  0  0  0  0  0  0  0
  132.5770  120.0340   60.5270 C   0  0  0  0  0  0  0  0  0  0  0  0
  132.6840  121.0500   61.4720 C   0  0  0  0  0  0  0  0  0  0  0  0
  130.6680  122.6600   64.1310 N   0  0  0  0  0  0  0  0  0  0  0  0
  130.7450  123.6210   65.0510 C   0  0  0  0  0  0  0  0  0  0  0  0
  129.5130  123.8350   66.2720 S   0  0  0  0  0  0  0  0  0  0  0  0
  130.3810  125.2020   66.9700 C   0  0  0  0  0  0  0  0  0  0  0  0
  129.8140  125.9300   68.1050 C   0  0  0  0  0  0  0  0  0  0  0  0
  129.1470  125.3550   68.9670 O   0  0  0  0  0  0  0  0  0  0  0  0
  130.0370  127.2600   68.1220 N   0  0  0  0  0  0  0  0  0  0  0  0
  129.5870  128.1810   69.1660 C   0  0  0  0  0  0  0  0  0  0  0  0
  130.1700  127.8690   70.5400 C   0  0  0  0  0  0  0  0  0  0  0  0
  129.4240  127.1220   71.4570 C   0  0  0  0  0  0  0  0  0  0  0  0
  129.9650  126.8090   72.7000 C   0  0  0  0  0  0  0  0  0  0  0  0
  131.2530  127.2330   73.0190 C   0  0  0  0  0  0  0  0  0  0  0  0
  132.0080  127.9640   72.1040 C   0  0  0  0  0  0  0  0  0  0  0  0
  131.4680  128.2760   70.8600 C   0  0  0  0  0  0  0  0  0  0  0  0
  131.5610  125.4730   66.2620 C   0  0  0  0  0  0  0  0  0  0  0  0
  132.4240  126.4910   66.5770 N   0  0  0  0  0  0  0  0  0  0  0  0
  131.7980  124.5730   65.1650 C   0  0  0  0  0  0  0  0  0  0  0  0
  1  2  1  0
  2  3  2  0
  3  4  1  0
  4  5  1  0
  5  6  2  0
  6  7  1  0
  7  8  2  0
  8  9  1  0
  9 10  2  0
  4 11  2  0
 11 12  1  0
 12 13  1  0
 13 14  1  0
 14 15  1  0
 15 16  2  0
 15 17  1  0
 17 18  1  0
 18 19  1  0
 19 20  2  0
 20 21  1  0
 21 22  2  0
 22 23  1  0
 23 24  2  0
 14 25  2  0
 25 26  1  0
 25 27  1  0
 27  2  1  0
 10  5  1  0
 27 12  2  0
 24 19  1  0
M  END
>  <Binding energies>  (61) 
[-7.62]

>  <Ligand effiencies>  (61) 
[-0.254]

>  <Interactions>  (61) 
["V-B:TYR:539:CE2:9847, V-B:TYR:539:CD2:9845, V-B:ALA:541:CB:9863, V-A:LEU:475:CD2:4258, V-A:PRO:482:CB:4325, V-A:ILE:369:CG2:3236, H-A:GLU:543:OE2:4910, V-A:ARG:545:CZ:4926, V-A:GLU:543:CD:4908, V-A:GLU:543:CG:4907, V-A:GLU:543:CB:4906, V-B:HIS:456:CE1:9041, V-B:GLU:543:CB:9877, V-A:TYR:484:CZ:4346, V-A:HIS:456:CE1:4069, V-B:GLU:543:CG:9878, V-B:GLU:543:CD:9879, V-A:TYR:484:CE1:4344, V-A:HIS:456:CD2:4067, H-A:GLU:543:OE1:4909, V-A:ARG:545:CG:4922, V-A:ARG:545:CD:4923, V-A:GLY:454:CA:4048, V-A:GLY:453:C:4041, V-A:GLY:453:CA:4043, V-B:GLU:543:CA:9875, V-A:TRP:381:CH2:3371, V-A:TRP:381:CZ2:3369, V-A:TRP:381:CZ3:3370, V-A:HIS:456:CG:4065, V-A:ARG:545:CA:4919, V-A:GLY:544:C:4912"]

$$$$
4dj_Grossjean_2025
     RDKit          3D

 25 28  0  0  0  0  0  0  0  0999 V2000
  134.0420  125.3530   64.1370 C   0  0  0  0  0  0  0  0  0  0  0  0
  132.8200  124.4490   64.1920 C   0  0  0  0  0  0  0  0  0  0  0  0
  132.7100  123.4300   63.2380 C   0  0  0  0  0  0  0  0  0  0  0  0
  131.6100  122.5650   63.2330 C   0  0  0  0  0  0  0  0  0  0  0  0
  131.4680  121.4590   62.2260 C   0  0  0  0  0  0  0  0  0  0  0  0
  130.2410  120.7980   62.0500 C   0  0  0  0  0  0  0  0  0  0  0  0
  130.1020  119.7720   61.1180 C   0  0  0  0  0  0  0  0  0  0  0  0
  131.1950  119.3890   60.3480 C   0  0  0  0  0  0  0  0  0  0  0  0
  132.4230  120.0230   60.5030 C   0  0  0  0  0  0  0  0  0  0  0  0
  132.5560  121.0490   61.4350 C   0  0  0  0  0  0  0  0  0  0  0  0
  130.6150  122.6620   64.1560 N   0  0  0  0  0  0  0  0  0  0  0  0
  130.7170  123.6320   65.0640 C   0  0  0  0  0  0  0  0  0  0  0  0
  129.5060  123.8760   66.3030 S   0  0  0  0  0  0  0  0  0  0  0  0
  130.4010  125.2420   66.9740 C   0  0  0  0  0  0  0  0  0  0  0  0
  129.8790  125.9700   68.1310 C   0  0  0  0  0  0  0  0  0  0  0  0
  129.0330  125.4590   68.8700 O   0  0  0  0  0  0  0  0  0  0  0  0
  130.3820  127.2170   68.3110 N   0  0  0  0  0  0  0  0  0  0  0  0
  130.0560  128.1100   69.3210 C   0  0  0  0  0  0  0  0  0  0  0  0
  129.1380  129.0540   69.3000 N   0  0  0  0  0  0  0  0  0  0  0  0
  129.1000  129.7180   70.4390 C   0  0  0  0  0  0  0  0  0  0  0  0
  130.0020  129.3130   71.4190 C   0  0  0  0  0  0  0  0  0  0  0  0
  130.9480  127.9910   70.8040 S   0  0  0  0  0  0  0  0  0  0  0  0
  131.5790  125.4790   66.2500 C   0  0  0  0  0  0  0  0  0  0  0  0
  132.4680  126.4820   66.5470 N   0  0  0  0  0  0  0  0  0  0  0  0
  131.7850  124.5710   65.1550 C   0  0  0  0  0  0  0  0  0  0  0  0
  1  2  1  0
  2  3  2  0
  3  4  1  0
  4  5  1  0
  5  6  2  0
  6  7  1  0
  7  8  2  0
  8  9  1  0
  9 10  2  0
  4 11  2  0
 11 12  1  0
 12 13  1  0
 13 14  1  0
 14 15  1  0
 15 16  2  0
 15 17  1  0
 17 18  1  0
 18 19  2  0
 19 20  1  0
 20 21  2  0
 21 22  1  0
 14 23  2  0
 23 24  1  0
 23 25  1  0
 25  2  1  0
 10  5  1  0
 25 12  2  0
 22 18  1  0
M  END
>  <Binding energies>  (62) 
[-7.16]

>  <Ligand effiencies>  (62) 
[-0.2557142857142857]

>  <Interactions>  (62) 
["V-A:PRO:482:CG:4326, V-B:TYR:539:CE2:9847, V-B:TYR:539:CD2:9845, V-B:ALA:541:CB:9863, V-A:LEU:475:CD2:4258, V-A:PRO:482:CB:4325, V-A:ILE:369:CG2:3236, H-A:GLU:543:OE2:4910, V-A:ARG:545:CZ:4926, V-A:GLU:543:CD:4908, V-A:GLU:543:CB:4906, V-B:HIS:456:CE1:9041, V-B:GLU:543:CB:9877, V-A:TYR:484:CZ:4346, V-A:HIS:456:CE1:4069, V-B:GLU:543:CG:9878, V-B:GLU:543:CD:9879, V-A:TYR:484:CE1:4344, H-A:GLU:543:OE1:4909, V-A:ARG:545:CG:4922, V-A:ARG:545:CD:4923, V-A:GLY:453:C:4041, V-A:GLY:453:CA:4043, V-B:GLU:543:CA:9875, V-A:TRP:381:CH2:3371, V-A:TRP:381:CZ2:3369, V-A:TRP:381:CZ3:3370, V-A:GLU:543:C:4902"]

$$$$
4ea_Grossjean_2025
     RDKit          3D

 31 34  0  0  0  0  0  0  0  0999 V2000
  132.5510  131.4370   57.1230 C   0  0  0  0  0  0  0  0  0  0  0  0
  131.7450  132.4150   56.2630 C   0  0  0  0  0  0  0  0  0  0  0  0
  130.9710  133.2590   57.1060 O   0  0  0  0  0  0  0  0  0  0  0  0
  129.7130  132.9130   57.4820 C   0  0  0  0  0  0  0  0  0  0  0  0
  128.7100  133.1570   56.8040 O   0  0  0  0  0  0  0  0  0  0  0  0
  129.6630  132.2040   58.8040 C   0  0  0  0  0  0  0  0  0  0  0  0
  128.7070  131.2010   59.0060 C   0  0  0  0  0  0  0  0  0  0  0  0
  128.6340  130.5250   60.2210 C   0  0  0  0  0  0  0  0  0  0  0  0
  129.5150  130.8360   61.2580 C   0  0  0  0  0  0  0  0  0  0  0  0
  129.3490  130.0880   62.4390 N   0  0  0  0  0  0  0  0  0  0  0  0
  128.2190  129.6850   63.0720 C   0  0  0  0  0  0  0  0  0  0  0  0
  127.0790  129.9310   62.6790 O   0  0  0  0  0  0  0  0  0  0  0  0
  128.4340  128.9100   64.2980 C   0  0  0  0  0  0  0  0  0  0  0  0
  127.5320  129.2940   65.7660 S   0  0  0  0  0  0  0  0  0  0  0  0
  128.3270  128.0100   66.6480 C   0  0  0  0  0  0  0  0  0  0  0  0
  128.0550  127.7620   67.9300 N   0  0  0  0  0  0  0  0  0  0  0  0
  128.7400  126.7400   68.4980 C   0  0  0  0  0  0  0  0  0  0  0  0
  128.4150  126.4750   69.9560 C   0  0  0  0  0  0  0  0  0  0  0  0
  129.6820  125.9670   67.8210 C   0  0  0  0  0  0  0  0  0  0  0  0
  129.9640  126.2310   66.4760 C   0  0  0  0  0  0  0  0  0  0  0  0
  130.9670  125.4020   65.7700 C   0  0  0  0  0  0  0  0  0  0  0  0
  132.3210  125.7520   65.8080 C   0  0  0  0  0  0  0  0  0  0  0  0
  133.2650  124.9710   65.1460 C   0  0  0  0  0  0  0  0  0  0  0  0
  132.8540  123.8410   64.4430 C   0  0  0  0  0  0  0  0  0  0  0  0
  131.5080  123.4860   64.3950 C   0  0  0  0  0  0  0  0  0  0  0  0
  130.5650  124.2680   65.0570 C   0  0  0  0  0  0  0  0  0  0  0  0
  129.2660  127.2970   65.8440 C   0  0  0  0  0  0  0  0  0  0  0  0
  129.3070  127.8310   64.5070 C   0  0  0  0  0  0  0  0  0  0  0  0
  130.1310  127.3170   63.5390 N   0  0  0  0  0  0  0  0  0  0  0  0
  130.4760  131.8400   61.0640 C   0  0  0  0  0  0  0  0  0  0  0  0
  130.5470  132.5150   59.8490 C   0  0  0  0  0  0  0  0  0  0  0  0
  1  2  1  0
  2  3  1  0
  3  4  1  0
  4  5  2  0
  4  6  1  0
  6  7  2  0
  7  8  1  0
  8  9  2  0
  9 10  1  0
 10 11  1  0
 11 12  2  0
 11 13  1  0
 13 14  1  0
 14 15  1  0
 15 16  2  0
 16 17  1  0
 17 18  1  0
 17 19  2  0
 19 20  1  0
 20 21  1  0
 21 22  2  0
 22 23  1  0
 23 24  2  0
 24 25  1  0
 25 26  2  0
 20 27  2  0
 27 28  1  0
 28 29  1  0
  9 30  1  0
 30 31  2  0
 31  6  1  0
 28 13  2  0
 27 15  1  0
 26 21  1  0
M  END
>  <Binding energies>  (63) 
[-7.63]

>  <Ligand effiencies>  (63) 
[-0.22441176470588234]

>  <Interactions>  (63) 
["H-A:GLU:543:OE2:4910, V-A:ARG:545:CZ:4926, V-A:GLU:543:CD:4908, V-A:GLU:543:CG:4907, V-B:HIS:456:CE1:9041, V-B:GLU:543:CB:9877, V-A:HIS:456:CE1:4069, V-B:GLU:543:CD:9879, V-A:PRO:540:N:4884, V-A:LEU:363:CD1:3188, V-A:TYR:539:C:4867, H-A:TYR:539:N:4870, V-A:PRO:540:CA:4883, V-A:TYR:531:CE2:4793, H-A:GLU:543:OE1:4909, V-A:PRO:540:CB:4885, V-A:GLY:454:CA:4048, V-A:ILE:538:CB:4862"]

$$$$
4eb_Grossjean_2025
     RDKit          3D

 30 33  0  0  0  0  0  0  0  0999 V2000
  129.6710  130.1050   73.3720 C   0  0  0  0  0  0  0  0  0  0  0  0
  130.1420  128.7720   73.5040 O   0  0  0  0  0  0  0  0  0  0  0  0
  129.3830  127.7200   73.0980 C   0  0  0  0  0  0  0  0  0  0  0  0
  128.6370  127.0890   73.8530 O   0  0  0  0  0  0  0  0  0  0  0  0
  129.5430  127.4010   71.6390 C   0  0  0  0  0  0  0  0  0  0  0  0
  130.4790  128.1170   70.8820 C   0  0  0  0  0  0  0  0  0  0  0  0
  130.6510  127.8450   69.5280 C   0  0  0  0  0  0  0  0  0  0  0  0
  129.8930  126.8540   68.9030 C   0  0  0  0  0  0  0  0  0  0  0  0
  130.1510  126.6660   67.5310 N   0  0  0  0  0  0  0  0  0  0  0  0
  130.1330  125.5370   66.7810 C   0  0  0  0  0  0  0  0  0  0  0  0
  129.8670  124.4170   67.2190 O   0  0  0  0  0  0  0  0  0  0  0  0
  130.4590  125.7220   65.3650 C   0  0  0  0  0  0  0  0  0  0  0  0
  130.0490  127.2300   64.5450 S   0  0  0  0  0  0  0  0  0  0  0  0
  130.7270  126.6530   63.0400 C   0  0  0  0  0  0  0  0  0  0  0  0
  130.7240  127.3980   61.9330 N   0  0  0  0  0  0  0  0  0  0  0  0
  131.2800  126.8350   60.8340 C   0  0  0  0  0  0  0  0  0  0  0  0
  131.2670  127.7000   59.5870 C   0  0  0  0  0  0  0  0  0  0  0  0
  131.8320  125.5560   60.8130 C   0  0  0  0  0  0  0  0  0  0  0  0
  131.8330  124.7770   61.9760 C   0  0  0  0  0  0  0  0  0  0  0  0
  132.4240  123.4200   61.9390 C   0  0  0  0  0  0  0  0  0  0  0  0
  131.7870  122.3960   61.2320 C   0  0  0  0  0  0  0  0  0  0  0  0
  132.3430  121.1190   61.1950 C   0  0  0  0  0  0  0  0  0  0  0  0
  133.5360  120.8670   61.8690 C   0  0  0  0  0  0  0  0  0  0  0  0
  134.1760  121.8800   62.5790 C   0  0  0  0  0  0  0  0  0  0  0  0
  133.6190  123.1560   62.6140 C   0  0  0  0  0  0  0  0  0  0  0  0
  131.2590  125.3330   63.1520 C   0  0  0  0  0  0  0  0  0  0  0  0
  131.0930  124.8270   64.4890 C   0  0  0  0  0  0  0  0  0  0  0  0
  131.5220  123.5760   64.8570 N   0  0  0  0  0  0  0  0  0  0  0  0
  128.9520  126.1320   69.6530 C   0  0  0  0  0  0  0  0  0  0  0  0
  128.7820  126.4050   71.0080 C   0  0  0  0  0  0  0  0  0  0  0  0
  1  2  1  0
  2  3  1  0
  3  4  2  0
  3  5  1  0
  5  6  2  0
  6  7  1  0
  7  8  2  0
  8  9  1  0
  9 10  1  0
 10 11  2  0
 10 12  1  0
 12 13  1  0
 13 14  1  0
 14 15  2  0
 15 16  1  0
 16 17  1  0
 16 18  2  0
 18 19  1  0
 19 20  1  0
 20 21  2  0
 21 22  1  0
 22 23  2  0
 23 24  1  0
 24 25  2  0
 19 26  2  0
 26 27  1  0
 27 28  1  0
  8 29  1  0
 29 30  2  0
 30  5  1  0
 27 12  2  0
 26 14  1  0
 25 20  1  0
M  END
>  <Binding energies>  (64) 
[-7.41]

>  <Ligand effiencies>  (64) 
[-0.22454545454545455]

>  <Interactions>  (64) 
["V-A:LEU:475:CD2:4258, H-A:ARG:545:NH2:4928, V-A:ASP:366:CG:3212, V-A:ILE:369:CD1:3238, V-A:ASP:366:CB:3211, V-A:ILE:369:CG2:3236, H-A:TYR:484:OH:4347, H-A:GLU:543:OE2:4910, V-A:GLU:543:CD:4908, V-A:GLU:543:CB:4906, V-B:HIS:456:CE1:9041, V-B:GLU:543:CB:9877, V-A:TYR:484:CZ:4346, V-A:HIS:456:CE1:4069, V-B:GLU:543:CG:9878, V-A:GLY:454:CA:4048, H-B:LYS:547:NZ:9922, H-A:LYS:547:NZ:4951"]

$$$$
8b_Ghoteimi_2023
     RDKit          3D

 34 38  0  0  0  0  0  0  0  0999 V2000
  129.3620  130.0300   75.0310 C   0  0  0  0  0  0  0  0  0  0  0  0
  130.2470  129.1700   74.3220 O   0  0  0  0  0  0  0  0  0  0  0  0
  130.0000  128.9000   72.9890 C   0  0  0  0  0  0  0  0  0  0  0  0
  129.4520  129.9360   72.2350 C   0  0  0  0  0  0  0  0  0  0  0  0
  129.1690  129.7560   70.8850 C   0  0  0  0  0  0  0  0  0  0  0  0
  129.4280  128.5320   70.2520 C   0  0  0  0  0  0  0  0  0  0  0  0
  129.1240  128.3320   68.8010 C   0  0  0  0  0  0  0  0  0  0  0  0
  128.3000  129.2130   68.0920 C   0  0  0  0  0  0  0  0  0  0  0  0
  128.0330  129.0040   66.7360 C   0  0  0  0  0  0  0  0  0  0  0  0
  127.1490  129.9510   66.0170 C   0  0  0  0  0  0  0  0  0  0  0  0
  125.8060  129.6350   65.8030 C   0  0  0  0  0  0  0  0  0  0  0  0
  124.9740  130.5300   65.1360 C   0  0  0  0  0  0  0  0  0  0  0  0
  125.4710  131.7490   64.6720 C   0  0  0  0  0  0  0  0  0  0  0  0
  124.5730  132.5750   64.0230 O   0  0  0  0  0  0  0  0  0  0  0  0
  123.9070  132.0970   62.8580 C   0  0  0  0  0  0  0  0  0  0  0  0
  126.8220  132.0620   64.8850 C   0  0  0  0  0  0  0  0  0  0  0  0
  127.6530  131.1670   65.5530 C   0  0  0  0  0  0  0  0  0  0  0  0
  128.6260  127.8790   66.1030 C   0  0  0  0  0  0  0  0  0  0  0  0
  128.5730  127.3770   64.7540 C   0  0  0  0  0  0  0  0  0  0  0  0
  127.8480  127.9970   63.7680 N   0  0  0  0  0  0  0  0  0  0  0  0
  129.3260  126.2100   64.5520 C   0  0  0  0  0  0  0  0  0  0  0  0
  129.5000  125.4400   63.3190 C   0  0  0  0  0  0  0  0  0  0  0  0
  130.5200  125.5670   62.6360 O   0  0  0  0  0  0  0  0  0  0  0  0
  128.4770  124.6060   63.0050 N   0  0  0  0  0  0  0  0  0  0  0  0
  128.3810  123.7630   61.9060 C   0  0  0  0  0  0  0  0  0  0  0  0
  129.4400  123.5280   61.0310 C   0  0  0  0  0  0  0  0  0  0  0  0
  128.9420  122.6550   60.0910 C   0  0  0  0  0  0  0  0  0  0  0  0
  127.6510  122.3750   60.3870 O   0  0  0  0  0  0  0  0  0  0  0  0
  127.3060  123.0820   61.5410 N   0  0  0  0  0  0  0  0  0  0  0  0
  130.1280  125.7040   66.0410 S   0  0  0  0  0  0  0  0  0  0  0  0
  129.4500  127.0540   66.9210 C   0  0  0  0  0  0  0  0  0  0  0  0
  129.7040  127.2510   68.2140 N   0  0  0  0  0  0  0  0  0  0  0  0
  129.9820  127.4950   71.0140 C   0  0  0  0  0  0  0  0  0  0  0  0
  130.2650  127.6720   72.3660 C   0  0  0  0  0  0  0  0  0  0  0  0
  1  2  1  0
  2  3  1  0
  3  4  2  0
  4  5  1  0
  5  6  2  0
  6  7  1  0
  7  8  2  0
  8  9  1  0
  9 10  1  0
 10 11  2  0
 11 12  1  0
 12 13  2  0
 13 14  1  0
 14 15  1  0
 13 16  1  0
 16 17  2  0
  9 18  2  0
 18 19  1  0
 19 20  1  0
 19 21  2  0
 21 22  1  0
 22 23  2  0
 22 24  1  0
 24 25  1  0
 25 26  1  0
 26 27  2  0
 27 28  1  0
 28 29  1  0
 21 30  1  0
 30 31  1  0
 31 32  2  0
  6 33  1  0
 33 34  2  0
 34  3  1  0
 32  7  1  0
 17 10  1  0
 31 18  1  0
 29 25  2  0
M  END
>  <Binding energies>  (65) 
[-8.46]

>  <Ligand effiencies>  (65) 
[-0.22864864864864867]

>  <Interactions>  (65) 
["V-B:TYR:539:CE2:9847, V-B:TYR:539:CD2:9845, V-B:ALA:541:CB:9863, H-B:GLU:543:OE2:9881, H-B:ALA:541:N:9862, V-A:GLU:543:CD:4908, V-A:GLU:543:CG:4907, V-A:GLU:543:CB:4906, V-B:HIS:456:CE1:9041, V-A:HIS:456:CE1:4069, V-B:GLU:543:CG:9878, V-B:GLU:543:CD:9879, V-B:LEU:475:CD1:9229, H-B:GLU:543:OE1:9880, V-B:GLY:454:CA:9020, H-B:GLY:454:N:9021, V-B:ILE:369:CD1:8210, H-A:LYS:547:NZ:4951, V-A:LYS:547:CE:4950, V-A:GLU:543:C:4902"]

$$$$
9d_Ghoteimi_2023
     RDKit          3D

 38 43  0  0  0  0  0  0  0  0999 V2000
  124.3480  129.8870   66.3440 C   0  0  0  0  0  0  0  0  0  0  0  0
  124.8260  130.9690   65.5570 O   0  0  0  0  0  0  0  0  0  0  0  0
  126.1560  131.2340   65.4720 C   0  0  0  0  0  0  0  0  0  0  0  0
  126.6280  132.3690   65.3740 O   0  0  0  0  0  0  0  0  0  0  0  0
  126.9900  130.0120   65.5060 C   0  0  0  0  0  0  0  0  0  0  0  0
  127.3410  129.1470   64.0110 S   0  0  0  0  0  0  0  0  0  0  0  0
  128.3100  127.9740   64.8700 C   0  0  0  0  0  0  0  0  0  0  0  0
  128.9370  126.9850   64.2340 N   0  0  0  0  0  0  0  0  0  0  0  0
  129.6790  126.1360   64.9910 C   0  0  0  0  0  0  0  0  0  0  0  0
  130.3930  125.0500   64.2520 C   0  0  0  0  0  0  0  0  0  0  0  0
  129.6750  124.0280   63.6240 C   0  0  0  0  0  0  0  0  0  0  0  0
  130.3300  123.0110   62.9350 C   0  0  0  0  0  0  0  0  0  0  0  0
  131.7310  122.9860   62.8390 C   0  0  0  0  0  0  0  0  0  0  0  0
  132.4040  121.9610   62.1660 N   0  0  0  0  0  0  0  0  0  0  0  0
  133.6220  121.3430   62.7280 C   0  0  0  0  0  0  0  0  0  0  0  0
  134.4170  120.4940   61.7140 C   0  0  0  0  0  0  0  0  0  0  0  0
  133.5720  119.5160   61.1320 O   0  0  0  0  0  0  0  0  0  0  0  0
  132.4870  120.1110   60.4400 C   0  0  0  0  0  0  0  0  0  0  0  0
  131.6320  120.9500   61.4130 C   0  0  0  0  0  0  0  0  0  0  0  0
  132.4470  124.0050   63.4840 C   0  0  0  0  0  0  0  0  0  0  0  0
  131.7910  125.0200   64.1750 C   0  0  0  0  0  0  0  0  0  0  0  0
  129.7660  126.2570   66.3800 C   0  0  0  0  0  0  0  0  0  0  0  0
  129.0940  127.2830   67.0560 C   0  0  0  0  0  0  0  0  0  0  0  0
  129.1980  127.3500   68.5370 C   0  0  0  0  0  0  0  0  0  0  0  0
  128.5250  126.4270   69.3420 C   0  0  0  0  0  0  0  0  0  0  0  0
  128.6400  126.4820   70.7280 C   0  0  0  0  0  0  0  0  0  0  0  0
  129.4450  127.4520   71.3460 C   0  0  0  0  0  0  0  0  0  0  0  0
  129.5700  127.5350   72.7350 N   0  0  0  0  0  0  0  0  0  0  0  0
  129.4110  128.8460   73.3930 C   0  0  0  0  0  0  0  0  0  0  0  0
  129.1840  128.7390   74.9160 C   0  0  0  0  0  0  0  0  0  0  0  0
  130.2350  127.9950   75.5150 O   0  0  0  0  0  0  0  0  0  0  0  0
  130.3120  126.6790   74.9870 C   0  0  0  0  0  0  0  0  0  0  0  0
  130.5720  126.7370   73.4670 C   0  0  0  0  0  0  0  0  0  0  0  0
  130.1150  128.3740   70.5280 C   0  0  0  0  0  0  0  0  0  0  0  0
  129.9980  128.3200   69.1430 C   0  0  0  0  0  0  0  0  0  0  0  0
  128.3450  128.2080   66.2770 C   0  0  0  0  0  0  0  0  0  0  0  0
  127.5960  129.3930   66.6070 C   0  0  0  0  0  0  0  0  0  0  0  0
  127.5030  129.8840   67.8830 N   0  0  0  0  0  0  0  0  0  0  0  0
  1  2  1  0
  2  3  1  0
  3  4  2  0
  3  5  1  0
  5  6  1  0
  6  7  1  0
  7  8  2  0
  8  9  1  0
  9 10  1  0
 10 11  2  0
 11 12  1  0
 12 13  2  0
 13 14  1  0
 14 15  1  0
 15 16  1  0
 16 17  1  0
 17 18  1  0
 18 19  1  0
 13 20  1  0
 20 21  2  0
  9 22  2  0
 22 23  1  0
 23 24  1  0
 24 25  2  0
 25 26  1  0
 26 27  2  0
 27 28  1  0
 28 29  1  0
 29 30  1  0
 30 31  1  0
 31 32  1  0
 32 33  1  0
 27 34  1  0
 34 35  2  0
 23 36  2  0
 36 37  1  0
 37 38  1  0
 37  5  2  0
 36  7  1  0
 21 10  1  0
 35 24  1  0
 19 14  1  0
 33 28  1  0
M  END
>  <Binding energies>  (66) 
[-8.21]

>  <Ligand effiencies>  (66) 
[-0.20525000000000002]

>  <Interactions>  (66) 
["V-B:TYR:539:CE2:9847, V-B:TYR:539:CD2:9845, V-B:ALA:541:CB:9863, V-A:LEU:475:CD2:4258, V-A:ILE:369:CD1:3238, V-A:ILE:369:CG2:3236, V-A:GLU:543:CD:4908, V-A:GLU:543:CG:4907, V-A:GLU:543:CB:4906, V-B:HIS:456:CE1:9041, V-B:GLU:543:CB:9877, V-A:HIS:456:CE1:4069, V-B:GLU:543:CG:9878, V-B:TYR:484:CE1:9316, V-B:GLU:543:CD:9879, V-A:HIS:456:CD2:4067, V-A:GLY:454:CA:4048, V-B:LEU:475:CD1:9229, V-B:GLY:454:CA:9020, V-B:ARG:545:CD:9894, V-B:ARG:545:CZ:9897, H-B:TYR:484:OH:9319, H-B:GLY:454:N:9021, V-A:TRP:381:CH2:3371, V-A:ILE:369:CB:3235, V-A:ILE:369:CG1:3237, V-B:TYR:484:CZ:9318, H-A:LYS:547:NZ:4951, V-A:LYS:547:CE:4950, V-A:SER:385:C:3404"]

$$$$
RR10_Rahimova_2017
     RDKit          3D

 34 38  0  0  0  0  0  0  0  0999 V2000
  125.5000  123.1360   56.4040 C   0  0  0  0  0  0  0  0  0  0  0  0
  125.7680  124.1210   57.5550 C   0  0  1  0  0  0  0  0  0  0  0  0
  125.4740  123.4890   58.9350 C   0  0  0  0  0  0  0  0  0  0  0  0
  125.7170  124.5060   60.0730 C   0  0  0  0  0  0  0  0  0  0  0  0
  127.1670  125.0560   60.0650 C   0  0  1  0  0  0  0  0  0  0  0  0
  128.1260  124.0030   60.4250 N   0  0  0  0  0  0  0  0  0  0  0  0
  127.9890  123.1400   61.4480 C   0  0  0  0  0  0  0  0  0  0  0  0
  127.0060  123.1320   62.1940 O   0  0  0  0  0  0  0  0  0  0  0  0
  129.1420  122.1400   61.6720 C   0  0  1  0  0  0  0  0  0  0  0  0
  129.0160  120.9730   60.6580 C   0  0  0  0  0  0  0  0  0  0  0  0
  130.2220  120.0170   60.8170 C   0  0  0  0  0  0  0  0  0  0  0  0
  131.5780  120.7580   60.7570 C   0  0  0  0  0  0  0  0  0  0  0  0
  131.5950  121.9000   61.7110 N   0  0  0  0  0  0  0  0  0  0  0  0
  133.1890  122.6350   61.9470 S   0  0  0  0  0  0  0  0  0  0  0  0
  133.5100  123.4230   60.7500 O   0  0  0  0  0  0  0  0  0  0  0  0
  134.1070  121.5850   62.4080 O   0  0  0  0  0  0  0  0  0  0  0  0
  132.9700  123.8030   63.2890 C   0  0  0  0  0  0  0  0  0  0  0  0
  133.9440  124.7820   63.5110 C   0  0  0  0  0  0  0  0  0  0  0  0
  133.8340  125.7200   64.5420 C   0  0  0  0  0  0  0  0  0  0  0  0
  132.6940  125.6340   65.3450 C   0  0  0  0  0  0  0  0  0  0  0  0
  132.2360  126.3460   66.4280 N   0  0  0  0  0  0  0  0  0  0  0  0
  131.0300  125.7990   66.8160 C   0  0  0  0  0  0  0  0  0  0  0  0
  130.2240  126.3060   67.9780 C   0  0  0  0  0  0  0  0  0  0  0  0
  130.5830  127.4960   68.6250 C   0  0  0  0  0  0  0  0  0  0  0  0
  129.8340  127.9690   69.7000 C   0  0  0  0  0  0  0  0  0  0  0  0
  128.7220  127.2520   70.1350 C   0  0  0  0  0  0  0  0  0  0  0  0
  128.3530  126.0680   69.5020 C   0  0  0  0  0  0  0  0  0  0  0  0
  129.1020  125.5970   68.4280 C   0  0  0  0  0  0  0  0  0  0  0  0
  130.6790  124.7880   66.0530 N   0  0  0  0  0  0  0  0  0  0  0  0
  131.6880  124.6590   65.1360 C   0  0  0  0  0  0  0  0  0  0  0  0
  131.8250  123.7330   64.0920 C   0  0  0  0  0  0  0  0  0  0  0  0
  130.4950  122.8720   61.4900 C   0  0  0  0  0  0  0  0  0  0  0  0
  127.4540  125.6720   58.6690 C   0  0  0  0  0  0  0  0  0  0  0  0
  127.2190  124.6560   57.5290 C   0  0  0  0  0  0  0  0  0  0  0  0
  2  1  1  6
  2  3  1  0
  3  4  1  0
  4  5  1  0
  5  6  1  6
  6  7  1  0
  7  8  2  0
  9  7  1  6
  9 10  1  0
 10 11  1  0
 11 12  1  0
 12 13  1  0
 13 14  1  0
 14 15  2  0
 14 16  2  0
 14 17  1  0
 17 18  2  0
 18 19  1  0
 19 20  2  0
 20 21  1  0
 21 22  1  0
 22 23  1  0
 23 24  2  0
 24 25  1  0
 25 26  2  0
 26 27  1  0
 27 28  2  0
 22 29  2  0
 29 30  1  0
 30 31  2  0
 13 32  1  0
  5 33  1  0
 33 34  1  0
 34  2  1  0
 32  9  1  0
 31 17  1  0
 30 20  1  0
 28 23  1  0
M  END
>  <Binding energies>  (67) 
[-9.44]

>  <Ligand effiencies>  (67) 
[-0.2622222222222222]

>  <Interactions>  (67) 
["V-B:TYR:539:CE2:9847, V-B:PRO:540:CA:9854, V-B:TYR:539:CD2:9845, V-B:LEU:363:CD1:8160, V-B:PRO:540:CB:9856, V-B:ALA:541:CB:9863, V-B:TYR:539:C:9838, V-A:LEU:475:CD2:4258, V-B:PRO:540:N:9855, V-B:ALA:541:CA:9861, H-B:ALA:541:N:9862, H-A:GLY:454:N:4049, V-A:ILE:369:CD1:3238, V-A:ILE:369:CG2:3236, H-A:TYR:484:OH:4347, H-A:GLU:543:OE2:4910, V-A:ARG:545:CZ:4926, V-B:MET:535:CE:9806, V-A:GLU:543:CD:4908, V-A:GLU:543:CB:4906, V-B:HIS:456:CE1:9041, V-B:GLU:543:CB:9877, V-A:HIS:456:CE1:4069, V-B:GLU:543:CG:9878, V-B:PRO:540:C:9852, V-A:ARG:545:CG:4922, V-A:ARG:545:CD:4923, V-A:GLY:454:CA:4048, V-A:GLY:453:C:4041, V-A:GLY:453:CA:4043"]

$$$$
RR12_Rahimova_2017
     RDKit          3D

 26 28  0  0  0  0  0  0  0  0999 V2000
  126.2110  122.0070   56.6220 C   0  0  0  0  0  0  0  0  0  0  0  0
  126.8970  123.3780   56.5630 C   0  0  0  0  0  0  0  0  0  0  0  0
  127.9850  123.5420   57.6400 C   0  0  0  0  0  0  0  0  0  0  0  0
  127.4270  123.3380   58.9750 N   0  0  0  0  0  0  0  0  0  0  0  0
  128.0580  122.7820   60.0770 C   0  0  0  0  0  0  0  0  0  0  0  0
  129.4740  122.2320   60.0560 C   0  0  0  0  0  0  0  0  0  0  0  0
  130.3640  122.8590   61.1460 C   0  0  0  0  0  0  0  0  0  0  0  0
  130.7080  124.3330   60.8580 C   0  0  0  0  0  0  0  0  0  0  0  0
  131.6620  124.9120   61.8030 N   0  0  0  0  0  0  0  0  0  0  0  0
  132.9650  124.5860   61.8820 C   0  0  0  0  0  0  0  0  0  0  0  0
  133.4970  123.7460   61.1510 O   0  0  0  0  0  0  0  0  0  0  0  0
  133.7740  125.3350   62.9490 C   0  0  0  0  0  0  0  0  0  0  0  0
  133.6910  124.6320   64.1900 O   0  0  0  0  0  0  0  0  0  0  0  0
  132.5240  123.9670   64.5140 C   0  0  0  0  0  0  0  0  0  0  0  0
  131.5030  124.7400   65.0700 C   0  0  0  0  0  0  0  0  0  0  0  0
  130.2890  124.1590   65.4260 C   0  0  0  0  0  0  0  0  0  0  0  0
  130.0930  122.7960   65.2260 C   0  0  0  0  0  0  0  0  0  0  0  0
  131.1020  122.0080   64.6750 C   0  0  0  0  0  0  0  0  0  0  0  0
  132.3160  122.5910   64.3200 C   0  0  0  0  0  0  0  0  0  0  0  0
  127.3050  122.7570   61.1490 N   0  0  0  0  0  0  0  0  0  0  0  0
  126.1300  123.3410   60.7660 C   0  0  0  0  0  0  0  0  0  0  0  0
  124.9760  123.5840   61.5270 C   0  0  0  0  0  0  0  0  0  0  0  0
  123.8960  124.2070   60.9010 C   0  0  0  0  0  0  0  0  0  0  0  0
  123.9550  124.5830   59.5590 C   0  0  0  0  0  0  0  0  0  0  0  0
  125.0870  124.3540   58.7750 C   0  0  0  0  0  0  0  0  0  0  0  0
  126.1710  123.7260   59.4030 C   0  0  0  0  0  0  0  0  0  0  0  0
  1  2  1  0
  2  3  1  0
  3  4  1  0
  4  5  1  0
  5  6  1  0
  6  7  1  0
  7  8  1  0
  8  9  1  0
  9 10  1  0
 10 11  2  0
 10 12  1  0
 12 13  1  0
 13 14  1  0
 14 15  2  0
 15 16  1  0
 16 17  2  0
 17 18  1  0
 18 19  2  0
  5 20  2  0
 20 21  1  0
 21 22  2  0
 22 23  1  0
 23 24  2  0
 24 25  1  0
 25 26  2  0
 26  4  1  0
 19 14  1  0
 26 21  1  0
M  END
>  <Binding energies>  (68) 
[-7.09]

>  <Ligand effiencies>  (68) 
[-0.2625925925925926]

>  <Interactions>  (68) 
["V-B:TYR:539:CE2:9847, V-B:PRO:540:CA:9854, V-B:TYR:539:CD2:9845, V-B:PRO:540:CD:9858, V-B:PRO:540:CB:9856, V-B:ALA:541:CB:9863, V-B:TYR:539:C:9838, V-A:LEU:475:CD2:4258, V-B:PRO:540:N:9855, V-B:TYR:539:CD1:9844, V-B:TYR:539:CE1:9846, H-B:ALA:541:N:9862, V-B:TYR:539:CA:9840, V-B:TYR:539:CZ:9848, H-A:GLY:454:N:4049, V-A:ASP:366:CG:3212, V-A:ARG:545:CZ:4926, V-B:LEU:363:CA:8156, V-A:TYR:484:CZ:4346, V-B:GLU:543:CG:9878, V-A:TYR:484:CE1:4344, V-B:PRO:540:C:9852, V-B:ASN:362:CB:8147, V-A:LEU:475:CD1:4257, V-A:GLY:454:CA:4048, V-B:ASP:366:CB:8183, V-B:ASP:366:CG:8184, V-B:ASN:362:C:8143, V-B:ASN:362:CA:8145"]

$$$$
RR13_Rahimova_2017
     RDKit          3D

 48 54  0  0  0  0  0  0  0  0999 V2000
  131.8630  126.4950   61.8320 Cl  0  0  0  0  0  0  0  0  0  0  0  0
  131.3180  125.3600   63.0200 C   0  0  0  0  0  0  0  0  0  0  0  0
  132.2680  124.8290   63.8950 C   0  0  0  0  0  0  0  0  0  0  0  0
  131.8970  123.8950   64.8590 C   0  0  0  0  0  0  0  0  0  0  0  0
  130.5700  123.4850   64.9530 C   0  0  0  0  0  0  0  0  0  0  0  0
  129.6160  124.0100   64.0840 C   0  0  0  0  0  0  0  0  0  0  0  0
  129.9690  124.9620   63.1120 C   0  0  0  0  0  0  0  0  0  0  0  0
  128.8980  125.5110   62.1440 C   0  0  1  0  0  0  0  0  0  0  0  0
  127.9270  124.4020   61.7100 C   0  0  0  0  0  0  0  0  0  0  0  0
  126.6630  124.2850   62.0540 N   0  0  0  0  0  0  0  0  0  0  0  0
  126.2070  123.1220   61.4430 N   0  0  0  0  0  0  0  0  0  0  0  0
  127.2320  122.5250   60.7350 N   0  0  0  0  0  0  0  0  0  0  0  0
  128.2890  123.3210   60.9350 N   0  0  0  0  0  0  0  0  0  0  0  0
  129.5660  123.0250   60.2980 C   0  0  0  0  0  0  0  0  0  0  0  0
  129.8950  121.5260   60.4330 C   0  0  0  0  0  0  0  0  0  0  0  0
  131.3030  121.2920   60.9590 C   0  0  0  0  0  0  0  0  0  0  0  0
  131.9200  122.2590   61.7560 C   0  0  0  0  0  0  0  0  0  0  0  0
  133.2110  122.0470   62.2310 C   0  0  0  0  0  0  0  0  0  0  0  0
  133.8810  120.8690   61.9070 C   0  0  0  0  0  0  0  0  0  0  0  0
  133.2720  119.9010   61.1120 C   0  0  0  0  0  0  0  0  0  0  0  0
  131.9800  120.1120   60.6360 C   0  0  0  0  0  0  0  0  0  0  0  0
  128.1930  126.7080   62.6610 N   0  0  0  0  0  0  0  0  0  0  0  0
  127.2030  127.1890   61.6800 C   0  0  0  0  0  0  0  0  0  0  0  0
  126.3720  128.3550   62.2650 C   0  0  0  0  0  0  0  0  0  0  0  0
  127.2420  129.4940   62.6040 N   0  0  0  0  0  0  0  0  0  0  0  0
  126.4770  130.6650   63.0910 C   0  0  1  0  0  0  0  0  0  0  0  0
  125.7380  131.4770   62.0050 C   0  0  0  0  0  0  0  0  0  0  0  0
  124.6440  130.8630   61.3810 C   0  0  0  0  0  0  0  0  0  0  0  0
  123.9060  131.5270   60.4010 C   0  0  0  0  0  0  0  0  0  0  0  0
  124.2580  132.8200   60.0260 C   0  0  0  0  0  0  0  0  0  0  0  0
  125.3520  133.4420   60.6220 C   0  0  0  0  0  0  0  0  0  0  0  0
  126.0990  132.7840   61.6020 C   0  0  0  0  0  0  0  0  0  0  0  0
  127.4810  133.6150   62.2330 Cl  0  0  0  0  0  0  0  0  0  0  0  0
  125.5200  130.3240   64.2360 C   0  0  0  0  0  0  0  0  0  0  0  0
  124.2230  130.1600   64.1210 N   0  0  0  0  0  0  0  0  0  0  0  0
  123.7620  129.8490   65.3960 N   0  0  0  0  0  0  0  0  0  0  0  0
  124.8170  129.8130   66.2840 N   0  0  0  0  0  0  0  0  0  0  0  0
  125.8960  130.0880   65.5420 N   0  0  0  0  0  0  0  0  0  0  0  0
  127.2130  130.1580   66.1650 C   0  0  0  0  0  0  0  0  0  0  0  0
  127.2100  129.4130   67.5120 C   0  0  0  0  0  0  0  0  0  0  0  0
  128.0730  128.1610   67.4780 C   0  0  0  0  0  0  0  0  0  0  0  0
  128.1940  127.3660   68.6210 C   0  0  0  0  0  0  0  0  0  0  0  0
  128.9790  126.2160   68.5880 C   0  0  0  0  0  0  0  0  0  0  0  0
  129.6400  125.8660   67.4110 C   0  0  0  0  0  0  0  0  0  0  0  0
  129.5220  126.6550   66.2680 C   0  0  0  0  0  0  0  0  0  0  0  0
  128.7370  127.8040   66.3010 C   0  0  0  0  0  0  0  0  0  0  0  0
  128.2260  129.0100   63.5880 C   0  0  0  0  0  0  0  0  0  0  0  0
  129.0600  127.8510   62.9940 C   0  0  0  0  0  0  0  0  0  0  0  0
  1  2  1  0
  2  3  2  0
  3  4  1  0
  4  5  2  0
  5  6  1  0
  6  7  2  0
  7  8  1  0
  8  9  1  0
  9 10  2  0
 10 11  1  0
 11 12  2  0
 12 13  1  0
 13 14  1  0
 14 15  1  0
 15 16  1  0
 16 17  2  0
 17 18  1  0
 18 19  2  0
 19 20  1  0
 20 21  2  0
  8 22  1  1
 22 23  1  0
 23 24  1  0
 24 25  1  0
 26 25  1  6
 26 27  1  0
 27 28  2  0
 28 29  1  0
 29 30  2  0
 30 31  1  0
 31 32  2  0
 32 33  1  0
 26 34  1  0
 34 35  2  0
 35 36  1  0
 36 37  2  0
 37 38  1  0
 38 39  1  0
 39 40  1  0
 40 41  1  0
 41 42  2  0
 42 43  1  0
 43 44  2  0
 44 45  1  0
 45 46  2  0
 25 47  1  0
 47 48  1  0
  7  2  1  0
 13  9  1  0
 21 16  1  0
 48 22  1  0
 32 27  1  0
 38 34  1  0
 46 41  1  0
M  END
>  <Binding energies>  (69) 
[-11.78]

>  <Ligand effiencies>  (69) 
[-0.24541666666666664]

>  <Interactions>  (69) 
["V-B:TYR:539:CE2:9847, V-B:TYR:539:CD2:9845, V-A:LEU:475:CD2:4258, H-B:ALA:541:N:9862, V-A:ASP:366:CG:3212, V-A:ILE:369:CD1:3238, V-A:ILE:369:CG2:3236, H-B:ARG:545:NH2:9899, V-A:GLU:543:CD:4908, V-A:GLU:543:CG:4907, V-B:HIS:456:CE1:9041, V-B:GLU:543:CB:9877, V-A:TYR:484:CZ:4346, V-A:HIS:456:CE1:4069, V-B:GLU:543:CG:9878, V-B:GLU:543:CD:9879, V-A:TYR:484:CE1:4344, V-A:TYR:539:CE2:4876, V-A:TYR:539:CD2:4874, V-A:ALA:541:CB:4892, V-B:ILE:369:CB:8207, V-B:ASP:366:CB:8183, V-B:ILE:369:CG2:8208, V-B:ASP:366:CG:8184, H-B:TYR:484:OH:9319, H-B:GLY:454:N:9021, H-B:ARG:545:NE:9895, V-B:ILE:369:CD1:8210, V-A:TRP:381:CH2:3371, V-A:TRP:381:CZ2:3369, H-B:ARG:545:NH1:9898"]

$$$$
RR14_Rahimova_2017
     RDKit          3D

 39 43  0  0  0  0  0  0  0  0999 V2000
  130.2810  119.2640   60.9360 C   0  0  0  0  0  0  0  0  0  0  0  0
  131.4470  119.8770   60.3960 O   0  0  0  0  0  0  0  0  0  0  0  0
  131.8510  121.1030   60.8890 C   0  0  0  0  0  0  0  0  0  0  0  0
  131.1940  122.2250   60.3830 C   0  0  0  0  0  0  0  0  0  0  0  0
  131.5490  123.5030   60.8030 C   0  0  0  0  0  0  0  0  0  0  0  0
  132.5770  123.6720   61.7330 C   0  0  0  0  0  0  0  0  0  0  0  0
  133.0140  125.0730   62.1450 C   0  0  0  0  0  0  0  0  0  0  0  0
  133.1840  125.2240   63.5900 N   0  0  0  0  0  0  0  0  0  0  0  0
  134.4090  125.2910   64.1230 N   0  0  0  0  0  0  0  0  0  0  0  0
  134.1940  125.4000   65.4830 N   0  0  0  0  0  0  0  0  0  0  0  0
  132.8300  125.3900   65.7540 N   0  0  0  0  0  0  0  0  0  0  0  0
  132.2360  125.2750   64.5900 C   0  0  0  0  0  0  0  0  0  0  0  0
  130.7310  125.1960   64.3760 C   0  0  0  0  0  0  0  0  0  0  0  0
  130.3120  125.7910   63.0960 N   0  0  0  0  0  0  0  0  0  0  0  0
  128.9740  125.3400   62.6930 C   0  0  0  0  0  0  0  0  0  0  0  0
  128.8000  123.8060   62.7530 C   0  0  0  0  0  0  0  0  0  0  0  0
  128.2990  123.1870   61.4310 C   0  0  0  0  0  0  0  0  0  0  0  0
  126.8370  123.1300   61.3340 N   0  0  0  0  0  0  0  0  0  0  0  0
  126.3680  123.9490   60.2090 C   0  0  0  0  0  0  0  0  0  0  0  0
  124.8270  123.9520   60.1110 C   0  0  0  0  0  0  0  0  0  0  0  0
  124.2590  124.3610   61.3500 O   0  0  0  0  0  0  0  0  0  0  0  0
  124.6240  123.4990   62.4210 C   0  0  0  0  0  0  0  0  0  0  0  0
  126.1580  123.4830   62.5910 C   0  0  0  0  0  0  0  0  0  0  0  0
  130.3570  127.2580   63.1810 C   0  0  0  0  0  0  0  0  0  0  0  0
  129.0610  127.9450   63.6050 C   0  0  0  0  0  0  0  0  0  0  0  0
  128.7610  128.1270   64.9150 C   0  0  0  0  0  0  0  0  0  0  0  0
  127.4970  128.7520   65.3520 C   0  0  0  0  0  0  0  0  0  0  0  0
  127.1630  128.9740   66.6990 C   0  0  0  0  0  0  0  0  0  0  0  0
  128.1020  128.5760   67.8300 C   0  0  0  0  0  0  0  0  0  0  0  0
  125.9400  129.5760   67.0060 C   0  0  0  0  0  0  0  0  0  0  0  0
  125.0590  129.9550   65.9950 C   0  0  0  0  0  0  0  0  0  0  0  0
  125.3830  129.7410   64.6520 C   0  0  0  0  0  0  0  0  0  0  0  0
  124.4000  130.1680   63.5690 C   0  0  0  0  0  0  0  0  0  0  0  0
  126.6090  129.1370   64.3320 C   0  0  0  0  0  0  0  0  0  0  0  0
  126.9770  128.8980   62.9910 N   0  0  0  0  0  0  0  0  0  0  0  0
  128.1240  128.3280   62.5440 C   0  0  0  0  0  0  0  0  0  0  0  0
  128.3110  128.1650   61.3380 O   0  0  0  0  0  0  0  0  0  0  0  0
  133.2210  122.5540   62.2670 C   0  0  0  0  0  0  0  0  0  0  0  0
  132.8650  121.2760   61.8460 C   0  0  0  0  0  0  0  0  0  0  0  0
  1  2  1  0
  2  3  1  0
  3  4  2  0
  4  5  1  0
  5  6  2  0
  6  7  1  0
  7  8  1  0
  8  9  1  0
  9 10  2  0
 10 11  1  0
 11 12  2  0
 12 13  1  0
 13 14  1  0
 14 15  1  0
 15 16  1  0
 16 17  1  0
 17 18  1  0
 18 19  1  0
 19 20  1  0
 20 21  1  0
 21 22  1  0
 22 23  1  0
 14 24  1  0
 24 25  1  0
 25 26  2  0
 26 27  1  0
 27 28  2  0
 28 29  1  0
 28 30  1  0
 30 31  2  0
 31 32  1  0
 32 33  1  0
 32 34  2  0
 34 35  1  0
 35 36  1  0
 36 37  2  0
  6 38  1  0
 38 39  2  0
 39  3  1  0
 12  8  1  0
 23 18  1  0
 36 25  1  0
 34 27  1  0
M  END
>  <Binding energies>  (70) 
[-9.43]

>  <Ligand effiencies>  (70) 
[-0.23575]

>  <Interactions>  (70) 
["V-A:PRO:482:CG:4326, H-B:ASP:366:OD2:8186, V-B:TYR:539:CE2:9847, V-B:PRO:540:CA:9854, V-B:TYR:539:CD2:9845, V-B:PRO:540:CB:9856, V-B:ALA:541:CB:9863, V-A:LEU:475:CD2:4258, V-B:ALA:541:CA:9861, H-B:ALA:541:N:9862, V-A:PRO:482:CB:4325, H-A:ARG:545:NH2:4928, H-A:GLY:454:N:4049, H-A:ARG:545:NE:4924, H-A:ARG:545:NH1:4927, V-A:ASP:366:CG:3212, V-A:ILE:369:CD1:3238, V-A:ILE:369:CG2:3236, H-A:TYR:484:OH:4347, V-A:ARG:545:CZ:4926, H-B:ARG:545:NH2:9899, V-A:GLU:543:CD:4908, V-A:GLU:543:CG:4907, V-B:HIS:456:CE1:9041, V-B:GLU:543:CG:9878, V-B:GLU:543:CD:9879, V-B:ASN:362:CB:8147, V-B:ARG:545:CZ:9897, V-B:ALA:541:C:9859, V-A:TRP:381:CH2:3371, V-A:TRP:381:CZ2:3369, V-B:ASN:362:CG:8148"]

$$$$
RR15_Rahimova_2017
     RDKit          3D

 45 49  0  0  0  0  0  0  0  0999 V2000
  130.0290  125.5490   74.5550 C   0  0  0  0  0  0  0  0  0  0  0  0
  128.8930  126.1340   73.9280 O   0  0  0  0  0  0  0  0  0  0  0  0
  128.8980  126.3360   72.5590 C   0  0  0  0  0  0  0  0  0  0  0  0
  128.2490  125.4900   71.6460 C   0  0  0  0  0  0  0  0  0  0  0  0
  128.2950  125.7500   70.2780 C   0  0  0  0  0  0  0  0  0  0  0  0
  128.9910  126.8580   69.7830 C   0  0  0  0  0  0  0  0  0  0  0  0
  129.0470  127.1340   68.3060 C   0  0  0  0  0  0  0  0  0  0  0  0
  128.4780  128.1940   67.7490 N   0  0  0  0  0  0  0  0  0  0  0  0
  128.7330  128.0990   66.3970 N   0  0  0  0  0  0  0  0  0  0  0  0
  129.4740  126.9950   66.2940 N   0  0  0  0  0  0  0  0  0  0  0  0
  129.8360  126.4240   64.9990 C   0  0  0  0  0  0  0  0  0  0  0  0
  129.2080  127.1370   63.7760 C   0  0  0  0  0  0  0  0  0  0  0  0
  128.3470  127.9960   63.9810 O   0  0  0  0  0  0  0  0  0  0  0  0
  129.6380  126.8250   62.5140 N   0  0  0  0  0  0  0  0  0  0  0  0
  128.9680  125.7820   61.7110 C   0  0  0  0  0  0  0  0  0  0  0  0
  129.1280  124.3600   62.2900 C   0  0  0  0  0  0  0  0  0  0  0  0
  128.5890  123.2270   61.3840 C   0  0  0  0  0  0  0  0  0  0  0  0
  127.1260  123.1380   61.3570 N   0  0  0  0  0  0  0  0  0  0  0  0
  126.4930  123.4740   62.6410 C   0  0  0  0  0  0  0  0  0  0  0  0
  124.9530  123.4490   62.5350 C   0  0  0  0  0  0  0  0  0  0  0  0
  124.5190  124.3020   61.4820 O   0  0  0  0  0  0  0  0  0  0  0  0
  125.0490  123.9160   60.2180 C   0  0  0  0  0  0  0  0  0  0  0  0
  126.5920  123.9570   60.2600 C   0  0  0  0  0  0  0  0  0  0  0  0
  130.6670  127.6190   61.7760 C   0  0  2  0  0  0  0  0  0  0  0  0
  130.1840  129.0380   61.3410 C   0  0  0  0  0  0  0  0  0  0  0  0
  129.0190  129.3950   61.5170 O   0  0  0  0  0  0  0  0  0  0  0  0
  131.1270  129.8360   60.8100 N   0  0  0  0  0  0  0  0  0  0  0  0
  130.9350  131.2300   60.4270 C   0  0  0  0  0  0  0  0  0  0  0  0
  132.0050  131.6830   59.4160 C   0  0  2  0  0  0  0  0  0  0  0  0
  131.4710  132.4290   58.1810 C   0  0  0  0  0  0  0  0  0  0  0  0
  131.4780  131.3950   57.0810 C   0  0  0  0  0  0  0  0  0  0  0  0
  132.6900  130.5620   57.4600 C   0  0  0  0  0  0  0  0  0  0  0  0
  132.5770  130.4830   58.8770 O   0  0  0  0  0  0  0  0  0  0  0  0
  131.3570  126.7600   60.7240 C   0  0  0  0  0  0  0  0  0  0  0  0
  132.2310  125.7570   61.1610 C   0  0  0  0  0  0  0  0  0  0  0  0
  132.8900  124.9420   60.2450 C   0  0  0  0  0  0  0  0  0  0  0  0
  132.6780  125.1230   58.8810 C   0  0  0  0  0  0  0  0  0  0  0  0
  133.3170  124.3310   57.9910 F   0  0  0  0  0  0  0  0  0  0  0  0
  131.8110  126.1140   58.4280 C   0  0  0  0  0  0  0  0  0  0  0  0
  131.1540  126.9290   59.3450 C   0  0  0  0  0  0  0  0  0  0  0  0
  129.6610  126.3420   67.4470 N   0  0  0  0  0  0  0  0  0  0  0  0
  129.6360  127.7010   70.6970 C   0  0  0  0  0  0  0  0  0  0  0  0
  129.5960  127.4540   72.0800 C   0  0  0  0  0  0  0  0  0  0  0  0
  130.2130  128.2600   73.0220 O   0  0  0  0  0  0  0  0  0  0  0  0
  130.1380  129.6750   72.8940 C   0  0  0  0  0  0  0  0  0  0  0  0
  1  2  1  0
  2  3  1  0
  3  4  2  0
  4  5  1  0
  5  6  2  0
  6  7  1  0
  7  8  1  0
  8  9  2  0
  9 10  1  0
 10 11  1  0
 11 12  1  0
 12 13  2  0
 12 14  1  0
 14 15  1  0
 15 16  1  0
 16 17  1  0
 17 18  1  0
 18 19  1  0
 19 20  1  0
 20 21  1  0
 21 22  1  0
 22 23  1  0
 24 14  1  6
 24 25  1  0
 25 26  2  0
 25 27  1  0
 27 28  1  0
 29 28  1  1
 29 30  1  0
 30 31  1  0
 31 32  1  0
 32 33  1  0
 24 34  1  0
 34 35  2  0
 35 36  1  0
 36 37  2  0
 37 38  1  0
 37 39  1  0
 39 40  2  0
 10 41  1  0
  6 42  1  0
 42 43  2  0
 43 44  1  0
 44 45  1  0
 43  3  1  0
 41  7  2  0
 23 18  1  0
 33 29  1  0
 40 34  1  0
M  END
>  <Binding energies>  (71) 
[-9.25]

>  <Ligand effiencies>  (71) 
[-0.20108695652173914]

>  <Interactions>  (71) 
["V-B:TYR:539:CE2:9847, V-B:PRO:540:CA:9854, V-B:PRO:540:CB:9856, V-B:ALA:541:CB:9863, V-B:ALA:541:CA:9861, H-B:ALA:541:N:9862, H-A:ASP:366:OD2:3214, V-B:TYR:539:CZ:9848, V-A:ASP:366:CG:3212, V-A:ASP:366:CB:3211, V-A:ASP:366:CA:3209, V-A:ILE:369:CG2:3236, H-B:ARG:545:NH2:9899, V-A:GLU:543:CD:4908, V-B:HIS:456:CE1:9041, V-B:GLU:543:CB:9877, V-A:HIS:456:CE1:4069, V-B:GLU:543:CG:9878, V-A:ASP:366:C:3207, V-B:GLU:543:CD:9879, V-A:HIS:456:CD2:4067, V-A:PRO:540:N:4884, V-A:LEU:363:CD1:3188, V-A:TYR:539:C:4867, V-A:PRO:540:CA:4883, V-A:TYR:531:CE2:4793, V-B:ASN:362:CB:8147, V-A:TYR:531:CZ:4794, V-A:PRO:540:CB:4885, V-B:ALA:541:C:9859, H-B:LYS:547:NZ:9922, V-B:GLU:543:C:9873, V-A:ILE:369:CB:3235, H-A:LYS:547:NZ:4951, V-B:ASN:362:CG:8148"]

$$$$
RR17_Rahimova_2017
     RDKit          3D

 38 41  0  0  0  0  0  0  0  0999 V2000
  129.4020  123.3180   73.8750 C   0  0  0  0  0  0  0  0  0  0  0  0
  129.7870  124.7490   74.2660 C   0  0  0  0  0  0  0  0  0  0  0  0
  128.8020  125.6430   73.7560 O   0  0  0  0  0  0  0  0  0  0  0  0
  128.9060  126.0950   72.4530 C   0  0  0  0  0  0  0  0  0  0  0  0
  128.1940  125.3830   71.4890 C   0  0  0  0  0  0  0  0  0  0  0  0
  128.2380  125.7620   70.1510 C   0  0  0  0  0  0  0  0  0  0  0  0
  129.0020  126.8670   69.7480 C   0  0  0  0  0  0  0  0  0  0  0  0
  129.0300  127.2540   68.2980 C   0  0  0  0  0  0  0  0  0  0  0  0
  128.1210  127.8990   67.7680 O   0  0  0  0  0  0  0  0  0  0  0  0
  130.2520  126.7920   67.4720 C   0  0  0  0  0  0  0  0  0  0  0  0
  129.9500  125.2010   66.6240 S   0  0  0  0  0  0  0  0  0  0  0  0
  131.4950  125.0070   65.7810 C   0  0  0  0  0  0  0  0  0  0  0  0
  132.6720  125.3150   66.2720 N   0  0  0  0  0  0  0  0  0  0  0  0
  133.6270  125.0090   65.3100 N   0  0  0  0  0  0  0  0  0  0  0  0
  132.9900  124.5240   64.2750 C   0  0  0  0  0  0  0  0  0  0  0  0
  133.6600  124.0470   62.9940 C   0  0  0  0  0  0  0  0  0  0  0  0
  133.7120  125.0600   61.9430 N   0  0  0  0  0  0  0  0  0  0  0  0
  132.7350  125.1950   60.9400 C   0  0  0  0  0  0  0  0  0  0  0  0
  132.7670  124.2830   59.8850 C   0  0  0  0  0  0  0  0  0  0  0  0
  131.8320  124.3640   58.8570 C   0  0  0  0  0  0  0  0  0  0  0  0
  130.8500  125.3580   58.8740 C   0  0  0  0  0  0  0  0  0  0  0  0
  129.8350  125.4360   57.7330 C   0  0  0  0  0  0  0  0  0  0  0  0
  128.9320  126.4000   57.9260 F   0  0  0  0  0  0  0  0  0  0  0  0
  130.4540  125.6780   56.5760 F   0  0  0  0  0  0  0  0  0  0  0  0
  129.1920  124.2730   57.6400 F   0  0  0  0  0  0  0  0  0  0  0  0
  130.8120  126.2690   59.9350 C   0  0  0  0  0  0  0  0  0  0  0  0
  131.7450  126.1870   60.9630 C   0  0  0  0  0  0  0  0  0  0  0  0
  131.6300  124.5050   64.5020 N   0  0  0  0  0  0  0  0  0  0  0  0
  130.6200  124.0500   63.6420 C   0  0  0  0  0  0  0  0  0  0  0  0
  129.5350  124.8780   63.3560 C   0  0  0  0  0  0  0  0  0  0  0  0
  128.5310  124.4240   62.5050 C   0  0  0  0  0  0  0  0  0  0  0  0
  128.6090  123.1420   61.9380 C   0  0  0  0  0  0  0  0  0  0  0  0
  127.6630  122.6090   61.0840 O   0  0  0  0  0  0  0  0  0  0  0  0
  128.0060  122.3810   59.7210 C   0  0  0  0  0  0  0  0  0  0  0  0
  129.7020  122.3260   62.2370 C   0  0  0  0  0  0  0  0  0  0  0  0
  130.7100  122.7730   63.0870 C   0  0  0  0  0  0  0  0  0  0  0  0
  129.7170  127.5830   70.7190 C   0  0  0  0  0  0  0  0  0  0  0  0
  129.6700  127.2020   72.0580 C   0  0  0  0  0  0  0  0  0  0  0  0
  1  2  1  0
  2  3  1  0
  3  4  1  0
  4  5  2  0
  5  6  1  0
  6  7  2  0
  7  8  1  0
  8  9  2  0
  8 10  1  0
 10 11  1  0
 11 12  1  0
 12 13  2  0
 13 14  1  0
 14 15  2  0
 15 16  1  0
 16 17  1  0
 17 18  1  0
 18 19  2  0
 19 20  1  0
 20 21  2  0
 21 22  1  0
 22 23  1  0
 22 24  1  0
 22 25  1  0
 21 26  1  0
 26 27  2  0
 15 28  1  0
 28 29  1  0
 29 30  2  0
 30 31  1  0
 31 32  2  0
 32 33  1  0
 33 34  1  0
 32 35  1  0
 35 36  2  0
  7 37  1  0
 37 38  2  0
 38  4  1  0
 28 12  1  0
 36 29  1  0
 27 18  1  0
M  END
>  <Binding energies>  (72) 
[-7.79]

>  <Ligand effiencies>  (72) 
[-0.19974358974358974]

>  <Interactions>  (72) 
["V-B:TYR:539:CE2:9847, V-B:PRO:540:CA:9854, V-B:TYR:539:CD2:9845, V-B:ALA:541:CB:9863, V-B:TYR:539:C:9838, V-B:PRO:540:N:9855, V-B:TYR:539:CE1:9846, H-B:ALA:541:N:9862, H-A:ASP:366:OD2:3214, V-B:TYR:539:CZ:9848, H-A:GLY:454:N:4049, H-A:ARG:545:NE:4924, V-A:ASP:366:CG:3212, V-A:ILE:369:CD1:3238, H-A:ASP:366:OD1:3213, V-A:ILE:369:CG2:3236, H-A:TYR:484:OH:4347, V-A:GLU:543:CD:4908, V-B:HIS:456:CE1:9041, V-B:GLU:543:CB:9877, V-A:HIS:456:CE1:4069, V-B:GLU:543:CD:9879, V-A:HIS:456:CD2:4067, V-B:PRO:540:C:9852, V-A:TYR:531:CZ:4794, V-A:GLY:454:CA:4048, H-B:LYS:547:NZ:9922, V-B:LYS:547:CE:9921, V-B:GLU:543:C:9873, V-B:GLY:544:C:9883"]

$$$$
RR19_Rahimova_2017
     RDKit          3D

 46 51  0  0  0  0  0  0  0  0999 V2000
  133.2910  124.8890   64.9470 O   0  0  0  0  0  0  0  0  0  0  0  0
  132.1510  124.9000   64.4740 C   0  0  0  0  0  0  0  0  0  0  0  0
  131.8300  125.1270   63.1740 N   0  0  0  0  0  0  0  0  0  0  0  0
  132.5760  125.1830   62.0230 C   0  0  0  0  0  0  0  0  0  0  0  0
  134.1980  124.7210   61.8740 S   0  0  0  0  0  0  0  0  0  0  0  0
  131.7870  125.6770   61.0130 N   0  0  0  0  0  0  0  0  0  0  0  0
  131.9710  125.8030   59.6740 C   0  0  0  0  0  0  0  0  0  0  0  0
  132.8850  125.3060   59.0120 O   0  0  0  0  0  0  0  0  0  0  0  0
  130.9080  126.6860   58.9740 C   0  0  2  0  0  0  0  0  0  0  0  0
  130.5360  127.9890   59.7390 C   0  0  0  0  0  0  0  0  0  0  0  0
  131.3470  129.2170   59.3570 C   0  0  0  0  0  0  0  0  0  0  0  0
  132.0560  129.2670   58.1380 C   0  0  0  0  0  0  0  0  0  0  0  0
  132.7260  130.4250   57.7700 C   0  0  0  0  0  0  0  0  0  0  0  0
  132.6870  131.5470   58.5900 C   0  0  0  0  0  0  0  0  0  0  0  0
  131.9690  131.5230   59.7780 C   0  0  0  0  0  0  0  0  0  0  0  0
  131.2900  130.3750   60.1630 C   0  0  0  0  0  0  0  0  0  0  0  0
  129.6970  125.8950   58.6200 N   0  0  0  0  0  0  0  0  0  0  0  0
  128.8000  125.5070   59.5710 C   0  0  0  0  0  0  0  0  0  0  0  0
  128.8650  125.7100   60.7850 O   0  0  0  0  0  0  0  0  0  0  0  0
  127.7280  124.7920   58.8360 C   0  0  0  0  0  0  0  0  0  0  0  0
  126.5610  124.1770   59.2920 C   0  0  0  0  0  0  0  0  0  0  0  0
  125.7120  123.5750   58.3560 C   0  0  0  0  0  0  0  0  0  0  0  0
  126.0360  123.5970   56.9920 C   0  0  0  0  0  0  0  0  0  0  0  0
  127.2100  124.2200   56.5560 C   0  0  0  0  0  0  0  0  0  0  0  0
  128.0440  124.8130   57.5050 C   0  0  0  0  0  0  0  0  0  0  0  0
  129.3260  125.5430   57.3520 C   0  0  0  0  0  0  0  0  0  0  0  0
  129.9220  125.7870   56.3020 O   0  0  0  0  0  0  0  0  0  0  0  0
  130.9330  124.6530   65.4030 C   0  0  2  0  0  0  0  0  0  0  0  0
  130.0850  123.4080   65.0130 C   0  0  0  0  0  0  0  0  0  0  0  0
  130.3950  122.8590   63.6320 C   0  0  0  0  0  0  0  0  0  0  0  0
  129.5970  123.2300   62.5280 C   0  0  0  0  0  0  0  0  0  0  0  0
  129.9420  122.8090   61.2490 C   0  0  0  0  0  0  0  0  0  0  0  0
  131.0860  122.0470   61.0480 C   0  0  0  0  0  0  0  0  0  0  0  0
  131.9020  121.7080   62.1200 C   0  0  0  0  0  0  0  0  0  0  0  0
  131.5740  122.1180   63.4060 C   0  0  0  0  0  0  0  0  0  0  0  0
  130.0780  125.8590   65.5910 N   0  0  0  0  0  0  0  0  0  0  0  0
  129.5630  126.5450   64.5320 C   0  0  0  0  0  0  0  0  0  0  0  0
  129.7270  126.3030   63.3350 O   0  0  0  0  0  0  0  0  0  0  0  0
  128.7620  127.6440   65.1260 C   0  0  0  0  0  0  0  0  0  0  0  0
  128.0170  128.6600   64.5260 C   0  0  0  0  0  0  0  0  0  0  0  0
  127.3490  129.5750   65.3480 C   0  0  0  0  0  0  0  0  0  0  0  0
  127.4300  129.4620   66.7420 C   0  0  0  0  0  0  0  0  0  0  0  0
  128.1800  128.4340   67.3240 C   0  0  0  0  0  0  0  0  0  0  0  0
  128.8410  127.5340   66.4870 C   0  0  0  0  0  0  0  0  0  0  0  0
  129.6940  126.3620   66.8020 C   0  0  0  0  0  0  0  0  0  0  0  0
  129.9920  125.9340   67.9170 O   0  0  0  0  0  0  0  0  0  0  0  0
  1  2  2  0
  2  3  1  0
  3  4  1  0
  4  5  2  0
  4  6  1  0
  6  7  1  0
  7  8  2  0
  7  9  1  0
  9 10  1  1
 10 11  1  0
 11 12  2  0
 12 13  1  0
 13 14  2  0
 14 15  1  0
 15 16  2  0
  9 17  1  0
 17 18  1  0
 18 19  2  0
 18 20  1  0
 20 21  2  0
 21 22  1  0
 22 23  2  0
 23 24  1  0
 24 25  2  0
 25 26  1  0
 26 27  2  0
  2 28  1  0
 28 29  1  6
 29 30  1  0
 30 31  2  0
 31 32  1  0
 32 33  2  0
 33 34  1  0
 34 35  2  0
 28 36  1  0
 36 37  1  0
 37 38  2  0
 37 39  1  0
 39 40  2  0
 40 41  1  0
 41 42  2  0
 42 43  1  0
 43 44  2  0
 44 45  1  0
 45 46  2  0
 16 11  1  0
 26 17  1  0
 35 30  1  0
 45 36  1  0
 25 20  1  0
 44 39  1  0
M  END
>  <Binding energies>  (73) 
[-9.73]

>  <Ligand effiencies>  (73) 
[-0.20270833333333335]

>  <Interactions>  (73) 
["V-B:TYR:539:CE2:9847, V-B:PRO:540:CA:9854, V-B:PRO:540:CB:9856, V-B:ALA:541:CB:9863, V-A:LEU:475:CD2:4258, V-B:TYR:539:CZ:9848, H-A:GLY:454:N:4049, V-A:ASP:366:CG:3212, V-A:ILE:369:CD1:3238, V-A:ASP:366:CB:3211, H-B:TYR:539:OH:9849, H-A:TYR:484:OH:4347, V-A:GLU:543:CD:4908, V-A:GLU:543:CG:4907, V-B:HIS:456:CE1:9041, V-B:GLU:543:CG:9878, V-B:GLU:543:CD:9879, V-A:TYR:484:CE1:4344, V-A:LEU:363:CD1:3188, V-A:PRO:540:CA:4883, V-A:TYR:531:CE2:4793, H-A:TYR:531:OH:4795, V-A:TYR:531:CZ:4794, V-A:PRO:540:CB:4885"]

$$$$
RR1_Rahimova_2017
     RDKit          3D

 41 44  0  0  0  0  0  0  0  0999 V2000
  127.9860  122.4590   58.7160 C   0  0  0  0  0  0  0  0  0  0  0  0
  128.2120  121.6350   59.8540 O   0  0  0  0  0  0  0  0  0  0  0  0
  128.9590  122.1280   60.9060 C   0  0  0  0  0  0  0  0  0  0  0  0
  128.5520  123.1810   61.7410 C   0  0  0  0  0  0  0  0  0  0  0  0
  129.3770  123.6170   62.7740 C   0  0  0  0  0  0  0  0  0  0  0  0
  130.6140  123.0080   62.9950 C   0  0  0  0  0  0  0  0  0  0  0  0
  131.3950  123.5500   64.0330 N   0  0  0  0  0  0  0  0  0  0  0  0
  132.7350  123.5320   64.1940 C   0  0  0  0  0  0  0  0  0  0  0  0
  133.5230  122.9470   63.4500 O   0  0  0  0  0  0  0  0  0  0  0  0
  133.2440  124.3120   65.4170 C   0  0  0  0  0  0  0  0  0  0  0  0
  132.7010  126.0540   65.5160 S   0  0  0  0  0  0  0  0  0  0  0  0
  132.0760  126.2040   63.8770 C   0  0  0  0  0  0  0  0  0  0  0  0
  132.7100  125.7980   62.8060 N   0  0  0  0  0  0  0  0  0  0  0  0
  131.8790  126.0940   61.8120 C   0  0  0  0  0  0  0  0  0  0  0  0
  132.2000  125.7840   60.3770 C   0  0  0  0  0  0  0  0  0  0  0  0
  131.4540  126.3350   59.3230 C   0  0  0  0  0  0  0  0  0  0  0  0
  131.7740  126.0270   57.9990 C   0  0  0  0  0  0  0  0  0  0  0  0
  132.8430  125.1660   57.7570 C   0  0  0  0  0  0  0  0  0  0  0  0
  133.5850  124.6160   58.7520 N   0  0  0  0  0  0  0  0  0  0  0  0
  133.2580  124.9300   60.0310 C   0  0  0  0  0  0  0  0  0  0  0  0
  130.7500  126.6740   62.1730 N   0  0  0  0  0  0  0  0  0  0  0  0
  130.8740  126.7480   63.5010 N   0  0  0  0  0  0  0  0  0  0  0  0
  129.8030  127.3190   64.3170 C   0  0  0  0  0  0  0  0  0  0  0  0
  129.5930  126.6400   65.6820 C   0  0  0  0  0  0  0  0  0  0  0  0
  129.8270  125.4350   65.8320 O   0  0  0  0  0  0  0  0  0  0  0  0
  129.1440  127.4520   66.6580 N   0  0  0  0  0  0  0  0  0  0  0  0
  129.0720  126.9460   67.9480 N   0  0  0  0  0  0  0  0  0  0  0  0
  129.0930  127.8260   68.9730 C   0  0  0  0  0  0  0  0  0  0  0  0
  129.0700  129.0530   68.8320 O   0  0  0  0  0  0  0  0  0  0  0  0
  129.1210  127.2160   70.3600 C   0  0  0  0  0  0  0  0  0  0  0  0
  128.6070  125.9320   70.5690 C   0  0  0  0  0  0  0  0  0  0  0  0
  128.6120  125.3580   71.8360 C   0  0  0  0  0  0  0  0  0  0  0  0
  129.1270  126.0580   72.9390 C   0  0  0  0  0  0  0  0  0  0  0  0
  129.1490  125.5510   74.2260 O   0  0  0  0  0  0  0  0  0  0  0  0
  130.1540  124.6140   74.5940 C   0  0  0  0  0  0  0  0  0  0  0  0
  129.6400  127.3480   72.7520 C   0  0  0  0  0  0  0  0  0  0  0  0
  130.1170  128.0030   73.8750 O   0  0  0  0  0  0  0  0  0  0  0  0
  129.4160  129.1340   74.3810 C   0  0  0  0  0  0  0  0  0  0  0  0
  129.6350  127.9140   71.4650 C   0  0  0  0  0  0  0  0  0  0  0  0
  131.0240  121.9550   62.1630 C   0  0  0  0  0  0  0  0  0  0  0  0
  130.1950  121.5220   61.1320 C   0  0  0  0  0  0  0  0  0  0  0  0
  1  2  1  0
  2  3  1  0
  3  4  2  0
  4  5  1  0
  5  6  2  0
  6  7  1  0
  7  8  1  0
  8  9  2  0
  8 10  1  0
 10 11  1  0
 11 12  1  0
 12 13  2  0
 13 14  1  0
 14 15  1  0
 15 16  2  0
 16 17  1  0
 17 18  2  0
 18 19  1  0
 19 20  2  0
 14 21  2  0
 21 22  1  0
 22 23  1  0
 23 24  1  0
 24 25  2  0
 24 26  1  0
 26 27  1  0
 27 28  1  0
 28 29  2  0
 28 30  1  0
 30 31  2  0
 31 32  1  0
 32 33  2  0
 33 34  1  0
 34 35  1  0
 33 36  1  0
 36 37  1  0
 37 38  1  0
 36 39  2  0
  6 40  1  0
 40 41  2  0
 41  3  1  0
 22 12  1  0
 39 30  1  0
 20 15  1  0
M  END
>  <Binding energies>  (74) 
[-7.39]

>  <Ligand effiencies>  (74) 
[-0.16795454545454544]

>  <Interactions>  (74) 
["V-B:TYR:539:CE2:9847, V-B:PRO:540:CA:9854, V-B:TYR:539:CD2:9845, V-B:TYR:539:CG:9843, V-B:ALA:541:CB:9863, V-B:TYR:539:C:9838, V-A:LEU:475:CD2:4258, V-B:PRO:540:N:9855, H-B:ALA:541:N:9862, V-B:TYR:539:CZ:9848, H-A:ARG:545:NH2:4928, H-A:GLY:454:N:4049, H-A:ARG:545:NE:4924, V-A:ASP:366:CG:3212, V-A:ASP:366:CB:3211, V-A:ASP:366:CA:3209, V-A:ILE:369:CG2:3236, H-A:TYR:484:OH:4347, H-A:GLU:543:OE2:4910, V-A:ARG:545:CZ:4926, V-A:GLU:543:CD:4908, V-A:GLU:543:CG:4907, V-B:HIS:456:CE1:9041, V-A:TYR:484:CZ:4346, V-A:HIS:456:CE1:4069, V-B:GLU:543:CG:9878, V-A:ASP:366:C:3207, V-B:GLU:543:CD:9879, V-A:HIS:456:CD2:4067, H-A:GLU:543:OE1:4909, V-A:GLY:454:CA:4048, H-B:LYS:547:NZ:9922, H-A:LYS:547:NZ:4951, V-A:LYS:547:CE:4950"]

$$$$
RR22_Rahimova_2017
     RDKit          3D

 31 36  0  0  0  0  0  0  0  0999 V2000
  123.8210  130.9540   56.2510 O   0  0  0  0  0  0  0  0  0  0  0  0
  124.7810  130.7750   56.9970 C   0  0  0  0  0  0  0  0  0  0  0  0
  124.7550  130.4110   58.3320 N   0  0  0  0  0  0  0  0  0  0  0  0
  125.9720  130.1820   59.0490 C   0  0  1  0  0  0  0  0  0  0  0  0
  125.9110  131.0550   60.1810 O   0  0  0  0  0  0  0  0  0  0  0  0
  125.9620  130.4910   61.4560 C   0  0  0  0  0  0  0  0  0  0  0  0
  125.5360  131.2980   62.5100 C   0  0  0  0  0  0  0  0  0  0  0  0
  125.5960  130.8180   63.8190 C   0  0  0  0  0  0  0  0  0  0  0  0
  126.0880  129.5380   64.0710 C   0  0  0  0  0  0  0  0  0  0  0  0
  126.5150  128.7300   63.0160 C   0  0  0  0  0  0  0  0  0  0  0  0
  126.4380  129.1880   61.6970 C   0  0  0  0  0  0  0  0  0  0  0  0
  126.9140  128.4100   60.4910 C   0  0  1  0  0  0  0  0  0  0  0  0
  126.8520  126.8970   60.4220 C   0  0  0  0  0  0  0  0  0  0  0  0
  126.6720  126.7110   58.9130 C   0  0  0  0  0  0  0  0  0  0  0  0
  126.9350  125.4290   58.2290 C   0  0  0  0  0  0  0  0  0  0  0  0
  125.9940  124.3900   58.2740 C   0  0  0  0  0  0  0  0  0  0  0  0
  126.2470  123.1840   57.6270 C   0  0  0  0  0  0  0  0  0  0  0  0
  127.4400  123.0090   56.9320 C   0  0  0  0  0  0  0  0  0  0  0  0
  128.3850  124.0300   56.8780 C   0  0  0  0  0  0  0  0  0  0  0  0
  128.1330  125.2380   57.5230 C   0  0  0  0  0  0  0  0  0  0  0  0
  126.2500  127.7870   58.3620 N   0  0  0  0  0  0  0  0  0  0  0  0
  126.0900  128.7520   59.3710 N   0  0  0  0  0  0  0  0  0  0  0  0
  127.1010  130.6820   58.1590 C   0  0  0  0  0  0  0  0  0  0  0  0
  128.3450  130.9450   58.6250 C   0  0  0  0  0  0  0  0  0  0  0  0
  129.5270  131.4120   57.8750 C   0  0  0  0  0  0  0  0  0  0  0  0
  130.6600  130.6150   57.6550 C   0  0  0  0  0  0  0  0  0  0  0  0
  131.7430  131.1240   56.9370 C   0  0  0  0  0  0  0  0  0  0  0  0
  131.6670  132.4320   56.4580 C   0  0  0  0  0  0  0  0  0  0  0  0
  130.5880  133.2290   56.6630 N   0  0  0  0  0  0  0  0  0  0  0  0
  129.5450  132.7150   57.3640 C   0  0  0  0  0  0  0  0  0  0  0  0
  126.5230  130.9540   56.5090 S   0  0  0  0  0  0  0  0  0  0  0  0
  1  2  2  0
  2  3  1  0
  4  3  1  6
  4  5  1  0
  5  6  1  0
  6  7  2  0
  7  8  1  0
  8  9  2  0
  9 10  1  0
 10 11  2  0
 11 12  1  0
 12 13  1  1
 13 14  1  0
 14 15  1  0
 15 16  2  0
 16 17  1  0
 17 18  2  0
 18 19  1  0
 19 20  2  0
 14 21  2  0
 21 22  1  0
  4 23  1  0
 23 24  2  0
 24 25  1  0
 25 26  2  0
 26 27  1  0
 27 28  2  0
 28 29  1  0
 29 30  2  0
 23 31  1  0
 31  2  1  0
 22  4  1  0
 30 25  1  0
 11  6  1  0
 22 12  1  0
 20 15  1  0
M  END
>  <Binding energies>  (75) 
[-8.29]

>  <Ligand effiencies>  (75) 
[-0.2590625]

>  <Interactions>  (75) 
["H-B:ASP:366:OD2:8186, V-B:TYR:539:CE2:9847, V-B:PRO:540:CA:9854, V-B:PRO:540:CB:9856, V-B:PRO:540:N:9855, V-B:TYR:539:CD1:9844, V-B:TYR:539:CE1:9846, H-B:TYR:531:OH:9766, V-B:TYR:539:CZ:9848, V-B:TYR:531:CZ:9765, V-A:LEU:363:CD1:3188, V-A:TYR:539:C:4867, H-A:TYR:539:N:4870, V-A:TYR:531:CE2:4793, V-A:TYR:539:CZ:4877, V-B:ASP:366:CB:8183, V-B:ASP:366:CG:8184, V-B:ASP:366:CA:8181, H-B:ASP:366:OD1:8185, H-A:TYR:539:OH:4878, V-B:TYR:531:CE1:9763, H-B:ASP:366:O:8180, H-B:ASN:370:ND2:8219"]

$$$$
RR24_Rahimova_2017
     RDKit          3D

 43 49  0  0  0  0  0  0  0  0999 V2000
  133.7000  122.4930   62.6440 C   0  0  0  0  0  0  0  0  0  0  0  0
  133.2330  123.7780   61.9470 C   0  0  2  0  0  0  0  0  0  0  0  0
  133.2940  125.0330   62.8670 C   0  0  0  0  0  0  0  0  0  0  0  0
  134.0020  125.0710   63.8780 O   0  0  0  0  0  0  0  0  0  0  0  0
  132.4710  126.0350   62.4400 O   0  0  0  0  0  0  0  0  0  0  0  0
  131.4360  126.4550   63.2440 C   0  0  0  0  0  0  0  0  0  0  0  0
  131.1100  125.7140   64.3820 C   0  0  0  0  0  0  0  0  0  0  0  0
  130.0720  126.1330   65.2080 C   0  0  0  0  0  0  0  0  0  0  0  0
  129.3610  127.2990   64.9070 C   0  0  0  0  0  0  0  0  0  0  0  0
  128.2060  127.7450   65.8100 C   0  0  1  0  0  0  0  0  0  0  0  0
  128.6770  128.0200   67.2580 C   0  0  0  0  0  0  0  0  0  0  0  0
  128.3920  129.1600   67.9120 C   0  0  0  0  0  0  0  0  0  0  0  0
  127.6600  130.1710   67.3390 N   0  0  0  0  0  0  0  0  0  0  0  0
  127.1790  130.0640   66.0550 C   0  0  0  0  0  0  0  0  0  0  0  0
  126.4680  131.1440   65.6400 N   0  0  0  0  0  0  0  0  0  0  0  0
  125.9810  131.2530   64.3740 C   0  0  0  0  0  0  0  0  0  0  0  0
  125.6310  132.3580   63.9560 O   0  0  0  0  0  0  0  0  0  0  0  0
  126.0930  130.0930   63.6240 N   0  0  0  0  0  0  0  0  0  0  0  0
  125.4980  130.1280   62.2720 C   0  0  0  0  0  0  0  0  0  0  0  0
  126.7930  128.9430   63.9470 C   0  0  0  0  0  0  0  0  0  0  0  0
  126.8930  127.9610   63.2030 O   0  0  0  0  0  0  0  0  0  0  0  0
  127.4000  128.9690   65.2810 C   0  0  0  0  0  0  0  0  0  0  0  0
  128.9600  129.1450   69.2500 C   0  0  0  0  0  0  0  0  0  0  0  0
  128.9530  130.0670   70.2970 C   0  0  0  0  0  0  0  0  0  0  0  0
  129.6070  129.7480   71.4900 C   0  0  0  0  0  0  0  0  0  0  0  0
  130.2590  128.5190   71.6300 C   0  0  0  0  0  0  0  0  0  0  0  0
  130.2620  127.6000   70.5770 C   0  0  0  0  0  0  0  0  0  0  0  0
  129.6080  127.9240   69.3870 C   0  0  0  0  0  0  0  0  0  0  0  0
  129.4540  127.1520   68.1360 C   0  0  0  0  0  0  0  0  0  0  0  0
  129.8680  126.0300   67.8480 O   0  0  0  0  0  0  0  0  0  0  0  0
  129.7020  128.0490   63.7760 C   0  0  0  0  0  0  0  0  0  0  0  0
  130.7420  127.6310   62.9500 C   0  0  0  0  0  0  0  0  0  0  0  0
  131.8980  123.6120   61.3000 N   0  0  0  0  0  0  0  0  0  0  0  0
  131.6620  124.0450   60.0300 C   0  0  0  0  0  0  0  0  0  0  0  0
  132.4540  124.6100   59.2730 O   0  0  0  0  0  0  0  0  0  0  0  0
  130.2470  123.6940   59.7490 C   0  0  0  0  0  0  0  0  0  0  0  0
  129.4640  123.8970   58.6120 C   0  0  0  0  0  0  0  0  0  0  0  0
  128.1370  123.4520   58.6260 C   0  0  0  0  0  0  0  0  0  0  0  0
  127.6170  122.8170   59.7600 C   0  0  0  0  0  0  0  0  0  0  0  0
  128.4180  122.6230   60.8900 C   0  0  0  0  0  0  0  0  0  0  0  0
  129.7380  123.0740   60.8580 C   0  0  0  0  0  0  0  0  0  0  0  0
  130.8130  123.0120   61.8790 C   0  0  0  0  0  0  0  0  0  0  0  0
  130.7440  122.5190   63.0060 O   0  0  0  0  0  0  0  0  0  0  0  0
  2  1  1  1
  2  3  1  0
  3  4  2  0
  3  5  1  0
  5  6  1  0
  6  7  2  0
  7  8  1  0
  8  9  2  0
 10  9  1  6
 10 11  1  0
 11 12  2  0
 12 13  1  0
 13 14  1  0
 14 15  1  0
 15 16  1  0
 16 17  2  0
 16 18  1  0
 18 19  1  0
 18 20  1  0
 20 21  2  0
 20 22  1  0
 12 23  1  0
 23 24  2  0
 24 25  1  0
 25 26  2  0
 26 27  1  0
 27 28  2  0
 28 29  1  0
 29 30  2  0
  9 31  1  0
 31 32  2  0
  2 33  1  0
 33 34  1  0
 34 35  2  0
 34 36  1  0
 36 37  2  0
 37 38  1  0
 38 39  2  0
 39 40  1  0
 40 41  2  0
 41 42  1  0
 42 43  2  0
 32  6  1  0
 42 33  1  0
 22 10  1  0
 28 23  1  0
 41 36  1  0
 29 11  1  0
 22 14  2  0
M  END
>  <Binding energies>  (76) 
[-9.96]

>  <Ligand effiencies>  (76) 
[-0.22133333333333335]

>  <Interactions>  (76) 
["V-B:TYR:539:CE2:9847, V-B:PRO:540:CA:9854, V-B:ALA:541:CB:9863, V-B:PRO:540:N:9855, V-B:TYR:539:CZ:9848, H-A:ARG:545:NH2:4928, H-A:GLY:454:N:4049, H-A:ARG:545:NH1:4927, V-A:ILE:369:CD1:3238, V-A:ILE:369:CG2:3236, H-B:TYR:539:OH:9849, V-A:ARG:545:CZ:4926, H-B:ARG:545:NH2:9899, V-A:GLU:543:CD:4908, V-A:GLU:543:CG:4907, V-A:GLU:543:CB:4906, V-B:HIS:456:CE1:9041, V-A:HIS:456:CE1:4069, V-B:TYR:484:CE1:9316, V-B:GLU:543:CD:9879, V-A:GLY:454:CA:4048, V-B:ASP:366:CG:8184, H-B:TYR:484:OH:9319, V-B:TYR:484:CZ:9318, V-A:GLU:543:CA:4904, V-A:GLU:543:C:4902"]

$$$$
RR25_Rahimova_2017
     RDKit          3D

 39 44  0  0  0  0  0  0  0  0999 V2000
  133.3660  125.3440   67.0560 O   0  0  0  0  0  0  0  0  0  0  0  0
  132.3400  125.8350   66.5830 C   0  0  0  0  0  0  0  0  0  0  0  0
  131.2840  125.9860   67.4480 O   0  0  0  0  0  0  0  0  0  0  0  0
  130.1770  126.7430   67.1110 C   0  0  0  0  0  0  0  0  0  0  0  0
  129.4510  127.2960   68.1650 C   0  0  0  0  0  0  0  0  0  0  0  0
  128.3190  128.0630   67.8980 C   0  0  0  0  0  0  0  0  0  0  0  0
  127.8960  128.2850   66.5800 C   0  0  0  0  0  0  0  0  0  0  0  0
  126.6950  129.1090   66.2980 N   0  0  0  0  0  0  0  0  0  0  0  0
  126.4790  129.4570   65.1390 O   0  0  0  0  0  0  0  0  0  0  0  0
  125.9600  129.4150   67.2320 O   0  0  0  0  0  0  0  0  0  0  0  0
  128.6340  127.7090   65.5330 C   0  0  0  0  0  0  0  0  0  0  0  0
  129.7670  126.9300   65.7840 C   0  0  0  0  0  0  0  0  0  0  0  0
  130.6040  126.2960   64.6880 C   0  0  0  0  0  0  0  0  0  0  0  0
  132.1000  126.2840   65.1120 C   0  0  2  0  0  0  0  0  0  0  0  0
  132.9760  125.5510   64.0550 C   0  0  0  0  0  0  0  0  0  0  0  0
  133.8900  124.8510   64.5000 O   0  0  0  0  0  0  0  0  0  0  0  0
  132.6790  125.5750   62.7210 N   0  0  0  0  0  0  0  0  0  0  0  0
  131.8220  126.6120   62.1100 C   0  0  0  0  0  0  0  0  0  0  0  0
  130.9670  125.9660   60.9990 C   0  0  0  0  0  0  0  0  0  0  0  0
  131.8030  125.2690   60.0180 N   0  0  0  0  0  0  0  0  0  0  0  0
  131.0050  124.7680   58.8900 C   0  0  0  0  0  0  0  0  0  0  0  0
  130.2070  123.4830   59.2410 C   0  0  0  0  0  0  0  0  0  0  0  0
  128.7240  123.6310   59.3120 N   0  0  0  0  0  0  0  0  0  0  0  0
  128.1800  123.5050   60.5730 C   0  0  0  0  0  0  0  0  0  0  0  0
  128.8530  123.2510   61.5790 O   0  0  0  0  0  0  0  0  0  0  0  0
  126.6810  123.7240   60.6380 C   0  0  0  0  0  0  0  0  0  0  0  0
  126.0270  123.6450   61.8740 C   0  0  0  0  0  0  0  0  0  0  0  0
  124.6520  123.8480   61.9720 C   0  0  0  0  0  0  0  0  0  0  0  0
  123.8880  124.1380   60.8420 C   0  0  0  0  0  0  0  0  0  0  0  0
  124.5050  124.2280   59.5710 C   0  0  0  0  0  0  0  0  0  0  0  0
  123.7910  124.5200   58.3850 C   0  0  0  0  0  0  0  0  0  0  0  0
  124.4620  124.5960   57.1660 C   0  0  0  0  0  0  0  0  0  0  0  0
  125.8370  124.3870   57.0910 C   0  0  0  0  0  0  0  0  0  0  0  0
  126.5850  124.0950   58.2390 C   0  0  0  0  0  0  0  0  0  0  0  0
  125.9100  124.0170   59.4840 C   0  0  0  0  0  0  0  0  0  0  0  0
  128.0820  123.8820   58.1170 C   0  0  0  0  0  0  0  0  0  0  0  0
  128.6670  123.9480   57.0310 O   0  0  0  0  0  0  0  0  0  0  0  0
  132.5470  124.1930   60.6740 C   0  0  0  0  0  0  0  0  0  0  0  0
  133.4700  124.7350   61.7920 C   0  0  0  0  0  0  0  0  0  0  0  0
  1  2  2  0
  2  3  1  0
  3  4  1  0
  4  5  2  0
  5  6  1  0
  6  7  2  0
  7  8  1  0
  8  9  2  0
  8 10  1  0
  7 11  1  0
 11 12  2  0
 12 13  1  0
 13 14  1  0
 14 15  1  6
 15 16  2  0
 15 17  1  0
 17 18  1  0
 18 19  1  0
 19 20  1  0
 20 21  1  0
 21 22  1  0
 22 23  1  0
 23 24  1  0
 24 25  2  0
 24 26  1  0
 26 27  2  0
 27 28  1  0
 28 29  2  0
 29 30  1  0
 30 31  2  0
 31 32  1  0
 32 33  2  0
 33 34  1  0
 34 35  2  0
 34 36  1  0
 36 37  2  0
 20 38  1  0
 38 39  1  0
 14  2  1  0
 39 17  1  0
 12  4  1  0
 36 23  1  0
 35 26  1  0
 35 30  1  0
M  CHG  2   8   1  10  -1
M  END
>  <Binding energies>  (77) 
[-10.25]

>  <Ligand effiencies>  (77) 
[-0.26282051282051283]

>  <Interactions>  (77) 
["V-B:TYR:539:CE2:9847, V-B:PRO:540:CA:9854, V-B:TYR:539:CD2:9845, V-B:LEU:363:CD1:8160, V-B:PRO:540:CB:9856, V-B:TYR:539:CZ:9848, H-A:GLY:454:N:4049, H-A:ARG:545:NE:4924, V-A:ASP:366:CG:3212, V-A:ILE:369:CD1:3238, V-A:ILE:369:CG2:3236, H-B:TYR:539:OH:9849, H-A:TYR:484:OH:4347, V-A:ARG:545:CZ:4926, V-B:MET:535:CE:9806, V-B:LEU:363:CA:8156, V-B:TYR:531:CZ:9765, V-B:TYR:531:CE2:9764, V-A:GLU:543:CD:4908, V-A:GLU:543:CG:4907, V-B:HIS:456:CE1:9041, V-A:HIS:456:CE1:4069, V-B:GLU:543:CD:9879, H-A:HIS:456:ND1:4066, V-B:ASN:362:CB:8147, V-A:ARG:545:CD:4923, V-B:ASP:366:CB:8183, V-B:ASP:366:CG:8184, H-B:TYR:484:OH:9319, V-B:ASN:362:C:8143, V-B:LEU:363:CB:8158, V-B:ASN:362:CA:8145"]

$$$$
RR27_Rahimova_2017
     RDKit          3D

 39 44  0  0  0  0  0  0  0  0999 V2000
  133.4470  124.9330   62.3550 O   0  0  0  0  0  0  0  0  0  0  0  0
  132.4590  124.2480   62.6370 C   0  0  0  0  0  0  0  0  0  0  0  0
  131.4860  123.8500   61.4890 C   0  0  0  0  0  0  0  0  0  0  0  0
  131.2930  122.3270   61.3600 C   0  0  0  0  0  0  0  0  0  0  0  0
  130.0190  121.7390   61.3570 C   0  0  0  0  0  0  0  0  0  0  0  0
  129.8810  120.3600   61.2360 C   0  0  0  0  0  0  0  0  0  0  0  0
  131.0150  119.5610   61.1190 C   0  0  0  0  0  0  0  0  0  0  0  0
  132.2860  120.1300   61.1230 C   0  0  0  0  0  0  0  0  0  0  0  0
  132.4240  121.5090   61.2440 C   0  0  0  0  0  0  0  0  0  0  0  0
  131.8260  124.5750   60.1730 C   0  0  0  0  0  0  0  0  0  0  0  0
  131.0880  125.6800   59.7280 C   0  0  0  0  0  0  0  0  0  0  0  0
  131.4160  126.3050   58.5270 C   0  0  0  0  0  0  0  0  0  0  0  0
  132.4780  125.8250   57.7660 C   0  0  0  0  0  0  0  0  0  0  0  0
  133.2130  124.7210   58.1910 C   0  0  0  0  0  0  0  0  0  0  0  0
  132.8840  124.0970   59.3900 C   0  0  0  0  0  0  0  0  0  0  0  0
  132.2890  123.7160   63.8810 N   0  0  0  0  0  0  0  0  0  0  0  0
  131.0280  123.1150   64.3400 C   0  0  0  0  0  0  0  0  0  0  0  0
  130.1710  124.2630   64.9200 C   0  0  0  0  0  0  0  0  0  0  0  0
  130.9140  125.0650   66.0360 C   0  0  0  0  0  0  0  0  0  0  0  0
  130.1470  126.2890   66.5700 C   0  0  0  0  0  0  0  0  0  0  0  0
  129.1640  126.7880   65.7650 N   0  0  0  0  0  0  0  0  0  0  0  0
  128.4380  127.8540   66.2010 C   0  0  0  0  0  0  0  0  0  0  0  0
  127.4250  128.4390   65.4880 O   0  0  0  0  0  0  0  0  0  0  0  0
  128.7330  128.4000   67.4660 C   0  0  0  0  0  0  0  0  0  0  0  0
  128.2130  129.4330   68.1890 N   0  0  0  0  0  0  0  0  0  0  0  0
  128.9210  129.5030   69.3740 N   0  0  0  0  0  0  0  0  0  0  0  0
  129.8530  128.5260   69.3820 N   0  0  0  0  0  0  0  0  0  0  0  0
  130.7670  128.3830   70.5130 C   0  0  0  0  0  0  0  0  0  0  0  0
  130.3160  127.3510   71.5380 C   0  0  0  0  0  0  0  0  0  0  0  0
  129.1380  126.6240   71.3340 C   0  0  0  0  0  0  0  0  0  0  0  0
  128.7310  125.6700   72.2680 C   0  0  0  0  0  0  0  0  0  0  0  0
  129.5010  125.4350   73.4070 C   0  0  0  0  0  0  0  0  0  0  0  0
  130.6820  126.1490   73.6120 C   0  0  0  0  0  0  0  0  0  0  0  0
  131.6500  125.8400   75.0080 Cl  0  0  0  0  0  0  0  0  0  0  0  0
  131.0850  127.1080   72.6820 C   0  0  0  0  0  0  0  0  0  0  0  0
  129.7800  127.8050   68.2020 C   0  0  0  0  0  0  0  0  0  0  0  0
  130.5120  126.7660   67.7940 N   0  0  0  0  0  0  0  0  0  0  0  0
  132.3890  125.3830   65.6410 C   0  0  0  0  0  0  0  0  0  0  0  0
  133.1230  124.1760   65.0020 C   0  0  0  0  0  0  0  0  0  0  0  0
  1  2  2  0
  2  3  1  0
  3  4  1  0
  4  5  2  0
  5  6  1  0
  6  7  2  0
  7  8  1  0
  8  9  2  0
  3 10  1  0
 10 11  2  0
 11 12  1  0
 12 13  2  0
 13 14  1  0
 14 15  2  0
  2 16  1  0
 16 17  1  0
 17 18  1  0
 18 19  1  0
 19 20  1  0
 20 21  2  0
 21 22  1  0
 22 23  1  0
 22 24  2  0
 24 25  1  0
 25 26  2  0
 26 27  1  0
 27 28  1  0
 28 29  1  0
 29 30  2  0
 30 31  1  0
 31 32  2  0
 32 33  1  0
 33 34  1  0
 33 35  2  0
 27 36  1  0
 36 37  2  0
 19 38  1  0
 38 39  1  0
  9  4  1  0
 15 10  1  0
 39 16  1  0
 37 20  1  0
 36 24  1  0
 35 29  1  0
M  END
>  <Binding energies>  (78) 
[-9.94]

>  <Ligand effiencies>  (78) 
[-0.2485]

>  <Interactions>  (78) 
["V-B:TYR:539:CE2:9847, V-B:TYR:539:CD2:9845, V-B:ALA:541:CB:9863, V-A:LEU:475:CD2:4258, H-B:GLU:543:OE2:9881, V-A:ASP:366:CB:3211, V-A:ASP:366:CA:3209, V-A:ILE:369:CG2:3236, V-A:GLU:543:CD:4908, V-A:GLU:543:CG:4907, V-A:GLU:543:CB:4906, V-B:HIS:456:CE1:9041, V-A:HIS:456:CE1:4069, V-B:GLU:543:CG:9878, V-A:ASP:366:C:3207, V-B:GLU:543:CD:9879, V-A:HIS:456:CD2:4067, V-A:TYR:531:CZ:4794, V-A:GLY:454:CA:4048, H-B:GLU:543:OE1:9880, V-A:TRP:381:CH2:3371, V-A:TRP:381:CZ2:3369, V-A:ILE:369:CB:3235, V-A:HIS:456:CG:4065, V-A:HIS:456:CB:4064"]

$$$$
RR28_Rahimova_2017
     RDKit          3D

 46 49  0  0  0  0  0  0  0  0999 V2000
  125.6710  129.2840   67.1100 C   0  0  0  0  0  0  0  0  0  0  0  0
  126.7720  129.5890   66.1000 C   0  0  0  0  0  0  0  0  0  0  0  0
  127.5210  130.5450   66.2890 O   0  0  0  0  0  0  0  0  0  0  0  0
  126.8510  128.7650   65.0350 N   0  0  0  0  0  0  0  0  0  0  0  0
  127.8020  128.8210   63.9020 C   0  0  0  0  0  0  0  0  0  0  0  0
  128.9840  127.8590   64.2120 C   0  0  0  0  0  0  0  0  0  0  0  0
  129.1220  127.3320   65.5050 C   0  0  0  0  0  0  0  0  0  0  0  0
  130.1700  126.4720   65.8190 C   0  0  0  0  0  0  0  0  0  0  0  0
  131.1060  126.1200   64.8470 C   0  0  0  0  0  0  0  0  0  0  0  0
  132.2530  125.1770   65.2110 C   0  0  0  0  0  0  0  0  0  0  0  0
  131.9190  123.8930   65.0680 F   0  0  0  0  0  0  0  0  0  0  0  0
  133.3120  125.4160   64.4370 F   0  0  0  0  0  0  0  0  0  0  0  0
  132.5970  125.3790   66.4840 F   0  0  0  0  0  0  0  0  0  0  0  0
  130.9820  126.6390   63.5550 C   0  0  0  0  0  0  0  0  0  0  0  0
  129.9330  127.5000   63.2420 C   0  0  0  0  0  0  0  0  0  0  0  0
  128.2470  130.3030   63.6300 C   0  0  0  0  0  0  0  0  0  0  0  0
  127.0910  131.2100   63.1390 C   0  0  0  0  0  0  0  0  0  0  0  0
  126.5760  130.5970   61.9040 N   0  0  0  0  0  0  0  0  0  0  0  0
  127.0470  130.9950   60.6910 C   0  0  0  0  0  0  0  0  0  0  0  0
  127.7800  131.9780   60.5640 O   0  0  0  0  0  0  0  0  0  0  0  0
  126.5170  130.2940   59.4160 C   0  0  0  0  0  0  0  0  0  0  0  0
  127.5660  130.0290   58.3010 C   0  0  0  0  0  0  0  0  0  0  0  0
  127.3750  128.7080   57.5210 C   0  0  0  0  0  0  0  0  0  0  0  0
  126.6290  128.7190   56.5370 O   0  0  0  0  0  0  0  0  0  0  0  0
  128.1250  127.6170   57.8450 N   0  0  0  0  0  0  0  0  0  0  0  0
  128.7690  127.4390   59.1520 C   0  0  0  0  0  0  0  0  0  0  0  0
  127.7100  126.8120   60.0840 C   0  0  0  0  0  0  0  0  0  0  0  0
  127.0970  125.4630   59.5680 C   0  0  0  0  0  0  0  0  0  0  0  0
  125.8500  125.1820   60.3100 N   0  0  0  0  0  0  0  0  0  0  0  0
  125.6500  124.2720   61.2840 C   0  0  0  0  0  0  0  0  0  0  0  0
  124.2380  124.1950   61.8570 C   0  0  0  0  0  0  0  0  0  0  0  0
  126.5240  123.5230   61.7180 O   0  0  0  0  0  0  0  0  0  0  0  0
  128.1150  124.3270   59.9080 C   0  0  0  0  0  0  0  0  0  0  0  0
  128.0190  123.0320   59.3700 C   0  0  0  0  0  0  0  0  0  0  0  0
  128.9470  122.0480   59.6970 C   0  0  0  0  0  0  0  0  0  0  0  0
  129.9960  122.3320   60.5750 C   0  0  0  0  0  0  0  0  0  0  0  0
  131.0260  121.2640   60.9420 C   0  0  0  0  0  0  0  0  0  0  0  0
  132.1780  121.4850   60.3070 F   0  0  0  0  0  0  0  0  0  0  0  0
  131.2480  121.3040   62.2550 F   0  0  0  0  0  0  0  0  0  0  0  0
  130.6110  120.0360   60.6250 F   0  0  0  0  0  0  0  0  0  0  0  0
  130.1010  123.6110   61.1250 C   0  0  0  0  0  0  0  0  0  0  0  0
  129.1710  124.5920   60.7950 C   0  0  0  0  0  0  0  0  0  0  0  0
  126.8020  125.5910   58.0230 C   0  0  0  0  0  0  0  0  0  0  0  0
  127.8780  126.3300   57.1820 C   0  0  0  0  0  0  0  0  0  0  0  0
  125.9550  129.2830   62.1210 C   0  0  0  0  0  0  0  0  0  0  0  0
  127.0740  128.3270   62.6100 C   0  0  0  0  0  0  0  0  0  0  0  0
  1  2  1  0
  2  3  2  0
  2  4  1  0
  4  5  1  0
  5  6  1  0
  6  7  2  0
  7  8  1  0
  8  9  2  0
  9 10  1  0
 10 11  1  0
 10 12  1  0
 10 13  1  0
  9 14  1  0
 14 15  2  0
  5 16  1  0
 16 17  1  0
 17 18  1  0
 18 19  1  0
 19 20  2  0
 19 21  1  0
 21 22  1  0
 22 23  1  0
 23 24  2  0
 23 25  1  0
 25 26  1  0
 26 27  1  0
 27 28  1  0
 28 29  1  0
 29 30  1  0
 30 31  1  0
 30 32  2  0
 28 33  1  0
 33 34  2  0
 34 35  1  0
 35 36  2  0
 36 37  1  0
 37 38  1  0
 37 39  1  0
 37 40  1  0
 36 41  1  0
 41 42  2  0
 28 43  1  0
 43 44  1  0
 18 45  1  0
 45 46  1  0
 46  5  1  0
 15  6  1  0
 44 25  1  0
 42 33  1  0
M  END
>  <Binding energies>  (79) 
[-8.0]

>  <Ligand effiencies>  (79) 
[-0.16666666666666666]

>  <Interactions>  (79) 
["H-B:ASP:366:OD2:8186, V-B:TYR:539:CE2:9847, V-B:PRO:540:CA:9854, V-B:TYR:539:CD2:9845, V-B:ALA:541:CB:9863, V-B:TYR:539:C:9838, V-A:LEU:475:CD2:4258, H-B:GLU:543:OE2:9881, H-B:TYR:531:OH:9766, H-B:ALA:541:N:9862, V-A:ILE:369:CG2:3236, V-A:ARG:545:CZ:4926, V-A:GLU:543:CD:4908, V-A:GLU:543:CG:4907, V-B:HIS:456:CE1:9041, V-A:TYR:484:CZ:4346, V-A:HIS:456:CE1:4069, V-B:GLU:543:CD:9879, V-B:ASN:362:CB:8147, H-B:GLU:543:OE1:9880, V-B:ARG:545:CZ:9897, V-B:ASP:366:CG:8184, H-B:TYR:484:OH:9319, V-A:TRP:381:CH2:3371, V-B:ASN:362:C:8143, V-B:ASN:362:CA:8145, V-B:ASN:362:CG:8148"]

$$$$
RR29_Rahimova_2017
     RDKit          3D

 18 19  0  0  0  0  0  0  0  0999 V2000
  129.8370  124.3400   67.1850 C   0  0  0  0  0  0  0  0  0  0  0  0
  129.9920  125.7140   66.5510 C   0  0  0  0  0  0  0  0  0  0  0  0
  129.7640  126.8690   67.5520 C   0  0  0  0  0  0  0  0  0  0  0  0
  128.7600  126.4770   68.6550 C   0  0  0  0  0  0  0  0  0  0  0  0
  129.2380  126.8830   70.0410 C   0  0  0  0  0  0  0  0  0  0  0  0
  130.1790  127.9220   70.1850 C   0  0  0  0  0  0  0  0  0  0  0  0
  130.6320  128.3120   71.4530 C   0  0  0  0  0  0  0  0  0  0  0  0
  130.1290  127.6280   72.5540 C   0  0  0  0  0  0  0  0  0  0  0  0
  129.2180  126.6180   72.4200 C   0  0  0  0  0  0  0  0  0  0  0  0
  128.7430  126.2170   71.1760 C   0  0  0  0  0  0  0  0  0  0  0  0
  128.8760  126.1560   73.6520 O   0  0  0  0  0  0  0  0  0  0  0  0
  129.7670  126.7680   74.5470 C   0  0  0  0  0  0  0  0  0  0  0  0
  130.3860  127.8310   73.8730 O   0  0  0  0  0  0  0  0  0  0  0  0
  130.2750  125.7860   65.3030 N   0  0  0  0  0  0  0  0  0  0  0  0
  130.3310  127.0280   64.7080 N   0  0  0  0  0  0  0  0  0  0  0  0
  129.4420  127.4680   63.8030 C   0  0  0  0  0  0  0  0  0  0  0  0
  128.3840  126.7790   63.3750 N   0  0  0  0  0  0  0  0  0  0  0  0
  129.6270  128.6780   63.2960 N   0  0  0  0  0  0  0  0  0  0  0  0
  1  2  1  0
  2  3  1  0
  3  4  1  0
  4  5  1  0
  5  6  2  0
  6  7  1  0
  7  8  2  0
  8  9  1  0
  9 10  2  0
  9 11  1  0
 11 12  1  0
 12 13  1  0
  2 14  2  0
 14 15  1  0
 15 16  1  0
 16 17  1  0
 16 18  2  0
 10  5  1  0
 13  8  1  0
M  CHG  1  18   1
M  END
>  <Binding energies>  (80) 
[-7.36]

>  <Ligand effiencies>  (80) 
[-0.32]

>  <Interactions>  (80) 
["H-B:GLU:543:OE2:9881, H-A:GLU:543:OE2:4910, V-A:GLU:543:CD:4908, V-A:GLU:543:CB:4906, V-B:HIS:456:CE1:9041, V-B:GLU:543:CB:9877, V-A:TYR:484:CZ:4346, V-A:HIS:456:CE1:4069, V-B:GLU:543:CG:9878, V-B:GLU:543:CD:9879, V-A:TYR:484:CE1:4344, H-A:GLU:543:OE1:4909, H-B:LYS:547:NZ:9922, V-B:GLU:543:CA:9875, H-A:LYS:547:NZ:4951"]

$$$$
RR30_Rahimova_2017
     RDKit          3D

 18 19  0  0  0  0  0  0  0  0999 V2000
  132.5460  123.9320   60.4710 C   0  0  0  0  0  0  0  0  0  0  0  0
  133.7230  124.6180   61.1800 C   0  0  0  0  0  0  0  0  0  0  0  0
  133.4640  124.8210   62.6570 C   0  0  0  0  0  0  0  0  0  0  0  0
  134.3140  124.7320   63.6490 N   0  0  0  0  0  0  0  0  0  0  0  0
  133.5830  124.9980   64.8040 N   0  0  0  0  0  0  0  0  0  0  0  0
  132.3530  125.2160   64.4120 C   0  0  0  0  0  0  0  0  0  0  0  0
  130.9600  125.6190   65.4150 S   0  0  0  0  0  0  0  0  0  0  0  0
  130.2820  123.9520   65.6930 C   0  0  0  0  0  0  0  0  0  0  0  0
  129.8520  123.2770   64.3880 C   0  0  0  0  0  0  0  0  0  0  0  0
  130.4510  122.2700   64.0050 O   0  0  0  0  0  0  0  0  0  0  0  0
  128.8410  123.8760   63.7180 N   0  0  0  0  0  0  0  0  0  0  0  0
  128.2840  123.4550   62.5200 C   0  0  0  0  0  0  0  0  0  0  0  0
  127.0350  123.1320   62.2720 N   0  0  0  0  0  0  0  0  0  0  0  0
  126.8390  122.7530   60.9500 N   0  0  0  0  0  0  0  0  0  0  0  0
  127.9350  122.7970   60.2280 C   0  0  0  0  0  0  0  0  0  0  0  0
  127.9770  122.4290   58.7630 C   0  0  0  0  0  0  0  0  0  0  0  0
  129.3260  123.3220   61.1370 S   0  0  0  0  0  0  0  0  0  0  0  0
  132.2060  125.1250   63.0650 O   0  0  0  0  0  0  0  0  0  0  0  0
  1  2  1  0
  2  3  1  0
  3  4  2  0
  4  5  1  0
  5  6  2  0
  6  7  1  0
  7  8  1  0
  8  9  1  0
  9 10  2  0
  9 11  1  0
 11 12  1  0
 12 13  2  0
 13 14  1  0
 14 15  2  0
 15 16  1  0
 15 17  1  0
  6 18  1  0
 18  3  1  0
 17 12  1  0
M  END
>  <Binding energies>  (81) 
[-6.13]

>  <Ligand effiencies>  (81) 
[-0.32263157894736844]

>  <Interactions>  (81) 
["V-B:TYR:539:CE2:9847, V-B:PRO:540:CA:9854, V-B:TYR:539:CD2:9845, V-B:TYR:539:CG:9843, V-B:ALA:541:CB:9863, V-B:TYR:539:C:9838, H-B:GLU:543:OE2:9881, V-B:PRO:540:N:9855, H-B:ALA:541:N:9862, V-B:TYR:539:CZ:9848, H-A:GLY:454:N:4049, V-A:ASP:366:CG:3212, V-A:ILE:369:CD1:3238, V-A:ILE:369:CG2:3236, H-A:TYR:484:OH:4347, V-A:ARG:545:CZ:4926, V-A:TYR:484:CZ:4346, V-B:GLU:543:CG:9878, V-B:GLU:543:CD:9879, V-A:TYR:484:CE1:4344"]

$$$$
RR31_Rahimova_2017
     RDKit          3D

 18 19  0  0  0  0  0  0  0  0999 V2000
  134.0630  119.7170   61.4040 C   0  0  0  0  0  0  0  0  0  0  0  0
  132.7250  120.4380   61.3070 C   0  0  0  0  0  0  0  0  0  0  0  0
  131.6220  119.7580   60.7880 C   0  0  0  0  0  0  0  0  0  0  0  0
  130.3830  120.3880   60.6900 C   0  0  0  0  0  0  0  0  0  0  0  0
  130.2080  121.7150   61.1150 C   0  0  0  0  0  0  0  0  0  0  0  0
  128.9750  122.3640   61.0130 N   0  0  0  0  0  0  0  0  0  0  0  0
  128.0240  122.0690   59.9240 C   0  0  0  0  0  0  0  0  0  0  0  0
  126.9290  123.1450   59.7340 C   0  0  0  0  0  0  0  0  0  0  0  0
  126.1930  123.3680   60.9820 N   0  0  0  0  0  0  0  0  0  0  0  0
  125.1230  124.3580   60.8240 C   0  0  0  0  0  0  0  0  0  0  0  0
  124.0350  123.9160   59.8250 C   0  0  0  0  0  0  0  0  0  0  0  0
  124.2990  124.4420   58.4050 C   0  0  0  0  0  0  0  0  0  0  0  0
  124.6720  125.9280   58.4570 N   0  0  0  0  0  0  0  0  0  0  0  0
  127.1540  123.8360   61.9790 C   0  0  0  0  0  0  0  0  0  0  0  0
  128.2460  122.7710   62.2310 C   0  0  0  0  0  0  0  0  0  0  0  0
  131.3270  122.3890   61.6250 C   0  0  0  0  0  0  0  0  0  0  0  0
  132.5770  121.7680   61.7280 C   0  0  0  0  0  0  0  0  0  0  0  0
  133.7550  122.5560   62.2890 C   0  0  0  0  0  0  0  0  0  0  0  0
  1  2  1  0
  2  3  2  0
  3  4  1  0
  4  5  2  0
  5  6  1  0
  6  7  1  0
  7  8  1  0
  8  9  1  0
  9 10  1  0
 10 11  1  0
 11 12  1  0
 12 13  1  0
  9 14  1  0
 14 15  1  0
  5 16  1  0
 16 17  2  0
 17 18  1  0
 17  2  1  0
 15  6  1  0
M  CHG  1  13   1
M  END
>  <Binding energies>  (82) 
[-6.98]

>  <Ligand effiencies>  (82) 
[-0.3323809523809524]

>  <Interactions>  (82) 
["H-B:ASP:366:OD2:8186, V-B:TYR:539:CE2:9847, V-B:PRO:540:CA:9854, V-B:TYR:539:CD2:9845, V-B:LEU:363:CD1:8160, V-B:PRO:540:CB:9856, V-B:ALA:541:CB:9863, V-B:TYR:539:C:9838, V-A:LEU:475:CD2:4258, V-B:PRO:540:N:9855, V-B:ALA:541:CA:9861, H-B:TYR:531:OH:9766, H-B:ALA:541:N:9862, V-A:ILE:369:CD1:3238, V-A:ILE:369:CG2:3236, V-B:LEU:363:CA:8156, V-B:TYR:531:CZ:9765, V-B:GLU:543:CD:9879, V-B:PRO:540:C:9852, V-A:GLY:454:CA:4048, V-B:ASP:366:CB:8183, V-B:ASP:366:CG:8184, V-A:TRP:381:CH2:3371, V-B:ASN:362:C:8143, V-A:TRP:381:CZ2:3369, V-A:SER:385:C:3404, V-A:SER:385:CA:3406"]

$$$$
RR32_Rahimova_2017
     RDKit          3D

 18 20  0  0  0  0  0  0  0  0999 V2000
  126.2630  123.3000   56.7260 C   0  0  0  0  0  0  0  0  0  0  0  0
  126.6990  123.1320   58.1780 C   0  0  0  0  0  0  0  0  0  0  0  0
  127.9640  122.6000   58.4300 C   0  0  0  0  0  0  0  0  0  0  0  0
  128.3970  122.4360   59.7430 C   0  0  0  0  0  0  0  0  0  0  0  0
  129.6530  121.9090   59.9890 N   0  0  0  0  0  0  0  0  0  0  0  0
  130.7150  122.8500   60.3850 C   0  0  0  0  0  0  0  0  0  0  0  0
  132.1150  122.1950   60.4590 C   0  0  0  0  0  0  0  0  0  0  0  0
  132.1020  121.0810   61.4070 N   0  0  0  0  0  0  0  0  0  0  0  0
  133.4290  120.4840   61.5010 C   0  0  0  0  0  0  0  0  0  0  0  0
  131.1350  120.0950   60.9290 C   0  0  0  0  0  0  0  0  0  0  0  0
  129.7210  120.7180   60.8580 C   0  0  0  0  0  0  0  0  0  0  0  0
  127.6320  122.7720   60.8130 N   0  0  0  0  0  0  0  0  0  0  0  0
  126.3920  123.2910   60.6000 C   0  0  0  0  0  0  0  0  0  0  0  0
  125.6150  123.6300   61.7350 C   0  0  0  0  0  0  0  0  0  0  0  0
  124.3410  124.1630   61.5770 C   0  0  0  0  0  0  0  0  0  0  0  0
  123.8150  124.3700   60.3070 C   0  0  0  0  0  0  0  0  0  0  0  0
  124.5520  124.0470   59.1710 C   0  0  0  0  0  0  0  0  0  0  0  0
  125.8630  123.4970   59.2840 C   0  0  0  0  0  0  0  0  0  0  0  0
  1  2  1  0
  2  3  2  0
  3  4  1  0
  4  5  1  0
  5  6  1  0
  6  7  1  0
  7  8  1  0
  8  9  1  0
  8 10  1  0
 10 11  1  0
  4 12  2  0
 12 13  1  0
 13 14  2  0
 14 15  1  0
 15 16  2  0
 16 17  1  0
 17 18  2  0
 18  2  1  0
 11  5  1  0
 18 13  1  0
M  END
>  <Binding energies>  (83) 
[-6.75]

>  <Ligand effiencies>  (83) 
[-0.375]

>  <Interactions>  (83) 
["V-B:TYR:539:CE2:9847, V-B:PRO:540:CA:9854, V-B:TYR:539:CD2:9845, V-B:TYR:539:CG:9843, V-B:PRO:540:CB:9856, V-B:ALA:541:CB:9863, V-B:TYR:539:C:9838, V-A:LEU:475:CD2:4258, V-B:PRO:540:N:9855, H-B:ALA:541:N:9862, V-B:TYR:539:CZ:9848, V-A:ILE:369:CG2:3236, V-B:LEU:363:CA:8156, V-B:PRO:540:C:9852, V-B:ASN:362:CB:8147, V-B:ASP:366:CG:8184, V-A:TRP:381:CH2:3371, V-B:ASN:362:C:8143, V-B:ASN:362:CA:8145"]

$$$$
RR5_Rahimova_2017
     RDKit          3D

 45 50  0  0  0  0  0  0  0  0999 V2000
  131.2000  122.5390   63.3290 O   0  0  0  0  0  0  0  0  0  0  0  0
  130.5440  123.5680   63.1730 C   0  0  0  0  0  0  0  0  0  0  0  0
  130.3460  124.5330   64.3580 C   0  0  0  0  0  0  0  0  0  0  0  0
  131.5240  125.5530   64.5540 C   0  0  2  0  0  0  0  0  0  0  0  0
  131.2790  126.9020   64.0060 N   0  0  0  0  0  0  0  0  0  0  0  0
  131.0590  127.1080   62.6510 C   0  0  0  0  0  0  0  0  0  0  0  0
  130.9940  126.2410   61.7760 O   0  0  0  0  0  0  0  0  0  0  0  0
  130.9410  128.4290   62.4360 O   0  0  0  0  0  0  0  0  0  0  0  0
  130.8350  128.9620   61.1190 C   0  0  0  0  0  0  0  0  0  0  0  0
  131.1960  130.4640   61.1040 C   0  0  0  0  0  0  0  0  0  0  0  0
  131.4780  131.0080   59.7150 C   0  0  0  0  0  0  0  0  0  0  0  0
  132.4290  130.5990   58.7760 C   0  0  0  0  0  0  0  0  0  0  0  0
  132.4990  131.2350   57.5350 C   0  0  0  0  0  0  0  0  0  0  0  0
  131.6240  132.2790   57.2320 C   0  0  0  0  0  0  0  0  0  0  0  0
  130.6750  132.6910   58.1690 C   0  0  0  0  0  0  0  0  0  0  0  0
  130.6070  132.0540   59.4100 C   0  0  0  0  0  0  0  0  0  0  0  0
  129.7290  132.2820   60.5680 C   0  0  0  0  0  0  0  0  0  0  0  0
  128.7060  133.2100   60.7780 C   0  0  0  0  0  0  0  0  0  0  0  0
  128.0320  133.2290   62.0000 C   0  0  0  0  0  0  0  0  0  0  0  0
  128.3770  132.3230   63.0050 C   0  0  0  0  0  0  0  0  0  0  0  0
  129.3970  131.3960   62.7900 C   0  0  0  0  0  0  0  0  0  0  0  0
  130.0720  131.3710   61.5680 C   0  0  0  0  0  0  0  0  0  0  0  0
  132.8440  124.9860   63.9750 C   0  0  0  0  0  0  0  0  0  0  0  0
  133.4610  125.4780   63.0510 O   0  0  0  0  0  0  0  0  0  0  0  0
  133.2100  123.8710   64.6730 O   0  0  0  0  0  0  0  0  0  0  0  0
  129.9850  123.9580   62.0050 N   0  0  0  0  0  0  0  0  0  0  0  0
  129.9300  123.3530   60.6410 C   0  0  0  0  0  0  0  0  0  0  0  0
  128.4190  123.5250   60.2680 C   0  0  0  0  0  0  0  0  0  0  0  0
  127.9080  123.0580   59.0450 C   0  0  0  0  0  0  0  0  0  0  0  0
  126.5620  123.2150   58.7250 C   0  0  0  0  0  0  0  0  0  0  0  0
  125.7070  123.8520   59.6170 C   0  0  0  0  0  0  0  0  0  0  0  0
  126.1850  124.3240   60.8340 C   0  0  0  0  0  0  0  0  0  0  0  0
  127.5280  124.1570   61.1580 C   0  0  0  0  0  0  0  0  0  0  0  0
  130.8770  124.1930   59.7190 C   0  0  0  0  0  0  0  0  0  0  0  0
  132.2640  124.2350   59.9300 C   0  0  0  0  0  0  0  0  0  0  0  0
  133.0860  125.0050   59.1090 C   0  0  0  0  0  0  0  0  0  0  0  0
  132.5300  125.7430   58.0700 C   0  0  0  0  0  0  0  0  0  0  0  0
  131.1590  125.7140   57.8390 C   0  0  0  0  0  0  0  0  0  0  0  0
  130.3410  124.9380   58.6540 C   0  0  0  0  0  0  0  0  0  0  0  0
  130.3470  121.8540   60.8120 C   0  0  0  0  0  0  0  0  0  0  0  0
  131.6790  121.4450   60.6130 C   0  0  0  0  0  0  0  0  0  0  0  0
  132.0540  120.1120   60.7570 C   0  0  0  0  0  0  0  0  0  0  0  0
  131.1030  119.1620   61.1090 C   0  0  0  0  0  0  0  0  0  0  0  0
  129.7830  119.5370   61.3260 C   0  0  0  0  0  0  0  0  0  0  0  0
  129.4110  120.8710   61.1820 C   0  0  0  0  0  0  0  0  0  0  0  0
  1  2  2  0
  2  3  1  0
  4  3  1  6
  4  5  1  0
  5  6  1  0
  6  7  2  0
  6  8  1  0
  8  9  1  0
  9 10  1  0
 10 11  1  0
 11 12  2  0
 12 13  1  0
 13 14  2  0
 14 15  1  0
 15 16  2  0
 16 17  1  0
 17 18  2  0
 18 19  1  0
 19 20  2  0
 20 21  1  0
 21 22  2  0
  4 23  1  0
 23 24  2  0
 23 25  1  0
  2 26  1  0
 26 27  1  0
 27 28  1  0
 28 29  2  0
 29 30  1  0
 30 31  2  0
 31 32  1  0
 32 33  2  0
 27 34  1  0
 34 35  2  0
 35 36  1  0
 36 37  2  0
 37 38  1  0
 38 39  2  0
 27 40  1  0
 40 41  2  0
 41 42  1  0
 42 43  2  0
 43 44  1  0
 44 45  2  0
 22 10  1  0
 33 28  1  0
 39 34  1  0
 45 40  1  0
 16 11  1  0
 22 17  1  0
M  END
>  <Binding energies>  (84) 
[-10.43]

>  <Ligand effiencies>  (84) 
[-0.21729166666666666]

>  <Interactions>  (84) 
["V-A:PRO:482:CG:4326, V-B:TYR:539:CE2:9847, V-B:PRO:540:CA:9854, V-B:TYR:539:CD2:9845, V-B:PRO:540:CB:9856, V-B:ALA:541:CB:9863, V-A:LEU:475:CD2:4258, V-B:PRO:540:N:9855, V-B:ALA:541:CA:9861, V-A:PRO:482:CB:4325, V-B:TYR:539:CZ:9848, H-A:ARG:545:NH2:4928, H-A:GLY:454:N:4049, H-A:ARG:545:NH1:4927, V-A:ASP:366:CG:3212, V-A:ASP:366:CB:3211, V-A:ASP:366:CA:3209, V-A:ILE:369:CG2:3236, H-A:TYR:484:OH:4347, H-A:GLU:543:OE2:4910, V-A:ARG:545:CZ:4926, V-A:GLU:543:CD:4908, V-A:ASP:366:C:3207, V-A:PRO:540:N:4884, V-A:LEU:363:CD1:3188, V-A:TYR:539:C:4867, V-A:PRO:540:CA:4883, V-A:TYR:531:CE2:4793, V-B:PRO:540:C:9852, H-A:GLU:543:OE1:4909, V-A:ALA:541:CB:4892, V-A:TRP:381:CH2:3371, V-A:TRP:381:CZ2:3369, V-A:TRP:381:CZ3:3370"]

$$$$
