1a_Grossjean_2025
     RDKit          3D

 26 27  0  0  0  0  0  0  0  0999 V2000
  124.7680  124.3170   59.0030 C   0  0  0  0  0  0  0  0  0  0  0  0
  124.3720  123.8060   57.6150 C   0  0  0  0  0  0  0  0  0  0  0  0
  125.4860  123.9090   56.7370 O   0  0  0  0  0  0  0  0  0  0  0  0
  126.4520  122.9540   56.7160 C   0  0  0  0  0  0  0  0  0  0  0  0
  126.3510  121.8990   56.0830 O   0  0  0  0  0  0  0  0  0  0  0  0
  127.6490  123.3020   57.5520 C   0  0  0  0  0  0  0  0  0  0  0  0
  127.9510  122.5190   58.6740 C   0  0  0  0  0  0  0  0  0  0  0  0
  129.0510  122.8180   59.4720 C   0  0  0  0  0  0  0  0  0  0  0  0
  129.8710  123.9060   59.1680 C   0  0  0  0  0  0  0  0  0  0  0  0
  130.9530  124.1180   60.0450 N   0  0  0  0  0  0  0  0  0  0  0  0
  132.2660  124.2840   59.7780 C   0  0  0  0  0  0  0  0  0  0  0  0
  132.7740  124.2800   58.6570 O   0  0  0  0  0  0  0  0  0  0  0  0
  133.1620  124.4910   61.0010 C   0  0  0  0  0  0  0  0  0  0  0  0
  133.5960  122.9200   61.8060 S   0  0  0  0  0  0  0  0  0  0  0  0
  132.1520  121.8810   61.7650 C   0  0  0  0  0  0  0  0  0  0  0  0
  131.0410  122.4690   62.2740 N   0  0  0  0  0  0  0  0  0  0  0  0
  129.8850  121.7640   62.2960 C   0  0  0  0  0  0  0  0  0  0  0  0
  128.6870  122.4800   62.8930 C   0  0  0  0  0  0  0  0  0  0  0  0
  129.7870  120.4630   61.8070 C   0  0  0  0  0  0  0  0  0  0  0  0
  130.9230  119.8560   61.2600 C   0  0  0  0  0  0  0  0  0  0  0  0
  130.7890  118.4350   60.7160 C   0  0  0  0  0  0  0  0  0  0  0  0
  132.1410  120.5740   61.2230 C   0  0  0  0  0  0  0  0  0  0  0  0
  133.3310  119.9770   60.6110 C   0  0  0  0  0  0  0  0  0  0  0  0
  134.2690  119.5030   60.1270 N   0  0  0  0  0  0  0  0  0  0  0  0
  129.5810  124.6910   58.0420 C   0  0  0  0  0  0  0  0  0  0  0  0
  128.4800  124.3910   57.2450 C   0  0  0  0  0  0  0  0  0  0  0  0
  1  2  1  0
  2  3  1  0
  3  4  1  0
  4  5  2  0
  4  6  1  0
  6  7  2  0
  7  8  1  0
  8  9  2  0
  9 10  1  0
 10 11  1  0
 11 12  2  0
 11 13  1  0
 13 14  1  0
 14 15  1  0
 15 16  2  0
 16 17  1  0
 17 18  1  0
 17 19  2  0
 19 20  1  0
 20 21  1  0
 20 22  2  0
 22 23  1  0
 23 24  3  0
  9 25  1  0
 25 26  2  0
 26  6  1  0
 22 15  1  0
M  END
>  <Binding energies>  (1) 
[-8.02]

>  <Ligand effiencies>  (1) 
[-0.29703703703703704]

>  <Interactions>  (1) 
["V-B:ALA:541:CB:9863, V-B:TYR:539:CE2:9847, V-A:ILE:369:CG2:3236, V-B:PRO:540:CB:9856, V-B:MET:535:CE:9806, V-B:PRO:540:CA:9854, V-A:SER:385:CA:3406, V-B:TYR:539:CD2:9845, V-B:TYR:531:CE2:9764, V-B:LEU:363:CD1:8159, V-A:LEU:475:CD2:4258, V-B:TYR:539:C:9838, V-A:ILE:369:CD1:3238, V-A:ASP:366:CG:3212, V-B:PRO:540:N:9855, V-B:TYR:539:CG:9843, V-B:TYR:539:CB:9842, H-B:TYR:539:N:9841, V-B:TYR:539:CZ:9848, V-B:ALA:541:CA:9861, H-B:TYR:539:OH:9849, H-B:TYR:531:OH:9766"]

$$$$
1aa_Ghoteimi_2023
     RDKit          3D

 40 43  0  0  0  0  0  0  0  0999 V2000
  135.0320  127.6460   74.9110 C   0  0  0  0  0  0  0  0  0  0  0  0
  134.8310  126.4390   75.8320 C   0  0  0  0  0  0  0  0  0  0  0  0
  133.4960  126.4360   76.3230 O   0  0  0  0  0  0  0  0  0  0  0  0
  132.7510  125.3010   76.3190 C   0  0  0  0  0  0  0  0  0  0  0  0
  132.8990  124.3870   77.1370 O   0  0  0  0  0  0  0  0  0  0  0  0
  131.7260  125.2660   75.2220 C   0  0  0  0  0  0  0  0  0  0  0  0
  131.1660  124.0620   74.7680 C   0  0  0  0  0  0  0  0  0  0  0  0
  130.2170  124.0600   73.7480 C   0  0  0  0  0  0  0  0  0  0  0  0
  129.8090  125.2680   73.1640 C   0  0  0  0  0  0  0  0  0  0  0  0
  128.8620  125.3880   72.1310 N   0  0  0  0  0  0  0  0  0  0  0  0
  127.7750  126.1870   72.0260 C   0  0  0  0  0  0  0  0  0  0  0  0
  127.4160  127.0020   72.8760 O   0  0  0  0  0  0  0  0  0  0  0  0
  126.9330  126.0660   70.7460 C   0  0  0  0  0  0  0  0  0  0  0  0
  126.6380  127.3640   70.2140 O   0  0  0  0  0  0  0  0  0  0  0  0
  127.1060  127.7310   68.9600 C   0  0  0  0  0  0  0  0  0  0  0  0
  128.3530  127.3210   68.5960 N   0  0  0  0  0  0  0  0  0  0  0  0
  128.8520  127.6720   67.3820 C   0  0  0  0  0  0  0  0  0  0  0  0
  130.2330  127.1780   67.0560 C   0  0  0  0  0  0  0  0  0  0  0  0
  131.2230  127.0980   68.0460 C   0  0  0  0  0  0  0  0  0  0  0  0
  132.5040  126.6420   67.7460 C   0  0  0  0  0  0  0  0  0  0  0  0
  132.8340  126.2520   66.4500 C   0  0  0  0  0  0  0  0  0  0  0  0
  134.1290  125.8150   66.2450 O   0  0  0  0  0  0  0  0  0  0  0  0
  134.9470  125.5170   67.3710 C   0  0  0  0  0  0  0  0  0  0  0  0
  131.8530  126.3220   65.4510 C   0  0  0  0  0  0  0  0  0  0  0  0
  130.5740  126.7770   65.7540 C   0  0  0  0  0  0  0  0  0  0  0  0
  128.0900  128.4360   66.4910 C   0  0  0  0  0  0  0  0  0  0  0  0
  126.8000  128.8620   66.8360 C   0  0  0  0  0  0  0  0  0  0  0  0
  126.0330  129.6660   65.8380 C   0  0  0  0  0  0  0  0  0  0  0  0
  126.4520  130.9580   65.5050 C   0  0  0  0  0  0  0  0  0  0  0  0
  125.7490  131.7090   64.5680 C   0  0  0  0  0  0  0  0  0  0  0  0
  124.6190  131.1850   63.9410 C   0  0  0  0  0  0  0  0  0  0  0  0
  123.9850  132.0030   63.0260 O   0  0  0  0  0  0  0  0  0  0  0  0
  122.8350  131.5190   62.3410 C   0  0  0  0  0  0  0  0  0  0  0  0
  124.2000  129.8860   64.2660 C   0  0  0  0  0  0  0  0  0  0  0  0
  124.9040  129.1360   65.2040 C   0  0  0  0  0  0  0  0  0  0  0  0
  126.2990  128.5060   68.1100 C   0  0  0  0  0  0  0  0  0  0  0  0
  124.9810  128.9410   68.5760 C   0  0  0  0  0  0  0  0  0  0  0  0
  123.9400  129.2850   68.9450 N   0  0  0  0  0  0  0  0  0  0  0  0
  130.3660  126.4660   73.6120 C   0  0  0  0  0  0  0  0  0  0  0  0
  131.3140  126.4670   74.6310 C   0  0  0  0  0  0  0  0  0  0  0  0
  1  2  1  0
  2  3  1  0
  3  4  1  0
  4  5  2  0
  4  6  1  0
  6  7  2  0
  7  8  1  0
  8  9  2  0
  9 10  1  0
 10 11  1  0
 11 12  2  0
 11 13  1  0
 13 14  1  0
 14 15  1  0
 15 16  2  0
 16 17  1  0
 17 18  1  0
 18 19  2  0
 19 20  1  0
 20 21  2  0
 21 22  1  0
 22 23  1  0
 21 24  1  0
 24 25  2  0
 17 26  2  0
 26 27  1  0
 27 28  1  0
 28 29  2  0
 29 30  1  0
 30 31  2  0
 31 32  1  0
 32 33  1  0
 31 34  1  0
 34 35  2  0
 27 36  2  0
 36 37  1  0
 37 38  3  0
  9 39  1  0
 39 40  2  0
 40  6  1  0
 36 15  1  0
 25 18  1  0
 35 28  1  0
M  END
>  <Binding energies>  (2) 
[-9.24]

>  <Ligand effiencies>  (2) 
[-0.2253658536585366]

>  <Interactions>  (2) 
["V-A:GLY:453:CA:4043, V-A:GLY:453:C:4041, V-A:ARG:545:CZ:4925, H-A:ARG:545:NE:4923, H-A:LYS:471:NZ:4220, V-A:HIS:456:CE1:4069, V-B:GLY:544:C:9883, V-B:GLU:543:CB:9877, V-B:GLU:543:C:9873, V-A:HIS:456:CG:4065, V-A:HIS:456:CB:4064, V-B:HIS:456:CE1:9040, V-B:GLY:544:CA:9885, V-A:HIS:456:CD2:4067, V-B:ILE:369:CG1:8208, V-A:VAL:458:CG2:4086, V-B:GLY:454:CA:9019, V-B:LEU:475:CD1:9228, V-B:GLU:543:CD:9879, V-B:ARG:545:CG:9893, V-A:GLU:543:CD:4907, H-B:HIS:456:ND1:9037, H-B:GLY:454:N:9020, V-A:VAL:457:C:4072, V-A:VAL:457:CA:4074, V-A:HIS:456:C:4060, H-B:TYR:484:OH:9318, V-B:ARG:545:CZ:9897, H-A:TYR:484:OH:4347, H-A:GLY:454:N:4049, V-A:ARG:545:CD:4922, V-A:ARG:545:CG:4921, V-A:GLY:454:CA:4048, V-B:TYR:484:CZ:9317, H-B:GLU:543:O:9874, V-B:GLU:543:CA:9875, H-A:HIS:456:NE2:4070, V-A:ILE:455:C:4051, V-A:ARG:545:C:4916, V-A:GLY:454:C:4046"]

$$$$
1b_Grossjean_2025
     RDKit          3D

 25 26  0  0  0  0  0  0  0  0999 V2000
  124.3970  123.9080   57.8100 C   0  0  0  0  0  0  0  0  0  0  0  0
  125.5080  123.9990   56.9270 O   0  0  0  0  0  0  0  0  0  0  0  0
  126.4230  123.0000   56.8520 C   0  0  0  0  0  0  0  0  0  0  0  0
  126.2640  121.9800   56.1730 O   0  0  0  0  0  0  0  0  0  0  0  0
  127.6560  123.2610   57.6690 C   0  0  0  0  0  0  0  0  0  0  0  0
  127.9360  122.5410   58.8410 C   0  0  0  0  0  0  0  0  0  0  0  0
  129.0870  122.8080   59.5760 C   0  0  0  0  0  0  0  0  0  0  0  0
  129.9800  123.7960   59.1600 C   0  0  0  0  0  0  0  0  0  0  0  0
  131.1080  123.9810   59.9820 N   0  0  0  0  0  0  0  0  0  0  0  0
  132.3930  124.2380   59.6510 C   0  0  0  0  0  0  0  0  0  0  0  0
  132.8250  124.3680   58.5060 O   0  0  0  0  0  0  0  0  0  0  0  0
  133.3560  124.3830   60.8300 C   0  0  0  0  0  0  0  0  0  0  0  0
  133.8410  122.7720   61.5220 S   0  0  0  0  0  0  0  0  0  0  0  0
  132.3690  121.7780   61.6340 C   0  0  0  0  0  0  0  0  0  0  0  0
  131.3560  122.3770   62.3100 N   0  0  0  0  0  0  0  0  0  0  0  0
  130.1880  121.7090   62.4540 C   0  0  0  0  0  0  0  0  0  0  0  0
  129.0950  122.4460   63.2080 C   0  0  0  0  0  0  0  0  0  0  0  0
  129.9860  120.4270   61.9470 C   0  0  0  0  0  0  0  0  0  0  0  0
  131.0320  119.7930   61.2690 C   0  0  0  0  0  0  0  0  0  0  0  0
  130.7940  118.3820   60.7350 C   0  0  0  0  0  0  0  0  0  0  0  0
  132.2620  120.4710   61.1050 C   0  0  0  0  0  0  0  0  0  0  0  0
  133.3850  119.8100   60.4370 C   0  0  0  0  0  0  0  0  0  0  0  0
  134.2710  119.2850   59.9080 N   0  0  0  0  0  0  0  0  0  0  0  0
  129.7070  124.5200   57.9900 C   0  0  0  0  0  0  0  0  0  0  0  0
  128.5560  124.2520   57.2550 C   0  0  0  0  0  0  0  0  0  0  0  0
  1  2  1  0
  2  3  1  0
  3  4  2  0
  3  5  1  0
  5  6  2  0
  6  7  1  0
  7  8  2  0
  8  9  1  0
  9 10  1  0
 10 11  2  0
 10 12  1  0
 12 13  1  0
 13 14  1  0
 14 15  2  0
 15 16  1  0
 16 17  1  0
 16 18  2  0
 18 19  1  0
 19 20  1  0
 19 21  2  0
 21 22  1  0
 22 23  3  0
  8 24  1  0
 24 25  2  0
 25  5  1  0
 21 14  1  0
M  END
>  <Binding energies>  (3) 
[-7.73]

>  <Ligand effiencies>  (3) 
[-0.29730769230769233]

>  <Interactions>  (3) 
["V-B:ALA:541:CB:9863, V-B:TYR:539:CE2:9847, V-A:ILE:369:CG2:3236, V-B:PRO:540:CB:9856, V-B:MET:535:CE:9806, V-B:PRO:540:CA:9854, V-A:SER:385:CA:3406, V-B:TYR:539:CD2:9845, V-B:TYR:531:CE2:9764, V-B:LEU:363:CD1:8159, V-A:LEU:475:CD2:4258, V-B:TYR:539:C:9838, V-A:ILE:369:CD1:3238, V-A:ASP:366:CG:3212, V-B:PRO:540:N:9855, V-B:TYR:539:CB:9842, H-B:TYR:539:N:9841, V-B:TYR:539:CZ:9848, V-B:ALA:541:CA:9861, H-B:TYR:539:OH:9849, H-B:TYR:531:OH:9766"]

$$$$
1c_Grossjean_2025
     RDKit          3D

 23 24  0  0  0  0  0  0  0  0999 V2000
  125.0030  122.1570   55.7470 C   0  0  0  0  0  0  0  0  0  0  0  0
  125.9740  123.1700   55.9880 O   0  0  0  0  0  0  0  0  0  0  0  0
  126.6180  123.2080   57.2100 C   0  0  0  0  0  0  0  0  0  0  0  0
  125.8850  123.7120   58.2840 C   0  0  0  0  0  0  0  0  0  0  0  0
  126.4470  123.7890   59.5550 C   0  0  0  0  0  0  0  0  0  0  0  0
  127.7630  123.3510   59.7680 C   0  0  0  0  0  0  0  0  0  0  0  0
  128.4310  123.3930   61.0070 N   0  0  0  0  0  0  0  0  0  0  0  0
  127.9330  123.2540   62.2550 C   0  0  0  0  0  0  0  0  0  0  0  0
  126.7530  123.0390   62.5330 O   0  0  0  0  0  0  0  0  0  0  0  0
  128.9560  123.3750   63.3860 C   0  0  0  0  0  0  0  0  0  0  0  0
  129.8290  121.8080   63.6800 S   0  0  0  0  0  0  0  0  0  0  0  0
  131.2360  121.7360   62.5900 C   0  0  0  0  0  0  0  0  0  0  0  0
  131.9860  122.8670   62.6010 N   0  0  0  0  0  0  0  0  0  0  0  0
  133.0830  122.9300   61.8110 C   0  0  0  0  0  0  0  0  0  0  0  0
  133.8760  124.2210   61.8850 C   0  0  0  0  0  0  0  0  0  0  0  0
  133.4690  121.8830   60.9780 C   0  0  0  0  0  0  0  0  0  0  0  0
  132.6900  120.7220   60.9390 C   0  0  0  0  0  0  0  0  0  0  0  0
  133.1250  119.5950   60.0050 C   0  0  0  0  0  0  0  0  0  0  0  0
  131.5380  120.6350   61.7550 C   0  0  0  0  0  0  0  0  0  0  0  0
  130.6800  119.4490   61.6880 C   0  0  0  0  0  0  0  0  0  0  0  0
  130.0040  118.5120   61.6350 N   0  0  0  0  0  0  0  0  0  0  0  0
  128.5030  122.8560   58.6930 C   0  0  0  0  0  0  0  0  0  0  0  0
  127.9380  122.7810   57.4230 C   0  0  0  0  0  0  0  0  0  0  0  0
  1  2  1  0
  2  3  1  0
  3  4  2  0
  4  5  1  0
  5  6  2  0
  6  7  1  0
  7  8  1  0
  8  9  2  0
  8 10  1  0
 10 11  1  0
 11 12  1  0
 12 13  2  0
 13 14  1  0
 14 15  1  0
 14 16  2  0
 16 17  1  0
 17 18  1  0
 17 19  2  0
 19 20  1  0
 20 21  3  0
  6 22  1  0
 22 23  2  0
 23  3  1  0
 19 12  1  0
M  END
>  <Binding energies>  (4) 
[-7.42]

>  <Ligand effiencies>  (4) 
[-0.30916666666666665]

>  <Interactions>  (4) 
["V-B:ALA:541:CB:9863, V-B:TYR:539:CE2:9847, V-A:ILE:369:CG2:3236, V-B:PRO:540:CB:9856, H-B:ALA:541:N:9862, V-B:MET:535:CE:9806, V-B:PRO:540:CA:9854, V-A:SER:385:CA:3406, V-B:TYR:539:CD2:9845, V-B:TYR:531:CE2:9764, V-B:LEU:363:CD1:8159, V-A:LEU:475:CD2:4258, V-B:TYR:539:C:9838, V-A:ILE:369:CD1:3238, V-A:ASP:366:CG:3212, V-B:PRO:540:N:9855, V-B:PRO:540:CD:9858, V-B:GLU:543:CD:9879, V-B:TYR:539:CG:9843, V-B:TYR:539:CZ:9848, V-B:TYR:539:CE1:9846, V-B:TYR:539:CD1:9844, H-B:TYR:531:OH:9766, V-B:ILE:538:CD1:9836, V-B:ILE:538:CG2:9834, V-B:ILE:538:CA:9831, V-B:ILE:538:CB:9833"]

$$$$
1d_Grossjean_2025
     RDKit          3D

 21 22  0  0  0  0  0  0  0  0999 V2000
  127.6230  132.0450   59.8570 C   0  0  0  0  0  0  0  0  0  0  0  0
  127.0770  131.6850   58.4890 C   0  0  0  0  0  0  0  0  0  0  0  0
  125.7240  131.4220   58.2890 C   0  0  0  0  0  0  0  0  0  0  0  0
  125.2750  131.1040   57.0020 C   0  0  0  0  0  0  0  0  0  0  0  0
  123.7840  130.8360   56.8050 C   0  0  0  0  0  0  0  0  0  0  0  0
  126.2060  131.0500   55.9390 C   0  0  0  0  0  0  0  0  0  0  0  0
  125.7520  130.7670   54.5760 C   0  0  0  0  0  0  0  0  0  0  0  0
  125.3900  130.5430   53.5000 N   0  0  0  0  0  0  0  0  0  0  0  0
  127.5650  131.3070   56.2390 C   0  0  0  0  0  0  0  0  0  0  0  0
  128.8670  131.2800   55.0270 S   0  0  0  0  0  0  0  0  0  0  0  0
  129.7530  132.8640   55.1470 C   0  0  0  0  0  0  0  0  0  0  0  0
  130.4590  133.0290   56.4940 C   0  0  0  0  0  0  0  0  0  0  0  0
  130.4260  134.1220   57.0600 O   0  0  0  0  0  0  0  0  0  0  0  0
  131.0580  131.9170   56.9720 N   0  0  0  0  0  0  0  0  0  0  0  0
  131.7970  131.7280   58.1550 C   0  0  0  0  0  0  0  0  0  0  0  0
  133.0400  131.1080   57.9990 C   0  0  0  0  0  0  0  0  0  0  0  0
  133.8550  130.8790   59.1040 C   0  0  0  0  0  0  0  0  0  0  0  0
  133.4300  131.2770   60.3690 C   0  0  0  0  0  0  0  0  0  0  0  0
  132.1980  131.9040   60.5370 C   0  0  0  0  0  0  0  0  0  0  0  0
  131.3800  132.1330   59.4340 C   0  0  0  0  0  0  0  0  0  0  0  0
  127.9860  131.6350   57.4860 N   0  0  0  0  0  0  0  0  0  0  0  0
  1  2  1  0
  2  3  2  0
  3  4  1  0
  4  5  1  0
  4  6  2  0
  6  7  1  0
  7  8  3  0
  6  9  1  0
  9 10  1  0
 10 11  1  0
 11 12  1  0
 12 13  2  0
 12 14  1  0
 14 15  1  0
 15 16  2  0
 16 17  1  0
 17 18  2  0
 18 19  1  0
 19 20  2  0
  9 21  2  0
 21  2  1  0
 20 15  1  0
M  END
>  <Binding energies>  (5) 
[-7.49]

>  <Ligand effiencies>  (5) 
[-0.34045454545454545]

>  <Interactions>  (5) 
["V-A:ASP:366:CG:3212, H-B:LYS:534:NZ:9794, H-A:TYR:539:OH:4877, V-A:TYR:539:CZ:4876, V-B:TYR:531:CE1:9763, V-A:MET:535:CG:4832, V-A:TYR:539:CD1:4872, V-A:TYR:539:CE1:4874, V-A:PRO:540:CA:4882, V-A:PRO:540:CB:4884, V-A:ASN:362:C:3171, V-A:ASP:366:CB:3211, V-A:LEU:363:CA:3184, V-A:TYR:531:CZ:4793, H-A:TYR:531:OH:4794, H-A:TYR:539:N:4869, V-A:TYR:531:CE2:4792, V-B:ASP:366:C:8178"]

$$$$
1e_Grossjean_2025
     RDKit          3D

 22 23  0  0  0  0  0  0  0  0999 V2000
  130.3400  132.4750   61.8520 C   0  0  0  0  0  0  0  0  0  0  0  0
  131.3820  132.1730   60.7910 C   0  0  0  0  0  0  0  0  0  0  0  0
  132.7110  131.9030   61.1280 C   0  0  0  0  0  0  0  0  0  0  0  0
  133.6150  131.6360   60.0990 C   0  0  0  0  0  0  0  0  0  0  0  0
  133.1750  131.6480   58.7730 C   0  0  0  0  0  0  0  0  0  0  0  0
  131.8280  131.9210   58.5060 C   0  0  0  0  0  0  0  0  0  0  0  0
  131.4480  131.9300   57.1520 N   0  0  0  0  0  0  0  0  0  0  0  0
  131.0090  132.9700   56.4090 C   0  0  0  0  0  0  0  0  0  0  0  0
  130.8580  134.1200   56.8230 O   0  0  0  0  0  0  0  0  0  0  0  0
  130.6570  132.6470   54.9560 C   0  0  0  0  0  0  0  0  0  0  0  0
  128.8710  132.3940   54.7280 S   0  0  0  0  0  0  0  0  0  0  0  0
  128.3550  131.0250   55.7440 C   0  0  0  0  0  0  0  0  0  0  0  0
  129.3130  130.6020   56.6070 N   0  0  0  0  0  0  0  0  0  0  0  0
  129.0380  129.5630   57.4310 C   0  0  0  0  0  0  0  0  0  0  0  0
  130.1540  129.1530   58.3720 C   0  0  0  0  0  0  0  0  0  0  0  0
  127.8130  128.9010   57.4210 C   0  0  0  0  0  0  0  0  0  0  0  0
  126.8260  129.3120   56.5190 C   0  0  0  0  0  0  0  0  0  0  0  0
  125.4970  128.5570   56.5150 C   0  0  0  0  0  0  0  0  0  0  0  0
  127.0920  130.3920   55.6470 C   0  0  0  0  0  0  0  0  0  0  0  0
  126.0910  130.7960   54.6570 C   0  0  0  0  0  0  0  0  0  0  0  0
  125.2990  131.1140   53.8750 N   0  0  0  0  0  0  0  0  0  0  0  0
  130.9400  132.1870   59.5080 N   0  0  0  0  0  0  0  0  0  0  0  0
  1  2  1  0
  2  3  2  0
  3  4  1  0
  4  5  2  0
  5  6  1  0
  6  7  1  0
  7  8  1  0
  8  9  2  0
  8 10  1  0
 10 11  1  0
 11 12  1  0
 12 13  2  0
 13 14  1  0
 14 15  1  0
 14 16  2  0
 16 17  1  0
 17 18  1  0
 17 19  2  0
 19 20  1  0
 20 21  3  0
  6 22  2  0
 22  2  1  0
 19 12  1  0
M  END
>  <Binding energies>  (6) 
[-7.42]

>  <Ligand effiencies>  (6) 
[-0.3226086956521739]

>  <Interactions>  (6) 
["V-B:TYR:531:CZ:9765, V-A:MET:535:CE:4834, H-B:LYS:534:NZ:9794, H-A:TYR:539:OH:4877, V-A:TYR:539:CZ:4876, V-B:TYR:531:CE1:9763, V-A:MET:535:CG:4832, V-A:ILE:538:CG2:4862, V-A:PRO:540:CA:4882, V-A:PRO:540:CB:4884, V-A:ASN:362:C:3171, V-A:ALA:541:CB:4891, V-A:LEU:363:CA:3184, V-A:TYR:531:CZ:4793, H-A:TYR:531:OH:4794, H-A:TYR:539:N:4869, V-A:TYR:531:CE2:4792, V-A:MET:535:CB:4831"]

$$$$
1f_Grossjean_2025
     RDKit          3D

 21 22  0  0  0  0  0  0  0  0999 V2000
  129.7500  116.8210   60.5230 C   0  0  0  0  0  0  0  0  0  0  0  0
  130.6770  118.0150   60.6460 C   0  0  0  0  0  0  0  0  0  0  0  0
  131.9380  118.0240   60.0550 C   0  0  0  0  0  0  0  0  0  0  0  0
  132.7540  119.1490   60.2130 C   0  0  0  0  0  0  0  0  0  0  0  0
  134.1400  119.1290   59.5710 C   0  0  0  0  0  0  0  0  0  0  0  0
  132.2760  120.2510   60.9600 C   0  0  0  0  0  0  0  0  0  0  0  0
  133.1380  121.4150   61.1840 C   0  0  0  0  0  0  0  0  0  0  0  0
  133.8190  122.3330   61.3590 N   0  0  0  0  0  0  0  0  0  0  0  0
  130.9720  120.1660   61.5010 C   0  0  0  0  0  0  0  0  0  0  0  0
  130.2040  121.4500   62.4680 S   0  0  0  0  0  0  0  0  0  0  0  0
  129.8030  122.8440   61.3590 C   0  0  0  0  0  0  0  0  0  0  0  0
  128.4540  122.7260   60.6340 C   0  0  0  0  0  0  0  0  0  0  0  0
  127.4220  122.5000   61.2660 O   0  0  0  0  0  0  0  0  0  0  0  0
  128.5250  122.8640   59.2930 N   0  0  0  0  0  0  0  0  0  0  0  0
  127.4990  122.8210   58.3300 C   0  0  0  0  0  0  0  0  0  0  0  0
  126.2020  123.3440   58.4900 C   0  0  0  0  0  0  0  0  0  0  0  0
  125.2790  123.2350   57.4460 C   0  0  0  0  0  0  0  0  0  0  0  0
  125.6770  122.6100   56.2650 C   0  0  0  0  0  0  0  0  0  0  0  0
  126.9210  122.1030   56.0830 N   0  0  0  0  0  0  0  0  0  0  0  0
  127.8070  122.2160   57.1060 C   0  0  0  0  0  0  0  0  0  0  0  0
  130.1980  119.0600   61.3620 N   0  0  0  0  0  0  0  0  0  0  0  0
  1  2  1  0
  2  3  2  0
  3  4  1  0
  4  5  1  0
  4  6  2  0
  6  7  1  0
  7  8  3  0
  6  9  1  0
  9 10  1  0
 10 11  1  0
 11 12  1  0
 12 13  2  0
 12 14  1  0
 14 15  1  0
 15 16  2  0
 16 17  1  0
 17 18  2  0
 18 19  1  0
 19 20  2  0
  9 21  2  0
 21  2  1  0
 20 15  1  0
M  END
>  <Binding energies>  (7) 
[-8.15]

>  <Ligand effiencies>  (7) 
[-0.3704545454545455]

>  <Interactions>  (7) 
["V-B:TYR:539:CE2:9847, V-A:ILE:369:CG2:3236, V-B:PRO:540:CB:9856, H-B:ALA:541:N:9862, V-B:MET:535:CE:9806, V-B:PRO:540:CA:9854, V-A:SER:385:CA:3406, V-B:TYR:539:CD2:9845, V-B:TYR:531:CE2:9764, V-B:LEU:363:CD1:8159, V-A:LEU:475:CD2:4258, V-B:TYR:539:C:9838, V-B:PRO:540:N:9855, V-B:PRO:540:CD:9858, V-B:TYR:539:CG:9843, V-B:TYR:539:CB:9842, V-A:HIS:383:CE1:3393, H-B:TYR:539:N:9841, V-B:TYR:539:CZ:9848, V-B:TYR:539:CE1:9846, V-B:TYR:539:CD1:9844, V-B:TYR:539:CA:9840, V-A:VAL:384:C:3396, V-A:PRO:482:CB:4325, V-A:LEU:373:CD2:3280, V-A:PRO:482:CG:4326, V-B:VAL:344:CG1:7971"]

$$$$
1g_Grossjean_2025
     RDKit          3D

 22 23  0  0  0  0  0  0  0  0999 V2000
  126.9050  131.8190   60.0820 C   0  0  0  0  0  0  0  0  0  0  0  0
  126.5050  131.5530   58.6430 C   0  0  0  0  0  0  0  0  0  0  0  0
  125.1680  131.4970   58.2560 C   0  0  0  0  0  0  0  0  0  0  0  0
  124.8590  131.2320   56.9170 C   0  0  0  0  0  0  0  0  0  0  0  0
  123.3860  131.1600   56.5190 C   0  0  0  0  0  0  0  0  0  0  0  0
  125.9080  131.0380   55.9910 C   0  0  0  0  0  0  0  0  0  0  0  0
  125.6090  130.7080   54.5950 C   0  0  0  0  0  0  0  0  0  0  0  0
  125.3690  130.4460   53.4930 N   0  0  0  0  0  0  0  0  0  0  0  0
  127.2370  131.1380   56.4670 C   0  0  0  0  0  0  0  0  0  0  0  0
  128.6740  130.9320   55.4390 S   0  0  0  0  0  0  0  0  0  0  0  0
  129.2850  132.5940   55.0260 C   0  0  0  0  0  0  0  0  0  0  0  0
  130.3730  133.0610   55.9930 C   0  0  0  0  0  0  0  0  0  0  0  0
  130.2420  134.1240   56.6020 O   0  0  0  0  0  0  0  0  0  0  0  0
  131.4430  132.2580   56.1190 N   0  0  0  0  0  0  0  0  0  0  0  0
  132.5690  132.4800   57.0260 C   0  0  0  0  0  0  0  0  0  0  0  0
  132.2580  132.1950   58.4930 C   0  0  0  0  0  0  0  0  0  0  0  0
  133.2970  131.8950   59.3810 C   0  0  0  0  0  0  0  0  0  0  0  0
  133.0140  131.6360   60.7190 C   0  0  0  0  0  0  0  0  0  0  0  0
  131.6950  131.6830   61.1670 C   0  0  0  0  0  0  0  0  0  0  0  0
  130.6570  131.9860   60.2890 C   0  0  0  0  0  0  0  0  0  0  0  0
  130.9380  132.2430   58.9490 C   0  0  0  0  0  0  0  0  0  0  0  0
  127.5260  131.3730   57.7730 N   0  0  0  0  0  0  0  0  0  0  0  0
  1  2  1  0
  2  3  2  0
  3  4  1  0
  4  5  1  0
  4  6  2  0
  6  7  1  0
  7  8  3  0
  6  9  1  0
  9 10  1  0
 10 11  1  0
 11 12  1  0
 12 13  2  0
 12 14  1  0
 14 15  1  0
 15 16  1  0
 16 17  2  0
 17 18  1  0
 18 19  2  0
 19 20  1  0
 20 21  2  0
  9 22  2  0
 22  2  1  0
 21 16  1  0
M  END
>  <Binding energies>  (8) 
[-7.78]

>  <Ligand effiencies>  (8) 
[-0.3382608695652174]

>  <Interactions>  (8) 
["V-B:ASN:370:CB:8215, V-B:ASN:370:CA:8213, H-B:LYS:534:NZ:9794, H-A:TYR:539:OH:4877, V-A:TYR:539:CZ:4876, V-B:TYR:531:CE1:9763, V-A:MET:535:CG:4832, V-A:TYR:539:CE1:4874, V-A:PRO:540:CA:4882, V-A:PRO:540:CB:4884, V-A:ASN:362:C:3171, V-A:LEU:363:CA:3184, V-A:TYR:531:CZ:4793, H-A:TYR:531:OH:4794, H-A:TYR:539:N:4869, V-A:PRO:540:N:4883, V-A:TYR:531:CE2:4792, V-A:LEU:363:CD1:3188, V-B:ASP:366:C:8178"]

$$$$
1h_Grossjean_2025
     RDKit          3D

 28 29  0  0  0  0  0  0  0  0999 V2000
  128.3110  133.0160   53.5010 C   0  0  0  0  0  0  0  0  0  0  0  0
  129.2450  133.2360   54.5510 O   0  0  0  0  0  0  0  0  0  0  0  0
  129.4010  132.2750   55.5340 C   0  0  0  0  0  0  0  0  0  0  0  0
  128.7730  131.0200   55.5090 C   0  0  0  0  0  0  0  0  0  0  0  0
  128.9660  130.1040   56.5430 C   0  0  0  0  0  0  0  0  0  0  0  0
  128.2950  128.7340   56.4920 C   0  0  0  0  0  0  0  0  0  0  0  0
  128.9680  127.7120   57.2950 N   0  0  0  0  0  0  0  0  0  0  0  0
  129.9770  126.9300   56.8700 C   0  0  0  0  0  0  0  0  0  0  0  0
  130.4740  127.0060   55.7460 O   0  0  0  0  0  0  0  0  0  0  0  0
  130.5050  125.8980   57.8660 C   0  0  0  0  0  0  0  0  0  0  0  0
  129.4790  124.3970   57.8980 S   0  0  0  0  0  0  0  0  0  0  0  0
  127.7950  124.8840   58.2380 C   0  0  0  0  0  0  0  0  0  0  0  0
  127.6460  125.9660   59.0470 N   0  0  0  0  0  0  0  0  0  0  0  0
  126.3960  126.3920   59.3420 C   0  0  0  0  0  0  0  0  0  0  0  0
  126.3110  127.6070   60.2470 C   0  0  0  0  0  0  0  0  0  0  0  0
  125.2520  125.7650   58.8520 C   0  0  0  0  0  0  0  0  0  0  0  0
  125.3920  124.6490   58.0200 C   0  0  0  0  0  0  0  0  0  0  0  0
  124.1260  123.9780   57.4920 C   0  0  0  0  0  0  0  0  0  0  0  0
  126.6890  124.1870   57.6980 C   0  0  0  0  0  0  0  0  0  0  0  0
  126.8660  123.0190   56.8310 C   0  0  0  0  0  0  0  0  0  0  0  0
  127.0060  122.0960   56.1470 N   0  0  0  0  0  0  0  0  0  0  0  0
  129.8220  130.4250   57.5970 C   0  0  0  0  0  0  0  0  0  0  0  0
  130.4680  131.6710   57.6450 C   0  0  0  0  0  0  0  0  0  0  0  0
  131.3260  132.0570   58.6580 O   0  0  0  0  0  0  0  0  0  0  0  0
  132.5750  131.3890   58.8090 C   0  0  0  0  0  0  0  0  0  0  0  0
  130.2400  132.5910   56.6120 C   0  0  0  0  0  0  0  0  0  0  0  0
  130.8700  133.8120   56.6430 O   0  0  0  0  0  0  0  0  0  0  0  0
  132.1970  133.7910   56.1360 C   0  0  0  0  0  0  0  0  0  0  0  0
  1  2  1  0
  2  3  1  0
  3  4  2  0
  4  5  1  0
  5  6  1  0
  6  7  1  0
  7  8  1  0
  8  9  2  0
  8 10  1  0
 10 11  1  0
 11 12  1  0
 12 13  2  0
 13 14  1  0
 14 15  1  0
 14 16  2  0
 16 17  1  0
 17 18  1  0
 17 19  2  0
 19 20  1  0
 20 21  3  0
  5 22  2  0
 22 23  1  0
 23 24  1  0
 24 25  1  0
 23 26  2  0
 26 27  1  0
 27 28  1  0
 26  3  1  0
 19 12  1  0
M  END
>  <Binding energies>  (9) 
[-7.24]

>  <Ligand effiencies>  (9) 
[-0.24965517241379312]

>  <Interactions>  (9) 
["V-B:ASP:366:CB:8182, V-B:PRO:540:CB:9856, V-B:MET:535:CE:9806, V-B:TYR:531:CZ:9765, V-B:TYR:531:CE2:9764, V-B:LEU:363:CD1:8159, V-B:ASP:366:CG:8183, V-A:MET:535:CE:4834, V-A:TYR:539:CZ:4876, V-A:MET:535:CG:4832, V-A:ILE:538:CG2:4862, V-A:ILE:538:CB:4861, V-A:TYR:539:CE2:4875, V-A:ILE:538:CA:4859, V-A:TYR:539:CE1:4874, H-B:TYR:539:N:9841, H-A:TYR:531:OH:4794, H-A:TYR:539:N:4869, H-B:TYR:539:OH:9849, V-A:PRO:540:N:4883, V-A:PRO:540:CD:4886, V-A:TYR:531:CE2:4792, V-A:LEU:363:CD1:3188, V-A:MET:535:CB:4831"]

$$$$
1i_Grossjean_2025
     RDKit          3D

 20 21  0  0  0  0  0  0  0  0999 V2000
  133.2040  123.7940   60.4440 C   0  0  0  0  0  0  0  0  0  0  0  0
  132.4780  122.4830   60.6790 C   0  0  0  0  0  0  0  0  0  0  0  0
  133.1220  121.2560   60.5310 C   0  0  0  0  0  0  0  0  0  0  0  0
  132.4050  120.0790   60.7710 C   0  0  0  0  0  0  0  0  0  0  0  0
  133.1370  118.7470   60.6180 C   0  0  0  0  0  0  0  0  0  0  0  0
  131.0450  120.1620   61.1510 C   0  0  0  0  0  0  0  0  0  0  0  0
  130.2910  118.9440   61.4560 C   0  0  0  0  0  0  0  0  0  0  0  0
  129.6960  117.9810   61.6970 N   0  0  0  0  0  0  0  0  0  0  0  0
  130.4670  121.4500   61.2530 C   0  0  0  0  0  0  0  0  0  0  0  0
  128.7740  121.7390   61.7170 S   0  0  0  0  0  0  0  0  0  0  0  0
  128.3240  123.4050   61.1450 C   0  0  0  0  0  0  0  0  0  0  0  0
  127.3700  123.3650   59.9490 C   0  0  0  0  0  0  0  0  0  0  0  0
  126.2570  123.8850   60.0470 O   0  0  0  0  0  0  0  0  0  0  0  0
  127.8450  122.7460   58.8460 N   0  0  0  0  0  0  0  0  0  0  0  0
  127.1900  122.5660   57.6360 C   0  0  0  0  0  0  0  0  0  0  0  0
  125.8340  122.8340   57.4570 C   0  0  0  0  0  0  0  0  0  0  0  0
  125.5800  122.5310   56.1390 C   0  0  0  0  0  0  0  0  0  0  0  0
  126.7230  122.1010   55.5550 O   0  0  0  0  0  0  0  0  0  0  0  0
  127.7370  122.1260   56.5140 N   0  0  0  0  0  0  0  0  0  0  0  0
  131.1770  122.5860   61.0380 N   0  0  0  0  0  0  0  0  0  0  0  0
  1  2  1  0
  2  3  2  0
  3  4  1  0
  4  5  1  0
  4  6  2  0
  6  7  1  0
  7  8  3  0
  6  9  1  0
  9 10  1  0
 10 11  1  0
 11 12  1  0
 12 13  2  0
 12 14  1  0
 14 15  1  0
 15 16  1  0
 16 17  2  0
 17 18  1  0
 18 19  1  0
  9 20  2  0
 20  2  1  0
 19 15  2  0
M  END
>  <Binding energies>  (10) 
[-7.46]

>  <Ligand effiencies>  (10) 
[-0.35523809523809524]

>  <Interactions>  (10) 
["V-B:ALA:541:CB:9863, V-B:TYR:539:CE2:9847, V-A:ILE:369:CG2:3236, V-B:PRO:540:CB:9856, H-B:ALA:541:N:9862, V-B:PRO:540:CA:9854, V-A:SER:385:CA:3406, V-B:TYR:539:CD2:9845, V-B:TYR:531:CE2:9764, V-B:LEU:363:CD1:8159, V-A:SER:385:CB:3408, V-A:LEU:475:CD2:4258, V-B:TYR:539:C:9838, V-A:ILE:369:CD1:3238, V-A:ASP:366:CG:3212, V-B:PRO:540:N:9855, V-B:PRO:540:CD:9858, H-B:TYR:539:O:9839, H-B:TYR:539:N:9841, V-B:ILE:538:CD1:9836, V-B:ILE:538:CA:9831, V-A:VAL:384:C:3396"]

$$$$
1k_Grossjean_2025
     RDKit          3D

 25 25  0  0  0  0  0  0  0  0999 V2000
  125.7810  122.3260   56.1800 C   0  0  0  0  0  0  0  0  0  0  0  0
  127.1670  122.1660   56.4370 O   0  0  0  0  0  0  0  0  0  0  0  0
  127.5810  122.7230   57.6780 C   0  0  0  0  0  0  0  0  0  0  0  0
  127.9820  124.1900   57.4730 C   0  0  0  0  0  0  0  0  0  0  0  0
  129.3730  124.2650   57.1900 O   0  0  0  0  0  0  0  0  0  0  0  0
  129.9840  125.4670   57.6400 C   0  0  0  0  0  0  0  0  0  0  0  0
  130.8240  126.0670   56.5050 C   0  0  0  0  0  0  0  0  0  0  0  0
  130.3500  127.3740   56.2050 O   0  0  0  0  0  0  0  0  0  0  0  0
  129.5630  127.9480   57.2390 C   0  0  0  0  0  0  0  0  0  0  0  0
  128.6410  129.0300   56.6470 C   0  0  0  0  0  0  0  0  0  0  0  0
  129.3550  130.1170   55.9740 N   0  0  0  0  0  0  0  0  0  0  0  0
  129.0600  131.4240   56.0870 C   0  0  0  0  0  0  0  0  0  0  0  0
  128.1410  131.8480   56.7880 O   0  0  0  0  0  0  0  0  0  0  0  0
  129.9490  132.3760   55.2700 C   0  0  0  0  0  0  0  0  0  0  0  0
  131.4430  132.9890   56.1240 S   0  0  0  0  0  0  0  0  0  0  0  0
  131.3340  132.5850   57.8620 C   0  0  0  0  0  0  0  0  0  0  0  0
  130.2290  133.0400   58.5080 N   0  0  0  0  0  0  0  0  0  0  0  0
  130.0890  132.7770   59.8280 C   0  0  0  0  0  0  0  0  0  0  0  0
  128.8350  133.3270   60.4800 C   0  0  0  0  0  0  0  0  0  0  0  0
  131.0300  132.0490   60.5530 C   0  0  0  0  0  0  0  0  0  0  0  0
  132.1680  131.5680   59.8980 C   0  0  0  0  0  0  0  0  0  0  0  0
  133.1860  130.7720   60.7100 C   0  0  0  0  0  0  0  0  0  0  0  0
  132.3350  131.8350   58.5200 C   0  0  0  0  0  0  0  0  0  0  0  0
  133.5200  131.3470   57.8090 C   0  0  0  0  0  0  0  0  0  0  0  0
  134.4560  130.9610   57.2480 N   0  0  0  0  0  0  0  0  0  0  0  0
  1  2  1  0
  2  3  1  0
  3  4  1  0
  4  5  1  0
  5  6  1  0
  6  7  1  0
  7  8  1  0
  8  9  1  0
  9 10  1  0
 10 11  1  0
 11 12  1  0
 12 13  2  0
 12 14  1  0
 14 15  1  0
 15 16  1  0
 16 17  2  0
 17 18  1  0
 18 19  1  0
 18 20  2  0
 20 21  1  0
 21 22  1  0
 21 23  2  0
 23 24  1  0
 24 25  3  0
 23 16  1  0
M  END
>  <Binding energies>  (11) 
[-6.8]

>  <Ligand effiencies>  (11) 
[-0.26153846153846155]

>  <Interactions>  (11) 
["V-B:TYR:539:CE2:9847, V-B:MET:535:CE:9806, V-B:PRO:540:CA:9854, V-B:TYR:539:CD2:9845, V-B:TYR:539:C:9838, V-A:ASP:366:CG:3212, V-A:MET:535:CE:4834, V-B:PRO:540:N:9855, V-A:MET:535:CG:4832, V-A:TYR:539:CD1:4872, V-A:TYR:539:C:4866, V-B:PRO:540:CD:9858, V-A:PRO:540:CA:4882, V-A:PRO:540:CB:4884, V-A:ASN:362:C:3171, V-A:ASP:366:CB:3211, V-A:LEU:363:CA:3184, V-B:TYR:539:CG:9843, V-A:TYR:531:CZ:4793, H-B:TYR:539:N:9841, V-B:TYR:539:CZ:9848, H-A:TYR:531:OH:4794, H-B:TYR:539:OH:9849, V-A:PRO:540:N:4883, V-A:TYR:531:CE2:4792, V-A:LEU:363:CD1:3188, V-B:ILE:538:CG2:9834, V-B:ILE:538:CA:9831, H-A:MET:535:SD:4833"]

$$$$
1l_Grossjean_2025
     RDKit          3D

 17 17  0  0  0  0  0  0  0  0999 V2000
  124.8770  122.2980   56.4050 C   0  0  0  0  0  0  0  0  0  0  0  0
  125.8230  123.0660   55.6740 O   0  0  0  0  0  0  0  0  0  0  0  0
  126.7220  123.6720   56.5510 N   0  0  0  0  0  0  0  0  0  0  0  0
  127.6440  122.9120   57.1720 C   0  0  0  0  0  0  0  0  0  0  0  0
  127.8990  121.7480   56.8500 O   0  0  0  0  0  0  0  0  0  0  0  0
  128.3890  123.6010   58.3240 C   0  0  0  0  0  0  0  0  0  0  0  0
  127.5310  125.0420   59.0450 S   0  0  0  0  0  0  0  0  0  0  0  0
  125.8160  124.6080   59.2780 C   0  0  0  0  0  0  0  0  0  0  0  0
  124.9760  124.9570   58.2680 N   0  0  0  0  0  0  0  0  0  0  0  0
  123.6600  124.6590   58.3800 C   0  0  0  0  0  0  0  0  0  0  0  0
  122.7880  125.0790   57.2130 C   0  0  0  0  0  0  0  0  0  0  0  0
  123.1290  124.0060   59.4900 C   0  0  0  0  0  0  0  0  0  0  0  0
  123.9830  123.6410   60.5360 C   0  0  0  0  0  0  0  0  0  0  0  0
  123.3790  122.9250   61.7430 C   0  0  0  0  0  0  0  0  0  0  0  0
  125.3600  123.9430   60.4400 C   0  0  0  0  0  0  0  0  0  0  0  0
  126.2780  123.5720   61.5210 C   0  0  0  0  0  0  0  0  0  0  0  0
  127.0010  123.2790   62.3750 N   0  0  0  0  0  0  0  0  0  0  0  0
  1  2  1  0
  2  3  1  0
  3  4  1  0
  4  5  2  0
  4  6  1  0
  6  7  1  0
  7  8  1  0
  8  9  2  0
  9 10  1  0
 10 11  1  0
 10 12  2  0
 12 13  1  0
 13 14  1  0
 13 15  2  0
 15 16  1  0
 16 17  3  0
 15  8  1  0
M  END
>  <Binding energies>  (12) 
[-6.34]

>  <Ligand effiencies>  (12) 
[-0.3522222222222222]

>  <Interactions>  (12) 
["V-B:TYR:539:CE2:9847, V-B:ASP:366:CB:8182, V-B:PRO:540:CB:9856, H-B:ALA:541:N:9862, V-B:MET:535:CE:9806, V-B:PRO:540:CA:9854, V-B:TYR:531:CZ:9765, V-B:TYR:539:CD2:9845, V-B:LEU:363:CA:8155, V-B:TYR:531:CE2:9764, V-B:LEU:363:CD1:8159, V-B:TYR:539:C:9838, V-B:ASP:366:CG:8183, V-B:PRO:540:N:9855, V-B:PRO:540:CG:9857, V-B:PRO:540:CD:9858, H-B:TYR:539:N:9841, H-B:TYR:531:OH:9766, V-B:ILE:538:CD1:9836, V-B:ILE:538:CG2:9834, V-B:ASN:362:CB:8146, V-B:TYR:531:CD2:9762, V-B:LEU:363:C:8153, V-B:LEU:363:CB:8157, V-B:ASN:362:C:8142"]

$$$$
1m_Grossjean_2025
     RDKit          3D

 20 20  0  0  0  0  0  0  0  0999 V2000
  129.6910  116.8880   60.4670 C   0  0  0  0  0  0  0  0  0  0  0  0
  130.6830  117.7460   59.9210 O   0  0  0  0  0  0  0  0  0  0  0  0
  131.8080  118.0220   60.6130 C   0  0  0  0  0  0  0  0  0  0  0  0
  132.8110  117.3040   60.6660 O   0  0  0  0  0  0  0  0  0  0  0  0
  131.7050  119.3760   61.3440 C   0  0  0  0  0  0  0  0  0  0  0  0
  130.4930  120.1280   60.9840 N   0  0  0  0  0  0  0  0  0  0  0  0
  130.0510  121.2440   61.5930 C   0  0  0  0  0  0  0  0  0  0  0  0
  130.6260  121.7570   62.5560 O   0  0  0  0  0  0  0  0  0  0  0  0
  128.7640  121.8470   61.0160 C   0  0  0  0  0  0  0  0  0  0  0  0
  128.9960  122.8210   59.4900 S   0  0  0  0  0  0  0  0  0  0  0  0
  127.4180  122.9520   58.6750 C   0  0  0  0  0  0  0  0  0  0  0  0
  127.4440  122.5560   57.3770 N   0  0  0  0  0  0  0  0  0  0  0  0
  126.2990  122.6060   56.6580 C   0  0  0  0  0  0  0  0  0  0  0  0
  126.4010  122.1300   55.2210 C   0  0  0  0  0  0  0  0  0  0  0  0
  125.0940  123.0580   57.1920 C   0  0  0  0  0  0  0  0  0  0  0  0
  125.0620  123.4930   58.5220 C   0  0  0  0  0  0  0  0  0  0  0  0
  123.7340  124.0000   59.0820 C   0  0  0  0  0  0  0  0  0  0  0  0
  126.2460  123.4510   59.2920 C   0  0  0  0  0  0  0  0  0  0  0  0
  126.2460  123.9480   60.6700 C   0  0  0  0  0  0  0  0  0  0  0  0
  126.2450  124.3400   61.7590 N   0  0  0  0  0  0  0  0  0  0  0  0
  1  2  1  0
  2  3  1  0
  3  4  2  0
  3  5  1  0
  5  6  1  0
  6  7  1  0
  7  8  2  0
  7  9  1  0
  9 10  1  0
 10 11  1  0
 11 12  2  0
 12 13  1  0
 13 14  1  0
 13 15  2  0
 15 16  1  0
 16 17  1  0
 16 18  2  0
 18 19  1  0
 19 20  3  0
 18 11  1  0
M  END
>  <Binding energies>  (13) 
[-6.43]

>  <Ligand effiencies>  (13) 
[-0.3061904761904762]

>  <Interactions>  (13) 
["V-B:ALA:541:CB:9863, V-B:TYR:539:CE2:9847, V-B:ASP:366:CB:8182, V-B:PRO:540:CB:9856, V-B:MET:535:CE:9806, V-B:PRO:540:CA:9854, V-B:TYR:539:CD2:9845, V-B:LEU:363:CA:8155, V-B:PRO:540:C:9852, V-B:LEU:363:CD1:8159, V-A:LEU:475:CD2:4258, V-B:TYR:539:C:9838, V-B:ASP:366:CG:8183, V-B:PRO:540:N:9855, V-B:PRO:540:CD:9858, V-B:TYR:539:CB:9842, V-A:HIS:383:CE1:3393, H-B:TYR:539:O:9839, H-B:TYR:539:N:9841, V-B:ILE:538:CD1:9836, V-B:ILE:538:CG2:9834, V-B:ILE:538:CA:9831, V-B:ILE:538:C:9829, V-B:TYR:539:CA:9840, V-B:MET:535:CG:9804, H-A:HIS:383:ND1:3390, V-A:PRO:482:CB:4325, V-B:ILE:538:CB:9833, V-A:PRO:482:CG:4326, V-B:VAL:344:CG1:7971"]

$$$$
1n_Grossjean_2025
     RDKit          3D

 27 28  0  0  0  0  0  0  0  0999 V2000
  129.7260  133.3450   54.3340 C   0  0  0  0  0  0  0  0  0  0  0  0
  131.1750  133.1350   54.7870 C   0  0  0  0  0  0  0  0  0  0  0  0
  131.3450  133.6770   56.0910 O   0  0  0  0  0  0  0  0  0  0  0  0
  130.5120  133.3340   57.1070 C   0  0  0  0  0  0  0  0  0  0  0  0
  129.7260  134.1240   57.6380 O   0  0  0  0  0  0  0  0  0  0  0  0
  130.6330  131.8930   57.5120 C   0  0  0  0  0  0  0  0  0  0  0  0
  129.6080  130.9650   57.2700 C   0  0  0  0  0  0  0  0  0  0  0  0
  129.7510  129.6370   57.6610 C   0  0  0  0  0  0  0  0  0  0  0  0
  130.9120  129.2100   58.3070 C   0  0  0  0  0  0  0  0  0  0  0  0
  130.9480  127.8480   58.6630 N   0  0  0  0  0  0  0  0  0  0  0  0
  130.9320  126.7490   57.8780 C   0  0  0  0  0  0  0  0  0  0  0  0
  130.8870  126.7520   56.6470 O   0  0  0  0  0  0  0  0  0  0  0  0
  130.9780  125.4050   58.6170 C   0  0  0  0  0  0  0  0  0  0  0  0
  129.6360  125.0350   59.2830 C   0  0  0  0  0  0  0  0  0  0  0  0
  129.1570  123.2910   59.0960 S   0  0  0  0  0  0  0  0  0  0  0  0
  127.5500  123.2520   58.3320 C   0  0  0  0  0  0  0  0  0  0  0  0
  127.5630  122.7710   57.0640 N   0  0  0  0  0  0  0  0  0  0  0  0
  126.3920  122.6800   56.3910 C   0  0  0  0  0  0  0  0  0  0  0  0
  126.4830  122.1230   54.9830 C   0  0  0  0  0  0  0  0  0  0  0  0
  125.1740  123.0660   56.9440 C   0  0  0  0  0  0  0  0  0  0  0  0
  125.1530  123.5830   58.2450 C   0  0  0  0  0  0  0  0  0  0  0  0
  123.8070  124.0140   58.8260 C   0  0  0  0  0  0  0  0  0  0  0  0
  126.3640  123.6920   58.9650 C   0  0  0  0  0  0  0  0  0  0  0  0
  126.3720  124.2780   60.3070 C   0  0  0  0  0  0  0  0  0  0  0  0
  126.3760  124.7420   61.3670 N   0  0  0  0  0  0  0  0  0  0  0  0
  131.9440  130.1290   58.5430 C   0  0  0  0  0  0  0  0  0  0  0  0
  131.8010  131.4570   58.1480 C   0  0  0  0  0  0  0  0  0  0  0  0
  1  2  1  0
  2  3  1  0
  3  4  1  0
  4  5  2  0
  4  6  1  0
  6  7  2  0
  7  8  1  0
  8  9  2  0
  9 10  1  0
 10 11  1  0
 11 12  2  0
 11 13  1  0
 13 14  1  0
 14 15  1  0
 15 16  1  0
 16 17  2  0
 17 18  1  0
 18 19  1  0
 18 20  2  0
 20 21  1  0
 21 22  1  0
 21 23  2  0
 23 24  1  0
 24 25  3  0
  9 26  1  0
 26 27  2  0
 27  6  1  0
 23 16  1  0
M  END
>  <Binding energies>  (14) 
[-8.36]

>  <Ligand effiencies>  (14) 
[-0.29857142857142854]

>  <Interactions>  (14) 
["V-B:TYR:539:CE2:9847, V-B:PRO:540:CB:9856, V-B:MET:535:CE:9806, V-B:PRO:540:CA:9854, V-B:LEU:363:CA:8155, V-B:TYR:531:CE2:9764, V-B:LEU:363:CD1:8159, V-B:ASP:366:CG:8183, V-A:TYR:539:CZ:4876, V-B:PRO:540:N:9855, V-A:MET:535:CG:4832, V-A:ILE:538:CG2:4862, V-A:ILE:538:CB:4861, V-A:ILE:538:CA:4859, V-A:TYR:539:C:4866, V-B:PRO:540:CD:9858, V-A:ASP:366:CB:3211, V-A:TYR:531:CZ:4793, H-A:TYR:531:OH:4794, H-A:TYR:539:N:4869, H-B:TYR:539:OH:9849, V-A:PRO:540:N:4883, H-A:ASP:366:OD2:3214, V-A:TYR:531:CE2:4792, V-A:MET:535:CB:4831, V-B:ILE:538:CD1:9836, V-B:ILE:538:CG2:9834, V-B:ILE:538:CA:9831, V-B:ILE:538:C:9829, V-B:MET:535:CG:9804, V-B:ILE:538:CB:9833, V-B:VAL:537:C:9821"]

$$$$
1q_Grossjean_2025
     RDKit          3D

 21 21  0  0  0  0  0  0  0  0999 V2000
  125.0130  122.6790   55.7710 C   0  0  0  0  0  0  0  0  0  0  0  0
  125.9960  123.6230   56.1720 O   0  0  0  0  0  0  0  0  0  0  0  0
  127.1290  123.2150   56.7950 C   0  0  0  0  0  0  0  0  0  0  0  0
  127.4780  122.0430   56.9500 O   0  0  0  0  0  0  0  0  0  0  0  0
  127.9880  124.3670   57.3570 C   0  0  0  0  0  0  0  0  0  0  0  0
  127.5550  125.6900   56.8820 N   0  0  0  0  0  0  0  0  0  0  0  0
  128.3520  126.7580   56.6850 C   0  0  0  0  0  0  0  0  0  0  0  0
  129.5680  126.7370   56.8850 O   0  0  0  0  0  0  0  0  0  0  0  0
  127.6600  128.0280   56.1700 C   0  0  0  0  0  0  0  0  0  0  0  0
  128.6160  129.2090   55.9090 C   0  0  0  0  0  0  0  0  0  0  0  0
  128.4280  130.5730   57.0970 S   0  0  0  0  0  0  0  0  0  0  0  0
  130.0170  131.3420   57.3330 C   0  0  0  0  0  0  0  0  0  0  0  0
  130.7610  130.7560   58.3050 N   0  0  0  0  0  0  0  0  0  0  0  0
  131.9890  131.2550   58.5780 C   0  0  0  0  0  0  0  0  0  0  0  0
  132.7530  130.5570   59.6880 C   0  0  0  0  0  0  0  0  0  0  0  0
  132.5280  132.3420   57.8930 C   0  0  0  0  0  0  0  0  0  0  0  0
  131.7820  132.9380   56.8720 C   0  0  0  0  0  0  0  0  0  0  0  0
  132.4020  134.1170   56.1230 C   0  0  0  0  0  0  0  0  0  0  0  0
  130.4970  132.4330   56.5670 C   0  0  0  0  0  0  0  0  0  0  0  0
  129.7260  133.0080   55.4630 C   0  0  0  0  0  0  0  0  0  0  0  0
  129.1190  133.4660   54.5900 N   0  0  0  0  0  0  0  0  0  0  0  0
  1  2  1  0
  2  3  1  0
  3  4  2  0
  3  5  1  0
  5  6  1  0
  6  7  1  0
  7  8  2  0
  7  9  1  0
  9 10  1  0
 10 11  1  0
 11 12  1  0
 12 13  2  0
 13 14  1  0
 14 15  1  0
 14 16  2  0
 16 17  1  0
 17 18  1  0
 17 19  2  0
 19 20  1  0
 20 21  3  0
 19 12  1  0
M  END
>  <Binding energies>  (15) 
[-6.45]

>  <Ligand effiencies>  (15) 
[-0.2931818181818182]

>  <Interactions>  (15) 
["V-B:MET:535:CE:9806, V-B:TYR:531:CZ:9765, V-B:TYR:531:CE2:9764, V-B:LEU:363:CD1:8159, V-A:ASP:366:CG:3212, V-A:MET:535:CE:4834, H-A:TYR:539:OH:4877, V-A:TYR:539:CZ:4876, V-A:ILE:538:CG2:4862, V-A:ILE:538:CB:4861, V-A:ILE:538:CA:4859, V-A:ILE:538:C:4857, V-A:TYR:539:CE1:4874, V-A:PRO:540:CA:4882, V-A:PRO:540:CB:4884, V-A:ASP:366:CB:3211, H-B:TYR:539:N:9841, H-A:TYR:531:OH:4794, V-A:PRO:540:N:4883, V-A:PRO:540:CD:4886, H-B:TYR:531:OH:9766, V-A:TYR:531:CE2:4792, V-A:LEU:363:CD1:3188, V-B:ILE:538:CD1:9836, V-B:ILE:538:CG2:9834"]

$$$$
2a_Grossjean_2025
     RDKit          3D

 29 30  0  0  0  0  0  0  0  0999 V2000
  123.3680  124.6990   57.9760 C   0  0  0  0  0  0  0  0  0  0  0  0
  124.8710  124.4440   58.1310 C   0  0  0  0  0  0  0  0  0  0  0  0
  125.4090  124.0300   56.8810 O   0  0  0  0  0  0  0  0  0  0  0  0
  126.3210  123.0270   56.8090 C   0  0  0  0  0  0  0  0  0  0  0  0
  126.1590  122.0060   56.1350 O   0  0  0  0  0  0  0  0  0  0  0  0
  127.5600  123.2960   57.6160 C   0  0  0  0  0  0  0  0  0  0  0  0
  127.9180  122.4990   58.7130 C   0  0  0  0  0  0  0  0  0  0  0  0
  129.0710  122.7760   59.4410 C   0  0  0  0  0  0  0  0  0  0  0  0
  129.8850  123.8550   59.0940 C   0  0  0  0  0  0  0  0  0  0  0  0
  131.0170  124.0500   59.9070 N   0  0  0  0  0  0  0  0  0  0  0  0
  132.3120  124.2230   59.5650 C   0  0  0  0  0  0  0  0  0  0  0  0
  132.7550  124.2150   58.4170 O   0  0  0  0  0  0  0  0  0  0  0  0
  133.2790  124.4410   60.7340 C   0  0  0  0  0  0  0  0  0  0  0  0
  133.6410  122.9160   61.6660 S   0  0  0  0  0  0  0  0  0  0  0  0
  132.1800  121.8850   61.7280 C   0  0  0  0  0  0  0  0  0  0  0  0
  131.0710  122.4670   62.2520 N   0  0  0  0  0  0  0  0  0  0  0  0
  129.9330  121.7430   62.3410 C   0  0  0  0  0  0  0  0  0  0  0  0
  128.7440  122.4530   62.9620 C   0  0  0  0  0  0  0  0  0  0  0  0
  129.8470  120.4220   61.9090 C   0  0  0  0  0  0  0  0  0  0  0  0
  130.9790  119.8030   61.3550 C   0  0  0  0  0  0  0  0  0  0  0  0
  130.8670  118.3420   60.8810 C   0  0  0  0  0  0  0  0  0  0  0  0
  131.7090  117.5720   61.5700 F   0  0  0  0  0  0  0  0  0  0  0  0
  129.6230  117.8970   61.0640 F   0  0  0  0  0  0  0  0  0  0  0  0
  131.1580  118.1970   59.5850 F   0  0  0  0  0  0  0  0  0  0  0  0
  132.1800  120.5510   61.2590 C   0  0  0  0  0  0  0  0  0  0  0  0
  133.3930  119.9530   60.6930 C   0  0  0  0  0  0  0  0  0  0  0  0
  134.3510  119.4800   60.2450 N   0  0  0  0  0  0  0  0  0  0  0  0
  129.5380  124.6520   57.9930 C   0  0  0  0  0  0  0  0  0  0  0  0
  128.3860  124.3710   57.2640 C   0  0  0  0  0  0  0  0  0  0  0  0
  1  2  1  0
  2  3  1  0
  3  4  1  0
  4  5  2  0
  4  6  1  0
  6  7  2  0
  7  8  1  0
  8  9  2  0
  9 10  1  0
 10 11  1  0
 11 12  2  0
 11 13  1  0
 13 14  1  0
 14 15  1  0
 15 16  2  0
 16 17  1  0
 17 18  1  0
 17 19  2  0
 19 20  1  0
 20 21  1  0
 21 22  1  0
 21 23  1  0
 21 24  1  0
 20 25  2  0
 25 26  1  0
 26 27  3  0
  9 28  1  0
 28 29  2  0
 29  6  1  0
 25 15  1  0
M  END
>  <Binding energies>  (16) 
[-7.84]

>  <Ligand effiencies>  (16) 
[-0.2613333333333333]

>  <Interactions>  (16) 
["V-B:ALA:541:CB:9863, V-B:TYR:539:CE2:9847, V-A:ILE:369:CG2:3236, V-B:ASP:366:CB:8182, V-B:MET:535:CE:9806, V-B:PRO:540:CA:9854, V-A:SER:385:CA:3406, V-B:TYR:531:CZ:9765, V-B:TYR:539:CD2:9845, V-B:LEU:363:CA:8155, V-B:TYR:531:CE2:9764, V-B:LEU:363:CD1:8159, V-A:SER:385:CB:3408, V-A:LEU:475:CD2:4258, V-B:TYR:539:C:9838, V-A:ILE:369:CD1:3238, V-A:ASP:366:CG:3212, V-B:ASP:366:CG:8183, V-B:PRO:540:N:9855, V-A:ASP:366:CB:3211, V-B:TYR:539:CG:9843, V-B:TYR:539:CB:9842, V-A:HIS:383:CE1:3393, H-B:TYR:539:N:9841, V-B:TYR:539:CZ:9848, V-B:ALA:541:CA:9861, H-B:TYR:539:OH:9849, H-B:TYR:531:OH:9766, V-A:PRO:482:CB:4325, V-A:PRO:482:CG:4326, H-A:SER:385:N:3407"]

$$$$
2b_Grossjean_2025
     RDKit          3D

 28 29  0  0  0  0  0  0  0  0999 V2000
  124.4780  123.9790   57.9910 C   0  0  0  0  0  0  0  0  0  0  0  0
  125.3950  123.9720   56.9060 O   0  0  0  0  0  0  0  0  0  0  0  0
  126.3430  123.0060   56.7980 C   0  0  0  0  0  0  0  0  0  0  0  0
  126.2080  121.9960   56.1000 O   0  0  0  0  0  0  0  0  0  0  0  0
  127.5710  123.2850   57.6160 C   0  0  0  0  0  0  0  0  0  0  0  0
  127.8960  122.5260   58.7500 C   0  0  0  0  0  0  0  0  0  0  0  0
  129.0410  122.8120   59.4870 C   0  0  0  0  0  0  0  0  0  0  0  0
  129.8850  123.8550   59.1070 C   0  0  0  0  0  0  0  0  0  0  0  0
  131.0110  124.0610   59.9270 N   0  0  0  0  0  0  0  0  0  0  0  0
  132.2930  124.3110   59.5840 C   0  0  0  0  0  0  0  0  0  0  0  0
  132.7220  124.3790   58.4310 O   0  0  0  0  0  0  0  0  0  0  0  0
  133.2580  124.5000   60.7580 C   0  0  0  0  0  0  0  0  0  0  0  0
  133.6570  122.9420   61.6170 S   0  0  0  0  0  0  0  0  0  0  0  0
  132.2010  121.9100   61.7160 C   0  0  0  0  0  0  0  0  0  0  0  0
  131.1020  122.4920   62.2610 N   0  0  0  0  0  0  0  0  0  0  0  0
  129.9660  121.7680   62.3710 C   0  0  0  0  0  0  0  0  0  0  0  0
  128.7880  122.4860   63.0020 C   0  0  0  0  0  0  0  0  0  0  0  0
  129.8720  120.4470   61.9410 C   0  0  0  0  0  0  0  0  0  0  0  0
  130.9930  119.8280   61.3680 C   0  0  0  0  0  0  0  0  0  0  0  0
  130.8710  118.3680   60.8920 C   0  0  0  0  0  0  0  0  0  0  0  0
  129.6250  117.9290   61.0810 F   0  0  0  0  0  0  0  0  0  0  0  0
  131.1670  118.2820   59.5940 F   0  0  0  0  0  0  0  0  0  0  0  0
  131.6910  117.5410   61.5450 F   0  0  0  0  0  0  0  0  0  0  0  0
  132.1940  120.5740   61.2510 C   0  0  0  0  0  0  0  0  0  0  0  0
  133.3970  119.9750   60.6660 C   0  0  0  0  0  0  0  0  0  0  0  0
  134.3470  119.5020   60.2040 N   0  0  0  0  0  0  0  0  0  0  0  0
  129.5630  124.6240   57.9800 C   0  0  0  0  0  0  0  0  0  0  0  0
  128.4170  124.3380   57.2440 C   0  0  0  0  0  0  0  0  0  0  0  0
  1  2  1  0
  2  3  1  0
  3  4  2  0
  3  5  1  0
  5  6  2  0
  6  7  1  0
  7  8  2  0
  8  9  1  0
  9 10  1  0
 10 11  2  0
 10 12  1  0
 12 13  1  0
 13 14  1  0
 14 15  2  0
 15 16  1  0
 16 17  1  0
 16 18  2  0
 18 19  1  0
 19 20  1  0
 20 21  1  0
 20 22  1  0
 20 23  1  0
 19 24  2  0
 24 25  1  0
 25 26  3  0
  8 27  1  0
 27 28  2  0
 28  5  1  0
 24 14  1  0
M  END
>  <Binding energies>  (17) 
[-7.6]

>  <Ligand effiencies>  (17) 
[-0.26206896551724135]

>  <Interactions>  (17) 
["V-B:ALA:541:CB:9863, V-B:TYR:539:CE2:9847, V-A:ILE:369:CG2:3236, V-B:PRO:540:CB:9856, V-B:MET:535:CE:9806, V-B:PRO:540:CA:9854, V-A:SER:385:CA:3406, V-B:TYR:539:CD2:9845, V-B:LEU:363:CD1:8159, V-A:SER:385:CB:3408, V-A:LEU:475:CD2:4258, V-B:TYR:539:C:9838, V-A:ILE:369:CD1:3238, V-A:ASP:366:CG:3212, V-B:PRO:540:N:9855, V-A:ASP:366:CB:3211, V-B:TYR:539:CG:9843, V-B:TYR:539:CB:9842, V-A:HIS:383:CE1:3393, H-B:TYR:539:N:9841, V-B:TYR:539:CZ:9848, V-B:ALA:541:CA:9861, H-B:TYR:539:OH:9849, H-B:TYR:531:OH:9766, V-A:PRO:482:CB:4325, V-A:PRO:482:CG:4326, H-A:SER:385:N:3407"]

$$$$
2c_Grossjean_2025
     RDKit          3D

 26 27  0  0  0  0  0  0  0  0999 V2000
  133.1240  132.2940   62.8940 C   0  0  0  0  0  0  0  0  0  0  0  0
  133.5650  131.7890   61.6380 O   0  0  0  0  0  0  0  0  0  0  0  0
  132.7520  131.9340   60.5310 C   0  0  0  0  0  0  0  0  0  0  0  0
  133.3610  131.7780   59.2860 C   0  0  0  0  0  0  0  0  0  0  0  0
  132.6240  131.9060   58.1120 C   0  0  0  0  0  0  0  0  0  0  0  0
  131.2550  132.2070   58.1750 C   0  0  0  0  0  0  0  0  0  0  0  0
  130.4260  132.3380   57.0460 N   0  0  0  0  0  0  0  0  0  0  0  0
  130.4900  133.2530   56.0550 C   0  0  0  0  0  0  0  0  0  0  0  0
  131.2900  134.1900   56.0170 O   0  0  0  0  0  0  0  0  0  0  0  0
  129.4380  133.0820   54.9480 C   0  0  0  0  0  0  0  0  0  0  0  0
  128.5820  131.4680   54.9200 S   0  0  0  0  0  0  0  0  0  0  0  0
  127.3510  131.4260   56.2160 C   0  0  0  0  0  0  0  0  0  0  0  0
  127.7950  131.7440   57.4600 N   0  0  0  0  0  0  0  0  0  0  0  0
  126.9210  131.7250   58.4900 C   0  0  0  0  0  0  0  0  0  0  0  0
  127.4980  132.0750   59.8480 C   0  0  0  0  0  0  0  0  0  0  0  0
  125.5770  131.3990   58.3290 C   0  0  0  0  0  0  0  0  0  0  0  0
  125.0940  131.0740   57.0530 C   0  0  0  0  0  0  0  0  0  0  0  0
  123.6040  130.7180   56.8900 C   0  0  0  0  0  0  0  0  0  0  0  0
  122.9930  130.7560   58.0760 F   0  0  0  0  0  0  0  0  0  0  0  0
  123.0120  131.5870   56.0700 F   0  0  0  0  0  0  0  0  0  0  0  0
  123.4180  129.4970   56.3830 F   0  0  0  0  0  0  0  0  0  0  0  0
  126.0010  131.0860   55.9630 C   0  0  0  0  0  0  0  0  0  0  0  0
  125.5520  130.7530   54.6070 C   0  0  0  0  0  0  0  0  0  0  0  0
  125.1970  130.4900   53.5370 N   0  0  0  0  0  0  0  0  0  0  0  0
  130.6370  132.3490   59.4180 C   0  0  0  0  0  0  0  0  0  0  0  0
  131.3780  132.2180   60.5890 C   0  0  0  0  0  0  0  0  0  0  0  0
  1  2  1  0
  2  3  1  0
  3  4  2  0
  4  5  1  0
  5  6  2  0
  6  7  1  0
  7  8  1  0
  8  9  2  0
  8 10  1  0
 10 11  1  0
 11 12  1  0
 12 13  2  0
 13 14  1  0
 14 15  1  0
 14 16  2  0
 16 17  1  0
 17 18  1  0
 18 19  1  0
 18 20  1  0
 18 21  1  0
 17 22  2  0
 22 23  1  0
 23 24  3  0
  6 25  1  0
 25 26  2  0
 26  3  1  0
 22 12  1  0
M  END
>  <Binding energies>  (18) 
[-6.46]

>  <Ligand effiencies>  (18) 
[-0.23925925925925925]

>  <Interactions>  (18) 
["V-B:ASP:366:CB:8182, V-B:TYR:531:CZ:9765, H-A:ARG:545:NH2:4927, V-B:ASN:370:CB:8215, V-B:ASP:366:CA:8180, V-B:ASN:370:CA:8213, H-B:LYS:534:NZ:9794, H-A:TYR:539:OH:4877, V-A:TYR:539:CZ:4876, V-B:TYR:531:CE1:9763, V-B:ILE:369:CB:8206, V-B:ILE:369:CG2:8207, V-A:MET:535:CG:4832, V-A:TYR:539:CD1:4872, V-A:TYR:539:CE2:4875, V-A:ILE:538:CA:4859, V-A:TYR:539:CE1:4874, V-A:PRO:540:CA:4882, V-A:PRO:540:CB:4884, V-A:GLU:543:CD:4907, V-A:LEU:363:CA:3184, H-A:TYR:531:OH:4794, H-A:TYR:539:N:4869, V-A:PRO:540:N:4883, V-A:LEU:363:CD1:3188, V-B:ASP:366:C:8178, V-B:TYR:531:CD1:9761, H-A:LEU:363:N:3185, V-A:ALA:541:C:4887, V-A:ASN:362:CB:3175, V-B:ILE:369:C:8202, V-A:ASN:362:CG:3176"]

$$$$
2d_Ghoteimi_2023
     RDKit          3D

 38 42  0  0  0  0  0  0  0  0999 V2000
  134.6880  125.5080   67.3640 C   0  0  0  0  0  0  0  0  0  0  0  0
  133.4680  126.2020   67.5720 O   0  0  0  0  0  0  0  0  0  0  0  0
  132.6150  126.4120   66.5490 C   0  0  0  0  0  0  0  0  0  0  0  0
  132.9350  126.5270   65.3620 O   0  0  0  0  0  0  0  0  0  0  0  0
  131.1610  126.4860   67.0400 C   0  0  0  0  0  0  0  0  0  0  0  0
  130.1120  127.4050   65.8620 S   0  0  0  0  0  0  0  0  0  0  0  0
  130.4060  126.7600   64.2280 C   0  0  0  0  0  0  0  0  0  0  0  0
  130.5100  127.7250   63.2820 N   0  0  0  0  0  0  0  0  0  0  0  0
  130.7270  127.3770   61.9890 C   0  0  0  0  0  0  0  0  0  0  0  0
  130.8130  128.4940   61.0000 C   0  0  0  0  0  0  0  0  0  0  0  0
  131.2740  129.7560   61.3900 C   0  0  0  0  0  0  0  0  0  0  0  0
  131.3570  130.8020   60.4740 C   0  0  0  0  0  0  0  0  0  0  0  0
  130.9900  130.6200   59.1320 C   0  0  0  0  0  0  0  0  0  0  0  0
  131.0500  131.6650   58.2030 N   0  0  0  0  0  0  0  0  0  0  0  0
  129.8910  132.5450   57.9560 C   0  0  0  0  0  0  0  0  0  0  0  0
  130.0110  133.3770   56.6630 C   0  0  0  0  0  0  0  0  0  0  0  0
  131.2180  134.1230   56.6780 O   0  0  0  0  0  0  0  0  0  0  0  0
  132.3530  133.2770   56.7560 C   0  0  0  0  0  0  0  0  0  0  0  0
  132.3000  132.4370   58.0500 C   0  0  0  0  0  0  0  0  0  0  0  0
  130.5150  129.3570   58.7490 C   0  0  0  0  0  0  0  0  0  0  0  0
  130.4310  128.3130   59.6650 C   0  0  0  0  0  0  0  0  0  0  0  0
  130.8510  126.0360   61.6150 C   0  0  0  0  0  0  0  0  0  0  0  0
  130.7810  125.0210   62.5770 C   0  0  0  0  0  0  0  0  0  0  0  0
  130.9500  123.6130   62.1090 C   0  0  0  0  0  0  0  0  0  0  0  0
  129.8340  122.7960   61.9240 C   0  0  0  0  0  0  0  0  0  0  0  0
  129.9790  121.4860   61.4760 C   0  0  0  0  0  0  0  0  0  0  0  0
  131.2500  120.9540   61.2020 C   0  0  0  0  0  0  0  0  0  0  0  0
  131.4190  119.6460   60.7390 N   0  0  0  0  0  0  0  0  0  0  0  0
  130.7500  118.5060   61.3950 C   0  0  0  0  0  0  0  0  0  0  0  0
  130.7600  117.2160   60.5470 C   0  0  0  0  0  0  0  0  0  0  0  0
  132.0910  116.8840   60.1840 O   0  0  0  0  0  0  0  0  0  0  0  0
  132.7010  117.9160   59.4240 C   0  0  0  0  0  0  0  0  0  0  0  0
  132.7430  119.2220   60.2460 C   0  0  0  0  0  0  0  0  0  0  0  0
  132.3640  121.7880   61.3730 C   0  0  0  0  0  0  0  0  0  0  0  0
  132.2170  123.0980   61.8210 C   0  0  0  0  0  0  0  0  0  0  0  0
  130.5570  125.3860   63.9280 C   0  0  0  0  0  0  0  0  0  0  0  0
  130.4960  124.3610   64.9750 C   0  0  0  0  0  0  0  0  0  0  0  0
  130.4480  123.5490   65.7990 N   0  0  0  0  0  0  0  0  0  0  0  0
  1  2  1  0
  2  3  1  0
  3  4  2  0
  3  5  1  0
  5  6  1  0
  6  7  1  0
  7  8  2  0
  8  9  1  0
  9 10  1  0
 10 11  2  0
 11 12  1  0
 12 13  2  0
 13 14  1  0
 14 15  1  0
 15 16  1  0
 16 17  1  0
 17 18  1  0
 18 19  1  0
 13 20  1  0
 20 21  2  0
  9 22  2  0
 22 23  1  0
 23 24  1  0
 24 25  2  0
 25 26  1  0
 26 27  2  0
 27 28  1  0
 28 29  1  0
 29 30  1  0
 30 31  1  0
 31 32  1  0
 32 33  1  0
 27 34  1  0
 34 35  2  0
 23 36  2  0
 36 37  1  0
 37 38  3  0
 36  7  1  0
 21 10  1  0
 35 24  1  0
 19 14  1  0
 33 28  1  0
M  END
>  <Binding energies>  (19) 
[-9.08]

>  <Ligand effiencies>  (19) 
[-0.23894736842105263]

>  <Interactions>  (19) 
["V-B:ALA:541:CB:9863, V-B:TYR:539:CE2:9847, V-A:SER:385:CA:3406, V-B:TYR:539:CD2:9845, H-A:ARG:545:NH2:4927, V-A:GLY:453:C:4041, V-A:ARG:545:CZ:4925, V-A:LEU:475:CD2:4258, H-A:ARG:545:NE:4923, V-A:ASP:366:CG:3212, V-A:HIS:456:CE1:4069, V-A:TYR:539:CD1:4872, V-A:TYR:539:C:4866, V-A:TYR:539:CE1:4874, V-A:PRO:540:CA:4882, V-A:PRO:540:CB:4884, V-B:TYR:539:CB:9842, V-A:HIS:383:CE1:3393, H-A:TYR:484:OH:4347, H-A:TYR:539:N:4869, V-A:PRO:540:N:4883, V-A:PRO:540:CD:4886, V-A:ARG:545:CD:4922, V-A:TYR:531:CE2:4792, V-A:LEU:363:CD1:3188, V-A:ARG:545:CG:4921, V-A:GLY:454:CA:4048, H-A:HIS:383:ND1:3390, V-A:LEU:373:CD2:3280, V-A:ILE:455:C:4051"]

$$$$
2d_Grossjean_2025
     RDKit          3D

 24 25  0  0  0  0  0  0  0  0999 V2000
  124.1540  123.2160   63.0540 C   0  0  0  0  0  0  0  0  0  0  0  0
  124.8290  123.4260   61.7110 C   0  0  0  0  0  0  0  0  0  0  0  0
  124.1010  123.7730   60.5750 C   0  0  0  0  0  0  0  0  0  0  0  0
  124.7720  123.9610   59.3580 C   0  0  0  0  0  0  0  0  0  0  0  0
  123.9510  124.3540   58.1140 C   0  0  0  0  0  0  0  0  0  0  0  0
  124.1480  123.4660   57.1380 F   0  0  0  0  0  0  0  0  0  0  0  0
  122.6520  124.3840   58.4140 F   0  0  0  0  0  0  0  0  0  0  0  0
  124.2810  125.5550   57.6360 F   0  0  0  0  0  0  0  0  0  0  0  0
  126.1780  123.7820   59.3240 C   0  0  0  0  0  0  0  0  0  0  0  0
  126.9310  124.0120   58.0880 C   0  0  0  0  0  0  0  0  0  0  0  0
  127.5250  124.1950   57.1110 N   0  0  0  0  0  0  0  0  0  0  0  0
  126.8300  123.4060   60.5220 C   0  0  0  0  0  0  0  0  0  0  0  0
  128.5840  123.1100   60.6500 S   0  0  0  0  0  0  0  0  0  0  0  0
  128.9810  122.6850   62.3780 C   0  0  0  0  0  0  0  0  0  0  0  0
  130.0030  121.5500   62.4960 C   0  0  0  0  0  0  0  0  0  0  0  0
  130.8480  121.5960   63.3900 O   0  0  0  0  0  0  0  0  0  0  0  0
  129.9080  120.5790   61.5630 N   0  0  0  0  0  0  0  0  0  0  0  0
  130.6870  119.4180   61.4060 C   0  0  0  0  0  0  0  0  0  0  0  0
  132.0020  119.6150   60.9790 C   0  0  0  0  0  0  0  0  0  0  0  0
  132.8490  118.5260   60.7900 C   0  0  0  0  0  0  0  0  0  0  0  0
  132.3760  117.2360   61.0190 C   0  0  0  0  0  0  0  0  0  0  0  0
  131.0630  117.0260   61.4320 C   0  0  0  0  0  0  0  0  0  0  0  0
  130.2140  118.1120   61.6240 C   0  0  0  0  0  0  0  0  0  0  0  0
  126.1700  123.2490   61.6940 N   0  0  0  0  0  0  0  0  0  0  0  0
  1  2  1  0
  2  3  2  0
  3  4  1  0
  4  5  1  0
  5  6  1  0
  5  7  1  0
  5  8  1  0
  4  9  2  0
  9 10  1  0
 10 11  3  0
  9 12  1  0
 12 13  1  0
 13 14  1  0
 14 15  1  0
 15 16  2  0
 15 17  1  0
 17 18  1  0
 18 19  2  0
 19 20  1  0
 20 21  2  0
 21 22  1  0
 22 23  2  0
 12 24  2  0
 24  2  1  0
 23 18  1  0
M  END
>  <Binding energies>  (20) 
[-7.58]

>  <Ligand effiencies>  (20) 
[-0.3032]

>  <Interactions>  (20) 
["V-B:ALA:541:CB:9863, V-B:ASP:366:CB:8182, V-B:PRO:540:CB:9856, H-B:ALA:541:N:9862, V-B:PRO:540:CA:9854, V-A:SER:385:CA:3406, V-B:TYR:531:CZ:9765, V-B:TYR:539:CD2:9845, V-B:LEU:363:CA:8155, V-B:TYR:531:CE2:9764, V-B:LEU:363:CD1:8159, V-A:SER:385:CB:3408, V-A:LEU:475:CD2:4258, V-B:TYR:539:C:9838, V-B:ASP:366:CG:8183, V-B:ARG:545:CZ:9897, V-A:HIS:383:CE1:3393, H-B:TYR:539:O:9839, V-B:ALA:541:C:9859, H-B:TYR:531:OH:9766, V-B:ASN:362:CB:8146, V-A:PRO:482:CB:4325, V-A:THR:477:CG2:4272, V-B:ASN:362:CG:8147, V-A:PRO:482:CG:4326, V-B:LEU:363:C:8153, V-B:LEU:363:CB:8157, V-B:LEU:363:CG:8158"]

$$$$
2e_Grossjean_2025
     RDKit          3D

 25 26  0  0  0  0  0  0  0  0999 V2000
  131.4360  132.2010   61.7190 C   0  0  0  0  0  0  0  0  0  0  0  0
  132.0980  131.8040   60.4130 C   0  0  0  0  0  0  0  0  0  0  0  0
  133.3340  131.1520   60.3880 C   0  0  0  0  0  0  0  0  0  0  0  0
  133.8770  130.8060   59.1500 C   0  0  0  0  0  0  0  0  0  0  0  0
  133.1810  131.1190   57.9790 C   0  0  0  0  0  0  0  0  0  0  0  0
  131.9520  131.7820   58.0760 C   0  0  0  0  0  0  0  0  0  0  0  0
  131.2740  132.0320   56.8710 N   0  0  0  0  0  0  0  0  0  0  0  0
  130.5120  133.1010   56.5500 C   0  0  0  0  0  0  0  0  0  0  0  0
  130.3460  134.0910   57.2650 O   0  0  0  0  0  0  0  0  0  0  0  0
  129.7800  133.0190   55.2070 C   0  0  0  0  0  0  0  0  0  0  0  0
  128.8880  131.4430   55.0100 S   0  0  0  0  0  0  0  0  0  0  0  0
  127.6320  131.4470   56.2700 C   0  0  0  0  0  0  0  0  0  0  0  0
  128.0800  131.7500   57.5140 N   0  0  0  0  0  0  0  0  0  0  0  0
  127.1990  131.7320   58.5400 C   0  0  0  0  0  0  0  0  0  0  0  0
  127.7670  132.0800   59.9020 C   0  0  0  0  0  0  0  0  0  0  0  0
  125.8540  131.4090   58.3710 C   0  0  0  0  0  0  0  0  0  0  0  0
  125.3770  131.0850   57.0920 C   0  0  0  0  0  0  0  0  0  0  0  0
  123.8920  130.7090   56.9250 C   0  0  0  0  0  0  0  0  0  0  0  0
  123.2630  130.7950   58.0980 F   0  0  0  0  0  0  0  0  0  0  0  0
  123.3080  131.5370   56.0590 F   0  0  0  0  0  0  0  0  0  0  0  0
  123.7230  129.4660   56.4700 F   0  0  0  0  0  0  0  0  0  0  0  0
  126.2860  131.1040   56.0060 C   0  0  0  0  0  0  0  0  0  0  0  0
  125.8560  130.7460   54.6510 C   0  0  0  0  0  0  0  0  0  0  0  0
  125.5160  130.4630   53.5810 N   0  0  0  0  0  0  0  0  0  0  0  0
  131.4110  132.1150   59.2850 N   0  0  0  0  0  0  0  0  0  0  0  0
  1  2  1  0
  2  3  2  0
  3  4  1  0
  4  5  2  0
  5  6  1  0
  6  7  1  0
  7  8  1  0
  8  9  2  0
  8 10  1  0
 10 11  1  0
 11 12  1  0
 12 13  2  0
 13 14  1  0
 14 15  1  0
 14 16  2  0
 16 17  1  0
 17 18  1  0
 18 19  1  0
 18 20  1  0
 18 21  1  0
 17 22  2  0
 22 23  1  0
 23 24  3  0
  6 25  2  0
 25  2  1  0
 22 12  1  0
M  END
>  <Binding energies>  (21) 
[-7.53]

>  <Ligand effiencies>  (21) 
[-0.2896153846153846]

>  <Interactions>  (21) 
["V-B:ASP:366:CB:8182, V-B:TYR:531:CZ:9765, V-A:ASP:366:CG:3212, V-B:ASN:370:CB:8215, V-B:ASP:366:CA:8180, V-B:ASN:370:CA:8213, H-B:LYS:534:NZ:9794, H-A:TYR:539:OH:4877, V-A:TYR:539:CZ:4876, V-B:TYR:531:CE1:9763, V-B:ILE:369:CB:8206, V-B:ILE:369:CG2:8207, V-A:TYR:539:CD1:4872, V-A:ILE:538:CA:4859, V-A:TYR:539:CE1:4874, V-A:PRO:540:CA:4882, V-A:PRO:540:CB:4884, V-A:ASN:362:C:3171, V-A:ASP:366:CB:3211, V-A:LEU:363:CA:3184, V-A:TYR:531:CZ:4793, H-A:TYR:531:OH:4794, H-A:TYR:539:N:4869, V-A:TYR:531:CE2:4792, V-A:LEU:363:CD1:3188, V-B:ASP:366:C:8178, V-B:TYR:531:CD1:9761, V-A:PRO:540:C:4880, V-B:ILE:369:C:8202"]

$$$$
2f_Grossjean_2025
     RDKit          3D

 24 25  0  0  0  0  0  0  0  0999 V2000
  133.4060  123.9590   60.4780 C   0  0  0  0  0  0  0  0  0  0  0  0
  132.6630  122.6690   60.7710 C   0  0  0  0  0  0  0  0  0  0  0  0
  133.1400  121.4360   60.3320 C   0  0  0  0  0  0  0  0  0  0  0  0
  132.4130  120.2720   60.6210 C   0  0  0  0  0  0  0  0  0  0  0  0
  132.9510  118.9190   60.1150 C   0  0  0  0  0  0  0  0  0  0  0  0
  134.1410  119.0870   59.5360 F   0  0  0  0  0  0  0  0  0  0  0  0
  133.0830  118.0720   61.1370 F   0  0  0  0  0  0  0  0  0  0  0  0
  132.1470  118.3450   59.2180 F   0  0  0  0  0  0  0  0  0  0  0  0
  131.2100  120.3900   61.3630 C   0  0  0  0  0  0  0  0  0  0  0  0
  130.3860  119.2110   61.6410 C   0  0  0  0  0  0  0  0  0  0  0  0
  129.7360  118.2790   61.8610 N   0  0  0  0  0  0  0  0  0  0  0  0
  130.8160  121.6810   61.7910 C   0  0  0  0  0  0  0  0  0  0  0  0
  129.3450  122.0140   62.7390 S   0  0  0  0  0  0  0  0  0  0  0  0
  128.5310  123.4830   62.0240 C   0  0  0  0  0  0  0  0  0  0  0  0
  127.4320  123.1820   60.9950 C   0  0  0  0  0  0  0  0  0  0  0  0
  126.2830  122.9280   61.3590 O   0  0  0  0  0  0  0  0  0  0  0  0
  127.8470  123.2060   59.7100 N   0  0  0  0  0  0  0  0  0  0  0  0
  127.1120  122.9900   58.5290 C   0  0  0  0  0  0  0  0  0  0  0  0
  125.7660  123.3460   58.3270 C   0  0  0  0  0  0  0  0  0  0  0  0
  125.1560  123.0780   57.1000 C   0  0  0  0  0  0  0  0  0  0  0  0
  125.9100  122.4620   56.1010 C   0  0  0  0  0  0  0  0  0  0  0  0
  127.2110  122.1160   56.2670 N   0  0  0  0  0  0  0  0  0  0  0  0
  127.7900  122.3840   57.4650 C   0  0  0  0  0  0  0  0  0  0  0  0
  131.5200  122.7970   61.4820 N   0  0  0  0  0  0  0  0  0  0  0  0
  1  2  1  0
  2  3  2  0
  3  4  1  0
  4  5  1  0
  5  6  1  0
  5  7  1  0
  5  8  1  0
  4  9  2  0
  9 10  1  0
 10 11  3  0
  9 12  1  0
 12 13  1  0
 13 14  1  0
 14 15  1  0
 15 16  2  0
 15 17  1  0
 17 18  1  0
 18 19  2  0
 19 20  1  0
 20 21  2  0
 21 22  1  0
 22 23  2  0
 12 24  2  0
 24  2  1  0
 23 18  1  0
M  END
>  <Binding energies>  (22) 
[-7.37]

>  <Ligand effiencies>  (22) 
[-0.2948]

>  <Interactions>  (22) 
["V-B:ALA:541:CB:9863, V-B:TYR:539:CE2:9847, V-A:ILE:369:CG2:3236, V-B:PRO:540:CB:9856, H-B:ALA:541:N:9862, V-B:MET:535:CE:9806, V-B:PRO:540:CA:9854, V-A:SER:385:CA:3406, V-B:TYR:539:CD2:9845, V-B:TYR:531:CE2:9764, V-B:LEU:363:CD1:8159, V-A:SER:385:CB:3408, V-A:LEU:475:CD2:4258, V-B:TYR:539:C:9838, V-A:ILE:369:CD1:3238, V-A:ASP:366:CG:3212, V-B:PRO:540:N:9855, V-B:PRO:540:CD:9858, V-B:TYR:539:CG:9843, V-B:TYR:539:CB:9842, H-B:TYR:539:N:9841, V-B:TYR:539:CZ:9848, V-B:TYR:539:CE1:9846, V-B:TYR:539:CD1:9844, V-B:ILE:538:CA:9831, V-B:TYR:539:CA:9840, V-A:VAL:384:C:3396, V-A:LEU:373:CD2:3280"]

$$$$
2g_Grossjean_2025
     RDKit          3D

 25 26  0  0  0  0  0  0  0  0999 V2000
  127.3270  131.7440   60.0360 C   0  0  0  0  0  0  0  0  0  0  0  0
  126.8840  131.4880   58.6090 C   0  0  0  0  0  0  0  0  0  0  0  0
  125.5390  131.5080   58.2470 C   0  0  0  0  0  0  0  0  0  0  0  0
  125.1800  131.2560   56.9140 C   0  0  0  0  0  0  0  0  0  0  0  0
  123.6860  131.2740   56.5340 C   0  0  0  0  0  0  0  0  0  0  0  0
  122.9310  131.3490   57.6320 F   0  0  0  0  0  0  0  0  0  0  0  0
  123.4290  132.3290   55.7600 F   0  0  0  0  0  0  0  0  0  0  0  0
  123.3100  130.1820   55.8660 F   0  0  0  0  0  0  0  0  0  0  0  0
  126.2080  130.9970   55.9710 C   0  0  0  0  0  0  0  0  0  0  0  0
  125.8830  130.6720   54.5790 C   0  0  0  0  0  0  0  0  0  0  0  0
  125.6260  130.4170   53.4810 N   0  0  0  0  0  0  0  0  0  0  0  0
  127.5490  131.0270   56.4240 C   0  0  0  0  0  0  0  0  0  0  0  0
  128.9580  130.7490   55.3730 S   0  0  0  0  0  0  0  0  0  0  0  0
  129.6250  132.3830   54.9060 C   0  0  0  0  0  0  0  0  0  0  0  0
  130.5180  133.0390   55.9680 C   0  0  0  0  0  0  0  0  0  0  0  0
  130.2220  134.1220   56.4770 O   0  0  0  0  0  0  0  0  0  0  0  0
  131.6310  132.3550   56.2900 N   0  0  0  0  0  0  0  0  0  0  0  0
  132.6290  132.7710   57.2770 C   0  0  0  0  0  0  0  0  0  0  0  0
  132.4030  132.2060   58.6750 C   0  0  0  0  0  0  0  0  0  0  0  0
  133.4780  131.6710   59.3910 C   0  0  0  0  0  0  0  0  0  0  0  0
  133.2820  131.1890   60.6840 C   0  0  0  0  0  0  0  0  0  0  0  0
  132.0150  131.2540   61.2590 C   0  0  0  0  0  0  0  0  0  0  0  0
  130.9430  131.7980   60.5550 C   0  0  0  0  0  0  0  0  0  0  0  0
  131.1380  132.2800   59.2640 C   0  0  0  0  0  0  0  0  0  0  0  0
  127.8760  131.2490   57.7210 N   0  0  0  0  0  0  0  0  0  0  0  0
  1  2  1  0
  2  3  2  0
  3  4  1  0
  4  5  1  0
  5  6  1  0
  5  7  1  0
  5  8  1  0
  4  9  2  0
  9 10  1  0
 10 11  3  0
  9 12  1  0
 12 13  1  0
 13 14  1  0
 14 15  1  0
 15 16  2  0
 15 17  1  0
 17 18  1  0
 18 19  1  0
 19 20  2  0
 20 21  1  0
 21 22  2  0
 22 23  1  0
 23 24  2  0
 12 25  2  0
 25  2  1  0
 24 19  1  0
M  END
>  <Binding energies>  (23) 
[-7.53]

>  <Ligand effiencies>  (23) 
[-0.2896153846153846]

>  <Interactions>  (23) 
["V-B:ASN:370:CB:8215, V-B:ASP:366:CA:8180, V-B:ASN:370:CA:8213, H-B:LYS:534:NZ:9794, H-A:TYR:539:OH:4877, V-A:TYR:539:CZ:4876, V-B:TYR:531:CE1:9763, V-B:ILE:369:CB:8206, V-B:ILE:369:CG2:8207, V-A:MET:535:CG:4832, V-A:TYR:539:CE1:4874, V-A:PRO:540:CA:4882, V-A:PRO:540:CB:4884, V-A:ASN:362:C:3171, V-A:LEU:363:CA:3184, V-A:TYR:531:CZ:4793, H-A:TYR:531:OH:4794, H-A:TYR:539:N:4869, V-A:PRO:540:N:4883, V-A:TYR:531:CE2:4792, V-A:LEU:363:CD1:3188, V-B:ASP:366:C:8178, V-B:TYR:531:CD1:9761, V-A:ASN:362:CB:3175, V-B:ILE:369:C:8202, V-B:ILE:369:CA:8204"]

$$$$
2h_Grossjean_2025
     RDKit          3D

 31 32  0  0  0  0  0  0  0  0999 V2000
  132.0890  134.1260   56.3860 C   0  0  0  0  0  0  0  0  0  0  0  0
  130.7660  133.8750   56.8450 O   0  0  0  0  0  0  0  0  0  0  0  0
  130.1940  132.6340   56.6230 C   0  0  0  0  0  0  0  0  0  0  0  0
  129.5420  132.2740   55.4330 C   0  0  0  0  0  0  0  0  0  0  0  0
  128.9980  131.0010   55.2800 C   0  0  0  0  0  0  0  0  0  0  0  0
  129.0910  130.0620   56.3080 C   0  0  0  0  0  0  0  0  0  0  0  0
  128.5030  128.6660   56.1090 C   0  0  0  0  0  0  0  0  0  0  0  0
  129.0280  127.6690   57.0430 N   0  0  0  0  0  0  0  0  0  0  0  0
  130.0640  126.8500   56.7940 C   0  0  0  0  0  0  0  0  0  0  0  0
  130.6370  126.7970   55.7040 O   0  0  0  0  0  0  0  0  0  0  0  0
  130.5110  125.9700   57.9700 C   0  0  0  0  0  0  0  0  0  0  0  0
  129.4690  124.5050   58.2770 S   0  0  0  0  0  0  0  0  0  0  0  0
  127.7890  125.0830   58.3890 C   0  0  0  0  0  0  0  0  0  0  0  0
  127.6650  126.2810   59.0100 N   0  0  0  0  0  0  0  0  0  0  0  0
  126.4290  126.8050   59.1670 C   0  0  0  0  0  0  0  0  0  0  0  0
  126.3660  128.1440   59.8770 C   0  0  0  0  0  0  0  0  0  0  0  0
  125.2780  126.1670   58.7090 C   0  0  0  0  0  0  0  0  0  0  0  0
  125.3890  124.9360   58.0450 C   0  0  0  0  0  0  0  0  0  0  0  0
  124.1050  124.2490   57.5390 C   0  0  0  0  0  0  0  0  0  0  0  0
  123.6800  123.3610   58.4380 F   0  0  0  0  0  0  0  0  0  0  0  0
  123.1080  125.1110   57.3260 F   0  0  0  0  0  0  0  0  0  0  0  0
  124.3450  123.6200   56.3880 F   0  0  0  0  0  0  0  0  0  0  0  0
  126.6800  124.3760   57.8670 C   0  0  0  0  0  0  0  0  0  0  0  0
  126.8540  123.1230   57.1290 C   0  0  0  0  0  0  0  0  0  0  0  0
  126.9900  122.1340   56.5430 N   0  0  0  0  0  0  0  0  0  0  0  0
  129.7180  130.4160   57.5120 C   0  0  0  0  0  0  0  0  0  0  0  0
  129.8110  129.4980   58.5300 O   0  0  0  0  0  0  0  0  0  0  0  0
  131.1420  129.1310   58.8700 C   0  0  0  0  0  0  0  0  0  0  0  0
  130.2840  131.6940   57.6570 C   0  0  0  0  0  0  0  0  0  0  0  0
  130.9160  132.0380   58.8280 O   0  0  0  0  0  0  0  0  0  0  0  0
  132.3350  132.0190   58.7510 C   0  0  0  0  0  0  0  0  0  0  0  0
  1  2  1  0
  2  3  1  0
  3  4  2  0
  4  5  1  0
  5  6  2  0
  6  7  1  0
  7  8  1  0
  8  9  1  0
  9 10  2  0
  9 11  1  0
 11 12  1  0
 12 13  1  0
 13 14  2  0
 14 15  1  0
 15 16  1  0
 15 17  2  0
 17 18  1  0
 18 19  1  0
 19 20  1  0
 19 21  1  0
 19 22  1  0
 18 23  2  0
 23 24  1  0
 24 25  3  0
  6 26  1  0
 26 27  1  0
 27 28  1  0
 26 29  2  0
 29 30  1  0
 30 31  1  0
 29  3  1  0
 23 13  1  0
M  END
>  <Binding energies>  (24) 
[-6.49]

>  <Ligand effiencies>  (24) 
[-0.2028125]

>  <Interactions>  (24) 
["V-B:ASP:366:CB:8182, V-B:PRO:540:CB:9856, V-B:MET:535:CE:9806, V-B:PRO:540:CA:9854, V-B:TYR:531:CZ:9765, V-B:LEU:363:CA:8155, V-B:TYR:531:CE2:9764, V-B:LEU:363:CD1:8159, V-B:ASP:366:CG:8183, V-A:MET:535:CE:4834, V-A:MET:535:CG:4832, V-A:ILE:538:CG2:4862, V-A:ILE:538:CB:4861, V-B:PRO:540:CG:9857, V-A:ILE:538:CA:4859, V-A:TYR:539:C:4866, V-A:ILE:538:C:4857, V-A:PRO:540:CA:4882, V-A:PRO:540:CB:4884, H-B:TYR:539:N:9841, H-A:TYR:531:OH:4794, H-A:TYR:539:N:4869, H-B:TYR:539:OH:9849, V-A:PRO:540:N:4883, V-A:PRO:540:CD:4886, V-A:LEU:363:CD1:3188, V-B:TYR:531:CD2:9762, V-B:LEU:363:CB:8157, V-B:LEU:363:CG:8158"]

$$$$
2i_Grossjean_2025
     RDKit          3D

 23 24  0  0  0  0  0  0  0  0999 V2000
  123.7310  132.0080   60.2690 C   0  0  0  0  0  0  0  0  0  0  0  0
  124.5810  133.2470   60.4830 C   0  0  0  0  0  0  0  0  0  0  0  0
  125.6450  133.2560   61.3810 C   0  0  0  0  0  0  0  0  0  0  0  0
  126.4020  134.4250   61.5410 C   0  0  0  0  0  0  0  0  0  0  0  0
  127.5750  134.4180   62.5390 C   0  0  0  0  0  0  0  0  0  0  0  0
  127.4840  135.4670   63.3590 F   0  0  0  0  0  0  0  0  0  0  0  0
  127.5530  133.2990   63.2650 F   0  0  0  0  0  0  0  0  0  0  0  0
  128.7660  134.4810   61.9380 F   0  0  0  0  0  0  0  0  0  0  0  0
  126.0540  135.5680   60.7760 C   0  0  0  0  0  0  0  0  0  0  0  0
  126.8130  136.8160   60.9030 C   0  0  0  0  0  0  0  0  0  0  0  0
  127.4110  137.8020   61.0030 N   0  0  0  0  0  0  0  0  0  0  0  0
  124.9570  135.4710   59.8890 C   0  0  0  0  0  0  0  0  0  0  0  0
  124.4220  136.8460   58.8820 S   0  0  0  0  0  0  0  0  0  0  0  0
  123.5570  136.1780   57.4290 C   0  0  0  0  0  0  0  0  0  0  0  0
  123.0730  137.2810   56.4850 C   0  0  0  0  0  0  0  0  0  0  0  0
  123.7020  137.5000   55.4480 O   0  0  0  0  0  0  0  0  0  0  0  0
  121.9810  137.9640   56.8890 N   0  0  0  0  0  0  0  0  0  0  0  0
  121.3660  139.0110   56.2220 C   0  0  0  0  0  0  0  0  0  0  0  0
  121.5100  139.4460   54.8970 C   0  0  0  0  0  0  0  0  0  0  0  0
  120.6570  140.5200   54.7870 C   0  0  0  0  0  0  0  0  0  0  0  0
  120.0320  140.7130   55.9730 O   0  0  0  0  0  0  0  0  0  0  0  0
  120.4880  139.7450   56.8700 N   0  0  0  0  0  0  0  0  0  0  0  0
  124.2370  134.3280   59.7480 N   0  0  0  0  0  0  0  0  0  0  0  0
  1  2  1  0
  2  3  2  0
  3  4  1  0
  4  5  1  0
  5  6  1  0
  5  7  1  0
  5  8  1  0
  4  9  2  0
  9 10  1  0
 10 11  3  0
  9 12  1  0
 12 13  1  0
 13 14  1  0
 14 15  1  0
 15 16  2  0
 15 17  1  0
 17 18  1  0
 18 19  1  0
 19 20  2  0
 20 21  1  0
 21 22  1  0
 12 23  2  0
 23  2  1  0
 22 18  2  0
M  END
>  <Binding energies>  (25) 
[-7.73]

>  <Ligand effiencies>  (25) 
[-0.32208333333333333]

>  <Interactions>  (25) 
["V-B:ILE:369:CG1:8208, V-A:TYR:539:CZ:4876, V-B:ILE:369:CB:8206, V-B:ILE:369:CG2:8207, V-A:TYR:539:CG:4871, V-B:SER:385:CB:8379, V-A:TYR:539:CD1:4872, V-A:TYR:539:CE2:4875, V-A:TYR:539:C:4866, V-A:TYR:539:CE1:4874, V-B:LEU:475:CD1:9228, V-A:PRO:540:CA:4882, V-A:TYR:539:CB:4870, V-A:ALA:541:CB:4891, V-A:PRO:540:C:4880, V-A:ALA:541:CA:4889, H-B:SER:385:OG:8380, H-B:HIS:383:NE2:8364, V-B:LEU:373:CD2:8251, V-B:MET:379:CA:8309, V-B:ASN:372:C:8233, V-B:HIS:383:CB:8359, V-B:LEU:373:CG:8249, V-B:MET:379:CB:8311, V-B:ASN:372:CB:8237, H-B:VAL:384:O:8368, V-B:VAL:384:C:8367, H-B:VAL:384:N:8370"]

$$$$
2k_Grossjean_2025
     RDKit          3D

 28 28  0  0  0  0  0  0  0  0999 V2000
  132.1010  125.0180   59.2510 C   0  0  0  0  0  0  0  0  0  0  0  0
  132.7700  124.7680   58.0250 O   0  0  0  0  0  0  0  0  0  0  0  0
  132.7650  125.8820   57.1400 C   0  0  0  0  0  0  0  0  0  0  0  0
  131.6200  126.8320   57.5110 C   0  0  0  0  0  0  0  0  0  0  0  0
  130.7750  127.0010   56.3810 O   0  0  0  0  0  0  0  0  0  0  0  0
  129.4390  127.3710   56.7010 C   0  0  0  0  0  0  0  0  0  0  0  0
  129.4830  128.5900   57.6320 C   0  0  0  0  0  0  0  0  0  0  0  0
  129.0680  129.7230   56.8850 O   0  0  0  0  0  0  0  0  0  0  0  0
  127.8860  129.5410   56.1200 C   0  0  0  0  0  0  0  0  0  0  0  0
  127.5890  130.8380   55.3440 C   0  0  0  0  0  0  0  0  0  0  0  0
  128.6400  131.8470   55.4930 N   0  0  0  0  0  0  0  0  0  0  0  0
  128.9000  132.8430   54.6240 C   0  0  0  0  0  0  0  0  0  0  0  0
  128.2460  133.0340   53.5970 O   0  0  0  0  0  0  0  0  0  0  0  0
  130.0970  133.7390   54.9750 C   0  0  0  0  0  0  0  0  0  0  0  0
  131.5420  132.8730   55.6810 S   0  0  0  0  0  0  0  0  0  0  0  0
  131.2550  132.5550   57.4170 C   0  0  0  0  0  0  0  0  0  0  0  0
  130.0570  132.9730   57.9020 N   0  0  0  0  0  0  0  0  0  0  0  0
  129.7750  132.7690   59.2080 C   0  0  0  0  0  0  0  0  0  0  0  0
  128.4240  133.2750   59.6750 C   0  0  0  0  0  0  0  0  0  0  0  0
  130.6570  132.1350   60.0770 C   0  0  0  0  0  0  0  0  0  0  0  0
  131.8970  131.6870   59.5960 C   0  0  0  0  0  0  0  0  0  0  0  0
  132.8600  130.9820   60.5710 C   0  0  0  0  0  0  0  0  0  0  0  0
  133.5870  130.0320   59.9820 F   0  0  0  0  0  0  0  0  0  0  0  0
  133.7080  131.8690   61.0960 F   0  0  0  0  0  0  0  0  0  0  0  0
  132.1710  130.4070   61.5580 F   0  0  0  0  0  0  0  0  0  0  0  0
  132.2110  131.9010   58.2300 C   0  0  0  0  0  0  0  0  0  0  0  0
  133.4930  131.4570   57.6740 C   0  0  0  0  0  0  0  0  0  0  0  0
  134.5050  131.1050   57.2360 N   0  0  0  0  0  0  0  0  0  0  0  0
  1  2  1  0
  2  3  1  0
  3  4  1  0
  4  5  1  0
  5  6  1  0
  6  7  1  0
  7  8  1  0
  8  9  1  0
  9 10  1  0
 10 11  1  0
 11 12  1  0
 12 13  2  0
 12 14  1  0
 14 15  1  0
 15 16  1  0
 16 17  2  0
 17 18  1  0
 18 19  1  0
 18 20  2  0
 20 21  1  0
 21 22  1  0
 22 23  1  0
 22 24  1  0
 22 25  1  0
 21 26  2  0
 26 27  1  0
 27 28  3  0
 26 16  1  0
M  END
>  <Binding energies>  (26) 
[-5.88]

>  <Ligand effiencies>  (26) 
[-0.20275862068965517]

>  <Interactions>  (26) 
["V-B:TYR:539:CE2:9847, V-B:MET:535:CE:9806, V-A:ASP:366:CG:3212, V-A:MET:535:CE:4834, H-A:TYR:539:OH:4877, V-A:TYR:539:CZ:4876, V-A:MET:535:CG:4832, V-A:ILE:538:CG2:4862, V-A:TYR:539:CD1:4872, V-A:ILE:538:CB:4861, V-A:TYR:539:CE2:4875, V-A:ILE:538:CA:4859, V-A:TYR:539:C:4866, V-A:ILE:538:C:4857, V-A:TYR:539:CE1:4874, V-A:PRO:540:CA:4882, V-A:PRO:540:CB:4884, V-A:ASN:362:C:3171, V-A:ASP:366:CB:3211, V-A:LEU:363:CA:3184, V-A:ASP:366:C:3207, V-A:TYR:531:CZ:4793, V-A:TYR:531:CE1:4791, V-A:ASP:366:CA:3209, H-A:TYR:531:OH:4794, H-B:TYR:539:OH:9849, V-A:PRO:540:N:4883, V-A:TYR:531:CE2:4792, V-A:LEU:363:CD1:3188, V-A:ASN:362:CB:3175, V-A:ASN:370:CB:3244, V-A:ASN:362:CA:3173"]

$$$$
3aa_Grossjean_2025
     RDKit          3D

 34 36  0  0  0  0  0  0  0  0999 V2000
  123.9820  124.9690   57.6380 C   0  0  0  0  0  0  0  0  0  0  0  0
  124.4690  123.6140   57.1170 C   0  0  0  0  0  0  0  0  0  0  0  0
  125.8110  123.7360   56.6590 O   0  0  0  0  0  0  0  0  0  0  0  0
  126.7470  122.8090   56.9860 C   0  0  0  0  0  0  0  0  0  0  0  0
  127.0900  121.8920   56.2330 O   0  0  0  0  0  0  0  0  0  0  0  0
  127.3160  123.0000   58.3640 C   0  0  0  0  0  0  0  0  0  0  0  0
  126.5780  123.5990   59.3950 C   0  0  0  0  0  0  0  0  0  0  0  0
  127.1340  123.7560   60.6620 C   0  0  0  0  0  0  0  0  0  0  0  0
  128.4310  123.3130   60.9260 C   0  0  0  0  0  0  0  0  0  0  0  0
  128.8960  123.5170   62.2400 N   0  0  0  0  0  0  0  0  0  0  0  0
  128.2920  123.2480   63.4190 C   0  0  0  0  0  0  0  0  0  0  0  0
  127.1620  122.7760   63.5500 O   0  0  0  0  0  0  0  0  0  0  0  0
  129.1050  123.5850   64.6680 C   0  0  0  0  0  0  0  0  0  0  0  0
  130.5370  122.4790   64.8600 S   0  0  0  0  0  0  0  0  0  0  0  0
  131.2820  122.3080   63.2540 C   0  0  0  0  0  0  0  0  0  0  0  0
  131.1040  121.0840   62.7010 N   0  0  0  0  0  0  0  0  0  0  0  0
  131.6250  120.8180   61.4750 C   0  0  0  0  0  0  0  0  0  0  0  0
  131.3730  119.4460   60.9250 C   0  0  0  0  0  0  0  0  0  0  0  0
  130.2720  118.6930   61.3600 C   0  0  0  0  0  0  0  0  0  0  0  0
  130.0310  117.4180   60.8530 C   0  0  0  0  0  0  0  0  0  0  0  0
  130.8910  116.8800   59.9020 C   0  0  0  0  0  0  0  0  0  0  0  0
  131.9880  117.6070   59.4530 C   0  0  0  0  0  0  0  0  0  0  0  0
  132.2250  118.8820   59.9590 C   0  0  0  0  0  0  0  0  0  0  0  0
  132.3360  121.7930   60.7690 C   0  0  0  0  0  0  0  0  0  0  0  0
  132.5480  123.0630   61.3290 C   0  0  0  0  0  0  0  0  0  0  0  0
  133.3460  124.1060   60.5250 C   0  0  0  0  0  0  0  0  0  0  0  0
  132.5940  125.1290   60.1140 F   0  0  0  0  0  0  0  0  0  0  0  0
  134.3290  124.6090   61.2730 F   0  0  0  0  0  0  0  0  0  0  0  0
  133.8770  123.5360   59.4420 F   0  0  0  0  0  0  0  0  0  0  0  0
  132.0170  123.3300   62.6150 C   0  0  0  0  0  0  0  0  0  0  0  0
  132.2560  124.6180   63.2730 C   0  0  0  0  0  0  0  0  0  0  0  0
  132.4450  125.6350   63.7930 N   0  0  0  0  0  0  0  0  0  0  0  0
  129.1800  122.7250   59.8950 C   0  0  0  0  0  0  0  0  0  0  0  0
  128.6230  122.5710   58.6290 C   0  0  0  0  0  0  0  0  0  0  0  0
  1  2  1  0
  2  3  1  0
  3  4  1  0
  4  5  2  0
  4  6  1  0
  6  7  2  0
  7  8  1  0
  8  9  2  0
  9 10  1  0
 10 11  1  0
 11 12  2  0
 11 13  1  0
 13 14  1  0
 14 15  1  0
 15 16  2  0
 16 17  1  0
 17 18  1  0
 18 19  2  0
 19 20  1  0
 20 21  2  0
 21 22  1  0
 22 23  2  0
 17 24  2  0
 24 25  1  0
 25 26  1  0
 26 27  1  0
 26 28  1  0
 26 29  1  0
 25 30  2  0
 30 31  1  0
 31 32  3  0
  9 33  1  0
 33 34  2  0
 34  6  1  0
 30 15  1  0
 23 18  1  0
M  END
>  <Binding energies>  (27) 
[-8.95]

>  <Ligand effiencies>  (27) 
[-0.25571428571428567]

>  <Interactions>  (27) 
["V-B:ALA:541:CB:9863, V-B:TYR:539:CE2:9847, V-A:ILE:369:CG2:3236, V-B:ASP:366:CB:8182, V-B:PRO:540:CB:9856, H-B:ALA:541:N:9862, V-B:MET:535:CE:9806, V-B:PRO:540:CA:9854, V-B:TYR:531:CZ:9765, V-B:TYR:539:CD2:9845, H-A:ARG:545:NH2:4927, V-B:TYR:531:CE2:9764, V-B:LEU:363:CD1:8159, V-A:LEU:475:CD2:4258, V-B:TYR:539:C:9838, V-A:ILE:369:CD1:3238, V-A:ASP:366:CG:3212, V-B:PRO:540:N:9855, V-B:GLU:543:CD:9879, V-A:ASP:366:CB:3211, V-B:TYR:539:CG:9843, V-B:TYR:539:CB:9842, V-A:HIS:383:CE1:3393, H-B:TYR:539:N:9841, V-B:TYR:539:CZ:9848, V-A:ASP:366:CA:3209, V-A:ILE:369:CB:3235, H-A:TYR:484:OH:4347, V-B:GLU:543:CG:9878, H-B:TYR:531:OH:9766, V-A:PRO:482:CB:4325, V-A:PRO:482:CG:4326, V-B:VAL:344:CG1:7971, V-A:ILE:369:CG1:3237"]

$$$$
3ad_Grossjean_2025
     RDKit          3D

 29 31  0  0  0  0  0  0  0  0999 V2000
  125.7060  130.6150   53.5490 N   0  0  0  0  0  0  0  0  0  0  0  0
  126.0800  130.8220   54.6250 C   0  0  0  0  0  0  0  0  0  0  0  0
  126.5500  131.0830   55.9890 C   0  0  0  0  0  0  0  0  0  0  0  0
  125.6490  131.0640   57.0810 C   0  0  0  0  0  0  0  0  0  0  0  0
  124.1530  130.7300   56.9210 C   0  0  0  0  0  0  0  0  0  0  0  0
  123.4780  130.8130   58.0690 F   0  0  0  0  0  0  0  0  0  0  0  0
  123.5880  131.5780   56.0590 F   0  0  0  0  0  0  0  0  0  0  0  0
  124.0070  129.4860   56.4620 F   0  0  0  0  0  0  0  0  0  0  0  0
  126.1400  131.3660   58.3600 C   0  0  0  0  0  0  0  0  0  0  0  0
  127.4910  131.6810   58.5430 C   0  0  0  0  0  0  0  0  0  0  0  0
  128.0660  132.0260   59.8850 C   0  0  0  0  0  0  0  0  0  0  0  0
  128.1110  133.3590   60.3240 C   0  0  0  0  0  0  0  0  0  0  0  0
  128.6420  133.6860   61.5680 C   0  0  0  0  0  0  0  0  0  0  0  0
  129.1360  132.6800   62.3940 C   0  0  0  0  0  0  0  0  0  0  0  0
  129.1010  131.3530   61.9830 C   0  0  0  0  0  0  0  0  0  0  0  0
  128.5680  131.0290   60.7380 C   0  0  0  0  0  0  0  0  0  0  0  0
  128.3490  131.7040   57.4920 N   0  0  0  0  0  0  0  0  0  0  0  0
  127.9020  131.3960   56.2510 C   0  0  0  0  0  0  0  0  0  0  0  0
  129.1650  131.4640   55.0000 S   0  0  0  0  0  0  0  0  0  0  0  0
  129.9860  133.0790   55.1500 C   0  0  0  0  0  0  0  0  0  0  0  0
  130.8870  133.1570   56.3850 C   0  0  0  0  0  0  0  0  0  0  0  0
  131.2800  134.2590   56.7710 O   0  0  0  0  0  0  0  0  0  0  0  0
  131.1820  131.9730   56.9630 N   0  0  0  0  0  0  0  0  0  0  0  0
  131.9610  131.6950   58.1020 C   0  0  0  0  0  0  0  0  0  0  0  0
  131.4640  132.1930   59.3100 C   0  0  0  0  0  0  0  0  0  0  0  0
  132.1590  131.9780   60.4980 C   0  0  0  0  0  0  0  0  0  0  0  0
  133.3550  131.2680   60.4780 C   0  0  0  0  0  0  0  0  0  0  0  0
  133.8650  130.7720   59.2810 C   0  0  0  0  0  0  0  0  0  0  0  0
  133.1740  130.9850   58.0910 C   0  0  0  0  0  0  0  0  0  0  0  0
  1  2  3  0
  2  3  1  0
  3  4  2  0
  4  5  1  0
  5  6  1  0
  5  7  1  0
  5  8  1  0
  4  9  1  0
  9 10  2  0
 10 11  1  0
 11 12  2  0
 12 13  1  0
 13 14  2  0
 14 15  1  0
 15 16  2  0
 10 17  1  0
 17 18  2  0
 18 19  1  0
 19 20  1  0
 20 21  1  0
 21 22  2  0
 21 23  1  0
 23 24  1  0
 24 25  2  0
 25 26  1  0
 26 27  2  0
 27 28  1  0
 28 29  2  0
 18  3  1  0
 29 24  1  0
 16 11  1  0
M  END
>  <Binding energies>  (28) 
[-8.14]

>  <Ligand effiencies>  (28) 
[-0.27133333333333337]

>  <Interactions>  (28) 
["V-B:ASP:366:CB:8182, V-B:TYR:531:CZ:9765, V-A:ASP:366:CG:3212, V-B:ASN:370:CB:8215, V-B:ASP:366:CA:8180, V-B:ASN:370:CA:8213, H-B:LYS:534:NZ:9794, H-A:TYR:539:OH:4877, V-A:TYR:539:CZ:4876, V-B:TYR:531:CE1:9763, V-B:ILE:369:CB:8206, V-B:ILE:369:CG2:8207, V-A:MET:535:CG:4832, V-A:TYR:539:CD1:4872, V-A:ILE:538:CA:4859, V-A:TYR:539:CE1:4874, V-A:PRO:540:CA:4882, V-A:PRO:540:CB:4884, V-A:ASN:362:C:3171, V-A:ASP:366:CB:3211, V-A:ALA:541:CB:4891, V-A:LEU:363:CA:3184, V-A:TYR:531:CZ:4793, H-A:TYR:531:OH:4794, H-A:TYR:539:N:4869, V-A:PRO:540:N:4883, V-A:TYR:531:CE2:4792, V-B:ASP:366:C:8178, V-B:TYR:531:CD1:9761, V-B:ILE:369:C:8202"]

$$$$
3ai_Grossjean_2025
     RDKit          3D

 28 30  0  0  0  0  0  0  0  0999 V2000
  130.0300  125.7310   64.0900 N   0  0  0  0  0  0  0  0  0  0  0  0
  130.2900  124.7120   63.6060 C   0  0  0  0  0  0  0  0  0  0  0  0
  130.6200  123.4220   62.9940 C   0  0  0  0  0  0  0  0  0  0  0  0
  131.9680  123.0090   62.8570 C   0  0  0  0  0  0  0  0  0  0  0  0
  133.1510  123.8500   63.3730 C   0  0  0  0  0  0  0  0  0  0  0  0
  133.1470  125.0970   62.8980 F   0  0  0  0  0  0  0  0  0  0  0  0
  133.1080  123.9270   64.7050 F   0  0  0  0  0  0  0  0  0  0  0  0
  134.3050  123.2900   63.0100 F   0  0  0  0  0  0  0  0  0  0  0  0
  132.2330  121.7870   62.2220 C   0  0  0  0  0  0  0  0  0  0  0  0
  131.1850  121.0000   61.7330 C   0  0  0  0  0  0  0  0  0  0  0  0
  131.4110  119.6920   61.0370 C   0  0  0  0  0  0  0  0  0  0  0  0
  132.5470  119.4950   60.2360 C   0  0  0  0  0  0  0  0  0  0  0  0
  132.7670  118.2810   59.5900 C   0  0  0  0  0  0  0  0  0  0  0  0
  131.8500  117.2450   59.7380 C   0  0  0  0  0  0  0  0  0  0  0  0
  130.7180  117.4150   60.5270 C   0  0  0  0  0  0  0  0  0  0  0  0
  130.5020  118.6290   61.1720 C   0  0  0  0  0  0  0  0  0  0  0  0
  129.8950  121.4040   61.8590 N   0  0  0  0  0  0  0  0  0  0  0  0
  129.6110  122.5680   62.4910 C   0  0  0  0  0  0  0  0  0  0  0  0
  127.8680  122.9210   62.5800 S   0  0  0  0  0  0  0  0  0  0  0  0
  127.4170  123.8900   61.1000 C   0  0  0  0  0  0  0  0  0  0  0  0
  127.5570  123.1410   59.7670 C   0  0  0  0  0  0  0  0  0  0  0  0
  128.5280  122.4110   59.5520 O   0  0  0  0  0  0  0  0  0  0  0  0
  126.5500  123.3560   58.8900 N   0  0  0  0  0  0  0  0  0  0  0  0
  126.4100  122.8120   57.6200 C   0  0  0  0  0  0  0  0  0  0  0  0
  125.2450  122.9320   56.8640 C   0  0  0  0  0  0  0  0  0  0  0  0
  125.5080  122.2640   55.6910 C   0  0  0  0  0  0  0  0  0  0  0  0
  126.7670  121.7670   55.7370 O   0  0  0  0  0  0  0  0  0  0  0  0
  127.3290  122.1210   56.9650 N   0  0  0  0  0  0  0  0  0  0  0  0
  1  2  3  0
  2  3  1  0
  3  4  2  0
  4  5  1  0
  5  6  1  0
  5  7  1  0
  5  8  1  0
  4  9  1  0
  9 10  2  0
 10 11  1  0
 11 12  2  0
 12 13  1  0
 13 14  2  0
 14 15  1  0
 15 16  2  0
 10 17  1  0
 17 18  2  0
 18 19  1  0
 19 20  1  0
 20 21  1  0
 21 22  2  0
 21 23  1  0
 23 24  1  0
 24 25  1  0
 25 26  2  0
 26 27  1  0
 27 28  1  0
 18  3  1  0
 28 24  2  0
 16 11  1  0
M  END
>  <Binding energies>  (29) 
[-8.62]

>  <Ligand effiencies>  (29) 
[-0.2972413793103448]

>  <Interactions>  (29) 
["V-B:ALA:541:CB:9863, V-B:TYR:539:CE2:9847, V-B:PRO:540:CB:9856, H-B:ALA:541:N:9862, V-B:PRO:540:CA:9854, V-B:TYR:539:CD2:9845, V-A:GLY:453:C:4041, V-B:TYR:531:CE2:9764, V-B:LEU:363:CD1:8159, V-A:LEU:475:CD2:4258, V-B:TYR:539:C:9838, V-A:ILE:369:CD1:3238, V-A:ASP:366:CG:3212, V-B:PRO:540:N:9855, V-B:PRO:540:CD:9858, V-B:TYR:539:CB:9842, V-A:HIS:383:CE1:3393, H-B:TYR:539:N:9841, V-B:ILE:538:CD1:9836, V-B:ILE:538:CG2:9834, V-B:ILE:538:CA:9831, V-A:GLY:454:CA:4048, V-B:ILE:538:CB:9833, V-A:LEU:373:CD2:3280"]

$$$$
3aj_Grossjean_2025
     RDKit          3D

 28 30  0  0  0  0  0  0  0  0999 V2000
  125.6160  130.5350   53.5780 N   0  0  0  0  0  0  0  0  0  0  0  0
  125.9890  130.7690   54.6480 C   0  0  0  0  0  0  0  0  0  0  0  0
  126.4590  131.0640   56.0050 C   0  0  0  0  0  0  0  0  0  0  0  0
  125.5650  131.0380   57.1030 C   0  0  0  0  0  0  0  0  0  0  0  0
  124.0780  130.6610   56.9550 C   0  0  0  0  0  0  0  0  0  0  0  0
  123.9020  129.4240   56.4850 F   0  0  0  0  0  0  0  0  0  0  0  0
  123.4690  130.7330   58.1390 F   0  0  0  0  0  0  0  0  0  0  0  0
  123.4770  131.4990   56.1090 F   0  0  0  0  0  0  0  0  0  0  0  0
  126.0540  131.3750   58.3740 C   0  0  0  0  0  0  0  0  0  0  0  0
  127.3960  131.7320   58.5440 C   0  0  0  0  0  0  0  0  0  0  0  0
  127.9680  132.1090   59.8760 C   0  0  0  0  0  0  0  0  0  0  0  0
  127.7650  133.3930   60.4040 C   0  0  0  0  0  0  0  0  0  0  0  0
  128.2900  133.7500   61.6450 C   0  0  0  0  0  0  0  0  0  0  0  0
  129.0280  132.8230   62.3740 C   0  0  0  0  0  0  0  0  0  0  0  0
  129.2420  131.5430   61.8730 C   0  0  0  0  0  0  0  0  0  0  0  0
  128.7140  131.1910   60.6340 C   0  0  0  0  0  0  0  0  0  0  0  0
  128.2480  131.7630   57.4870 N   0  0  0  0  0  0  0  0  0  0  0  0
  127.8050  131.4190   56.2540 C   0  0  0  0  0  0  0  0  0  0  0  0
  129.0660  131.4960   55.0000 S   0  0  0  0  0  0  0  0  0  0  0  0
  129.9280  133.0950   55.1730 C   0  0  0  0  0  0  0  0  0  0  0  0
  130.9230  133.1740   56.3400 C   0  0  0  0  0  0  0  0  0  0  0  0
  131.6260  134.1740   56.5040 O   0  0  0  0  0  0  0  0  0  0  0  0
  130.9450  132.0830   57.1370 N   0  0  0  0  0  0  0  0  0  0  0  0
  131.7390  131.8920   58.2600 C   0  0  0  0  0  0  0  0  0  0  0  0
  131.4600  132.2000   59.5080 N   0  0  0  0  0  0  0  0  0  0  0  0
  132.4450  131.8740   60.3210 C   0  0  0  0  0  0  0  0  0  0  0  0
  133.5610  131.2860   59.7310 C   0  0  0  0  0  0  0  0  0  0  0  0
  133.2930  131.1600   58.0180 S   0  0  0  0  0  0  0  0  0  0  0  0
  1  2  3  0
  2  3  1  0
  3  4  2  0
  4  5  1  0
  5  6  1  0
  5  7  1  0
  5  8  1  0
  4  9  1  0
  9 10  2  0
 10 11  1  0
 11 12  2  0
 12 13  1  0
 13 14  2  0
 14 15  1  0
 15 16  2  0
 10 17  1  0
 17 18  2  0
 18 19  1  0
 19 20  1  0
 20 21  1  0
 21 22  2  0
 21 23  1  0
 23 24  1  0
 24 25  2  0
 25 26  1  0
 26 27  2  0
 27 28  1  0
 18  3  1  0
 28 24  1  0
 16 11  1  0
M  END
>  <Binding energies>  (30) 
[-7.22]

>  <Ligand effiencies>  (30) 
[-0.2489655172413793]

>  <Interactions>  (30) 
["V-B:ASP:366:CB:8182, V-B:TYR:531:CZ:9765, V-B:ASN:370:CB:8215, V-B:ASP:366:CA:8180, V-B:ASN:370:CA:8213, H-B:LYS:534:NZ:9794, H-A:TYR:539:OH:4877, V-A:TYR:539:CZ:4876, V-B:TYR:531:CE1:9763, V-B:ILE:369:CB:8206, V-B:ILE:369:CG2:8207, V-A:TYR:539:CD1:4872, V-A:ILE:538:CA:4859, V-A:TYR:539:CE1:4874, V-A:PRO:540:CA:4882, V-A:PRO:540:CB:4884, V-A:ASN:362:C:3171, V-A:ASP:366:CB:3211, V-A:ALA:541:CB:4891, V-A:LEU:363:CA:3184, V-A:TYR:531:CZ:4793, H-A:TYR:531:OH:4794, H-A:TYR:539:N:4869, V-A:TYR:531:CE2:4792, V-A:LEU:363:CD1:3188, V-B:ASP:366:C:8178, V-B:TYR:531:CD1:9761, V-B:ILE:369:C:8202"]

$$$$
3ak_Grossjean_2025
     RDKit          3D

 33 34  0  0  0  0  0  0  0  0999 V2000
  125.4460  122.3630   56.0650 C   0  0  0  0  0  0  0  0  0  0  0  0
  126.7610  121.8310   56.0460 O   0  0  0  0  0  0  0  0  0  0  0  0
  127.6540  122.5000   56.9260 C   0  0  0  0  0  0  0  0  0  0  0  0
  127.1170  123.9090   57.2060 C   0  0  0  0  0  0  0  0  0  0  0  0
  127.7750  124.4350   58.3540 O   0  0  0  0  0  0  0  0  0  0  0  0
  127.9460  123.5240   59.4360 C   0  0  0  0  0  0  0  0  0  0  0  0
  129.3850  123.4720   59.9820 C   0  0  0  0  0  0  0  0  0  0  0  0
  129.9610  124.7680   59.9050 O   0  0  0  0  0  0  0  0  0  0  0  0
  131.3030  124.7760   59.4390 C   0  0  0  0  0  0  0  0  0  0  0  0
  131.3990  125.5410   58.1070 C   0  0  0  0  0  0  0  0  0  0  0  0
  130.1180  126.0860   57.6510 N   0  0  0  0  0  0  0  0  0  0  0  0
  129.9060  126.7450   56.4960 C   0  0  0  0  0  0  0  0  0  0  0  0
  130.7980  126.9470   55.6700 O   0  0  0  0  0  0  0  0  0  0  0  0
  128.4930  127.2690   56.1900 C   0  0  0  0  0  0  0  0  0  0  0  0
  127.8430  128.5660   57.3070 S   0  0  0  0  0  0  0  0  0  0  0  0
  128.8340  130.0400   57.1120 C   0  0  0  0  0  0  0  0  0  0  0  0
  129.7830  130.2380   58.0600 N   0  0  0  0  0  0  0  0  0  0  0  0
  130.5820  131.3330   58.0010 C   0  0  0  0  0  0  0  0  0  0  0  0
  131.6050  131.4730   59.0890 C   0  0  0  0  0  0  0  0  0  0  0  0
  131.2680  132.0580   60.3200 C   0  0  0  0  0  0  0  0  0  0  0  0
  132.2120  132.1860   61.3350 C   0  0  0  0  0  0  0  0  0  0  0  0
  133.5090  131.7280   61.1330 C   0  0  0  0  0  0  0  0  0  0  0  0
  133.8690  131.1420   59.9250 C   0  0  0  0  0  0  0  0  0  0  0  0
  132.9220  131.0140   58.9120 C   0  0  0  0  0  0  0  0  0  0  0  0
  130.4530  132.2600   56.9610 C   0  0  0  0  0  0  0  0  0  0  0  0
  129.4810  132.0780   55.9670 C   0  0  0  0  0  0  0  0  0  0  0  0
  129.3670  133.1220   54.8380 C   0  0  0  0  0  0  0  0  0  0  0  0
  129.3700  134.3520   55.3520 F   0  0  0  0  0  0  0  0  0  0  0  0
  130.3970  133.0020   53.9990 F   0  0  0  0  0  0  0  0  0  0  0  0
  128.2490  132.9890   54.1200 F   0  0  0  0  0  0  0  0  0  0  0  0
  128.6440  130.9390   56.0400 C   0  0  0  0  0  0  0  0  0  0  0  0
  127.6100  130.6970   55.0280 C   0  0  0  0  0  0  0  0  0  0  0  0
  126.7920  130.5070   54.2300 N   0  0  0  0  0  0  0  0  0  0  0  0
  1  2  1  0
  2  3  1  0
  3  4  1  0
  4  5  1  0
  5  6  1  0
  6  7  1  0
  7  8  1  0
  8  9  1  0
  9 10  1  0
 10 11  1  0
 11 12  1  0
 12 13  2  0
 12 14  1  0
 14 15  1  0
 15 16  1  0
 16 17  2  0
 17 18  1  0
 18 19  1  0
 19 20  2  0
 20 21  1  0
 21 22  2  0
 22 23  1  0
 23 24  2  0
 18 25  2  0
 25 26  1  0
 26 27  1  0
 27 28  1  0
 27 29  1  0
 27 30  1  0
 26 31  2  0
 31 32  1  0
 32 33  3  0
 31 16  1  0
 24 19  1  0
M  END
>  <Binding energies>  (31) 
[-7.07]

>  <Ligand effiencies>  (31) 
[-0.20794117647058824]

>  <Interactions>  (31) 
["V-B:TYR:539:CE2:9847, V-B:MET:535:CE:9806, V-B:PRO:540:CA:9854, V-B:TYR:539:CD2:9845, V-B:TYR:531:CE2:9764, V-B:LEU:363:CD1:8159, V-B:TYR:539:C:9838, V-A:ASP:366:CG:3212, V-A:MET:535:CE:4834, H-A:TYR:539:OH:4877, V-A:TYR:539:CZ:4876, V-B:PRO:540:N:9855, V-A:TYR:539:CG:4871, V-A:MET:535:CG:4832, V-A:ILE:538:CG2:4862, V-A:TYR:539:CD1:4872, V-A:ILE:538:CB:4861, V-A:TYR:539:CE2:4875, V-A:ILE:538:CA:4859, V-A:ILE:538:C:4857, V-B:PRO:540:CD:9858, V-A:TYR:539:CE1:4874, V-A:PRO:540:CA:4882, V-A:PRO:540:CB:4884, V-A:ASN:362:C:3171, V-A:ASP:366:CB:3211, V-A:LEU:363:CA:3184, V-B:TYR:539:CG:9843, H-B:TYR:539:N:9841, V-B:TYR:539:CZ:9848, H-A:TYR:531:OH:4794, V-B:TYR:539:CE1:9846, V-B:TYR:539:CD1:9844, V-A:TYR:531:CE2:4792, V-A:MET:535:CB:4831, V-A:PRO:540:C:4880, V-B:ILE:538:CD1:9836, V-B:ILE:538:CG2:9834, V-B:ILE:538:CA:9831, V-A:ASN:362:CB:3175, V-B:TYR:539:CA:9840, V-A:TYR:539:CD2:4873, V-A:TYR:539:CA:4868"]

$$$$
3bk_Grossjean_2025
     RDKit          3D

 30 31  0  0  0  0  0  0  0  0999 V2000
  125.2780  126.4390   58.3520 C   0  0  0  0  0  0  0  0  0  0  0  0
  125.5360  125.0930   57.9790 O   0  0  0  0  0  0  0  0  0  0  0  0
  124.3580  124.3510   57.6920 C   0  0  0  0  0  0  0  0  0  0  0  0
  124.7400  122.9970   57.0780 C   0  0  0  0  0  0  0  0  0  0  0  0
  125.5210  123.2120   55.9100 O   0  0  0  0  0  0  0  0  0  0  0  0
  126.7520  122.5020   55.9030 C   0  0  0  0  0  0  0  0  0  0  0  0
  127.1390  122.1450   57.3440 C   0  0  0  0  0  0  0  0  0  0  0  0
  128.3300  122.8360   57.6970 O   0  0  0  0  0  0  0  0  0  0  0  0
  128.3210  123.3590   59.0200 C   0  0  0  0  0  0  0  0  0  0  0  0
  128.6580  122.2390   60.0140 C   0  0  0  0  0  0  0  0  0  0  0  0
  128.8400  122.7400   61.3780 N   0  0  0  0  0  0  0  0  0  0  0  0
  127.8520  123.0960   62.2170 C   0  0  0  0  0  0  0  0  0  0  0  0
  126.6550  123.0210   61.9350 O   0  0  0  0  0  0  0  0  0  0  0  0
  128.2780  123.5900   63.6010 C   0  0  0  0  0  0  0  0  0  0  0  0
  129.3990  122.4180   64.4280 S   0  0  0  0  0  0  0  0  0  0  0  0
  130.9060  122.2870   63.4810 C   0  0  0  0  0  0  0  0  0  0  0  0
  130.9950  121.2170   62.6520 N   0  0  0  0  0  0  0  0  0  0  0  0
  132.1080  121.0340   61.8930 C   0  0  0  0  0  0  0  0  0  0  0  0
  132.1150  119.8380   60.9900 C   0  0  0  0  0  0  0  0  0  0  0  0
  133.1300  119.6650   60.0350 C   0  0  0  0  0  0  0  0  0  0  0  0
  133.1380  118.5580   59.1890 C   0  0  0  0  0  0  0  0  0  0  0  0
  132.1290  117.6060   59.2880 C   0  0  0  0  0  0  0  0  0  0  0  0
  131.1140  117.7510   60.2280 C   0  0  0  0  0  0  0  0  0  0  0  0
  131.1100  118.8580   61.0730 C   0  0  0  0  0  0  0  0  0  0  0  0
  133.1710  121.9430   61.9490 C   0  0  0  0  0  0  0  0  0  0  0  0
  133.0970  123.0510   62.7990 C   0  0  0  0  0  0  0  0  0  0  0  0
  134.2800  124.0180   62.8290 C   0  0  0  0  0  0  0  0  0  0  0  0
  131.9430  123.2390   63.5880 C   0  0  0  0  0  0  0  0  0  0  0  0
  131.8370  124.3930   64.4860 C   0  0  0  0  0  0  0  0  0  0  0  0
  131.7530  125.3040   65.1960 N   0  0  0  0  0  0  0  0  0  0  0  0
  1  2  1  0
  2  3  1  0
  3  4  1  0
  4  5  1  0
  5  6  1  0
  6  7  1  0
  7  8  1  0
  8  9  1  0
  9 10  1  0
 10 11  1  0
 11 12  1  0
 12 13  2  0
 12 14  1  0
 14 15  1  0
 15 16  1  0
 16 17  2  0
 17 18  1  0
 18 19  1  0
 19 20  2  0
 20 21  1  0
 21 22  2  0
 22 23  1  0
 23 24  2  0
 18 25  2  0
 25 26  1  0
 26 27  1  0
 26 28  2  0
 28 29  1  0
 29 30  3  0
 28 16  1  0
 24 19  1  0
M  END
>  <Binding energies>  (32) 
[-8.07]

>  <Ligand effiencies>  (32) 
[-0.2603225806451613]

>  <Interactions>  (32) 
["V-B:ALA:541:CB:9863, V-B:TYR:539:CE2:9847, V-A:ILE:369:CG2:3236, V-B:ASP:366:CB:8182, V-B:PRO:540:CB:9856, H-B:ALA:541:N:9862, V-B:MET:535:CE:9806, V-B:PRO:540:CA:9854, V-A:SER:385:CA:3406, V-B:TYR:531:CZ:9765, V-A:GLY:453:CA:4043, V-B:TYR:539:CD2:9845, V-A:GLY:453:C:4041, V-B:TYR:531:CE2:9764, V-B:LEU:363:CD1:8159, V-A:LEU:475:CD2:4258, V-B:TYR:539:C:9838, V-A:ILE:369:CD1:3238, V-B:ASP:366:CG:8183, V-B:PRO:540:N:9855, V-B:PRO:540:CD:9858, V-B:GLU:543:CD:9879, V-A:LEU:373:CD1:3279, V-B:TYR:539:CG:9843, V-B:TYR:539:CB:9842, V-A:HIS:383:CE1:3393, H-A:TYR:484:OH:4347, V-B:GLU:543:CG:9878, H-B:TYR:531:OH:9766, V-B:ILE:538:CA:9831, V-B:TYR:539:CA:9840, V-A:GLY:454:CA:4048, V-B:MET:535:CG:9804, V-A:LEU:373:CG:3278, V-A:LEU:373:CD2:3280"]

$$$$
3cb_Grossjean_2025
     RDKit          3D

 30 32  0  0  0  0  0  0  0  0999 V2000
  125.0080  124.0780   58.0980 C   0  0  0  0  0  0  0  0  0  0  0  0
  125.7990  123.9490   56.9270 O   0  0  0  0  0  0  0  0  0  0  0  0
  126.7870  123.0200   56.8490 C   0  0  0  0  0  0  0  0  0  0  0  0
  126.7210  122.0150   56.1350 O   0  0  0  0  0  0  0  0  0  0  0  0
  127.9700  123.3360   57.7190 C   0  0  0  0  0  0  0  0  0  0  0  0
  128.8700  124.3660   57.4060 C   0  0  0  0  0  0  0  0  0  0  0  0
  129.9540  124.6350   58.2360 C   0  0  0  0  0  0  0  0  0  0  0  0
  130.1660  123.8810   59.3910 C   0  0  0  0  0  0  0  0  0  0  0  0
  131.2920  124.2410   60.1590 N   0  0  0  0  0  0  0  0  0  0  0  0
  132.5990  124.2720   59.8210 C   0  0  0  0  0  0  0  0  0  0  0  0
  133.0470  123.9890   58.7090 O   0  0  0  0  0  0  0  0  0  0  0  0
  133.5390  124.7190   60.9520 C   0  0  0  0  0  0  0  0  0  0  0  0
  133.0170  124.2190   62.6280 S   0  0  0  0  0  0  0  0  0  0  0  0
  131.7610  122.9690   62.4580 C   0  0  0  0  0  0  0  0  0  0  0  0
  130.5590  123.3400   62.9610 N   0  0  0  0  0  0  0  0  0  0  0  0
  129.5280  122.4690   62.8870 C   0  0  0  0  0  0  0  0  0  0  0  0
  128.2100  122.9560   63.4580 C   0  0  0  0  0  0  0  0  0  0  0  0
  129.6540  121.2040   62.3190 C   0  0  0  0  0  0  0  0  0  0  0  0
  130.8920  120.7920   61.8070 C   0  0  0  0  0  0  0  0  0  0  0  0
  130.9780  119.4230   61.2140 C   0  0  0  0  0  0  0  0  0  0  0  0
  130.0550  118.4360   61.5830 C   0  0  0  0  0  0  0  0  0  0  0  0
  130.1200  117.1610   61.0270 C   0  0  0  0  0  0  0  0  0  0  0  0
  131.1100  116.8680   60.0930 C   0  0  0  0  0  0  0  0  0  0  0  0
  132.0310  117.8380   59.7090 C   0  0  0  0  0  0  0  0  0  0  0  0
  131.9620  119.1130   60.2650 C   0  0  0  0  0  0  0  0  0  0  0  0
  131.9880  121.6910   61.8900 C   0  0  0  0  0  0  0  0  0  0  0  0
  133.3260  121.2790   61.4560 C   0  0  0  0  0  0  0  0  0  0  0  0
  134.3820  120.9540   61.1130 N   0  0  0  0  0  0  0  0  0  0  0  0
  129.2680  122.8520   59.7140 C   0  0  0  0  0  0  0  0  0  0  0  0
  128.1830  122.5840   58.8830 C   0  0  0  0  0  0  0  0  0  0  0  0
  1  2  1  0
  2  3  1  0
  3  4  2  0
  3  5  1  0
  5  6  2  0
  6  7  1  0
  7  8  2  0
  8  9  1  0
  9 10  1  0
 10 11  2  0
 10 12  1  0
 12 13  1  0
 13 14  1  0
 14 15  2  0
 15 16  1  0
 16 17  1  0
 16 18  2  0
 18 19  1  0
 19 20  1  0
 20 21  2  0
 21 22  1  0
 22 23  2  0
 23 24  1  0
 24 25  2  0
 19 26  2  0
 26 27  1  0
 27 28  3  0
  8 29  1  0
 29 30  2  0
 30  5  1  0
 26 14  1  0
 25 20  1  0
M  END
>  <Binding energies>  (33) 
[-8.9]

>  <Ligand effiencies>  (33) 
[-0.2870967741935484]

>  <Interactions>  (33) 
["V-B:ALA:541:CB:9863, V-B:TYR:539:CE2:9847, V-A:ILE:369:CG2:3236, V-B:PRO:540:CB:9856, V-B:MET:535:CE:9806, V-B:PRO:540:CA:9854, V-B:TYR:539:CD2:9845, V-A:LEU:475:CD2:4258, V-B:TYR:539:C:9838, V-A:ILE:369:CD1:3238, V-A:ASP:366:CG:3212, V-B:PRO:540:N:9855, V-B:GLU:543:CD:9879, V-A:ASP:366:CB:3211, V-B:TYR:539:CG:9843, V-B:TYR:539:CB:9842, V-A:HIS:383:CE1:3393, H-B:TYR:539:N:9841, V-B:TYR:539:CZ:9848, V-B:ALA:541:CA:9861, V-B:GLU:543:CG:9878, H-B:TYR:539:OH:9849, H-B:TYR:531:OH:9766, V-A:PRO:482:CB:4325, V-A:PRO:482:CG:4326, V-B:VAL:344:CG1:7971"]

$$$$
3ch_Grossjean_2025
     RDKit          3D

 32 34  0  0  0  0  0  0  0  0999 V2000
  126.3950  130.4480   54.9610 C   0  0  0  0  0  0  0  0  0  0  0  0
  127.5120  131.3230   54.8450 O   0  0  0  0  0  0  0  0  0  0  0  0
  128.4810  131.3260   55.8320 C   0  0  0  0  0  0  0  0  0  0  0  0
  128.7220  130.2500   56.7010 C   0  0  0  0  0  0  0  0  0  0  0  0
  129.7300  130.3210   57.6730 C   0  0  0  0  0  0  0  0  0  0  0  0
  130.0480  129.2940   58.5830 N   0  0  0  0  0  0  0  0  0  0  0  0
  130.6720  128.1160   58.3690 C   0  0  0  0  0  0  0  0  0  0  0  0
  131.1050  127.7220   57.2860 O   0  0  0  0  0  0  0  0  0  0  0  0
  130.8760  127.2440   59.6080 C   0  0  0  0  0  0  0  0  0  0  0  0
  131.6370  125.6440   59.2040 S   0  0  0  0  0  0  0  0  0  0  0  0
  130.3370  124.4350   59.3230 C   0  0  0  0  0  0  0  0  0  0  0  0
  130.4700  123.5850   60.3710 N   0  0  0  0  0  0  0  0  0  0  0  0
  129.5370  122.6220   60.5460 C   0  0  0  0  0  0  0  0  0  0  0  0
  129.7500  121.7030   61.7330 C   0  0  0  0  0  0  0  0  0  0  0  0
  128.4470  122.4690   59.6920 C   0  0  0  0  0  0  0  0  0  0  0  0
  128.2870  123.3430   58.6070 C   0  0  0  0  0  0  0  0  0  0  0  0
  127.1080  123.1350   57.7120 C   0  0  0  0  0  0  0  0  0  0  0  0
  127.2670  122.4920   56.4790 C   0  0  0  0  0  0  0  0  0  0  0  0
  126.1750  122.3020   55.6360 C   0  0  0  0  0  0  0  0  0  0  0  0
  124.9170  122.7590   56.0230 C   0  0  0  0  0  0  0  0  0  0  0  0
  124.7440  123.4060   57.2430 C   0  0  0  0  0  0  0  0  0  0  0  0
  125.8390  123.5950   58.0830 C   0  0  0  0  0  0  0  0  0  0  0  0
  129.2480  124.3700   58.4220 C   0  0  0  0  0  0  0  0  0  0  0  0
  129.0800  125.3690   57.3620 C   0  0  0  0  0  0  0  0  0  0  0  0
  128.9490  126.1560   56.5240 N   0  0  0  0  0  0  0  0  0  0  0  0
  130.4860  131.4900   57.7830 C   0  0  0  0  0  0  0  0  0  0  0  0
  130.2630  132.5800   56.9280 C   0  0  0  0  0  0  0  0  0  0  0  0
  130.9820  133.7620   56.9800 O   0  0  0  0  0  0  0  0  0  0  0  0
  132.3400  133.7760   56.5520 C   0  0  0  0  0  0  0  0  0  0  0  0
  129.2570  132.4860   55.9580 C   0  0  0  0  0  0  0  0  0  0  0  0
  129.0410  133.5410   55.1030 O   0  0  0  0  0  0  0  0  0  0  0  0
  129.7640  133.4550   53.8830 C   0  0  0  0  0  0  0  0  0  0  0  0
  1  2  1  0
  2  3  1  0
  3  4  2  0
  4  5  1  0
  5  6  1  0
  6  7  1  0
  7  8  2  0
  7  9  1  0
  9 10  1  0
 10 11  1  0
 11 12  2  0
 12 13  1  0
 13 14  1  0
 13 15  2  0
 15 16  1  0
 16 17  1  0
 17 18  2  0
 18 19  1  0
 19 20  2  0
 20 21  1  0
 21 22  2  0
 16 23  2  0
 23 24  1  0
 24 25  3  0
  5 26  2  0
 26 27  1  0
 27 28  1  0
 28 29  1  0
 27 30  2  0
 30 31  1  0
 31 32  1  0
 30  3  1  0
 23 11  1  0
 22 17  1  0
M  END
>  <Binding energies>  (34) 
[-8.13]

>  <Ligand effiencies>  (34) 
[-0.2463636363636364]

>  <Interactions>  (34) 
["V-B:ALA:541:CB:9863, V-B:TYR:539:CE2:9847, V-B:PRO:540:CB:9856, V-B:MET:535:CE:9806, V-B:PRO:540:CA:9854, V-B:TYR:531:CZ:9765, V-B:TYR:539:CD2:9845, V-B:TYR:531:CE2:9764, V-B:LEU:363:CD1:8159, V-B:TYR:539:C:9838, V-A:ASP:366:CG:3212, H-A:TYR:539:OH:4877, V-A:TYR:539:CZ:4876, V-B:TYR:531:CE1:9763, V-B:PRO:540:N:9855, V-A:MET:535:CG:4832, V-A:ILE:538:CG2:4862, V-A:TYR:539:CD1:4872, V-A:ILE:538:CB:4861, V-A:ILE:538:CA:4859, V-A:TYR:539:CE1:4874, V-A:PRO:540:CA:4882, V-A:PRO:540:CB:4884, V-B:TYR:539:CG:9843, V-B:TYR:539:CZ:9848, H-A:TYR:531:OH:4794, H-A:TYR:539:N:4869, V-A:PRO:540:N:4883, V-B:TYR:539:CE1:9846, V-A:PRO:540:CD:4886, V-B:TYR:539:CD1:9844, V-A:TYR:531:CE2:4792, V-A:LEU:363:CD1:3188, V-A:MET:535:CB:4831, V-B:ILE:538:CD1:9836, V-B:ILE:538:CG2:9834, V-B:ILE:538:CA:9831, V-B:ILE:538:C:9829, V-B:MET:535:CG:9804, V-A:VAL:537:C:4849, V-A:PRO:540:CG:4885"]

$$$$
3ci_Grossjean_2025
     RDKit          3D

 25 27  0  0  0  0  0  0  0  0999 V2000
  127.8990  130.0630   57.0450 C   0  0  0  0  0  0  0  0  0  0  0  0
  128.6980  130.6600   58.1880 C   0  0  0  0  0  0  0  0  0  0  0  0
  128.1260  131.5510   59.0930 C   0  0  0  0  0  0  0  0  0  0  0  0
  128.9010  132.0630   60.1430 C   0  0  0  0  0  0  0  0  0  0  0  0
  128.2420  133.0030   61.0980 C   0  0  0  0  0  0  0  0  0  0  0  0
  128.2890  132.7720   62.4790 C   0  0  0  0  0  0  0  0  0  0  0  0
  127.6660  133.6470   63.3650 C   0  0  0  0  0  0  0  0  0  0  0  0
  126.9850  134.7560   62.8720 C   0  0  0  0  0  0  0  0  0  0  0  0
  126.9200  134.9960   61.5020 C   0  0  0  0  0  0  0  0  0  0  0  0
  127.5450  134.1190   60.6190 C   0  0  0  0  0  0  0  0  0  0  0  0
  130.2570  131.6600   60.2390 C   0  0  0  0  0  0  0  0  0  0  0  0
  131.1280  132.1960   61.2910 C   0  0  0  0  0  0  0  0  0  0  0  0
  131.8140  132.6200   62.1220 N   0  0  0  0  0  0  0  0  0  0  0  0
  130.7570  130.7460   59.2800 C   0  0  0  0  0  0  0  0  0  0  0  0
  132.4440  130.1540   59.3190 S   0  0  0  0  0  0  0  0  0  0  0  0
  133.4730  131.1750   58.2140 C   0  0  0  0  0  0  0  0  0  0  0  0
  132.6910  132.2950   57.5170 C   0  0  0  0  0  0  0  0  0  0  0  0
  133.0880  133.4580   57.6160 O   0  0  0  0  0  0  0  0  0  0  0  0
  131.5860  131.9070   56.8420 N   0  0  0  0  0  0  0  0  0  0  0  0
  130.7240  132.7100   56.1070 C   0  0  0  0  0  0  0  0  0  0  0  0
  130.1690  132.3150   54.8910 C   0  0  0  0  0  0  0  0  0  0  0  0
  129.3890  133.3770   54.4920 C   0  0  0  0  0  0  0  0  0  0  0  0
  129.4710  134.3590   55.4220 O   0  0  0  0  0  0  0  0  0  0  0  0
  130.3210  133.9250   56.4400 N   0  0  0  0  0  0  0  0  0  0  0  0
  129.9870  130.2650   58.2710 N   0  0  0  0  0  0  0  0  0  0  0  0
  1  2  1  0
  2  3  2  0
  3  4  1  0
  4  5  1  0
  5  6  2  0
  6  7  1  0
  7  8  2  0
  8  9  1  0
  9 10  2  0
  4 11  2  0
 11 12  1  0
 12 13  3  0
 11 14  1  0
 14 15  1  0
 15 16  1  0
 16 17  1  0
 17 18  2  0
 17 19  1  0
 19 20  1  0
 20 21  1  0
 21 22  2  0
 22 23  1  0
 23 24  1  0
 14 25  2  0
 25  2  1  0
 10  5  1  0
 24 20  2  0
M  END
>  <Binding energies>  (35) 
[-7.99]

>  <Ligand effiencies>  (35) 
[-0.30730769230769234]

>  <Interactions>  (35) 
["V-A:TYR:539:CZ:4876, V-A:MET:535:CG:4832, V-A:ILE:538:CG2:4862, V-A:TYR:539:CD1:4872, V-A:TYR:539:CE2:4875, V-A:ILE:538:CA:4859, V-A:TYR:539:CE1:4874, V-B:LEU:475:CD1:9228, V-A:PRO:540:CA:4882, V-A:PRO:540:CB:4884, H-A:ALA:541:N:4890, V-A:ASP:366:CB:3211, V-A:ALA:541:CB:4891, V-A:LEU:363:CA:3184, V-A:TYR:531:CZ:4793, H-A:TYR:531:OH:4794, H-A:TYR:539:N:4869, V-A:TYR:531:CE2:4792, V-A:LEU:363:CD1:3188, V-A:MET:535:CB:4831"]

$$$$
3ck_Grossjean_2025
     RDKit          3D

 30 31  0  0  0  0  0  0  0  0999 V2000
  125.5030  122.4150   56.5190 C   0  0  0  0  0  0  0  0  0  0  0  0
  126.7570  121.8540   56.1660 O   0  0  0  0  0  0  0  0  0  0  0  0
  127.8490  122.4130   56.8810 C   0  0  0  0  0  0  0  0  0  0  0  0
  127.3220  123.2280   58.0690 C   0  0  0  0  0  0  0  0  0  0  0  0
  127.5770  122.5210   59.2760 O   0  0  0  0  0  0  0  0  0  0  0  0
  128.7820  122.9050   59.9260 C   0  0  0  0  0  0  0  0  0  0  0  0
  128.6960  122.5190   61.4080 C   0  0  0  0  0  0  0  0  0  0  0  0
  127.8500  123.4510   62.0650 O   0  0  0  0  0  0  0  0  0  0  0  0
  127.5400  123.1270   63.4110 C   0  0  0  0  0  0  0  0  0  0  0  0
  128.8420  122.9910   64.2230 C   0  0  0  0  0  0  0  0  0  0  0  0
  129.8150  124.0560   63.9600 N   0  0  0  0  0  0  0  0  0  0  0  0
  130.5440  124.6990   64.8900 C   0  0  0  0  0  0  0  0  0  0  0  0
  130.4890  124.4360   66.0930 O   0  0  0  0  0  0  0  0  0  0  0  0
  131.4740  125.8000   64.3560 C   0  0  0  0  0  0  0  0  0  0  0  0
  133.1360  125.2410   63.8460 S   0  0  0  0  0  0  0  0  0  0  0  0
  132.9790  124.1240   62.4610 C   0  0  0  0  0  0  0  0  0  0  0  0
  133.2250  124.6640   61.2410 N   0  0  0  0  0  0  0  0  0  0  0  0
  133.1200  123.8760   60.1480 C   0  0  0  0  0  0  0  0  0  0  0  0
  133.4080  124.5500   58.8200 C   0  0  0  0  0  0  0  0  0  0  0  0
  132.7680  122.5310   60.2230 C   0  0  0  0  0  0  0  0  0  0  0  0
  132.5030  121.9530   61.4720 C   0  0  0  0  0  0  0  0  0  0  0  0
  132.1060  120.5140   61.5020 C   0  0  0  0  0  0  0  0  0  0  0  0
  133.0620  119.5160   61.2770 C   0  0  0  0  0  0  0  0  0  0  0  0
  132.6970  118.1710   61.2940 C   0  0  0  0  0  0  0  0  0  0  0  0
  131.3710  117.8200   61.5310 C   0  0  0  0  0  0  0  0  0  0  0  0
  130.4060  118.8020   61.7480 C   0  0  0  0  0  0  0  0  0  0  0  0
  130.7740  120.1440   61.7300 C   0  0  0  0  0  0  0  0  0  0  0  0
  132.6220  122.7660   62.6290 C   0  0  0  0  0  0  0  0  0  0  0  0
  132.3970  122.2040   63.9660 C   0  0  0  0  0  0  0  0  0  0  0  0
  132.2200  121.7610   65.0200 N   0  0  0  0  0  0  0  0  0  0  0  0
  1  2  1  0
  2  3  1  0
  3  4  1  0
  4  5  1  0
  5  6  1  0
  6  7  1  0
  7  8  1  0
  8  9  1  0
  9 10  1  0
 10 11  1  0
 11 12  1  0
 12 13  2  0
 12 14  1  0
 14 15  1  0
 15 16  1  0
 16 17  2  0
 17 18  1  0
 18 19  1  0
 18 20  2  0
 20 21  1  0
 21 22  1  0
 22 23  2  0
 23 24  1  0
 24 25  2  0
 25 26  1  0
 26 27  2  0
 21 28  2  0
 28 29  1  0
 29 30  3  0
 28 16  1  0
 27 22  1  0
M  END
>  <Binding energies>  (36) 
[-7.59]

>  <Ligand effiencies>  (36) 
[-0.24483870967741936]

>  <Interactions>  (36) 
["V-B:ALA:541:CB:9863, V-B:TYR:539:CE2:9847, V-A:ILE:369:CG2:3236, V-B:PRO:540:CB:9856, H-B:ALA:541:N:9862, V-B:MET:535:CE:9806, V-B:PRO:540:CA:9854, V-A:SER:385:CA:3406, V-B:TYR:539:CD2:9845, H-A:ARG:545:NH2:4927, V-B:LEU:363:CD1:8159, V-A:SER:385:CB:3408, V-A:LEU:475:CD2:4258, V-B:TYR:539:C:9838, V-A:ILE:369:CD1:3238, V-A:ASP:366:CG:3212, V-B:PRO:540:N:9855, V-B:PRO:540:CD:9858, V-B:GLU:543:CD:9879, V-A:ASP:366:CB:3211, V-B:TYR:539:CG:9843, H-B:TYR:539:N:9841, V-B:TYR:539:CZ:9848, V-A:ASP:366:CA:3209, V-A:ILE:369:CB:3235, H-A:TYR:484:OH:4347, H-A:GLY:454:N:4049, V-B:ALA:541:CA:9861, V-B:GLU:543:CG:9878, V-B:TYR:539:CE1:9846, V-B:TYR:539:CD1:9844, V-B:ALA:541:C:9859, V-B:TYR:539:CA:9840, V-A:GLY:454:CA:4048, V-A:PRO:482:CB:4325"]

$$$$
4aa_Grossjean_2025
     RDKit          3D

 26 28  0  0  0  0  0  0  0  0999 V2000
  123.9920  124.5770   57.6340 C   0  0  0  0  0  0  0  0  0  0  0  0
  124.7200  123.2320   57.5460 C   0  0  0  0  0  0  0  0  0  0  0  0
  125.6310  123.2580   56.4540 O   0  0  0  0  0  0  0  0  0  0  0  0
  126.8440  122.6540   56.5390 C   0  0  0  0  0  0  0  0  0  0  0  0
  127.2110  121.7530   55.7760 O   0  0  0  0  0  0  0  0  0  0  0  0
  127.6950  123.1850   57.6550 C   0  0  0  0  0  0  0  0  0  0  0  0
  127.5280  122.6710   58.9480 C   0  0  0  0  0  0  0  0  0  0  0  0
  128.2980  123.1470   60.0050 C   0  0  0  0  0  0  0  0  0  0  0  0
  129.2570  124.1380   59.7910 C   0  0  0  0  0  0  0  0  0  0  0  0
  129.9740  124.5520   60.9310 N   0  0  0  0  0  0  0  0  0  0  0  0
  130.4760  125.7680   61.2530 C   0  0  0  0  0  0  0  0  0  0  0  0
  130.4130  126.7580   60.5240 O   0  0  0  0  0  0  0  0  0  0  0  0
  131.1460  125.8430   62.5530 C   0  0  0  0  0  0  0  0  0  0  0  0
  132.8120  125.2840   62.7290 S   0  0  0  0  0  0  0  0  0  0  0  0
  132.8040  125.6540   64.4380 C   0  0  0  0  0  0  0  0  0  0  0  0
  133.8700  125.4400   65.2120 N   0  0  0  0  0  0  0  0  0  0  0  0
  133.7310  125.7660   66.5200 C   0  0  0  0  0  0  0  0  0  0  0  0
  134.9530  125.5090   67.3830 C   0  0  0  0  0  0  0  0  0  0  0  0
  132.5650  126.2990   67.0660 C   0  0  0  0  0  0  0  0  0  0  0  0
  131.4500  126.5240   66.2520 C   0  0  0  0  0  0  0  0  0  0  0  0
  130.2000  127.1070   66.8940 C   0  0  0  0  0  0  0  0  0  0  0  0
  131.5560  126.1900   64.8750 C   0  0  0  0  0  0  0  0  0  0  0  0
  130.6270  126.2830   63.7800 C   0  0  0  0  0  0  0  0  0  0  0  0
  129.3520  126.7650   63.9420 N   0  0  0  0  0  0  0  0  0  0  0  0
  129.4290  124.6630   58.5020 C   0  0  0  0  0  0  0  0  0  0  0  0
  128.6540  124.1880   57.4460 C   0  0  0  0  0  0  0  0  0  0  0  0
  1  2  1  0
  2  3  1  0
  3  4  1  0
  4  5  2  0
  4  6  1  0
  6  7  2  0
  7  8  1  0
  8  9  2  0
  9 10  1  0
 10 11  1  0
 11 12  2  0
 11 13  1  0
 13 14  1  0
 14 15  1  0
 15 16  2  0
 16 17  1  0
 17 18  1  0
 17 19  2  0
 19 20  1  0
 20 21  1  0
 20 22  2  0
 22 23  1  0
 23 24  1  0
  9 25  1  0
 25 26  2  0
 26  6  1  0
 23 13  2  0
 22 15  1  0
M  END
>  <Binding energies>  (37) 
[-8.28]

>  <Ligand effiencies>  (37) 
[-0.28551724137931034]

>  <Interactions>  (37) 
["V-B:TYR:539:CE2:9847, V-B:ASP:366:CB:8182, V-B:PRO:540:CB:9856, V-B:MET:535:CE:9806, V-B:PRO:540:CA:9854, V-B:TYR:531:CZ:9765, V-A:GLY:453:CA:4043, H-A:ARG:545:NH2:4927, V-A:GLY:453:C:4041, V-B:TYR:531:CE2:9764, V-A:ARG:545:CZ:4925, V-B:LEU:363:CD1:8159, V-B:TYR:539:C:9838, H-A:ARG:545:NE:4923, V-A:ASP:366:CG:3212, V-A:HIS:456:CE1:4069, V-B:PRO:540:N:9855, V-B:GLU:543:CD:9879, V-A:GLU:543:CD:4907, H-B:GLU:543:OE1:9880, H-B:TYR:539:N:9841, V-B:TYR:539:CZ:9848, H-B:GLU:543:OE2:9881, H-A:TYR:484:OH:4347, H-A:GLY:454:N:4049, H-B:TYR:531:OH:9766, V-A:ARG:545:CD:4922, V-A:ARG:545:CG:4921, V-A:GLY:454:CA:4048, V-A:ILE:455:C:4051, V-A:GLY:454:C:4046"]

$$$$
4ab_Grossjean_2025
     RDKit          3D

 25 27  0  0  0  0  0  0  0  0999 V2000
  124.8480  123.5260   57.1490 C   0  0  0  0  0  0  0  0  0  0  0  0
  125.8730  123.4240   56.1720 O   0  0  0  0  0  0  0  0  0  0  0  0
  126.9900  122.6890   56.4040 C   0  0  0  0  0  0  0  0  0  0  0  0
  127.3760  121.7820   55.6590 O   0  0  0  0  0  0  0  0  0  0  0  0
  127.7070  123.0830   57.6630 C   0  0  0  0  0  0  0  0  0  0  0  0
  128.7130  124.0570   57.6000 C   0  0  0  0  0  0  0  0  0  0  0  0
  129.3970  124.4430   58.7500 C   0  0  0  0  0  0  0  0  0  0  0  0
  129.0870  123.8710   59.9830 C   0  0  0  0  0  0  0  0  0  0  0  0
  129.8460  124.3290   61.0770 N   0  0  0  0  0  0  0  0  0  0  0  0
  130.4910  125.5070   61.2600 C   0  0  0  0  0  0  0  0  0  0  0  0
  130.5460  126.4050   60.4190 O   0  0  0  0  0  0  0  0  0  0  0  0
  131.1650  125.6550   62.5510 C   0  0  0  0  0  0  0  0  0  0  0  0
  132.8370  125.1240   62.7480 S   0  0  0  0  0  0  0  0  0  0  0  0
  132.8340  125.5810   64.4370 C   0  0  0  0  0  0  0  0  0  0  0  0
  133.9040  125.4170   65.2150 N   0  0  0  0  0  0  0  0  0  0  0  0
  133.7680  125.8100   66.5050 C   0  0  0  0  0  0  0  0  0  0  0  0
  134.9950  125.6090   67.3750 C   0  0  0  0  0  0  0  0  0  0  0  0
  132.6010  126.3610   67.0290 C   0  0  0  0  0  0  0  0  0  0  0  0
  131.4790  126.5320   66.2090 C   0  0  0  0  0  0  0  0  0  0  0  0
  130.2280  127.1370   66.8270 C   0  0  0  0  0  0  0  0  0  0  0  0
  131.5820  126.1280   64.8500 C   0  0  0  0  0  0  0  0  0  0  0  0
  130.6470  126.1530   63.7570 C   0  0  0  0  0  0  0  0  0  0  0  0
  129.3670  126.6280   63.9000 N   0  0  0  0  0  0  0  0  0  0  0  0
  128.0850  122.8910   60.0560 C   0  0  0  0  0  0  0  0  0  0  0  0
  127.4030  122.5050   58.9050 C   0  0  0  0  0  0  0  0  0  0  0  0
  1  2  1  0
  2  3  1  0
  3  4  2  0
  3  5  1  0
  5  6  2  0
  6  7  1  0
  7  8  2  0
  8  9  1  0
  9 10  1  0
 10 11  2  0
 10 12  1  0
 12 13  1  0
 13 14  1  0
 14 15  2  0
 15 16  1  0
 16 17  1  0
 16 18  2  0
 18 19  1  0
 19 20  1  0
 19 21  2  0
 21 22  1  0
 22 23  1  0
  8 24  1  0
 24 25  2  0
 25  5  1  0
 22 12  2  0
 21 14  1  0
M  END
>  <Binding energies>  (38) 
[-7.95]

>  <Ligand effiencies>  (38) 
[-0.2839285714285714]

>  <Interactions>  (38) 
["V-B:TYR:539:CE2:9847, V-B:PRO:540:CB:9856, V-B:MET:535:CE:9806, V-B:PRO:540:CA:9854, V-B:TYR:531:CZ:9765, V-A:GLY:453:CA:4043, V-B:TYR:539:CD2:9845, V-A:GLY:453:C:4041, V-B:TYR:531:CE2:9764, V-A:ARG:545:CZ:4925, V-B:LEU:363:CD1:8159, V-B:TYR:539:C:9838, H-A:ARG:545:NE:4923, V-A:ASP:366:CG:3212, V-A:HIS:456:CE1:4069, V-B:PRO:540:N:9855, V-B:GLU:543:CD:9879, V-A:GLU:543:CD:4907, H-B:GLU:543:OE1:9880, H-B:TYR:539:N:9841, V-B:TYR:539:CZ:9848, H-B:GLU:543:OE2:9881, H-A:TYR:484:OH:4347, H-A:GLY:454:N:4049, H-B:TYR:531:OH:9766, V-A:ARG:545:CD:4922, V-A:ARG:545:CG:4921, V-A:GLY:454:CA:4048, V-A:ARG:545:CB:4920, V-A:ILE:455:C:4051"]

$$$$
4ac_Grossjean_2025
     RDKit          3D

 23 25  0  0  0  0  0  0  0  0999 V2000
  133.6420  125.9200   66.7700 C   0  0  0  0  0  0  0  0  0  0  0  0
  133.9070  125.5080   65.4330 O   0  0  0  0  0  0  0  0  0  0  0  0
  132.8490  125.2250   64.5920 C   0  0  0  0  0  0  0  0  0  0  0  0
  133.1730  124.7110   63.3370 C   0  0  0  0  0  0  0  0  0  0  0  0
  132.1730  124.3950   62.4210 C   0  0  0  0  0  0  0  0  0  0  0  0
  130.8310  124.5820   62.7540 C   0  0  0  0  0  0  0  0  0  0  0  0
  129.8910  124.2480   61.7610 N   0  0  0  0  0  0  0  0  0  0  0  0
  128.6080  123.8370   61.8990 C   0  0  0  0  0  0  0  0  0  0  0  0
  128.0560  123.6530   62.9860 O   0  0  0  0  0  0  0  0  0  0  0  0
  127.8850  123.6040   60.6460 C   0  0  0  0  0  0  0  0  0  0  0  0
  128.6950  122.8440   59.2760 S   0  0  0  0  0  0  0  0  0  0  0  0
  127.2480  122.9480   58.3000 C   0  0  0  0  0  0  0  0  0  0  0  0
  127.2080  122.5000   57.0450 N   0  0  0  0  0  0  0  0  0  0  0  0
  126.0260  122.6410   56.3990 C   0  0  0  0  0  0  0  0  0  0  0  0
  126.0020  122.1240   54.9730 C   0  0  0  0  0  0  0  0  0  0  0  0
  124.8930  123.2160   56.9730 C   0  0  0  0  0  0  0  0  0  0  0  0
  124.9380  123.6860   58.2910 C   0  0  0  0  0  0  0  0  0  0  0  0
  123.6760  124.3050   58.8720 C   0  0  0  0  0  0  0  0  0  0  0  0
  126.1610  123.5530   59.0000 C   0  0  0  0  0  0  0  0  0  0  0  0
  126.5510  123.9150   60.3370 C   0  0  0  0  0  0  0  0  0  0  0  0
  125.6830  124.5130   61.2150 N   0  0  0  0  0  0  0  0  0  0  0  0
  130.4970  125.1110   64.0100 C   0  0  0  0  0  0  0  0  0  0  0  0
  131.5000  125.4260   64.9230 C   0  0  0  0  0  0  0  0  0  0  0  0
  1  2  1  0
  2  3  1  0
  3  4  2  0
  4  5  1  0
  5  6  2  0
  6  7  1  0
  7  8  1  0
  8  9  2  0
  8 10  1  0
 10 11  1  0
 11 12  1  0
 12 13  2  0
 13 14  1  0
 14 15  1  0
 14 16  2  0
 16 17  1  0
 17 18  1  0
 17 19  2  0
 19 20  1  0
 20 21  1  0
  6 22  1  0
 22 23  2  0
 23  3  1  0
 20 10  2  0
 19 12  1  0
M  END
>  <Binding energies>  (39) 
[-7.39]

>  <Ligand effiencies>  (39) 
[-0.28423076923076923]

>  <Interactions>  (39) 
["V-B:TYR:539:CE2:9847, V-B:ASP:366:CB:8182, V-B:PRO:540:CB:9856, V-B:MET:535:CE:9806, V-B:PRO:540:CA:9854, V-B:TYR:531:CZ:9765, V-B:TYR:539:CD2:9845, V-B:LEU:363:CA:8155, V-B:TYR:531:CE2:9764, V-A:ARG:545:CZ:4925, V-B:LEU:363:CD1:8159, V-B:TYR:539:C:9838, H-A:ARG:545:NE:4923, V-B:ASP:366:CG:8183, V-B:PRO:540:N:9855, V-B:PRO:540:CD:9858, H-B:GLU:543:OE1:9880, H-B:TYR:539:N:9841, H-A:TYR:484:OH:4347, H-A:GLY:454:N:4049, V-A:ARG:545:CD:4922, V-A:ARG:545:CG:4921, V-B:ILE:538:CD1:9836, V-B:ILE:538:CG2:9834, H-B:ASP:366:OD1:8184, V-B:ILE:538:CA:9831, V-B:ILE:538:C:9829, V-B:MET:535:CG:9804, V-B:ILE:538:CB:9833, V-B:ILE:538:CG1:9835"]

$$$$
4ad_Grossjean_2025
     RDKit          3D

 21 23  0  0  0  0  0  0  0  0999 V2000
  126.2010  122.1300   54.6600 C   0  0  0  0  0  0  0  0  0  0  0  0
  126.0510  122.5860   56.0990 C   0  0  0  0  0  0  0  0  0  0  0  0
  124.8800  123.2010   56.5390 C   0  0  0  0  0  0  0  0  0  0  0  0
  124.7650  123.6150   57.8710 C   0  0  0  0  0  0  0  0  0  0  0  0
  123.4700  124.2850   58.3040 C   0  0  0  0  0  0  0  0  0  0  0  0
  125.8700  123.3860   58.7350 C   0  0  0  0  0  0  0  0  0  0  0  0
  126.0900  123.6740   60.1260 C   0  0  0  0  0  0  0  0  0  0  0  0
  125.1390  124.2830   60.9060 N   0  0  0  0  0  0  0  0  0  0  0  0
  127.3510  123.2780   60.6000 C   0  0  0  0  0  0  0  0  0  0  0  0
  127.9100  123.4310   61.9440 C   0  0  0  0  0  0  0  0  0  0  0  0
  127.3830  122.8750   62.9100 O   0  0  0  0  0  0  0  0  0  0  0  0
  129.0230  124.2000   62.0270 N   0  0  0  0  0  0  0  0  0  0  0  0
  129.7690  124.5760   63.1610 C   0  0  0  0  0  0  0  0  0  0  0  0
  130.5730  125.7110   63.0150 C   0  0  0  0  0  0  0  0  0  0  0  0
  131.3410  126.1690   64.0820 C   0  0  0  0  0  0  0  0  0  0  0  0
  131.3000  125.4960   65.3000 C   0  0  0  0  0  0  0  0  0  0  0  0
  130.4940  124.3720   65.4620 C   0  0  0  0  0  0  0  0  0  0  0  0
  129.7250  123.9120   64.3970 C   0  0  0  0  0  0  0  0  0  0  0  0
  128.3030  122.5250   59.3190 S   0  0  0  0  0  0  0  0  0  0  0  0
  127.0120  122.7480   58.1620 C   0  0  0  0  0  0  0  0  0  0  0  0
  127.1230  122.3510   56.8930 N   0  0  0  0  0  0  0  0  0  0  0  0
  1  2  1  0
  2  3  2  0
  3  4  1  0
  4  5  1  0
  4  6  2  0
  6  7  1  0
  7  8  1  0
  7  9  2  0
  9 10  1  0
 10 11  2  0
 10 12  1  0
 12 13  1  0
 13 14  2  0
 14 15  1  0
 15 16  2  0
 16 17  1  0
 17 18  2  0
  9 19  1  0
 19 20  1  0
 20 21  2  0
 21  2  1  0
 20  6  1  0
 18 13  1  0
M  END
>  <Binding energies>  (40) 
[-7.01]

>  <Ligand effiencies>  (40) 
[-0.2920833333333333]

>  <Interactions>  (40) 
["V-B:TYR:539:CE2:9847, V-B:ASP:366:CB:8182, V-B:PRO:540:CB:9856, H-B:ALA:541:N:9862, V-B:MET:535:CE:9806, V-B:PRO:540:CA:9854, V-B:TYR:531:CZ:9765, V-B:TYR:539:CD2:9845, V-B:LEU:363:CA:8155, V-B:TYR:531:CE2:9764, V-B:LEU:363:CD1:8159, V-B:TYR:539:C:9838, V-B:ASP:366:CG:8183, V-B:PRO:540:N:9855, V-B:GLU:543:CD:9879, H-B:TYR:539:N:9841, V-A:TYR:484:CZ:4346, V-B:ILE:538:CD1:9836, V-B:ILE:538:CG2:9834, H-B:ASP:366:OD1:8184, V-B:ILE:538:CA:9831, V-B:ILE:538:C:9829, V-A:TYR:484:CE2:4345, V-B:MET:535:CG:9804, V-B:ILE:538:CB:9833, V-B:LEU:363:CB:8157, V-B:ILE:538:CG1:9835, V-B:VAL:537:C:9821"]

$$$$
4ae_Grossjean_2025
     RDKit          3D

 22 24  0  0  0  0  0  0  0  0999 V2000
  121.5640  131.5390   62.4930 C   0  0  0  0  0  0  0  0  0  0  0  0
  122.8650  130.7640   62.4270 C   0  0  0  0  0  0  0  0  0  0  0  0
  123.5010  130.5050   61.2100 C   0  0  0  0  0  0  0  0  0  0  0  0
  124.6920  129.7780   61.2250 C   0  0  0  0  0  0  0  0  0  0  0  0
  125.2120  129.3320   62.4420 C   0  0  0  0  0  0  0  0  0  0  0  0
  124.5290  129.6340   63.6250 C   0  0  0  0  0  0  0  0  0  0  0  0
  125.0910  129.1400   64.8150 N   0  0  0  0  0  0  0  0  0  0  0  0
  124.8850  129.5610   66.0880 C   0  0  0  0  0  0  0  0  0  0  0  0
  124.1370  130.4920   66.3900 O   0  0  0  0  0  0  0  0  0  0  0  0
  125.6260  128.8280   67.1180 C   0  0  0  0  0  0  0  0  0  0  0  0
  124.8680  128.4600   68.6680 S   0  0  0  0  0  0  0  0  0  0  0  0
  126.3230  127.6870   69.2510 C   0  0  0  0  0  0  0  0  0  0  0  0
  126.4000  127.1560   70.4710 N   0  0  0  0  0  0  0  0  0  0  0  0
  127.5870  126.5920   70.8020 C   0  0  0  0  0  0  0  0  0  0  0  0
  127.6550  126.0000   72.1980 C   0  0  0  0  0  0  0  0  0  0  0  0
  128.6870  126.5440   69.9480 C   0  0  0  0  0  0  0  0  0  0  0  0
  128.6030  127.1020   68.6660 C   0  0  0  0  0  0  0  0  0  0  0  0
  129.8310  127.0280   67.7720 C   0  0  0  0  0  0  0  0  0  0  0  0
  127.3730  127.7040   68.2850 C   0  0  0  0  0  0  0  0  0  0  0  0
  126.9490  128.3600   67.0760 C   0  0  0  0  0  0  0  0  0  0  0  0
  127.7760  128.5060   65.9920 N   0  0  0  0  0  0  0  0  0  0  0  0
  123.3600  130.3380   63.6170 N   0  0  0  0  0  0  0  0  0  0  0  0
  1  2  1  0
  2  3  2  0
  3  4  1  0
  4  5  2  0
  5  6  1  0
  6  7  1  0
  7  8  1  0
  8  9  2  0
  8 10  1  0
 10 11  1  0
 11 12  1  0
 12 13  2  0
 13 14  1  0
 14 15  1  0
 14 16  2  0
 16 17  1  0
 17 18  1  0
 17 19  2  0
 19 20  1  0
 20 21  1  0
  6 22  2  0
 22  2  1  0
 20 10  2  0
 19 12  1  0
M  END
>  <Binding energies>  (41) 
[-7.24]

>  <Ligand effiencies>  (41) 
[-0.2896]

>  <Interactions>  (41) 
["V-B:ASP:366:CB:8182, V-A:HIS:456:CE1:4069, V-B:GLY:544:C:9883, V-B:GLU:543:CB:9877, V-B:GLU:543:C:9873, V-B:HIS:456:CE1:9040, V-B:GLY:544:CA:9885, V-B:ASP:366:CG:8183, V-B:ILE:369:CG1:8208, V-B:GLY:453:CA:9014, V-B:GLY:453:C:9012, V-B:GLU:543:CD:9879, V-B:ARG:545:CG:9893, H-B:HIS:456:ND1:9037, H-B:GLY:454:N:9020, V-B:ARG:545:CA:9890, V-B:ARG:545:CD:9894, V-B:ARG:545:CB:9892, H-B:TYR:484:OH:9318, V-B:ARG:545:CZ:9897, H-B:GLU:543:OE1:9880, H-B:GLU:543:OE2:9881, H-B:ARG:545:N:9891"]

$$$$
4af_Grossjean_2025
     RDKit          3D

 21 23  0  0  0  0  0  0  0  0999 V2000
  126.3550  122.1280   54.9740 C   0  0  0  0  0  0  0  0  0  0  0  0
  126.1800  122.6020   56.4060 C   0  0  0  0  0  0  0  0  0  0  0  0
  125.0010  123.2200   56.8180 C   0  0  0  0  0  0  0  0  0  0  0  0
  124.8630  123.6510   58.1430 C   0  0  0  0  0  0  0  0  0  0  0  0
  123.5590  124.3220   58.5450 C   0  0  0  0  0  0  0  0  0  0  0  0
  125.9550  123.4360   59.0270 C   0  0  0  0  0  0  0  0  0  0  0  0
  126.1510  123.7460   60.4180 C   0  0  0  0  0  0  0  0  0  0  0  0
  125.1880  124.3690   61.1730 N   0  0  0  0  0  0  0  0  0  0  0  0
  127.4030  123.3550   60.9190 C   0  0  0  0  0  0  0  0  0  0  0  0
  127.9440  123.5410   62.2670 C   0  0  0  0  0  0  0  0  0  0  0  0
  127.5090  122.8830   63.2130 O   0  0  0  0  0  0  0  0  0  0  0  0
  128.9400  124.4550   62.3710 N   0  0  0  0  0  0  0  0  0  0  0  0
  129.6320  124.8980   63.5140 C   0  0  0  0  0  0  0  0  0  0  0  0
  130.1570  126.1900   63.6990 C   0  0  0  0  0  0  0  0  0  0  0  0
  130.8400  126.4950   64.8780 C   0  0  0  0  0  0  0  0  0  0  0  0
  130.9860  125.4990   65.8440 C   0  0  0  0  0  0  0  0  0  0  0  0
  130.4960  124.2440   65.6860 N   0  0  0  0  0  0  0  0  0  0  0  0
  129.8350  123.9620   64.5350 C   0  0  0  0  0  0  0  0  0  0  0  0
  128.3790  122.5880   59.6640 S   0  0  0  0  0  0  0  0  0  0  0  0
  127.1060  122.7920   58.4820 C   0  0  0  0  0  0  0  0  0  0  0  0
  127.2400  122.3790   57.2210 N   0  0  0  0  0  0  0  0  0  0  0  0
  1  2  1  0
  2  3  2  0
  3  4  1  0
  4  5  1  0
  4  6  2  0
  6  7  1  0
  7  8  1  0
  7  9  2  0
  9 10  1  0
 10 11  2  0
 10 12  1  0
 12 13  1  0
 13 14  2  0
 14 15  1  0
 15 16  2  0
 16 17  1  0
 17 18  2  0
  9 19  1  0
 19 20  1  0
 20 21  2  0
 21  2  1  0
 20  6  1  0
 18 13  1  0
M  END
>  <Binding energies>  (42) 
[-7.29]

>  <Ligand effiencies>  (42) 
[-0.30375]

>  <Interactions>  (42) 
["V-B:TYR:539:CE2:9847, V-B:ASP:366:CB:8182, V-B:PRO:540:CB:9856, H-B:ALA:541:N:9862, V-B:MET:535:CE:9806, V-B:PRO:540:CA:9854, V-B:TYR:531:CZ:9765, V-B:TYR:539:CD2:9845, V-B:LEU:363:CA:8155, V-B:TYR:531:CE2:9764, V-B:LEU:363:CD1:8159, V-B:TYR:539:C:9838, V-B:ASP:366:CG:8183, V-B:PRO:540:N:9855, V-B:PRO:540:CD:9858, V-B:GLU:543:CD:9879, H-B:GLU:543:OE1:9880, H-B:TYR:539:N:9841, H-A:TYR:484:OH:4347, V-B:ILE:538:CD1:9836, V-B:ILE:538:CG2:9834, H-B:ASP:366:OD1:8184, V-B:ILE:538:CA:9831, V-B:ILE:538:C:9829, V-B:MET:535:CG:9804, V-B:ILE:538:CB:9833, V-B:LEU:363:CB:8157, V-B:VAL:537:C:9821"]

$$$$
4ag_Grossjean_2025
     RDKit          3D

 22 24  0  0  0  0  0  0  0  0999 V2000
  126.3740  122.1330   54.7860 C   0  0  0  0  0  0  0  0  0  0  0  0
  126.1680  122.5840   56.2200 C   0  0  0  0  0  0  0  0  0  0  0  0
  124.9840  123.2060   56.6130 C   0  0  0  0  0  0  0  0  0  0  0  0
  124.8140  123.6130   57.9410 C   0  0  0  0  0  0  0  0  0  0  0  0
  123.5040  124.2870   58.3210 C   0  0  0  0  0  0  0  0  0  0  0  0
  125.8780  123.3700   58.8500 C   0  0  0  0  0  0  0  0  0  0  0  0
  126.0380  123.6500   60.2510 C   0  0  0  0  0  0  0  0  0  0  0  0
  125.0610  124.2660   60.9930 N   0  0  0  0  0  0  0  0  0  0  0  0
  127.2730  123.2400   60.7760 C   0  0  0  0  0  0  0  0  0  0  0  0
  127.7600  123.3570   62.1500 C   0  0  0  0  0  0  0  0  0  0  0  0
  127.0000  123.2410   63.1140 O   0  0  0  0  0  0  0  0  0  0  0  0
  129.0770  123.6170   62.2930 N   0  0  0  0  0  0  0  0  0  0  0  0
  129.7810  123.7480   63.5680 C   0  0  0  0  0  0  0  0  0  0  0  0
  131.2500  124.1310   63.4270 C   0  0  0  0  0  0  0  0  0  0  0  0
  131.7930  125.1210   64.2510 C   0  0  0  0  0  0  0  0  0  0  0  0
  133.1400  125.4550   64.1420 C   0  0  0  0  0  0  0  0  0  0  0  0
  133.9430  124.7910   63.2170 C   0  0  0  0  0  0  0  0  0  0  0  0
  133.4130  123.7920   62.4040 C   0  0  0  0  0  0  0  0  0  0  0  0
  132.0660  123.4570   62.5140 C   0  0  0  0  0  0  0  0  0  0  0  0
  128.2730  122.4800   59.5390 S   0  0  0  0  0  0  0  0  0  0  0  0
  127.0370  122.7250   58.3250 C   0  0  0  0  0  0  0  0  0  0  0  0
  127.2020  122.3340   57.0600 N   0  0  0  0  0  0  0  0  0  0  0  0
  1  2  1  0
  2  3  2  0
  3  4  1  0
  4  5  1  0
  4  6  2  0
  6  7  1  0
  7  8  1  0
  7  9  2  0
  9 10  1  0
 10 11  2  0
 10 12  1  0
 12 13  1  0
 13 14  1  0
 14 15  2  0
 15 16  1  0
 16 17  2  0
 17 18  1  0
 18 19  2  0
  9 20  1  0
 20 21  1  0
 21 22  2  0
 22  2  1  0
 21  6  1  0
 19 14  1  0
M  END
>  <Binding energies>  (43) 
[-7.54]

>  <Ligand effiencies>  (43) 
[-0.3016]

>  <Interactions>  (43) 
["V-B:TYR:539:CE2:9847, V-B:ASP:366:CB:8182, V-B:PRO:540:CB:9856, H-B:ALA:541:N:9862, V-B:MET:535:CE:9806, V-B:PRO:540:CA:9854, V-B:TYR:531:CZ:9765, V-A:GLY:453:CA:4043, V-B:TYR:539:CD2:9845, V-B:LEU:363:CA:8155, V-A:GLY:453:C:4041, V-B:TYR:531:CE2:9764, V-A:ARG:545:CZ:4925, V-B:LEU:363:CD1:8159, V-B:TYR:539:C:9838, V-A:ILE:369:CD1:3238, V-A:ASP:366:CG:3212, V-B:ASP:366:CG:8183, V-B:PRO:540:N:9855, V-B:PRO:540:CD:9858, H-B:TYR:539:N:9841, V-B:ILE:538:CD1:9836, V-B:ILE:538:CG2:9834, H-B:ASP:366:OD1:8184, V-B:ILE:538:CA:9831, V-B:ILE:538:C:9829, V-B:MET:535:CG:9804, V-B:ILE:538:CB:9833, V-B:LEU:363:CB:8157, V-B:ILE:538:CG1:9835, V-B:VAL:537:C:9821"]

$$$$
4ah_Grossjean_2025
     RDKit          3D

 28 30  0  0  0  0  0  0  0  0999 V2000
  134.0440  122.1100   62.3950 C   0  0  0  0  0  0  0  0  0  0  0  0
  133.9780  123.2170   63.2870 O   0  0  0  0  0  0  0  0  0  0  0  0
  132.7550  123.5930   63.8140 C   0  0  0  0  0  0  0  0  0  0  0  0
  131.5750  122.8470   63.6650 C   0  0  0  0  0  0  0  0  0  0  0  0
  130.3750  123.2890   64.2240 C   0  0  0  0  0  0  0  0  0  0  0  0
  129.1140  122.4420   64.0920 C   0  0  0  0  0  0  0  0  0  0  0  0
  128.5160  122.4870   62.7580 N   0  0  0  0  0  0  0  0  0  0  0  0
  127.7620  123.4960   62.2730 C   0  0  0  0  0  0  0  0  0  0  0  0
  127.4670  124.4860   62.9430 O   0  0  0  0  0  0  0  0  0  0  0  0
  127.2720  123.3290   60.9050 C   0  0  0  0  0  0  0  0  0  0  0  0
  128.2840  122.5460   59.6900 S   0  0  0  0  0  0  0  0  0  0  0  0
  127.0670  122.7860   58.4570 C   0  0  0  0  0  0  0  0  0  0  0  0
  127.2420  122.3720   57.2020 N   0  0  0  0  0  0  0  0  0  0  0  0
  126.2220  122.6180   56.3450 C   0  0  0  0  0  0  0  0  0  0  0  0
  126.4430  122.1420   54.9210 C   0  0  0  0  0  0  0  0  0  0  0  0
  125.0420  123.2610   56.7110 C   0  0  0  0  0  0  0  0  0  0  0  0
  124.8600  123.6970   58.0290 C   0  0  0  0  0  0  0  0  0  0  0  0
  123.5550  124.3950   58.3800 C   0  0  0  0  0  0  0  0  0  0  0  0
  125.9110  123.4580   58.9560 C   0  0  0  0  0  0  0  0  0  0  0  0
  126.0600  123.7670   60.3530 C   0  0  0  0  0  0  0  0  0  0  0  0
  125.0890  124.4230   61.0680 N   0  0  0  0  0  0  0  0  0  0  0  0
  130.3550  124.4720   64.9640 C   0  0  0  0  0  0  0  0  0  0  0  0
  131.5180  125.2410   65.1240 C   0  0  0  0  0  0  0  0  0  0  0  0
  131.5660  126.4300   65.8300 O   0  0  0  0  0  0  0  0  0  0  0  0
  130.7250  126.6010   66.9660 C   0  0  0  0  0  0  0  0  0  0  0  0
  132.7110  124.7930   64.5390 C   0  0  0  0  0  0  0  0  0  0  0  0
  133.8610  125.5260   64.7040 O   0  0  0  0  0  0  0  0  0  0  0  0
  134.1840  125.8000   66.0600 C   0  0  0  0  0  0  0  0  0  0  0  0
  1  2  1  0
  2  3  1  0
  3  4  2  0
  4  5  1  0
  5  6  1  0
  6  7  1  0
  7  8  1  0
  8  9  2  0
  8 10  1  0
 10 11  1  0
 11 12  1  0
 12 13  2  0
 13 14  1  0
 14 15  1  0
 14 16  2  0
 16 17  1  0
 17 18  1  0
 17 19  2  0
 19 20  1  0
 20 21  1  0
  5 22  2  0
 22 23  1  0
 23 24  1  0
 24 25  1  0
 23 26  2  0
 26 27  1  0
 27 28  1  0
 26  3  1  0
 20 10  2  0
 19 12  1  0
M  END
>  <Binding energies>  (44) 
[-7.45]

>  <Ligand effiencies>  (44) 
[-0.2403225806451613]

>  <Interactions>  (44) 
["V-B:ALA:541:CB:9863, V-B:TYR:539:CE2:9847, V-B:ASP:366:CB:8182, V-B:PRO:540:CB:9856, V-B:MET:535:CE:9806, V-B:PRO:540:CA:9854, V-B:TYR:531:CZ:9765, V-A:GLY:453:CA:4043, V-B:TYR:539:CD2:9845, H-A:ARG:545:NH2:4927, V-B:LEU:363:CA:8155, V-A:GLY:453:C:4041, V-B:TYR:531:CE2:9764, V-A:ARG:545:CZ:4925, V-B:LEU:363:CD1:8159, V-A:LEU:475:CD2:4258, V-B:TYR:539:C:9838, H-A:ARG:545:NE:4923, V-A:ILE:369:CD1:3238, V-B:ASP:366:CG:8183, V-B:PRO:540:N:9855, V-B:PRO:540:CD:9858, V-B:GLU:543:CD:9879, H-B:TYR:539:O:9839, H-B:GLU:543:OE1:9880, H-B:TYR:539:N:9841, H-A:TYR:484:OH:4347, H-A:GLY:454:N:4049, V-B:ALA:541:CA:9861, V-A:ARG:545:CD:4922, V-A:ARG:545:CG:4921, V-B:ILE:538:CD1:9836, V-B:ILE:538:CG2:9834, H-B:ASP:366:OD1:8184, V-B:ILE:538:CA:9831, V-B:ILE:538:C:9829, V-A:GLY:454:CA:4048, V-B:MET:535:CG:9804, V-B:ILE:538:CB:9833, H-A:ARG:545:NH1:4926, V-B:VAL:537:C:9821"]

$$$$
4ai_Grossjean_2025
     RDKit          3D

 20 22  0  0  0  0  0  0  0  0999 V2000
  126.4370  122.1250   54.8950 C   0  0  0  0  0  0  0  0  0  0  0  0
  126.1880  122.6060   56.3130 C   0  0  0  0  0  0  0  0  0  0  0  0
  124.9910  123.2310   56.6580 C   0  0  0  0  0  0  0  0  0  0  0  0
  124.7790  123.6610   57.9730 C   0  0  0  0  0  0  0  0  0  0  0  0
  123.4560  124.3360   58.3010 C   0  0  0  0  0  0  0  0  0  0  0  0
  125.8160  123.4360   58.9190 C   0  0  0  0  0  0  0  0  0  0  0  0
  125.9320  123.7390   60.3200 C   0  0  0  0  0  0  0  0  0  0  0  0
  124.9340  124.3730   61.0170 N   0  0  0  0  0  0  0  0  0  0  0  0
  127.1440  123.3250   60.8950 C   0  0  0  0  0  0  0  0  0  0  0  0
  127.5960  123.4810   62.2790 C   0  0  0  0  0  0  0  0  0  0  0  0
  126.8400  123.2310   63.2200 O   0  0  0  0  0  0  0  0  0  0  0  0
  128.8800  123.8940   62.4280 N   0  0  0  0  0  0  0  0  0  0  0  0
  129.5640  124.1130   63.6170 C   0  0  0  0  0  0  0  0  0  0  0  0
  130.3910  125.2150   63.8280 C   0  0  0  0  0  0  0  0  0  0  0  0
  130.8740  125.0610   65.1070 C   0  0  0  0  0  0  0  0  0  0  0  0
  130.3630  123.9260   65.6390 O   0  0  0  0  0  0  0  0  0  0  0  0
  129.5330  123.3340   64.6860 N   0  0  0  0  0  0  0  0  0  0  0  0
  128.1910  122.5640   59.6950 S   0  0  0  0  0  0  0  0  0  0  0  0
  126.9920  122.7850   58.4390 C   0  0  0  0  0  0  0  0  0  0  0  0
  127.1980  122.3760   57.1870 N   0  0  0  0  0  0  0  0  0  0  0  0
  1  2  1  0
  2  3  2  0
  3  4  1  0
  4  5  1  0
  4  6  2  0
  6  7  1  0
  7  8  1  0
  7  9  2  0
  9 10  1  0
 10 11  2  0
 10 12  1  0
 12 13  1  0
 13 14  1  0
 14 15  2  0
 15 16  1  0
 16 17  1  0
  9 18  1  0
 18 19  1  0
 19 20  2  0
 20  2  1  0
 19  6  1  0
 17 13  2  0
M  END
>  <Binding energies>  (45) 
[-7.14]

>  <Ligand effiencies>  (45) 
[-0.3104347826086956]

>  <Interactions>  (45) 
["V-B:TYR:539:CE2:9847, V-B:ASP:366:CB:8182, V-B:PRO:540:CB:9856, H-B:ALA:541:N:9862, V-B:MET:535:CE:9806, V-B:PRO:540:CA:9854, V-B:TYR:531:CZ:9765, V-B:TYR:539:CD2:9845, V-B:LEU:363:CA:8155, V-B:TYR:531:CE2:9764, V-B:LEU:363:CD1:8159, V-B:TYR:539:C:9838, V-B:ASP:366:CG:8183, V-B:PRO:540:N:9855, V-B:PRO:540:CD:9858, V-B:GLU:543:CD:9879, H-B:TYR:539:N:9841, H-A:TYR:484:OH:4347, V-B:ILE:538:CD1:9836, V-B:ILE:538:CG2:9834, H-B:ASP:366:OD1:8184, V-B:ILE:538:CA:9831, V-B:ILE:538:C:9829, V-B:MET:535:CG:9804, V-B:ILE:538:CB:9833, V-B:LEU:363:CB:8157, V-B:VAL:537:C:9821"]

$$$$
4aj_Grossjean_2025
     RDKit          3D

 20 22  0  0  0  0  0  0  0  0999 V2000
  126.3820  122.1230   54.7000 C   0  0  0  0  0  0  0  0  0  0  0  0
  126.1320  122.5930   56.1210 C   0  0  0  0  0  0  0  0  0  0  0  0
  124.9470  123.2400   56.4650 C   0  0  0  0  0  0  0  0  0  0  0  0
  124.7400  123.6700   57.7810 C   0  0  0  0  0  0  0  0  0  0  0  0
  123.4300  124.3720   58.1050 C   0  0  0  0  0  0  0  0  0  0  0  0
  125.7670  123.4210   58.7290 C   0  0  0  0  0  0  0  0  0  0  0  0
  125.8860  123.7200   60.1310 C   0  0  0  0  0  0  0  0  0  0  0  0
  124.8990  124.3690   60.8270 N   0  0  0  0  0  0  0  0  0  0  0  0
  127.0890  123.2830   60.7070 C   0  0  0  0  0  0  0  0  0  0  0  0
  127.5410  123.4280   62.0930 C   0  0  0  0  0  0  0  0  0  0  0  0
  127.0150  124.2520   62.8440 O   0  0  0  0  0  0  0  0  0  0  0  0
  128.5430  122.5950   62.4680 N   0  0  0  0  0  0  0  0  0  0  0  0
  129.1410  122.5210   63.7190 C   0  0  0  0  0  0  0  0  0  0  0  0
  128.5520  122.4960   64.8950 N   0  0  0  0  0  0  0  0  0  0  0  0
  129.4310  122.4170   65.8750 C   0  0  0  0  0  0  0  0  0  0  0  0
  130.7710  122.3770   65.4990 C   0  0  0  0  0  0  0  0  0  0  0  0
  130.8730  122.4460   63.7650 S   0  0  0  0  0  0  0  0  0  0  0  0
  128.1210  122.4980   59.5100 S   0  0  0  0  0  0  0  0  0  0  0  0
  126.9320  122.7470   58.2520 C   0  0  0  0  0  0  0  0  0  0  0  0
  127.1330  122.3370   56.9990 N   0  0  0  0  0  0  0  0  0  0  0  0
  1  2  1  0
  2  3  2  0
  3  4  1  0
  4  5  1  0
  4  6  2  0
  6  7  1  0
  7  8  1  0
  7  9  2  0
  9 10  1  0
 10 11  2  0
 10 12  1  0
 12 13  1  0
 13 14  2  0
 14 15  1  0
 15 16  2  0
 16 17  1  0
  9 18  1  0
 18 19  1  0
 19 20  2  0
 20  2  1  0
 19  6  1  0
 17 13  1  0
M  END
>  <Binding energies>  (46) 
[-6.77]

>  <Ligand effiencies>  (46) 
[-0.2943478260869565]

>  <Interactions>  (46) 
["V-B:ALA:541:CB:9863, V-B:TYR:539:CE2:9847, V-B:ASP:366:CB:8182, V-B:PRO:540:CB:9856, V-B:MET:535:CE:9806, V-B:PRO:540:CA:9854, V-B:TYR:531:CZ:9765, V-B:TYR:539:CD2:9845, V-B:LEU:363:CA:8155, V-B:TYR:531:CE2:9764, V-B:LEU:363:CD1:8159, V-A:LEU:475:CD2:4258, V-B:TYR:539:C:9838, V-B:ASP:366:CG:8183, V-B:PRO:540:N:9855, V-B:PRO:540:CD:9858, V-B:GLU:543:CD:9879, H-B:TYR:539:O:9839, H-B:TYR:539:N:9841, V-A:LEU:475:CD1:4257, V-B:ALA:541:CA:9861, V-B:GLU:543:CG:9878, V-A:TYR:484:CZ:4346, V-B:ILE:538:CD1:9836, V-B:ILE:538:CG2:9834, H-B:ASP:366:OD1:8184, V-B:ILE:538:CA:9831, V-A:LEU:475:CG:4256, V-B:ILE:538:C:9829, V-A:TYR:484:CE2:4345, V-B:MET:535:CG:9804, V-B:ILE:538:CB:9833, V-B:LEU:363:CB:8157, V-B:ILE:538:CG1:9835, V-B:VAL:537:C:9821"]

$$$$
4ak_Grossjean_2025
     RDKit          3D

 25 26  0  0  0  0  0  0  0  0999 V2000
  132.4290  125.9290   57.5220 C   0  0  0  0  0  0  0  0  0  0  0  0
  132.8660  124.7730   58.2190 O   0  0  0  0  0  0  0  0  0  0  0  0
  132.4050  124.7150   59.5640 C   0  0  0  0  0  0  0  0  0  0  0  0
  132.3120  123.2500   60.0090 C   0  0  0  0  0  0  0  0  0  0  0  0
  131.7490  123.1890   61.3130 O   0  0  0  0  0  0  0  0  0  0  0  0
  132.5950  122.5720   62.2750 C   0  0  0  0  0  0  0  0  0  0  0  0
  132.1110  122.9360   63.6840 C   0  0  0  0  0  0  0  0  0  0  0  0
  132.0150  124.3490   63.7960 O   0  0  0  0  0  0  0  0  0  0  0  0
  130.6940  124.8180   64.0350 C   0  0  0  0  0  0  0  0  0  0  0  0
  129.7100  123.6390   63.9330 C   0  0  0  0  0  0  0  0  0  0  0  0
  129.0710  123.5200   62.6220 N   0  0  0  0  0  0  0  0  0  0  0  0
  127.7530  123.3300   62.4110 C   0  0  0  0  0  0  0  0  0  0  0  0
  126.9400  123.2570   63.3340 O   0  0  0  0  0  0  0  0  0  0  0  0
  127.3350  123.2210   61.0140 C   0  0  0  0  0  0  0  0  0  0  0  0
  128.3830  122.4420   59.8290 S   0  0  0  0  0  0  0  0  0  0  0  0
  127.2170  122.7110   58.5530 C   0  0  0  0  0  0  0  0  0  0  0  0
  127.4420  122.3200   57.2980 N   0  0  0  0  0  0  0  0  0  0  0  0
  126.4590  122.5910   56.4050 C   0  0  0  0  0  0  0  0  0  0  0  0
  126.7330  122.1380   54.9830 C   0  0  0  0  0  0  0  0  0  0  0  0
  125.2690  123.2360   56.7350 C   0  0  0  0  0  0  0  0  0  0  0  0
  125.0350  123.6440   58.0540 C   0  0  0  0  0  0  0  0  0  0  0  0
  123.7230  124.3480   58.3640 C   0  0  0  0  0  0  0  0  0  0  0  0
  126.0450  123.3790   59.0180 C   0  0  0  0  0  0  0  0  0  0  0  0
  126.1350  123.6530   60.4270 C   0  0  0  0  0  0  0  0  0  0  0  0
  125.1320  124.2830   61.1180 N   0  0  0  0  0  0  0  0  0  0  0  0
  1  2  1  0
  2  3  1  0
  3  4  1  0
  4  5  1  0
  5  6  1  0
  6  7  1  0
  7  8  1  0
  8  9  1  0
  9 10  1  0
 10 11  1  0
 11 12  1  0
 12 13  2  0
 12 14  1  0
 14 15  1  0
 15 16  1  0
 16 17  2  0
 17 18  1  0
 18 19  1  0
 18 20  2  0
 20 21  1  0
 21 22  1  0
 21 23  2  0
 23 24  1  0
 24 25  1  0
 24 14  2  0
 23 16  1  0
M  END
>  <Binding energies>  (47) 
[-6.01]

>  <Ligand effiencies>  (47) 
[-0.21464285714285714]

>  <Interactions>  (47) 
["V-B:TYR:539:CE2:9847, V-B:ASP:366:CB:8182, V-B:PRO:540:CB:9856, H-B:ALA:541:N:9862, V-B:MET:535:CE:9806, V-B:PRO:540:CA:9854, V-B:TYR:531:CZ:9765, V-B:TYR:539:CD2:9845, V-B:LEU:363:CA:8155, V-B:TYR:531:CE2:9764, V-B:LEU:363:CD1:8159, V-B:TYR:539:C:9838, V-A:ASP:366:CG:3212, V-B:ASP:366:CG:8183, V-B:PRO:540:N:9855, V-B:GLU:543:CD:9879, V-A:ASP:366:CB:3211, V-A:ASP:366:C:3207, H-B:TYR:539:N:9841, V-A:ASP:366:CA:3209, H-B:TYR:539:OH:9849, V-B:TYR:539:CD1:9844, V-B:ILE:538:CD1:9836, H-B:ASP:366:OD1:8184, V-B:ILE:538:CA:9831, V-B:ILE:538:C:9829, V-B:MET:535:CG:9804, V-B:ILE:538:CB:9833, V-B:VAL:537:C:9821"]

$$$$
4al_Grossjean_2025
     RDKit          3D

 16 17  0  0  0  0  0  0  0  0999 V2000
  129.5110  123.8780   63.5220 C   0  0  0  0  0  0  0  0  0  0  0  0
  128.9070  123.6080   62.2650 O   0  0  0  0  0  0  0  0  0  0  0  0
  127.5730  123.3710   62.1690 C   0  0  0  0  0  0  0  0  0  0  0  0
  126.8190  123.2690   63.1400 O   0  0  0  0  0  0  0  0  0  0  0  0
  127.1100  123.2470   60.7700 C   0  0  0  0  0  0  0  0  0  0  0  0
  128.1460  122.4820   59.5630 S   0  0  0  0  0  0  0  0  0  0  0  0
  126.9460  122.7320   58.3150 C   0  0  0  0  0  0  0  0  0  0  0  0
  127.1450  122.3390   57.0570 N   0  0  0  0  0  0  0  0  0  0  0  0
  126.1360  122.5920   56.1870 C   0  0  0  0  0  0  0  0  0  0  0  0
  126.3840  122.1360   54.7600 C   0  0  0  0  0  0  0  0  0  0  0  0
  124.9460  123.2230   56.5430 C   0  0  0  0  0  0  0  0  0  0  0  0
  124.7400  123.6350   57.8640 C   0  0  0  0  0  0  0  0  0  0  0  0
  123.4260  124.3190   58.2040 C   0  0  0  0  0  0  0  0  0  0  0  0
  125.7760  123.3860   58.8040 C   0  0  0  0  0  0  0  0  0  0  0  0
  125.8990  123.6670   60.2080 C   0  0  0  0  0  0  0  0  0  0  0  0
  124.9110  124.2920   60.9240 N   0  0  0  0  0  0  0  0  0  0  0  0
  1  2  1  0
  2  3  1  0
  3  4  2  0
  3  5  1  0
  5  6  1  0
  6  7  1  0
  7  8  2  0
  8  9  1  0
  9 10  1  0
  9 11  2  0
 11 12  1  0
 12 13  1  0
 12 14  2  0
 14 15  1  0
 15 16  1  0
 15  5  2  0
 14  7  1  0
M  END
>  <Binding energies>  (48) 
[-5.9]

>  <Ligand effiencies>  (48) 
[-0.3277777777777778]

>  <Interactions>  (48) 
["V-B:TYR:539:CE2:9847, V-B:ASP:366:CB:8182, V-B:PRO:540:CB:9856, H-B:ALA:541:N:9862, V-B:MET:535:CE:9806, V-B:PRO:540:CA:9854, V-B:TYR:531:CZ:9765, V-B:TYR:539:CD2:9845, V-B:LEU:363:CA:8155, V-B:TYR:531:CE2:9764, V-B:PRO:540:C:9852, V-B:LEU:363:CD1:8159, V-B:TYR:539:C:9838, V-B:ASP:366:CG:8183, V-B:PRO:540:N:9855, V-B:PRO:540:CD:9858, V-B:GLU:543:CD:9879, H-B:TYR:539:N:9841, V-B:ILE:538:CD1:9836, V-B:ILE:538:CG2:9834, H-B:ASP:366:OD1:8184, V-B:ILE:538:CA:9831, V-B:ILE:538:C:9829, V-B:MET:535:CG:9804, V-B:ILE:538:CB:9833, V-B:LEU:363:CB:8157, V-B:ILE:538:CG1:9835, V-B:VAL:537:C:9821"]

$$$$
4bc_Grossjean_2025
     RDKit          3D

 26 28  0  0  0  0  0  0  0  0999 V2000
  123.6050  129.6010   67.3100 C   0  0  0  0  0  0  0  0  0  0  0  0
  123.4160  129.6700   65.9000 O   0  0  0  0  0  0  0  0  0  0  0  0
  124.4720  130.0560   65.0970 C   0  0  0  0  0  0  0  0  0  0  0  0
  124.1740  130.3170   63.7600 C   0  0  0  0  0  0  0  0  0  0  0  0
  125.1740  130.7110   62.8740 C   0  0  0  0  0  0  0  0  0  0  0  0
  126.4890  130.8590   63.3190 C   0  0  0  0  0  0  0  0  0  0  0  0
  127.4330  131.2460   62.3510 N   0  0  0  0  0  0  0  0  0  0  0  0
  128.2080  132.3570   62.3050 C   0  0  0  0  0  0  0  0  0  0  0  0
  128.1670  133.2580   63.1440 O   0  0  0  0  0  0  0  0  0  0  0  0
  129.1250  132.4380   61.1640 C   0  0  0  0  0  0  0  0  0  0  0  0
  128.5890  133.1500   59.6450 S   0  0  0  0  0  0  0  0  0  0  0  0
  130.1480  132.8670   58.9080 C   0  0  0  0  0  0  0  0  0  0  0  0
  130.3960  133.2210   57.6470 N   0  0  0  0  0  0  0  0  0  0  0  0
  131.6390  132.9480   57.1880 C   0  0  0  0  0  0  0  0  0  0  0  0
  131.9030  133.3640   55.7520 C   0  0  0  0  0  0  0  0  0  0  0  0
  132.6300  132.3360   57.9510 C   0  0  0  0  0  0  0  0  0  0  0  0
  132.3740  131.9600   59.2790 C   0  0  0  0  0  0  0  0  0  0  0  0
  133.4960  131.2870   60.0780 C   0  0  0  0  0  0  0  0  0  0  0  0
  134.4530  130.7750   59.3020 F   0  0  0  0  0  0  0  0  0  0  0  0
  134.0690  132.1770   60.8870 F   0  0  0  0  0  0  0  0  0  0  0  0
  132.9950  130.2880   60.8050 F   0  0  0  0  0  0  0  0  0  0  0  0
  131.0730  132.2350   59.7960 C   0  0  0  0  0  0  0  0  0  0  0  0
  130.4580  132.0060   61.0800 C   0  0  0  0  0  0  0  0  0  0  0  0
  131.1240  131.4160   62.1250 N   0  0  0  0  0  0  0  0  0  0  0  0
  126.7990  130.5860   64.6600 C   0  0  0  0  0  0  0  0  0  0  0  0
  125.7970  130.1910   65.5420 C   0  0  0  0  0  0  0  0  0  0  0  0
  1  2  1  0
  2  3  1  0
  3  4  2  0
  4  5  1  0
  5  6  2  0
  6  7  1  0
  7  8  1  0
  8  9  2  0
  8 10  1  0
 10 11  1  0
 11 12  1  0
 12 13  2  0
 13 14  1  0
 14 15  1  0
 14 16  2  0
 16 17  1  0
 17 18  1  0
 18 19  1  0
 18 20  1  0
 18 21  1  0
 17 22  2  0
 22 23  1  0
 23 24  1  0
  6 25  1  0
 25 26  2  0
 26  3  1  0
 23 10  2  0
 22 12  1  0
M  END
>  <Binding energies>  (49) 
[-6.78]

>  <Ligand effiencies>  (49) 
[-0.23379310344827586]

>  <Interactions>  (49) 
["H-A:GLU:543:OE2:4909, V-A:ASP:366:CG:3212, V-A:ILE:538:CG2:4862, V-B:GLY:454:CA:9019, V-A:TYR:539:CD1:4872, V-A:ILE:538:CB:4861, V-A:ILE:538:CA:4859, V-A:TYR:539:C:4866, V-A:TYR:539:CE1:4874, V-A:PRO:540:CA:4882, V-A:PRO:540:CB:4884, V-B:ARG:545:CG:9893, V-A:GLU:543:CD:4907, V-A:ASN:362:C:3171, V-A:ASP:366:CB:3211, V-A:LEU:363:CA:3184, H-B:GLY:454:N:9020, V-B:ARG:545:CD:9894, V-B:ARG:545:CZ:9897, H-B:ARG:545:NE:9895, V-A:PRO:540:N:4883, H-A:ASP:366:OD2:3214, V-A:TYR:531:CE2:4792, V-A:LEU:363:CD1:3188, V-A:ASN:362:CB:3175, V-A:LEU:363:C:3182, V-A:ASN:362:CA:3173, V-A:LEU:363:CB:3186"]

$$$$
4bf_Grossjean_2025
     RDKit          3D

 24 26  0  0  0  0  0  0  0  0999 V2000
  126.4350  122.1260   54.8100 C   0  0  0  0  0  0  0  0  0  0  0  0
  126.2540  122.6490   56.2240 C   0  0  0  0  0  0  0  0  0  0  0  0
  125.1190  123.3710   56.5820 C   0  0  0  0  0  0  0  0  0  0  0  0
  124.9660  123.8520   57.8910 C   0  0  0  0  0  0  0  0  0  0  0  0
  123.7010  124.6430   58.2390 C   0  0  0  0  0  0  0  0  0  0  0  0
  122.8540  124.7510   57.2110 F   0  0  0  0  0  0  0  0  0  0  0  0
  123.0480  124.0400   59.2320 F   0  0  0  0  0  0  0  0  0  0  0  0
  124.0300  125.8800   58.6140 F   0  0  0  0  0  0  0  0  0  0  0  0
  126.0150  123.5690   58.8170 C   0  0  0  0  0  0  0  0  0  0  0  0
  126.2080  123.8910   60.2090 C   0  0  0  0  0  0  0  0  0  0  0  0
  125.2900  124.6050   60.9380 N   0  0  0  0  0  0  0  0  0  0  0  0
  127.4110  123.4080   60.7500 C   0  0  0  0  0  0  0  0  0  0  0  0
  127.9360  123.5780   62.1080 C   0  0  0  0  0  0  0  0  0  0  0  0
  127.4950  122.9050   63.0400 O   0  0  0  0  0  0  0  0  0  0  0  0
  128.9250  124.4960   62.2370 N   0  0  0  0  0  0  0  0  0  0  0  0
  129.6000  124.9290   63.3940 C   0  0  0  0  0  0  0  0  0  0  0  0
  130.0720  126.2330   63.6220 C   0  0  0  0  0  0  0  0  0  0  0  0
  130.7430  126.5280   64.8120 C   0  0  0  0  0  0  0  0  0  0  0  0
  130.9290  125.5060   65.7440 C   0  0  0  0  0  0  0  0  0  0  0  0
  130.4900  124.2390   65.5450 N   0  0  0  0  0  0  0  0  0  0  0  0
  129.8400  123.9680   64.3840 C   0  0  0  0  0  0  0  0  0  0  0  0
  128.3480  122.5370   59.5380 S   0  0  0  0  0  0  0  0  0  0  0  0
  127.1250  122.8190   58.3210 C   0  0  0  0  0  0  0  0  0  0  0  0
  127.2650  122.3630   57.0770 N   0  0  0  0  0  0  0  0  0  0  0  0
  1  2  1  0
  2  3  2  0
  3  4  1  0
  4  5  1  0
  5  6  1  0
  5  7  1  0
  5  8  1  0
  4  9  2  0
  9 10  1  0
 10 11  1  0
 10 12  2  0
 12 13  1  0
 13 14  2  0
 13 15  1  0
 15 16  1  0
 16 17  2  0
 17 18  1  0
 18 19  2  0
 19 20  1  0
 20 21  2  0
 12 22  1  0
 22 23  1  0
 23 24  2  0
 24  2  1  0
 23  9  1  0
 21 16  1  0
M  END
>  <Binding energies>  (50) 
[-6.79]

>  <Ligand effiencies>  (50) 
[-0.2514814814814815]

>  <Interactions>  (50) 
["V-B:TYR:539:CE2:9847, V-B:ASP:366:CB:8182, V-B:PRO:540:CB:9856, H-B:ALA:541:N:9862, V-B:MET:535:CE:9806, V-B:PRO:540:CA:9854, V-B:TYR:531:CZ:9765, V-B:TYR:539:CD2:9845, V-B:LEU:363:CA:8155, V-B:TYR:531:CE2:9764, V-B:LEU:363:CD1:8159, V-B:TYR:539:C:9838, V-B:ASP:366:CG:8183, V-B:PRO:540:N:9855, V-B:GLU:543:CD:9879, H-B:TYR:539:N:9841, H-A:TYR:484:OH:4347, V-B:ILE:538:CD1:9836, V-B:ILE:538:CG2:9834, H-B:ASP:366:OD1:8184, V-B:ILE:538:CA:9831, V-B:ILE:538:C:9829, V-B:MET:535:CG:9804, V-B:ILE:538:CB:9833, V-B:TYR:531:CD2:9762, V-B:LEU:363:C:8153, V-B:LEU:363:CB:8157, V-B:LEU:363:CG:8158, V-B:ASN:362:C:8142, V-B:VAL:537:C:9821"]

$$$$
4bh_Grossjean_2025
     RDKit          3D

 31 33  0  0  0  0  0  0  0  0999 V2000
  134.1800  122.3430   62.5260 C   0  0  0  0  0  0  0  0  0  0  0  0
  134.0420  123.5240   63.3080 O   0  0  0  0  0  0  0  0  0  0  0  0
  132.8200  123.8180   63.8840 C   0  0  0  0  0  0  0  0  0  0  0  0
  131.6640  123.0410   63.7120 C   0  0  0  0  0  0  0  0  0  0  0  0
  130.4620  123.3990   64.3220 C   0  0  0  0  0  0  0  0  0  0  0  0
  129.2290  122.5170   64.1600 C   0  0  0  0  0  0  0  0  0  0  0  0
  128.6540  122.5600   62.8160 N   0  0  0  0  0  0  0  0  0  0  0  0
  127.7530  123.4640   62.3790 C   0  0  0  0  0  0  0  0  0  0  0  0
  127.2880  124.3420   63.1090 O   0  0  0  0  0  0  0  0  0  0  0  0
  127.3170  123.3190   60.9900 C   0  0  0  0  0  0  0  0  0  0  0  0
  128.3180  122.4370   59.8400 S   0  0  0  0  0  0  0  0  0  0  0  0
  127.1900  122.7610   58.5440 C   0  0  0  0  0  0  0  0  0  0  0  0
  127.4030  122.3110   57.3080 N   0  0  0  0  0  0  0  0  0  0  0  0
  126.4580  122.6230   56.3920 C   0  0  0  0  0  0  0  0  0  0  0  0
  126.7220  122.1030   54.9900 C   0  0  0  0  0  0  0  0  0  0  0  0
  125.3160  123.3650   56.6780 C   0  0  0  0  0  0  0  0  0  0  0  0
  125.0860  123.8440   57.9780 C   0  0  0  0  0  0  0  0  0  0  0  0
  123.8140  124.6540   58.2470 C   0  0  0  0  0  0  0  0  0  0  0  0
  123.0510  124.1270   59.2070 F   0  0  0  0  0  0  0  0  0  0  0  0
  124.1370  125.8890   58.6280 F   0  0  0  0  0  0  0  0  0  0  0  0
  123.0760  124.7140   57.1380 F   0  0  0  0  0  0  0  0  0  0  0  0
  126.0650  123.5340   58.9690 C   0  0  0  0  0  0  0  0  0  0  0  0
  126.1740  123.8490   60.3720 C   0  0  0  0  0  0  0  0  0  0  0  0
  125.2380  124.5950   61.0410 N   0  0  0  0  0  0  0  0  0  0  0  0
  130.4160  124.5300   65.1390 C   0  0  0  0  0  0  0  0  0  0  0  0
  131.5540  125.3310   65.3240 C   0  0  0  0  0  0  0  0  0  0  0  0
  131.5770  126.4710   66.1060 O   0  0  0  0  0  0  0  0  0  0  0  0
  130.5000  126.7230   67.0040 C   0  0  0  0  0  0  0  0  0  0  0  0
  132.7480  124.9670   64.6860 C   0  0  0  0  0  0  0  0  0  0  0  0
  133.8760  125.7320   64.8730 O   0  0  0  0  0  0  0  0  0  0  0  0
  134.2640  125.8640   66.2330 C   0  0  0  0  0  0  0  0  0  0  0  0
  1  2  1  0
  2  3  1  0
  3  4  2  0
  4  5  1  0
  5  6  1  0
  6  7  1  0
  7  8  1  0
  8  9  2  0
  8 10  1  0
 10 11  1  0
 11 12  1  0
 12 13  2  0
 13 14  1  0
 14 15  1  0
 14 16  2  0
 16 17  1  0
 17 18  1  0
 18 19  1  0
 18 20  1  0
 18 21  1  0
 17 22  2  0
 22 23  1  0
 23 24  1  0
  5 25  2  0
 25 26  1  0
 26 27  1  0
 27 28  1  0
 26 29  2  0
 29 30  1  0
 30 31  1  0
 29  3  1  0
 23 10  2  0
 22 12  1  0
M  END
>  <Binding energies>  (51) 
[-6.94]

>  <Ligand effiencies>  (51) 
[-0.20411764705882354]

>  <Interactions>  (51) 
["V-B:ALA:541:CB:9863, V-B:TYR:539:CE2:9847, V-B:ASP:366:CB:8182, V-B:PRO:540:CB:9856, V-B:MET:535:CE:9806, V-B:PRO:540:CA:9854, V-B:TYR:531:CZ:9765, V-A:GLY:453:CA:4043, V-B:TYR:539:CD2:9845, H-A:ARG:545:NH2:4927, V-B:LEU:363:CA:8155, V-A:GLY:453:C:4041, V-B:TYR:531:CE2:9764, V-A:ARG:545:CZ:4925, V-B:LEU:363:CD1:8159, V-B:TYR:539:C:9838, H-A:ARG:545:NE:4923, V-A:ILE:369:CD1:3238, V-B:ASP:366:CG:8183, V-B:PRO:540:N:9855, V-B:GLU:543:CD:9879, H-B:TYR:539:O:9839, H-B:GLU:543:OE1:9880, H-B:TYR:539:N:9841, H-A:TYR:484:OH:4347, H-A:GLY:454:N:4049, V-B:ALA:541:CA:9861, V-B:TYR:539:CD1:9844, V-A:ARG:545:CD:4922, V-A:ARG:545:CG:4921, V-B:ILE:538:CD1:9836, H-B:ASP:366:OD1:8184, V-B:ILE:538:CA:9831, V-B:ILE:538:C:9829, V-A:GLY:454:CA:4048, V-B:MET:535:CG:9804, V-B:ILE:538:CB:9833, H-A:ARG:545:NH1:4926, V-B:TYR:531:CD2:9762, V-B:LEU:363:CB:8157, V-B:LEU:363:CG:8158, V-B:ASN:362:C:8142, V-B:VAL:537:C:9821"]

$$$$
4bi_Grossjean_2025
     RDKit          3D

 23 25  0  0  0  0  0  0  0  0999 V2000
  126.7260  122.1240   55.0170 C   0  0  0  0  0  0  0  0  0  0  0  0
  126.4840  122.6400   56.4240 C   0  0  0  0  0  0  0  0  0  0  0  0
  125.3360  123.3650   56.7340 C   0  0  0  0  0  0  0  0  0  0  0  0
  125.1230  123.8320   58.0420 C   0  0  0  0  0  0  0  0  0  0  0  0
  123.8420  124.6190   58.3370 C   0  0  0  0  0  0  0  0  0  0  0  0
  123.0460  124.7400   57.2720 F   0  0  0  0  0  0  0  0  0  0  0  0
  123.1420  124.0010   59.2880 F   0  0  0  0  0  0  0  0  0  0  0  0
  124.1510  125.8490   58.7470 F   0  0  0  0  0  0  0  0  0  0  0  0
  126.1250  123.5340   59.0120 C   0  0  0  0  0  0  0  0  0  0  0  0
  126.2530  123.8420   60.4160 C   0  0  0  0  0  0  0  0  0  0  0  0
  125.3130  124.5630   61.1060 N   0  0  0  0  0  0  0  0  0  0  0  0
  127.4190  123.3320   61.0110 C   0  0  0  0  0  0  0  0  0  0  0  0
  127.8700  123.4650   62.3990 C   0  0  0  0  0  0  0  0  0  0  0  0
  127.2200  122.9690   63.3220 O   0  0  0  0  0  0  0  0  0  0  0  0
  129.0330  124.1420   62.5720 N   0  0  0  0  0  0  0  0  0  0  0  0
  129.6900  124.4030   63.7670 C   0  0  0  0  0  0  0  0  0  0  0  0
  130.4160  125.5700   63.9970 C   0  0  0  0  0  0  0  0  0  0  0  0
  130.9030  125.4440   65.2780 C   0  0  0  0  0  0  0  0  0  0  0  0
  130.4890  124.2610   65.7930 O   0  0  0  0  0  0  0  0  0  0  0  0
  129.7220  123.6100   64.8250 N   0  0  0  0  0  0  0  0  0  0  0  0
  128.4110  122.4710   59.8360 S   0  0  0  0  0  0  0  0  0  0  0  0
  127.2530  122.7820   58.5630 C   0  0  0  0  0  0  0  0  0  0  0  0
  127.4500  122.3400   57.3210 N   0  0  0  0  0  0  0  0  0  0  0  0
  1  2  1  0
  2  3  2  0
  3  4  1  0
  4  5  1  0
  5  6  1  0
  5  7  1  0
  5  8  1  0
  4  9  2  0
  9 10  1  0
 10 11  1  0
 10 12  2  0
 12 13  1  0
 13 14  2  0
 13 15  1  0
 15 16  1  0
 16 17  1  0
 17 18  2  0
 18 19  1  0
 19 20  1  0
 12 21  1  0
 21 22  1  0
 22 23  2  0
 23  2  1  0
 22  9  1  0
 20 16  2  0
M  END
>  <Binding energies>  (52) 
[-6.69]

>  <Ligand effiencies>  (52) 
[-0.25730769230769235]

>  <Interactions>  (52) 
["V-B:TYR:539:CE2:9847, V-B:ASP:366:CB:8182, V-B:PRO:540:CB:9856, H-B:ALA:541:N:9862, V-B:MET:535:CE:9806, V-B:PRO:540:CA:9854, V-B:TYR:531:CZ:9765, V-B:TYR:539:CD2:9845, V-B:LEU:363:CA:8155, V-B:TYR:531:CE2:9764, V-B:LEU:363:CD1:8159, V-B:TYR:539:C:9838, V-B:ASP:366:CG:8183, V-B:PRO:540:N:9855, V-B:GLU:543:CD:9879, H-B:GLU:543:OE1:9880, H-B:TYR:539:N:9841, H-A:TYR:484:OH:4347, V-B:TYR:539:CD1:9844, V-B:ILE:538:CD1:9836, H-B:ASP:366:OD1:8184, V-B:ILE:538:CA:9831, V-B:ILE:538:C:9829, V-B:MET:535:CG:9804, V-B:ILE:538:CB:9833, V-B:TYR:531:CD2:9762, V-B:LEU:363:CB:8157, V-B:LEU:363:CG:8158, V-B:ASN:362:C:8142, V-B:VAL:537:C:9821"]

$$$$
4bj_Grossjean_2025
     RDKit          3D

 23 25  0  0  0  0  0  0  0  0999 V2000
  126.3710  122.1270   54.6480 C   0  0  0  0  0  0  0  0  0  0  0  0
  126.2090  122.5680   56.0920 C   0  0  0  0  0  0  0  0  0  0  0  0
  125.1010  123.3090   56.4950 C   0  0  0  0  0  0  0  0  0  0  0  0
  124.9670  123.7160   57.8320 C   0  0  0  0  0  0  0  0  0  0  0  0
  123.7320  124.5330   58.2280 C   0  0  0  0  0  0  0  0  0  0  0  0
  122.8760  124.7070   57.2190 F   0  0  0  0  0  0  0  0  0  0  0  0
  123.0750  123.9120   59.2070 F   0  0  0  0  0  0  0  0  0  0  0  0
  124.1080  125.7410   58.6460 F   0  0  0  0  0  0  0  0  0  0  0  0
  126.0010  123.3340   58.7370 C   0  0  0  0  0  0  0  0  0  0  0  0
  126.2070  123.5650   60.1460 C   0  0  0  0  0  0  0  0  0  0  0  0
  125.3260  124.2800   60.9170 N   0  0  0  0  0  0  0  0  0  0  0  0
  127.3820  122.9880   60.6560 C   0  0  0  0  0  0  0  0  0  0  0  0
  127.9000  123.0330   62.0250 C   0  0  0  0  0  0  0  0  0  0  0  0
  127.1850  123.4040   62.9590 O   0  0  0  0  0  0  0  0  0  0  0  0
  129.1870  122.6320   62.1740 N   0  0  0  0  0  0  0  0  0  0  0  0
  129.9090  122.5690   63.3580 C   0  0  0  0  0  0  0  0  0  0  0  0
  129.4440  122.5460   64.5880 N   0  0  0  0  0  0  0  0  0  0  0  0
  130.4170  122.4780   65.4740 C   0  0  0  0  0  0  0  0  0  0  0  0
  131.7110  122.4450   64.9650 C   0  0  0  0  0  0  0  0  0  0  0  0
  131.6380  122.5100   63.2290 S   0  0  0  0  0  0  0  0  0  0  0  0
  128.2850  122.1560   59.3930 S   0  0  0  0  0  0  0  0  0  0  0  0
  127.0810  122.5700   58.1960 C   0  0  0  0  0  0  0  0  0  0  0  0
  127.2050  122.1890   56.9250 N   0  0  0  0  0  0  0  0  0  0  0  0
  1  2  1  0
  2  3  2  0
  3  4  1  0
  4  5  1  0
  5  6  1  0
  5  7  1  0
  5  8  1  0
  4  9  2  0
  9 10  1  0
 10 11  1  0
 10 12  2  0
 12 13  1  0
 13 14  2  0
 13 15  1  0
 15 16  1  0
 16 17  2  0
 17 18  1  0
 18 19  2  0
 19 20  1  0
 12 21  1  0
 21 22  1  0
 22 23  2  0
 23  2  1  0
 22  9  1  0
 20 16  1  0
M  END
>  <Binding energies>  (53) 
[-6.19]

>  <Ligand effiencies>  (53) 
[-0.2380769230769231]

>  <Interactions>  (53) 
["V-B:ALA:541:CB:9863, V-B:TYR:539:CE2:9847, V-B:ASP:366:CB:8182, V-B:PRO:540:CB:9856, H-B:ALA:541:N:9862, V-B:MET:535:CE:9806, V-B:PRO:540:CA:9854, V-B:TYR:531:CZ:9765, V-B:TYR:539:CD2:9845, V-B:LEU:363:CA:8155, V-B:TYR:531:CE2:9764, V-B:PRO:540:C:9852, V-B:LEU:363:CD1:8159, V-A:LEU:475:CD2:4258, V-B:TYR:539:C:9838, V-B:ASP:366:CG:8183, V-B:PRO:540:N:9855, V-B:PRO:540:CD:9858, V-B:TYR:539:CG:9843, H-B:TYR:539:O:9839, H-B:TYR:539:N:9841, V-A:LEU:475:CD1:4257, V-A:TYR:484:CZ:4346, V-B:ILE:538:CD1:9836, V-B:ILE:538:CG2:9834, H-B:ASP:366:OD1:8184, V-B:ILE:538:CA:9831, V-B:ILE:538:C:9829, V-A:TYR:484:CE2:4345, V-A:GLY:454:CA:4048, V-B:MET:535:CG:9804, V-B:ILE:538:CB:9833, V-B:TYR:531:CD2:9762, V-B:LEU:363:C:8153, V-B:LEU:363:CB:8157, V-B:LEU:363:CG:8158, V-B:ASN:362:C:8142, V-B:ILE:538:CG1:9835, V-B:VAL:537:C:9821"]

$$$$
4bk_Grossjean_2025
     RDKit          3D

 28 29  0  0  0  0  0  0  0  0999 V2000
  128.7050  138.2380   61.2910 C   0  0  0  0  0  0  0  0  0  0  0  0
  127.4130  137.7280   60.9980 O   0  0  0  0  0  0  0  0  0  0  0  0
  127.1600  136.4580   61.5860 C   0  0  0  0  0  0  0  0  0  0  0  0
  126.1860  135.6700   60.7010 C   0  0  0  0  0  0  0  0  0  0  0  0
  125.8550  134.4440   61.3390 O   0  0  0  0  0  0  0  0  0  0  0  0
  124.5750  133.9390   60.9850 C   0  0  0  0  0  0  0  0  0  0  0  0
  124.1190  132.9190   62.0360 C   0  0  0  0  0  0  0  0  0  0  0  0
  125.2560  132.2470   62.5610 O   0  0  0  0  0  0  0  0  0  0  0  0
  125.5760  132.6160   63.8970 C   0  0  0  0  0  0  0  0  0  0  0  0
  127.1000  132.7780   64.0300 C   0  0  0  0  0  0  0  0  0  0  0  0
  127.8070  132.7610   62.7480 N   0  0  0  0  0  0  0  0  0  0  0  0
  129.1390  132.6130   62.5940 C   0  0  0  0  0  0  0  0  0  0  0  0
  129.9000  132.4530   63.5500 O   0  0  0  0  0  0  0  0  0  0  0  0
  129.6360  132.6420   61.2180 C   0  0  0  0  0  0  0  0  0  0  0  0
  128.6420  133.3260   59.9340 S   0  0  0  0  0  0  0  0  0  0  0  0
  129.8850  133.0160   58.7460 C   0  0  0  0  0  0  0  0  0  0  0  0
  129.7180  133.3370   57.4640 N   0  0  0  0  0  0  0  0  0  0  0  0
  130.7520  133.0500   56.6390 C   0  0  0  0  0  0  0  0  0  0  0  0
  130.5400  133.4260   55.1840 C   0  0  0  0  0  0  0  0  0  0  0  0
  131.9370  132.4550   57.0620 C   0  0  0  0  0  0  0  0  0  0  0  0
  132.1200  132.1120   58.4110 C   0  0  0  0  0  0  0  0  0  0  0  0
  133.4400  131.4560   58.8290 C   0  0  0  0  0  0  0  0  0  0  0  0
  133.2800  130.2200   59.3080 F   0  0  0  0  0  0  0  0  0  0  0  0
  134.2550  131.3740   57.7770 F   0  0  0  0  0  0  0  0  0  0  0  0
  134.0230  132.1810   59.7820 F   0  0  0  0  0  0  0  0  0  0  0  0
  131.0490  132.4030   59.3090 C   0  0  0  0  0  0  0  0  0  0  0  0
  130.8750  132.2070   60.7260 C   0  0  0  0  0  0  0  0  0  0  0  0
  131.8400  131.6400   61.5200 N   0  0  0  0  0  0  0  0  0  0  0  0
  1  2  1  0
  2  3  1  0
  3  4  1  0
  4  5  1  0
  5  6  1  0
  6  7  1  0
  7  8  1  0
  8  9  1  0
  9 10  1  0
 10 11  1  0
 11 12  1  0
 12 13  2  0
 12 14  1  0
 14 15  1  0
 15 16  1  0
 16 17  2  0
 17 18  1  0
 18 19  1  0
 18 20  2  0
 20 21  1  0
 21 22  1  0
 22 23  1  0
 22 24  1  0
 22 25  1  0
 21 26  2  0
 26 27  1  0
 27 28  1  0
 27 14  2  0
 26 16  1  0
M  END
>  <Binding energies>  (54) 
[-5.54]

>  <Ligand effiencies>  (54) 
[-0.17870967741935484]

>  <Interactions>  (54) 
["H-A:GLU:543:OE2:4909, V-A:ASP:366:CG:3212, V-B:ILE:369:CG2:8207, V-B:SER:385:CB:8379, V-A:ILE:538:CG2:4862, V-A:TYR:539:CD1:4872, V-A:ILE:538:CB:4861, V-A:ILE:538:CA:4859, V-A:TYR:539:C:4866, V-B:LEU:475:CD1:9228, V-B:PRO:482:CG:9297, V-B:PRO:482:CB:9296, V-A:PRO:540:CA:4882, V-A:PRO:540:CB:4884, H-A:ALA:541:N:4890, V-A:ASN:362:C:3171, V-A:ASP:366:CB:3211, V-B:PRO:482:CD:9298, V-A:TYR:539:CB:4870, V-A:ALA:541:CB:4891, V-A:LEU:363:CA:3184, V-A:TYR:531:CZ:4793, H-A:TYR:539:N:4869, V-A:PRO:540:N:4883, V-A:TYR:531:CE2:4792, V-A:LEU:363:CD1:3188, V-A:LEU:363:C:3182, V-A:TYR:539:CA:4868, H-B:SER:385:OG:8380, H-B:HIS:383:NE2:8364, V-A:LEU:363:CB:3186, V-A:VAL:344:CG1:3000, V-A:LEU:363:CG:3187"]

$$$$
4cd_Grossjean_2025
     RDKit          3D

 29 32  0  0  0  0  0  0  0  0999 V2000
  132.7090  125.9040   62.8650 N   0  0  0  0  0  0  0  0  0  0  0  0
  132.1410  124.7500   63.3410 C   0  0  0  0  0  0  0  0  0  0  0  0
  131.6030  124.6340   64.6330 C   0  0  0  0  0  0  0  0  0  0  0  0
  131.5490  125.6440   65.6940 C   0  0  0  0  0  0  0  0  0  0  0  0
  132.4620  126.4590   65.8330 O   0  0  0  0  0  0  0  0  0  0  0  0
  130.4410  125.6080   66.4740 N   0  0  0  0  0  0  0  0  0  0  0  0
  130.1070  126.3920   67.5940 C   0  0  0  0  0  0  0  0  0  0  0  0
  129.3580  125.7540   68.5870 C   0  0  0  0  0  0  0  0  0  0  0  0
  128.9890  126.4410   69.7400 C   0  0  0  0  0  0  0  0  0  0  0  0
  129.3770  127.7680   69.9050 C   0  0  0  0  0  0  0  0  0  0  0  0
  130.1350  128.4120   68.9310 C   0  0  0  0  0  0  0  0  0  0  0  0
  130.5050  127.7280   67.7750 C   0  0  0  0  0  0  0  0  0  0  0  0
  130.9490  123.0210   64.9070 S   0  0  0  0  0  0  0  0  0  0  0  0
  131.4080  122.5130   63.3000 C   0  0  0  0  0  0  0  0  0  0  0  0
  131.1650  121.2780   62.8650 N   0  0  0  0  0  0  0  0  0  0  0  0
  131.5710  120.9720   61.6050 C   0  0  0  0  0  0  0  0  0  0  0  0
  131.2850  119.5720   61.1450 C   0  0  0  0  0  0  0  0  0  0  0  0
  132.1480  118.9210   60.2470 C   0  0  0  0  0  0  0  0  0  0  0  0
  131.8900  117.6220   59.8160 C   0  0  0  0  0  0  0  0  0  0  0  0
  130.7610  116.9540   60.2790 C   0  0  0  0  0  0  0  0  0  0  0  0
  129.8930  117.5730   61.1710 C   0  0  0  0  0  0  0  0  0  0  0  0
  130.1560  118.8710   61.6010 C   0  0  0  0  0  0  0  0  0  0  0  0
  132.2000  121.9100   60.7820 C   0  0  0  0  0  0  0  0  0  0  0  0
  132.4570  123.2170   61.2300 C   0  0  0  0  0  0  0  0  0  0  0  0
  133.1540  124.1950   60.2760 C   0  0  0  0  0  0  0  0  0  0  0  0
  132.3770  125.2180   59.9140 F   0  0  0  0  0  0  0  0  0  0  0  0
  134.2360  124.7040   60.8640 F   0  0  0  0  0  0  0  0  0  0  0  0
  133.5170  123.5570   59.1630 F   0  0  0  0  0  0  0  0  0  0  0  0
  132.0470  123.5450   62.5530 C   0  0  0  0  0  0  0  0  0  0  0  0
  1  2  1  0
  2  3  2  0
  3  4  1  0
  4  5  2  0
  4  6  1  0
  6  7  1  0
  7  8  2  0
  8  9  1  0
  9 10  2  0
 10 11  1  0
 11 12  2  0
  3 13  1  0
 13 14  1  0
 14 15  2  0
 15 16  1  0
 16 17  1  0
 17 18  2  0
 18 19  1  0
 19 20  2  0
 20 21  1  0
 21 22  2  0
 16 23  2  0
 23 24  1  0
 24 25  1  0
 25 26  1  0
 25 27  1  0
 25 28  1  0
 24 29  2  0
 29  2  1  0
 12  7  1  0
 29 14  1  0
 22 17  1  0
M  END
>  <Binding energies>  (55) 
[-7.78]

>  <Ligand effiencies>  (55) 
[-0.243125]

>  <Interactions>  (55) 
["V-B:ALA:541:CB:9863, V-B:TYR:539:CE2:9847, V-A:ILE:369:CG2:3236, V-B:TYR:539:CD2:9845, H-A:ARG:545:NH2:4927, V-A:ARG:545:CZ:4925, V-A:LEU:475:CD2:4258, V-B:TYR:539:C:9838, H-A:ARG:545:NE:4923, V-A:ILE:369:CD1:3238, V-A:ASP:366:CG:3212, V-A:HIS:456:CE1:4069, V-B:GLU:543:CB:9877, V-B:HIS:456:CE1:9040, V-B:GLU:543:CD:9879, V-A:GLU:543:CD:4907, V-A:GLU:543:CB:4905, V-A:ASP:366:CB:3211, V-B:TYR:539:CB:9842, V-A:HIS:383:CE1:3393, V-B:TYR:539:CZ:9848, V-A:ASP:366:CA:3209, V-A:ILE:369:CB:3235, H-B:GLU:543:OE2:9881, H-A:TYR:484:OH:4347, V-B:GLU:543:CG:9878, V-A:TYR:484:CZ:4346, H-A:ASP:366:OD2:3214, H-A:ASP:366:OD1:3213, V-A:TYR:484:CE2:4345, V-A:PRO:482:CB:4325, V-A:PRO:482:CG:4326, V-B:VAL:344:CG1:7971, V-A:ILE:369:CG1:3237"]

$$$$
4cg_Grossjean_2025
     RDKit          3D

 30 33  0  0  0  0  0  0  0  0999 V2000
  129.1970  125.5390   63.6060 N   0  0  0  0  0  0  0  0  0  0  0  0
  130.2140  124.6220   63.6790 C   0  0  0  0  0  0  0  0  0  0  0  0
  131.3100  124.7590   64.5430 C   0  0  0  0  0  0  0  0  0  0  0  0
  131.5700  125.8100   65.5270 C   0  0  0  0  0  0  0  0  0  0  0  0
  132.6200  126.4560   65.5140 O   0  0  0  0  0  0  0  0  0  0  0  0
  130.6150  125.9940   66.4620 N   0  0  0  0  0  0  0  0  0  0  0  0
  130.6510  126.9970   67.5250 C   0  0  0  0  0  0  0  0  0  0  0  0
  129.3250  127.1480   68.2620 C   0  0  0  0  0  0  0  0  0  0  0  0
  128.3730  128.0590   67.7980 C   0  0  0  0  0  0  0  0  0  0  0  0
  127.1480  128.1770   68.4500 C   0  0  0  0  0  0  0  0  0  0  0  0
  126.8760  127.3780   69.5580 C   0  0  0  0  0  0  0  0  0  0  0  0
  127.8160  126.4560   70.0160 C   0  0  0  0  0  0  0  0  0  0  0  0
  129.0400  126.3360   69.3630 C   0  0  0  0  0  0  0  0  0  0  0  0
  132.4180  123.3980   64.3960 S   0  0  0  0  0  0  0  0  0  0  0  0
  131.4190  122.6650   63.1630 C   0  0  0  0  0  0  0  0  0  0  0  0
  131.7520  121.5090   62.5960 N   0  0  0  0  0  0  0  0  0  0  0  0
  130.9120  121.0140   61.6500 C   0  0  0  0  0  0  0  0  0  0  0  0
  131.3180  119.7080   61.0270 C   0  0  0  0  0  0  0  0  0  0  0  0
  132.5190  119.5950   60.3080 C   0  0  0  0  0  0  0  0  0  0  0  0
  132.8990  118.3880   59.7290 C   0  0  0  0  0  0  0  0  0  0  0  0
  132.0780  117.2710   59.8580 C   0  0  0  0  0  0  0  0  0  0  0  0
  130.8820  117.3560   60.5620 C   0  0  0  0  0  0  0  0  0  0  0  0
  130.5060  118.5650   61.1400 C   0  0  0  0  0  0  0  0  0  0  0  0
  129.7500  121.6940   61.2660 C   0  0  0  0  0  0  0  0  0  0  0  0
  129.3890  122.9140   61.8570 C   0  0  0  0  0  0  0  0  0  0  0  0
  128.1040  123.6060   61.3890 C   0  0  0  0  0  0  0  0  0  0  0  0
  128.3120  124.8400   60.9260 F   0  0  0  0  0  0  0  0  0  0  0  0
  127.5450  122.8990   60.4060 F   0  0  0  0  0  0  0  0  0  0  0  0
  127.2470  123.7000   62.4040 F   0  0  0  0  0  0  0  0  0  0  0  0
  130.2560  123.4350   62.8610 C   0  0  0  0  0  0  0  0  0  0  0  0
  1  2  1  0
  2  3  2  0
  3  4  1  0
  4  5  2  0
  4  6  1  0
  6  7  1  0
  7  8  1  0
  8  9  2  0
  9 10  1  0
 10 11  2  0
 11 12  1  0
 12 13  2  0
  3 14  1  0
 14 15  1  0
 15 16  2  0
 16 17  1  0
 17 18  1  0
 18 19  2  0
 19 20  1  0
 20 21  2  0
 21 22  1  0
 22 23  2  0
 17 24  2  0
 24 25  1  0
 25 26  1  0
 26 27  1  0
 26 28  1  0
 26 29  1  0
 25 30  2  0
 30  2  1  0
 13  8  1  0
 30 15  1  0
 23 18  1  0
M  END
>  <Binding energies>  (56) 
[-8.23]

>  <Ligand effiencies>  (56) 
[-0.24939393939393942]

>  <Interactions>  (56) 
["V-B:ALA:541:CB:9863, V-B:TYR:539:CE2:9847, V-B:PRO:540:CB:9856, V-B:PRO:540:CA:9854, V-A:SER:385:CA:3406, V-B:TYR:539:CD2:9845, H-A:ARG:545:NH2:4927, V-B:PRO:540:C:9852, V-A:LEU:475:CD2:4258, V-B:TYR:539:C:9838, H-A:ARG:545:NE:4923, V-A:HIS:456:CE1:4069, V-B:GLU:543:CB:9877, V-B:GLU:543:C:9873, V-B:HIS:456:CE1:9040, V-B:PRO:540:N:9855, V-B:GLU:543:CD:9879, V-B:TYR:539:CB:9842, V-A:HIS:383:CE1:3393, H-B:GLU:543:OE1:9880, H-B:GLU:543:OE2:9881, H-A:TYR:484:OH:4347, V-A:GLY:454:CA:4048"]

$$$$
4ch_Grossjean_2025
     RDKit          3D

 36 39  0  0  0  0  0  0  0  0999 V2000
  127.6070  126.5540   71.3020 C   0  0  0  0  0  0  0  0  0  0  0  0
  127.7600  125.9540   70.0200 O   0  0  0  0  0  0  0  0  0  0  0  0
  128.4590  126.6280   69.0350 C   0  0  0  0  0  0  0  0  0  0  0  0
  129.7570  126.2860   68.6210 C   0  0  0  0  0  0  0  0  0  0  0  0
  130.4030  127.0110   67.6180 C   0  0  0  0  0  0  0  0  0  0  0  0
  131.8220  126.6430   67.2020 C   0  0  0  0  0  0  0  0  0  0  0  0
  131.8950  125.6930   66.0920 N   0  0  0  0  0  0  0  0  0  0  0  0
  133.0300  125.1900   65.5630 C   0  0  0  0  0  0  0  0  0  0  0  0
  134.1470  125.4750   65.9990 O   0  0  0  0  0  0  0  0  0  0  0  0
  132.8600  124.2500   64.4540 C   0  0  0  0  0  0  0  0  0  0  0  0
  132.2780  122.6170   64.7630 S   0  0  0  0  0  0  0  0  0  0  0  0
  132.3350  122.2280   63.0610 C   0  0  0  0  0  0  0  0  0  0  0  0
  131.9900  121.0240   62.6120 N   0  0  0  0  0  0  0  0  0  0  0  0
  132.0610  120.8160   61.2710 C   0  0  0  0  0  0  0  0  0  0  0  0
  131.6700  119.4450   60.7980 C   0  0  0  0  0  0  0  0  0  0  0  0
  130.5390  118.7980   61.3230 C   0  0  0  0  0  0  0  0  0  0  0  0
  130.1720  117.5270   60.8880 C   0  0  0  0  0  0  0  0  0  0  0  0
  130.9340  116.8820   59.9200 C   0  0  0  0  0  0  0  0  0  0  0  0
  132.0610  117.4980   59.3860 C   0  0  0  0  0  0  0  0  0  0  0  0
  132.4250  118.7680   59.8250 C   0  0  0  0  0  0  0  0  0  0  0  0
  132.4950  121.8120   60.3910 C   0  0  0  0  0  0  0  0  0  0  0  0
  132.8640  123.0850   60.8540 C   0  0  0  0  0  0  0  0  0  0  0  0
  133.3310  124.1310   59.8350 C   0  0  0  0  0  0  0  0  0  0  0  0
  134.5170  124.6650   60.1380 F   0  0  0  0  0  0  0  0  0  0  0  0
  133.4410  123.5700   58.6320 F   0  0  0  0  0  0  0  0  0  0  0  0
  132.4490  125.1280   59.7760 F   0  0  0  0  0  0  0  0  0  0  0  0
  132.7810  123.3180   62.2570 C   0  0  0  0  0  0  0  0  0  0  0  0
  133.0620  124.4680   63.0820 C   0  0  0  0  0  0  0  0  0  0  0  0
  133.4990  125.6620   62.5690 N   0  0  0  0  0  0  0  0  0  0  0  0
  129.7560  128.0990   67.0310 C   0  0  0  0  0  0  0  0  0  0  0  0
  128.4590  128.4640   67.4260 C   0  0  0  0  0  0  0  0  0  0  0  0
  127.7590  129.5280   66.8870 O   0  0  0  0  0  0  0  0  0  0  0  0
  128.0070  129.9180   65.5400 C   0  0  0  0  0  0  0  0  0  0  0  0
  127.8190  127.7160   68.4250 C   0  0  0  0  0  0  0  0  0  0  0  0
  126.5560  128.0710   68.8310 O   0  0  0  0  0  0  0  0  0  0  0  0
  125.5850  128.0470   67.7930 C   0  0  0  0  0  0  0  0  0  0  0  0
  1  2  1  0
  2  3  1  0
  3  4  2  0
  4  5  1  0
  5  6  1  0
  6  7  1  0
  7  8  1  0
  8  9  2  0
  8 10  1  0
 10 11  1  0
 11 12  1  0
 12 13  2  0
 13 14  1  0
 14 15  1  0
 15 16  2  0
 16 17  1  0
 17 18  2  0
 18 19  1  0
 19 20  2  0
 14 21  2  0
 21 22  1  0
 22 23  1  0
 23 24  1  0
 23 25  1  0
 23 26  1  0
 22 27  2  0
 27 28  1  0
 28 29  1  0
  5 30  2  0
 30 31  1  0
 31 32  1  0
 32 33  1  0
 31 34  2  0
 34 35  1  0
 35 36  1  0
 34  3  1  0
 28 10  2  0
 27 12  1  0
 20 15  1  0
M  END
>  <Binding energies>  (57) 
[-7.97]

>  <Ligand effiencies>  (57) 
[-0.20435897435897435]

>  <Interactions>  (57) 
["V-B:ALA:541:CB:9863, V-B:TYR:539:CE2:9847, V-A:ILE:369:CG2:3236, V-B:TYR:539:CD2:9845, V-A:ARG:545:CZ:4925, V-A:LEU:475:CD2:4258, V-B:TYR:539:C:9838, H-A:ARG:545:NE:4923, V-A:ILE:369:CD1:3238, V-A:ASP:366:CG:3212, V-A:HIS:456:CE1:4069, V-B:GLY:544:C:9883, V-B:GLU:543:CB:9877, V-B:GLU:543:C:9873, V-B:HIS:456:CE1:9040, V-B:GLU:543:CD:9879, V-B:ARG:545:CG:9893, V-A:GLU:543:CD:4907, V-A:GLU:543:CB:4905, V-A:ASP:366:CB:3211, V-A:GLU:543:CG:4906, V-B:ARG:545:CD:9894, H-B:TYR:484:OH:9318, V-B:TYR:539:CG:9843, V-B:TYR:539:CB:9842, V-A:HIS:383:CE1:3393, V-B:TYR:539:CZ:9848, V-A:ASP:366:CA:3209, V-A:ILE:369:CB:3235, H-B:GLU:543:OE2:9881, H-A:TYR:484:OH:4347, H-A:GLY:454:N:4049, V-A:TYR:484:CZ:4346, H-A:ASP:366:OD2:3214, H-A:ASP:366:OD1:3213, V-A:GLY:454:CA:4048, V-A:PRO:482:CB:4325, V-A:PRO:482:CG:4326, V-B:VAL:344:CG1:7971, V-A:ILE:369:CG1:3237"]

$$$$
4cj_Grossjean_2025
     RDKit          3D

 28 31  0  0  0  0  0  0  0  0999 V2000
  132.0870  125.4280   61.5450 N   0  0  0  0  0  0  0  0  0  0  0  0
  130.9000  124.7440   61.6200 C   0  0  0  0  0  0  0  0  0  0  0  0
  130.3630  124.2650   62.8260 C   0  0  0  0  0  0  0  0  0  0  0  0
  130.9070  124.3870   64.1800 C   0  0  0  0  0  0  0  0  0  0  0  0
  130.4500  123.7130   65.1070 O   0  0  0  0  0  0  0  0  0  0  0  0
  131.9160  125.2820   64.3240 N   0  0  0  0  0  0  0  0  0  0  0  0
  132.6000  125.5870   65.4940 C   0  0  0  0  0  0  0  0  0  0  0  0
  133.8850  125.4420   65.7370 N   0  0  0  0  0  0  0  0  0  0  0  0
  134.1940  125.8360   66.9570 C   0  0  0  0  0  0  0  0  0  0  0  0
  133.1430  126.3170   67.7330 C   0  0  0  0  0  0  0  0  0  0  0  0
  131.6740  126.2440   66.8050 S   0  0  0  0  0  0  0  0  0  0  0  0
  128.8260  123.4460   62.5570 S   0  0  0  0  0  0  0  0  0  0  0  0
  128.9150  123.7490   60.8380 C   0  0  0  0  0  0  0  0  0  0  0  0
  127.9550  123.3410   60.0120 N   0  0  0  0  0  0  0  0  0  0  0  0
  128.1060  123.6280   58.6930 C   0  0  0  0  0  0  0  0  0  0  0  0
  126.9990  123.1650   57.7900 C   0  0  0  0  0  0  0  0  0  0  0  0
  127.2850  122.5480   56.5610 C   0  0  0  0  0  0  0  0  0  0  0  0
  126.2640  122.1210   55.7160 C   0  0  0  0  0  0  0  0  0  0  0  0
  124.9360  122.3100   56.0880 C   0  0  0  0  0  0  0  0  0  0  0  0
  124.6260  122.9200   57.2980 C   0  0  0  0  0  0  0  0  0  0  0  0
  125.6500  123.3440   58.1400 C   0  0  0  0  0  0  0  0  0  0  0  0
  129.2320  124.3010   58.2080 C   0  0  0  0  0  0  0  0  0  0  0  0
  130.2520  124.7340   59.0710 C   0  0  0  0  0  0  0  0  0  0  0  0
  131.4570  125.4690   58.4730 C   0  0  0  0  0  0  0  0  0  0  0  0
  131.6200  126.6970   58.9680 F   0  0  0  0  0  0  0  0  0  0  0  0
  132.5720  124.7850   58.7270 F   0  0  0  0  0  0  0  0  0  0  0  0
  131.3050  125.5870   57.1540 F   0  0  0  0  0  0  0  0  0  0  0  0
  130.0940  124.4550   60.4590 C   0  0  0  0  0  0  0  0  0  0  0  0
  1  2  1  0
  2  3  2  0
  3  4  1  0
  4  5  2  0
  4  6  1  0
  6  7  1  0
  7  8  2  0
  8  9  1  0
  9 10  2  0
 10 11  1  0
  3 12  1  0
 12 13  1  0
 13 14  2  0
 14 15  1  0
 15 16  1  0
 16 17  2  0
 17 18  1  0
 18 19  2  0
 19 20  1  0
 20 21  2  0
 15 22  2  0
 22 23  1  0
 23 24  1  0
 24 25  1  0
 24 26  1  0
 24 27  1  0
 23 28  2  0
 28  2  1  0
 11  7  1  0
 28 13  1  0
 21 16  1  0
M  END
>  <Binding energies>  (58) 
[-7.65]

>  <Ligand effiencies>  (58) 
[-0.24677419354838712]

>  <Interactions>  (58) 
["V-B:TYR:539:CE2:9847, V-B:PRO:540:CB:9856, V-B:MET:535:CE:9806, V-B:PRO:540:CA:9854, V-B:TYR:531:CE2:9764, V-A:ARG:545:CZ:4925, V-B:LEU:363:CD1:8159, V-B:TYR:539:C:9838, H-A:ARG:545:NE:4923, V-A:ASP:366:CG:3212, V-A:HIS:456:CE1:4069, V-B:PRO:540:N:9855, V-B:PRO:540:CG:9857, V-B:PRO:540:CD:9858, V-A:ASP:366:CB:3211, V-B:TYR:539:CG:9843, V-B:TYR:539:CZ:9848, H-A:TYR:484:OH:4347, H-A:GLY:454:N:4049, V-B:TYR:539:CD1:9844, H-A:ASP:366:OD2:3214, V-A:ARG:545:CD:4922, V-A:ARG:545:CG:4921, V-B:ILE:538:CD1:9836, H-A:ASP:366:OD1:3213, V-B:ILE:538:CG2:9834, V-B:ILE:538:CA:9831, V-B:ILE:538:C:9829, V-B:MET:535:CG:9804"]

$$$$
4ck_Grossjean_2025
     RDKit          3D

 33 35  0  0  0  0  0  0  0  0999 V2000
  126.0080  122.5010   55.1410 C   0  0  0  0  0  0  0  0  0  0  0  0
  127.1310  122.1300   55.9250 O   0  0  0  0  0  0  0  0  0  0  0  0
  127.0640  122.5980   57.2650 C   0  0  0  0  0  0  0  0  0  0  0  0
  125.5930  122.7450   57.6710 C   0  0  0  0  0  0  0  0  0  0  0  0
  125.5170  123.4910   58.8780 O   0  0  0  0  0  0  0  0  0  0  0  0
  124.2200  124.0090   59.1450 C   0  0  0  0  0  0  0  0  0  0  0  0
  123.8760  125.0690   58.0900 C   0  0  0  0  0  0  0  0  0  0  0  0
  125.0790  125.6920   57.6590 O   0  0  0  0  0  0  0  0  0  0  0  0
  125.1000  127.1000   57.8560 C   0  0  0  0  0  0  0  0  0  0  0  0
  125.6530  127.4160   59.2550 C   0  0  0  0  0  0  0  0  0  0  0  0
  126.4450  126.3100   59.7950 N   0  0  0  0  0  0  0  0  0  0  0  0
  127.0710  126.2980   60.9900 C   0  0  0  0  0  0  0  0  0  0  0  0
  127.0120  127.2390   61.7830 O   0  0  0  0  0  0  0  0  0  0  0  0
  127.8260  125.0840   61.3040 C   0  0  0  0  0  0  0  0  0  0  0  0
  128.0610  123.8460   60.0720 S   0  0  0  0  0  0  0  0  0  0  0  0
  129.0220  122.8790   61.1660 C   0  0  0  0  0  0  0  0  0  0  0  0
  129.5410  121.7140   60.7900 N   0  0  0  0  0  0  0  0  0  0  0  0
  130.2730  121.0320   61.7090 C   0  0  0  0  0  0  0  0  0  0  0  0
  130.8600  119.7300   61.2480 C   0  0  0  0  0  0  0  0  0  0  0  0
  130.1570  118.5250   61.4120 C   0  0  0  0  0  0  0  0  0  0  0  0
  130.6970  117.3130   60.9880 C   0  0  0  0  0  0  0  0  0  0  0  0
  131.9530  117.2890   60.3910 C   0  0  0  0  0  0  0  0  0  0  0  0
  132.6690  118.4680   60.2110 C   0  0  0  0  0  0  0  0  0  0  0  0
  132.1250  119.6770   60.6350 C   0  0  0  0  0  0  0  0  0  0  0  0
  130.4870  121.5290   62.9990 C   0  0  0  0  0  0  0  0  0  0  0  0
  129.9430  122.7570   63.4070 C   0  0  0  0  0  0  0  0  0  0  0  0
  130.2140  123.2410   64.8370 C   0  0  0  0  0  0  0  0  0  0  0  0
  130.7350  124.4680   64.8850 F   0  0  0  0  0  0  0  0  0  0  0  0
  129.0750  123.2630   65.5280 F   0  0  0  0  0  0  0  0  0  0  0  0
  131.0760  122.4170   65.4340 F   0  0  0  0  0  0  0  0  0  0  0  0
  129.1720  123.4790   62.4510 C   0  0  0  0  0  0  0  0  0  0  0  0
  128.4810  124.7450   62.4980 C   0  0  0  0  0  0  0  0  0  0  0  0
  128.4660  125.5430   63.6130 N   0  0  0  0  0  0  0  0  0  0  0  0
  1  2  1  0
  2  3  1  0
  3  4  1  0
  4  5  1  0
  5  6  1  0
  6  7  1  0
  7  8  1  0
  8  9  1  0
  9 10  1  0
 10 11  1  0
 11 12  1  0
 12 13  2  0
 12 14  1  0
 14 15  1  0
 15 16  1  0
 16 17  2  0
 17 18  1  0
 18 19  1  0
 19 20  2  0
 20 21  1  0
 21 22  2  0
 22 23  1  0
 23 24  2  0
 18 25  2  0
 25 26  1  0
 26 27  1  0
 27 28  1  0
 27 29  1  0
 27 30  1  0
 26 31  2  0
 31 32  1  0
 32 33  1  0
 32 14  2  0
 31 16  1  0
 24 19  1  0
M  END
>  <Binding energies>  (59) 
[-6.25]

>  <Ligand effiencies>  (59) 
[-0.1736111111111111]

>  <Interactions>  (59) 
["V-B:ALA:541:CB:9863, V-B:TYR:539:CE2:9847, V-B:ASP:366:CB:8182, V-B:PRO:540:CB:9856, V-B:MET:535:CE:9806, V-B:PRO:540:CA:9854, V-A:SER:385:CA:3406, V-B:TYR:531:CZ:9765, V-B:TYR:539:CD2:9845, V-B:TYR:531:CE2:9764, V-B:LEU:363:CD1:8159, V-A:LEU:475:CD2:4258, V-B:TYR:539:C:9838, V-B:GLU:543:CB:9877, V-B:ASP:366:CG:8183, V-B:PRO:540:N:9855, V-B:PRO:540:CG:9857, V-B:PRO:540:CD:9858, V-B:GLU:543:CD:9879, V-A:HIS:383:CE1:3393, H-B:GLU:543:OE1:9880, H-B:TYR:539:N:9841, H-B:GLU:543:OE2:9881, V-A:LEU:475:CD1:4257, V-B:GLU:543:CG:9878, V-A:TYR:484:CZ:4346, H-B:TYR:531:OH:9766, V-B:ILE:538:CD1:9836, V-B:ILE:538:CA:9831, V-A:LEU:475:CG:4256, V-A:TYR:484:CE2:4345, V-B:MET:535:CG:9804, V-A:PRO:482:CB:4325, V-A:PRO:482:CG:4326"]

$$$$
4dd_Grossjean_2025
     RDKit          3D

 26 29  0  0  0  0  0  0  0  0999 V2000
  133.8360  124.2250   60.4790 C   0  0  0  0  0  0  0  0  0  0  0  0
  132.9940  123.2700   61.3130 C   0  0  0  0  0  0  0  0  0  0  0  0
  132.7470  121.9900   60.8020 C   0  0  0  0  0  0  0  0  0  0  0  0
  131.9800  121.0640   61.5210 C   0  0  0  0  0  0  0  0  0  0  0  0
  131.6940  119.6890   60.9960 C   0  0  0  0  0  0  0  0  0  0  0  0
  132.5810  119.0590   60.1070 C   0  0  0  0  0  0  0  0  0  0  0  0
  132.3230  117.7810   59.6190 C   0  0  0  0  0  0  0  0  0  0  0  0
  131.1700  117.1120   60.0130 C   0  0  0  0  0  0  0  0  0  0  0  0
  130.2750  117.7100   60.8930 C   0  0  0  0  0  0  0  0  0  0  0  0
  130.5380  118.9880   61.3810 C   0  0  0  0  0  0  0  0  0  0  0  0
  131.4360  121.3680   62.7310 N   0  0  0  0  0  0  0  0  0  0  0  0
  131.6760  122.5830   63.2210 C   0  0  0  0  0  0  0  0  0  0  0  0
  131.0530  123.0990   64.7720 S   0  0  0  0  0  0  0  0  0  0  0  0
  131.8090  124.6850   64.6020 C   0  0  0  0  0  0  0  0  0  0  0  0
  131.6760  125.6870   65.6610 C   0  0  0  0  0  0  0  0  0  0  0  0
  132.5630  126.5200   65.8510 O   0  0  0  0  0  0  0  0  0  0  0  0
  130.5290  125.6220   66.3810 N   0  0  0  0  0  0  0  0  0  0  0  0
  130.1200  126.3910   67.4850 C   0  0  0  0  0  0  0  0  0  0  0  0
  129.4130  125.7060   68.4780 C   0  0  0  0  0  0  0  0  0  0  0  0
  128.9770  126.3750   69.6180 C   0  0  0  0  0  0  0  0  0  0  0  0
  129.2540  127.7310   69.7700 C   0  0  0  0  0  0  0  0  0  0  0  0
  129.9680  128.4230   68.7960 C   0  0  0  0  0  0  0  0  0  0  0  0
  130.4050  127.7560   67.6540 C   0  0  0  0  0  0  0  0  0  0  0  0
  132.5030  124.7860   63.3860 C   0  0  0  0  0  0  0  0  0  0  0  0
  133.1830  125.9090   62.9850 N   0  0  0  0  0  0  0  0  0  0  0  0
  132.4440  123.5960   62.5790 C   0  0  0  0  0  0  0  0  0  0  0  0
  1  2  1  0
  2  3  2  0
  3  4  1  0
  4  5  1  0
  5  6  2  0
  6  7  1  0
  7  8  2  0
  8  9  1  0
  9 10  2  0
  4 11  2  0
 11 12  1  0
 12 13  1  0
 13 14  1  0
 14 15  1  0
 15 16  2  0
 15 17  1  0
 17 18  1  0
 18 19  2  0
 19 20  1  0
 20 21  2  0
 21 22  1  0
 22 23  2  0
 14 24  2  0
 24 25  1  0
 24 26  1  0
 26  2  1  0
 10  5  1  0
 26 12  2  0
 23 18  1  0
M  END
>  <Binding energies>  (60) 
[-8.79]

>  <Ligand effiencies>  (60) 
[-0.30310344827586205]

>  <Interactions>  (60) 
["V-B:ALA:541:CB:9863, V-B:TYR:539:CE2:9847, V-A:ILE:369:CG2:3236, V-B:TYR:539:CD2:9845, H-A:ARG:545:NH2:4927, V-A:ARG:545:CZ:4925, V-A:LEU:475:CD2:4258, V-B:TYR:539:C:9838, H-A:ARG:545:NE:4923, V-A:ILE:369:CD1:3238, V-A:ASP:366:CG:3212, V-A:HIS:456:CE1:4069, V-B:GLU:543:CB:9877, V-B:HIS:456:CE1:9040, V-B:GLU:543:CD:9879, V-A:GLU:543:CD:4907, V-A:GLU:543:CB:4905, V-A:ASP:366:CB:3211, V-B:TYR:539:CB:9842, V-A:HIS:383:CE1:3393, V-A:ILE:369:CB:3235, H-B:GLU:543:OE2:9881, H-A:TYR:484:OH:4347, V-B:GLU:543:CG:9878, V-A:TYR:484:CZ:4346, H-A:ASP:366:OD2:3214, H-A:ASP:366:OD1:3213, V-A:TYR:484:CE2:4345, V-A:PRO:482:CB:4325, V-A:PRO:482:CG:4326"]

$$$$
4dg_Grossjean_2025
     RDKit          3D

 27 30  0  0  0  0  0  0  0  0999 V2000
  133.8060  124.0060   60.5310 C   0  0  0  0  0  0  0  0  0  0  0  0
  132.9230  123.1450   61.4210 C   0  0  0  0  0  0  0  0  0  0  0  0
  132.6010  121.8550   60.9820 C   0  0  0  0  0  0  0  0  0  0  0  0
  131.7930  121.0120   61.7550 C   0  0  0  0  0  0  0  0  0  0  0  0
  131.4320  119.6230   61.3100 C   0  0  0  0  0  0  0  0  0  0  0  0
  132.2710  118.9010   60.4460 C   0  0  0  0  0  0  0  0  0  0  0  0
  131.9390  117.6150   60.0280 C   0  0  0  0  0  0  0  0  0  0  0  0
  130.7580  117.0290   60.4700 C   0  0  0  0  0  0  0  0  0  0  0  0
  129.9050  117.7220   61.3230 C   0  0  0  0  0  0  0  0  0  0  0  0
  130.2410  119.0080   61.7380 C   0  0  0  0  0  0  0  0  0  0  0  0
  131.3040  121.3980   62.9640 N   0  0  0  0  0  0  0  0  0  0  0  0
  131.6090  122.6260   63.3840 C   0  0  0  0  0  0  0  0  0  0  0  0
  131.0410  123.2490   64.9150 S   0  0  0  0  0  0  0  0  0  0  0  0
  131.8640  124.7840   64.6450 C   0  0  0  0  0  0  0  0  0  0  0  0
  131.7460  125.8630   65.6240 C   0  0  0  0  0  0  0  0  0  0  0  0
  132.7360  126.3180   66.2020 O   0  0  0  0  0  0  0  0  0  0  0  0
  130.4930  126.2950   65.8770 N   0  0  0  0  0  0  0  0  0  0  0  0
  130.1390  127.3740   66.7980 C   0  0  0  0  0  0  0  0  0  0  0  0
  129.5780  126.8780   68.1260 C   0  0  0  0  0  0  0  0  0  0  0  0
  129.5100  125.5040   68.3810 C   0  0  0  0  0  0  0  0  0  0  0  0
  129.0280  125.0480   69.6050 C   0  0  0  0  0  0  0  0  0  0  0  0
  128.6260  125.9650   70.5730 C   0  0  0  0  0  0  0  0  0  0  0  0
  128.7070  127.3350   70.3330 C   0  0  0  0  0  0  0  0  0  0  0  0
  129.1900  127.7920   69.1090 C   0  0  0  0  0  0  0  0  0  0  0  0
  132.5300  124.7960   63.4100 C   0  0  0  0  0  0  0  0  0  0  0  0
  133.2410  125.8690   62.9360 N   0  0  0  0  0  0  0  0  0  0  0  0
  132.4090  123.5660   62.6740 C   0  0  0  0  0  0  0  0  0  0  0  0
  1  2  1  0
  2  3  2  0
  3  4  1  0
  4  5  1  0
  5  6  2  0
  6  7  1  0
  7  8  2  0
  8  9  1  0
  9 10  2  0
  4 11  2  0
 11 12  1  0
 12 13  1  0
 13 14  1  0
 14 15  1  0
 15 16  2  0
 15 17  1  0
 17 18  1  0
 18 19  1  0
 19 20  2  0
 20 21  1  0
 21 22  2  0
 22 23  1  0
 23 24  2  0
 14 25  2  0
 25 26  1  0
 25 27  1  0
 27  2  1  0
 10  5  1  0
 27 12  2  0
 24 19  1  0
M  END
>  <Binding energies>  (61) 
[-8.78]

>  <Ligand effiencies>  (61) 
[-0.29266666666666663]

>  <Interactions>  (61) 
["V-B:ALA:541:CB:9863, V-B:TYR:539:CE2:9847, V-A:ILE:369:CG2:3236, V-B:TYR:539:CD2:9845, V-A:ARG:545:CZ:4925, V-A:LEU:475:CD2:4258, V-B:TYR:539:C:9838, H-A:ARG:545:NE:4923, V-A:ILE:369:CD1:3238, V-A:ASP:366:CG:3212, V-A:HIS:456:CE1:4069, V-B:GLU:543:CB:9877, V-B:GLU:543:C:9873, V-B:HIS:456:CE1:9040, V-A:HIS:456:CD2:4067, V-B:GLU:543:CD:9879, V-A:GLU:543:CD:4907, V-A:TYR:484:CD2:4343, V-B:TYR:539:CB:9842, V-A:HIS:383:CE1:3393, V-A:ILE:369:CB:3235, H-B:GLU:543:OE2:9881, H-A:TYR:484:OH:4347, V-B:GLU:543:CG:9878, V-A:TYR:484:CZ:4346, H-A:ASP:366:OD2:3214, H-A:ASP:366:OD1:3213, V-A:TYR:484:CE2:4345, V-A:PRO:482:CB:4325, V-A:PRO:482:CG:4326, V-B:VAL:344:CG1:7971, V-B:GLU:543:CA:9875, V-A:ILE:369:CG1:3237"]

$$$$
4dj_Grossjean_2025
     RDKit          3D

 25 28  0  0  0  0  0  0  0  0999 V2000
  133.8260  124.0530   60.4500 C   0  0  0  0  0  0  0  0  0  0  0  0
  132.9550  123.1680   61.3280 C   0  0  0  0  0  0  0  0  0  0  0  0
  132.6520  121.8800   60.8720 C   0  0  0  0  0  0  0  0  0  0  0  0
  131.8540  121.0160   61.6330 C   0  0  0  0  0  0  0  0  0  0  0  0
  131.5170  119.6270   61.1710 C   0  0  0  0  0  0  0  0  0  0  0  0
  132.3300  118.9590   60.2410 C   0  0  0  0  0  0  0  0  0  0  0  0
  132.0230  117.6720   59.8090 C   0  0  0  0  0  0  0  0  0  0  0  0
  130.8900  117.0320   60.3000 C   0  0  0  0  0  0  0  0  0  0  0  0
  130.0640  117.6700   61.2190 C   0  0  0  0  0  0  0  0  0  0  0  0
  130.3760  118.9570   61.6490 C   0  0  0  0  0  0  0  0  0  0  0  0
  131.3560  121.3800   62.8460 N   0  0  0  0  0  0  0  0  0  0  0  0
  131.6430  122.6060   63.2810 C   0  0  0  0  0  0  0  0  0  0  0  0
  131.0620  123.2050   64.8180 S   0  0  0  0  0  0  0  0  0  0  0  0
  131.8650  124.7570   64.5700 C   0  0  0  0  0  0  0  0  0  0  0  0
  131.7590  125.8150   65.5770 C   0  0  0  0  0  0  0  0  0  0  0  0
  132.7600  126.4300   65.9530 O   0  0  0  0  0  0  0  0  0  0  0  0
  130.5100  126.0450   66.0510 N   0  0  0  0  0  0  0  0  0  0  0  0
  130.1390  126.9830   67.0040 C   0  0  0  0  0  0  0  0  0  0  0  0
  130.5610  127.0830   68.2460 N   0  0  0  0  0  0  0  0  0  0  0  0
  129.9960  128.0980   68.8700 C   0  0  0  0  0  0  0  0  0  0  0  0
  129.0900  128.8500   68.1280 C   0  0  0  0  0  0  0  0  0  0  0  0
  128.9810  128.1830   66.5270 S   0  0  0  0  0  0  0  0  0  0  0  0
  132.5430  124.7850   63.3420 C   0  0  0  0  0  0  0  0  0  0  0  0
  133.2530  125.8680   62.8860 N   0  0  0  0  0  0  0  0  0  0  0  0
  132.4340  123.5660   62.5870 C   0  0  0  0  0  0  0  0  0  0  0  0
  1  2  1  0
  2  3  2  0
  3  4  1  0
  4  5  1  0
  5  6  2  0
  6  7  1  0
  7  8  2  0
  8  9  1  0
  9 10  2  0
  4 11  2  0
 11 12  1  0
 12 13  1  0
 13 14  1  0
 14 15  1  0
 15 16  2  0
 15 17  1  0
 17 18  1  0
 18 19  2  0
 19 20  1  0
 20 21  2  0
 21 22  1  0
 14 23  2  0
 23 24  1  0
 23 25  1  0
 25  2  1  0
 10  5  1  0
 25 12  2  0
 22 18  1  0
M  END
>  <Binding energies>  (62) 
[-8.26]

>  <Ligand effiencies>  (62) 
[-0.295]

>  <Interactions>  (62) 
["V-B:ALA:541:CB:9863, V-B:TYR:539:CE2:9847, V-A:ILE:369:CG2:3236, V-B:TYR:539:CD2:9845, H-A:ARG:545:NH2:4927, V-A:ARG:545:CZ:4925, V-A:LEU:475:CD2:4258, V-B:TYR:539:C:9838, H-A:ARG:545:NE:4923, V-A:ILE:369:CD1:3238, V-A:ASP:366:CG:3212, V-A:HIS:456:CE1:4069, V-B:GLU:543:CD:9879, V-A:GLU:543:CD:4907, V-A:GLU:543:CB:4905, V-A:ASP:366:CB:3211, V-A:GLU:543:CG:4906, V-B:TYR:539:CB:9842, V-A:HIS:383:CE1:3393, V-A:ILE:369:CB:3235, H-B:GLU:543:OE2:9881, H-A:TYR:484:OH:4347, V-A:TYR:484:CZ:4346, H-A:ASP:366:OD2:3214, H-A:ASP:366:OD1:3213, V-A:PRO:482:CB:4325, V-A:PRO:482:CG:4326, V-B:VAL:344:CG1:7971, V-A:ILE:369:CG1:3237"]

$$$$
4ea_Grossjean_2025
     RDKit          3D

 31 34  0  0  0  0  0  0  0  0999 V2000
  124.1970  124.7310   57.7080 C   0  0  0  0  0  0  0  0  0  0  0  0
  124.6290  123.3010   57.3700 C   0  0  0  0  0  0  0  0  0  0  0  0
  125.6130  123.3350   56.3450 O   0  0  0  0  0  0  0  0  0  0  0  0
  126.8190  122.7320   56.5100 C   0  0  0  0  0  0  0  0  0  0  0  0
  127.2250  121.8160   55.7880 O   0  0  0  0  0  0  0  0  0  0  0  0
  127.6100  123.2910   57.6570 C   0  0  0  0  0  0  0  0  0  0  0  0
  127.9200  122.4610   58.7420 C   0  0  0  0  0  0  0  0  0  0  0  0
  128.6510  122.9490   59.8210 C   0  0  0  0  0  0  0  0  0  0  0  0
  129.0870  124.2740   59.8390 C   0  0  0  0  0  0  0  0  0  0  0  0
  129.8180  124.6570   60.9800 N   0  0  0  0  0  0  0  0  0  0  0  0
  130.4460  125.8230   61.2720 C   0  0  0  0  0  0  0  0  0  0  0  0
  130.4750  126.8000   60.5240 O   0  0  0  0  0  0  0  0  0  0  0  0
  131.1160  125.8620   62.5740 C   0  0  0  0  0  0  0  0  0  0  0  0
  132.7940  125.3370   62.7320 S   0  0  0  0  0  0  0  0  0  0  0  0
  132.7920  125.6820   64.4460 C   0  0  0  0  0  0  0  0  0  0  0  0
  133.8680  125.4780   65.2080 N   0  0  0  0  0  0  0  0  0  0  0  0
  133.7350  125.7860   66.5220 C   0  0  0  0  0  0  0  0  0  0  0  0
  134.9710  125.5460   67.3690 C   0  0  0  0  0  0  0  0  0  0  0  0
  132.5640  126.2880   67.0850 C   0  0  0  0  0  0  0  0  0  0  0  0
  131.4380  126.5010   66.2830 C   0  0  0  0  0  0  0  0  0  0  0  0
  130.2020  127.0350   66.8970 C   0  0  0  0  0  0  0  0  0  0  0  0
  129.5340  128.1140   66.3090 C   0  0  0  0  0  0  0  0  0  0  0  0
  128.3700  128.6150   66.8840 C   0  0  0  0  0  0  0  0  0  0  0  0
  127.8740  128.0390   68.0510 C   0  0  0  0  0  0  0  0  0  0  0  0
  128.5330  126.9660   68.6480 C   0  0  0  0  0  0  0  0  0  0  0  0
  129.6970  126.4660   68.0710 C   0  0  0  0  0  0  0  0  0  0  0  0
  131.5360  126.1900   64.8990 C   0  0  0  0  0  0  0  0  0  0  0  0
  130.5980  126.2820   63.8100 C   0  0  0  0  0  0  0  0  0  0  0  0
  129.3180  126.7420   63.9840 N   0  0  0  0  0  0  0  0  0  0  0  0
  128.7810  125.1140   58.7560 C   0  0  0  0  0  0  0  0  0  0  0  0
  128.0500  124.6240   57.6780 C   0  0  0  0  0  0  0  0  0  0  0  0
  1  2  1  0
  2  3  1  0
  3  4  1  0
  4  5  2  0
  4  6  1  0
  6  7  2  0
  7  8  1  0
  8  9  2  0
  9 10  1  0
 10 11  1  0
 11 12  2  0
 11 13  1  0
 13 14  1  0
 14 15  1  0
 15 16  2  0
 16 17  1  0
 17 18  1  0
 17 19  2  0
 19 20  1  0
 20 21  1  0
 21 22  2  0
 22 23  1  0
 23 24  2  0
 24 25  1  0
 25 26  2  0
 20 27  2  0
 27 28  1  0
 28 29  1  0
  9 30  1  0
 30 31  2  0
 31  6  1  0
 28 13  2  0
 27 15  1  0
 26 21  1  0
M  END
>  <Binding energies>  (63) 
[-9.35]

>  <Ligand effiencies>  (63) 
[-0.27499999999999997]

>  <Interactions>  (63) 
["V-B:TYR:539:CE2:9847, V-B:ASP:366:CB:8182, V-B:PRO:540:CB:9856, V-B:MET:535:CE:9806, V-B:PRO:540:CA:9854, V-B:TYR:531:CZ:9765, V-A:GLY:453:CA:4043, V-B:TYR:539:CD2:9845, H-A:ARG:545:NH2:4927, V-A:GLY:453:C:4041, V-B:TYR:531:CE2:9764, V-A:ARG:545:CZ:4925, V-B:LEU:363:CD1:8159, V-B:TYR:539:C:9838, H-A:ARG:545:NE:4923, V-A:ASP:366:CG:3212, V-A:HIS:456:CE1:4069, V-B:GLU:543:CB:9877, V-B:PRO:540:N:9855, V-B:GLU:543:CD:9879, V-A:GLU:543:CD:4907, V-A:GLU:543:CG:4906, V-B:TYR:539:CG:9843, H-B:GLU:543:OE1:9880, H-B:TYR:539:N:9841, H-B:GLU:543:OE2:9881, H-A:TYR:484:OH:4347, H-A:GLY:454:N:4049, H-B:TYR:531:OH:9766, V-A:ARG:545:CD:4922, V-A:ARG:545:CG:4921, V-A:GLY:454:CA:4048, H-A:ARG:545:NH1:4926, V-A:ARG:545:CB:4920, V-A:ILE:455:C:4051, V-A:GLY:454:C:4046"]

$$$$
4eb_Grossjean_2025
     RDKit          3D

 30 33  0  0  0  0  0  0  0  0999 V2000
  124.2540  123.7440   57.3190 C   0  0  0  0  0  0  0  0  0  0  0  0
  125.3700  123.6110   56.4500 O   0  0  0  0  0  0  0  0  0  0  0  0
  126.4290  122.8300   56.7880 C   0  0  0  0  0  0  0  0  0  0  0  0
  126.7250  121.7910   56.1920 O   0  0  0  0  0  0  0  0  0  0  0  0
  127.2050  123.3590   57.9600 C   0  0  0  0  0  0  0  0  0  0  0  0
  128.3140  122.6410   58.4260 C   0  0  0  0  0  0  0  0  0  0  0  0
  129.0530  123.1040   59.5100 C   0  0  0  0  0  0  0  0  0  0  0  0
  128.7020  124.2940   60.1500 C   0  0  0  0  0  0  0  0  0  0  0  0
  129.5210  124.6650   61.2340 N   0  0  0  0  0  0  0  0  0  0  0  0
  130.3540  125.7240   61.3830 C   0  0  0  0  0  0  0  0  0  0  0  0
  130.5360  126.5900   60.5260 O   0  0  0  0  0  0  0  0  0  0  0  0
  131.0580  125.7910   62.6660 C   0  0  0  0  0  0  0  0  0  0  0  0
  132.7470  125.2930   62.7850 S   0  0  0  0  0  0  0  0  0  0  0  0
  132.7860  125.6610   64.4940 C   0  0  0  0  0  0  0  0  0  0  0  0
  133.8850  125.4830   65.2290 N   0  0  0  0  0  0  0  0  0  0  0  0
  133.7830  125.8060   66.5400 C   0  0  0  0  0  0  0  0  0  0  0  0
  135.0460  125.5960   67.3580 C   0  0  0  0  0  0  0  0  0  0  0  0
  132.6210  126.2980   67.1300 C   0  0  0  0  0  0  0  0  0  0  0  0
  131.4700  126.4830   66.3560 C   0  0  0  0  0  0  0  0  0  0  0  0
  130.2420  127.0060   66.9970 C   0  0  0  0  0  0  0  0  0  0  0  0
  129.5970  128.1280   66.4680 C   0  0  0  0  0  0  0  0  0  0  0  0
  128.4410  128.6200   67.0690 C   0  0  0  0  0  0  0  0  0  0  0  0
  127.9310  127.9900   68.2020 C   0  0  0  0  0  0  0  0  0  0  0  0
  128.5680  126.8720   68.7380 C   0  0  0  0  0  0  0  0  0  0  0  0
  129.7240  126.3820   68.1360 C   0  0  0  0  0  0  0  0  0  0  0  0
  131.5360  126.1550   64.9740 C   0  0  0  0  0  0  0  0  0  0  0  0
  130.5680  126.2190   63.9100 C   0  0  0  0  0  0  0  0  0  0  0  0
  129.2850  126.6620   64.1130 N   0  0  0  0  0  0  0  0  0  0  0  0
  127.5930  125.0210   59.6900 C   0  0  0  0  0  0  0  0  0  0  0  0
  126.8550  124.5550   58.6060 C   0  0  0  0  0  0  0  0  0  0  0  0
  1  2  1  0
  2  3  1  0
  3  4  2  0
  3  5  1  0
  5  6  2  0
  6  7  1  0
  7  8  2  0
  8  9  1  0
  9 10  1  0
 10 11  2  0
 10 12  1  0
 12 13  1  0
 13 14  1  0
 14 15  2  0
 15 16  1  0
 16 17  1  0
 16 18  2  0
 18 19  1  0
 19 20  1  0
 20 21  2  0
 21 22  1  0
 22 23  2  0
 23 24  1  0
 24 25  2  0
 19 26  2  0
 26 27  1  0
 27 28  1  0
  8 29  1  0
 29 30  2  0
 30  5  1  0
 27 12  2  0
 26 14  1  0
 25 20  1  0
M  END
>  <Binding energies>  (64) 
[-8.65]

>  <Ligand effiencies>  (64) 
[-0.26212121212121214]

>  <Interactions>  (64) 
["V-B:TYR:539:CE2:9847, V-B:PRO:540:CB:9856, V-B:MET:535:CE:9806, V-B:PRO:540:CA:9854, V-B:TYR:531:CZ:9765, V-A:GLY:453:CA:4043, V-B:TYR:539:CD2:9845, H-A:ARG:545:NH2:4927, V-A:GLY:453:C:4041, V-B:TYR:531:CE2:9764, V-A:ARG:545:CZ:4925, V-B:LEU:363:CD1:8159, V-B:TYR:539:C:9838, H-A:ARG:545:NE:4923, V-A:ASP:366:CG:3212, V-A:HIS:456:CE1:4069, V-B:GLU:543:CB:9877, V-B:HIS:456:CE1:9040, V-B:PRO:540:N:9855, V-B:GLU:543:CD:9879, V-A:GLU:543:CD:4907, V-A:GLU:543:CG:4906, V-B:TYR:539:CG:9843, H-B:GLU:543:OE1:9880, H-B:TYR:539:N:9841, V-B:TYR:539:CZ:9848, H-B:GLU:543:OE2:9881, H-A:TYR:484:OH:4347, H-A:GLY:454:N:4049, H-B:TYR:531:OH:9766, V-A:ARG:545:CD:4922, V-A:ARG:545:CG:4921, V-A:GLY:454:CA:4048, H-A:ARG:545:NH1:4926, V-A:ARG:545:CB:4920, V-A:ILE:455:C:4051, V-A:GLY:454:C:4046"]

$$$$
8b_Ghoteimi_2023
     RDKit          3D

 34 38  0  0  0  0  0  0  0  0999 V2000
  121.6730  129.2500   67.4250 C   0  0  0  0  0  0  0  0  0  0  0  0
  122.9530  129.2420   68.0490 O   0  0  0  0  0  0  0  0  0  0  0  0
  124.0870  129.2580   67.2600 C   0  0  0  0  0  0  0  0  0  0  0  0
  123.9130  129.6240   65.9270 C   0  0  0  0  0  0  0  0  0  0  0  0
  124.9980  129.6680   65.0570 C   0  0  0  0  0  0  0  0  0  0  0  0
  126.2890  129.3450   65.4990 C   0  0  0  0  0  0  0  0  0  0  0  0
  127.4590  129.3890   64.5680 C   0  0  0  0  0  0  0  0  0  0  0  0
  128.4090  128.3620   64.5300 C   0  0  0  0  0  0  0  0  0  0  0  0
  129.4930  128.4270   63.6500 C   0  0  0  0  0  0  0  0  0  0  0  0
  130.4870  127.3280   63.6420 C   0  0  0  0  0  0  0  0  0  0  0  0
  131.2220  127.0370   64.7920 C   0  0  0  0  0  0  0  0  0  0  0  0
  132.1480  125.9970   64.7860 C   0  0  0  0  0  0  0  0  0  0  0  0
  132.3550  125.2370   63.6330 C   0  0  0  0  0  0  0  0  0  0  0  0
  133.2920  124.2260   63.7200 O   0  0  0  0  0  0  0  0  0  0  0  0
  134.2730  124.0990   62.6960 C   0  0  0  0  0  0  0  0  0  0  0  0
  131.6170  125.5360   62.4770 C   0  0  0  0  0  0  0  0  0  0  0  0
  130.6900  126.5750   62.4850 C   0  0  0  0  0  0  0  0  0  0  0  0
  129.5950  129.5570   62.7960 C   0  0  0  0  0  0  0  0  0  0  0  0
  130.5510  129.9370   61.7890 C   0  0  0  0  0  0  0  0  0  0  0  0
  131.6360  129.1590   61.4760 N   0  0  0  0  0  0  0  0  0  0  0  0
  130.2660  131.1630   61.1680 C   0  0  0  0  0  0  0  0  0  0  0  0
  131.0140  131.8440   60.1100 C   0  0  0  0  0  0  0  0  0  0  0  0
  132.2170  132.0820   60.2430 O   0  0  0  0  0  0  0  0  0  0  0  0
  130.2930  132.1810   59.0110 N   0  0  0  0  0  0  0  0  0  0  0  0
  130.7450  132.8250   57.8670 C   0  0  0  0  0  0  0  0  0  0  0  0
  131.9790  132.5530   57.2780 C   0  0  0  0  0  0  0  0  0  0  0  0
  132.0480  133.3910   56.1890 C   0  0  0  0  0  0  0  0  0  0  0  0
  130.9130  134.1260   56.1220 O   0  0  0  0  0  0  0  0  0  0  0  0
  130.0930  133.7570   57.1900 N   0  0  0  0  0  0  0  0  0  0  0  0
  128.7910  131.8800   61.8210 S   0  0  0  0  0  0  0  0  0  0  0  0
  128.5680  130.5370   62.9170 C   0  0  0  0  0  0  0  0  0  0  0  0
  127.5360  130.4780   63.7580 N   0  0  0  0  0  0  0  0  0  0  0  0
  126.4580  128.9800   66.8420 C   0  0  0  0  0  0  0  0  0  0  0  0
  125.3740  128.9350   67.7140 C   0  0  0  0  0  0  0  0  0  0  0  0
  1  2  1  0
  2  3  1  0
  3  4  2  0
  4  5  1  0
  5  6  2  0
  6  7  1  0
  7  8  2  0
  8  9  1  0
  9 10  1  0
 10 11  2  0
 11 12  1  0
 12 13  2  0
 13 14  1  0
 14 15  1  0
 13 16  1  0
 16 17  2  0
  9 18  2  0
 18 19  1  0
 19 20  1  0
 19 21  2  0
 21 22  1  0
 22 23  2  0
 22 24  1  0
 24 25  1  0
 25 26  1  0
 26 27  2  0
 27 28  1  0
 28 29  1  0
 21 30  1  0
 30 31  1  0
 31 32  2  0
  6 33  1  0
 33 34  2  0
 34  3  1  0
 32  7  1  0
 17 10  1  0
 31 18  1  0
 29 25  2  0
M  END
>  <Binding energies>  (65) 
[-8.55]

>  <Ligand effiencies>  (65) 
[-0.2310810810810811]

>  <Interactions>  (65) 
["V-A:GLY:453:CA:4043, V-A:GLY:453:C:4041, H-A:GLU:543:OE2:4909, V-A:ARG:545:CZ:4925, V-A:ILE:369:CD1:3238, V-A:ASP:366:CG:3212, V-B:HIS:456:CE1:9040, V-A:ILE:538:CG2:4862, V-B:GLY:454:CA:9019, V-B:GLY:453:CA:9014, V-A:ILE:538:CB:4861, V-A:TYR:539:C:4866, V-B:GLY:453:C:9012, V-B:GLU:543:CD:9879, V-A:PRO:540:CA:4882, V-B:ARG:545:CG:9893, V-A:GLU:543:CD:4907, V-B:ILE:455:C:9022, H-B:ILE:455:N:9025, V-B:ARG:545:CD:9894, V-B:ARG:545:CB:9892, H-B:TYR:484:OH:9318, V-B:ARG:545:CZ:9897, H-A:TYR:539:N:4869, H-A:GLY:454:N:4049, V-A:PRO:540:N:4883, V-A:PRO:540:CD:4886, H-A:ASP:366:OD2:3214, V-A:TYR:531:CE2:4792, V-A:LEU:363:CD1:3188, V-A:GLY:454:CA:4048, V-B:ILE:455:CA:9024, V-B:VAL:452:CG2:9010, V-B:VAL:452:C:9004"]

$$$$
9d_Ghoteimi_2023
     RDKit          3D

 38 43  0  0  0  0  0  0  0  0999 V2000
  135.0780  125.2690   76.4620 C   0  0  0  0  0  0  0  0  0  0  0  0
  134.8330  126.4680   75.7410 O   0  0  0  0  0  0  0  0  0  0  0  0
  133.7470  127.2360   76.0170 C   0  0  0  0  0  0  0  0  0  0  0  0
  133.7080  128.0750   76.9210 O   0  0  0  0  0  0  0  0  0  0  0  0
  132.6030  126.9620   75.1190 C   0  0  0  0  0  0  0  0  0  0  0  0
  131.9910  128.2340   74.0630 S   0  0  0  0  0  0  0  0  0  0  0  0
  130.7880  127.1570   73.3960 C   0  0  0  0  0  0  0  0  0  0  0  0
  129.9530  127.5520   72.4360 N   0  0  0  0  0  0  0  0  0  0  0  0
  129.0660  126.6330   71.9730 C   0  0  0  0  0  0  0  0  0  0  0  0
  128.1560  127.0910   70.8780 C   0  0  0  0  0  0  0  0  0  0  0  0
  128.6150  127.9780   69.8990 C   0  0  0  0  0  0  0  0  0  0  0  0
  127.7760  128.4120   68.8770 C   0  0  0  0  0  0  0  0  0  0  0  0
  126.4480  127.9640   68.7890 C   0  0  0  0  0  0  0  0  0  0  0  0
  125.5870  128.4050   67.7770 N   0  0  0  0  0  0  0  0  0  0  0  0
  124.3810  129.1980   68.0870 C   0  0  0  0  0  0  0  0  0  0  0  0
  123.3810  129.2970   66.9160 C   0  0  0  0  0  0  0  0  0  0  0  0
  124.0340  129.7950   65.7610 O   0  0  0  0  0  0  0  0  0  0  0  0
  125.0920  128.9420   65.3540 C   0  0  0  0  0  0  0  0  0  0  0  0
  126.1460  128.8300   66.4770 C   0  0  0  0  0  0  0  0  0  0  0  0
  125.9890  127.0860   69.7820 C   0  0  0  0  0  0  0  0  0  0  0  0
  126.8280  126.6550   70.8060 C   0  0  0  0  0  0  0  0  0  0  0  0
  128.9940  125.3380   72.4920 C   0  0  0  0  0  0  0  0  0  0  0  0
  129.8560  124.9240   73.5150 C   0  0  0  0  0  0  0  0  0  0  0  0
  129.7180  123.5440   74.0500 C   0  0  0  0  0  0  0  0  0  0  0  0
  128.4820  123.0710   74.4950 C   0  0  0  0  0  0  0  0  0  0  0  0
  128.3540  121.7720   74.9780 C   0  0  0  0  0  0  0  0  0  0  0  0
  129.4580  120.9050   75.0140 C   0  0  0  0  0  0  0  0  0  0  0  0
  129.3580  119.6000   75.5030 N   0  0  0  0  0  0  0  0  0  0  0  0
  128.0660  118.8940   75.4040 C   0  0  0  0  0  0  0  0  0  0  0  0
  128.1880  117.3690   75.6100 C   0  0  0  0  0  0  0  0  0  0  0  0
  128.8220  117.0940   76.8500 O   0  0  0  0  0  0  0  0  0  0  0  0
  130.1270  117.6530   76.9060 C   0  0  0  0  0  0  0  0  0  0  0  0
  130.0510  119.1850   76.7370 C   0  0  0  0  0  0  0  0  0  0  0  0
  130.6950  121.3910   74.5660 C   0  0  0  0  0  0  0  0  0  0  0  0
  130.8220  122.6900   74.0850 C   0  0  0  0  0  0  0  0  0  0  0  0
  130.8210  125.8580   73.9850 C   0  0  0  0  0  0  0  0  0  0  0  0
  131.8830  125.7730   74.9530 C   0  0  0  0  0  0  0  0  0  0  0  0
  132.1780  124.6210   75.6360 N   0  0  0  0  0  0  0  0  0  0  0  0
  1  2  1  0
  2  3  1  0
  3  4  2  0
  3  5  1  0
  5  6  1  0
  6  7  1  0
  7  8  2  0
  8  9  1  0
  9 10  1  0
 10 11  2  0
 11 12  1  0
 12 13  2  0
 13 14  1  0
 14 15  1  0
 15 16  1  0
 16 17  1  0
 17 18  1  0
 18 19  1  0
 13 20  1  0
 20 21  2  0
  9 22  2  0
 22 23  1  0
 23 24  1  0
 24 25  2  0
 25 26  1  0
 26 27  2  0
 27 28  1  0
 28 29  1  0
 29 30  1  0
 30 31  1  0
 31 32  1  0
 32 33  1  0
 27 34  1  0
 34 35  2  0
 23 36  2  0
 36 37  1  0
 37 38  1  0
 37  5  2  0
 36  7  1  0
 21 10  1  0
 35 24  1  0
 19 14  1  0
 33 28  1  0
M  END
>  <Binding energies>  (66) 
[-9.15]

>  <Ligand effiencies>  (66) 
[-0.22875]

>  <Interactions>  (66) 
["V-A:HIS:456:CE1:4069, V-B:GLY:544:C:9883, V-B:GLU:543:CB:9877, V-B:GLU:543:C:9873, V-A:HIS:456:CG:4065, V-A:HIS:456:CB:4064, V-A:GLY:544:C:4911, V-B:HIS:456:CE1:9040, H-A:ASP:473:OD2:4241, V-A:HIS:456:CD2:4067, V-B:LYS:547:CE:9921, V-A:TYR:484:CB:4340, V-A:ASP:485:CA:4352, V-A:TYR:484:C:4336, V-A:PRO:486:CD:4365, V-A:VAL:458:CG2:4086, V-A:ASP:473:CB:4238, V-A:ASP:473:CG:4239, V-B:GLY:453:CA:9014, V-B:GLU:543:CD:9879, V-B:ARG:545:CG:9893, H-A:HIS:456:ND1:4066, H-B:GLY:454:N:9020, V-A:VAL:457:C:4072, V-B:ARG:545:CA:9890, V-A:VAL:457:CA:4074, V-A:HIS:456:C:4060, V-B:ARG:545:CD:9894, H-A:VAL:457:N:4075, V-B:ARG:545:CB:9892, H-B:TYR:484:OH:9318, V-B:ARG:545:CZ:9897, V-B:TYR:484:CZ:9317, V-A:ASP:485:CG:4355"]

$$$$
RR10_Rahimova_2017
     RDKit          3D

 34 38  0  0  0  0  0  0  0  0999 V2000
  124.5700  135.5940   59.4940 C   0  0  0  0  0  0  0  0  0  0  0  0
  125.2480  135.1340   60.7970 C   0  0  1  0  0  0  0  0  0  0  0  0
  125.6560  133.6440   60.7390 C   0  0  0  0  0  0  0  0  0  0  0  0
  126.3030  133.1950   62.0690 C   0  0  0  0  0  0  0  0  0  0  0  0
  127.5450  134.0480   62.4320 C   0  0  1  0  0  0  0  0  0  0  0  0
  128.6440  133.7950   61.4910 N   0  0  0  0  0  0  0  0  0  0  0  0
  129.7610  133.0970   61.7650 C   0  0  0  0  0  0  0  0  0  0  0  0
  129.9700  132.5670   62.8590 O   0  0  0  0  0  0  0  0  0  0  0  0
  130.8080  132.9910   60.6370 C   0  0  1  0  0  0  0  0  0  0  0  0
  131.7750  131.8160   60.9410 C   0  0  0  0  0  0  0  0  0  0  0  0
  132.7690  131.6480   59.7670 C   0  0  0  0  0  0  0  0  0  0  0  0
  132.0570  131.5380   58.3980 C   0  0  0  0  0  0  0  0  0  0  0  0
  131.1020  132.6640   58.2120 N   0  0  0  0  0  0  0  0  0  0  0  0
  130.4530  132.8110   56.5700 S   0  0  0  0  0  0  0  0  0  0  0  0
  131.5510  132.5840   55.6230 O   0  0  0  0  0  0  0  0  0  0  0  0
  129.6640  134.0480   56.5050 O   0  0  0  0  0  0  0  0  0  0  0  0
  129.3250  131.4290   56.3900 C   0  0  0  0  0  0  0  0  0  0  0  0
  128.2730  131.5180   55.4730 C   0  0  0  0  0  0  0  0  0  0  0  0
  127.3580  130.4770   55.2870 C   0  0  0  0  0  0  0  0  0  0  0  0
  127.5480  129.3330   56.0650 C   0  0  0  0  0  0  0  0  0  0  0  0
  126.8820  128.1360   56.1770 N   0  0  0  0  0  0  0  0  0  0  0  0
  127.5330  127.3740   57.1260 C   0  0  0  0  0  0  0  0  0  0  0  0
  127.0920  125.9980   57.5320 C   0  0  0  0  0  0  0  0  0  0  0  0
  127.9530  124.9020   57.3770 C   0  0  0  0  0  0  0  0  0  0  0  0
  127.5460  123.6260   57.7570 C   0  0  0  0  0  0  0  0  0  0  0  0
  126.2750  123.4370   58.2920 C   0  0  0  0  0  0  0  0  0  0  0  0
  125.4080  124.5140   58.4520 C   0  0  0  0  0  0  0  0  0  0  0  0
  125.8160  125.7900   58.0720 C   0  0  0  0  0  0  0  0  0  0  0  0
  128.5760  127.9980   57.6270 N   0  0  0  0  0  0  0  0  0  0  0  0
  128.6100  129.2130   56.9940 C   0  0  0  0  0  0  0  0  0  0  0  0
  129.5130  130.2730   57.1570 C   0  0  0  0  0  0  0  0  0  0  0  0
  130.0830  132.7610   59.2880 C   0  0  0  0  0  0  0  0  0  0  0  0
  127.1250  135.5430   62.4690 C   0  0  0  0  0  0  0  0  0  0  0  0
  126.4850  135.9970   61.1380 C   0  0  0  0  0  0  0  0  0  0  0  0
  2  1  1  6
  2  3  1  0
  3  4  1  0
  4  5  1  0
  5  6  1  6
  6  7  1  0
  7  8  2  0
  9  7  1  1
  9 10  1  0
 10 11  1  0
 11 12  1  0
 12 13  1  0
 13 14  1  0
 14 15  2  0
 14 16  2  0
 14 17  1  0
 17 18  2  0
 18 19  1  0
 19 20  2  0
 20 21  1  0
 21 22  1  0
 22 23  1  0
 23 24  2  0
 24 25  1  0
 25 26  2  0
 26 27  1  0
 27 28  2  0
 22 29  2  0
 29 30  1  0
 30 31  2  0
 13 32  1  0
  5 33  1  0
 33 34  1  0
 34  2  1  0
 32  9  1  0
 31 17  1  0
 30 20  1  0
 28 23  1  0
M  END
>  <Binding energies>  (67) 
[-10.57]

>  <Ligand effiencies>  (67) 
[-0.2936111111111111]

>  <Interactions>  (67) 
["V-B:PRO:540:CB:9856, V-B:MET:535:CE:9806, V-B:PRO:540:CA:9854, V-B:TYR:531:CZ:9765, V-A:MET:535:CE:4834, V-A:TYR:539:CZ:4876, V-B:TYR:531:CE1:9763, V-B:ILE:369:CG2:8207, V-B:PRO:540:N:9855, V-A:TYR:539:CG:4871, V-B:SER:385:CB:8379, V-A:TYR:539:CD1:4872, V-A:TYR:539:C:4866, V-A:TYR:539:CE1:4874, V-B:LEU:475:CD1:9228, V-A:PRO:540:CA:4882, V-A:PRO:540:CB:4884, H-A:ALA:541:N:4890, V-A:ALA:541:CB:4891, H-A:TYR:531:OH:4794, H-A:TYR:539:N:4869, V-A:PRO:540:N:4883, H-B:TYR:531:OH:9766, H-A:TYR:539:O:4867, V-A:PRO:540:C:4880, V-A:ALA:541:CA:4889"]

$$$$
RR12_Rahimova_2017
     RDKit          3D

 26 28  0  0  0  0  0  0  0  0999 V2000
  132.6370  124.1730   60.6690 C   0  0  0  0  0  0  0  0  0  0  0  0
  133.0830  122.7550   60.2880 C   0  0  0  0  0  0  0  0  0  0  0  0
  133.1660  121.8140   61.5040 C   0  0  0  0  0  0  0  0  0  0  0  0
  132.1220  120.7940   61.4410 N   0  0  0  0  0  0  0  0  0  0  0  0
  130.8920  120.8040   62.0800 C   0  0  0  0  0  0  0  0  0  0  0  0
  130.4370  121.9040   63.0240 C   0  0  0  0  0  0  0  0  0  0  0  0
  129.6690  123.0220   62.2950 C   0  0  0  0  0  0  0  0  0  0  0  0
  128.1870  123.0950   62.7110 C   0  0  0  0  0  0  0  0  0  0  0  0
  127.3100  123.6400   61.6750 N   0  0  0  0  0  0  0  0  0  0  0  0
  125.9660  123.5680   61.6860 C   0  0  0  0  0  0  0  0  0  0  0  0
  125.3260  123.0200   62.5860 O   0  0  0  0  0  0  0  0  0  0  0  0
  125.2570  124.2220   60.4930 C   0  0  0  0  0  0  0  0  0  0  0  0
  126.1980  124.4430   59.4420 O   0  0  0  0  0  0  0  0  0  0  0  0
  126.0950  123.7090   58.2750 C   0  0  0  0  0  0  0  0  0  0  0  0
  127.2930  123.2540   57.7200 C   0  0  0  0  0  0  0  0  0  0  0  0
  127.2890  122.5030   56.5470 C   0  0  0  0  0  0  0  0  0  0  0  0
  126.0810  122.2050   55.9250 C   0  0  0  0  0  0  0  0  0  0  0  0
  124.8760  122.6530   56.4630 C   0  0  0  0  0  0  0  0  0  0  0  0
  124.8810  123.4040   57.6350 C   0  0  0  0  0  0  0  0  0  0  0  0
  130.1550  119.7560   61.8070 N   0  0  0  0  0  0  0  0  0  0  0  0
  130.9030  119.0210   60.9300 C   0  0  0  0  0  0  0  0  0  0  0  0
  130.5870  117.8050   60.3040 C   0  0  0  0  0  0  0  0  0  0  0  0
  131.5260  117.2510   59.4340 C   0  0  0  0  0  0  0  0  0  0  0  0
  132.7460  117.8810   59.1870 C   0  0  0  0  0  0  0  0  0  0  0  0
  133.0900  119.0900   59.7940 C   0  0  0  0  0  0  0  0  0  0  0  0
  132.1470  119.6460   60.6690 C   0  0  0  0  0  0  0  0  0  0  0  0
  1  2  1  0
  2  3  1  0
  3  4  1  0
  4  5  1  0
  5  6  1  0
  6  7  1  0
  7  8  1  0
  8  9  1  0
  9 10  1  0
 10 11  2  0
 10 12  1  0
 12 13  1  0
 13 14  1  0
 14 15  2  0
 15 16  1  0
 16 17  2  0
 17 18  1  0
 18 19  2  0
  5 20  2  0
 20 21  1  0
 21 22  2  0
 22 23  1  0
 23 24  2  0
 24 25  1  0
 25 26  2  0
 26  4  1  0
 19 14  1  0
 26 21  1  0
M  END
>  <Binding energies>  (68) 
[-7.77]

>  <Ligand effiencies>  (68) 
[-0.28777777777777774]

>  <Interactions>  (68) 
["V-B:ALA:541:CB:9863, V-B:TYR:539:CE2:9847, V-A:ILE:369:CG2:3236, V-B:PRO:540:CB:9856, H-B:ALA:541:N:9862, V-B:MET:535:CE:9806, V-B:PRO:540:CA:9854, V-A:SER:385:CA:3406, V-B:TYR:539:CD2:9845, V-B:TYR:531:CE2:9764, V-B:LEU:363:CD1:8159, V-A:LEU:475:CD2:4258, V-B:TYR:539:C:9838, V-A:ILE:369:CD1:3238, V-A:ASP:366:CG:3212, V-B:PRO:540:N:9855, V-B:PRO:540:CD:9858, V-A:LEU:373:CD1:3279, V-B:TYR:539:CG:9843, V-B:TYR:539:CB:9842, V-A:HIS:383:CE1:3393, V-B:TYR:539:CE1:9846, V-B:TYR:539:CD1:9844, V-B:ILE:538:CD1:9836, V-B:ILE:538:CG2:9834, V-B:ILE:538:CA:9831, V-B:ILE:538:C:9829, V-A:LEU:373:CG:3278, V-A:LEU:373:CD2:3280"]

$$$$
RR13_Rahimova_2017
     RDKit          3D

 48 54  0  0  0  0  0  0  0  0999 V2000
  127.7670  131.6470   59.4080 Cl  0  0  0  0  0  0  0  0  0  0  0  0
  128.0110  131.5070   61.1160 C   0  0  0  0  0  0  0  0  0  0  0  0
  126.9350  131.8090   61.9540 C   0  0  0  0  0  0  0  0  0  0  0  0
  127.0730  131.7360   63.3370 C   0  0  0  0  0  0  0  0  0  0  0  0
  128.2940  131.3620   63.8940 C   0  0  0  0  0  0  0  0  0  0  0  0
  129.3720  131.0590   63.0650 C   0  0  0  0  0  0  0  0  0  0  0  0
  129.2480  131.1150   61.6670 C   0  0  0  0  0  0  0  0  0  0  0  0
  130.4660  130.7990   60.7700 C   0  0  1  0  0  0  0  0  0  0  0  0
  131.7110  131.5680   61.2390 C   0  0  0  0  0  0  0  0  0  0  0  0
  131.8110  132.3210   62.3120 N   0  0  0  0  0  0  0  0  0  0  0  0
  133.1080  132.8250   62.3040 N   0  0  0  0  0  0  0  0  0  0  0  0
  133.7850  132.3740   61.1880 N   0  0  0  0  0  0  0  0  0  0  0  0
  132.8940  131.6200   60.5340 N   0  0  0  0  0  0  0  0  0  0  0  0
  133.2710  130.9330   59.3050 C   0  0  0  0  0  0  0  0  0  0  0  0
  133.5690  131.9560   58.1920 C   0  0  0  0  0  0  0  0  0  0  0  0
  132.3170  132.3510   57.4240 C   0  0  0  0  0  0  0  0  0  0  0  0
  132.3790  133.3640   56.4640 C   0  0  0  0  0  0  0  0  0  0  0  0
  131.2310  133.7310   55.7670 C   0  0  0  0  0  0  0  0  0  0  0  0
  130.0250  133.0830   56.0330 C   0  0  0  0  0  0  0  0  0  0  0  0
  129.9580  132.0740   56.9900 C   0  0  0  0  0  0  0  0  0  0  0  0
  131.1060  131.7060   57.6880 C   0  0  0  0  0  0  0  0  0  0  0  0
  130.7240  129.3470   60.6160 N   0  0  0  0  0  0  0  0  0  0  0  0
  130.0830  128.8360   59.3900 C   0  0  0  0  0  0  0  0  0  0  0  0
  130.4570  127.3540   59.1520 C   0  0  0  0  0  0  0  0  0  0  0  0
  129.9960  126.5160   60.2710 N   0  0  0  0  0  0  0  0  0  0  0  0
  130.2610  125.0750   60.0460 C   0  0  1  0  0  0  0  0  0  0  0  0
  129.1360  124.2950   59.3310 C   0  0  0  0  0  0  0  0  0  0  0  0
  129.1310  124.3200   57.9290 C   0  0  0  0  0  0  0  0  0  0  0  0
  128.1640  123.6310   57.2000 C   0  0  0  0  0  0  0  0  0  0  0  0
  127.1790  122.9060   57.8640 C   0  0  0  0  0  0  0  0  0  0  0  0
  127.1560  122.8810   59.2560 C   0  0  0  0  0  0  0  0  0  0  0  0
  128.1190  123.5720   59.9970 C   0  0  0  0  0  0  0  0  0  0  0  0
  127.9640  123.5360   61.7210 Cl  0  0  0  0  0  0  0  0  0  0  0  0
  131.6030  124.8110   59.3610 C   0  0  0  0  0  0  0  0  0  0  0  0
  131.9840  125.3180   58.2110 N   0  0  0  0  0  0  0  0  0  0  0  0
  133.2660  124.8270   57.9830 N   0  0  0  0  0  0  0  0  0  0  0  0
  133.6580  124.0230   59.0330 N   0  0  0  0  0  0  0  0  0  0  0  0
  132.6240  124.0450   59.8820 N   0  0  0  0  0  0  0  0  0  0  0  0
  132.6780  123.2720   61.1180 C   0  0  0  0  0  0  0  0  0  0  0  0
  133.4970  121.9850   60.9120 C   0  0  0  0  0  0  0  0  0  0  0  0
  132.6200  120.7430   60.8950 C   0  0  0  0  0  0  0  0  0  0  0  0
  131.3180  120.8010   61.4000 C   0  0  0  0  0  0  0  0  0  0  0  0
  130.5120  119.6660   61.3770 C   0  0  0  0  0  0  0  0  0  0  0  0
  131.0110  118.4750   60.8500 C   0  0  0  0  0  0  0  0  0  0  0  0
  132.3090  118.4120   60.3440 C   0  0  0  0  0  0  0  0  0  0  0  0
  133.1140  119.5470   60.3650 C   0  0  0  0  0  0  0  0  0  0  0  0
  130.6430  127.0270   61.4930 C   0  0  0  0  0  0  0  0  0  0  0  0
  130.2560  128.5050   61.7310 C   0  0  0  0  0  0  0  0  0  0  0  0
  1  2  1  0
  2  3  2  0
  3  4  1  0
  4  5  2  0
  5  6  1  0
  6  7  2  0
  7  8  1  0
  8  9  1  0
  9 10  2  0
 10 11  1  0
 11 12  2  0
 12 13  1  0
 13 14  1  0
 14 15  1  0
 15 16  1  0
 16 17  2  0
 17 18  1  0
 18 19  2  0
 19 20  1  0
 20 21  2  0
  8 22  1  1
 22 23  1  0
 23 24  1  0
 24 25  1  0
 26 25  1  6
 26 27  1  0
 27 28  2  0
 28 29  1  0
 29 30  2  0
 30 31  1  0
 31 32  2  0
 32 33  1  0
 26 34  1  0
 34 35  2  0
 35 36  1  0
 36 37  2  0
 37 38  1  0
 38 39  1  0
 39 40  1  0
 40 41  1  0
 41 42  2  0
 42 43  1  0
 43 44  2  0
 44 45  1  0
 45 46  2  0
 25 47  1  0
 47 48  1  0
  7  2  1  0
 13  9  1  0
 21 16  1  0
 48 22  1  0
 32 27  1  0
 38 34  1  0
 46 41  1  0
M  END
>  <Binding energies>  (69) 
[-13.87]

>  <Ligand effiencies>  (69) 
[-0.2889583333333333]

>  <Interactions>  (69) 
["V-B:ALA:541:CB:9863, V-B:TYR:539:CE2:9847, V-A:ILE:369:CG2:3236, V-B:PRO:540:CB:9856, V-B:MET:535:CE:9806, V-B:PRO:540:CA:9854, V-A:SER:385:CA:3406, V-B:TYR:539:CD2:9845, V-A:LEU:475:CD2:4258, V-B:TYR:539:C:9838, V-A:ILE:369:CD1:3238, V-A:ASP:366:CG:3212, V-B:PRO:540:N:9855, V-A:ILE:538:CG2:4862, V-A:ILE:538:CB:4861, V-A:ILE:538:CA:4859, V-A:ILE:538:C:4857, V-A:TYR:539:CE1:4874, V-A:PRO:540:CA:4882, V-A:PRO:540:CB:4884, V-A:GLU:543:CD:4907, H-A:ALA:541:N:4890, V-A:ASP:366:CB:3211, V-A:GLU:543:CG:4906, V-A:LEU:363:CA:3184, V-B:TYR:539:CZ:9848, H-B:TYR:539:OH:9849, V-A:PRO:540:N:4883, V-A:PRO:540:CD:4886, V-A:TYR:531:CE2:4792, V-A:LEU:363:CD1:3188, H-A:LEU:363:N:3185, V-A:LEU:363:CB:3186"]

$$$$
RR14_Rahimova_2017
     RDKit          3D

 39 43  0  0  0  0  0  0  0  0999 V2000
  133.4200  125.8820   66.0260 C   0  0  0  0  0  0  0  0  0  0  0  0
  134.1920  125.5360   64.8820 O   0  0  0  0  0  0  0  0  0  0  0  0
  133.5450  125.1540   63.7230 C   0  0  0  0  0  0  0  0  0  0  0  0
  134.2560  124.3220   62.8570 C   0  0  0  0  0  0  0  0  0  0  0  0
  133.6940  123.9050   61.6550 C   0  0  0  0  0  0  0  0  0  0  0  0
  132.4090  124.3240   61.3020 C   0  0  0  0  0  0  0  0  0  0  0  0
  131.8170  123.9230   59.9560 C   0  0  0  0  0  0  0  0  0  0  0  0
  132.0980  124.8840   58.8910 N   0  0  0  0  0  0  0  0  0  0  0  0
  133.1390  124.6980   58.0700 N   0  0  0  0  0  0  0  0  0  0  0  0
  133.1200  125.7910   57.2260 N   0  0  0  0  0  0  0  0  0  0  0  0
  132.0620  126.6320   57.5560 N   0  0  0  0  0  0  0  0  0  0  0  0
  131.4600  126.0640   58.5750 C   0  0  0  0  0  0  0  0  0  0  0  0
  130.2500  126.6300   59.3050 C   0  0  0  0  0  0  0  0  0  0  0  0
  129.2290  127.1510   58.3830 N   0  0  0  0  0  0  0  0  0  0  0  0
  128.0770  126.2470   58.2710 C   0  0  0  0  0  0  0  0  0  0  0  0
  128.1250  125.0670   59.2660 C   0  0  0  0  0  0  0  0  0  0  0  0
  128.3350  123.6950   58.5900 C   0  0  0  0  0  0  0  0  0  0  0  0
  127.3990  123.4410   57.4900 N   0  0  0  0  0  0  0  0  0  0  0  0
  126.0710  123.1040   58.0170 C   0  0  0  0  0  0  0  0  0  0  0  0
  125.0740  122.7790   56.8840 C   0  0  0  0  0  0  0  0  0  0  0  0
  125.6010  121.7530   56.0480 O   0  0  0  0  0  0  0  0  0  0  0  0
  126.8350  122.1280   55.4470 C   0  0  0  0  0  0  0  0  0  0  0  0
  127.8860  122.4310   56.5370 C   0  0  0  0  0  0  0  0  0  0  0  0
  128.7940  128.4880   58.8130 C   0  0  0  0  0  0  0  0  0  0  0  0
  129.2820  129.6590   57.9620 C   0  0  0  0  0  0  0  0  0  0  0  0
  130.3810  130.3700   58.3160 C   0  0  0  0  0  0  0  0  0  0  0  0
  130.8520  131.5300   57.5330 C   0  0  0  0  0  0  0  0  0  0  0  0
  131.9960  132.2770   57.8590 C   0  0  0  0  0  0  0  0  0  0  0  0
  132.8540  131.9350   59.0700 C   0  0  0  0  0  0  0  0  0  0  0  0
  132.3570  133.3570   57.0500 C   0  0  0  0  0  0  0  0  0  0  0  0
  131.5950  133.6950   55.9320 C   0  0  0  0  0  0  0  0  0  0  0  0
  130.4560  132.9570   55.5980 C   0  0  0  0  0  0  0  0  0  0  0  0
  129.6460  133.3490   54.3690 C   0  0  0  0  0  0  0  0  0  0  0  0
  130.0850  131.8700   56.4040 C   0  0  0  0  0  0  0  0  0  0  0  0
  128.9410  131.0980   56.1070 N   0  0  0  0  0  0  0  0  0  0  0  0
  128.4730  130.0270   56.7960 C   0  0  0  0  0  0  0  0  0  0  0  0
  127.4470  129.4520   56.4330 O   0  0  0  0  0  0  0  0  0  0  0  0
  131.6780  125.1320   62.1750 C   0  0  0  0  0  0  0  0  0  0  0  0
  132.2420  125.5490   63.3770 C   0  0  0  0  0  0  0  0  0  0  0  0
  1  2  1  0
  2  3  1  0
  3  4  2  0
  4  5  1  0
  5  6  2  0
  6  7  1  0
  7  8  1  0
  8  9  1  0
  9 10  2  0
 10 11  1  0
 11 12  2  0
 12 13  1  0
 13 14  1  0
 14 15  1  0
 15 16  1  0
 16 17  1  0
 17 18  1  0
 18 19  1  0
 19 20  1  0
 20 21  1  0
 21 22  1  0
 22 23  1  0
 14 24  1  0
 24 25  1  0
 25 26  2  0
 26 27  1  0
 27 28  2  0
 28 29  1  0
 28 30  1  0
 30 31  2  0
 31 32  1  0
 32 33  1  0
 32 34  2  0
 34 35  1  0
 35 36  1  0
 36 37  2  0
  6 38  1  0
 38 39  2  0
 39  3  1  0
 12  8  1  0
 23 18  1  0
 36 25  1  0
 34 27  1  0
M  END
>  <Binding energies>  (70) 
[-11.26]

>  <Ligand effiencies>  (70) 
[-0.2815]

>  <Interactions>  (70) 
["V-B:TYR:539:CE2:9847, V-B:PRO:540:CB:9856, V-B:MET:535:CE:9806, V-B:PRO:540:CA:9854, V-A:GLY:453:CA:4043, V-B:TYR:539:CD2:9845, H-A:ARG:545:NH2:4927, V-A:GLY:453:C:4041, V-B:TYR:531:CE2:9764, V-A:ARG:545:CZ:4925, V-B:LEU:363:CD1:8159, V-B:TYR:539:C:9838, H-A:ARG:545:NE:4923, V-A:ILE:369:CD1:3238, V-A:ASP:366:CG:3212, V-A:TYR:539:CZ:4876, V-B:PRO:540:N:9855, V-A:MET:535:CG:4832, V-A:ILE:538:CG2:4862, V-A:ILE:538:CB:4861, V-A:TYR:539:CE2:4875, V-A:ILE:538:CA:4859, V-B:PRO:540:CD:9858, V-A:PRO:540:CA:4882, V-A:PRO:540:CB:4884, V-A:ASP:366:CB:3211, V-A:LEU:363:CA:3184, V-B:TYR:539:CG:9843, H-B:TYR:539:N:9841, V-B:TYR:539:CZ:9848, H-A:TYR:531:OH:4794, H-A:GLY:454:N:4049, H-B:TYR:539:OH:9849, V-A:PRO:540:N:4883, V-B:TYR:539:CE1:9846, V-A:PRO:540:CD:4886, V-B:TYR:539:CD1:9844, V-A:ARG:545:CD:4922, V-A:TYR:531:CE2:4792, V-A:LEU:363:CD1:3188, V-A:MET:535:CB:4831, V-B:ILE:538:CD1:9836, V-B:ILE:538:CA:9831, V-B:ILE:538:C:9829, V-B:TYR:539:CA:9840, V-A:GLY:454:CA:4048, V-B:MET:535:CG:9804, H-A:ARG:545:NH1:4926, H-A:MET:535:SD:4833"]

$$$$
RR15_Rahimova_2017
     RDKit          3D

 45 49  0  0  0  0  0  0  0  0999 V2000
  133.0000  120.9150   61.3130 C   0  0  0  0  0  0  0  0  0  0  0  0
  132.8130  122.2880   61.6360 O   0  0  0  0  0  0  0  0  0  0  0  0
  132.4290  123.1760   60.6460 C   0  0  0  0  0  0  0  0  0  0  0  0
  133.3360  123.9050   59.8610 C   0  0  0  0  0  0  0  0  0  0  0  0
  132.8820  124.7840   58.8810 C   0  0  0  0  0  0  0  0  0  0  0  0
  131.5130  124.9630   58.6580 C   0  0  0  0  0  0  0  0  0  0  0  0
  131.0230  125.9180   57.6050 C   0  0  0  0  0  0  0  0  0  0  0  0
  131.5830  126.0190   56.4070 N   0  0  0  0  0  0  0  0  0  0  0  0
  130.8730  126.9920   55.7340 N   0  0  0  0  0  0  0  0  0  0  0  0
  129.9240  127.3450   56.6020 N   0  0  0  0  0  0  0  0  0  0  0  0
  129.0340  128.4790   56.3570 C   0  0  0  0  0  0  0  0  0  0  0  0
  127.7010  128.1180   55.6560 C   0  0  0  0  0  0  0  0  0  0  0  0
  127.7490  127.4390   54.6270 O   0  0  0  0  0  0  0  0  0  0  0  0
  126.5150  128.5270   56.2020 N   0  0  0  0  0  0  0  0  0  0  0  0
  125.9220  127.8290   57.3600 C   0  0  0  0  0  0  0  0  0  0  0  0
  126.6640  126.5300   57.7450 C   0  0  0  0  0  0  0  0  0  0  0  0
  125.7880  125.4660   58.4460 C   0  0  0  0  0  0  0  0  0  0  0  0
  126.0980  124.0900   58.0460 N   0  0  0  0  0  0  0  0  0  0  0  0
  125.1710  123.5460   57.0420 C   0  0  0  0  0  0  0  0  0  0  0  0
  125.5910  122.1300   56.5940 C   0  0  0  0  0  0  0  0  0  0  0  0
  126.9380  122.1400   56.1340 O   0  0  0  0  0  0  0  0  0  0  0  0
  127.8520  122.5680   57.1380 C   0  0  0  0  0  0  0  0  0  0  0  0
  127.4950  123.9980   57.6000 C   0  0  0  0  0  0  0  0  0  0  0  0
  125.8280  129.7980   55.8180 C   0  0  2  0  0  0  0  0  0  0  0  0
  126.6380  130.6830   54.8200 C   0  0  0  0  0  0  0  0  0  0  0  0
  126.2680  130.8270   53.6540 O   0  0  0  0  0  0  0  0  0  0  0  0
  127.7210  131.2940   55.3310 N   0  0  0  0  0  0  0  0  0  0  0  0
  128.5680  132.2450   54.6190 C   0  0  0  0  0  0  0  0  0  0  0  0
  129.2210  133.2450   55.5910 C   0  0  2  0  0  0  0  0  0  0  0  0
  130.7490  133.3840   55.4660 C   0  0  0  0  0  0  0  0  0  0  0  0
  131.2980  132.5650   56.6090 C   0  0  0  0  0  0  0  0  0  0  0  0
  130.2290  132.7720   57.6670 C   0  0  0  0  0  0  0  0  0  0  0  0
  129.0270  132.7070   56.9070 O   0  0  0  0  0  0  0  0  0  0  0  0
  125.2400  130.4840   57.0460 C   0  0  0  0  0  0  0  0  0  0  0  0
  126.1190  131.1210   57.9300 C   0  0  0  0  0  0  0  0  0  0  0  0
  125.6380  131.7630   59.0680 C   0  0  0  0  0  0  0  0  0  0  0  0
  124.2710  131.7740   59.3300 C   0  0  0  0  0  0  0  0  0  0  0  0
  123.8040  132.3980   60.4340 F   0  0  0  0  0  0  0  0  0  0  0  0
  123.3820  131.1470   58.4610 C   0  0  0  0  0  0  0  0  0  0  0  0
  123.8630  130.5040   57.3240 C   0  0  0  0  0  0  0  0  0  0  0  0
  130.0030  126.7350   57.7900 N   0  0  0  0  0  0  0  0  0  0  0  0
  130.6100  124.2330   59.4420 C   0  0  0  0  0  0  0  0  0  0  0  0
  131.0520  123.3390   60.4320 C   0  0  0  0  0  0  0  0  0  0  0  0
  130.2000  122.5930   61.2280 O   0  0  0  0  0  0  0  0  0  0  0  0
  128.8190  122.5070   60.8920 C   0  0  0  0  0  0  0  0  0  0  0  0
  1  2  1  0
  2  3  1  0
  3  4  2  0
  4  5  1  0
  5  6  2  0
  6  7  1  0
  7  8  1  0
  8  9  2  0
  9 10  1  0
 10 11  1  0
 11 12  1  0
 12 13  2  0
 12 14  1  0
 14 15  1  0
 15 16  1  0
 16 17  1  0
 17 18  1  0
 18 19  1  0
 19 20  1  0
 20 21  1  0
 21 22  1  0
 22 23  1  0
 24 14  1  1
 24 25  1  0
 25 26  2  0
 25 27  1  0
 27 28  1  0
 29 28  1  6
 29 30  1  0
 30 31  1  0
 31 32  1  0
 32 33  1  0
 24 34  1  0
 34 35  2  0
 35 36  1  0
 36 37  2  0
 37 38  1  0
 37 39  1  0
 39 40  2  0
 10 41  1  0
  6 42  1  0
 42 43  2  0
 43 44  1  0
 44 45  1  0
 43  3  1  0
 41  7  2  0
 23 18  1  0
 33 29  1  0
 40 34  1  0
M  END
>  <Binding energies>  (71) 
[-9.99]

>  <Ligand effiencies>  (71) 
[-0.21717391304347827]

>  <Interactions>  (71) 
["V-B:TYR:539:CE2:9847, V-A:ILE:369:CG2:3236, V-B:ASP:366:CB:8182, V-B:PRO:540:CB:9856, V-B:MET:535:CE:9806, V-B:PRO:540:CA:9854, V-B:TYR:531:CZ:9765, V-B:TYR:539:CD2:9845, V-B:TYR:531:CE2:9764, V-B:LEU:363:CD1:8159, V-B:TYR:539:C:9838, V-A:ILE:369:CD1:3238, V-A:ASP:366:CG:3212, V-A:MET:535:CE:4834, V-B:ASP:366:CA:8180, H-B:LYS:534:NZ:9794, H-A:TYR:539:OH:4877, V-A:TYR:539:CZ:4876, V-B:TYR:531:CE1:9763, V-B:ILE:369:CB:8206, V-B:ILE:369:CG2:8207, V-B:PRO:540:N:9855, V-A:TYR:539:CG:4871, V-A:MET:535:CG:4832, V-A:ILE:538:CG2:4862, V-A:TYR:539:CD1:4872, V-A:ILE:538:CB:4861, V-A:TYR:539:CE2:4875, V-B:PRO:540:CG:9857, V-A:ILE:538:CA:4859, V-A:TYR:539:C:4866, V-B:PRO:540:CD:9858, V-A:TYR:539:CE1:4874, V-A:ASP:366:CB:3211, V-B:TYR:539:CG:9843, V-A:TYR:531:CZ:4793, H-B:TYR:539:N:9841, V-B:TYR:539:CZ:9848, V-A:ASP:366:CA:3209, V-A:ILE:369:CB:3235, H-A:TYR:531:OH:4794, H-B:TYR:539:OH:9849, V-A:PRO:540:N:4883, V-B:TYR:539:CE1:9846, V-B:TYR:539:CD1:9844, H-B:TYR:531:OH:9766, V-A:TYR:531:CE2:4792, V-B:ASP:366:C:8178, V-B:ILE:538:CG2:9834, V-B:ILE:538:CA:9831"]

$$$$
RR17_Rahimova_2017
     RDKit          3D

 38 41  0  0  0  0  0  0  0  0999 V2000
  130.4180  116.9030   59.8850 C   0  0  0  0  0  0  0  0  0  0  0  0
  130.7310  117.2350   61.3470 C   0  0  0  0  0  0  0  0  0  0  0  0
  130.1520  118.4980   61.6630 O   0  0  0  0  0  0  0  0  0  0  0  0
  130.8520  119.6550   61.3770 C   0  0  0  0  0  0  0  0  0  0  0  0
  130.1250  120.8450   61.4010 C   0  0  0  0  0  0  0  0  0  0  0  0
  130.7440  122.0590   61.1240 C   0  0  0  0  0  0  0  0  0  0  0  0
  132.1100  122.1100   60.8140 C   0  0  0  0  0  0  0  0  0  0  0  0
  132.7510  123.4350   60.5210 C   0  0  0  0  0  0  0  0  0  0  0  0
  132.7110  123.9560   59.4020 O   0  0  0  0  0  0  0  0  0  0  0  0
  133.4900  124.1300   61.6860 C   0  0  0  0  0  0  0  0  0  0  0  0
  133.3550  123.1880   63.2480 S   0  0  0  0  0  0  0  0  0  0  0  0
  132.9090  124.4960   64.3550 C   0  0  0  0  0  0  0  0  0  0  0  0
  133.7510  125.2090   65.0660 N   0  0  0  0  0  0  0  0  0  0  0  0
  133.0140  126.1340   65.7960 N   0  0  0  0  0  0  0  0  0  0  0  0
  131.7540  125.9470   65.4950 C   0  0  0  0  0  0  0  0  0  0  0  0
  130.6000  126.7590   66.0640 C   0  0  0  0  0  0  0  0  0  0  0  0
  130.8720  127.3280   67.3820 N   0  0  0  0  0  0  0  0  0  0  0  0
  130.0470  127.1300   68.5040 C   0  0  0  0  0  0  0  0  0  0  0  0
  129.8620  128.2120   69.3640 C   0  0  0  0  0  0  0  0  0  0  0  0
  129.0620  128.0830   70.4960 C   0  0  0  0  0  0  0  0  0  0  0  0
  128.4320  126.8670   70.7780 C   0  0  0  0  0  0  0  0  0  0  0  0
  127.5620  126.7410   72.0280 C   0  0  0  0  0  0  0  0  0  0  0  0
  127.6530  125.5320   72.5880 F   0  0  0  0  0  0  0  0  0  0  0  0
  127.9230  127.6440   72.9400 F   0  0  0  0  0  0  0  0  0  0  0  0
  126.2880  126.9530   71.6970 F   0  0  0  0  0  0  0  0  0  0  0  0
  128.6100  125.7830   69.9120 C   0  0  0  0  0  0  0  0  0  0  0  0
  129.4090  125.9130   68.7810 C   0  0  0  0  0  0  0  0  0  0  0  0
  131.6150  124.9130   64.5930 N   0  0  0  0  0  0  0  0  0  0  0  0
  130.4310  124.4200   64.0240 C   0  0  0  0  0  0  0  0  0  0  0  0
  129.8760  125.0700   62.9210 C   0  0  0  0  0  0  0  0  0  0  0  0
  128.6990  124.5840   62.3590 C   0  0  0  0  0  0  0  0  0  0  0  0
  128.0740  123.4470   62.8980 C   0  0  0  0  0  0  0  0  0  0  0  0
  126.9070  122.8950   62.4060 O   0  0  0  0  0  0  0  0  0  0  0  0
  125.6910  123.6250   62.5200 C   0  0  0  0  0  0  0  0  0  0  0  0
  128.6430  122.8110   64.0030 C   0  0  0  0  0  0  0  0  0  0  0  0
  129.8210  123.2910   64.5690 C   0  0  0  0  0  0  0  0  0  0  0  0
  132.8410  120.9130   60.7910 C   0  0  0  0  0  0  0  0  0  0  0  0
  132.2200  119.6980   61.0690 C   0  0  0  0  0  0  0  0  0  0  0  0
  1  2  1  0
  2  3  1  0
  3  4  1  0
  4  5  2  0
  5  6  1  0
  6  7  2  0
  7  8  1  0
  8  9  2  0
  8 10  1  0
 10 11  1  0
 11 12  1  0
 12 13  2  0
 13 14  1  0
 14 15  2  0
 15 16  1  0
 16 17  1  0
 17 18  1  0
 18 19  2  0
 19 20  1  0
 20 21  2  0
 21 22  1  0
 22 23  1  0
 22 24  1  0
 22 25  1  0
 21 26  1  0
 26 27  2  0
 15 28  1  0
 28 29  1  0
 29 30  2  0
 30 31  1  0
 31 32  2  0
 32 33  1  0
 33 34  1  0
 32 35  1  0
 35 36  2  0
  7 37  1  0
 37 38  2  0
 38  4  1  0
 28 12  1  0
 36 29  1  0
 27 18  1  0
M  END
>  <Binding energies>  (72) 
[-9.66]

>  <Ligand effiencies>  (72) 
[-0.24769230769230768]

>  <Interactions>  (72) 
["V-B:ALA:541:CB:9863, V-B:TYR:539:CE2:9847, V-A:ILE:369:CG2:3236, H-B:ALA:541:N:9862, V-B:TYR:539:CD2:9845, H-A:ARG:545:NH2:4927, H-A:GLU:543:OE1:4908, V-A:LEU:475:CD2:4258, V-B:TYR:539:C:9838, H-A:ARG:545:NE:4923, V-A:ILE:369:CD1:3238, V-A:ASP:366:CG:3212, V-A:HIS:456:CE1:4069, V-B:HIS:456:CD2:9038, V-B:GLY:544:C:9883, V-B:GLU:543:CB:9877, V-B:GLU:543:C:9873, V-B:HIS:456:CE1:9040, V-B:GLY:544:CA:9885, V-B:LYS:547:CE:9921, V-B:GLU:543:CD:9879, V-A:GLU:543:CD:4907, V-A:GLU:543:CB:4905, V-B:ARG:545:CA:9890, V-B:TYR:539:CB:9842, V-A:HIS:383:CE1:3393, H-A:TYR:484:OH:4347, H-A:GLY:454:N:4049, V-B:ALA:541:CA:9861, V-B:GLU:543:CG:9878, H-B:TYR:539:OH:9849, V-A:TYR:484:CE2:4345, V-B:TYR:539:CA:9840, V-A:GLY:454:CA:4048, V-A:PRO:482:CB:4325, V-A:PRO:482:CG:4326, V-B:VAL:344:CG1:7971, V-B:GLU:543:CA:9875"]

$$$$
RR19_Rahimova_2017
     RDKit          3D

 46 51  0  0  0  0  0  0  0  0999 V2000
  125.4400  132.3350   64.1490 O   0  0  0  0  0  0  0  0  0  0  0  0
  125.6960  131.6060   63.1860 C   0  0  0  0  0  0  0  0  0  0  0  0
  126.8810  131.5470   62.5250 N   0  0  0  0  0  0  0  0  0  0  0  0
  128.1320  132.0390   62.8020 C   0  0  0  0  0  0  0  0  0  0  0  0
  128.6230  132.7120   64.2760 S   0  0  0  0  0  0  0  0  0  0  0  0
  128.9180  131.8930   61.6860 N   0  0  0  0  0  0  0  0  0  0  0  0
  130.2440  132.0770   61.4580 C   0  0  0  0  0  0  0  0  0  0  0  0
  131.1140  132.2610   62.3120 O   0  0  0  0  0  0  0  0  0  0  0  0
  130.6310  132.0630   59.9580 C   0  0  2  0  0  0  0  0  0  0  0  0
  129.7940  133.0180   59.0590 C   0  0  0  0  0  0  0  0  0  0  0  0
  130.2770  133.1450   57.6230 C   0  0  0  0  0  0  0  0  0  0  0  0
  131.6450  133.3430   57.3350 C   0  0  0  0  0  0  0  0  0  0  0  0
  132.0790  133.3780   56.0160 C   0  0  0  0  0  0  0  0  0  0  0  0
  131.1750  133.2000   54.9760 C   0  0  0  0  0  0  0  0  0  0  0  0
  129.8310  132.9750   55.2450 C   0  0  0  0  0  0  0  0  0  0  0  0
  129.3770  132.9340   56.5570 C   0  0  0  0  0  0  0  0  0  0  0  0
  130.6480  130.6760   59.4170 N   0  0  0  0  0  0  0  0  0  0  0  0
  129.4920  129.9860   59.1980 C   0  0  0  0  0  0  0  0  0  0  0  0
  128.3420  130.3650   59.4270 O   0  0  0  0  0  0  0  0  0  0  0  0
  129.9100  128.6840   58.6230 C   0  0  0  0  0  0  0  0  0  0  0  0
  129.1590  127.5830   58.2110 C   0  0  0  0  0  0  0  0  0  0  0  0
  129.8300  126.4710   57.6900 C   0  0  0  0  0  0  0  0  0  0  0  0
  131.2280  126.4750   57.5860 C   0  0  0  0  0  0  0  0  0  0  0  0
  131.9630  127.5900   58.0040 C   0  0  0  0  0  0  0  0  0  0  0  0
  131.2750  128.6880   58.5220 C   0  0  0  0  0  0  0  0  0  0  0  0
  131.7660  129.9930   59.0290 C   0  0  0  0  0  0  0  0  0  0  0  0
  132.9360  130.3780   59.0800 O   0  0  0  0  0  0  0  0  0  0  0  0
  124.6000  130.6610   62.6270 C   0  0  2  0  0  0  0  0  0  0  0  0
  124.6050  129.2420   63.2660 C   0  0  0  0  0  0  0  0  0  0  0  0
  124.8930  129.2390   64.7560 C   0  0  0  0  0  0  0  0  0  0  0  0
  123.8370  129.3910   65.6810 C   0  0  0  0  0  0  0  0  0  0  0  0
  124.0880  129.2860   67.0440 C   0  0  0  0  0  0  0  0  0  0  0  0
  125.3690  129.0030   67.5010 C   0  0  0  0  0  0  0  0  0  0  0  0
  126.4090  128.8110   66.6000 C   0  0  0  0  0  0  0  0  0  0  0  0
  126.1800  128.9140   65.2340 C   0  0  0  0  0  0  0  0  0  0  0  0
  124.5840  130.5900   61.1380 N   0  0  0  0  0  0  0  0  0  0  0  0
  123.7250  131.3410   60.3930 C   0  0  0  0  0  0  0  0  0  0  0  0
  122.8730  132.1290   60.8050 O   0  0  0  0  0  0  0  0  0  0  0  0
  124.0350  131.0080   58.9810 C   0  0  0  0  0  0  0  0  0  0  0  0
  123.4720  131.4670   57.7880 C   0  0  0  0  0  0  0  0  0  0  0  0
  123.9730  130.9740   56.5780 C   0  0  0  0  0  0  0  0  0  0  0  0
  125.0200  130.0430   56.5740 C   0  0  0  0  0  0  0  0  0  0  0  0
  125.5730  129.5980   57.7800 C   0  0  0  0  0  0  0  0  0  0  0  0
  125.0570  130.0990   58.9760 C   0  0  0  0  0  0  0  0  0  0  0  0
  125.4300  129.8250   60.3850 C   0  0  0  0  0  0  0  0  0  0  0  0
  126.3140  129.0700   60.7900 O   0  0  0  0  0  0  0  0  0  0  0  0
  1  2  2  0
  2  3  1  0
  3  4  1  0
  4  5  2  0
  4  6  1  0
  6  7  1  0
  7  8  2  0
  7  9  1  0
  9 10  1  6
 10 11  1  0
 11 12  2  0
 12 13  1  0
 13 14  2  0
 14 15  1  0
 15 16  2  0
  9 17  1  0
 17 18  1  0
 18 19  2  0
 18 20  1  0
 20 21  2  0
 21 22  1  0
 22 23  2  0
 23 24  1  0
 24 25  2  0
 25 26  1  0
 26 27  2  0
  2 28  1  0
 28 29  1  1
 29 30  1  0
 30 31  2  0
 31 32  1  0
 32 33  2  0
 33 34  1  0
 34 35  2  0
 28 36  1  0
 36 37  1  0
 37 38  2  0
 37 39  1  0
 39 40  2  0
 40 41  1  0
 41 42  2  0
 42 43  1  0
 43 44  2  0
 44 45  1  0
 45 46  2  0
 16 11  1  0
 26 17  1  0
 35 30  1  0
 45 36  1  0
 25 20  1  0
 44 39  1  0
M  END
>  <Binding energies>  (73) 
[-10.74]

>  <Ligand effiencies>  (73) 
[-0.22375]

>  <Interactions>  (73) 
["V-A:ASP:366:CG:3212, V-B:ASP:366:CG:8183, V-B:ASN:370:CB:8215, V-A:TYR:539:CZ:4876, V-B:TYR:531:CE1:9763, V-B:ILE:369:CB:8206, V-B:ILE:369:CG2:8207, V-A:MET:535:CG:4832, V-A:ILE:538:CG2:4862, V-B:GLY:453:CA:9014, V-A:TYR:539:CD1:4872, V-A:ILE:538:CB:4861, V-A:ILE:538:CA:4859, V-A:TYR:539:C:4866, V-A:TYR:539:CE1:4874, V-B:GLU:543:CD:9879, V-A:PRO:540:CA:4882, V-A:PRO:540:CB:4884, V-B:ARG:545:CG:9893, H-A:ALA:541:N:4890, V-A:ASP:366:CB:3211, V-A:ALA:541:CB:4891, V-A:GLU:543:CG:4906, V-B:ARG:545:CD:9894, V-B:ARG:545:CZ:9897, V-A:TYR:531:CZ:4793, V-A:PRO:540:N:4883, V-A:PRO:540:CD:4886, V-A:TYR:531:CE2:4792, V-A:LEU:363:CD1:3188, V-B:ASP:366:C:8178"]

$$$$
RR1_Rahimova_2017
     RDKit          3D

 41 44  0  0  0  0  0  0  0  0999 V2000
  124.8920  123.6080   63.1960 C   0  0  0  0  0  0  0  0  0  0  0  0
  125.9140  122.9080   62.4970 O   0  0  0  0  0  0  0  0  0  0  0  0
  127.2210  123.3440   62.5980 C   0  0  0  0  0  0  0  0  0  0  0  0
  128.3270  122.4970   62.7730 C   0  0  0  0  0  0  0  0  0  0  0  0
  129.6090  123.0290   62.8730 C   0  0  0  0  0  0  0  0  0  0  0  0
  129.8100  124.4080   62.7930 C   0  0  0  0  0  0  0  0  0  0  0  0
  131.1370  124.8520   62.9510 N   0  0  0  0  0  0  0  0  0  0  0  0
  132.1460  124.2980   63.6570 C   0  0  0  0  0  0  0  0  0  0  0  0
  132.0380  123.2980   64.3680 O   0  0  0  0  0  0  0  0  0  0  0  0
  133.4940  125.0220   63.5210 C   0  0  0  0  0  0  0  0  0  0  0  0
  134.8670  124.0070   62.8710 S   0  0  0  0  0  0  0  0  0  0  0  0
  133.9030  122.8820   61.9170 C   0  0  0  0  0  0  0  0  0  0  0  0
  133.6390  121.6510   62.2770 N   0  0  0  0  0  0  0  0  0  0  0  0
  132.8870  121.1850   61.2850 C   0  0  0  0  0  0  0  0  0  0  0  0
  132.3340  119.7880   61.2850 C   0  0  0  0  0  0  0  0  0  0  0  0
  130.9930  119.5290   61.6120 C   0  0  0  0  0  0  0  0  0  0  0  0
  130.5070  118.2200   61.6050 C   0  0  0  0  0  0  0  0  0  0  0  0
  131.3820  117.1890   61.2680 C   0  0  0  0  0  0  0  0  0  0  0  0
  132.6830  117.4030   60.9470 N   0  0  0  0  0  0  0  0  0  0  0  0
  133.1350  118.6830   60.9580 C   0  0  0  0  0  0  0  0  0  0  0  0
  132.6560  122.0350   60.3020 N   0  0  0  0  0  0  0  0  0  0  0  0
  133.3110  123.1280   60.7060 N   0  0  0  0  0  0  0  0  0  0  0  0
  133.2920  124.3460   59.8970 C   0  0  0  0  0  0  0  0  0  0  0  0
  131.9020  124.7710   59.3930 C   0  0  0  0  0  0  0  0  0  0  0  0
  131.7830  125.6440   58.5260 O   0  0  0  0  0  0  0  0  0  0  0  0
  130.8680  124.1270   59.9680 N   0  0  0  0  0  0  0  0  0  0  0  0
  129.5960  124.3510   59.4610 N   0  0  0  0  0  0  0  0  0  0  0  0
  128.7360  123.3090   59.4320 C   0  0  0  0  0  0  0  0  0  0  0  0
  128.9770  122.1990   59.9210 O   0  0  0  0  0  0  0  0  0  0  0  0
  127.4000  123.5790   58.7710 C   0  0  0  0  0  0  0  0  0  0  0  0
  126.4170  124.3040   59.4530 C   0  0  0  0  0  0  0  0  0  0  0  0
  125.1790  124.5530   58.8700 C   0  0  0  0  0  0  0  0  0  0  0  0
  124.8830  124.0760   57.5830 C   0  0  0  0  0  0  0  0  0  0  0  0
  123.6680  124.2760   56.9520 O   0  0  0  0  0  0  0  0  0  0  0  0
  122.6750  125.0790   57.5810 C   0  0  0  0  0  0  0  0  0  0  0  0
  125.8510  123.3410   56.8860 C   0  0  0  0  0  0  0  0  0  0  0  0
  125.5020  122.8760   55.6290 O   0  0  0  0  0  0  0  0  0  0  0  0
  126.4430  122.1250   54.8700 C   0  0  0  0  0  0  0  0  0  0  0  0
  127.1010  123.1020   57.4840 C   0  0  0  0  0  0  0  0  0  0  0  0
  128.7070  125.2580   62.6170 C   0  0  0  0  0  0  0  0  0  0  0  0
  127.4260  124.7220   62.5180 C   0  0  0  0  0  0  0  0  0  0  0  0
  1  2  1  0
  2  3  1  0
  3  4  2  0
  4  5  1  0
  5  6  2  0
  6  7  1  0
  7  8  1  0
  8  9  2  0
  8 10  1  0
 10 11  1  0
 11 12  1  0
 12 13  2  0
 13 14  1  0
 14 15  1  0
 15 16  2  0
 16 17  1  0
 17 18  2  0
 18 19  1  0
 19 20  2  0
 14 21  2  0
 21 22  1  0
 22 23  1  0
 23 24  1  0
 24 25  2  0
 24 26  1  0
 26 27  1  0
 27 28  1  0
 28 29  2  0
 28 30  1  0
 30 31  2  0
 31 32  1  0
 32 33  2  0
 33 34  1  0
 34 35  1  0
 33 36  1  0
 36 37  1  0
 37 38  1  0
 36 39  2  0
  6 40  1  0
 40 41  2  0
 41  3  1  0
 22 12  1  0
 39 30  1  0
 20 15  1  0
M  END
>  <Binding energies>  (74) 
[-8.92]

>  <Ligand effiencies>  (74) 
[-0.20272727272727273]

>  <Interactions>  (74) 
["V-B:ALA:541:CB:9863, V-B:TYR:539:CE2:9847, V-A:ILE:369:CG2:3236, V-B:ASP:366:CB:8182, H-B:ALA:541:N:9862, V-B:MET:535:CE:9806, V-B:PRO:540:CA:9854, V-A:SER:385:CA:3406, V-B:TYR:531:CZ:9765, V-B:TYR:539:CD2:9845, V-B:LEU:363:CA:8155, V-B:TYR:531:CE2:9764, V-A:ARG:545:CZ:4925, V-B:LEU:363:CD1:8159, V-A:SER:385:CB:3408, V-A:LEU:475:CD2:4258, V-A:ILE:369:CD1:3238, V-A:ASP:366:CG:3212, V-B:ASP:366:CG:8183, V-B:PRO:540:N:9855, V-B:GLU:543:CD:9879, V-A:ASP:366:CB:3211, V-B:ARG:545:CZ:9897, V-A:HIS:383:CE1:3393, H-A:TYR:484:OH:4347, H-A:GLY:454:N:4049, V-B:ALA:541:CA:9861, V-B:GLU:543:CG:9878, H-B:TYR:539:OH:9849, V-B:ALA:541:C:9859, H-B:TYR:531:OH:9766, H-A:ASP:366:OD2:3214, V-B:ILE:538:CD1:9836, V-B:ILE:538:CG2:9834, V-B:ILE:538:CA:9831, V-B:ILE:538:C:9829, V-B:MET:535:CG:9804, H-A:HIS:383:ND1:3390, V-B:ASN:362:CB:8146, V-A:VAL:384:C:3396, V-A:PRO:482:CB:4325, V-B:ILE:538:CB:9833, V-A:PRO:482:CG:4326, V-B:LEU:363:C:8153, V-B:LEU:363:CB:8157, V-B:VAL:537:C:9821"]

$$$$
RR22_Rahimova_2017
     RDKit          3D

 31 36  0  0  0  0  0  0  0  0999 V2000
  125.9720  123.1500   62.1290 O   0  0  0  0  0  0  0  0  0  0  0  0
  127.1000  123.5550   61.8580 C   0  0  0  0  0  0  0  0  0  0  0  0
  128.1660  123.7280   62.7240 N   0  0  0  0  0  0  0  0  0  0  0  0
  129.4410  124.1550   62.2350 C   0  0  1  0  0  0  0  0  0  0  0  0
  129.7590  125.3270   62.9900 O   0  0  0  0  0  0  0  0  0  0  0  0
  130.9220  125.3240   63.7600 C   0  0  0  0  0  0  0  0  0  0  0  0
  131.0160  126.3030   64.7500 C   0  0  0  0  0  0  0  0  0  0  0  0
  132.1660  126.3890   65.5330 C   0  0  0  0  0  0  0  0  0  0  0  0
  133.2230  125.5030   65.3220 C   0  0  0  0  0  0  0  0  0  0  0  0
  133.1300  124.5240   64.3310 C   0  0  0  0  0  0  0  0  0  0  0  0
  131.9730  124.4100   63.5540 C   0  0  0  0  0  0  0  0  0  0  0  0
  131.7910  123.4150   62.4300 C   0  0  1  0  0  0  0  0  0  0  0  0
  132.4310  122.0420   62.4470 C   0  0  0  0  0  0  0  0  0  0  0  0
  131.3940  121.2600   61.6350 C   0  0  0  0  0  0  0  0  0  0  0  0
  131.6890  119.9550   61.0100 C   0  0  0  0  0  0  0  0  0  0  0  0
  130.8200  118.8680   61.1860 C   0  0  0  0  0  0  0  0  0  0  0  0
  131.1020  117.6400   60.5930 C   0  0  0  0  0  0  0  0  0  0  0  0
  132.2510  117.4920   59.8220 C   0  0  0  0  0  0  0  0  0  0  0  0
  133.1230  118.5620   59.6370 C   0  0  0  0  0  0  0  0  0  0  0  0
  132.8430  119.7910   60.2280 C   0  0  0  0  0  0  0  0  0  0  0  0
  130.2720  121.8750   61.6060 N   0  0  0  0  0  0  0  0  0  0  0  0
  130.4080  123.0530   62.3580 N   0  0  0  0  0  0  0  0  0  0  0  0
  129.2280  124.5950   60.7940 C   0  0  0  0  0  0  0  0  0  0  0  0
  130.1130  125.3680   60.1210 C   0  0  0  0  0  0  0  0  0  0  0  0
  130.0420  125.8470   58.7270 C   0  0  0  0  0  0  0  0  0  0  0  0
  128.8360  125.9960   58.0280 C   0  0  0  0  0  0  0  0  0  0  0  0
  128.8460  126.4550   56.7100 C   0  0  0  0  0  0  0  0  0  0  0  0
  130.0730  126.7490   56.1170 C   0  0  0  0  0  0  0  0  0  0  0  0
  131.2560  126.6070   56.7660 N   0  0  0  0  0  0  0  0  0  0  0  0
  131.2250  126.1600   58.0480 C   0  0  0  0  0  0  0  0  0  0  0  0
  127.6550  124.0450   60.1970 S   0  0  0  0  0  0  0  0  0  0  0  0
  1  2  2  0
  2  3  1  0
  4  3  1  1
  4  5  1  0
  5  6  1  0
  6  7  2  0
  7  8  1  0
  8  9  2  0
  9 10  1  0
 10 11  2  0
 11 12  1  0
 12 13  1  1
 13 14  1  0
 14 15  1  0
 15 16  2  0
 16 17  1  0
 17 18  2  0
 18 19  1  0
 19 20  2  0
 14 21  2  0
 21 22  1  0
  4 23  1  0
 23 24  2  0
 24 25  1  0
 25 26  2  0
 26 27  1  0
 27 28  2  0
 28 29  1  0
 29 30  2  0
 23 31  1  0
 31  2  1  0
 22  4  1  0
 30 25  1  0
 11  6  1  0
 22 12  1  0
 20 15  1  0
M  END
>  <Binding energies>  (75) 
[-9.22]

>  <Ligand effiencies>  (75) 
[-0.288125]

>  <Interactions>  (75) 
["V-B:TYR:539:CE2:9847, V-A:ILE:369:CG2:3236, H-B:ALA:541:N:9862, V-B:MET:535:CE:9806, V-B:PRO:540:CA:9854, V-A:SER:385:CA:3406, V-B:TYR:539:CD2:9845, V-A:ARG:545:CZ:4925, V-A:LEU:475:CD2:4258, V-A:MET:535:CE:4834, V-B:GLU:543:CD:9879, V-A:GLU:543:CD:4907, V-B:TYR:539:CB:9842, V-A:HIS:383:CE1:3393, H-B:GLU:543:OE1:9880, H-B:GLU:543:OE2:9881, H-A:TYR:531:OH:4794, H-B:TYR:539:OH:9849, V-A:GLY:454:CA:4048, V-A:VAL:384:C:3396, H-B:ALA:541:O:9860, V-A:LEU:373:CD2:3280"]

$$$$
RR24_Rahimova_2017
     RDKit          3D

 43 49  0  0  0  0  0  0  0  0999 V2000
  125.4050  131.6800   65.3920 C   0  0  0  0  0  0  0  0  0  0  0  0
  125.6330  130.2050   65.0300 C   0  0  2  0  0  0  0  0  0  0  0  0
  124.4490  129.5780   64.2360 C   0  0  0  0  0  0  0  0  0  0  0  0
  123.2780  129.6810   64.6140 O   0  0  0  0  0  0  0  0  0  0  0  0
  124.8650  128.9030   63.1240 O   0  0  0  0  0  0  0  0  0  0  0  0
  125.5200  129.5810   62.1220 C   0  0  0  0  0  0  0  0  0  0  0  0
  124.9630  130.7560   61.6130 C   0  0  0  0  0  0  0  0  0  0  0  0
  125.6220  131.4560   60.6060 C   0  0  0  0  0  0  0  0  0  0  0  0
  126.8430  130.9900   60.1100 C   0  0  0  0  0  0  0  0  0  0  0  0
  127.5540  131.7550   58.9880 C   0  0  1  0  0  0  0  0  0  0  0  0
  129.0910  131.7440   59.1650 C   0  0  0  0  0  0  0  0  0  0  0  0
  129.9350  131.3840   58.1810 C   0  0  0  0  0  0  0  0  0  0  0  0
  129.4910  130.9960   56.9410 N   0  0  0  0  0  0  0  0  0  0  0  0
  128.1490  130.9550   56.6430 C   0  0  0  0  0  0  0  0  0  0  0  0
  127.8770  130.5590   55.3730 N   0  0  0  0  0  0  0  0  0  0  0  0
  126.6050  130.3830   54.9220 C   0  0  0  0  0  0  0  0  0  0  0  0
  126.4150  129.7300   53.8940 O   0  0  0  0  0  0  0  0  0  0  0  0
  125.6280  130.8380   55.7940 N   0  0  0  0  0  0  0  0  0  0  0  0
  124.2330  130.7540   55.3140 C   0  0  0  0  0  0  0  0  0  0  0  0
  125.7930  131.2580   57.1030 C   0  0  0  0  0  0  0  0  0  0  0  0
  124.8660  131.6020   57.8420 O   0  0  0  0  0  0  0  0  0  0  0  0
  127.1900  131.2860   57.5470 C   0  0  0  0  0  0  0  0  0  0  0  0
  131.3160  131.4680   58.6270 C   0  0  0  0  0  0  0  0  0  0  0  0
  132.5350  131.2040   58.0020 C   0  0  0  0  0  0  0  0  0  0  0  0
  133.7210  131.3850   58.7170 C   0  0  0  0  0  0  0  0  0  0  0  0
  133.6830  131.8290   60.0430 C   0  0  0  0  0  0  0  0  0  0  0  0
  132.4590  132.0920   60.6630 C   0  0  0  0  0  0  0  0  0  0  0  0
  131.2770  131.9070   59.9430 C   0  0  0  0  0  0  0  0  0  0  0  0
  129.8680  132.1090   60.3440 C   0  0  0  0  0  0  0  0  0  0  0  0
  129.4030  132.4940   61.4150 O   0  0  0  0  0  0  0  0  0  0  0  0
  127.4080  129.8230   60.6350 C   0  0  0  0  0  0  0  0  0  0  0  0
  126.7500  129.1240   61.6440 C   0  0  0  0  0  0  0  0  0  0  0  0
  126.0150  129.3880   66.2190 N   0  0  0  0  0  0  0  0  0  0  0  0
  127.3180  129.1010   66.4990 C   0  0  0  0  0  0  0  0  0  0  0  0
  128.3130  129.4400   65.8550 O   0  0  0  0  0  0  0  0  0  0  0  0
  127.2860  128.2930   67.7430 C   0  0  0  0  0  0  0  0  0  0  0  0
  128.3190  127.7230   68.4890 C   0  0  0  0  0  0  0  0  0  0  0  0
  127.9920  127.0020   69.6430 C   0  0  0  0  0  0  0  0  0  0  0  0
  126.6540  126.8630   70.0340 C   0  0  0  0  0  0  0  0  0  0  0  0
  125.6330  127.4430   69.2730 C   0  0  0  0  0  0  0  0  0  0  0  0
  125.9790  128.1570   68.1250 C   0  0  0  0  0  0  0  0  0  0  0  0
  125.1370  128.8740   67.1350 C   0  0  0  0  0  0  0  0  0  0  0  0
  123.9110  128.9860   67.1410 O   0  0  0  0  0  0  0  0  0  0  0  0
  2  1  1  1
  2  3  1  0
  3  4  2  0
  3  5  1  0
  5  6  1  0
  6  7  2  0
  7  8  1  0
  8  9  2  0
 10  9  1  1
 10 11  1  0
 11 12  2  0
 12 13  1  0
 13 14  1  0
 14 15  1  0
 15 16  1  0
 16 17  2  0
 16 18  1  0
 18 19  1  0
 18 20  1  0
 20 21  2  0
 20 22  1  0
 12 23  1  0
 23 24  2  0
 24 25  1  0
 25 26  2  0
 26 27  1  0
 27 28  2  0
 28 29  1  0
 29 30  2  0
  9 31  1  0
 31 32  2  0
  2 33  1  0
 33 34  1  0
 34 35  2  0
 34 36  1  0
 36 37  2  0
 37 38  1  0
 38 39  2  0
 39 40  1  0
 40 41  2  0
 41 42  1  0
 42 43  2  0
 32  6  1  0
 42 33  1  0
 22 10  1  0
 28 23  1  0
 41 36  1  0
 29 11  1  0
 22 14  2  0
M  END
>  <Binding energies>  (76) 
[-10.64]

>  <Ligand effiencies>  (76) 
[-0.23644444444444446]

>  <Interactions>  (76) 
["V-B:GLY:544:C:9883, V-B:GLU:543:CB:9877, V-B:GLU:543:C:9873, V-B:HIS:456:CE1:9040, V-A:MET:535:CE:4834, V-B:ASN:370:CB:8215, V-B:ASN:370:CA:8213, V-A:TYR:539:CZ:4876, V-B:TYR:531:CE1:9763, V-B:GLY:454:CA:9019, V-A:TYR:539:CD1:4872, V-A:TYR:539:CE1:4874, V-B:LEU:475:CD1:9228, V-B:GLU:543:CD:9879, V-A:PRO:540:CA:4882, V-A:PRO:540:CB:4884, V-B:ARG:545:CG:9893, V-A:ASN:362:C:3171, V-A:ASP:366:CB:3211, V-A:LEU:363:CA:3184, H-B:GLY:454:N:9020, V-B:ARG:545:CA:9890, V-B:ARG:545:CD:9894, V-B:ARG:545:CB:9892, H-B:TYR:484:OH:9318, V-B:ARG:545:CZ:9897, H-B:ARG:545:NH1:9898, H-B:ARG:545:NE:9895, V-A:TYR:531:CZ:4793, H-A:TYR:531:OH:4794, V-A:TYR:531:CE2:4792, V-A:LEU:363:CD1:3188, H-B:ARG:545:NH2:9899, V-B:TYR:531:CD1:9761, V-B:TYR:484:CZ:9317, V-B:ASN:370:CG:8216, H-A:MET:535:SD:4833"]

$$$$
RR25_Rahimova_2017
     RDKit          3D

 39 44  0  0  0  0  0  0  0  0999 V2000
  122.8750  129.6820   66.9590 O   0  0  0  0  0  0  0  0  0  0  0  0
  124.0100  129.2640   67.1940 C   0  0  0  0  0  0  0  0  0  0  0  0
  124.2580  128.8770   68.4880 O   0  0  0  0  0  0  0  0  0  0  0  0
  125.3960  128.1660   68.8220 C   0  0  0  0  0  0  0  0  0  0  0  0
  125.3210  127.3600   69.9570 C   0  0  0  0  0  0  0  0  0  0  0  0
  126.4330  126.6220   70.3570 C   0  0  0  0  0  0  0  0  0  0  0  0
  127.6340  126.6820   69.6340 C   0  0  0  0  0  0  0  0  0  0  0  0
  128.8140  125.8890   70.0570 N   0  0  0  0  0  0  0  0  0  0  0  0
  129.3580  125.1580   69.2330 O   0  0  0  0  0  0  0  0  0  0  0  0
  129.2050  125.9910   71.2160 O   0  0  0  0  0  0  0  0  0  0  0  0
  127.6920  127.5090   68.5010 C   0  0  0  0  0  0  0  0  0  0  0  0
  126.5890  128.2620   68.0910 C   0  0  0  0  0  0  0  0  0  0  0  0
  126.5980  129.1620   66.8680 C   0  0  0  0  0  0  0  0  0  0  0  0
  125.1970  129.1450   66.1940 C   0  0  2  0  0  0  0  0  0  0  0  0
  125.1410  130.1330   64.9930 C   0  0  0  0  0  0  0  0  0  0  0  0
  124.1240  130.8280   64.9100 O   0  0  0  0  0  0  0  0  0  0  0  0
  126.2020  130.3180   64.1520 N   0  0  0  0  0  0  0  0  0  0  0  0
  127.2910  129.3280   64.0080 C   0  0  0  0  0  0  0  0  0  0  0  0
  128.6260  130.0760   63.8120 C   0  0  0  0  0  0  0  0  0  0  0  0
  128.5560  131.0120   62.6870 N   0  0  0  0  0  0  0  0  0  0  0  0
  129.8630  131.6270   62.4160 C   0  0  0  0  0  0  0  0  0  0  0  0
  130.7060  130.8220   61.3910 C   0  0  0  0  0  0  0  0  0  0  0  0
  130.5850  131.2450   59.9650 N   0  0  0  0  0  0  0  0  0  0  0  0
  129.4140  130.8760   59.3380 C   0  0  0  0  0  0  0  0  0  0  0  0
  128.5320  130.2090   59.8910 O   0  0  0  0  0  0  0  0  0  0  0  0
  129.2790  131.3700   57.9110 C   0  0  0  0  0  0  0  0  0  0  0  0
  128.1160  131.0740   57.1880 C   0  0  0  0  0  0  0  0  0  0  0  0
  127.9540  131.5190   55.8770 C   0  0  0  0  0  0  0  0  0  0  0  0
  128.9440  132.2740   55.2500 C   0  0  0  0  0  0  0  0  0  0  0  0
  130.1360  132.5980   55.9410 C   0  0  0  0  0  0  0  0  0  0  0  0
  131.1790  133.3610   55.3660 C   0  0  0  0  0  0  0  0  0  0  0  0
  132.3270  133.6470   56.1040 C   0  0  0  0  0  0  0  0  0  0  0  0
  132.4680  133.1890   57.4120 C   0  0  0  0  0  0  0  0  0  0  0  0
  131.4620  132.4300   58.0230 C   0  0  0  0  0  0  0  0  0  0  0  0
  130.2900  132.1360   57.2780 C   0  0  0  0  0  0  0  0  0  0  0  0
  131.6500  131.9580   59.4520 C   0  0  0  0  0  0  0  0  0  0  0  0
  132.6720  132.2130   60.0970 O   0  0  0  0  0  0  0  0  0  0  0  0
  127.5270  132.0220   62.9440 C   0  0  0  0  0  0  0  0  0  0  0  0
  126.1300  131.3800   63.1230 C   0  0  0  0  0  0  0  0  0  0  0  0
  1  2  2  0
  2  3  1  0
  3  4  1  0
  4  5  2  0
  5  6  1  0
  6  7  2  0
  7  8  1  0
  8  9  2  0
  8 10  1  0
  7 11  1  0
 11 12  2  0
 12 13  1  0
 13 14  1  0
 14 15  1  6
 15 16  2  0
 15 17  1  0
 17 18  1  0
 18 19  1  0
 19 20  1  0
 20 21  1  0
 21 22  1  0
 22 23  1  0
 23 24  1  0
 24 25  2  0
 24 26  1  0
 26 27  2  0
 27 28  1  0
 28 29  2  0
 29 30  1  0
 30 31  2  0
 31 32  1  0
 32 33  2  0
 33 34  1  0
 34 35  2  0
 34 36  1  0
 36 37  2  0
 20 38  1  0
 38 39  1  0
 14  2  1  0
 39 17  1  0
 12  4  1  0
 36 23  1  0
 35 26  1  0
 35 30  1  0
M  CHG  2   8   1  10  -1
M  END
>  <Binding energies>  (77) 
[-10.93]

>  <Ligand effiencies>  (77) 
[-0.28025641025641024]

>  <Interactions>  (77) 
["V-A:HIS:456:CE1:4069, V-B:GLY:544:C:9883, V-B:GLU:543:CB:9877, V-B:GLU:543:C:9873, V-B:HIS:456:CE1:9040, V-A:TYR:539:CZ:4876, V-A:ILE:538:CG2:4862, V-A:ILE:538:CB:4861, V-A:ILE:538:CA:4859, V-A:TYR:539:CE1:4874, V-B:GLU:543:CD:9879, V-A:PRO:540:CA:4882, V-A:PRO:540:CB:4884, V-B:ARG:545:CG:9893, V-A:GLU:543:CD:4907, V-A:GLU:543:CG:4906, H-B:HIS:456:ND1:9037, H-B:ILE:455:N:9025, H-B:GLY:454:N:9020, V-B:ARG:545:CA:9890, V-B:ARG:545:CD:9894, V-B:ARG:545:CB:9892, H-B:TYR:484:OH:9318, V-B:ARG:545:CZ:9897, H-B:ARG:545:NE:9895, V-A:PRO:540:N:4883, V-A:PRO:540:CD:4886, V-A:TYR:531:CE2:4792, V-A:LEU:363:CD1:3188, V-A:PRO:540:CG:4885"]

$$$$
RR27_Rahimova_2017
     RDKit          3D

 39 44  0  0  0  0  0  0  0  0999 V2000
  129.0960  124.5950   58.3380 O   0  0  0  0  0  0  0  0  0  0  0  0
  128.2580  125.2750   58.9390 C   0  0  0  0  0  0  0  0  0  0  0  0
  126.7760  124.8000   58.9270 C   0  0  0  0  0  0  0  0  0  0  0  0
  126.2860  124.3120   60.3030 C   0  0  0  0  0  0  0  0  0  0  0  0
  124.9330  124.0330   60.5510 C   0  0  0  0  0  0  0  0  0  0  0  0
  124.5250  123.5910   61.8060 C   0  0  0  0  0  0  0  0  0  0  0  0
  125.4660  123.4260   62.8190 C   0  0  0  0  0  0  0  0  0  0  0  0
  126.8110  123.7010   62.5880 C   0  0  0  0  0  0  0  0  0  0  0  0
  127.2190  124.1430   61.3330 C   0  0  0  0  0  0  0  0  0  0  0  0
  126.4940  123.8360   57.7580 C   0  0  0  0  0  0  0  0  0  0  0  0
  127.5070  123.0550   57.1860 C   0  0  0  0  0  0  0  0  0  0  0  0
  127.2200  122.2020   56.1230 C   0  0  0  0  0  0  0  0  0  0  0  0
  125.9220  122.1310   55.6250 C   0  0  0  0  0  0  0  0  0  0  0  0
  124.9080  122.9090   56.1770 C   0  0  0  0  0  0  0  0  0  0  0  0
  125.1960  123.7620   57.2380 C   0  0  0  0  0  0  0  0  0  0  0  0
  128.6220  126.3280   59.7240 N   0  0  0  0  0  0  0  0  0  0  0  0
  127.6670  127.3150   60.2510 C   0  0  0  0  0  0  0  0  0  0  0  0
  127.5190  128.4130   59.1740 C   0  0  0  0  0  0  0  0  0  0  0  0
  128.8880  129.0410   58.7600 C   0  0  0  0  0  0  0  0  0  0  0  0
  128.8090  130.0610   57.6100 C   0  0  0  0  0  0  0  0  0  0  0  0
  127.6590  130.0570   56.8730 N   0  0  0  0  0  0  0  0  0  0  0  0
  127.5270  130.9590   55.8610 C   0  0  0  0  0  0  0  0  0  0  0  0
  126.4220  131.0550   55.0560 O   0  0  0  0  0  0  0  0  0  0  0  0
  128.5830  131.8570   55.6140 C   0  0  0  0  0  0  0  0  0  0  0  0
  128.7730  132.8610   54.7100 N   0  0  0  0  0  0  0  0  0  0  0  0
  130.0250  133.3960   54.9470 N   0  0  0  0  0  0  0  0  0  0  0  0
  130.5910  132.7390   55.9810 N   0  0  0  0  0  0  0  0  0  0  0  0
  131.9370  133.0850   56.4320 C   0  0  0  0  0  0  0  0  0  0  0  0
  132.3760  132.3340   57.6810 C   0  0  0  0  0  0  0  0  0  0  0  0
  133.4440  131.4330   57.6220 C   0  0  0  0  0  0  0  0  0  0  0  0
  133.8530  130.7530   58.7710 C   0  0  0  0  0  0  0  0  0  0  0  0
  133.2020  130.9740   59.9830 C   0  0  0  0  0  0  0  0  0  0  0  0
  132.1420  131.8800   60.0510 C   0  0  0  0  0  0  0  0  0  0  0  0
  131.3500  132.1750   61.5570 Cl  0  0  0  0  0  0  0  0  0  0  0  0
  131.7270  132.5540   58.9020 C   0  0  0  0  0  0  0  0  0  0  0  0
  129.7270  131.7570   56.4350 C   0  0  0  0  0  0  0  0  0  0  0  0
  129.8850  130.8780   57.4280 N   0  0  0  0  0  0  0  0  0  0  0  0
  129.9860  127.9540   58.5480 C   0  0  0  0  0  0  0  0  0  0  0  0
  129.9900  126.8660   59.6520 C   0  0  0  0  0  0  0  0  0  0  0  0
  1  2  2  0
  2  3  1  0
  3  4  1  0
  4  5  2  0
  5  6  1  0
  6  7  2  0
  7  8  1  0
  8  9  2  0
  3 10  1  0
 10 11  2  0
 11 12  1  0
 12 13  2  0
 13 14  1  0
 14 15  2  0
  2 16  1  0
 16 17  1  0
 17 18  1  0
 18 19  1  0
 19 20  1  0
 20 21  2  0
 21 22  1  0
 22 23  1  0
 22 24  2  0
 24 25  1  0
 25 26  2  0
 26 27  1  0
 27 28  1  0
 28 29  1  0
 29 30  2  0
 30 31  1  0
 31 32  2  0
 32 33  1  0
 33 34  1  0
 33 35  2  0
 27 36  1  0
 36 37  2  0
 19 38  1  0
 38 39  1  0
  9  4  1  0
 15 10  1  0
 39 16  1  0
 37 20  1  0
 36 24  1  0
 35 29  1  0
M  END
>  <Binding energies>  (78) 
[-11.23]

>  <Ligand effiencies>  (78) 
[-0.28075]

>  <Interactions>  (78) 
["V-B:PRO:540:CB:9856, V-B:MET:535:CE:9806, V-B:PRO:540:CA:9854, V-B:TYR:531:CZ:9765, V-B:TYR:531:CE2:9764, V-B:LEU:363:CD1:8159, V-B:TYR:539:C:9838, V-A:ASP:366:CG:3212, H-A:TYR:539:OH:4877, V-A:TYR:539:CZ:4876, V-B:PRO:540:N:9855, V-B:PRO:540:CD:9858, V-A:TYR:539:CE1:4874, V-B:GLU:543:CD:9879, V-A:PRO:540:CA:4882, V-A:PRO:540:CB:4884, V-A:ASN:362:C:3171, V-A:ASP:366:CB:3211, V-A:LEU:363:CA:3184, V-B:TYR:539:CG:9843, V-A:TYR:531:CZ:4793, H-A:TYR:531:OH:4794, V-A:PRO:540:N:4883, V-B:TYR:539:CE1:9846, V-B:TYR:539:CD1:9844, V-B:ALA:541:C:9859, V-A:TYR:531:CE2:4792, V-A:LEU:363:CD1:3188, V-A:PRO:540:C:4880, V-B:ILE:538:CD1:9836, V-B:ILE:538:CG2:9834, V-B:ILE:538:CA:9831, V-B:ILE:538:C:9829, V-B:TYR:539:CA:9840, V-B:MET:535:CG:9804, V-B:ASN:362:CB:8146, V-A:LEU:363:C:3182, V-B:ILE:538:CB:9833"]

$$$$
RR28_Rahimova_2017
     RDKit          3D

 46 49  0  0  0  0  0  0  0  0999 V2000
  131.3450  133.0930   54.8210 C   0  0  0  0  0  0  0  0  0  0  0  0
  130.4180  132.9910   56.0270 C   0  0  0  0  0  0  0  0  0  0  0  0
  129.9230  134.0130   56.5010 O   0  0  0  0  0  0  0  0  0  0  0  0
  130.1970  131.7510   56.5080 N   0  0  0  0  0  0  0  0  0  0  0  0
  129.3590  131.3520   57.6610 C   0  0  0  0  0  0  0  0  0  0  0  0
  127.9110  131.1050   57.1480 C   0  0  0  0  0  0  0  0  0  0  0  0
  126.8360  131.2140   58.0420 C   0  0  0  0  0  0  0  0  0  0  0  0
  125.5280  130.9960   57.6190 C   0  0  0  0  0  0  0  0  0  0  0  0
  125.2650  130.6630   56.2900 C   0  0  0  0  0  0  0  0  0  0  0  0
  123.8230  130.4220   55.8440 C   0  0  0  0  0  0  0  0  0  0  0  0
  122.9960  131.3800   56.2690 F   0  0  0  0  0  0  0  0  0  0  0  0
  123.7520  130.3760   54.5140 F   0  0  0  0  0  0  0  0  0  0  0  0
  123.4010  129.2580   56.3380 F   0  0  0  0  0  0  0  0  0  0  0  0
  126.3280  130.5490   55.3890 C   0  0  0  0  0  0  0  0  0  0  0  0
  127.6360  130.7670   55.8140 C   0  0  0  0  0  0  0  0  0  0  0  0
  129.4490  132.4240   58.8050 C   0  0  0  0  0  0  0  0  0  0  0  0
  130.8600  132.5270   59.4400 C   0  0  0  0  0  0  0  0  0  0  0  0
  131.1780  131.1900   59.9670 N   0  0  0  0  0  0  0  0  0  0  0  0
  130.9090  130.8800   61.2640 C   0  0  0  0  0  0  0  0  0  0  0  0
  130.5550  131.7340   62.0810 O   0  0  0  0  0  0  0  0  0  0  0  0
  131.2130  129.4490   61.7710 C   0  0  0  0  0  0  0  0  0  0  0  0
  129.9780  128.5870   62.1500 C   0  0  0  0  0  0  0  0  0  0  0  0
  128.7290  128.8020   61.2620 C   0  0  0  0  0  0  0  0  0  0  0  0
  128.0590  129.8230   61.4440 O   0  0  0  0  0  0  0  0  0  0  0  0
  128.4800  127.9500   60.2280 N   0  0  0  0  0  0  0  0  0  0  0  0
  129.0270  126.5900   60.1540 C   0  0  0  0  0  0  0  0  0  0  0  0
  128.0620  125.6830   60.9480 C   0  0  0  0  0  0  0  0  0  0  0  0
  126.5720  125.7210   60.4590 C   0  0  0  0  0  0  0  0  0  0  0  0
  125.7010  125.1540   61.5100 N   0  0  0  0  0  0  0  0  0  0  0  0
  125.8220  123.9690   62.1410 C   0  0  0  0  0  0  0  0  0  0  0  0
  124.7520  123.6430   63.1790 C   0  0  0  0  0  0  0  0  0  0  0  0
  126.7260  123.1630   61.9260 O   0  0  0  0  0  0  0  0  0  0  0  0
  126.4660  124.7900   59.2070 C   0  0  0  0  0  0  0  0  0  0  0  0
  127.5770  124.1340   58.6510 C   0  0  0  0  0  0  0  0  0  0  0  0
  127.4390  123.3120   57.5350 C   0  0  0  0  0  0  0  0  0  0  0  0
  126.1870  123.1280   56.9450 C   0  0  0  0  0  0  0  0  0  0  0  0
  126.0200  122.2260   55.7220 C   0  0  0  0  0  0  0  0  0  0  0  0
  127.2020  121.7610   55.3160 F   0  0  0  0  0  0  0  0  0  0  0  0
  125.2430  121.1920   56.0450 F   0  0  0  0  0  0  0  0  0  0  0  0
  125.4570  122.8680   54.6970 F   0  0  0  0  0  0  0  0  0  0  0  0
  125.0760  123.7800   57.4810 C   0  0  0  0  0  0  0  0  0  0  0  0
  125.2160  124.6000   58.5960 C   0  0  0  0  0  0  0  0  0  0  0  0
  126.1690  127.2160   60.1570 C   0  0  0  0  0  0  0  0  0  0  0  0
  127.2440  128.0820   59.4460 C   0  0  0  0  0  0  0  0  0  0  0  0
  131.3110  130.1670   58.9190 C   0  0  0  0  0  0  0  0  0  0  0  0
  129.9190  130.0160   58.2520 C   0  0  0  0  0  0  0  0  0  0  0  0
  1  2  1  0
  2  3  2  0
  2  4  1  0
  4  5  1  0
  5  6  1  0
  6  7  2  0
  7  8  1  0
  8  9  2  0
  9 10  1  0
 10 11  1  0
 10 12  1  0
 10 13  1  0
  9 14  1  0
 14 15  2  0
  5 16  1  0
 16 17  1  0
 17 18  1  0
 18 19  1  0
 19 20  2  0
 19 21  1  0
 21 22  1  0
 22 23  1  0
 23 24  2  0
 23 25  1  0
 25 26  1  0
 26 27  1  0
 27 28  1  0
 28 29  1  0
 29 30  1  0
 30 31  1  0
 30 32  2  0
 28 33  1  0
 33 34  2  0
 34 35  1  0
 35 36  2  0
 36 37  1  0
 37 38  1  0
 37 39  1  0
 37 40  1  0
 36 41  1  0
 41 42  2  0
 28 43  1  0
 43 44  1  0
 18 45  1  0
 45 46  1  0
 46  5  1  0
 15  6  1  0
 44 25  1  0
 42 33  1  0
M  END
>  <Binding energies>  (79) 
[-10.93]

>  <Ligand effiencies>  (79) 
[-0.22770833333333332]

>  <Interactions>  (79) 
["V-B:ASP:366:CB:8182, V-B:PRO:540:CB:9856, H-B:ALA:541:N:9862, V-B:MET:535:CE:9806, V-B:TYR:531:CZ:9765, V-B:TYR:531:CE2:9764, V-B:LEU:363:CD1:8159, V-B:TYR:539:C:9838, V-B:ASP:366:CG:8183, V-B:ASN:370:CB:8215, V-B:ASP:366:CA:8180, V-B:ASN:370:CA:8213, V-B:TYR:531:CE1:9763, V-B:ILE:369:CB:8206, V-B:ILE:369:CG2:8207, V-B:PRO:540:N:9855, V-A:MET:535:CG:4832, V-A:ILE:538:CG2:4862, V-A:TYR:539:CD1:4872, V-A:ILE:538:CB:4861, V-B:PRO:540:CG:9857, V-A:ILE:538:CA:4859, V-A:TYR:539:C:4866, V-B:PRO:540:CD:9858, V-A:TYR:539:CE1:4874, V-B:GLU:543:CD:9879, V-A:PRO:540:CA:4882, V-A:PRO:540:CB:4884, V-A:GLU:543:CD:4907, V-B:ARG:545:CZ:9897, V-B:TYR:539:CG:9843, V-A:TYR:531:CZ:4793, H-A:TYR:531:OH:4794, H-A:TYR:539:N:4869, V-B:GLU:543:CG:9878, V-A:PRO:540:N:4883, V-B:TYR:539:CE1:9846, V-B:TYR:539:CD1:9844, V-B:ALA:541:C:9859, V-A:TYR:531:CE2:4792, V-B:ASP:366:C:8178, V-A:MET:535:CB:4831, V-B:TYR:531:CD1:9761, V-B:ILE:538:CD1:9836, V-B:ILE:538:CG2:9834, H-B:ASP:366:OD1:8184, V-B:ILE:538:CA:9831, V-B:ILE:538:C:9829, V-B:TYR:539:CA:9840, V-B:MET:535:CG:9804, V-B:ASN:362:CB:8146, V-B:ASN:370:CG:8216, V-B:ILE:538:CB:9833, V-B:ILE:369:C:8202, V-B:ILE:538:CG1:9835, V-B:VAL:537:C:9821, V-B:MET:535:CB:9803"]

$$$$
RR29_Rahimova_2017
     RDKit          3D

 18 19  0  0  0  0  0  0  0  0999 V2000
  127.7410  126.2870   71.4390 C   0  0  0  0  0  0  0  0  0  0  0  0
  128.0180  126.4400   69.9510 C   0  0  0  0  0  0  0  0  0  0  0  0
  126.8100  127.0000   69.1670 C   0  0  0  0  0  0  0  0  0  0  0  0
  127.1260  128.3710   68.5340 C   0  0  0  0  0  0  0  0  0  0  0  0
  126.0740  128.7960   67.5210 C   0  0  0  0  0  0  0  0  0  0  0  0
  124.7580  129.0660   67.9460 C   0  0  0  0  0  0  0  0  0  0  0  0
  123.7720  129.4590   67.0290 C   0  0  0  0  0  0  0  0  0  0  0  0
  124.1410  129.5600   65.6930 C   0  0  0  0  0  0  0  0  0  0  0  0
  125.4160  129.2970   65.2750 C   0  0  0  0  0  0  0  0  0  0  0  0
  126.4160  128.9150   66.1630 C   0  0  0  0  0  0  0  0  0  0  0  0
  125.5010  129.5070   63.9350 O   0  0  0  0  0  0  0  0  0  0  0  0
  124.1830  129.7020   63.4970 C   0  0  0  0  0  0  0  0  0  0  0  0
  123.3890  129.9430   64.6280 O   0  0  0  0  0  0  0  0  0  0  0  0
  129.1690  126.0990   69.5020 N   0  0  0  0  0  0  0  0  0  0  0  0
  129.3940  126.1560   68.1440 N   0  0  0  0  0  0  0  0  0  0  0  0
  130.1880  127.0620   67.5510 C   0  0  0  0  0  0  0  0  0  0  0  0
  130.8750  128.0090   68.1920 N   0  0  0  0  0  0  0  0  0  0  0  0
  130.3000  127.0140   66.2320 N   0  0  0  0  0  0  0  0  0  0  0  0
  1  2  1  0
  2  3  1  0
  3  4  1  0
  4  5  1  0
  5  6  2  0
  6  7  1  0
  7  8  2  0
  8  9  1  0
  9 10  2  0
  9 11  1  0
 11 12  1  0
 12 13  1  0
  2 14  2  0
 14 15  1  0
 15 16  1  0
 16 17  1  0
 16 18  2  0
 10  5  1  0
 13  8  1  0
M  CHG  1  18   1
M  END
>  <Binding energies>  (80) 
[-7.97]

>  <Ligand effiencies>  (80) 
[-0.34652173913043477]

>  <Interactions>  (80) 
["H-A:GLU:543:OE1:4908, H-A:GLU:543:OE2:4909, V-A:HIS:456:CE1:4069, V-B:GLY:544:C:9883, V-B:GLU:543:CB:9877, V-B:GLU:543:C:9873, V-B:HIS:456:CE1:9040, V-B:GLU:543:CD:9879, V-B:ARG:545:CG:9893, V-A:GLU:543:CD:4907, V-A:GLU:543:CB:4905, V-A:GLU:543:CG:4906, H-B:GLY:454:N:9020, V-B:ARG:545:CD:9894, V-B:ARG:545:CZ:9897, H-B:ARG:545:NH1:9898, H-B:GLU:543:OE2:9881, V-B:GLU:543:CG:9878, H-B:ARG:545:NH2:9899, V-B:TYR:484:CZ:9317, H-A:HIS:456:NE2:4070"]

$$$$
RR30_Rahimova_2017
     RDKit          3D

 18 19  0  0  0  0  0  0  0  0999 V2000
  128.6170  132.9930   59.7210 C   0  0  0  0  0  0  0  0  0  0  0  0
  128.7250  132.3590   61.1160 C   0  0  0  0  0  0  0  0  0  0  0  0
  130.1370  132.4030   61.6570 C   0  0  0  0  0  0  0  0  0  0  0  0
  130.5300  132.6920   62.8730 N   0  0  0  0  0  0  0  0  0  0  0  0
  131.9190  132.6030   62.8570 N   0  0  0  0  0  0  0  0  0  0  0  0
  132.2470  132.2770   61.6330 C   0  0  0  0  0  0  0  0  0  0  0  0
  133.8660  132.0030   60.9900 S   0  0  0  0  0  0  0  0  0  0  0  0
  133.4860  130.7780   59.6970 C   0  0  0  0  0  0  0  0  0  0  0  0
  133.0520  131.4380   58.3850 C   0  0  0  0  0  0  0  0  0  0  0  0
  133.8520  131.4980   57.4480 O   0  0  0  0  0  0  0  0  0  0  0  0
  131.8010  131.9480   58.3660 N   0  0  0  0  0  0  0  0  0  0  0  0
  131.1900  132.5910   57.2990 C   0  0  0  0  0  0  0  0  0  0  0  0
  131.3800  133.8200   56.8720 N   0  0  0  0  0  0  0  0  0  0  0  0
  130.5880  134.1250   55.7730 N   0  0  0  0  0  0  0  0  0  0  0  0
  129.8200  133.1300   55.3910 C   0  0  0  0  0  0  0  0  0  0  0  0
  128.8670  133.2210   54.2220 C   0  0  0  0  0  0  0  0  0  0  0  0
  130.0160  131.7060   56.3760 S   0  0  0  0  0  0  0  0  0  0  0  0
  131.1690  132.1300   60.8200 O   0  0  0  0  0  0  0  0  0  0  0  0
  1  2  1  0
  2  3  1  0
  3  4  2  0
  4  5  1  0
  5  6  2  0
  6  7  1  0
  7  8  1  0
  8  9  1  0
  9 10  2  0
  9 11  1  0
 11 12  1  0
 12 13  2  0
 13 14  1  0
 14 15  2  0
 15 16  1  0
 15 17  1  0
  6 18  1  0
 18  3  1  0
 17 12  1  0
M  END
>  <Binding energies>  (81) 
[-7.33]

>  <Ligand effiencies>  (81) 
[-0.3857894736842105]

>  <Interactions>  (81) 
["V-A:ASP:366:CG:3212, V-A:TYR:539:CZ:4876, V-A:MET:535:CG:4832, V-A:TYR:539:CD1:4872, V-A:TYR:539:CE2:4875, V-A:ILE:538:CA:4859, V-A:TYR:539:C:4866, V-A:TYR:539:CE1:4874, V-A:PRO:540:CA:4882, V-A:PRO:540:CB:4884, H-A:ALA:541:N:4890, V-A:ASN:362:C:3171, V-A:ASP:366:CB:3211, V-A:LEU:363:CA:3184, V-A:TYR:531:CZ:4793, H-A:TYR:531:OH:4794, H-A:TYR:539:N:4869, V-A:MET:535:CB:4831, V-A:PRO:540:C:4880, H-A:LEU:363:N:3185"]

$$$$
RR31_Rahimova_2017
     RDKit          3D

 18 19  0  0  0  0  0  0  0  0999 V2000
  132.0020  117.2490   59.0320 C   0  0  0  0  0  0  0  0  0  0  0  0
  132.2170  118.4840   59.8970 C   0  0  0  0  0  0  0  0  0  0  0  0
  133.3170  119.3050   59.6500 C   0  0  0  0  0  0  0  0  0  0  0  0
  133.5390  120.4440   60.4220 C   0  0  0  0  0  0  0  0  0  0  0  0
  132.6620  120.8010   61.4590 C   0  0  0  0  0  0  0  0  0  0  0  0
  132.8770  121.9330   62.2470 N   0  0  0  0  0  0  0  0  0  0  0  0
  133.5460  123.1380   61.7200 C   0  0  0  0  0  0  0  0  0  0  0  0
  134.0580  124.1050   62.8130 C   0  0  0  0  0  0  0  0  0  0  0  0
  132.9710  124.5020   63.7120 N   0  0  0  0  0  0  0  0  0  0  0  0
  133.4190  125.4480   64.7390 C   0  0  0  0  0  0  0  0  0  0  0  0
  132.2630  126.2680   65.3480 C   0  0  0  0  0  0  0  0  0  0  0  0
  131.4430  127.0040   64.2770 C   0  0  0  0  0  0  0  0  0  0  0  0
  131.9500  126.6290   62.8800 N   0  0  0  0  0  0  0  0  0  0  0  0
  132.4640  123.2870   64.3480 C   0  0  0  0  0  0  0  0  0  0  0  0
  131.9030  122.3080   63.2920 C   0  0  0  0  0  0  0  0  0  0  0  0
  131.5650  119.9610   61.7020 C   0  0  0  0  0  0  0  0  0  0  0  0
  131.3320  118.8140   60.9350 C   0  0  0  0  0  0  0  0  0  0  0  0
  130.1230  117.9420   61.2520 C   0  0  0  0  0  0  0  0  0  0  0  0
  1  2  1  0
  2  3  2  0
  3  4  1  0
  4  5  2  0
  5  6  1  0
  6  7  1  0
  7  8  1  0
  8  9  1  0
  9 10  1  0
 10 11  1  0
 11 12  1  0
 12 13  1  0
  9 14  1  0
 14 15  1  0
  5 16  1  0
 16 17  2  0
 17 18  1  0
 17  2  1  0
 15  6  1  0
M  CHG  1  13   1
M  END
>  <Binding energies>  (82) 
[-7.08]

>  <Ligand effiencies>  (82) 
[-0.33714285714285713]

>  <Interactions>  (82) 
["V-B:ALA:541:CB:9863, V-B:TYR:539:CE2:9847, V-A:ILE:369:CG2:3236, V-A:SER:385:CA:3406, V-B:TYR:539:CD2:9845, V-A:GLY:453:C:4041, V-A:ARG:545:CZ:4925, V-A:LEU:475:CD2:4258, V-B:TYR:539:C:9838, V-A:ILE:369:CD1:3238, V-A:ASP:366:CG:3212, V-A:GLU:543:CD:4907, V-A:LEU:373:CD1:3279, V-B:TYR:539:CG:9843, V-A:HIS:383:CG:3389, V-B:TYR:539:CB:9842, V-A:HIS:383:CE1:3393, H-A:GLY:454:N:4049, H-A:ASP:366:OD2:3214, H-A:ASP:366:OD1:3213, V-A:GLY:454:CA:4048, V-A:PRO:482:CB:4325, V-A:LEU:373:CD2:3280, V-A:PRO:482:CG:4326"]

$$$$
RR32_Rahimova_2017
     RDKit          3D

 18 20  0  0  0  0  0  0  0  0999 V2000
  123.6060  124.1910   59.0410 C   0  0  0  0  0  0  0  0  0  0  0  0
  125.0330  123.6660   58.9310 C   0  0  0  0  0  0  0  0  0  0  0  0
  125.8330  123.6840   60.0740 C   0  0  0  0  0  0  0  0  0  0  0  0
  127.1400  123.2090   60.0120 C   0  0  0  0  0  0  0  0  0  0  0  0
  127.9310  123.2300   61.1480 N   0  0  0  0  0  0  0  0  0  0  0  0
  127.2650  123.5280   62.4290 C   0  0  0  0  0  0  0  0  0  0  0  0
  128.2540  123.7070   63.6040 C   0  0  0  0  0  0  0  0  0  0  0  0
  129.0660  122.5010   63.7700 N   0  0  0  0  0  0  0  0  0  0  0  0
  129.9770  122.6570   64.8980 C   0  0  0  0  0  0  0  0  0  0  0  0
  129.8190  122.2920   62.5350 C   0  0  0  0  0  0  0  0  0  0  0  0
  128.8540  122.0950   61.3430 C   0  0  0  0  0  0  0  0  0  0  0  0
  127.6880  122.7210   58.8690 N   0  0  0  0  0  0  0  0  0  0  0  0
  126.9340  122.6920   57.7370 C   0  0  0  0  0  0  0  0  0  0  0  0
  127.5310  122.1790   56.5600 C   0  0  0  0  0  0  0  0  0  0  0  0
  126.8080  122.1260   55.3730 C   0  0  0  0  0  0  0  0  0  0  0  0
  125.4930  122.5730   55.3290 C   0  0  0  0  0  0  0  0  0  0  0  0
  124.8760  123.0820   56.4670 C   0  0  0  0  0  0  0  0  0  0  0  0
  125.5790  123.1570   57.7050 C   0  0  0  0  0  0  0  0  0  0  0  0
  1  2  1  0
  2  3  2  0
  3  4  1  0
  4  5  1  0
  5  6  1  0
  6  7  1  0
  7  8  1  0
  8  9  1  0
  8 10  1  0
 10 11  1  0
  4 12  2  0
 12 13  1  0
 13 14  2  0
 14 15  1  0
 15 16  2  0
 16 17  1  0
 17 18  2  0
 18  2  1  0
 11  5  1  0
 18 13  1  0
M  END
>  <Binding energies>  (83) 
[-6.59]

>  <Ligand effiencies>  (83) 
[-0.3661111111111111]

>  <Interactions>  (83) 
["V-B:ALA:541:CB:9863, V-B:ASP:366:CB:8182, V-B:PRO:540:CB:9856, V-B:MET:535:CE:9806, V-B:PRO:540:CA:9854, V-B:TYR:531:CZ:9765, V-B:TYR:539:CD2:9845, V-B:LEU:363:CA:8155, V-B:TYR:531:CE2:9764, V-B:PRO:540:C:9852, V-B:LEU:363:CD1:8159, V-B:TYR:539:C:9838, V-B:ASP:366:CG:8183, V-B:PRO:540:N:9855, V-B:PRO:540:CD:9858, V-B:GLU:543:CD:9879, V-B:TYR:539:CG:9843, V-B:TYR:539:CZ:9848, V-A:LEU:475:CD1:4257, V-B:GLU:543:CG:9878, V-B:TYR:539:CE1:9846, V-B:TYR:539:CD1:9844, V-B:ILE:538:CD1:9836, V-B:ILE:538:CG2:9834, V-B:ILE:538:CA:9831, V-B:ILE:538:C:9829, V-A:TYR:484:CE2:4345, V-B:TYR:539:CA:9840, V-B:MET:535:CG:9804, V-B:LEU:363:CB:8157"]

$$$$
RR5_Rahimova_2017
     RDKit          3D

 45 50  0  0  0  0  0  0  0  0999 V2000
  128.5480  126.3900   57.5780 O   0  0  0  0  0  0  0  0  0  0  0  0
  128.7220  125.8340   58.6620 C   0  0  0  0  0  0  0  0  0  0  0  0
  130.1170  125.8530   59.3150 C   0  0  0  0  0  0  0  0  0  0  0  0
  131.1100  126.8840   58.6700 C   0  0  2  0  0  0  0  0  0  0  0  0
  130.5030  128.1720   58.2750 N   0  0  0  0  0  0  0  0  0  0  0  0
  129.7950  128.9490   59.1810 C   0  0  0  0  0  0  0  0  0  0  0  0
  129.6250  128.7130   60.3800 O   0  0  0  0  0  0  0  0  0  0  0  0
  129.3010  130.0160   58.5280 O   0  0  0  0  0  0  0  0  0  0  0  0
  128.7960  131.1480   59.2300 C   0  0  0  0  0  0  0  0  0  0  0  0
  129.8060  132.3150   59.1890 C   0  0  0  0  0  0  0  0  0  0  0  0
  131.1450  131.9850   59.8240 C   0  0  0  0  0  0  0  0  0  0  0  0
  131.4310  131.5620   61.1260 C   0  0  0  0  0  0  0  0  0  0  0  0
  132.7500  131.2890   61.4940 C   0  0  0  0  0  0  0  0  0  0  0  0
  133.7820  131.4400   60.5660 C   0  0  0  0  0  0  0  0  0  0  0  0
  133.4990  131.8640   59.2660 C   0  0  0  0  0  0  0  0  0  0  0  0
  132.1790  132.1370   58.9010 C   0  0  0  0  0  0  0  0  0  0  0  0
  131.6030  132.5990   57.6280 C   0  0  0  0  0  0  0  0  0  0  0  0
  132.2040  132.9100   56.4060 C   0  0  0  0  0  0  0  0  0  0  0  0
  131.4160  133.3550   55.3440 C   0  0  0  0  0  0  0  0  0  0  0  0
  130.0350  133.4850   55.5010 C   0  0  0  0  0  0  0  0  0  0  0  0
  129.4390  133.1690   56.7220 C   0  0  0  0  0  0  0  0  0  0  0  0
  130.2220  132.7200   57.7880 C   0  0  0  0  0  0  0  0  0  0  0  0
  131.8400  126.2580   57.4550 C   0  0  0  0  0  0  0  0  0  0  0  0
  132.7840  125.4970   57.5320 O   0  0  0  0  0  0  0  0  0  0  0  0
  131.2490  126.6770   56.2980 O   0  0  0  0  0  0  0  0  0  0  0  0
  127.7550  125.2120   59.3730 N   0  0  0  0  0  0  0  0  0  0  0  0
  126.3020  124.9640   59.1330 C   0  0  0  0  0  0  0  0  0  0  0  0
  125.7750  126.4010   58.8020 C   0  0  0  0  0  0  0  0  0  0  0  0
  126.0570  127.4960   59.6350 C   0  0  0  0  0  0  0  0  0  0  0  0
  125.5850  128.7690   59.3300 C   0  0  0  0  0  0  0  0  0  0  0  0
  124.8130  128.9670   58.1910 C   0  0  0  0  0  0  0  0  0  0  0  0
  124.5180  127.9020   57.3470 C   0  0  0  0  0  0  0  0  0  0  0  0
  125.0000  126.6320   57.6480 C   0  0  0  0  0  0  0  0  0  0  0  0
  126.1890  123.9860   57.9160 C   0  0  0  0  0  0  0  0  0  0  0  0
  124.9520  123.6740   57.3310 C   0  0  0  0  0  0  0  0  0  0  0  0
  124.8730  122.7860   56.2610 C   0  0  0  0  0  0  0  0  0  0  0  0
  126.0310  122.1970   55.7630 C   0  0  0  0  0  0  0  0  0  0  0  0
  127.2690  122.4930   56.3240 C   0  0  0  0  0  0  0  0  0  0  0  0
  127.3470  123.3870   57.3870 C   0  0  0  0  0  0  0  0  0  0  0  0
  125.7290  124.4010   60.4780 C   0  0  0  0  0  0  0  0  0  0  0  0
  126.4830  124.4520   61.6640 C   0  0  0  0  0  0  0  0  0  0  0  0
  125.9830  123.9460   62.8600 C   0  0  0  0  0  0  0  0  0  0  0  0
  124.7120  123.3840   62.8930 C   0  0  0  0  0  0  0  0  0  0  0  0
  123.9370  123.3310   61.7410 C   0  0  0  0  0  0  0  0  0  0  0  0
  124.4410  123.8390   60.5470 C   0  0  0  0  0  0  0  0  0  0  0  0
  1  2  2  0
  2  3  1  0
  4  3  1  6
  4  5  1  0
  5  6  1  0
  6  7  2  0
  6  8  1  0
  8  9  1  0
  9 10  1  0
 10 11  1  0
 11 12  2  0
 12 13  1  0
 13 14  2  0
 14 15  1  0
 15 16  2  0
 16 17  1  0
 17 18  2  0
 18 19  1  0
 19 20  2  0
 20 21  1  0
 21 22  2  0
  4 23  1  0
 23 24  2  0
 23 25  1  0
  2 26  1  0
 26 27  1  0
 27 28  1  0
 28 29  2  0
 29 30  1  0
 30 31  2  0
 31 32  1  0
 32 33  2  0
 27 34  1  0
 34 35  2  0
 35 36  1  0
 36 37  2  0
 37 38  1  0
 38 39  2  0
 27 40  1  0
 40 41  2  0
 41 42  1  0
 42 43  2  0
 43 44  1  0
 44 45  2  0
 22 10  1  0
 33 28  1  0
 39 34  1  0
 45 40  1  0
 16 11  1  0
 22 17  1  0
M  END
>  <Binding energies>  (84) 
[-12.01]

>  <Ligand effiencies>  (84) 
[-0.2502083333333333]

>  <Interactions>  (84) 
["V-B:ASP:366:CB:8182, V-B:PRO:540:CB:9856, V-B:MET:535:CE:9806, V-B:PRO:540:CA:9854, V-B:TYR:531:CZ:9765, V-B:TYR:531:CE2:9764, V-B:LEU:363:CD1:8159, V-A:ASP:366:CG:3212, V-B:ASP:366:CG:8183, V-A:TYR:539:CZ:4876, V-B:TYR:531:CE1:9763, V-A:TYR:539:CG:4871, V-A:ILE:538:CG2:4862, V-A:TYR:539:CD1:4872, V-A:ILE:538:CB:4861, V-A:ILE:538:CA:4859, V-A:TYR:539:C:4866, V-B:PRO:540:CD:9858, V-A:TYR:539:CE1:4874, V-B:GLU:543:CD:9879, V-A:PRO:540:CA:4882, V-A:PRO:540:CB:4884, V-A:ASN:362:C:3171, V-A:ASP:366:CB:3211, V-A:LEU:363:CA:3184, V-B:TYR:539:CG:9843, V-A:TYR:531:CZ:4793, H-A:TYR:531:OH:4794, V-B:GLU:543:CG:9878, H-B:TYR:539:OH:9849, V-A:PRO:540:N:4883, V-B:TYR:539:CE1:9846, V-B:TYR:539:CD1:9844, V-B:ALA:541:C:9859, V-A:TYR:531:CE2:4792, V-A:LEU:363:CD1:3188, V-B:ILE:538:CD1:9836, V-B:ILE:538:CG2:9834, V-B:ILE:538:CA:9831, V-A:ASN:362:CB:3175, V-B:ILE:538:C:9829, V-B:MET:535:CG:9804, V-B:ASN:362:CB:8146"]

$$$$
