1a_Ghoteimi_2023
     RDKit          3D

 40 43  0  0  0  0  0  0  0  0999 V2000
  133.5240  130.7270   58.5380 C   0  0  0  0  0  0  0  0  0  0  0  0
  133.1270  132.1830   58.2750 C   0  0  0  0  0  0  0  0  0  0  0  0
  132.9440  132.3770   56.8780 O   0  0  0  0  0  0  0  0  0  0  0  0
  132.1280  133.3540   56.4070 C   0  0  0  0  0  0  0  0  0  0  0  0
  132.5000  134.5140   56.2030 O   0  0  0  0  0  0  0  0  0  0  0  0
  130.7250  132.8810   56.1520 C   0  0  0  0  0  0  0  0  0  0  0  0
  130.1170  133.0060   54.8940 C   0  0  0  0  0  0  0  0  0  0  0  0
  128.8140  132.5620   54.6880 C   0  0  0  0  0  0  0  0  0  0  0  0
  128.0940  131.9770   55.7420 C   0  0  0  0  0  0  0  0  0  0  0  0
  126.7730  131.4990   55.6480 N   0  0  0  0  0  0  0  0  0  0  0  0
  126.3180  130.2750   55.2990 C   0  0  0  0  0  0  0  0  0  0  0  0
  127.0200  129.3090   55.0010 O   0  0  0  0  0  0  0  0  0  0  0  0
  124.7980  130.1170   55.2930 C   0  0  0  0  0  0  0  0  0  0  0  0
  124.0480  130.7670   56.8150 S   0  0  0  0  0  0  0  0  0  0  0  0
  124.5560  129.6750   58.1230 C   0  0  0  0  0  0  0  0  0  0  0  0
  124.8620  128.4230   57.7070 N   0  0  0  0  0  0  0  0  0  0  0  0
  125.2700  127.4920   58.6080 C   0  0  0  0  0  0  0  0  0  0  0  0
  125.6110  126.1340   58.0660 C   0  0  0  0  0  0  0  0  0  0  0  0
  124.6170  125.1680   57.8390 C   0  0  0  0  0  0  0  0  0  0  0  0
  124.9360  123.9100   57.3350 C   0  0  0  0  0  0  0  0  0  0  0  0
  126.2570  123.5780   57.0430 C   0  0  0  0  0  0  0  0  0  0  0  0
  126.4810  122.3090   56.5440 O   0  0  0  0  0  0  0  0  0  0  0  0
  126.4680  122.1050   55.1360 C   0  0  0  0  0  0  0  0  0  0  0  0
  127.2610  124.5300   57.2670 C   0  0  0  0  0  0  0  0  0  0  0  0
  126.9390  125.7860   57.7720 C   0  0  0  0  0  0  0  0  0  0  0  0
  125.3760  127.8150   59.9670 C   0  0  0  0  0  0  0  0  0  0  0  0
  125.0400  129.0950   60.4250 C   0  0  0  0  0  0  0  0  0  0  0  0
  125.1460  129.3580   61.8920 C   0  0  0  0  0  0  0  0  0  0  0  0
  126.3620  129.1940   62.5640 C   0  0  0  0  0  0  0  0  0  0  0  0
  126.4560  129.4550   63.9290 C   0  0  0  0  0  0  0  0  0  0  0  0
  125.3430  129.8920   64.6460 C   0  0  0  0  0  0  0  0  0  0  0  0
  125.5310  130.1270   65.9930 O   0  0  0  0  0  0  0  0  0  0  0  0
  125.8730  129.0410   66.8460 C   0  0  0  0  0  0  0  0  0  0  0  0
  124.1230  130.0670   63.9730 C   0  0  0  0  0  0  0  0  0  0  0  0
  124.0310  129.8040   62.6080 C   0  0  0  0  0  0  0  0  0  0  0  0
  124.6210  130.0610   59.4790 C   0  0  0  0  0  0  0  0  0  0  0  0
  124.2710  131.4230   59.8970 C   0  0  0  0  0  0  0  0  0  0  0  0
  123.9960  132.4980   60.2270 N   0  0  0  0  0  0  0  0  0  0  0  0
  128.6950  131.8550   56.9950 C   0  0  0  0  0  0  0  0  0  0  0  0
  129.9980  132.3000   57.1990 C   0  0  0  0  0  0  0  0  0  0  0  0
  1  2  1  0
  2  3  1  0
  3  4  1  0
  4  5  2  0
  4  6  1  0
  6  7  2  0
  7  8  1  0
  8  9  2  0
  9 10  1  0
 10 11  1  0
 11 12  2  0
 11 13  1  0
 13 14  1  0
 14 15  1  0
 15 16  2  0
 16 17  1  0
 17 18  1  0
 18 19  2  0
 19 20  1  0
 20 21  2  0
 21 22  1  0
 22 23  1  0
 21 24  1  0
 24 25  2  0
 17 26  2  0
 26 27  1  0
 27 28  1  0
 28 29  2  0
 29 30  1  0
 30 31  2  0
 31 32  1  0
 32 33  1  0
 31 34  1  0
 34 35  2  0
 27 36  2  0
 36 37  1  0
 37 38  3  0
  9 39  1  0
 39 40  2  0
 40  6  1  0
 36 15  1  0
 25 18  1  0
 35 28  1  0
M  END
>  <Binding energies>  (1) 
[-9.66]

>  <Ligand effiencies>  (1) 
[-0.235609756097561]

>  <Interactions>  (1) 
["V-B:ASP:366:CB:8182, V-B:MET:535:CE:9806, V-B:TYR:531:CZ:9765, V-B:TYR:531:CE2:9764, V-B:LEU:363:CD1:8159, V-B:ASP:366:CG:8183, V-B:ASN:370:CB:8215, H-A:TYR:539:OH:4877, V-A:TYR:539:CZ:4876, V-B:TYR:531:CE1:9763, V-B:ILE:369:CG2:8207, V-A:MET:535:CG:4832, V-A:ILE:538:CG2:4862, V-A:TYR:539:CD1:4872, V-A:ILE:538:CB:4861, V-A:TYR:539:CE2:4875, V-A:ILE:538:CA:4859, V-A:TYR:539:CE1:4874, V-A:PRO:540:CA:4882, V-A:PRO:540:CB:4884, V-A:ASP:366:CB:3211, V-A:LEU:363:CA:3184, H-B:TYR:484:OH:9318, V-B:ARG:545:CZ:9897, H-B:TYR:539:N:9841, H-A:TYR:531:OH:4794, H-A:TYR:539:N:4869, V-A:PRO:540:N:4883, V-A:PRO:540:CD:4886, H-B:TYR:531:OH:9766, V-A:TYR:531:CE2:4792, V-A:LEU:363:CD1:3188, V-A:MET:535:CB:4831, V-B:TYR:531:CD1:9761, V-B:ILE:538:CD1:9836, V-B:ILE:538:CG2:9834, V-B:ILE:538:CA:9831, V-B:ILE:538:C:9829, V-B:MET:535:CG:9804, V-B:ILE:538:CB:9833, V-B:VAL:537:C:9821"]

$$$$
1b_Ghoteimi_2023
     RDKit          3D

 34 37  0  0  0  0  0  0  0  0999 V2000
  125.5650  121.7710   55.7930 C   0  0  0  0  0  0  0  0  0  0  0  0
  126.4540  122.3250   56.7560 O   0  0  0  0  0  0  0  0  0  0  0  0
  126.2790  123.6340   57.1600 C   0  0  0  0  0  0  0  0  0  0  0  0
  124.9820  124.0150   57.4990 C   0  0  0  0  0  0  0  0  0  0  0  0
  124.7100  125.3150   57.9160 C   0  0  0  0  0  0  0  0  0  0  0  0
  125.7290  126.2740   58.0100 C   0  0  0  0  0  0  0  0  0  0  0  0
  125.4310  127.6780   58.4590 C   0  0  0  0  0  0  0  0  0  0  0  0
  125.2410  128.0240   59.8010 C   0  0  0  0  0  0  0  0  0  0  0  0
  124.9690  129.3480   60.1670 C   0  0  0  0  0  0  0  0  0  0  0  0
  124.7730  129.6440   61.6170 C   0  0  0  0  0  0  0  0  0  0  0  0
  123.6510  130.3580   62.0460 C   0  0  0  0  0  0  0  0  0  0  0  0
  123.4680  130.6430   63.3970 C   0  0  0  0  0  0  0  0  0  0  0  0
  124.4040  130.2240   64.3430 C   0  0  0  0  0  0  0  0  0  0  0  0
  124.1400  130.5530   65.6590 O   0  0  0  0  0  0  0  0  0  0  0  0
  124.1150  129.5220   66.6400 C   0  0  0  0  0  0  0  0  0  0  0  0
  125.5360  129.5140   63.9160 C   0  0  0  0  0  0  0  0  0  0  0  0
  125.7160  129.2310   62.5650 C   0  0  0  0  0  0  0  0  0  0  0  0
  124.9030  130.3290   59.1470 C   0  0  0  0  0  0  0  0  0  0  0  0
  124.7170  131.7430   59.4860 C   0  0  0  0  0  0  0  0  0  0  0  0
  124.5700  132.8600   59.7550 N   0  0  0  0  0  0  0  0  0  0  0  0
  125.0840  129.9090   57.8100 C   0  0  0  0  0  0  0  0  0  0  0  0
  125.0260  130.9990   56.4030 S   0  0  0  0  0  0  0  0  0  0  0  0
  126.3870  130.5370   55.2790 C   0  0  0  0  0  0  0  0  0  0  0  0
  127.7880  130.9590   55.7460 C   0  0  0  0  0  0  0  0  0  0  0  0
  128.4730  130.2070   56.4430 O   0  0  0  0  0  0  0  0  0  0  0  0
  128.1720  132.1890   55.3350 N   0  0  0  0  0  0  0  0  0  0  0  0
  129.3780  132.8260   55.6030 C   0  0  0  0  0  0  0  0  0  0  0  0
  130.5520  132.5590   54.9010 C   0  0  0  0  0  0  0  0  0  0  0  0
  131.5000  133.3840   55.4620 C   0  0  0  0  0  0  0  0  0  0  0  0
  130.9250  134.1120   56.4490 O   0  0  0  0  0  0  0  0  0  0  0  0
  129.5800  133.7500   56.5290 N   0  0  0  0  0  0  0  0  0  0  0  0
  125.3600  128.6230   57.4860 N   0  0  0  0  0  0  0  0  0  0  0  0
  127.0320  125.8800   57.6640 C   0  0  0  0  0  0  0  0  0  0  0  0
  127.3080  124.5820   57.2460 C   0  0  0  0  0  0  0  0  0  0  0  0
  1  2  1  0
  2  3  1  0
  3  4  2  0
  4  5  1  0
  5  6  2  0
  6  7  1  0
  7  8  2  0
  8  9  1  0
  9 10  1  0
 10 11  2  0
 11 12  1  0
 12 13  2  0
 13 14  1  0
 14 15  1  0
 13 16  1  0
 16 17  2  0
  9 18  2  0
 18 19  1  0
 19 20  3  0
 18 21  1  0
 21 22  1  0
 22 23  1  0
 23 24  1  0
 24 25  2  0
 24 26  1  0
 26 27  1  0
 27 28  1  0
 28 29  2  0
 29 30  1  0
 30 31  1  0
 21 32  2  0
  6 33  1  0
 33 34  2  0
 34  3  1  0
 32  7  1  0
 17 10  1  0
 31 27  2  0
M  END
>  <Binding energies>  (2) 
[-9.6]

>  <Ligand effiencies>  (2) 
[-0.2742857142857143]

>  <Interactions>  (2) 
["V-B:ASP:366:CB:8182, V-B:MET:535:CE:9806, V-B:TYR:531:CZ:9765, V-B:TYR:531:CE2:9764, V-B:LEU:363:CD1:8159, V-B:ASP:366:CG:8183, H-A:TYR:539:OH:4877, V-A:TYR:539:CZ:4876, V-B:ILE:369:CG2:8207, V-B:PRO:540:N:9855, V-A:MET:535:CG:4832, V-A:ILE:538:CG2:4862, V-B:GLY:454:CA:9019, V-B:GLY:453:CA:9014, V-A:TYR:539:CD1:4872, V-A:ILE:538:CB:4861, V-A:ILE:538:CA:4859, V-B:PRO:540:CD:9858, V-A:TYR:539:CE1:4874, V-B:GLY:453:C:9012, V-B:ARG:545:CG:9893, H-B:GLY:454:N:9020, V-B:ARG:545:CD:9894, H-B:TYR:484:OH:9318, V-B:ARG:545:CZ:9897, V-A:TYR:531:CZ:4793, H-B:TYR:539:N:9841, H-A:TYR:531:OH:4794, H-A:TYR:539:N:4869, H-B:TYR:531:OH:9766, V-A:TYR:531:CE2:4792, V-A:MET:535:CB:4831, V-B:ILE:538:CD1:9836, V-B:ILE:538:CG2:9834, V-B:ILE:538:CA:9831, V-B:ILE:538:C:9829, V-B:ILE:538:CB:9833"]

$$$$
1c_Ghoteimi_2023
     RDKit          3D

 34 37  0  0  0  0  0  0  0  0999 V2000
  123.3810  132.6190   61.6170 C   0  0  0  0  0  0  0  0  0  0  0  0
  123.5430  132.3740   60.2250 O   0  0  0  0  0  0  0  0  0  0  0  0
  124.0270  131.1500   59.8060 C   0  0  0  0  0  0  0  0  0  0  0  0
  124.5850  130.3310   60.7840 C   0  0  0  0  0  0  0  0  0  0  0  0
  125.1000  129.0810   60.4510 C   0  0  0  0  0  0  0  0  0  0  0  0
  125.0730  128.6130   59.1280 C   0  0  0  0  0  0  0  0  0  0  0  0
  125.6320  127.2680   58.7640 C   0  0  0  0  0  0  0  0  0  0  0  0
  127.0050  127.0280   58.6400 C   0  0  0  0  0  0  0  0  0  0  0  0
  127.4810  125.7490   58.3250 C   0  0  0  0  0  0  0  0  0  0  0  0
  128.9590  125.5500   58.2750 C   0  0  0  0  0  0  0  0  0  0  0  0
  129.7130  126.0740   57.2210 C   0  0  0  0  0  0  0  0  0  0  0  0
  131.0880  125.8680   57.1650 C   0  0  0  0  0  0  0  0  0  0  0  0
  131.7350  125.1320   58.1570 C   0  0  0  0  0  0  0  0  0  0  0  0
  133.1010  124.9790   58.0200 O   0  0  0  0  0  0  0  0  0  0  0  0
  133.8340  124.3270   59.0510 C   0  0  0  0  0  0  0  0  0  0  0  0
  130.9810  124.5990   59.2140 C   0  0  0  0  0  0  0  0  0  0  0  0
  129.6050  124.8060   59.2670 C   0  0  0  0  0  0  0  0  0  0  0  0
  126.5390  124.7160   58.1060 C   0  0  0  0  0  0  0  0  0  0  0  0
  126.9720  123.3630   57.7400 C   0  0  0  0  0  0  0  0  0  0  0  0
  127.3150  122.2960   57.4510 N   0  0  0  0  0  0  0  0  0  0  0  0
  125.1720  125.0230   58.2640 C   0  0  0  0  0  0  0  0  0  0  0  0
  123.8940  123.7870   58.1870 S   0  0  0  0  0  0  0  0  0  0  0  0
  123.0330  123.9060   59.7880 C   0  0  0  0  0  0  0  0  0  0  0  0
  123.9680  123.6270   60.9700 C   0  0  0  0  0  0  0  0  0  0  0  0
  123.7130  122.7010   61.7410 O   0  0  0  0  0  0  0  0  0  0  0  0
  125.0570  124.4230   61.0430 N   0  0  0  0  0  0  0  0  0  0  0  0
  126.1280  124.2850   61.9120 C   0  0  0  0  0  0  0  0  0  0  0  0
  126.4750  123.2200   62.6020 N   0  0  0  0  0  0  0  0  0  0  0  0
  127.5750  123.4330   63.2980 C   0  0  0  0  0  0  0  0  0  0  0  0
  128.1460  124.6970   63.1760 C   0  0  0  0  0  0  0  0  0  0  0  0
  127.1790  125.6520   62.0920 S   0  0  0  0  0  0  0  0  0  0  0  0
  124.7350  126.2620   58.5920 N   0  0  0  0  0  0  0  0  0  0  0  0
  124.5030  129.4440   58.1520 C   0  0  0  0  0  0  0  0  0  0  0  0
  123.9880  130.6950   58.4800 C   0  0  0  0  0  0  0  0  0  0  0  0
  1  2  1  0
  2  3  1  0
  3  4  2  0
  4  5  1  0
  5  6  2  0
  6  7  1  0
  7  8  2  0
  8  9  1  0
  9 10  1  0
 10 11  2  0
 11 12  1  0
 12 13  2  0
 13 14  1  0
 14 15  1  0
 13 16  1  0
 16 17  2  0
  9 18  2  0
 18 19  1  0
 19 20  3  0
 18 21  1  0
 21 22  1  0
 22 23  1  0
 23 24  1  0
 24 25  2  0
 24 26  1  0
 26 27  1  0
 27 28  2  0
 28 29  1  0
 29 30  2  0
 30 31  1  0
 21 32  2  0
  6 33  1  0
 33 34  2  0
 34  3  1  0
 32  7  1  0
 17 10  1  0
 31 27  1  0
M  END
>  <Binding energies>  (3) 
[-7.72]

>  <Ligand effiencies>  (3) 
[-0.22057142857142856]

>  <Interactions>  (3) 
["V-B:ALA:541:CB:9863, V-B:TYR:539:CE2:9847, V-A:ILE:369:CG2:3236, V-B:ASP:366:CB:8182, V-B:PRO:540:CB:9856, H-B:ALA:541:N:9862, V-B:MET:535:CE:9806, V-B:PRO:540:CA:9854, V-B:LEU:363:CA:8155, V-B:LEU:363:CD1:8159, V-A:ILE:369:CD1:3238, V-A:ASP:366:CG:3212, V-B:ASP:366:CG:8183, V-B:ASP:366:CA:8180, V-B:ILE:369:CG1:8208, V-B:ILE:369:CG2:8207, V-B:GLU:543:CD:9879, V-A:ASP:366:CB:3211, V-A:ASP:366:C:3207, H-B:TYR:539:N:9841, V-B:TYR:539:CZ:9848, V-A:ASP:366:CA:3209, V-A:ILE:369:CB:3235, V-B:GLU:543:CG:9878, H-B:TYR:539:OH:9849, H-B:TYR:531:OH:9766, H-B:ASP:366:OD1:8184, V-B:ASN:362:CB:8146, V-B:LEU:363:CB:8157, V-A:ILE:369:CG1:3237, V-B:ASN:362:C:8142"]

$$$$
1d_Ghoteimi_2023
     RDKit          3D

 30 32  0  0  0  0  0  0  0  0999 V2000
  124.7150  129.2460   64.3800 C   0  0  0  0  0  0  0  0  0  0  0  0
  124.0680  130.0010   65.3940 O   0  0  0  0  0  0  0  0  0  0  0  0
  124.0350  129.5520   66.6660 C   0  0  0  0  0  0  0  0  0  0  0  0
  123.1830  129.8250   67.5130 O   0  0  0  0  0  0  0  0  0  0  0  0
  125.2090  128.6310   66.9870 C   0  0  0  0  0  0  0  0  0  0  0  0
  126.7290  129.6230   66.8760 S   0  0  0  0  0  0  0  0  0  0  0  0
  128.0740  128.5720   67.3780 C   0  0  0  0  0  0  0  0  0  0  0  0
  128.1080  128.3270   68.7090 N   0  0  0  0  0  0  0  0  0  0  0  0
  129.0860  127.5420   69.2290 C   0  0  0  0  0  0  0  0  0  0  0  0
  129.0480  127.3150   70.7120 C   0  0  0  0  0  0  0  0  0  0  0  0
  129.7110  128.1790   71.5980 C   0  0  0  0  0  0  0  0  0  0  0  0
  129.6800  127.9630   72.9730 C   0  0  0  0  0  0  0  0  0  0  0  0
  128.9890  126.8780   73.5050 C   0  0  0  0  0  0  0  0  0  0  0  0
  129.0160  126.7400   74.8800 O   0  0  0  0  0  0  0  0  0  0  0  0
  130.2270  127.0040   75.5800 C   0  0  0  0  0  0  0  0  0  0  0  0
  128.3230  126.0050   72.6340 C   0  0  0  0  0  0  0  0  0  0  0  0
  128.3550  126.2250   71.2590 C   0  0  0  0  0  0  0  0  0  0  0  0
  130.0590  126.9720   68.3990 C   0  0  0  0  0  0  0  0  0  0  0  0
  130.0570  127.2210   67.0210 C   0  0  0  0  0  0  0  0  0  0  0  0
  131.1290  126.5860   66.1950 C   0  0  0  0  0  0  0  0  0  0  0  0
  132.4400  126.5200   66.6740 C   0  0  0  0  0  0  0  0  0  0  0  0
  133.4440  125.9300   65.9100 C   0  0  0  0  0  0  0  0  0  0  0  0
  133.1570  125.3920   64.6570 C   0  0  0  0  0  0  0  0  0  0  0  0
  134.2160  124.8330   63.9670 O   0  0  0  0  0  0  0  0  0  0  0  0
  134.0270  124.4240   62.6170 C   0  0  0  0  0  0  0  0  0  0  0  0
  131.8390  125.4440   64.1760 C   0  0  0  0  0  0  0  0  0  0  0  0
  130.8380  126.0340   64.9430 C   0  0  0  0  0  0  0  0  0  0  0  0
  129.0480  128.0630   66.4890 C   0  0  0  0  0  0  0  0  0  0  0  0
  129.0590  128.4410   65.0730 C   0  0  0  0  0  0  0  0  0  0  0  0
  129.0690  128.7380   63.9550 N   0  0  0  0  0  0  0  0  0  0  0  0
  1  2  1  0
  2  3  1  0
  3  4  2  0
  3  5  1  0
  5  6  1  0
  6  7  1  0
  7  8  2  0
  8  9  1  0
  9 10  1  0
 10 11  2  0
 11 12  1  0
 12 13  2  0
 13 14  1  0
 14 15  1  0
 13 16  1  0
 16 17  2  0
  9 18  2  0
 18 19  1  0
 19 20  1  0
 20 21  2  0
 21 22  1  0
 22 23  2  0
 23 24  1  0
 24 25  1  0
 23 26  1  0
 26 27  2  0
 19 28  2  0
 28 29  1  0
 29 30  3  0
 28  7  1  0
 17 10  1  0
 27 20  1  0
M  END
>  <Binding energies>  (4) 
[-8.03]

>  <Ligand effiencies>  (4) 
[-0.26766666666666666]

>  <Interactions>  (4) 
["V-A:ARG:545:CZ:4925, V-A:ILE:369:CD1:3238, V-A:ASP:366:CG:3212, H-B:LYS:547:NZ:9922, V-A:HIS:456:CE1:4069, V-B:GLU:543:C:9873, V-B:HIS:456:CE1:9040, V-B:GLU:543:CD:9879, V-B:ARG:545:CG:9893, V-A:GLU:543:CD:4907, V-A:GLU:543:CG:4906, H-B:ILE:455:N:9025, H-B:GLY:454:N:9020, V-B:ARG:545:CD:9894, H-B:TYR:484:OH:9318, V-B:ARG:545:CZ:9897, H-A:GLY:454:N:4049, V-A:ARG:545:CD:4922, V-A:ARG:545:CG:4921"]

$$$$
1j_Grossjean_2025
     RDKit          3D

 20 21  0  0  0  0  0  0  0  0999 V2000
  124.0720  131.9320   59.7910 C   0  0  0  0  0  0  0  0  0  0  0  0
  124.8220  133.2070   60.1310 C   0  0  0  0  0  0  0  0  0  0  0  0
  125.9540  133.1930   60.9420 C   0  0  0  0  0  0  0  0  0  0  0  0
  126.6120  134.3970   61.2110 C   0  0  0  0  0  0  0  0  0  0  0  0
  127.8620  134.3540   62.0890 C   0  0  0  0  0  0  0  0  0  0  0  0
  126.1090  135.5970   60.6610 C   0  0  0  0  0  0  0  0  0  0  0  0
  126.8130  136.8620   60.8860 C   0  0  0  0  0  0  0  0  0  0  0  0
  127.3720  137.8600   61.0650 N   0  0  0  0  0  0  0  0  0  0  0  0
  124.9380  135.5210   59.8690 C   0  0  0  0  0  0  0  0  0  0  0  0
  124.1670  136.9290   59.1020 S   0  0  0  0  0  0  0  0  0  0  0  0
  123.6860  136.4460   57.4180 C   0  0  0  0  0  0  0  0  0  0  0  0
  123.1730  137.6360   56.6030 C   0  0  0  0  0  0  0  0  0  0  0  0
  123.9060  138.1490   55.7570 O   0  0  0  0  0  0  0  0  0  0  0  0
  121.9160  138.0390   56.8880 N   0  0  0  0  0  0  0  0  0  0  0  0
  121.2290  139.0910   56.2990 C   0  0  0  0  0  0  0  0  0  0  0  0
  120.3760  139.9170   56.8660 N   0  0  0  0  0  0  0  0  0  0  0  0
  119.9130  140.8010   56.0050 C   0  0  0  0  0  0  0  0  0  0  0  0
  120.3940  140.7030   54.7030 C   0  0  0  0  0  0  0  0  0  0  0  0
  121.5150  139.3770   54.6130 S   0  0  0  0  0  0  0  0  0  0  0  0
  124.3200  134.3450   59.5970 N   0  0  0  0  0  0  0  0  0  0  0  0
  1  2  1  0
  2  3  2  0
  3  4  1  0
  4  5  1  0
  4  6  2  0
  6  7  1  0
  7  8  3  0
  6  9  1  0
  9 10  1  0
 10 11  1  0
 11 12  1  0
 12 13  2  0
 12 14  1  0
 14 15  1  0
 15 16  2  0
 16 17  1  0
 17 18  2  0
 18 19  1  0
  9 20  2  0
 20  2  1  0
 19 15  1  0
M  END
>  <Binding energies>  (5) 
[-8.03]

>  <Ligand effiencies>  (5) 
[-0.3823809523809524]

>  <Interactions>  (5) 
["V-A:TYR:539:CZ:4876, V-B:ILE:369:CB:8206, V-B:ILE:369:CG2:8207, V-A:TYR:539:CG:4871, V-B:SER:385:CB:8379, V-A:TYR:539:CD1:4872, V-A:TYR:539:CE2:4875, V-A:TYR:539:CE1:4874, V-B:HIS:383:CD2:8362, V-A:TYR:539:CB:4870, V-A:ALA:541:CB:4891, H-B:SER:385:OG:8380, H-B:HIS:383:NE2:8364, V-B:LEU:373:CD2:8251, V-B:MET:379:CA:8309, V-B:ASN:372:C:8233, V-B:HIS:383:CB:8359, V-B:LEU:373:CG:8249, V-B:MET:379:CB:8311, V-B:ASN:372:CB:8237, V-B:VAL:384:CG2:8373, H-B:VAL:384:O:8368, V-B:VAL:384:C:8367, H-B:VAL:384:N:8370, H-B:ILE:369:O:8203"]

$$$$
1o_Grossjean_2025
     RDKit          3D

 26 27  0  0  0  0  0  0  0  0999 V2000
  124.5850  123.9990   58.0590 C   0  0  0  0  0  0  0  0  0  0  0  0
  125.5550  124.0380   57.0220 O   0  0  0  0  0  0  0  0  0  0  0  0
  126.4900  123.0600   56.9020 C   0  0  0  0  0  0  0  0  0  0  0  0
  126.3600  122.0830   56.1580 O   0  0  0  0  0  0  0  0  0  0  0  0
  127.7000  123.2860   57.7610 C   0  0  0  0  0  0  0  0  0  0  0  0
  127.9510  122.5180   58.9070 C   0  0  0  0  0  0  0  0  0  0  0  0
  129.0850  122.7510   59.6810 C   0  0  0  0  0  0  0  0  0  0  0  0
  129.9860  123.7570   59.3310 C   0  0  0  0  0  0  0  0  0  0  0  0
  131.1020  123.9010   60.1780 N   0  0  0  0  0  0  0  0  0  0  0  0
  132.3980  124.1290   59.8710 C   0  0  0  0  0  0  0  0  0  0  0  0
  132.8380  124.3020   58.7340 O   0  0  0  0  0  0  0  0  0  0  0  0
  133.3590  124.1990   61.0670 C   0  0  0  0  0  0  0  0  0  0  0  0
  133.8730  122.8180   61.5190 C   0  0  0  0  0  0  0  0  0  0  0  0
  133.1150  122.2160   63.0570 S   0  0  0  0  0  0  0  0  0  0  0  0
  131.7320  123.2660   63.4530 C   0  0  0  0  0  0  0  0  0  0  0  0
  130.5430  122.7830   63.0130 N   0  0  0  0  0  0  0  0  0  0  0  0
  129.4180  123.4930   63.2640 C   0  0  0  0  0  0  0  0  0  0  0  0
  128.1250  122.8820   62.7540 C   0  0  0  0  0  0  0  0  0  0  0  0
  129.4320  124.7070   63.9450 C   0  0  0  0  0  0  0  0  0  0  0  0
  130.6550  125.2280   64.3810 C   0  0  0  0  0  0  0  0  0  0  0  0
  130.6460  126.5690   65.1140 C   0  0  0  0  0  0  0  0  0  0  0  0
  131.8440  124.5060   64.1270 C   0  0  0  0  0  0  0  0  0  0  0  0
  133.1390  125.0640   64.5240 C   0  0  0  0  0  0  0  0  0  0  0  0
  134.1610  125.5060   64.8390 N   0  0  0  0  0  0  0  0  0  0  0  0
  129.7450  124.5260   58.1820 C   0  0  0  0  0  0  0  0  0  0  0  0
  128.6110  124.2900   57.4090 C   0  0  0  0  0  0  0  0  0  0  0  0
  1  2  1  0
  2  3  1  0
  3  4  2  0
  3  5  1  0
  5  6  2  0
  6  7  1  0
  7  8  2  0
  8  9  1  0
  9 10  1  0
 10 11  2  0
 10 12  1  0
 12 13  1  0
 13 14  1  0
 14 15  1  0
 15 16  2  0
 16 17  1  0
 17 18  1  0
 17 19  2  0
 19 20  1  0
 20 21  1  0
 20 22  2  0
 22 23  1  0
 23 24  3  0
  8 25  1  0
 25 26  2  0
 26  5  1  0
 22 15  1  0
M  END
>  <Binding energies>  (6) 
[-7.46]

>  <Ligand effiencies>  (6) 
[-0.2762962962962963]

>  <Interactions>  (6) 
["V-B:ALA:541:CB:9863, V-B:TYR:539:CE2:9847, V-A:ILE:369:CG2:3236, V-B:PRO:540:CB:9856, V-B:MET:535:CE:9806, V-B:PRO:540:CA:9854, V-B:TYR:539:CD2:9845, H-A:ARG:545:NH2:4927, V-A:ARG:545:CZ:4925, V-B:LEU:363:CD1:8159, V-B:TYR:539:C:9838, H-A:ARG:545:NE:4923, V-A:ILE:369:CD1:3238, V-A:ASP:366:CG:3212, V-B:PRO:540:N:9855, V-B:GLU:543:CD:9879, V-A:GLU:543:CD:4907, H-B:TYR:539:N:9841, V-B:TYR:539:CZ:9848, H-A:GLY:454:N:4049, V-B:ALA:541:CA:9861, H-B:TYR:539:OH:9849, H-B:TYR:531:OH:9766, H-A:ARG:545:NH1:4926"]

$$$$
1p_Grossjean_2025
     RDKit          3D

 21 22  0  0  0  0  0  0  0  0999 V2000
  129.6440  116.7990   60.5630 C   0  0  0  0  0  0  0  0  0  0  0  0
  130.5760  117.9890   60.6880 C   0  0  0  0  0  0  0  0  0  0  0  0
  131.8220  118.0070   60.0610 C   0  0  0  0  0  0  0  0  0  0  0  0
  132.6460  119.1260   60.2210 C   0  0  0  0  0  0  0  0  0  0  0  0
  134.0130  119.1170   59.5380 C   0  0  0  0  0  0  0  0  0  0  0  0
  132.1950  120.2110   61.0050 C   0  0  0  0  0  0  0  0  0  0  0  0
  133.0580  121.3720   61.2260 C   0  0  0  0  0  0  0  0  0  0  0  0
  133.7420  122.2900   61.4000 N   0  0  0  0  0  0  0  0  0  0  0  0
  130.9070  120.1160   61.5840 C   0  0  0  0  0  0  0  0  0  0  0  0
  130.1830  121.3930   62.5880 S   0  0  0  0  0  0  0  0  0  0  0  0
  129.2370  122.4680   61.4710 C   0  0  0  0  0  0  0  0  0  0  0  0
  130.0650  123.0260   60.2970 C   0  0  0  0  0  0  0  0  0  0  0  0
  129.2340  123.2950   59.0340 C   0  0  0  0  0  0  0  0  0  0  0  0
  129.5160  124.2560   58.3140 O   0  0  0  0  0  0  0  0  0  0  0  0
  128.2330  122.4190   58.7950 N   0  0  0  0  0  0  0  0  0  0  0  0
  127.3410  122.4320   57.7300 C   0  0  0  0  0  0  0  0  0  0  0  0
  126.0990  123.0660   57.7850 C   0  0  0  0  0  0  0  0  0  0  0  0
  125.5330  122.8510   56.5490 C   0  0  0  0  0  0  0  0  0  0  0  0
  126.3860  122.1240   55.7910 O   0  0  0  0  0  0  0  0  0  0  0  0
  127.5280  121.8630   56.5510 N   0  0  0  0  0  0  0  0  0  0  0  0
  130.1230  119.0180   61.4410 N   0  0  0  0  0  0  0  0  0  0  0  0
  1  2  1  0
  2  3  2  0
  3  4  1  0
  4  5  1  0
  4  6  2  0
  6  7  1  0
  7  8  3  0
  6  9  1  0
  9 10  1  0
 10 11  1  0
 11 12  1  0
 12 13  1  0
 13 14  2  0
 13 15  1  0
 15 16  1  0
 16 17  1  0
 17 18  2  0
 18 19  1  0
 19 20  1  0
  9 21  2  0
 21  2  1  0
 20 16  2  0
M  END
>  <Binding energies>  (7) 
[-8.03]

>  <Ligand effiencies>  (7) 
[-0.365]

>  <Interactions>  (7) 
["V-B:ALA:541:CB:9863, V-B:TYR:539:CE2:9847, V-A:ILE:369:CG2:3236, V-B:PRO:540:CB:9856, V-B:PRO:540:CA:9854, V-A:SER:385:CA:3406, V-B:TYR:539:CD2:9845, V-B:TYR:531:CE2:9764, V-B:LEU:363:CD1:8159, V-A:LEU:475:CD2:4258, V-B:TYR:539:C:9838, V-B:PRO:540:N:9855, V-B:PRO:540:CD:9858, V-B:TYR:539:CG:9843, V-B:TYR:539:CB:9842, V-A:HIS:383:CE1:3393, H-B:TYR:539:O:9839, H-B:TYR:539:N:9841, V-B:TYR:539:CZ:9848, H-B:TYR:539:OH:9849, V-B:TYR:539:CA:9840, V-A:VAL:384:C:3396, V-A:PRO:482:CB:4325, V-A:LEU:373:CD2:3280, V-A:PRO:482:CG:4326, V-B:VAL:344:CG1:7971"]

$$$$
2a_Ghoteimi_2023
     RDKit          3D

 48 53  0  0  0  0  0  0  0  0999 V2000
  133.5830  131.0330   58.5350 C   0  0  0  0  0  0  0  0  0  0  0  0
  132.1930  131.6670   58.6400 C   0  0  0  0  0  0  0  0  0  0  0  0
  131.6950  131.9320   57.3350 O   0  0  0  0  0  0  0  0  0  0  0  0
  130.7090  132.8430   57.1320 C   0  0  0  0  0  0  0  0  0  0  0  0
  130.8630  133.8780   56.4760 O   0  0  0  0  0  0  0  0  0  0  0  0
  129.4070  132.4610   57.7780 C   0  0  0  0  0  0  0  0  0  0  0  0
  129.0160  132.9790   59.0210 C   0  0  0  0  0  0  0  0  0  0  0  0
  127.8030  132.6050   59.5910 C   0  0  0  0  0  0  0  0  0  0  0  0
  126.9540  131.7130   58.9330 C   0  0  0  0  0  0  0  0  0  0  0  0
  125.7560  131.4020   59.6020 N   0  0  0  0  0  0  0  0  0  0  0  0
  124.4750  131.6100   59.2260 C   0  0  0  0  0  0  0  0  0  0  0  0
  124.1240  132.1830   58.1940 O   0  0  0  0  0  0  0  0  0  0  0  0
  123.4150  131.1100   60.2160 C   0  0  0  0  0  0  0  0  0  0  0  0
  123.7560  131.5220   61.9580 S   0  0  0  0  0  0  0  0  0  0  0  0
  124.7710  130.1990   62.5740 C   0  0  0  0  0  0  0  0  0  0  0  0
  125.0100  129.2240   61.6670 N   0  0  0  0  0  0  0  0  0  0  0  0
  125.7660  128.1540   62.0210 C   0  0  0  0  0  0  0  0  0  0  0  0
  125.9790  127.1120   60.9710 C   0  0  0  0  0  0  0  0  0  0  0  0
  125.8760  127.4220   59.6090 C   0  0  0  0  0  0  0  0  0  0  0  0
  126.0640  126.4440   58.6360 C   0  0  0  0  0  0  0  0  0  0  0  0
  126.3700  125.1220   58.9860 C   0  0  0  0  0  0  0  0  0  0  0  0
  126.5270  124.1440   57.9990 N   0  0  0  0  0  0  0  0  0  0  0  0
  125.3680  123.6000   57.2620 C   0  0  0  0  0  0  0  0  0  0  0  0
  125.7500  122.8200   55.9870 C   0  0  0  0  0  0  0  0  0  0  0  0
  126.6760  121.7940   56.3040 O   0  0  0  0  0  0  0  0  0  0  0  0
  127.8680  122.3260   56.8590 C   0  0  0  0  0  0  0  0  0  0  0  0
  127.5530  123.0920   58.1610 C   0  0  0  0  0  0  0  0  0  0  0  0
  126.4600  124.8130   60.3540 C   0  0  0  0  0  0  0  0  0  0  0  0
  126.2740  125.7910   61.3260 C   0  0  0  0  0  0  0  0  0  0  0  0
  126.3130  128.0490   63.3020 C   0  0  0  0  0  0  0  0  0  0  0  0
  126.0800  129.0470   64.2580 C   0  0  0  0  0  0  0  0  0  0  0  0
  126.6900  128.8680   65.6100 C   0  0  0  0  0  0  0  0  0  0  0  0
  125.8860  128.5550   66.7090 C   0  0  0  0  0  0  0  0  0  0  0  0
  126.4420  128.4050   67.9760 C   0  0  0  0  0  0  0  0  0  0  0  0
  127.8210  128.5610   68.1820 C   0  0  0  0  0  0  0  0  0  0  0  0
  128.3970  128.4340   69.4490 N   0  0  0  0  0  0  0  0  0  0  0  0
  129.7020  129.0720   69.7180 C   0  0  0  0  0  0  0  0  0  0  0  0
  130.0250  129.1880   71.2230 C   0  0  0  0  0  0  0  0  0  0  0  0
  129.9530  127.9090   71.8350 O   0  0  0  0  0  0  0  0  0  0  0  0
  128.6600  127.3380   71.7080 C   0  0  0  0  0  0  0  0  0  0  0  0
  128.2980  127.1770   70.2170 C   0  0  0  0  0  0  0  0  0  0  0  0
  128.6200  128.8870   67.0760 C   0  0  0  0  0  0  0  0  0  0  0  0
  128.0630  129.0380   65.8090 C   0  0  0  0  0  0  0  0  0  0  0  0
  125.2900  130.1620   63.8870 C   0  0  0  0  0  0  0  0  0  0  0  0
  125.0580  131.2650   64.8260 C   0  0  0  0  0  0  0  0  0  0  0  0
  124.8750  132.1330   65.5690 N   0  0  0  0  0  0  0  0  0  0  0  0
  127.3430  131.1850   57.6930 C   0  0  0  0  0  0  0  0  0  0  0  0
  128.5570  131.5600   57.1230 C   0  0  0  0  0  0  0  0  0  0  0  0
  1  2  1  0
  2  3  1  0
  3  4  1  0
  4  5  2  0
  4  6  1  0
  6  7  2  0
  7  8  1  0
  8  9  2  0
  9 10  1  0
 10 11  1  0
 11 12  2  0
 11 13  1  0
 13 14  1  0
 14 15  1  0
 15 16  2  0
 16 17  1  0
 17 18  1  0
 18 19  2  0
 19 20  1  0
 20 21  2  0
 21 22  1  0
 22 23  1  0
 23 24  1  0
 24 25  1  0
 25 26  1  0
 26 27  1  0
 21 28  1  0
 28 29  2  0
 17 30  2  0
 30 31  1  0
 31 32  1  0
 32 33  2  0
 33 34  1  0
 34 35  2  0
 35 36  1  0
 36 37  1  0
 37 38  1  0
 38 39  1  0
 39 40  1  0
 40 41  1  0
 35 42  1  0
 42 43  2  0
 31 44  2  0
 44 45  1  0
 45 46  3  0
  9 47  1  0
 47 48  2  0
 48  6  1  0
 44 15  1  0
 29 18  1  0
 43 32  1  0
 27 22  1  0
 41 36  1  0
M  END
>  <Binding energies>  (8) 
[-11.4]

>  <Ligand effiencies>  (8) 
[-0.2326530612244898]

>  <Interactions>  (8) 
["V-B:TYR:539:CE2:9847, V-B:PRO:540:CB:9856, V-B:MET:535:CE:9806, V-B:PRO:540:CA:9854, V-B:TYR:531:CZ:9765, V-B:TYR:539:CD2:9845, V-B:TYR:531:CE2:9764, V-B:LEU:363:CD1:8159, V-B:TYR:539:C:9838, V-A:HIS:456:CE1:4069, V-B:HIS:456:CE1:9040, V-B:ASP:366:CG:8183, V-B:ASP:366:CA:8180, V-B:ILE:369:CG1:8208, V-B:ILE:369:CB:8206, V-B:ILE:369:CG2:8207, V-B:PRO:540:N:9855, V-B:GLY:454:CA:9019, V-A:TYR:539:CD1:4872, V-A:TYR:539:C:4866, V-A:TYR:539:CE1:4874, V-B:GLU:543:CD:9879, V-A:PRO:540:CB:4884, V-A:GLU:543:CD:4907, V-A:GLU:543:CB:4905, V-A:ASP:366:CB:3211, V-A:GLU:543:CG:4906, V-A:LEU:363:CA:3184, H-B:GLY:454:N:9020, V-A:GLU:543:C:4901, H-B:TYR:484:OH:9318, V-B:TYR:539:CG:9843, H-B:TYR:539:N:9841, V-B:TYR:539:CZ:9848, H-A:TYR:531:OH:4794, H-A:TYR:539:N:4869, V-A:PRO:540:N:4883, V-B:TYR:539:CE1:9846, V-B:TYR:539:CD1:9844, H-B:ARG:545:NH2:9899, V-B:ILE:538:CD1:9836, V-B:TYR:539:CA:9840, V-B:MET:535:CG:9804"]

$$$$
2aa_Ghoteimi_2023
     RDKit          3D

 48 53  0  0  0  0  0  0  0  0999 V2000
  129.7290  138.6040   61.3210 C   0  0  0  0  0  0  0  0  0  0  0  0
  129.0460  137.4840   62.1120 C   0  0  0  0  0  0  0  0  0  0  0  0
  127.6360  137.6470   62.0370 O   0  0  0  0  0  0  0  0  0  0  0  0
  126.9030  136.9990   61.0950 C   0  0  0  0  0  0  0  0  0  0  0  0
  126.6770  137.4610   59.9720 O   0  0  0  0  0  0  0  0  0  0  0  0
  126.4070  135.6560   61.5500 C   0  0  0  0  0  0  0  0  0  0  0  0
  126.8750  135.0540   62.7270 C   0  0  0  0  0  0  0  0  0  0  0  0
  126.3930  133.8110   63.1250 C   0  0  0  0  0  0  0  0  0  0  0  0
  125.4410  133.1410   62.3530 C   0  0  0  0  0  0  0  0  0  0  0  0
  125.0210  131.8920   62.8500 N   0  0  0  0  0  0  0  0  0  0  0  0
  123.7740  131.4310   63.0890 C   0  0  0  0  0  0  0  0  0  0  0  0
  122.7340  132.0570   62.8720 O   0  0  0  0  0  0  0  0  0  0  0  0
  123.7170  130.0050   63.6520 C   0  0  0  0  0  0  0  0  0  0  0  0
  124.1410  130.0090   65.0190 O   0  0  0  0  0  0  0  0  0  0  0  0
  125.4760  129.8000   65.3360 C   0  0  0  0  0  0  0  0  0  0  0  0
  126.4110  130.0790   64.3840 N   0  0  0  0  0  0  0  0  0  0  0  0
  127.7250  129.8890   64.6620 C   0  0  0  0  0  0  0  0  0  0  0  0
  128.6930  130.2110   63.5680 C   0  0  0  0  0  0  0  0  0  0  0  0
  129.3360  129.1910   62.8590 C   0  0  0  0  0  0  0  0  0  0  0  0
  130.2340  129.4860   61.8360 C   0  0  0  0  0  0  0  0  0  0  0  0
  130.5110  130.8130   61.4740 C   0  0  0  0  0  0  0  0  0  0  0  0
  131.4190  131.1270   60.4560 N   0  0  0  0  0  0  0  0  0  0  0  0
  131.1490  132.2120   59.4910 C   0  0  0  0  0  0  0  0  0  0  0  0
  132.0650  132.1830   58.2490 C   0  0  0  0  0  0  0  0  0  0  0  0
  133.4260  132.1870   58.6490 O   0  0  0  0  0  0  0  0  0  0  0  0
  133.7370  131.0530   59.4440 C   0  0  0  0  0  0  0  0  0  0  0  0
  132.8710  131.0490   60.7210 C   0  0  0  0  0  0  0  0  0  0  0  0
  129.8800  131.8320   62.2010 C   0  0  0  0  0  0  0  0  0  0  0  0
  128.9860  131.5370   63.2260 C   0  0  0  0  0  0  0  0  0  0  0  0
  128.1370  129.3960   65.9040 C   0  0  0  0  0  0  0  0  0  0  0  0
  127.1960  129.0910   66.8950 C   0  0  0  0  0  0  0  0  0  0  0  0
  127.6960  128.5430   68.1930 C   0  0  0  0  0  0  0  0  0  0  0  0
  128.8000  129.1210   68.8240 C   0  0  0  0  0  0  0  0  0  0  0  0
  129.2820  128.6030   70.0230 C   0  0  0  0  0  0  0  0  0  0  0  0
  128.6830  127.4830   70.6190 C   0  0  0  0  0  0  0  0  0  0  0  0
  129.1480  126.9480   71.8230 N   0  0  0  0  0  0  0  0  0  0  0  0
  128.8170  125.5690   72.2310 C   0  0  0  0  0  0  0  0  0  0  0  0
  129.6930  125.0440   73.3880 C   0  0  0  0  0  0  0  0  0  0  0  0
  129.6170  125.9300   74.4950 O   0  0  0  0  0  0  0  0  0  0  0  0
  130.0720  127.2310   74.1540 C   0  0  0  0  0  0  0  0  0  0  0  0
  129.2070  127.8140   73.0190 C   0  0  0  0  0  0  0  0  0  0  0  0
  127.5710  126.9140   69.9810 C   0  0  0  0  0  0  0  0  0  0  0  0
  127.0880  127.4320   68.7830 C   0  0  0  0  0  0  0  0  0  0  0  0
  125.8290  129.3130   66.6070 C   0  0  0  0  0  0  0  0  0  0  0  0
  124.7800  129.0700   67.5990 C   0  0  0  0  0  0  0  0  0  0  0  0
  123.9520  128.8780   68.3840 N   0  0  0  0  0  0  0  0  0  0  0  0
  124.9630  133.7400   61.1790 C   0  0  0  0  0  0  0  0  0  0  0  0
  125.4440  134.9850   60.7850 C   0  0  0  0  0  0  0  0  0  0  0  0
  1  2  1  0
  2  3  1  0
  3  4  1  0
  4  5  2  0
  4  6  1  0
  6  7  2  0
  7  8  1  0
  8  9  2  0
  9 10  1  0
 10 11  1  0
 11 12  2  0
 11 13  1  0
 13 14  1  0
 14 15  1  0
 15 16  2  0
 16 17  1  0
 17 18  1  0
 18 19  2  0
 19 20  1  0
 20 21  2  0
 21 22  1  0
 22 23  1  0
 23 24  1  0
 24 25  1  0
 25 26  1  0
 26 27  1  0
 21 28  1  0
 28 29  2  0
 17 30  2  0
 30 31  1  0
 31 32  1  0
 32 33  2  0
 33 34  1  0
 34 35  2  0
 35 36  1  0
 36 37  1  0
 37 38  1  0
 38 39  1  0
 39 40  1  0
 40 41  1  0
 35 42  1  0
 42 43  2  0
 31 44  2  0
 44 45  1  0
 45 46  3  0
  9 47  1  0
 47 48  2  0
 48  6  1  0
 44 15  1  0
 29 18  1  0
 43 32  1  0
 27 22  1  0
 41 36  1  0
M  END
>  <Binding energies>  (9) 
[-11.89]

>  <Ligand effiencies>  (9) 
[-0.24265306122448982]

>  <Interactions>  (9) 
["V-A:ASP:366:CG:3212, H-B:LYS:547:NZ:9922, V-A:HIS:456:CE1:4069, V-B:GLU:543:CB:9877, V-B:GLU:543:C:9873, V-B:HIS:456:CE1:9040, V-A:HIS:456:CD2:4067, V-B:SER:385:CB:8379, V-B:GLY:454:CA:9019, V-B:GLY:453:CA:9014, V-A:TYR:539:CD1:4872, V-A:TYR:539:C:4866, V-B:LEU:475:CD1:9228, V-B:PRO:482:CG:9297, V-B:PRO:482:CB:9296, V-B:GLU:543:CD:9879, V-A:PRO:540:CA:4882, V-A:PRO:540:CB:4884, V-B:ARG:545:CG:9893, V-A:GLU:543:CD:4907, V-A:ASN:362:C:3171, V-A:GLU:543:CB:4905, V-A:ASP:366:CB:3211, V-B:PRO:482:CD:9298, V-A:TYR:539:CB:4870, V-A:ALA:541:CB:4891, V-A:GLU:543:CG:4906, V-A:LEU:363:CA:3184, H-B:HIS:456:ND1:9037, H-B:GLY:454:N:9020, V-B:ARG:545:CD:9894, H-B:TYR:484:OH:9318, V-B:ARG:545:CZ:9897, V-A:PRO:540:N:4883, V-A:PRO:540:C:4880, V-A:ALA:541:CA:4889, V-A:TYR:539:CA:4868, H-B:SER:385:OG:8380, H-B:HIS:383:NE2:8364, V-A:VAL:344:CG1:3000, V-A:VAL:344:CG2:3001, V-A:VAL:344:CB:2999"]

$$$$
2b_Ghoteimi_2023
     RDKit          3D

 42 47  0  0  0  0  0  0  0  0999 V2000
  124.9270  132.2560   65.5030 N   0  0  0  0  0  0  0  0  0  0  0  0
  125.1060  131.4060   64.7390 C   0  0  0  0  0  0  0  0  0  0  0  0
  125.3360  130.3250   63.7760 C   0  0  0  0  0  0  0  0  0  0  0  0
  126.0450  129.1580   64.1570 C   0  0  0  0  0  0  0  0  0  0  0  0
  126.6000  128.9350   65.5250 C   0  0  0  0  0  0  0  0  0  0  0  0
  125.7430  128.7790   66.6160 C   0  0  0  0  0  0  0  0  0  0  0  0
  126.2550  128.5720   67.8940 C   0  0  0  0  0  0  0  0  0  0  0  0
  127.6400  128.5310   68.1180 C   0  0  0  0  0  0  0  0  0  0  0  0
  128.1770  128.3110   69.3880 N   0  0  0  0  0  0  0  0  0  0  0  0
  128.0310  126.9800   70.0090 C   0  0  0  0  0  0  0  0  0  0  0  0
  128.3200  126.9780   71.5250 C   0  0  0  0  0  0  0  0  0  0  0  0
  129.6070  127.5220   71.7790 O   0  0  0  0  0  0  0  0  0  0  0  0
  129.7120  128.8580   71.3130 C   0  0  0  0  0  0  0  0  0  0  0  0
  129.4680  128.9040   69.7900 C   0  0  0  0  0  0  0  0  0  0  0  0
  128.4920  128.6910   67.0170 C   0  0  0  0  0  0  0  0  0  0  0  0
  127.9810  128.8950   65.7390 C   0  0  0  0  0  0  0  0  0  0  0  0
  126.2350  128.1510   63.2040 C   0  0  0  0  0  0  0  0  0  0  0  0
  125.7060  128.2860   61.9170 C   0  0  0  0  0  0  0  0  0  0  0  0
  125.8540  127.2260   60.8720 C   0  0  0  0  0  0  0  0  0  0  0  0
  126.1640  125.9090   61.2290 C   0  0  0  0  0  0  0  0  0  0  0  0
  126.2870  124.9150   60.2630 C   0  0  0  0  0  0  0  0  0  0  0  0
  126.1190  125.2030   58.8990 C   0  0  0  0  0  0  0  0  0  0  0  0
  126.2100  124.2080   57.9190 N   0  0  0  0  0  0  0  0  0  0  0  0
  127.3520  123.2710   57.9250 C   0  0  0  0  0  0  0  0  0  0  0  0
  127.5300  122.5040   56.5970 C   0  0  0  0  0  0  0  0  0  0  0  0
  126.3250  121.8350   56.2580 O   0  0  0  0  0  0  0  0  0  0  0  0
  125.2540  122.7490   56.0870 C   0  0  0  0  0  0  0  0  0  0  0  0
  125.0090  123.5270   57.3980 C   0  0  0  0  0  0  0  0  0  0  0  0
  125.8020  126.5220   58.5460 C   0  0  0  0  0  0  0  0  0  0  0  0
  125.6750  127.5160   59.5130 C   0  0  0  0  0  0  0  0  0  0  0  0
  125.0260  129.4030   61.5540 N   0  0  0  0  0  0  0  0  0  0  0  0
  124.8580  130.4050   62.4480 C   0  0  0  0  0  0  0  0  0  0  0  0
  123.9490  131.7920   61.8020 S   0  0  0  0  0  0  0  0  0  0  0  0
  124.9180  132.4930   60.4320 C   0  0  0  0  0  0  0  0  0  0  0  0
  125.9790  133.4790   60.9230 C   0  0  0  0  0  0  0  0  0  0  0  0
  126.9950  133.0480   61.4720 O   0  0  0  0  0  0  0  0  0  0  0  0
  125.7030  134.7840   60.7110 N   0  0  0  0  0  0  0  0  0  0  0  0
  126.4910  135.8760   61.0440 C   0  0  0  0  0  0  0  0  0  0  0  0
  127.3240  135.9000   62.1620 C   0  0  0  0  0  0  0  0  0  0  0  0
  127.9210  137.1380   62.1370 C   0  0  0  0  0  0  0  0  0  0  0  0
  127.4720  137.8240   61.0590 O   0  0  0  0  0  0  0  0  0  0  0  0
  126.5670  137.0120   60.3720 N   0  0  0  0  0  0  0  0  0  0  0  0
  1  2  3  0
  2  3  1  0
  3  4  2  0
  4  5  1  0
  5  6  2  0
  6  7  1  0
  7  8  2  0
  8  9  1  0
  9 10  1  0
 10 11  1  0
 11 12  1  0
 12 13  1  0
 13 14  1  0
  8 15  1  0
 15 16  2  0
  4 17  1  0
 17 18  2  0
 18 19  1  0
 19 20  2  0
 20 21  1  0
 21 22  2  0
 22 23  1  0
 23 24  1  0
 24 25  1  0
 25 26  1  0
 26 27  1  0
 27 28  1  0
 22 29  1  0
 29 30  2  0
 18 31  1  0
 31 32  2  0
 32 33  1  0
 33 34  1  0
 34 35  1  0
 35 36  2  0
 35 37  1  0
 37 38  1  0
 38 39  1  0
 39 40  2  0
 40 41  1  0
 41 42  1  0
 32  3  1  0
 42 38  2  0
 16  5  1  0
 30 19  1  0
 14  9  1  0
 28 23  1  0
M  END
>  <Binding energies>  (10) 
[-11.15]

>  <Ligand effiencies>  (10) 
[-0.2593023255813954]

>  <Interactions>  (10) 
["V-B:ASP:366:CB:8182, V-B:PRO:540:CB:9856, V-B:MET:535:CE:9806, V-B:PRO:540:CA:9854, V-B:TYR:531:CZ:9765, V-B:TYR:539:CD2:9845, V-B:TYR:531:CE2:9764, V-B:LEU:363:CD1:8159, V-B:TYR:539:C:9838, V-A:HIS:456:CE1:4069, V-B:GLU:543:CB:9877, V-B:HIS:456:CE1:9040, V-B:ASP:366:CG:8183, V-B:ILE:369:CG2:8207, V-B:PRO:540:N:9855, V-B:SER:385:CB:8379, V-B:GLY:454:CA:9019, V-A:TYR:539:CD1:4872, V-A:TYR:539:CE1:4874, V-B:PRO:482:CG:9297, V-B:PRO:482:CB:9296, V-B:GLU:543:CD:9879, V-A:GLU:543:CD:4907, V-A:GLU:543:CB:4905, V-A:ALA:541:CB:4891, V-A:GLU:543:CG:4906, H-B:GLY:454:N:9020, H-B:TYR:484:OH:9318, V-B:TYR:539:CG:9843, H-B:TYR:539:N:9841, V-B:TYR:539:CZ:9848, V-B:TYR:539:CE1:9846, V-B:TYR:539:CD1:9844, V-B:ILE:538:CD1:9836, H-B:SER:385:OG:8380, H-B:HIS:383:NE2:8364"]

$$$$
2c_Ghoteimi_2023
     RDKit          3D

 42 47  0  0  0  0  0  0  0  0999 V2000
  123.3550  129.5300   66.4930 N   0  0  0  0  0  0  0  0  0  0  0  0
  124.1800  129.8350   65.7410 C   0  0  0  0  0  0  0  0  0  0  0  0
  125.2300  130.2180   64.7930 C   0  0  0  0  0  0  0  0  0  0  0  0
  126.5980  130.0730   65.1330 C   0  0  0  0  0  0  0  0  0  0  0  0
  127.0770  129.5400   66.4440 C   0  0  0  0  0  0  0  0  0  0  0  0
  126.4350  128.4510   67.0360 C   0  0  0  0  0  0  0  0  0  0  0  0
  126.8780  127.9450   68.2550 C   0  0  0  0  0  0  0  0  0  0  0  0
  127.9680  128.5240   68.9240 C   0  0  0  0  0  0  0  0  0  0  0  0
  128.4420  128.0200   70.1380 N   0  0  0  0  0  0  0  0  0  0  0  0
  128.4220  126.5630   70.3720 C   0  0  0  0  0  0  0  0  0  0  0  0
  128.5990  126.1820   71.8570 C   0  0  0  0  0  0  0  0  0  0  0  0
  129.7890  126.7610   72.3700 O   0  0  0  0  0  0  0  0  0  0  0  0
  129.7630  128.1770   72.2820 C   0  0  0  0  0  0  0  0  0  0  0  0
  129.6170  128.6110   70.8090 C   0  0  0  0  0  0  0  0  0  0  0  0
  128.6040  129.6200   68.3230 C   0  0  0  0  0  0  0  0  0  0  0  0
  128.1620  130.1230   67.1030 C   0  0  0  0  0  0  0  0  0  0  0  0
  127.5640  130.4500   64.1910 C   0  0  0  0  0  0  0  0  0  0  0  0
  127.1780  130.9320   62.9360 C   0  0  0  0  0  0  0  0  0  0  0  0
  128.1690  131.3310   61.8900 C   0  0  0  0  0  0  0  0  0  0  0  0
  129.3490  131.9950   62.2400 C   0  0  0  0  0  0  0  0  0  0  0  0
  130.2790  132.3640   61.2710 C   0  0  0  0  0  0  0  0  0  0  0  0
  130.0560  132.0930   59.9120 C   0  0  0  0  0  0  0  0  0  0  0  0
  130.9910  132.4340   58.9290 N   0  0  0  0  0  0  0  0  0  0  0  0
  132.1520  131.5550   58.6800 C   0  0  0  0  0  0  0  0  0  0  0  0
  133.2770  132.2300   57.8670 C   0  0  0  0  0  0  0  0  0  0  0  0
  132.7590  132.7380   56.6490 O   0  0  0  0  0  0  0  0  0  0  0  0
  131.7500  133.7080   56.8780 C   0  0  0  0  0  0  0  0  0  0  0  0
  130.5800  133.0810   57.6650 C   0  0  0  0  0  0  0  0  0  0  0  0
  128.8780  131.4150   59.5670 C   0  0  0  0  0  0  0  0  0  0  0  0
  127.9500  131.0450   60.5370 C   0  0  0  0  0  0  0  0  0  0  0  0
  125.8670  131.0670   62.6110 N   0  0  0  0  0  0  0  0  0  0  0  0
  124.9150  130.7390   63.5170 C   0  0  0  0  0  0  0  0  0  0  0  0
  123.2560  130.9890   62.9280 S   0  0  0  0  0  0  0  0  0  0  0  0
  123.3700  131.7510   61.2820 C   0  0  0  0  0  0  0  0  0  0  0  0
  123.9000  133.1850   61.3480 C   0  0  0  0  0  0  0  0  0  0  0  0
  123.1020  134.1220   61.3980 O   0  0  0  0  0  0  0  0  0  0  0  0
  125.2450  133.3090   61.3430 N   0  0  0  0  0  0  0  0  0  0  0  0
  125.9690  134.4900   61.4120 C   0  0  0  0  0  0  0  0  0  0  0  0
  125.9020  135.5270   60.6050 N   0  0  0  0  0  0  0  0  0  0  0  0
  126.7320  136.4820   60.9740 C   0  0  0  0  0  0  0  0  0  0  0  0
  127.4980  136.2280   62.1070 C   0  0  0  0  0  0  0  0  0  0  0  0
  127.1020  134.6490   62.7150 S   0  0  0  0  0  0  0  0  0  0  0  0
  1  2  3  0
  2  3  1  0
  3  4  2  0
  4  5  1  0
  5  6  2  0
  6  7  1  0
  7  8  2  0
  8  9  1  0
  9 10  1  0
 10 11  1  0
 11 12  1  0
 12 13  1  0
 13 14  1  0
  8 15  1  0
 15 16  2  0
  4 17  1  0
 17 18  2  0
 18 19  1  0
 19 20  2  0
 20 21  1  0
 21 22  2  0
 22 23  1  0
 23 24  1  0
 24 25  1  0
 25 26  1  0
 26 27  1  0
 27 28  1  0
 22 29  1  0
 29 30  2  0
 18 31  1  0
 31 32  2  0
 32 33  1  0
 33 34  1  0
 34 35  1  0
 35 36  2  0
 35 37  1  0
 37 38  1  0
 38 39  2  0
 39 40  1  0
 40 41  2  0
 41 42  1  0
 32  3  1  0
 42 38  1  0
 16  5  1  0
 30 19  1  0
 14  9  1  0
 28 23  1  0
M  END
>  <Binding energies>  (11) 
[-9.8]

>  <Ligand effiencies>  (11) 
[-0.22790697674418606]

>  <Interactions>  (11) 
["V-A:HIS:456:CE1:4069, V-B:GLU:543:CB:9877, V-B:HIS:456:CE1:9040, V-B:ILE:369:CG1:8208, V-B:ILE:369:CB:8206, V-B:ILE:369:CG2:8207, V-B:SER:385:CB:8379, V-B:GLY:454:CA:9019, V-A:TYR:539:CD1:4872, V-A:ILE:538:CB:4861, V-A:TYR:539:C:4866, V-B:LEU:475:CD1:9228, V-B:GLU:543:CD:9879, V-A:PRO:540:CA:4882, V-A:PRO:540:CB:4884, V-A:GLU:543:CD:4907, V-A:GLU:543:CB:4905, V-A:TYR:539:CB:4870, V-A:ALA:541:CB:4891, V-A:GLU:543:CG:4906, V-A:LEU:363:CA:3184, H-A:HIS:456:ND1:4066, H-B:GLY:454:N:9020, H-B:TYR:484:OH:9318, V-B:ARG:545:CZ:9897, H-B:ARG:545:NE:9895, H-A:TYR:531:OH:4794, V-A:PRO:540:N:4883, V-A:PRO:540:CD:4886, V-A:TYR:531:CE2:4792, V-A:LEU:363:CD1:3188, V-B:TYR:484:CZ:9317, H-B:SER:385:OG:8380, V-B:TYR:484:CE2:9316"]

$$$$
2j_Grossjean_2025
     RDKit          3D

 23 24  0  0  0  0  0  0  0  0999 V2000
  127.7990  132.0440   59.9130 C   0  0  0  0  0  0  0  0  0  0  0  0
  127.2700  131.7010   58.5330 C   0  0  0  0  0  0  0  0  0  0  0  0
  125.9410  131.3390   58.3300 C   0  0  0  0  0  0  0  0  0  0  0  0
  125.4990  131.0340   57.0350 C   0  0  0  0  0  0  0  0  0  0  0  0
  124.0250  130.6360   56.8280 C   0  0  0  0  0  0  0  0  0  0  0  0
  123.9460  129.3610   56.4450 F   0  0  0  0  0  0  0  0  0  0  0  0
  123.3460  130.7880   57.9660 F   0  0  0  0  0  0  0  0  0  0  0  0
  123.4170  131.3740   55.8970 F   0  0  0  0  0  0  0  0  0  0  0  0
  126.4300  131.1040   55.9680 C   0  0  0  0  0  0  0  0  0  0  0  0
  126.0230  130.7950   54.5930 C   0  0  0  0  0  0  0  0  0  0  0  0
  125.7010  130.5520   53.5090 N   0  0  0  0  0  0  0  0  0  0  0  0
  127.7610  131.4800   56.2650 C   0  0  0  0  0  0  0  0  0  0  0  0
  129.0180  131.6040   55.0000 S   0  0  0  0  0  0  0  0  0  0  0  0
  129.8740  133.2040   55.1940 C   0  0  0  0  0  0  0  0  0  0  0  0
  130.8790  133.2620   56.3530 C   0  0  0  0  0  0  0  0  0  0  0  0
  131.6220  134.2360   56.4940 O   0  0  0  0  0  0  0  0  0  0  0  0
  130.8750  132.1790   57.1610 N   0  0  0  0  0  0  0  0  0  0  0  0
  131.6750  131.9730   58.2770 C   0  0  0  0  0  0  0  0  0  0  0  0
  131.3690  132.1820   59.5390 N   0  0  0  0  0  0  0  0  0  0  0  0
  132.3720  131.8750   60.3390 C   0  0  0  0  0  0  0  0  0  0  0  0
  133.5280  131.4030   59.7240 C   0  0  0  0  0  0  0  0  0  0  0  0
  133.2760  131.3640   58.0040 S   0  0  0  0  0  0  0  0  0  0  0  0
  128.1690  131.7740   57.5260 N   0  0  0  0  0  0  0  0  0  0  0  0
  1  2  1  0
  2  3  2  0
  3  4  1  0
  4  5  1  0
  5  6  1  0
  5  7  1  0
  5  8  1  0
  4  9  2  0
  9 10  1  0
 10 11  3  0
  9 12  1  0
 12 13  1  0
 13 14  1  0
 14 15  1  0
 15 16  2  0
 15 17  1  0
 17 18  1  0
 18 19  2  0
 19 20  1  0
 20 21  2  0
 21 22  1  0
 12 23  2  0
 23  2  1  0
 22 18  1  0
M  END
>  <Binding energies>  (12) 
[-6.32]

>  <Ligand effiencies>  (12) 
[-0.26333333333333336]

>  <Interactions>  (12) 
["V-B:ASP:366:CB:8182, V-B:TYR:531:CZ:9765, V-B:ASN:370:CB:8215, V-B:ASP:366:CA:8180, V-B:ASN:370:CA:8213, H-B:LYS:534:NZ:9794, H-A:TYR:539:OH:4877, V-A:TYR:539:CZ:4876, V-B:TYR:531:CE1:9763, V-B:ILE:369:CB:8206, V-B:ILE:369:CG2:8207, V-A:TYR:539:CD1:4872, V-A:ILE:538:CA:4859, V-A:TYR:539:CE1:4874, V-A:PRO:540:CA:4882, V-A:PRO:540:CB:4884, V-A:ASN:362:C:3171, V-A:LEU:363:CA:3184, V-A:TYR:531:CZ:4793, H-A:TYR:531:OH:4794, H-A:TYR:539:N:4869, V-A:TYR:531:CE2:4792, V-A:LEU:363:CD1:3188, V-B:ASP:366:C:8178, V-B:TYR:531:CD1:9761, V-B:ASN:370:CG:8216, V-B:ILE:369:C:8202"]

$$$$
3ab_Grossjean_2025
     RDKit          3D

 33 35  0  0  0  0  0  0  0  0999 V2000
  124.5050  122.5140   55.3890 C   0  0  0  0  0  0  0  0  0  0  0  0
  125.6960  123.2140   55.7190 O   0  0  0  0  0  0  0  0  0  0  0  0
  126.7960  122.5520   56.1610 C   0  0  0  0  0  0  0  0  0  0  0  0
  127.4700  121.8020   55.4510 O   0  0  0  0  0  0  0  0  0  0  0  0
  127.1130  122.8270   57.6030 C   0  0  0  0  0  0  0  0  0  0  0  0
  126.1750  123.4010   58.4750 C   0  0  0  0  0  0  0  0  0  0  0  0
  126.4970  123.6430   59.8070 C   0  0  0  0  0  0  0  0  0  0  0  0
  127.7720  123.3160   60.2940 C   0  0  0  0  0  0  0  0  0  0  0  0
  128.2030  123.5110   61.6200 N   0  0  0  0  0  0  0  0  0  0  0  0
  127.5490  123.3050   62.7820 C   0  0  0  0  0  0  0  0  0  0  0  0
  126.3910  122.9020   62.8910 O   0  0  0  0  0  0  0  0  0  0  0  0
  128.3500  123.6160   64.0490 C   0  0  0  0  0  0  0  0  0  0  0  0
  129.4610  122.2510   64.5080 S   0  0  0  0  0  0  0  0  0  0  0  0
  130.8280  122.2680   63.3680 C   0  0  0  0  0  0  0  0  0  0  0  0
  130.9030  121.1590   62.5950 N   0  0  0  0  0  0  0  0  0  0  0  0
  131.8950  121.0400   61.6760 C   0  0  0  0  0  0  0  0  0  0  0  0
  131.9060  119.7830   60.8590 C   0  0  0  0  0  0  0  0  0  0  0  0
  130.8830  118.8300   60.9930 C   0  0  0  0  0  0  0  0  0  0  0  0
  130.8870  117.6610   60.2360 C   0  0  0  0  0  0  0  0  0  0  0  0
  131.9190  117.4270   59.3330 C   0  0  0  0  0  0  0  0  0  0  0  0
  132.9470  118.3520   59.1840 C   0  0  0  0  0  0  0  0  0  0  0  0
  132.9380  119.5190   59.9420 C   0  0  0  0  0  0  0  0  0  0  0  0
  132.8590  122.0440   61.5300 C   0  0  0  0  0  0  0  0  0  0  0  0
  132.8150  123.1940   62.3310 C   0  0  0  0  0  0  0  0  0  0  0  0
  133.8980  124.2730   62.1430 C   0  0  0  0  0  0  0  0  0  0  0  0
  135.0190  124.0040   62.8160 F   0  0  0  0  0  0  0  0  0  0  0  0
  134.2240  124.3780   60.8540 F   0  0  0  0  0  0  0  0  0  0  0  0
  133.4450  125.4520   62.5710 F   0  0  0  0  0  0  0  0  0  0  0  0
  131.7760  123.3140   63.2870 C   0  0  0  0  0  0  0  0  0  0  0  0
  131.7160  124.4670   64.1890 C   0  0  0  0  0  0  0  0  0  0  0  0
  131.6710  125.3800   64.8990 N   0  0  0  0  0  0  0  0  0  0  0  0
  128.7050  122.7400   59.4310 C   0  0  0  0  0  0  0  0  0  0  0  0
  128.3820  122.5000   58.0990 C   0  0  0  0  0  0  0  0  0  0  0  0
  1  2  1  0
  2  3  1  0
  3  4  2  0
  3  5  1  0
  5  6  2  0
  6  7  1  0
  7  8  2  0
  8  9  1  0
  9 10  1  0
 10 11  2  0
 10 12  1  0
 12 13  1  0
 13 14  1  0
 14 15  2  0
 15 16  1  0
 16 17  1  0
 17 18  2  0
 18 19  1  0
 19 20  2  0
 20 21  1  0
 21 22  2  0
 16 23  2  0
 23 24  1  0
 24 25  1  0
 25 26  1  0
 25 27  1  0
 25 28  1  0
 24 29  2  0
 29 30  1  0
 30 31  3  0
  8 32  1  0
 32 33  2  0
 33  5  1  0
 29 14  1  0
 22 17  1  0
M  END
>  <Binding energies>  (13) 
[-9.57]

>  <Ligand effiencies>  (13) 
[-0.28147058823529414]

>  <Interactions>  (13) 
["V-B:ALA:541:CB:9863, V-B:TYR:539:CE2:9847, V-A:ILE:369:CG2:3236, V-B:PRO:540:CB:9856, H-B:ALA:541:N:9862, V-B:MET:535:CE:9806, V-B:PRO:540:CA:9854, V-B:TYR:531:CZ:9765, V-A:GLY:453:CA:4043, V-B:TYR:539:CD2:9845, V-A:GLY:453:C:4041, V-B:TYR:531:CE2:9764, V-A:ARG:545:CZ:4925, V-B:LEU:363:CD1:8159, V-A:LEU:475:CD2:4258, V-B:TYR:539:C:9838, V-A:ILE:369:CD1:3238, V-A:ASP:366:CG:3212, V-B:PRO:540:N:9855, V-B:GLU:543:CD:9879, V-A:ASP:366:CB:3211, V-B:TYR:539:CG:9843, V-B:TYR:539:CB:9842, V-A:HIS:383:CE1:3393, H-B:TYR:539:N:9841, V-B:TYR:539:CZ:9848, V-A:ASP:366:CA:3209, V-A:ILE:369:CB:3235, H-A:TYR:484:OH:4347, V-B:GLU:543:CG:9878, V-B:TYR:539:CE1:9846, V-B:TYR:539:CD1:9844, H-B:TYR:531:OH:9766, V-B:ILE:538:CD1:9836, V-B:ILE:538:CG2:9834, V-B:ILE:538:CA:9831, V-A:GLY:454:CA:4048, V-B:ILE:538:CB:9833, V-A:LEU:373:CG:3278, V-A:LEU:373:CD2:3280, V-A:ILE:369:CG1:3237, V-B:ILE:538:CG1:9835"]

$$$$
3ac_Grossjean_2025
     RDKit          3D

 31 33  0  0  0  0  0  0  0  0999 V2000
  125.1900  122.4820   55.3590 C   0  0  0  0  0  0  0  0  0  0  0  0
  126.4810  122.2420   55.9120 O   0  0  0  0  0  0  0  0  0  0  0  0
  126.7270  122.5920   57.2260 C   0  0  0  0  0  0  0  0  0  0  0  0
  127.9630  122.2120   57.7490 C   0  0  0  0  0  0  0  0  0  0  0  0
  128.3020  122.5240   59.0620 C   0  0  0  0  0  0  0  0  0  0  0  0
  127.4030  123.2150   59.8770 C   0  0  0  0  0  0  0  0  0  0  0  0
  127.8430  123.5030   61.1820 N   0  0  0  0  0  0  0  0  0  0  0  0
  127.1380  123.5190   62.3340 C   0  0  0  0  0  0  0  0  0  0  0  0
  125.9460  123.2290   62.4430 O   0  0  0  0  0  0  0  0  0  0  0  0
  127.9220  123.9310   63.5810 C   0  0  0  0  0  0  0  0  0  0  0  0
  128.8260  122.5360   64.3190 S   0  0  0  0  0  0  0  0  0  0  0  0
  130.3900  122.3600   63.4820 C   0  0  0  0  0  0  0  0  0  0  0  0
  130.4710  121.2330   62.7350 N   0  0  0  0  0  0  0  0  0  0  0  0
  131.6020  120.9660   62.0320 C   0  0  0  0  0  0  0  0  0  0  0  0
  131.6130  119.6950   61.2370 C   0  0  0  0  0  0  0  0  0  0  0  0
  130.5650  118.7670   61.3510 C   0  0  0  0  0  0  0  0  0  0  0  0
  130.5660  117.5880   60.6110 C   0  0  0  0  0  0  0  0  0  0  0  0
  131.6210  117.3180   59.7460 C   0  0  0  0  0  0  0  0  0  0  0  0
  132.6740  118.2170   59.6180 C   0  0  0  0  0  0  0  0  0  0  0  0
  132.6690  119.3950   60.3600 C   0  0  0  0  0  0  0  0  0  0  0  0
  132.6980  121.8330   62.0840 C   0  0  0  0  0  0  0  0  0  0  0  0
  132.6480  122.9960   62.8670 C   0  0  0  0  0  0  0  0  0  0  0  0
  133.8810  123.9210   62.8990 C   0  0  0  0  0  0  0  0  0  0  0  0
  135.0340  123.2480   62.8720 F   0  0  0  0  0  0  0  0  0  0  0  0
  133.8730  124.7370   61.8440 F   0  0  0  0  0  0  0  0  0  0  0  0
  133.8680  124.6540   64.0130 F   0  0  0  0  0  0  0  0  0  0  0  0
  131.4680  123.2670   63.6030 C   0  0  0  0  0  0  0  0  0  0  0  0
  131.3970  124.4270   64.4940 C   0  0  0  0  0  0  0  0  0  0  0  0
  131.3430  125.3430   65.1990 N   0  0  0  0  0  0  0  0  0  0  0  0
  126.1600  123.6070   59.3550 C   0  0  0  0  0  0  0  0  0  0  0  0
  125.8250  123.2940   58.0410 C   0  0  0  0  0  0  0  0  0  0  0  0
  1  2  1  0
  2  3  1  0
  3  4  2  0
  4  5  1  0
  5  6  2  0
  6  7  1  0
  7  8  1  0
  8  9  2  0
  8 10  1  0
 10 11  1  0
 11 12  1  0
 12 13  2  0
 13 14  1  0
 14 15  1  0
 15 16  2  0
 16 17  1  0
 17 18  2  0
 18 19  1  0
 19 20  2  0
 14 21  2  0
 21 22  1  0
 22 23  1  0
 23 24  1  0
 23 25  1  0
 23 26  1  0
 22 27  2  0
 27 28  1  0
 28 29  3  0
  6 30  1  0
 30 31  2  0
 31  3  1  0
 27 12  1  0
 20 15  1  0
M  END
>  <Binding energies>  (14) 
[-9.14]

>  <Ligand effiencies>  (14) 
[-0.285625]

>  <Interactions>  (14) 
["V-B:ALA:541:CB:9863, V-B:TYR:539:CE2:9847, V-B:PRO:540:CB:9856, H-B:ALA:541:N:9862, V-B:MET:535:CE:9806, V-B:PRO:540:CA:9854, V-B:TYR:531:CZ:9765, V-A:GLY:453:CA:4043, V-B:TYR:539:CD2:9845, V-A:GLY:453:C:4041, V-B:TYR:531:CE2:9764, V-B:LEU:363:CD1:8159, V-A:LEU:475:CD2:4258, V-B:TYR:539:C:9838, V-A:ILE:369:CD1:3238, V-A:ASP:366:CG:3212, V-B:PRO:540:N:9855, V-B:PRO:540:CD:9858, V-B:GLU:543:CD:9879, V-B:TYR:539:CG:9843, V-B:TYR:539:CB:9842, V-A:HIS:383:CE1:3393, H-B:TYR:539:N:9841, V-B:TYR:539:CZ:9848, H-A:TYR:484:OH:4347, V-B:GLU:543:CG:9878, V-B:TYR:539:CE1:9846, V-B:TYR:539:CD1:9844, V-B:ILE:538:CD1:9836, V-B:ILE:538:CG2:9834, V-B:ILE:538:CA:9831, V-B:TYR:539:CA:9840, V-A:GLY:454:CA:4048, V-B:MET:535:CG:9804, V-B:ILE:538:CB:9833, V-A:PRO:482:CG:4326"]

$$$$
3af_Grossjean_2025
     RDKit          3D

 29 31  0  0  0  0  0  0  0  0999 V2000
  125.6180  130.4450   53.6390 N   0  0  0  0  0  0  0  0  0  0  0  0
  125.9160  130.7100   54.7260 C   0  0  0  0  0  0  0  0  0  0  0  0
  126.2920  131.0460   56.1020 C   0  0  0  0  0  0  0  0  0  0  0  0
  125.3000  131.2640   57.0880 C   0  0  0  0  0  0  0  0  0  0  0  0
  123.7930  131.1170   56.8000 C   0  0  0  0  0  0  0  0  0  0  0  0
  123.4860  129.9530   56.2250 F   0  0  0  0  0  0  0  0  0  0  0  0
  123.1020  131.1980   57.9390 F   0  0  0  0  0  0  0  0  0  0  0  0
  123.3870  132.0860   55.9780 F   0  0  0  0  0  0  0  0  0  0  0  0
  125.7080  131.6370   58.3790 C   0  0  0  0  0  0  0  0  0  0  0  0
  127.0660  131.7900   58.6740 C   0  0  0  0  0  0  0  0  0  0  0  0
  127.5560  132.2040   60.0290 C   0  0  0  0  0  0  0  0  0  0  0  0
  127.5450  133.5550   60.4140 C   0  0  0  0  0  0  0  0  0  0  0  0
  127.9960  133.9460   61.6720 C   0  0  0  0  0  0  0  0  0  0  0  0
  128.4640  132.9880   62.5650 C   0  0  0  0  0  0  0  0  0  0  0  0
  128.4820  131.6430   62.2100 C   0  0  0  0  0  0  0  0  0  0  0  0
  128.0300  131.2560   60.9510 C   0  0  0  0  0  0  0  0  0  0  0  0
  128.0130  131.5830   57.7240 N   0  0  0  0  0  0  0  0  0  0  0  0
  127.6460  131.2000   56.4770 C   0  0  0  0  0  0  0  0  0  0  0  0
  129.0260  130.9630   55.3760 S   0  0  0  0  0  0  0  0  0  0  0  0
  129.9370  132.5330   55.2700 C   0  0  0  0  0  0  0  0  0  0  0  0
  130.5230  132.9430   56.6210 C   0  0  0  0  0  0  0  0  0  0  0  0
  130.4780  134.1250   56.9600 O   0  0  0  0  0  0  0  0  0  0  0  0
  131.0650  131.9390   57.3450 N   0  0  0  0  0  0  0  0  0  0  0  0
  131.6870  131.9770   58.6080 C   0  0  0  0  0  0  0  0  0  0  0  0
  132.9830  131.5140   58.9000 C   0  0  0  0  0  0  0  0  0  0  0  0
  133.4740  131.6120   60.2040 C   0  0  0  0  0  0  0  0  0  0  0  0
  132.6570  132.1710   61.1860 C   0  0  0  0  0  0  0  0  0  0  0  0
  131.4050  132.6250   60.9310 N   0  0  0  0  0  0  0  0  0  0  0  0
  130.9410  132.5230   59.6590 C   0  0  0  0  0  0  0  0  0  0  0  0
  1  2  3  0
  2  3  1  0
  3  4  2  0
  4  5  1  0
  5  6  1  0
  5  7  1  0
  5  8  1  0
  4  9  1  0
  9 10  2  0
 10 11  1  0
 11 12  2  0
 12 13  1  0
 13 14  2  0
 14 15  1  0
 15 16  2  0
 10 17  1  0
 17 18  2  0
 18 19  1  0
 19 20  1  0
 20 21  1  0
 21 22  2  0
 21 23  1  0
 23 24  1  0
 24 25  2  0
 25 26  1  0
 26 27  2  0
 27 28  1  0
 28 29  2  0
 18  3  1  0
 29 24  1  0
 16 11  1  0
M  END
>  <Binding energies>  (15) 
[-7.9]

>  <Ligand effiencies>  (15) 
[-0.26333333333333336]

>  <Interactions>  (15) 
["V-B:ASN:370:CB:8215, V-B:ASP:366:CA:8180, V-B:ASN:370:CA:8213, H-B:LYS:534:NZ:9794, H-A:TYR:539:OH:4877, V-A:TYR:539:CZ:4876, V-B:TYR:531:CE1:9763, V-B:ILE:369:CB:8206, V-B:ILE:369:CG2:8207, V-A:MET:535:CG:4832, V-A:TYR:539:CD1:4872, V-A:TYR:539:C:4866, V-A:TYR:539:CE1:4874, V-A:PRO:540:CA:4882, V-A:PRO:540:CB:4884, H-A:ALA:541:N:4890, V-A:ASN:362:C:3171, V-A:ALA:541:CB:4891, V-A:LEU:363:CA:3184, H-A:TYR:531:OH:4794, H-A:TYR:539:N:4869, V-A:PRO:540:N:4883, V-B:ASP:366:C:8178, V-B:TYR:531:CD1:9761, V-A:PRO:540:C:4880, V-B:ILE:369:C:8202"]

$$$$
3ag_Grossjean_2025
     RDKit          3D

 30 32  0  0  0  0  0  0  0  0999 V2000
  125.7990  130.5500   53.6730 N   0  0  0  0  0  0  0  0  0  0  0  0
  126.0790  130.8060   54.7670 C   0  0  0  0  0  0  0  0  0  0  0  0
  126.4290  131.1290   56.1520 C   0  0  0  0  0  0  0  0  0  0  0  0
  125.4450  131.1150   57.1700 C   0  0  0  0  0  0  0  0  0  0  0  0
  123.9810  130.7100   56.9070 C   0  0  0  0  0  0  0  0  0  0  0  0
  123.4060  131.4410   55.9500 F   0  0  0  0  0  0  0  0  0  0  0  0
  123.9260  129.4330   56.5260 F   0  0  0  0  0  0  0  0  0  0  0  0
  123.2550  130.8630   58.0150 F   0  0  0  0  0  0  0  0  0  0  0  0
  125.8190  131.4840   58.4710 C   0  0  0  0  0  0  0  0  0  0  0  0
  127.1360  131.8690   58.7460 C   0  0  0  0  0  0  0  0  0  0  0  0
  127.5900  132.2750   60.1150 C   0  0  0  0  0  0  0  0  0  0  0  0
  127.8090  133.6260   60.4260 C   0  0  0  0  0  0  0  0  0  0  0  0
  128.2310  134.0100   61.6960 C   0  0  0  0  0  0  0  0  0  0  0  0
  128.4410  133.0440   62.6750 C   0  0  0  0  0  0  0  0  0  0  0  0
  128.2340  131.6980   62.3920 C   0  0  0  0  0  0  0  0  0  0  0  0
  127.8130  131.3180   61.1210 C   0  0  0  0  0  0  0  0  0  0  0  0
  128.0810  131.8680   57.7700 N   0  0  0  0  0  0  0  0  0  0  0  0
  127.7460  131.4960   56.5100 C   0  0  0  0  0  0  0  0  0  0  0  0
  129.1070  131.5540   55.3660 S   0  0  0  0  0  0  0  0  0  0  0  0
  129.8040  133.2310   55.4370 C   0  0  0  0  0  0  0  0  0  0  0  0
  131.1130  133.2810   56.2270 C   0  0  0  0  0  0  0  0  0  0  0  0
  131.6280  134.3680   56.4950 O   0  0  0  0  0  0  0  0  0  0  0  0
  131.6330  132.0970   56.5960 N   0  0  0  0  0  0  0  0  0  0  0  0
  132.8510  131.9140   57.3830 C   0  0  0  0  0  0  0  0  0  0  0  0
  132.6270  131.9360   58.8910 C   0  0  0  0  0  0  0  0  0  0  0  0
  131.3690  132.2650   59.4010 C   0  0  0  0  0  0  0  0  0  0  0  0
  131.1520  132.2570   60.7770 C   0  0  0  0  0  0  0  0  0  0  0  0
  132.1920  131.9120   61.6370 C   0  0  0  0  0  0  0  0  0  0  0  0
  133.4450  131.5680   61.1350 C   0  0  0  0  0  0  0  0  0  0  0  0
  133.6620  131.5750   59.7600 C   0  0  0  0  0  0  0  0  0  0  0  0
  1  2  3  0
  2  3  1  0
  3  4  2  0
  4  5  1  0
  5  6  1  0
  5  7  1  0
  5  8  1  0
  4  9  1  0
  9 10  2  0
 10 11  1  0
 11 12  2  0
 12 13  1  0
 13 14  2  0
 14 15  1  0
 15 16  2  0
 10 17  1  0
 17 18  2  0
 18 19  1  0
 19 20  1  0
 20 21  1  0
 21 22  2  0
 21 23  1  0
 23 24  1  0
 24 25  1  0
 25 26  2  0
 26 27  1  0
 27 28  2  0
 28 29  1  0
 29 30  2  0
 18  3  1  0
 30 25  1  0
 16 11  1  0
M  END
>  <Binding energies>  (16) 
[-8.32]

>  <Ligand effiencies>  (16) 
[-0.26838709677419353]

>  <Interactions>  (16) 
["V-B:ASP:366:CB:8182, V-B:TYR:531:CZ:9765, V-B:ASN:370:CB:8215, V-B:ASP:366:CA:8180, V-B:ASN:370:CA:8213, H-B:LYS:534:NZ:9794, H-A:TYR:539:OH:4877, V-A:TYR:539:CZ:4876, V-B:TYR:531:CE1:9763, V-B:ILE:369:CB:8206, V-B:ILE:369:CG2:8207, V-A:TYR:539:CD1:4872, V-A:ILE:538:CB:4861, V-A:ILE:538:CA:4859, V-A:TYR:539:CE1:4874, V-A:PRO:540:CA:4882, V-A:PRO:540:CB:4884, V-A:ASN:362:C:3171, V-A:ALA:541:CB:4891, V-A:LEU:363:CA:3184, V-A:TYR:531:CZ:4793, H-A:TYR:531:OH:4794, H-A:TYR:539:N:4869, V-A:PRO:540:N:4883, V-A:TYR:531:CE2:4792, V-A:LEU:363:CD1:3188, V-B:ASP:366:C:8178, V-B:TYR:531:CD1:9761, V-A:ASN:362:CB:3175, V-B:ILE:369:C:8202"]

$$$$
3bc_Grossjean_2025
     RDKit          3D

 28 30  0  0  0  0  0  0  0  0999 V2000
  125.2800  122.3800   55.4730 C   0  0  0  0  0  0  0  0  0  0  0  0
  126.5720  122.1190   56.0100 O   0  0  0  0  0  0  0  0  0  0  0  0
  126.8570  122.5190   57.3020 C   0  0  0  0  0  0  0  0  0  0  0  0
  128.1210  122.1890   57.7900 C   0  0  0  0  0  0  0  0  0  0  0  0
  128.5000  122.5500   59.0810 C   0  0  0  0  0  0  0  0  0  0  0  0
  127.6120  123.2410   59.9060 C   0  0  0  0  0  0  0  0  0  0  0  0
  128.0870  123.5730   61.1890 N   0  0  0  0  0  0  0  0  0  0  0  0
  127.4690  123.4580   62.3830 C   0  0  0  0  0  0  0  0  0  0  0  0
  126.3430  122.9830   62.5470 O   0  0  0  0  0  0  0  0  0  0  0  0
  128.2980  123.9360   63.5840 C   0  0  0  0  0  0  0  0  0  0  0  0
  129.2650  122.6370   64.4250 S   0  0  0  0  0  0  0  0  0  0  0  0
  130.7690  122.3980   63.5050 C   0  0  0  0  0  0  0  0  0  0  0  0
  130.7660  121.2810   62.7370 N   0  0  0  0  0  0  0  0  0  0  0  0
  131.8530  120.9780   61.9790 C   0  0  0  0  0  0  0  0  0  0  0  0
  131.7780  119.7150   61.1740 C   0  0  0  0  0  0  0  0  0  0  0  0
  130.7010  118.8290   61.3290 C   0  0  0  0  0  0  0  0  0  0  0  0
  130.6250  117.6540   60.5860 C   0  0  0  0  0  0  0  0  0  0  0  0
  131.6300  117.3490   59.6750 C   0  0  0  0  0  0  0  0  0  0  0  0
  132.7110  118.2080   59.5030 C   0  0  0  0  0  0  0  0  0  0  0  0
  132.7830  119.3810   60.2510 C   0  0  0  0  0  0  0  0  0  0  0  0
  132.9820  121.8040   61.9800 C   0  0  0  0  0  0  0  0  0  0  0  0
  132.9920  122.9730   62.7490 C   0  0  0  0  0  0  0  0  0  0  0  0
  134.2390  123.8540   62.7060 C   0  0  0  0  0  0  0  0  0  0  0  0
  131.8600  123.2960   63.5290 C   0  0  0  0  0  0  0  0  0  0  0  0
  131.8290  124.5380   64.3030 C   0  0  0  0  0  0  0  0  0  0  0  0
  131.8070  125.5200   64.9150 N   0  0  0  0  0  0  0  0  0  0  0  0
  126.3430  123.5890   59.4190 C   0  0  0  0  0  0  0  0  0  0  0  0
  125.9690  123.2270   58.1270 C   0  0  0  0  0  0  0  0  0  0  0  0
  1  2  1  0
  2  3  1  0
  3  4  2  0
  4  5  1  0
  5  6  2  0
  6  7  1  0
  7  8  1  0
  8  9  2  0
  8 10  1  0
 10 11  1  0
 11 12  1  0
 12 13  2  0
 13 14  1  0
 14 15  1  0
 15 16  2  0
 16 17  1  0
 17 18  2  0
 18 19  1  0
 19 20  2  0
 14 21  2  0
 21 22  1  0
 22 23  1  0
 22 24  2  0
 24 25  1  0
 25 26  3  0
  6 27  1  0
 27 28  2  0
 28  3  1  0
 24 12  1  0
 20 15  1  0
M  END
>  <Binding energies>  (17) 
[-9.67]

>  <Ligand effiencies>  (17) 
[-0.333448275862069]

>  <Interactions>  (17) 
["V-B:ALA:541:CB:9863, V-B:TYR:539:CE2:9847, V-A:ILE:369:CG2:3236, V-B:PRO:540:CB:9856, H-B:ALA:541:N:9862, V-B:MET:535:CE:9806, V-B:PRO:540:CA:9854, V-A:SER:385:CA:3406, V-B:TYR:539:CD2:9845, V-A:GLY:453:C:4041, V-B:TYR:531:CE2:9764, V-B:LEU:363:CD1:8159, V-A:LEU:475:CD2:4258, V-B:TYR:539:C:9838, V-A:ILE:369:CD1:3238, V-B:PRO:540:N:9855, V-B:PRO:540:CD:9858, V-B:GLU:543:CD:9879, V-B:TYR:539:CG:9843, V-B:TYR:539:CB:9842, V-A:HIS:383:CE1:3393, H-B:TYR:539:N:9841, V-B:TYR:539:CZ:9848, H-A:TYR:484:OH:4347, V-B:GLU:543:CG:9878, V-B:TYR:539:CE1:9846, V-B:TYR:539:CD1:9844, V-B:ILE:538:CD1:9836, V-B:ILE:538:CG2:9834, V-B:ILE:538:CA:9831, V-B:TYR:539:CA:9840, V-A:GLY:454:CA:4048, V-B:MET:535:CG:9804, V-B:ILE:538:CB:9833, V-A:LEU:373:CD2:3280"]

$$$$
3bd_Grossjean_2025
     RDKit          3D

 26 28  0  0  0  0  0  0  0  0999 V2000
  124.0520  130.7160   57.2380 C   0  0  0  0  0  0  0  0  0  0  0  0
  125.5340  131.0780   57.3170 C   0  0  0  0  0  0  0  0  0  0  0  0
  126.0750  131.3810   58.5710 C   0  0  0  0  0  0  0  0  0  0  0  0
  127.4270  131.7220   58.6850 C   0  0  0  0  0  0  0  0  0  0  0  0
  128.0720  132.0540   59.9990 C   0  0  0  0  0  0  0  0  0  0  0  0
  128.6260  131.0440   60.8010 C   0  0  0  0  0  0  0  0  0  0  0  0
  129.2240  131.3450   62.0220 C   0  0  0  0  0  0  0  0  0  0  0  0
  129.2750  132.6650   62.4590 C   0  0  0  0  0  0  0  0  0  0  0  0
  128.7310  133.6830   61.6840 C   0  0  0  0  0  0  0  0  0  0  0  0
  128.1340  133.3780   60.4650 C   0  0  0  0  0  0  0  0  0  0  0  0
  128.2320  131.7490   57.5910 N   0  0  0  0  0  0  0  0  0  0  0  0
  127.7240  131.4580   56.3660 C   0  0  0  0  0  0  0  0  0  0  0  0
  128.8810  131.5410   55.0090 S   0  0  0  0  0  0  0  0  0  0  0  0
  129.8730  133.0520   55.2060 C   0  0  0  0  0  0  0  0  0  0  0  0
  130.5840  133.0980   56.5590 C   0  0  0  0  0  0  0  0  0  0  0  0
  130.4980  134.1170   57.2460 O   0  0  0  0  0  0  0  0  0  0  0  0
  131.2810  131.9900   56.8930 N   0  0  0  0  0  0  0  0  0  0  0  0
  132.0090  131.7220   58.0670 C   0  0  0  0  0  0  0  0  0  0  0  0
  131.4820  132.2460   59.2500 C   0  0  0  0  0  0  0  0  0  0  0  0
  132.1370  132.0400   60.4610 C   0  0  0  0  0  0  0  0  0  0  0  0
  133.3270  131.3180   60.4890 C   0  0  0  0  0  0  0  0  0  0  0  0
  133.8700  130.8020   59.3140 C   0  0  0  0  0  0  0  0  0  0  0  0
  133.2160  131.0050   58.1020 C   0  0  0  0  0  0  0  0  0  0  0  0
  126.3680  131.1150   56.1790 C   0  0  0  0  0  0  0  0  0  0  0  0
  125.8320  130.8020   54.8510 C   0  0  0  0  0  0  0  0  0  0  0  0
  125.4070  130.5520   53.8040 N   0  0  0  0  0  0  0  0  0  0  0  0
  1  2  1  0
  2  3  2  0
  3  4  1  0
  4  5  1  0
  5  6  2  0
  6  7  1  0
  7  8  2  0
  8  9  1  0
  9 10  2  0
  4 11  2  0
 11 12  1  0
 12 13  1  0
 13 14  1  0
 14 15  1  0
 15 16  2  0
 15 17  1  0
 17 18  1  0
 18 19  2  0
 19 20  1  0
 20 21  2  0
 21 22  1  0
 22 23  2  0
 12 24  2  0
 24 25  1  0
 25 26  3  0
 24  2  1  0
 10  5  1  0
 23 18  1  0
M  END
>  <Binding energies>  (18) 
[-8.21]

>  <Ligand effiencies>  (18) 
[-0.3040740740740741]

>  <Interactions>  (18) 
["V-A:ASP:366:CG:3212, H-B:LYS:534:NZ:9794, H-A:TYR:539:OH:4877, V-A:TYR:539:CZ:4876, V-B:TYR:531:CE1:9763, V-A:TYR:539:CD1:4872, V-A:ILE:538:CA:4859, V-A:TYR:539:CE1:4874, V-A:PRO:540:CA:4882, V-A:PRO:540:CB:4884, V-A:ASN:362:C:3171, V-A:ASP:366:CB:3211, V-A:ALA:541:CB:4891, V-A:LEU:363:CA:3184, V-A:TYR:531:CZ:4793, H-A:TYR:531:OH:4794, H-A:TYR:539:N:4869, V-A:PRO:540:N:4883, V-A:TYR:531:CE2:4792"]

$$$$
3be_Grossjean_2025
     RDKit          3D

 27 29  0  0  0  0  0  0  0  0999 V2000
  134.6970  125.6080   67.3720 C   0  0  0  0  0  0  0  0  0  0  0  0
  133.5750  125.7950   66.3700 C   0  0  0  0  0  0  0  0  0  0  0  0
  132.3120  126.2450   66.7610 C   0  0  0  0  0  0  0  0  0  0  0  0
  131.3260  126.3910   65.7840 C   0  0  0  0  0  0  0  0  0  0  0  0
  131.6240  126.0880   64.4530 C   0  0  0  0  0  0  0  0  0  0  0  0
  132.9110  125.6450   64.1290 C   0  0  0  0  0  0  0  0  0  0  0  0
  133.1460  125.3460   62.7730 N   0  0  0  0  0  0  0  0  0  0  0  0
  133.8340  124.3120   62.2420 C   0  0  0  0  0  0  0  0  0  0  0  0
  134.3960  123.4340   62.9000 O   0  0  0  0  0  0  0  0  0  0  0  0
  133.8790  124.2920   60.7060 C   0  0  0  0  0  0  0  0  0  0  0  0
  132.2530  124.3630   59.8810 S   0  0  0  0  0  0  0  0  0  0  0  0
  131.1280  123.3220   60.7860 C   0  0  0  0  0  0  0  0  0  0  0  0
  131.4540  122.0070   60.7450 N   0  0  0  0  0  0  0  0  0  0  0  0
  130.6820  121.0970   61.3980 C   0  0  0  0  0  0  0  0  0  0  0  0
  131.1030  119.6610   61.2920 C   0  0  0  0  0  0  0  0  0  0  0  0
  132.3690  119.3200   60.7910 C   0  0  0  0  0  0  0  0  0  0  0  0
  132.7650  117.9900   60.6880 C   0  0  0  0  0  0  0  0  0  0  0  0
  131.8960  116.9790   61.0840 C   0  0  0  0  0  0  0  0  0  0  0  0
  130.6350  117.2890   61.5810 C   0  0  0  0  0  0  0  0  0  0  0  0
  130.2430  118.6210   61.6820 C   0  0  0  0  0  0  0  0  0  0  0  0
  129.5480  121.5000   62.1110 C   0  0  0  0  0  0  0  0  0  0  0  0
  129.2120  122.8560   62.1830 C   0  0  0  0  0  0  0  0  0  0  0  0
  127.9750  123.2500   62.9880 C   0  0  0  0  0  0  0  0  0  0  0  0
  130.0190  123.8040   61.5180 C   0  0  0  0  0  0  0  0  0  0  0  0
  129.7170  125.2330   61.6250 C   0  0  0  0  0  0  0  0  0  0  0  0
  129.4760  126.3610   61.7110 N   0  0  0  0  0  0  0  0  0  0  0  0
  133.8790  125.4970   65.0810 N   0  0  0  0  0  0  0  0  0  0  0  0
  1  2  1  0
  2  3  2  0
  3  4  1  0
  4  5  2  0
  5  6  1  0
  6  7  1  0
  7  8  1  0
  8  9  2  0
  8 10  1  0
 10 11  1  0
 11 12  1  0
 12 13  2  0
 13 14  1  0
 14 15  1  0
 15 16  2  0
 16 17  1  0
 17 18  2  0
 18 19  1  0
 19 20  2  0
 14 21  2  0
 21 22  1  0
 22 23  1  0
 22 24  2  0
 24 25  1  0
 25 26  3  0
  6 27  2  0
 27  2  1  0
 24 12  1  0
 20 15  1  0
M  END
>  <Binding energies>  (19) 
[-8.81]

>  <Ligand effiencies>  (19) 
[-0.31464285714285717]

>  <Interactions>  (19) 
["V-B:ALA:541:CB:9863, V-B:TYR:539:CE2:9847, V-A:ILE:369:CG2:3236, V-A:SER:385:CA:3406, V-B:TYR:539:CD2:9845, H-A:ARG:545:NH2:4927, V-A:GLY:453:C:4041, V-A:ARG:545:CZ:4925, V-A:SER:385:CB:3408, V-A:LEU:475:CD2:4258, H-A:ARG:545:NE:4923, V-A:ILE:369:CD1:3238, V-A:ASP:366:CG:3212, V-B:GLU:543:CD:9879, V-A:GLU:543:CD:4907, V-A:ASP:366:CB:3211, V-A:HIS:383:CE1:3393, H-A:TYR:484:OH:4347, H-A:GLY:454:N:4049, H-A:ASP:366:OD2:3214, V-A:ARG:545:CD:4922, V-A:ARG:545:CG:4921, H-A:ASP:366:OD1:3213, V-A:GLY:454:CA:4048, V-A:VAL:384:C:3396, V-A:PRO:482:CB:4325, H-A:ARG:545:NH1:4926, V-A:THR:477:CG2:4272, V-A:PRO:482:CG:4326, V-A:ILE:455:C:4051"]

$$$$
3bf_Grossjean_2025
     RDKit          3D

 26 28  0  0  0  0  0  0  0  0999 V2000
  134.2440  123.7400   62.8520 C   0  0  0  0  0  0  0  0  0  0  0  0
  132.9310  122.9730   62.7100 C   0  0  0  0  0  0  0  0  0  0  0  0
  132.9460  121.7660   62.0020 C   0  0  0  0  0  0  0  0  0  0  0  0
  131.7680  121.0240   61.8610 C   0  0  0  0  0  0  0  0  0  0  0  0
  131.7220  119.7140   61.1340 C   0  0  0  0  0  0  0  0  0  0  0  0
  132.7490  119.3490   60.2490 C   0  0  0  0  0  0  0  0  0  0  0  0
  132.7130  118.1340   59.5700 C   0  0  0  0  0  0  0  0  0  0  0  0
  131.6450  117.2650   59.7680 C   0  0  0  0  0  0  0  0  0  0  0  0
  130.6140  117.6030   60.6380 C   0  0  0  0  0  0  0  0  0  0  0  0
  130.6540  118.8200   61.3140 C   0  0  0  0  0  0  0  0  0  0  0  0
  130.6000  121.4600   62.4030 N   0  0  0  0  0  0  0  0  0  0  0  0
  130.5650  122.6390   63.0710 C   0  0  0  0  0  0  0  0  0  0  0  0
  128.9530  123.0510   63.7050 S   0  0  0  0  0  0  0  0  0  0  0  0
  128.1590  124.2010   62.5310 C   0  0  0  0  0  0  0  0  0  0  0  0
  127.3000  123.5350   61.4460 C   0  0  0  0  0  0  0  0  0  0  0  0
  126.2980  122.8860   61.7480 O   0  0  0  0  0  0  0  0  0  0  0  0
  127.7220  123.7530   60.1820 N   0  0  0  0  0  0  0  0  0  0  0  0
  127.1730  123.2830   58.9740 C   0  0  0  0  0  0  0  0  0  0  0  0
  125.8450  123.6270   58.6990 C   0  0  0  0  0  0  0  0  0  0  0  0
  125.2480  123.2020   57.5110 C   0  0  0  0  0  0  0  0  0  0  0  0
  126.0050  122.4410   56.6200 C   0  0  0  0  0  0  0  0  0  0  0  0
  127.2970  122.1010   56.8550 N   0  0  0  0  0  0  0  0  0  0  0  0
  127.8650  122.5220   58.0150 C   0  0  0  0  0  0  0  0  0  0  0  0
  131.7180  123.4300   63.2680 C   0  0  0  0  0  0  0  0  0  0  0  0
  131.6900  124.6660   64.0560 C   0  0  0  0  0  0  0  0  0  0  0  0
  131.6700  125.6430   64.6760 N   0  0  0  0  0  0  0  0  0  0  0  0
  1  2  1  0
  2  3  2  0
  3  4  1  0
  4  5  1  0
  5  6  2  0
  6  7  1  0
  7  8  2  0
  8  9  1  0
  9 10  2  0
  4 11  2  0
 11 12  1  0
 12 13  1  0
 13 14  1  0
 14 15  1  0
 15 16  2  0
 15 17  1  0
 17 18  1  0
 18 19  2  0
 19 20  1  0
 20 21  2  0
 21 22  1  0
 22 23  2  0
 12 24  2  0
 24 25  1  0
 25 26  3  0
 24  2  1  0
 10  5  1  0
 23 18  1  0
M  END
>  <Binding energies>  (20) 
[-9.28]

>  <Ligand effiencies>  (20) 
[-0.3437037037037037]

>  <Interactions>  (20) 
["V-B:ALA:541:CB:9863, V-B:TYR:539:CE2:9847, V-A:ILE:369:CG2:3236, V-B:PRO:540:CB:9856, H-B:ALA:541:N:9862, V-B:PRO:540:CA:9854, V-A:SER:385:CA:3406, V-B:TYR:539:CD2:9845, V-A:GLY:453:C:4041, V-B:LEU:363:CD1:8159, V-A:LEU:475:CD2:4258, V-B:TYR:539:C:9838, V-A:ILE:369:CD1:3238, V-B:PRO:540:N:9855, V-B:PRO:540:CD:9858, V-B:GLU:543:CD:9879, V-B:TYR:539:CG:9843, V-B:TYR:539:CB:9842, V-A:HIS:383:CE1:3393, H-B:TYR:539:N:9841, H-A:TYR:484:OH:4347, V-A:GLY:454:CA:4048, V-A:LEU:373:CD2:3280, V-A:PRO:482:CG:4326"]

$$$$
3bg_Grossjean_2025
     RDKit          3D

 27 29  0  0  0  0  0  0  0  0999 V2000
  134.2050  123.6620   62.7630 C   0  0  0  0  0  0  0  0  0  0  0  0
  132.9460  122.7990   62.6950 C   0  0  0  0  0  0  0  0  0  0  0  0
  132.9690  121.6590   61.8860 C   0  0  0  0  0  0  0  0  0  0  0  0
  131.8390  120.8350   61.8010 C   0  0  0  0  0  0  0  0  0  0  0  0
  131.8010  119.5890   60.9600 C   0  0  0  0  0  0  0  0  0  0  0  0
  130.7610  118.6550   61.0950 C   0  0  0  0  0  0  0  0  0  0  0  0
  130.7130  117.5090   60.3060 C   0  0  0  0  0  0  0  0  0  0  0  0
  131.7110  117.2760   59.3670 C   0  0  0  0  0  0  0  0  0  0  0  0
  132.7590  118.1760   59.2190 C   0  0  0  0  0  0  0  0  0  0  0  0
  132.8040  119.3200   60.0110 C   0  0  0  0  0  0  0  0  0  0  0  0
  130.7180  121.1250   62.5140 N   0  0  0  0  0  0  0  0  0  0  0  0
  130.6800  122.2270   63.3060 C   0  0  0  0  0  0  0  0  0  0  0  0
  129.1620  122.4750   64.2150 S   0  0  0  0  0  0  0  0  0  0  0  0
  127.8540  122.9270   63.0290 C   0  0  0  0  0  0  0  0  0  0  0  0
  128.4310  123.3310   61.6690 C   0  0  0  0  0  0  0  0  0  0  0  0
  128.7550  124.5010   61.4630 O   0  0  0  0  0  0  0  0  0  0  0  0
  128.5300  122.3570   60.7480 N   0  0  0  0  0  0  0  0  0  0  0  0
  128.8780  122.5510   59.3400 C   0  0  0  0  0  0  0  0  0  0  0  0
  127.6410  122.7610   58.4750 C   0  0  0  0  0  0  0  0  0  0  0  0
  126.5220  123.4160   59.0000 C   0  0  0  0  0  0  0  0  0  0  0  0
  125.3890  123.5980   58.2130 C   0  0  0  0  0  0  0  0  0  0  0  0
  125.3810  123.1360   56.8980 C   0  0  0  0  0  0  0  0  0  0  0  0
  126.4990  122.5010   56.3610 C   0  0  0  0  0  0  0  0  0  0  0  0
  127.6330  122.3180   57.1490 C   0  0  0  0  0  0  0  0  0  0  0  0
  131.7770  123.1060   63.4220 C   0  0  0  0  0  0  0  0  0  0  0  0
  131.7250  124.2900   64.2840 C   0  0  0  0  0  0  0  0  0  0  0  0
  131.6850  125.2250   64.9630 N   0  0  0  0  0  0  0  0  0  0  0  0
  1  2  1  0
  2  3  2  0
  3  4  1  0
  4  5  1  0
  5  6  2  0
  6  7  1  0
  7  8  2  0
  8  9  1  0
  9 10  2  0
  4 11  2  0
 11 12  1  0
 12 13  1  0
 13 14  1  0
 14 15  1  0
 15 16  2  0
 15 17  1  0
 17 18  1  0
 18 19  1  0
 19 20  2  0
 20 21  1  0
 21 22  2  0
 22 23  1  0
 23 24  2  0
 12 25  2  0
 25 26  1  0
 26 27  3  0
 25  2  1  0
 10  5  1  0
 24 19  1  0
M  END
>  <Binding energies>  (21) 
[-8.82]

>  <Ligand effiencies>  (21) 
[-0.315]

>  <Interactions>  (21) 
["V-B:ALA:541:CB:9863, V-B:TYR:539:CE2:9847, V-A:ILE:369:CG2:3236, V-B:PRO:540:CB:9856, V-B:MET:535:CE:9806, V-B:PRO:540:CA:9854, V-B:TYR:539:CD2:9845, V-A:GLY:453:C:4041, V-B:TYR:531:CE2:9764, V-B:PRO:540:C:9852, V-B:LEU:363:CD1:8159, V-A:LEU:475:CD2:4258, V-B:TYR:539:C:9838, V-A:ILE:369:CD1:3238, V-B:PRO:540:N:9855, V-B:PRO:540:CD:9858, V-B:GLU:543:CD:9879, V-B:TYR:539:CG:9843, V-B:TYR:539:CB:9842, V-A:HIS:383:CE1:3393, H-B:TYR:539:O:9839, V-B:TYR:539:CZ:9848, H-A:TYR:484:OH:4347, V-B:ALA:541:CA:9861, V-B:TYR:539:CE1:9846, V-B:TYR:539:CD1:9844, V-B:ALA:541:C:9859, V-B:TYR:539:CA:9840, V-A:GLY:454:CA:4048, V-A:LEU:373:CG:3278, V-A:LEU:373:CD2:3280"]

$$$$
3ca_Grossjean_2025
     RDKit          3D

 31 33  0  0  0  0  0  0  0  0999 V2000
  123.8180  124.0300   58.6100 C   0  0  0  0  0  0  0  0  0  0  0  0
  125.2670  124.4090   58.2920 C   0  0  0  0  0  0  0  0  0  0  0  0
  125.6180  123.9030   57.0100 O   0  0  0  0  0  0  0  0  0  0  0  0
  126.6820  123.0750   56.8500 C   0  0  0  0  0  0  0  0  0  0  0  0
  126.6710  122.0890   56.1060 O   0  0  0  0  0  0  0  0  0  0  0  0
  127.8770  123.4810   57.6640 C   0  0  0  0  0  0  0  0  0  0  0  0
  128.3060  122.6530   58.7090 C   0  0  0  0  0  0  0  0  0  0  0  0
  129.4110  123.0020   59.4810 C   0  0  0  0  0  0  0  0  0  0  0  0
  130.1040  124.1870   59.2300 C   0  0  0  0  0  0  0  0  0  0  0  0
  131.2050  124.4430   60.0690 N   0  0  0  0  0  0  0  0  0  0  0  0
  132.5270  124.3830   59.7980 C   0  0  0  0  0  0  0  0  0  0  0  0
  133.0180  124.0970   58.7060 O   0  0  0  0  0  0  0  0  0  0  0  0
  133.4520  124.7280   60.9700 C   0  0  0  0  0  0  0  0  0  0  0  0
  132.7480  124.2870   62.5930 S   0  0  0  0  0  0  0  0  0  0  0  0
  131.4700  123.0540   62.3870 C   0  0  0  0  0  0  0  0  0  0  0  0
  130.2210  123.4360   62.7540 N   0  0  0  0  0  0  0  0  0  0  0  0
  129.2010  122.5620   62.6060 C   0  0  0  0  0  0  0  0  0  0  0  0
  127.8340  123.0690   63.0210 C   0  0  0  0  0  0  0  0  0  0  0  0
  129.3840  121.2760   62.1040 C   0  0  0  0  0  0  0  0  0  0  0  0
  130.6670  120.8510   61.7350 C   0  0  0  0  0  0  0  0  0  0  0  0
  130.8170  119.4590   61.2150 C   0  0  0  0  0  0  0  0  0  0  0  0
  131.7980  119.1670   60.2600 C   0  0  0  0  0  0  0  0  0  0  0  0
  131.9390  117.8740   59.7620 C   0  0  0  0  0  0  0  0  0  0  0  0
  131.0940  116.8660   60.2170 C   0  0  0  0  0  0  0  0  0  0  0  0
  130.1080  117.1400   61.1630 C   0  0  0  0  0  0  0  0  0  0  0  0
  129.9700  118.4350   61.6570 C   0  0  0  0  0  0  0  0  0  0  0  0
  131.7440  121.7650   61.8700 C   0  0  0  0  0  0  0  0  0  0  0  0
  133.1000  121.3960   61.4520 C   0  0  0  0  0  0  0  0  0  0  0  0
  134.1700  121.1030   61.1220 N   0  0  0  0  0  0  0  0  0  0  0  0
  129.6860  125.0190   58.1800 C   0  0  0  0  0  0  0  0  0  0  0  0
  128.5820  124.6670   57.4070 C   0  0  0  0  0  0  0  0  0  0  0  0
  1  2  1  0
  2  3  1  0
  3  4  1  0
  4  5  2  0
  4  6  1  0
  6  7  2  0
  7  8  1  0
  8  9  2  0
  9 10  1  0
 10 11  1  0
 11 12  2  0
 11 13  1  0
 13 14  1  0
 14 15  1  0
 15 16  2  0
 16 17  1  0
 17 18  1  0
 17 19  2  0
 19 20  1  0
 20 21  1  0
 21 22  2  0
 22 23  1  0
 23 24  2  0
 24 25  1  0
 25 26  2  0
 20 27  2  0
 27 28  1  0
 28 29  3  0
  9 30  1  0
 30 31  2  0
 31  6  1  0
 27 15  1  0
 26 21  1  0
M  END
>  <Binding energies>  (22) 
[-9.05]

>  <Ligand effiencies>  (22) 
[-0.2828125]

>  <Interactions>  (22) 
["V-B:ALA:541:CB:9863, V-B:TYR:539:CE2:9847, V-A:ILE:369:CG2:3236, V-B:PRO:540:CB:9856, V-B:MET:535:CE:9806, V-B:PRO:540:CA:9854, V-B:TYR:539:CD2:9845, V-B:LEU:363:CA:8155, V-B:LEU:363:CD1:8159, V-A:LEU:475:CD2:4258, V-B:TYR:539:C:9838, V-A:ILE:369:CD1:3238, V-A:ASP:366:CG:3212, V-B:PRO:540:N:9855, V-B:GLU:543:CD:9879, V-A:ASP:366:CB:3211, V-B:TYR:539:CG:9843, V-B:TYR:539:CB:9842, V-A:HIS:383:CE1:3393, H-B:TYR:539:N:9841, V-B:TYR:539:CZ:9848, V-B:ALA:541:CA:9861, H-B:TYR:539:OH:9849, H-B:TYR:531:OH:9766, H-A:ASP:366:OD2:3214, V-A:PRO:482:CB:4325, V-A:PRO:482:CG:4326, V-B:VAL:344:CG1:7971"]

$$$$
3ce_Grossjean_2025
     RDKit          3D

 27 29  0  0  0  0  0  0  0  0999 V2000
  133.7890  119.1210   59.4730 C   0  0  0  0  0  0  0  0  0  0  0  0
  132.5100  118.7770   60.2110 C   0  0  0  0  0  0  0  0  0  0  0  0
  132.1260  117.4520   60.4310 C   0  0  0  0  0  0  0  0  0  0  0  0
  130.9420  117.2100   61.1270 C   0  0  0  0  0  0  0  0  0  0  0  0
  130.1770  118.2870   61.5820 C   0  0  0  0  0  0  0  0  0  0  0  0
  130.6140  119.5900   61.3190 C   0  0  0  0  0  0  0  0  0  0  0  0
  129.8140  120.6330   61.8170 N   0  0  0  0  0  0  0  0  0  0  0  0
  130.1550  121.5990   62.6990 C   0  0  0  0  0  0  0  0  0  0  0  0
  131.2660  121.7210   63.2190 O   0  0  0  0  0  0  0  0  0  0  0  0
  129.0530  122.5990   63.0450 C   0  0  0  0  0  0  0  0  0  0  0  0
  129.4910  124.2910   62.5460 S   0  0  0  0  0  0  0  0  0  0  0  0
  129.3360  124.3280   60.7760 C   0  0  0  0  0  0  0  0  0  0  0  0
  130.4130  124.8510   60.1390 N   0  0  0  0  0  0  0  0  0  0  0  0
  130.4010  124.9080   58.7880 C   0  0  0  0  0  0  0  0  0  0  0  0
  131.6420  125.4910   58.1400 C   0  0  0  0  0  0  0  0  0  0  0  0
  129.3210  124.4640   58.0280 C   0  0  0  0  0  0  0  0  0  0  0  0
  128.1880  123.9450   58.6690 C   0  0  0  0  0  0  0  0  0  0  0  0
  127.0460  123.5050   57.8130 C   0  0  0  0  0  0  0  0  0  0  0  0
  125.7650  124.0290   58.0270 C   0  0  0  0  0  0  0  0  0  0  0  0
  124.6940  123.6190   57.2370 C   0  0  0  0  0  0  0  0  0  0  0  0
  124.8970  122.6780   56.2330 C   0  0  0  0  0  0  0  0  0  0  0  0
  126.1630  122.1390   56.0140 C   0  0  0  0  0  0  0  0  0  0  0  0
  127.2320  122.5510   56.8040 C   0  0  0  0  0  0  0  0  0  0  0  0
  128.1900  123.8670   60.0840 C   0  0  0  0  0  0  0  0  0  0  0  0
  127.0400  123.3200   60.8090 C   0  0  0  0  0  0  0  0  0  0  0  0
  126.1310  122.8870   61.3800 N   0  0  0  0  0  0  0  0  0  0  0  0
  131.7760  119.8340   60.6450 N   0  0  0  0  0  0  0  0  0  0  0  0
  1  2  1  0
  2  3  2  0
  3  4  1  0
  4  5  2  0
  5  6  1  0
  6  7  1  0
  7  8  1  0
  8  9  2  0
  8 10  1  0
 10 11  1  0
 11 12  1  0
 12 13  2  0
 13 14  1  0
 14 15  1  0
 14 16  2  0
 16 17  1  0
 17 18  1  0
 18 19  2  0
 19 20  1  0
 20 21  2  0
 21 22  1  0
 22 23  2  0
 17 24  2  0
 24 25  1  0
 25 26  3  0
  6 27  2  0
 27  2  1  0
 24 12  1  0
 23 18  1  0
M  END
>  <Binding energies>  (23) 
[-9.03]

>  <Ligand effiencies>  (23) 
[-0.32249999999999995]

>  <Interactions>  (23) 
["V-B:ALA:541:CB:9863, V-B:TYR:539:CE2:9847, V-A:ILE:369:CG2:3236, V-B:PRO:540:CB:9856, H-B:ALA:541:N:9862, V-B:MET:535:CE:9806, V-B:PRO:540:CA:9854, V-A:SER:385:CA:3406, V-B:TYR:531:CZ:9765, V-B:TYR:539:CD2:9845, V-B:TYR:531:CE2:9764, V-B:LEU:363:CD1:8159, V-A:LEU:475:CD2:4258, V-B:TYR:539:C:9838, V-B:PRO:540:N:9855, V-B:PRO:540:CD:9858, V-A:HIS:383:CE1:3393, H-B:TYR:539:O:9839, V-B:TYR:539:CZ:9848, V-B:ILE:538:CD1:9836, V-B:ILE:538:CG2:9834, V-B:ILE:538:CA:9831, V-B:ILE:538:C:9829, V-A:VAL:384:C:3396, V-A:PRO:482:CB:4325, V-A:LEU:373:CD2:3280, V-A:PRO:482:CG:4326"]

$$$$
3cj_Grossjean_2025
     RDKit          3D

 25 27  0  0  0  0  0  0  0  0999 V2000
  131.7210  125.1630   58.3770 C   0  0  0  0  0  0  0  0  0  0  0  0
  130.4400  124.6610   59.0130 C   0  0  0  0  0  0  0  0  0  0  0  0
  129.3320  124.3140   58.2430 C   0  0  0  0  0  0  0  0  0  0  0  0
  128.1750  123.8320   58.8710 C   0  0  0  0  0  0  0  0  0  0  0  0
  127.0360  123.4120   58.0030 C   0  0  0  0  0  0  0  0  0  0  0  0
  127.2390  122.5120   56.9500 C   0  0  0  0  0  0  0  0  0  0  0  0
  126.1790  122.1310   56.1320 C   0  0  0  0  0  0  0  0  0  0  0  0
  124.9100  122.6540   56.3630 C   0  0  0  0  0  0  0  0  0  0  0  0
  124.6940  123.5570   57.4000 C   0  0  0  0  0  0  0  0  0  0  0  0
  125.7560  123.9370   58.2170 C   0  0  0  0  0  0  0  0  0  0  0  0
  128.1620  123.7460   60.2850 C   0  0  0  0  0  0  0  0  0  0  0  0
  126.9720  123.2770   61.0020 C   0  0  0  0  0  0  0  0  0  0  0  0
  126.0320  122.9060   61.5670 N   0  0  0  0  0  0  0  0  0  0  0  0
  129.3320  124.1150   60.9860 C   0  0  0  0  0  0  0  0  0  0  0  0
  129.4970  123.9280   62.7490 S   0  0  0  0  0  0  0  0  0  0  0  0
  129.3460  122.1370   63.0450 C   0  0  0  0  0  0  0  0  0  0  0  0
  130.5130  121.3570   62.4310 C   0  0  0  0  0  0  0  0  0  0  0  0
  131.6670  121.6190   62.7760 O   0  0  0  0  0  0  0  0  0  0  0  0
  130.1650  120.3870   61.5580 N   0  0  0  0  0  0  0  0  0  0  0  0
  131.0100  119.4600   60.9720 C   0  0  0  0  0  0  0  0  0  0  0  0
  132.2050  119.6650   60.4600 N   0  0  0  0  0  0  0  0  0  0  0  0
  132.7380  118.5440   60.0150 C   0  0  0  0  0  0  0  0  0  0  0  0
  131.9680  117.3940   60.1600 C   0  0  0  0  0  0  0  0  0  0  0  0
  130.4630  117.8140   60.9240 S   0  0  0  0  0  0  0  0  0  0  0  0
  130.4530  124.5540   60.3600 N   0  0  0  0  0  0  0  0  0  0  0  0
  1  2  1  0
  2  3  2  0
  3  4  1  0
  4  5  1  0
  5  6  2  0
  6  7  1  0
  7  8  2  0
  8  9  1  0
  9 10  2  0
  4 11  2  0
 11 12  1  0
 12 13  3  0
 11 14  1  0
 14 15  1  0
 15 16  1  0
 16 17  1  0
 17 18  2  0
 17 19  1  0
 19 20  1  0
 20 21  2  0
 21 22  1  0
 22 23  2  0
 23 24  1  0
 14 25  2  0
 25  2  1  0
 10  5  1  0
 24 20  1  0
M  END
>  <Binding energies>  (24) 
[-8.14]

>  <Ligand effiencies>  (24) 
[-0.3130769230769231]

>  <Interactions>  (24) 
["V-B:ALA:541:CB:9863, V-B:TYR:539:CE2:9847, V-B:PRO:540:CB:9856, H-B:ALA:541:N:9862, V-B:MET:535:CE:9806, V-B:PRO:540:CA:9854, V-A:SER:385:CA:3406, V-B:TYR:539:CD2:9845, V-B:TYR:531:CE2:9764, V-B:PRO:540:C:9852, V-B:LEU:363:CD1:8159, V-A:LEU:475:CD2:4258, V-B:TYR:539:C:9838, V-B:PRO:540:N:9855, V-B:PRO:540:CD:9858, V-B:TYR:539:CG:9843, V-B:TYR:539:CB:9842, V-A:HIS:383:CE1:3393, H-B:TYR:539:O:9839, V-B:TYR:539:CZ:9848, V-B:ALA:541:CA:9861, V-B:ILE:538:CG2:9834, V-B:ILE:538:CA:9831, V-B:ILE:538:C:9829, V-A:PRO:482:CB:4325, V-A:PRO:482:CG:4326"]

$$$$
4ba_Grossjean_2025
     RDKit          3D

 28 30  0  0  0  0  0  0  0  0999 V2000
  125.5930  128.1480   68.3460 C   0  0  0  0  0  0  0  0  0  0  0  0
  124.4460  129.1730   68.4280 C   0  0  0  0  0  0  0  0  0  0  0  0
  123.8440  129.5910   67.0710 C   0  0  0  0  0  0  0  0  0  0  0  0
  122.6190  129.6300   66.9360 O   0  0  0  0  0  0  0  0  0  0  0  0
  124.7960  129.9410   65.9640 C   0  0  0  0  0  0  0  0  0  0  0  0
  124.8260  131.2510   65.4710 C   0  0  0  0  0  0  0  0  0  0  0  0
  125.6960  131.6030   64.4430 C   0  0  0  0  0  0  0  0  0  0  0  0
  126.5580  130.6540   63.8910 C   0  0  0  0  0  0  0  0  0  0  0  0
  127.3900  131.1150   62.8520 N   0  0  0  0  0  0  0  0  0  0  0  0
  128.4090  132.0080   62.8830 C   0  0  0  0  0  0  0  0  0  0  0  0
  128.7580  132.6260   63.8900 O   0  0  0  0  0  0  0  0  0  0  0  0
  129.0850  132.2290   61.6020 C   0  0  0  0  0  0  0  0  0  0  0  0
  128.2000  132.9080   60.2380 S   0  0  0  0  0  0  0  0  0  0  0  0
  129.6070  132.7900   59.2070 C   0  0  0  0  0  0  0  0  0  0  0  0
  129.5690  133.1810   57.9340 N   0  0  0  0  0  0  0  0  0  0  0  0
  130.7180  133.0400   57.2350 C   0  0  0  0  0  0  0  0  0  0  0  0
  130.6510  133.4830   55.7850 C   0  0  0  0  0  0  0  0  0  0  0  0
  131.8950  132.5280   57.7750 C   0  0  0  0  0  0  0  0  0  0  0  0
  131.9410  132.1140   59.1160 C   0  0  0  0  0  0  0  0  0  0  0  0
  133.2590  131.5590   59.6660 C   0  0  0  0  0  0  0  0  0  0  0  0
  133.7910  132.3260   60.6200 F   0  0  0  0  0  0  0  0  0  0  0  0
  133.0570  130.3510   60.1930 F   0  0  0  0  0  0  0  0  0  0  0  0
  134.1540  131.4660   58.6830 F   0  0  0  0  0  0  0  0  0  0  0  0
  130.7420  132.2440   59.8800 C   0  0  0  0  0  0  0  0  0  0  0  0
  130.4100  131.9240   61.2470 C   0  0  0  0  0  0  0  0  0  0  0  0
  131.3140  131.3720   62.1190 N   0  0  0  0  0  0  0  0  0  0  0  0
  126.5300  129.3380   64.3750 C   0  0  0  0  0  0  0  0  0  0  0  0
  125.6580  128.9880   65.4020 C   0  0  0  0  0  0  0  0  0  0  0  0
  1  2  1  0
  2  3  1  0
  3  4  2  0
  3  5  1  0
  5  6  2  0
  6  7  1  0
  7  8  2  0
  8  9  1  0
  9 10  1  0
 10 11  2  0
 10 12  1  0
 12 13  1  0
 13 14  1  0
 14 15  2  0
 15 16  1  0
 16 17  1  0
 16 18  2  0
 18 19  1  0
 19 20  1  0
 20 21  1  0
 20 22  1  0
 20 23  1  0
 19 24  2  0
 24 25  1  0
 25 26  1  0
  8 27  1  0
 27 28  2  0
 28  5  1  0
 25 12  2  0
 24 14  1  0
M  END
>  <Binding energies>  (25) 
[-7.86]

>  <Ligand effiencies>  (25) 
[-0.2535483870967742]

>  <Interactions>  (25) 
["H-A:GLU:543:OE2:4909, V-A:ASP:366:CG:3212, V-B:HIS:456:CE1:9040, V-A:ILE:538:CG2:4862, V-B:GLY:454:CA:9019, V-A:TYR:539:CD1:4872, V-A:ILE:538:CB:4861, V-A:ILE:538:CA:4859, V-A:TYR:539:C:4866, V-B:LEU:475:CD1:9228, V-B:GLU:543:CD:9879, V-A:PRO:540:CA:4882, V-A:PRO:540:CB:4884, V-B:ARG:545:CG:9893, V-A:GLU:543:CD:4907, V-A:ASN:362:C:3171, V-A:ASP:366:CB:3211, V-A:LEU:363:CA:3184, H-B:ILE:455:N:9025, H-B:GLY:454:N:9020, V-B:ARG:545:CD:9894, V-B:ARG:545:CB:9892, V-B:ARG:545:CZ:9897, H-B:ARG:545:NE:9895, V-A:PRO:540:N:4883, H-A:ASP:366:OD2:3214, V-A:LEU:363:CD1:3188, V-A:ASN:362:CB:3175, V-B:TYR:484:CZ:9317, V-A:LEU:363:C:3182, V-A:LEU:363:CB:3186, H-A:ALA:541:O:4888"]

$$$$
4bb_Grossjean_2025
     RDKit          3D

 27 29  0  0  0  0  0  0  0  0999 V2000
  132.4330  126.4480   67.2840 C   0  0  0  0  0  0  0  0  0  0  0  0
  133.0720  125.8720   66.0190 C   0  0  0  0  0  0  0  0  0  0  0  0
  134.3020  125.8450   65.9510 O   0  0  0  0  0  0  0  0  0  0  0  0
  132.1700  125.3820   64.9270 C   0  0  0  0  0  0  0  0  0  0  0  0
  131.5500  126.3090   64.0790 C   0  0  0  0  0  0  0  0  0  0  0  0
  130.7070  125.8810   63.0580 C   0  0  0  0  0  0  0  0  0  0  0  0
  130.4730  124.5190   62.8590 C   0  0  0  0  0  0  0  0  0  0  0  0
  129.6020  124.1960   61.8000 N   0  0  0  0  0  0  0  0  0  0  0  0
  128.3760  123.6180   61.8250 C   0  0  0  0  0  0  0  0  0  0  0  0
  127.8120  123.2370   62.8500 O   0  0  0  0  0  0  0  0  0  0  0  0
  127.7440  123.4370   60.5150 C   0  0  0  0  0  0  0  0  0  0  0  0
  128.6000  122.5920   59.2270 S   0  0  0  0  0  0  0  0  0  0  0  0
  127.2740  122.8440   58.1160 C   0  0  0  0  0  0  0  0  0  0  0  0
  127.3200  122.3920   56.8650 N   0  0  0  0  0  0  0  0  0  0  0  0
  126.2340  122.6490   56.1000 C   0  0  0  0  0  0  0  0  0  0  0  0
  126.3060  122.1230   54.6780 C   0  0  0  0  0  0  0  0  0  0  0  0
  125.1150  123.3420   56.5520 C   0  0  0  0  0  0  0  0  0  0  0  0
  125.0600  123.8210   57.8700 C   0  0  0  0  0  0  0  0  0  0  0  0
  123.8070  124.5780   58.3230 C   0  0  0  0  0  0  0  0  0  0  0  0
  122.8890  124.6900   57.3600 F   0  0  0  0  0  0  0  0  0  0  0  0
  123.2380  123.9380   59.3450 F   0  0  0  0  0  0  0  0  0  0  0  0
  124.1380  125.8110   58.7050 F   0  0  0  0  0  0  0  0  0  0  0  0
  126.1900  123.5670   58.7050 C   0  0  0  0  0  0  0  0  0  0  0  0
  126.4920  123.8960   60.0750 C   0  0  0  0  0  0  0  0  0  0  0  0
  125.6230  124.5900   60.8780 N   0  0  0  0  0  0  0  0  0  0  0  0
  131.0850  123.5850   63.7090 C   0  0  0  0  0  0  0  0  0  0  0  0
  131.9260  124.0160   64.7310 C   0  0  0  0  0  0  0  0  0  0  0  0
  1  2  1  0
  2  3  2  0
  2  4  1  0
  4  5  2  0
  5  6  1  0
  6  7  2  0
  7  8  1  0
  8  9  1  0
  9 10  2  0
  9 11  1  0
 11 12  1  0
 12 13  1  0
 13 14  2  0
 14 15  1  0
 15 16  1  0
 15 17  2  0
 17 18  1  0
 18 19  1  0
 19 20  1  0
 19 21  1  0
 19 22  1  0
 18 23  2  0
 23 24  1  0
 24 25  1  0
  7 26  1  0
 26 27  2  0
 27  4  1  0
 24 11  2  0
 23 13  1  0
M  END
>  <Binding energies>  (26) 
[-7.74]

>  <Ligand effiencies>  (26) 
[-0.258]

>  <Interactions>  (26) 
["V-B:TYR:539:CE2:9847, V-B:ASP:366:CB:8182, V-B:PRO:540:CB:9856, H-B:ALA:541:N:9862, V-B:MET:535:CE:9806, V-B:PRO:540:CA:9854, V-B:TYR:531:CZ:9765, V-B:TYR:539:CD2:9845, V-B:LEU:363:CA:8155, V-B:TYR:531:CE2:9764, V-A:ARG:545:CZ:4925, V-B:LEU:363:CD1:8159, V-B:TYR:539:C:9838, H-A:ARG:545:NE:4923, V-A:HIS:456:CE1:4069, V-B:ASP:366:CG:8183, V-B:PRO:540:N:9855, H-B:TYR:539:N:9841, H-A:TYR:484:OH:4347, H-A:GLY:454:N:4049, V-A:ARG:545:CD:4922, V-A:ARG:545:CG:4921, V-B:ILE:538:CD1:9836, V-B:ILE:538:CG2:9834, H-B:ASP:366:OD1:8184, V-B:ILE:538:CA:9831, V-B:ILE:538:C:9829, V-B:MET:535:CG:9804, V-B:ILE:538:CB:9833, H-A:ARG:545:NH1:4926, V-B:LEU:363:C:8153, V-B:LEU:363:CB:8157, V-B:LEU:363:CG:8158, V-B:ASN:362:C:8142, V-B:ILE:538:CG1:9835, V-B:VAL:537:C:9821"]

$$$$
4bd_Grossjean_2025
     RDKit          3D

 24 26  0  0  0  0  0  0  0  0999 V2000
  133.2210  125.4130   65.4190 C   0  0  0  0  0  0  0  0  0  0  0  0
  132.4770  124.5770   64.3940 C   0  0  0  0  0  0  0  0  0  0  0  0
  133.0580  123.4430   63.8330 C   0  0  0  0  0  0  0  0  0  0  0  0
  132.3600  122.6800   62.8850 C   0  0  0  0  0  0  0  0  0  0  0  0
  133.0420  121.4420   62.2930 C   0  0  0  0  0  0  0  0  0  0  0  0
  132.2140  120.4030   62.1610 F   0  0  0  0  0  0  0  0  0  0  0  0
  133.5230  121.7260   61.0830 F   0  0  0  0  0  0  0  0  0  0  0  0
  134.0410  121.0560   63.0850 F   0  0  0  0  0  0  0  0  0  0  0  0
  131.0480  123.1180   62.5330 C   0  0  0  0  0  0  0  0  0  0  0  0
  130.0530  122.6070   61.6220 C   0  0  0  0  0  0  0  0  0  0  0  0
  130.2500  121.4770   60.8720 N   0  0  0  0  0  0  0  0  0  0  0  0
  128.8730  123.3670   61.5740 C   0  0  0  0  0  0  0  0  0  0  0  0
  127.6770  123.1480   60.7550 C   0  0  0  0  0  0  0  0  0  0  0  0
  126.5980  122.8720   61.2800 O   0  0  0  0  0  0  0  0  0  0  0  0
  127.8560  123.2820   59.4170 N   0  0  0  0  0  0  0  0  0  0  0  0
  126.9360  123.1000   58.3690 C   0  0  0  0  0  0  0  0  0  0  0  0
  125.6620  123.6390   58.5710 C   0  0  0  0  0  0  0  0  0  0  0  0
  124.6840  123.5190   57.5880 C   0  0  0  0  0  0  0  0  0  0  0  0
  124.9820  122.8670   56.3950 C   0  0  0  0  0  0  0  0  0  0  0  0
  126.2510  122.3370   56.1750 C   0  0  0  0  0  0  0  0  0  0  0  0
  127.2320  122.4540   57.1560 C   0  0  0  0  0  0  0  0  0  0  0  0
  128.9580  124.7450   62.6690 S   0  0  0  0  0  0  0  0  0  0  0  0
  130.5690  124.2980   63.1810 C   0  0  0  0  0  0  0  0  0  0  0  0
  131.2360  125.0180   64.0810 N   0  0  0  0  0  0  0  0  0  0  0  0
  1  2  1  0
  2  3  2  0
  3  4  1  0
  4  5  1  0
  5  6  1  0
  5  7  1  0
  5  8  1  0
  4  9  2  0
  9 10  1  0
 10 11  1  0
 10 12  2  0
 12 13  1  0
 13 14  2  0
 13 15  1  0
 15 16  1  0
 16 17  2  0
 17 18  1  0
 18 19  2  0
 19 20  1  0
 20 21  2  0
 12 22  1  0
 22 23  1  0
 23 24  2  0
 24  2  1  0
 23  9  1  0
 21 16  1  0
M  END
>  <Binding energies>  (27) 
[-6.34]

>  <Ligand effiencies>  (27) 
[-0.2348148148148148]

>  <Interactions>  (27) 
["V-B:TYR:539:CE2:9847, V-A:ILE:369:CG2:3236, V-B:PRO:540:CB:9856, H-B:ALA:541:N:9862, V-B:MET:535:CE:9806, V-B:PRO:540:CA:9854, V-A:SER:385:C:3404, V-A:SER:385:CA:3406, V-B:TYR:531:CZ:9765, V-B:TYR:539:CD2:9845, V-B:TYR:531:CE2:9764, V-A:ARG:545:CZ:4925, V-B:LEU:363:CD1:8159, V-A:SER:385:CB:3408, V-A:LEU:475:CD2:4258, V-B:TYR:539:C:9838, V-A:ILE:369:CD1:3238, V-B:PRO:540:N:9855, V-B:PRO:540:CD:9858, V-B:TYR:539:CG:9843, H-B:TYR:539:O:9839, V-B:ILE:538:CA:9831, V-B:TYR:539:CA:9840, V-A:GLY:454:CA:4048"]

$$$$
4be_Grossjean_2025
     RDKit          3D

 25 27  0  0  0  0  0  0  0  0999 V2000
  121.8180  131.4890   62.4820 C   0  0  0  0  0  0  0  0  0  0  0  0
  123.0920  130.6670   62.4360 C   0  0  0  0  0  0  0  0  0  0  0  0
  123.7350  130.3810   61.2290 C   0  0  0  0  0  0  0  0  0  0  0  0
  124.9010  129.6170   61.2630 C   0  0  0  0  0  0  0  0  0  0  0  0
  125.3920  129.1610   62.4890 C   0  0  0  0  0  0  0  0  0  0  0  0
  124.7020  129.4890   63.6620 C   0  0  0  0  0  0  0  0  0  0  0  0
  125.2440  128.9940   64.8610 N   0  0  0  0  0  0  0  0  0  0  0  0
  124.9850  129.3780   66.1360 C   0  0  0  0  0  0  0  0  0  0  0  0
  124.1830  130.2660   66.4350 O   0  0  0  0  0  0  0  0  0  0  0  0
  125.7470  128.6770   67.1730 C   0  0  0  0  0  0  0  0  0  0  0  0
  124.9810  128.2590   68.7040 S   0  0  0  0  0  0  0  0  0  0  0  0
  126.4630  127.5520   69.3040 C   0  0  0  0  0  0  0  0  0  0  0  0
  126.5320  127.0100   70.5190 N   0  0  0  0  0  0  0  0  0  0  0  0
  127.7320  126.4920   70.8710 C   0  0  0  0  0  0  0  0  0  0  0  0
  127.7910  125.8830   72.2600 C   0  0  0  0  0  0  0  0  0  0  0  0
  128.8510  126.5020   70.0440 C   0  0  0  0  0  0  0  0  0  0  0  0
  128.7850  127.0710   68.7620 C   0  0  0  0  0  0  0  0  0  0  0  0
  130.0420  127.0550   67.8870 C   0  0  0  0  0  0  0  0  0  0  0  0
  130.8250  125.9970   68.1170 F   0  0  0  0  0  0  0  0  0  0  0  0
  129.6960  127.0200   66.6000 F   0  0  0  0  0  0  0  0  0  0  0  0
  130.7680  128.1480   68.1190 F   0  0  0  0  0  0  0  0  0  0  0  0
  127.5350  127.6290   68.3620 C   0  0  0  0  0  0  0  0  0  0  0  0
  127.0950  128.2880   67.1560 C   0  0  0  0  0  0  0  0  0  0  0  0
  127.9260  128.5070   66.0870 N   0  0  0  0  0  0  0  0  0  0  0  0
  123.5570  130.2320   63.6360 N   0  0  0  0  0  0  0  0  0  0  0  0
  1  2  1  0
  2  3  2  0
  3  4  1  0
  4  5  2  0
  5  6  1  0
  6  7  1  0
  7  8  1  0
  8  9  2  0
  8 10  1  0
 10 11  1  0
 11 12  1  0
 12 13  2  0
 13 14  1  0
 14 15  1  0
 14 16  2  0
 16 17  1  0
 17 18  1  0
 18 19  1  0
 18 20  1  0
 18 21  1  0
 17 22  2  0
 22 23  1  0
 23 24  1  0
  6 25  2  0
 25  2  1  0
 23 10  2  0
 22 12  1  0
M  END
>  <Binding energies>  (28) 
[-6.72]

>  <Ligand effiencies>  (28) 
[-0.24]

>  <Interactions>  (28) 
["V-B:ASP:366:CB:8182, V-A:HIS:456:CE1:4069, V-B:GLY:544:C:9883, V-B:GLU:543:CB:9877, V-B:GLU:543:C:9873, V-B:HIS:456:CE1:9040, V-B:GLY:544:CA:9885, V-A:HIS:456:CD2:4067, V-B:ASP:366:CG:8183, V-B:ILE:369:CG1:8208, V-B:GLY:453:CA:9014, V-B:GLY:453:C:9012, V-B:GLU:543:CD:9879, V-B:ARG:545:CG:9893, V-A:GLU:543:CD:4907, V-A:GLU:543:CB:4905, V-A:GLU:543:CG:4906, H-B:HIS:456:ND1:9037, H-B:GLY:454:N:9020, V-B:ARG:545:CA:9890, V-B:ARG:545:CD:9894, V-B:ARG:545:CB:9892, H-B:TYR:484:OH:9318, V-B:ARG:545:CZ:9897, H-B:GLU:543:OE1:9880, H-B:GLU:543:OE2:9881, V-A:TYR:484:CZ:4346, V-A:TYR:484:CE2:4345, H-B:ARG:545:N:9891"]

$$$$
4bg_Grossjean_2025
     RDKit          3D

 25 27  0  0  0  0  0  0  0  0999 V2000
  126.7360  122.1270   54.9590 C   0  0  0  0  0  0  0  0  0  0  0  0
  126.4870  122.6230   56.3720 C   0  0  0  0  0  0  0  0  0  0  0  0
  125.3360  123.3390   56.6880 C   0  0  0  0  0  0  0  0  0  0  0  0
  125.1210  123.7970   57.9980 C   0  0  0  0  0  0  0  0  0  0  0  0
  123.8390  124.5820   58.2980 C   0  0  0  0  0  0  0  0  0  0  0  0
  123.0470  124.7150   57.2320 F   0  0  0  0  0  0  0  0  0  0  0  0
  123.1370  123.9530   59.2410 F   0  0  0  0  0  0  0  0  0  0  0  0
  124.1480  125.8070   58.7210 F   0  0  0  0  0  0  0  0  0  0  0  0
  126.1230  123.4950   58.9670 C   0  0  0  0  0  0  0  0  0  0  0  0
  126.2520  123.7950   60.3720 C   0  0  0  0  0  0  0  0  0  0  0  0
  125.3150  124.5180   61.0660 N   0  0  0  0  0  0  0  0  0  0  0  0
  127.4140  123.2770   60.9630 C   0  0  0  0  0  0  0  0  0  0  0  0
  127.8740  123.4150   62.3440 C   0  0  0  0  0  0  0  0  0  0  0  0
  127.1630  123.9240   63.2110 O   0  0  0  0  0  0  0  0  0  0  0  0
  129.1000  122.9170   62.6110 N   0  0  0  0  0  0  0  0  0  0  0  0
  129.7680  122.9560   63.9120 C   0  0  0  0  0  0  0  0  0  0  0  0
  131.0700  123.7450   63.9050 C   0  0  0  0  0  0  0  0  0  0  0  0
  131.2240  124.8530   64.7440 C   0  0  0  0  0  0  0  0  0  0  0  0
  132.4290  125.5490   64.7630 C   0  0  0  0  0  0  0  0  0  0  0  0
  133.4830  125.1280   63.9550 C   0  0  0  0  0  0  0  0  0  0  0  0
  133.3430  124.0150   63.1300 C   0  0  0  0  0  0  0  0  0  0  0  0
  132.1370  123.3190   63.1090 C   0  0  0  0  0  0  0  0  0  0  0  0
  128.4100  122.4280   59.7830 S   0  0  0  0  0  0  0  0  0  0  0  0
  127.2530  122.7470   58.5130 C   0  0  0  0  0  0  0  0  0  0  0  0
  127.4530  122.3160   57.2680 N   0  0  0  0  0  0  0  0  0  0  0  0
  1  2  1  0
  2  3  2  0
  3  4  1  0
  4  5  1  0
  5  6  1  0
  5  7  1  0
  5  8  1  0
  4  9  2  0
  9 10  1  0
 10 11  1  0
 10 12  2  0
 12 13  1  0
 13 14  2  0
 13 15  1  0
 15 16  1  0
 16 17  1  0
 17 18  2  0
 18 19  1  0
 19 20  2  0
 20 21  1  0
 21 22  2  0
 12 23  1  0
 23 24  1  0
 24 25  2  0
 25  2  1  0
 24  9  1  0
 22 17  1  0
M  END
>  <Binding energies>  (29) 
[-6.72]

>  <Ligand effiencies>  (29) 
[-0.24]

>  <Interactions>  (29) 
["V-B:ALA:541:CB:9863, V-B:TYR:539:CE2:9847, V-B:ASP:366:CB:8182, V-B:PRO:540:CB:9856, V-B:MET:535:CE:9806, V-B:PRO:540:CA:9854, V-B:TYR:531:CZ:9765, V-B:TYR:539:CD2:9845, V-B:LEU:363:CA:8155, V-B:TYR:531:CE2:9764, V-A:ARG:545:CZ:4925, V-B:LEU:363:CD1:8159, V-B:TYR:539:C:9838, V-B:ASP:366:CG:8183, V-B:PRO:540:N:9855, H-B:GLU:543:OE1:9880, H-B:TYR:539:N:9841, V-B:TYR:539:CD1:9844, V-B:ILE:538:CD1:9836, H-B:ASP:366:OD1:8184, V-B:ILE:538:CA:9831, V-B:ILE:538:C:9829, V-A:GLY:454:CA:4048, V-B:MET:535:CG:9804, V-B:ILE:538:CB:9833, V-B:TYR:531:CD2:9762, V-B:LEU:363:CB:8157, V-B:LEU:363:CG:8158, V-B:ASN:362:C:8142, V-B:VAL:537:C:9821"]

$$$$
4ca_Grossjean_2025
     RDKit          3D

 34 37  0  0  0  0  0  0  0  0999 V2000
  130.4390  132.9780   54.4590 C   0  0  0  0  0  0  0  0  0  0  0  0
  129.3820  133.6850   55.3130 C   0  0  0  0  0  0  0  0  0  0  0  0
  129.8300  133.7490   56.6610 O   0  0  0  0  0  0  0  0  0  0  0  0
  131.0980  133.3970   56.9970 C   0  0  0  0  0  0  0  0  0  0  0  0
  132.0780  134.1250   56.8110 O   0  0  0  0  0  0  0  0  0  0  0  0
  131.1880  132.0350   57.6220 C   0  0  0  0  0  0  0  0  0  0  0  0
  130.0480  131.2210   57.6570 C   0  0  0  0  0  0  0  0  0  0  0  0
  130.1010  129.9520   58.2250 C   0  0  0  0  0  0  0  0  0  0  0  0
  131.2900  129.4720   58.7760 C   0  0  0  0  0  0  0  0  0  0  0  0
  131.2340  128.1730   59.3150 N   0  0  0  0  0  0  0  0  0  0  0  0
  130.1860  127.4900   59.8400 C   0  0  0  0  0  0  0  0  0  0  0  0
  129.0330  127.9190   59.8820 O   0  0  0  0  0  0  0  0  0  0  0  0
  130.5050  126.1560   60.3550 C   0  0  0  0  0  0  0  0  0  0  0  0
  130.2440  124.7320   59.3510 S   0  0  0  0  0  0  0  0  0  0  0  0
  130.8700  123.6820   60.5990 C   0  0  0  0  0  0  0  0  0  0  0  0
  130.9430  122.3650   60.4250 N   0  0  0  0  0  0  0  0  0  0  0  0
  131.4570  121.6300   61.4450 C   0  0  0  0  0  0  0  0  0  0  0  0
  131.5360  120.1490   61.2140 C   0  0  0  0  0  0  0  0  0  0  0  0
  130.4820  119.3040   61.5980 C   0  0  0  0  0  0  0  0  0  0  0  0
  130.5520  117.9290   61.3920 C   0  0  0  0  0  0  0  0  0  0  0  0
  131.6820  117.3760   60.7970 C   0  0  0  0  0  0  0  0  0  0  0  0
  132.7410  118.1900   60.4090 C   0  0  0  0  0  0  0  0  0  0  0  0
  132.6670  119.5640   60.6170 C   0  0  0  0  0  0  0  0  0  0  0  0
  131.8730  122.2200   62.6440 C   0  0  0  0  0  0  0  0  0  0  0  0
  131.7950  123.6070   62.8390 C   0  0  0  0  0  0  0  0  0  0  0  0
  132.2710  124.1870   64.1760 C   0  0  0  0  0  0  0  0  0  0  0  0
  133.1840  125.1500   64.0330 F   0  0  0  0  0  0  0  0  0  0  0  0
  131.2380  124.7120   64.8350 F   0  0  0  0  0  0  0  0  0  0  0  0
  132.8220  123.2240   64.9150 F   0  0  0  0  0  0  0  0  0  0  0  0
  131.2740  124.3890   61.7690 C   0  0  0  0  0  0  0  0  0  0  0  0
  131.0550  125.8050   61.5990 C   0  0  0  0  0  0  0  0  0  0  0  0
  131.3590  126.7230   62.5720 N   0  0  0  0  0  0  0  0  0  0  0  0
  132.4380  130.2770   58.7400 C   0  0  0  0  0  0  0  0  0  0  0  0
  132.3840  131.5460   58.1690 C   0  0  0  0  0  0  0  0  0  0  0  0
  1  2  1  0
  2  3  1  0
  3  4  1  0
  4  5  2  0
  4  6  1  0
  6  7  2  0
  7  8  1  0
  8  9  2  0
  9 10  1  0
 10 11  1  0
 11 12  2  0
 11 13  1  0
 13 14  1  0
 14 15  1  0
 15 16  2  0
 16 17  1  0
 17 18  1  0
 18 19  2  0
 19 20  1  0
 20 21  2  0
 21 22  1  0
 22 23  2  0
 17 24  2  0
 24 25  1  0
 25 26  1  0
 26 27  1  0
 26 28  1  0
 26 29  1  0
 25 30  2  0
 30 31  1  0
 31 32  1  0
  9 33  1  0
 33 34  2  0
 34  6  1  0
 31 13  2  0
 30 15  1  0
 23 18  1  0
M  END
>  <Binding energies>  (30) 
[-8.91]

>  <Ligand effiencies>  (30) 
[-0.24081081081081082]

>  <Interactions>  (30) 
["V-B:ALA:541:CB:9863, V-B:TYR:539:CE2:9847, V-A:SER:385:CA:3406, V-B:TYR:539:CD2:9845, H-A:GLU:543:OE2:4909, V-A:ARG:545:CZ:4925, V-A:SER:385:CB:3408, V-A:LEU:475:CD2:4258, V-A:ASP:366:CG:3212, V-A:TYR:539:CZ:4876, V-A:TYR:539:CG:4871, V-A:MET:535:CG:4832, V-A:ILE:538:CG2:4862, V-A:TYR:539:CD1:4872, V-A:ILE:538:CB:4861, V-A:TYR:539:CE2:4875, V-A:ILE:538:CA:4859, V-A:TYR:539:C:4866, V-A:ILE:538:C:4857, V-A:TYR:539:CE1:4874, V-A:PRO:540:CA:4882, V-A:ASP:366:CB:3211, V-A:HIS:383:CE1:3393, H-A:TYR:539:N:4869, V-A:PRO:540:N:4883, V-A:PRO:540:CD:4886, V-A:TYR:484:CZ:4346, H-A:ASP:366:OD2:3214, V-A:TYR:531:CE2:4792, V-A:MET:535:CB:4831, H-A:ASP:366:OD1:3213, V-A:GLY:454:CA:4048, V-A:PRO:482:CB:4325, V-A:TYR:539:CD2:4873, V-A:PRO:482:CG:4326"]

$$$$
4cb_Grossjean_2025
     RDKit          3D

 33 36  0  0  0  0  0  0  0  0999 V2000
  129.4240  133.5810   55.1410 C   0  0  0  0  0  0  0  0  0  0  0  0
  129.8580  133.7560   56.4820 O   0  0  0  0  0  0  0  0  0  0  0  0
  131.1170  133.4150   56.8590 C   0  0  0  0  0  0  0  0  0  0  0  0
  132.1010  134.1390   56.6820 O   0  0  0  0  0  0  0  0  0  0  0  0
  131.1940  132.0650   57.5160 C   0  0  0  0  0  0  0  0  0  0  0  0
  130.0900  131.2050   57.4430 C   0  0  0  0  0  0  0  0  0  0  0  0
  130.1340  129.9460   58.0340 C   0  0  0  0  0  0  0  0  0  0  0  0
  131.2760  129.5230   58.7140 C   0  0  0  0  0  0  0  0  0  0  0  0
  131.2160  128.2260   59.2600 N   0  0  0  0  0  0  0  0  0  0  0  0
  130.1600  127.5350   59.7550 C   0  0  0  0  0  0  0  0  0  0  0  0
  129.0010  127.9520   59.7590 O   0  0  0  0  0  0  0  0  0  0  0  0
  130.4760  126.2080   60.2890 C   0  0  0  0  0  0  0  0  0  0  0  0
  130.2490  124.7740   59.2900 S   0  0  0  0  0  0  0  0  0  0  0  0
  130.8530  123.7370   60.5610 C   0  0  0  0  0  0  0  0  0  0  0  0
  130.9390  122.4190   60.4010 N   0  0  0  0  0  0  0  0  0  0  0  0
  131.4310  121.6960   61.4420 C   0  0  0  0  0  0  0  0  0  0  0  0
  131.5210  120.2130   61.2290 C   0  0  0  0  0  0  0  0  0  0  0  0
  132.6600  119.6410   60.6400 C   0  0  0  0  0  0  0  0  0  0  0  0
  132.7490  118.2660   60.4370 C   0  0  0  0  0  0  0  0  0  0  0  0
  131.6960  117.4410   60.8200 C   0  0  0  0  0  0  0  0  0  0  0  0
  130.5550  117.9830   61.4030 C   0  0  0  0  0  0  0  0  0  0  0  0
  130.4700  119.3580   61.6030 C   0  0  0  0  0  0  0  0  0  0  0  0
  131.8120  122.3000   62.6450 C   0  0  0  0  0  0  0  0  0  0  0  0
  131.7220  123.6890   62.8250 C   0  0  0  0  0  0  0  0  0  0  0  0
  132.1600  124.2850   64.1690 C   0  0  0  0  0  0  0  0  0  0  0  0
  131.1630  124.8870   64.8230 F   0  0  0  0  0  0  0  0  0  0  0  0
  132.6290  123.3190   64.9590 F   0  0  0  0  0  0  0  0  0  0  0  0
  133.1140  125.1940   63.9710 F   0  0  0  0  0  0  0  0  0  0  0  0
  131.2230  124.4570   61.7340 C   0  0  0  0  0  0  0  0  0  0  0  0
  131.0020  125.8710   61.5470 C   0  0  0  0  0  0  0  0  0  0  0  0
  131.2800  126.7990   62.5180 N   0  0  0  0  0  0  0  0  0  0  0  0
  132.3870  130.3760   58.7890 C   0  0  0  0  0  0  0  0  0  0  0  0
  132.3420  131.6340   58.1960 C   0  0  0  0  0  0  0  0  0  0  0  0
  1  2  1  0
  2  3  1  0
  3  4  2  0
  3  5  1  0
  5  6  2  0
  6  7  1  0
  7  8  2  0
  8  9  1  0
  9 10  1  0
 10 11  2  0
 10 12  1  0
 12 13  1  0
 13 14  1  0
 14 15  2  0
 15 16  1  0
 16 17  1  0
 17 18  2  0
 18 19  1  0
 19 20  2  0
 20 21  1  0
 21 22  2  0
 16 23  2  0
 23 24  1  0
 24 25  1  0
 25 26  1  0
 25 27  1  0
 25 28  1  0
 24 29  2  0
 29 30  1  0
 30 31  1  0
  8 32  1  0
 32 33  2  0
 33  5  1  0
 30 12  2  0
 29 14  1  0
 22 17  1  0
M  END
>  <Binding energies>  (31) 
[-8.56]

>  <Ligand effiencies>  (31) 
[-0.23777777777777778]

>  <Interactions>  (31) 
["V-B:ALA:541:CB:9863, V-B:TYR:539:CE2:9847, V-A:SER:385:CA:3406, V-B:TYR:539:CD2:9845, H-A:GLU:543:OE2:4909, V-A:ARG:545:CZ:4925, V-A:SER:385:CB:3408, V-A:LEU:475:CD2:4258, V-A:ASP:366:CG:3212, V-A:TYR:539:CZ:4876, V-A:TYR:539:CD1:4872, V-A:TYR:539:CE2:4875, V-A:ILE:538:CA:4859, V-A:TYR:539:C:4866, V-A:TYR:539:CE1:4874, V-A:ASP:366:CB:3211, V-A:HIS:383:CE1:3393, H-A:TYR:539:N:4869, V-A:PRO:540:N:4883, V-A:PRO:540:CD:4886, V-A:TYR:484:CZ:4346, H-A:ASP:366:OD2:3214, H-A:ASP:366:OD1:3213, V-A:GLY:454:CA:4048, V-A:PRO:482:CB:4325, V-A:TYR:539:CD2:4873, V-A:PRO:482:CG:4326"]

$$$$
4cc_Grossjean_2025
     RDKit          3D

 31 34  0  0  0  0  0  0  0  0999 V2000
  130.4740  133.7520   55.6050 C   0  0  0  0  0  0  0  0  0  0  0  0
  130.9070  133.6800   56.9590 O   0  0  0  0  0  0  0  0  0  0  0  0
  131.0540  132.4420   57.5550 C   0  0  0  0  0  0  0  0  0  0  0  0
  130.0500  131.5070   57.3030 C   0  0  0  0  0  0  0  0  0  0  0  0
  130.1120  130.2320   57.8590 C   0  0  0  0  0  0  0  0  0  0  0  0
  131.1790  129.8770   58.6860 C   0  0  0  0  0  0  0  0  0  0  0  0
  131.1650  128.5630   59.1890 N   0  0  0  0  0  0  0  0  0  0  0  0
  130.1370  127.6820   59.2560 C   0  0  0  0  0  0  0  0  0  0  0  0
  129.0060  127.9100   58.8240 O   0  0  0  0  0  0  0  0  0  0  0  0
  130.4490  126.3980   59.8900 C   0  0  0  0  0  0  0  0  0  0  0  0
  130.3170  124.8990   58.9720 S   0  0  0  0  0  0  0  0  0  0  0  0
  130.8290  123.9570   60.3520 C   0  0  0  0  0  0  0  0  0  0  0  0
  130.9400  122.6320   60.2850 N   0  0  0  0  0  0  0  0  0  0  0  0
  131.3550  121.9860   61.4060 C   0  0  0  0  0  0  0  0  0  0  0  0
  131.4680  120.4930   61.3020 C   0  0  0  0  0  0  0  0  0  0  0  0
  132.6400  119.8940   60.8100 C   0  0  0  0  0  0  0  0  0  0  0  0
  132.7510  118.5100   60.7090 C   0  0  0  0  0  0  0  0  0  0  0  0
  131.6890  117.7010   61.0980 C   0  0  0  0  0  0  0  0  0  0  0  0
  130.5160  118.2690   61.5850 C   0  0  0  0  0  0  0  0  0  0  0  0
  130.4080  119.6530   61.6840 C   0  0  0  0  0  0  0  0  0  0  0  0
  131.6390  122.6710   62.5910 C   0  0  0  0  0  0  0  0  0  0  0  0
  131.5230  124.0680   62.6730 C   0  0  0  0  0  0  0  0  0  0  0  0
  131.8560  124.7550   64.0020 C   0  0  0  0  0  0  0  0  0  0  0  0
  132.7550  125.7350   63.8760 F   0  0  0  0  0  0  0  0  0  0  0  0
  130.7530  125.2910   64.5220 F   0  0  0  0  0  0  0  0  0  0  0  0
  132.3560  123.8630   64.8570 F   0  0  0  0  0  0  0  0  0  0  0  0
  131.0980  124.7570   61.5010 C   0  0  0  0  0  0  0  0  0  0  0  0
  130.8680  126.1500   61.2070 C   0  0  0  0  0  0  0  0  0  0  0  0
  131.0460  127.1420   62.1380 N   0  0  0  0  0  0  0  0  0  0  0  0
  132.2000  130.8080   58.9340 C   0  0  0  0  0  0  0  0  0  0  0  0
  132.1340  132.0810   58.3750 C   0  0  0  0  0  0  0  0  0  0  0  0
  1  2  1  0
  2  3  1  0
  3  4  2  0
  4  5  1  0
  5  6  2  0
  6  7  1  0
  7  8  1  0
  8  9  2  0
  8 10  1  0
 10 11  1  0
 11 12  1  0
 12 13  2  0
 13 14  1  0
 14 15  1  0
 15 16  2  0
 16 17  1  0
 17 18  2  0
 18 19  1  0
 19 20  2  0
 14 21  2  0
 21 22  1  0
 22 23  1  0
 23 24  1  0
 23 25  1  0
 23 26  1  0
 22 27  2  0
 27 28  1  0
 28 29  1  0
  6 30  1  0
 30 31  2  0
 31  3  1  0
 28 10  2  0
 27 12  1  0
 20 15  1  0
M  END
>  <Binding energies>  (32) 
[-7.38]

>  <Ligand effiencies>  (32) 
[-0.21705882352941175]

>  <Interactions>  (32) 
["V-B:ALA:541:CB:9863, V-B:TYR:539:CE2:9847, V-A:SER:385:CA:3406, V-B:TYR:539:CD2:9845, H-A:GLU:543:OE2:4909, V-A:ARG:545:CZ:4925, V-A:SER:385:CB:3408, V-A:LEU:475:CD2:4258, V-A:ASP:366:CG:3212, V-A:ILE:538:CG2:4862, V-A:ILE:538:CB:4861, V-A:ILE:538:CA:4859, V-A:ILE:538:C:4857, V-A:PRO:540:CA:4882, V-A:PRO:540:CB:4884, V-A:ASP:366:CB:3211, V-A:HIS:383:CE1:3393, H-A:TYR:539:N:4869, V-A:TYR:484:CZ:4346, H-A:ASP:366:OD2:3214, V-A:GLY:454:CA:4048, V-A:PRO:482:CB:4325, V-A:PRO:482:CG:4326"]

$$$$
4ce_Grossjean_2025
     RDKit          3D

 30 33  0  0  0  0  0  0  0  0999 V2000
  128.0970  130.1970   66.8320 C   0  0  0  0  0  0  0  0  0  0  0  0
  128.9760  129.0550   67.3060 C   0  0  0  0  0  0  0  0  0  0  0  0
  129.3760  128.9460   68.6400 C   0  0  0  0  0  0  0  0  0  0  0  0
  130.1780  127.8640   69.0060 C   0  0  0  0  0  0  0  0  0  0  0  0
  130.5550  126.9280   68.0420 C   0  0  0  0  0  0  0  0  0  0  0  0
  130.1240  127.1000   66.7210 C   0  0  0  0  0  0  0  0  0  0  0  0
  130.5160  126.1120   65.8010 N   0  0  0  0  0  0  0  0  0  0  0  0
  131.7630  125.6450   65.5360 C   0  0  0  0  0  0  0  0  0  0  0  0
  132.7780  126.0380   66.1140 O   0  0  0  0  0  0  0  0  0  0  0  0
  131.8420  124.6160   64.4970 C   0  0  0  0  0  0  0  0  0  0  0  0
  131.2090  123.0000   64.7990 S   0  0  0  0  0  0  0  0  0  0  0  0
  131.6280  122.4850   63.1830 C   0  0  0  0  0  0  0  0  0  0  0  0
  131.3750  121.2490   62.7610 N   0  0  0  0  0  0  0  0  0  0  0  0
  131.7230  120.9450   61.4820 C   0  0  0  0  0  0  0  0  0  0  0  0
  131.4190  119.5460   61.0360 C   0  0  0  0  0  0  0  0  0  0  0  0
  132.2810  118.8720   60.1550 C   0  0  0  0  0  0  0  0  0  0  0  0
  132.0020  117.5750   59.7310 C   0  0  0  0  0  0  0  0  0  0  0  0
  130.8550  116.9330   60.1850 C   0  0  0  0  0  0  0  0  0  0  0  0
  129.9850  117.5780   61.0570 C   0  0  0  0  0  0  0  0  0  0  0  0
  130.2660  118.8760   61.4770 C   0  0  0  0  0  0  0  0  0  0  0  0
  132.3420  121.8770   60.6430 C   0  0  0  0  0  0  0  0  0  0  0  0
  132.6190  123.1830   61.0800 C   0  0  0  0  0  0  0  0  0  0  0  0
  133.2970  124.1530   60.1080 C   0  0  0  0  0  0  0  0  0  0  0  0
  133.6520  123.5800   58.9570 F   0  0  0  0  0  0  0  0  0  0  0  0
  132.4650  125.1540   59.8160 F   0  0  0  0  0  0  0  0  0  0  0  0
  134.4020  124.6490   60.6640 F   0  0  0  0  0  0  0  0  0  0  0  0
  132.2440  123.5170   62.4140 C   0  0  0  0  0  0  0  0  0  0  0  0
  132.3550  124.7250   63.1930 C   0  0  0  0  0  0  0  0  0  0  0  0
  132.9110  125.8770   62.7000 N   0  0  0  0  0  0  0  0  0  0  0  0
  129.3360  128.1530   66.3560 N   0  0  0  0  0  0  0  0  0  0  0  0
  1  2  1  0
  2  3  2  0
  3  4  1  0
  4  5  2  0
  5  6  1  0
  6  7  1  0
  7  8  1  0
  8  9  2  0
  8 10  1  0
 10 11  1  0
 11 12  1  0
 12 13  2  0
 13 14  1  0
 14 15  1  0
 15 16  2  0
 16 17  1  0
 17 18  2  0
 18 19  1  0
 19 20  2  0
 14 21  2  0
 21 22  1  0
 22 23  1  0
 23 24  1  0
 23 25  1  0
 23 26  1  0
 22 27  2  0
 27 28  1  0
 28 29  1  0
  6 30  2  0
 30  2  1  0
 28 10  2  0
 27 12  1  0
 20 15  1  0
M  END
>  <Binding energies>  (33) 
[-7.95]

>  <Ligand effiencies>  (33) 
[-0.2409090909090909]

>  <Interactions>  (33) 
["V-B:ALA:541:CB:9863, V-B:TYR:539:CE2:9847, V-A:ILE:369:CG2:3236, V-B:TYR:539:CD2:9845, V-A:ARG:545:CZ:4925, V-A:LEU:475:CD2:4258, V-B:TYR:539:C:9838, H-A:ARG:545:NE:4923, V-A:ILE:369:CD1:3238, V-A:ASP:366:CG:3212, V-A:HIS:456:CE1:4069, V-B:GLU:543:CD:9879, V-A:GLU:543:CD:4907, V-A:GLU:543:CB:4905, V-A:ASP:366:CB:3211, V-A:GLU:543:CG:4906, V-B:TYR:539:CB:9842, V-A:HIS:383:CE1:3393, V-B:TYR:539:CZ:9848, V-A:ASP:366:CA:3209, V-A:ILE:369:CB:3235, H-B:GLU:543:OE2:9881, H-A:TYR:484:OH:4347, V-A:TYR:484:CZ:4346, H-A:ASP:366:OD2:3214, H-A:ASP:366:OD1:3213, V-A:PRO:482:CB:4325, V-A:PRO:482:CG:4326, V-B:VAL:344:CG1:7971, V-B:TYR:484:CE2:9316, V-A:ILE:369:CG1:3237"]

$$$$
4cf_Grossjean_2025
     RDKit          3D

 29 32  0  0  0  0  0  0  0  0999 V2000
  131.1180  129.3600   62.0170 N   0  0  0  0  0  0  0  0  0  0  0  0
  130.0470  130.1170   62.4160 C   0  0  0  0  0  0  0  0  0  0  0  0
  129.7570  131.3830   61.8810 C   0  0  0  0  0  0  0  0  0  0  0  0
  130.5040  132.1420   60.8740 C   0  0  0  0  0  0  0  0  0  0  0  0
  131.3540  132.9650   61.2140 O   0  0  0  0  0  0  0  0  0  0  0  0
  130.1940  131.8580   59.5860 N   0  0  0  0  0  0  0  0  0  0  0  0
  130.6820  132.4340   58.3970 C   0  0  0  0  0  0  0  0  0  0  0  0
  132.0110  132.3560   57.9370 C   0  0  0  0  0  0  0  0  0  0  0  0
  132.3670  132.9880   56.7440 C   0  0  0  0  0  0  0  0  0  0  0  0
  131.3860  133.6840   56.0380 C   0  0  0  0  0  0  0  0  0  0  0  0
  130.1010  133.7810   56.4620 N   0  0  0  0  0  0  0  0  0  0  0  0
  129.7700  133.1620   57.6260 C   0  0  0  0  0  0  0  0  0  0  0  0
  128.3090  132.0680   62.6150 S   0  0  0  0  0  0  0  0  0  0  0  0
  128.1080  130.6630   63.6360 C   0  0  0  0  0  0  0  0  0  0  0  0
  127.1020  130.5730   64.5040 N   0  0  0  0  0  0  0  0  0  0  0  0
  127.0390  129.4490   65.2660 C   0  0  0  0  0  0  0  0  0  0  0  0
  125.8990  129.3780   66.2400 C   0  0  0  0  0  0  0  0  0  0  0  0
  126.1050  128.9290   67.5540 C   0  0  0  0  0  0  0  0  0  0  0  0
  125.0540  128.8620   68.4650 C   0  0  0  0  0  0  0  0  0  0  0  0
  123.7770  129.2470   68.0720 C   0  0  0  0  0  0  0  0  0  0  0  0
  123.5440  129.6990   66.7770 C   0  0  0  0  0  0  0  0  0  0  0  0
  124.5990  129.7650   65.8710 C   0  0  0  0  0  0  0  0  0  0  0  0
  127.9690  128.4130   65.1350 C   0  0  0  0  0  0  0  0  0  0  0  0
  129.0290  128.4970   64.2200 C   0  0  0  0  0  0  0  0  0  0  0  0
  130.0160  127.3270   64.1320 C   0  0  0  0  0  0  0  0  0  0  0  0
  131.2490  127.7050   63.7870 F   0  0  0  0  0  0  0  0  0  0  0  0
  130.1020  126.7190   65.3150 F   0  0  0  0  0  0  0  0  0  0  0  0
  129.5990  126.4510   63.2170 F   0  0  0  0  0  0  0  0  0  0  0  0
  129.1170  129.6780   63.4280 C   0  0  0  0  0  0  0  0  0  0  0  0
  1  2  1  0
  2  3  2  0
  3  4  1  0
  4  5  2  0
  4  6  1  0
  6  7  1  0
  7  8  2  0
  8  9  1  0
  9 10  2  0
 10 11  1  0
 11 12  2  0
  3 13  1  0
 13 14  1  0
 14 15  2  0
 15 16  1  0
 16 17  1  0
 17 18  2  0
 18 19  1  0
 19 20  2  0
 20 21  1  0
 21 22  2  0
 16 23  2  0
 23 24  1  0
 24 25  1  0
 25 26  1  0
 25 27  1  0
 25 28  1  0
 24 29  2  0
 29  2  1  0
 12  7  1  0
 29 14  1  0
 22 17  1  0
M  END
>  <Binding energies>  (34) 
[-7.6]

>  <Ligand effiencies>  (34) 
[-0.2375]

>  <Interactions>  (34) 
["H-A:GLU:543:OE1:4908, H-A:GLU:543:OE2:4909, V-A:ARG:545:CZ:4925, V-B:HIS:456:CE1:9040, V-A:ILE:538:CG2:4862, V-B:GLY:454:CA:9019, V-A:TYR:539:CD1:4872, V-A:ILE:538:CB:4861, V-A:ILE:538:CA:4859, V-A:TYR:539:C:4866, V-A:ILE:538:C:4857, V-A:TYR:539:CE1:4874, V-B:GLY:453:C:9012, V-B:GLU:543:CD:9879, V-A:PRO:540:CA:4882, V-A:PRO:540:CB:4884, V-B:ARG:545:CG:9893, V-A:GLU:543:CD:4907, H-A:ALA:541:N:4890, V-B:ILE:455:C:9022, V-B:ARG:545:CD:9894, V-B:ARG:545:CB:9892, V-B:ARG:545:CZ:9897, H-A:TYR:539:N:4869, V-A:PRO:540:N:4883, V-A:PRO:540:CD:4886, H-A:ASP:366:OD2:3214, V-A:TYR:531:CE2:4792, V-A:LEU:363:CD1:3188, V-B:TYR:484:CZ:9317"]

$$$$
4ci_Grossjean_2025
     RDKit          3D

 28 31  0  0  0  0  0  0  0  0999 V2000
  129.7490  131.7200   63.5920 N   0  0  0  0  0  0  0  0  0  0  0  0
  128.9840  131.9310   62.4750 C   0  0  0  0  0  0  0  0  0  0  0  0
  127.5800  131.9520   62.4960 C   0  0  0  0  0  0  0  0  0  0  0  0
  126.6810  131.7780   63.6410 C   0  0  0  0  0  0  0  0  0  0  0  0
  126.5230  132.6860   64.4600 O   0  0  0  0  0  0  0  0  0  0  0  0
  126.0710  130.5690   63.7250 N   0  0  0  0  0  0  0  0  0  0  0  0
  125.1810  130.1380   64.7010 C   0  0  0  0  0  0  0  0  0  0  0  0
  125.5880  129.6200   65.9300 C   0  0  0  0  0  0  0  0  0  0  0  0
  124.4230  129.3150   66.5940 C   0  0  0  0  0  0  0  0  0  0  0  0
  123.3680  129.6320   65.8060 O   0  0  0  0  0  0  0  0  0  0  0  0
  123.8610  130.1520   64.6080 N   0  0  0  0  0  0  0  0  0  0  0  0
  126.9230  132.2580   60.8900 S   0  0  0  0  0  0  0  0  0  0  0  0
  128.5270  132.3460   60.2010 C   0  0  0  0  0  0  0  0  0  0  0  0
  128.7150  132.5770   58.9040 N   0  0  0  0  0  0  0  0  0  0  0  0
  129.9970  132.6310   58.4610 C   0  0  0  0  0  0  0  0  0  0  0  0
  130.1770  132.8880   56.9920 C   0  0  0  0  0  0  0  0  0  0  0  0
  131.4510  133.1380   56.4550 C   0  0  0  0  0  0  0  0  0  0  0  0
  131.6240  133.3760   55.0930 C   0  0  0  0  0  0  0  0  0  0  0  0
  130.5210  133.3680   54.2460 C   0  0  0  0  0  0  0  0  0  0  0  0
  129.2480  133.1280   54.7510 C   0  0  0  0  0  0  0  0  0  0  0  0
  129.0790  132.8920   56.1130 C   0  0  0  0  0  0  0  0  0  0  0  0
  131.0840  132.4370   59.3200 C   0  0  0  0  0  0  0  0  0  0  0  0
  130.8970  132.1930   60.6910 C   0  0  0  0  0  0  0  0  0  0  0  0
  132.1330  131.9900   61.5750 C   0  0  0  0  0  0  0  0  0  0  0  0
  132.0560  132.6350   62.7400 F   0  0  0  0  0  0  0  0  0  0  0  0
  132.2820  130.6940   61.8460 F   0  0  0  0  0  0  0  0  0  0  0  0
  133.2190  132.4350   60.9420 F   0  0  0  0  0  0  0  0  0  0  0  0
  129.5560  132.1470   61.1670 C   0  0  0  0  0  0  0  0  0  0  0  0
  1  2  1  0
  2  3  2  0
  3  4  1  0
  4  5  2  0
  4  6  1  0
  6  7  1  0
  7  8  1  0
  8  9  2  0
  9 10  1  0
 10 11  1  0
  3 12  1  0
 12 13  1  0
 13 14  2  0
 14 15  1  0
 15 16  1  0
 16 17  2  0
 17 18  1  0
 18 19  2  0
 19 20  1  0
 20 21  2  0
 15 22  2  0
 22 23  1  0
 23 24  1  0
 24 25  1  0
 24 26  1  0
 24 27  1  0
 23 28  2  0
 28  2  1  0
 11  7  2  0
 28 13  1  0
 21 16  1  0
M  END
>  <Binding energies>  (35) 
[-7.77]

>  <Ligand effiencies>  (35) 
[-0.25064516129032255]

>  <Interactions>  (35) 
["H-A:GLU:543:OE2:4909, V-A:TYR:539:CZ:4876, V-A:MET:535:CG:4832, V-A:ILE:538:CG2:4862, V-A:TYR:539:CD1:4872, V-A:ILE:538:CB:4861, V-A:TYR:539:CE2:4875, V-A:ILE:538:CA:4859, V-A:TYR:539:C:4866, V-A:TYR:539:CE1:4874, V-A:PRO:540:CA:4882, V-A:PRO:540:CB:4884, V-B:ARG:545:CG:9893, V-A:GLU:543:CD:4907, V-A:ASN:362:C:3171, V-A:ALA:541:CB:4891, V-A:GLU:543:CG:4906, H-B:GLY:454:N:9020, V-B:ARG:545:CD:9894, V-B:ARG:545:CZ:9897, H-B:ARG:545:NH1:9898, H-B:ARG:545:NE:9895, V-A:PRO:540:N:4883, V-A:TYR:531:CE2:4792, V-A:MET:535:CB:4831, V-A:PRO:540:C:4880, V-A:ALA:541:CA:4889, V-A:ALA:541:C:4887, V-A:ASN:362:CB:3175"]

$$$$
8a_Ghoteimi_2023
     RDKit          3D

 40 44  0  0  0  0  0  0  0  0999 V2000
  129.0150  132.3760   55.2120 C   0  0  0  0  0  0  0  0  0  0  0  0
  130.1250  133.3930   54.9370 C   0  0  0  0  0  0  0  0  0  0  0  0
  130.4330  134.0940   56.1350 O   0  0  0  0  0  0  0  0  0  0  0  0
  131.5060  133.7470   56.8940 C   0  0  0  0  0  0  0  0  0  0  0  0
  132.6690  134.0420   56.6010 O   0  0  0  0  0  0  0  0  0  0  0  0
  131.1370  132.9650   58.1210 C   0  0  0  0  0  0  0  0  0  0  0  0
  132.1150  132.1930   58.7600 C   0  0  0  0  0  0  0  0  0  0  0  0
  131.8040  131.4560   59.8990 C   0  0  0  0  0  0  0  0  0  0  0  0
  130.5110  131.4730   60.4230 C   0  0  0  0  0  0  0  0  0  0  0  0
  130.3110  130.6860   61.5740 N   0  0  0  0  0  0  0  0  0  0  0  0
  129.2630  129.9030   61.9300 C   0  0  0  0  0  0  0  0  0  0  0  0
  128.2480  129.7520   61.2510 O   0  0  0  0  0  0  0  0  0  0  0  0
  129.4080  129.2120   63.2150 C   0  0  0  0  0  0  0  0  0  0  0  0
  128.6070  129.8340   64.6570 S   0  0  0  0  0  0  0  0  0  0  0  0
  129.2630  128.5420   65.6360 C   0  0  0  0  0  0  0  0  0  0  0  0
  129.0190  128.4610   66.9440 N   0  0  0  0  0  0  0  0  0  0  0  0
  129.5830  127.4210   67.6130 C   0  0  0  0  0  0  0  0  0  0  0  0
  129.3120  127.3610   69.0830 C   0  0  0  0  0  0  0  0  0  0  0  0
  128.6540  126.2620   69.6530 C   0  0  0  0  0  0  0  0  0  0  0  0
  128.3950  126.2180   71.0200 C   0  0  0  0  0  0  0  0  0  0  0  0
  128.7870  127.2660   71.8500 C   0  0  0  0  0  0  0  0  0  0  0  0
  128.4860  127.1360   73.1930 O   0  0  0  0  0  0  0  0  0  0  0  0
  127.1230  127.0220   73.5890 C   0  0  0  0  0  0  0  0  0  0  0  0
  129.4500  128.3670   71.2900 C   0  0  0  0  0  0  0  0  0  0  0  0
  129.7060  128.4100   69.9220 C   0  0  0  0  0  0  0  0  0  0  0  0
  130.3780  126.4670   66.9760 C   0  0  0  0  0  0  0  0  0  0  0  0
  130.6230  126.5380   65.6000 C   0  0  0  0  0  0  0  0  0  0  0  0
  131.4500  125.4790   64.9660 C   0  0  0  0  0  0  0  0  0  0  0  0
  130.9390  124.1890   64.8110 C   0  0  0  0  0  0  0  0  0  0  0  0
  131.7020  123.1980   64.1990 C   0  0  0  0  0  0  0  0  0  0  0  0
  132.9850  123.4810   63.7280 C   0  0  0  0  0  0  0  0  0  0  0  0
  133.6680  122.4370   63.1340 O   0  0  0  0  0  0  0  0  0  0  0  0
  133.4680  122.1740   61.7510 C   0  0  0  0  0  0  0  0  0  0  0  0
  133.4970  124.7790   63.8760 C   0  0  0  0  0  0  0  0  0  0  0  0
  132.7300  125.7690   64.4870 C   0  0  0  0  0  0  0  0  0  0  0  0
  130.0620  127.6320   64.8830 C   0  0  0  0  0  0  0  0  0  0  0  0
  130.1420  128.0500   63.5050 C   0  0  0  0  0  0  0  0  0  0  0  0
  130.8870  127.3740   62.5720 N   0  0  0  0  0  0  0  0  0  0  0  0
  129.5250  132.2480   59.7920 C   0  0  0  0  0  0  0  0  0  0  0  0
  129.8380  132.9850   58.6530 C   0  0  0  0  0  0  0  0  0  0  0  0
  1  2  1  0
  2  3  1  0
  3  4  1  0
  4  5  2  0
  4  6  1  0
  6  7  2  0
  7  8  1  0
  8  9  2  0
  9 10  1  0
 10 11  1  0
 11 12  2  0
 11 13  1  0
 13 14  1  0
 14 15  1  0
 15 16  2  0
 16 17  1  0
 17 18  1  0
 18 19  2  0
 19 20  1  0
 20 21  2  0
 21 22  1  0
 22 23  1  0
 21 24  1  0
 24 25  2  0
 17 26  2  0
 26 27  1  0
 27 28  1  0
 28 29  2  0
 29 30  1  0
 30 31  2  0
 31 32  1  0
 32 33  1  0
 31 34  1  0
 34 35  2  0
 27 36  2  0
 36 37  1  0
 37 38  1  0
  9 39  1  0
 39 40  2  0
 40  6  1  0
 37 13  2  0
 36 15  1  0
 25 18  1  0
 35 28  1  0
M  END
>  <Binding energies>  (36) 
[-9.66]

>  <Ligand effiencies>  (36) 
[-0.2246511627906977]

>  <Interactions>  (36) 
["H-A:GLU:543:OE2:4909, V-A:ARG:545:CZ:4925, V-A:ILE:369:CD1:3238, V-A:HIS:456:CE1:4069, V-B:HIS:456:CD2:9038, V-B:GLY:544:C:9883, V-B:GLU:543:CB:9877, V-B:GLU:543:C:9873, V-B:HIS:456:CE1:9040, V-B:LYS:547:CE:9921, V-A:TYR:539:CZ:4876, V-A:MET:535:CG:4832, V-A:ILE:538:CG2:4862, V-A:TYR:539:CD1:4872, V-A:ILE:538:CB:4861, V-A:ILE:538:CA:4859, V-A:TYR:539:C:4866, V-A:TYR:539:CE1:4874, V-B:GLU:543:CD:9879, V-A:PRO:540:CA:4882, V-A:PRO:540:CB:4884, V-A:GLU:543:CD:4907, V-A:GLU:543:CB:4905, V-A:GLU:543:CG:4906, H-A:TYR:539:N:4869, H-A:GLY:454:N:4049, V-A:PRO:540:N:4883, V-A:PRO:540:CD:4886, H-A:ASP:366:OD2:3214, V-A:GLY:454:CA:4048"]

$$$$
8c_Ghoteimi_2023
     RDKit          3D

 34 38  0  0  0  0  0  0  0  0999 V2000
  124.4480  132.4030   63.6970 C   0  0  0  0  0  0  0  0  0  0  0  0
  124.6050  131.3120   64.5970 O   0  0  0  0  0  0  0  0  0  0  0  0
  125.1710  130.1370   64.1410 C   0  0  0  0  0  0  0  0  0  0  0  0
  124.7370  129.6770   62.9000 C   0  0  0  0  0  0  0  0  0  0  0  0
  125.2500  128.5000   62.3620 C   0  0  0  0  0  0  0  0  0  0  0  0
  126.2140  127.7530   63.0540 C   0  0  0  0  0  0  0  0  0  0  0  0
  126.7680  126.4850   62.4830 C   0  0  0  0  0  0  0  0  0  0  0  0
  126.3510  125.9910   61.2430 C   0  0  0  0  0  0  0  0  0  0  0  0
  126.8870  124.8050   60.7310 C   0  0  0  0  0  0  0  0  0  0  0  0
  126.4180  124.3040   59.4190 C   0  0  0  0  0  0  0  0  0  0  0  0
  127.3300  124.0780   58.3850 C   0  0  0  0  0  0  0  0  0  0  0  0
  126.8890  123.5980   57.1560 C   0  0  0  0  0  0  0  0  0  0  0  0
  125.5340  123.3410   56.9390 C   0  0  0  0  0  0  0  0  0  0  0  0
  125.1890  122.8650   55.6890 O   0  0  0  0  0  0  0  0  0  0  0  0
  126.1470  122.1310   54.9360 C   0  0  0  0  0  0  0  0  0  0  0  0
  124.6190  123.5740   57.9770 C   0  0  0  0  0  0  0  0  0  0  0  0
  125.0610  124.0530   59.2070 C   0  0  0  0  0  0  0  0  0  0  0  0
  127.8660  124.1250   61.5040 C   0  0  0  0  0  0  0  0  0  0  0  0
  128.6100  122.9130   61.2880 C   0  0  0  0  0  0  0  0  0  0  0  0
  128.4580  122.1480   60.1590 N   0  0  0  0  0  0  0  0  0  0  0  0
  129.4950  122.5950   62.3310 C   0  0  0  0  0  0  0  0  0  0  0  0
  130.4020  121.4510   62.4410 C   0  0  0  0  0  0  0  0  0  0  0  0
  131.3420  121.4660   63.2380 O   0  0  0  0  0  0  0  0  0  0  0  0
  130.1270  120.4100   61.6160 N   0  0  0  0  0  0  0  0  0  0  0  0
  130.8220  119.2130   61.5230 C   0  0  0  0  0  0  0  0  0  0  0  0
  130.4180  118.0130   61.8810 N   0  0  0  0  0  0  0  0  0  0  0  0
  131.3390  117.1010   61.6460 C   0  0  0  0  0  0  0  0  0  0  0  0
  132.5280  117.5560   61.0850 C   0  0  0  0  0  0  0  0  0  0  0  0
  132.4220  119.2770   60.8570 S   0  0  0  0  0  0  0  0  0  0  0  0
  129.4280  123.8050   63.6140 S   0  0  0  0  0  0  0  0  0  0  0  0
  128.2170  124.7230   62.7490 C   0  0  0  0  0  0  0  0  0  0  0  0
  127.7060  125.8530   63.2390 N   0  0  0  0  0  0  0  0  0  0  0  0
  126.6480  128.2230   64.3000 C   0  0  0  0  0  0  0  0  0  0  0  0
  126.1360  129.3990   64.8410 C   0  0  0  0  0  0  0  0  0  0  0  0
  1  2  1  0
  2  3  1  0
  3  4  2  0
  4  5  1  0
  5  6  2  0
  6  7  1  0
  7  8  2  0
  8  9  1  0
  9 10  1  0
 10 11  2  0
 11 12  1  0
 12 13  2  0
 13 14  1  0
 14 15  1  0
 13 16  1  0
 16 17  2  0
  9 18  2  0
 18 19  1  0
 19 20  1  0
 19 21  2  0
 21 22  1  0
 22 23  2  0
 22 24  1  0
 24 25  1  0
 25 26  2  0
 26 27  1  0
 27 28  2  0
 28 29  1  0
 21 30  1  0
 30 31  1  0
 31 32  2  0
  6 33  1  0
 33 34  2  0
 34  3  1  0
 32  7  1  0
 17 10  1  0
 31 18  1  0
 29 25  1  0
M  END
>  <Binding energies>  (37) 
[-8.38]

>  <Ligand effiencies>  (37) 
[-0.2264864864864865]

>  <Interactions>  (37) 
["V-B:ALA:541:CB:9863, V-B:TYR:539:CE2:9847, V-B:PRO:540:CB:9856, V-B:MET:535:CE:9806, V-B:PRO:540:CA:9854, V-A:SER:385:CA:3406, V-B:TYR:539:CD2:9845, V-B:TYR:531:CE2:9764, V-B:PRO:540:C:9852, V-B:LEU:363:CD1:8159, V-A:SER:385:CB:3408, V-A:LEU:475:CD2:4258, V-B:TYR:539:C:9838, V-B:ASP:366:CG:8183, V-B:PRO:540:N:9855, V-B:GLY:454:CA:9019, V-B:LEU:475:CD1:9228, V-B:GLU:543:CD:9879, H-B:GLY:454:N:9020, V-B:ARG:545:CZ:9897, V-A:HIS:383:CE1:3393, H-B:TYR:539:O:9839, H-B:TYR:531:OH:9766, V-B:ILE:538:CD1:9836, V-B:ILE:538:CG2:9834, V-B:ILE:538:CA:9831, V-B:ILE:538:C:9829, V-B:MET:535:CG:9804, V-A:PRO:482:CB:4325, V-B:ILE:538:CB:9833, V-A:PRO:482:CG:4326, V-B:ILE:538:CG1:9835, V-B:VAL:537:C:9821"]

$$$$
8d_Ghoteimi_2023
     RDKit          3D

 30 33  0  0  0  0  0  0  0  0999 V2000
  135.2860  125.0760   76.4230 C   0  0  0  0  0  0  0  0  0  0  0  0
  134.1850  125.7440   77.0230 O   0  0  0  0  0  0  0  0  0  0  0  0
  133.6640  126.8670   76.4650 C   0  0  0  0  0  0  0  0  0  0  0  0
  134.0440  128.0100   76.7320 O   0  0  0  0  0  0  0  0  0  0  0  0
  132.5850  126.5810   75.4950 C   0  0  0  0  0  0  0  0  0  0  0  0
  131.9990  127.8590   74.4280 S   0  0  0  0  0  0  0  0  0  0  0  0
  130.8470  126.7700   73.6920 C   0  0  0  0  0  0  0  0  0  0  0  0
  130.0230  127.1670   72.7210 N   0  0  0  0  0  0  0  0  0  0  0  0
  129.1680  126.2390   72.2160 C   0  0  0  0  0  0  0  0  0  0  0  0
  128.2520  126.7120   71.1330 C   0  0  0  0  0  0  0  0  0  0  0  0
  126.8630  126.5460   71.2330 C   0  0  0  0  0  0  0  0  0  0  0  0
  126.0150  126.9870   70.2220 C   0  0  0  0  0  0  0  0  0  0  0  0
  126.5310  127.6050   69.0840 C   0  0  0  0  0  0  0  0  0  0  0  0
  125.6160  128.0110   68.1320 O   0  0  0  0  0  0  0  0  0  0  0  0
  126.0840  128.6380   66.9420 C   0  0  0  0  0  0  0  0  0  0  0  0
  127.9180  127.7790   68.9730 C   0  0  0  0  0  0  0  0  0  0  0  0
  128.7630  127.3360   69.9880 C   0  0  0  0  0  0  0  0  0  0  0  0
  129.1330  124.9220   72.6860 C   0  0  0  0  0  0  0  0  0  0  0  0
  129.9990  124.5050   73.7020 C   0  0  0  0  0  0  0  0  0  0  0  0
  129.9440  123.1010   74.1720 C   0  0  0  0  0  0  0  0  0  0  0  0
  128.7710  122.5950   74.7360 C   0  0  0  0  0  0  0  0  0  0  0  0
  128.7220  121.2780   75.1860 C   0  0  0  0  0  0  0  0  0  0  0  0
  129.8390  120.4490   75.0760 C   0  0  0  0  0  0  0  0  0  0  0  0
  129.6990  119.1600   75.5490 O   0  0  0  0  0  0  0  0  0  0  0  0
  130.7140  118.6110   76.3820 C   0  0  0  0  0  0  0  0  0  0  0  0
  131.0160  120.9600   74.5040 C   0  0  0  0  0  0  0  0  0  0  0  0
  131.0640  122.2770   74.0550 C   0  0  0  0  0  0  0  0  0  0  0  0
  130.9030  125.4570   74.2410 C   0  0  0  0  0  0  0  0  0  0  0  0
  131.9040  125.3790   75.2690 C   0  0  0  0  0  0  0  0  0  0  0  0
  132.1590  124.2260   75.9660 N   0  0  0  0  0  0  0  0  0  0  0  0
  1  2  1  0
  2  3  1  0
  3  4  2  0
  3  5  1  0
  5  6  1  0
  6  7  1  0
  7  8  2  0
  8  9  1  0
  9 10  1  0
 10 11  2  0
 11 12  1  0
 12 13  2  0
 13 14  1  0
 14 15  1  0
 13 16  1  0
 16 17  2  0
  9 18  2  0
 18 19  1  0
 19 20  1  0
 20 21  2  0
 21 22  1  0
 22 23  2  0
 23 24  1  0
 24 25  1  0
 23 26  1  0
 26 27  2  0
 19 28  2  0
 28 29  1  0
 29 30  1  0
 29  5  2  0
 28  7  1  0
 17 10  1  0
 27 20  1  0
M  END
>  <Binding energies>  (38) 
[-6.68]

>  <Ligand effiencies>  (38) 
[-0.20875]

>  <Interactions>  (38) 
["V-A:HIS:456:CE1:4069, V-B:GLY:544:C:9883, V-B:GLU:543:CB:9877, V-B:GLU:543:C:9873, V-A:HIS:456:CG:4065, V-A:HIS:456:CB:4064, V-B:HIS:456:CE1:9040, H-A:ASP:473:OD2:4241, V-B:GLY:544:CA:9885, V-A:HIS:456:CD2:4067, V-B:LYS:547:CE:9921, V-A:TYR:484:CB:4340, V-A:ASP:485:CA:4352, V-A:TYR:484:CG:4341, V-A:PRO:486:CD:4365, V-A:VAL:458:CG2:4086, V-A:ASP:473:CB:4238, V-A:ASP:473:CG:4239, V-B:GLU:543:CD:9879, V-B:ARG:545:CG:9893, H-A:HIS:456:ND1:4066, V-A:VAL:457:C:4072, V-B:ARG:545:CA:9890, V-A:VAL:457:CA:4074, V-A:HIS:456:C:4060"]

$$$$
9a_Ghoteimi_2023
     RDKit          3D

 48 54  0  0  0  0  0  0  0  0999 V2000
  130.4240  117.2400   60.5140 C   0  0  0  0  0  0  0  0  0  0  0  0
  131.2550  117.0740   61.7910 C   0  0  0  0  0  0  0  0  0  0  0  0
  132.5530  117.6180   61.5860 O   0  0  0  0  0  0  0  0  0  0  0  0
  132.7620  118.6120   60.6850 C   0  0  0  0  0  0  0  0  0  0  0  0
  133.1650  118.4130   59.5340 O   0  0  0  0  0  0  0  0  0  0  0  0
  132.4620  119.9790   61.2290 C   0  0  0  0  0  0  0  0  0  0  0  0
  131.1300  120.4070   61.3090 C   0  0  0  0  0  0  0  0  0  0  0  0
  130.8200  121.6690   61.8060 C   0  0  0  0  0  0  0  0  0  0  0  0
  131.8310  122.5290   62.2350 C   0  0  0  0  0  0  0  0  0  0  0  0
  131.4000  123.7800   62.7190 N   0  0  0  0  0  0  0  0  0  0  0  0
  131.7990  124.4870   63.8050 C   0  0  0  0  0  0  0  0  0  0  0  0
  132.6680  124.1120   64.5940 O   0  0  0  0  0  0  0  0  0  0  0  0
  131.1230  125.7730   63.9980 C   0  0  0  0  0  0  0  0  0  0  0  0
  130.9770  126.9120   62.6580 S   0  0  0  0  0  0  0  0  0  0  0  0
  130.1120  128.0520   63.6620 C   0  0  0  0  0  0  0  0  0  0  0  0
  129.6680  129.2120   63.1790 N   0  0  0  0  0  0  0  0  0  0  0  0
  128.9960  130.0220   64.0400 C   0  0  0  0  0  0  0  0  0  0  0  0
  128.4980  131.3120   63.4730 C   0  0  0  0  0  0  0  0  0  0  0  0
  129.2060  131.9620   62.4560 C   0  0  0  0  0  0  0  0  0  0  0  0
  128.7480  133.1640   61.9220 C   0  0  0  0  0  0  0  0  0  0  0  0
  127.5580  133.7540   62.3770 C   0  0  0  0  0  0  0  0  0  0  0  0
  127.0970  134.9700   61.8630 N   0  0  0  0  0  0  0  0  0  0  0  0
  127.8270  136.2330   62.0950 C   0  0  0  0  0  0  0  0  0  0  0  0
  127.0010  137.4970   61.7780 C   0  0  0  0  0  0  0  0  0  0  0  0
  126.5040  137.4330   60.4520 O   0  0  0  0  0  0  0  0  0  0  0  0
  125.6630  136.3050   60.2650 C   0  0  0  0  0  0  0  0  0  0  0  0
  126.4540  135.0090   60.5330 C   0  0  0  0  0  0  0  0  0  0  0  0
  126.8610  133.1050   63.4060 C   0  0  0  0  0  0  0  0  0  0  0  0
  127.3200  131.9060   63.9420 C   0  0  0  0  0  0  0  0  0  0  0  0
  128.7960  129.6830   65.3800 C   0  0  0  0  0  0  0  0  0  0  0  0
  129.2780  128.4750   65.8960 C   0  0  0  0  0  0  0  0  0  0  0  0
  129.0690  128.1810   67.3370 C   0  0  0  0  0  0  0  0  0  0  0  0
  127.8300  127.7300   67.7990 C   0  0  0  0  0  0  0  0  0  0  0  0
  127.6410  127.4420   69.1470 C   0  0  0  0  0  0  0  0  0  0  0  0
  128.6910  127.5800   70.0680 C   0  0  0  0  0  0  0  0  0  0  0  0
  128.5220  127.3070   71.4280 N   0  0  0  0  0  0  0  0  0  0  0  0
  129.6880  127.3890   72.3290 C   0  0  0  0  0  0  0  0  0  0  0  0
  129.3040  127.4430   73.8220 C   0  0  0  0  0  0  0  0  0  0  0  0
  128.4840  126.3330   74.1540 O   0  0  0  0  0  0  0  0  0  0  0  0
  127.2860  126.3200   73.3950 C   0  0  0  0  0  0  0  0  0  0  0  0
  127.6160  126.2360   71.8890 C   0  0  0  0  0  0  0  0  0  0  0  0
  129.9310  128.0300   69.5930 C   0  0  0  0  0  0  0  0  0  0  0  0
  130.1200  128.3230   68.2450 C   0  0  0  0  0  0  0  0  0  0  0  0
  129.9530  127.5950   65.0030 C   0  0  0  0  0  0  0  0  0  0  0  0
  130.5200  126.2780   65.1600 C   0  0  0  0  0  0  0  0  0  0  0  0
  130.4570  125.5840   66.3410 N   0  0  0  0  0  0  0  0  0  0  0  0
  133.1680  122.1080   62.1630 C   0  0  0  0  0  0  0  0  0  0  0  0
  133.4770  120.8450   61.6640 C   0  0  0  0  0  0  0  0  0  0  0  0
  1  2  1  0
  2  3  1  0
  3  4  1  0
  4  5  2  0
  4  6  1  0
  6  7  2  0
  7  8  1  0
  8  9  2  0
  9 10  1  0
 10 11  1  0
 11 12  2  0
 11 13  1  0
 13 14  1  0
 14 15  1  0
 15 16  2  0
 16 17  1  0
 17 18  1  0
 18 19  2  0
 19 20  1  0
 20 21  2  0
 21 22  1  0
 22 23  1  0
 23 24  1  0
 24 25  1  0
 25 26  1  0
 26 27  1  0
 21 28  1  0
 28 29  2  0
 17 30  2  0
 30 31  1  0
 31 32  1  0
 32 33  2  0
 33 34  1  0
 34 35  2  0
 35 36  1  0
 36 37  1  0
 37 38  1  0
 38 39  1  0
 39 40  1  0
 40 41  1  0
 35 42  1  0
 42 43  2  0
 31 44  2  0
 44 45  1  0
 45 46  1  0
  9 47  1  0
 47 48  2  0
 48  6  1  0
 45 13  2  0
 44 15  1  0
 29 18  1  0
 43 32  1  0
 27 22  1  0
 41 36  1  0
M  END
>  <Binding energies>  (39) 
[-10.46]

>  <Ligand effiencies>  (39) 
[-0.20509803921568628]

>  <Interactions>  (39) 
["V-B:TYR:539:CE2:9847, V-A:ILE:369:CG2:3236, V-A:SER:385:C:3404, V-A:SER:385:CA:3406, V-B:TYR:539:CD2:9845, V-A:SER:385:CB:3408, V-A:LEU:475:CD2:4258, H-B:LYS:547:NZ:9922, V-A:HIS:456:CE1:4069, V-B:GLY:544:C:9883, V-B:GLU:543:CB:9877, V-B:GLU:543:C:9873, V-B:HIS:456:CE1:9040, V-B:LYS:547:CE:9921, V-A:TYR:539:CG:4871, V-B:SER:385:CB:8379, V-A:TYR:539:CD1:4872, V-A:TYR:539:CE1:4874, V-B:LEU:475:CD1:9228, V-B:PRO:482:CG:9297, V-B:PRO:482:CB:9296, V-B:HIS:383:CD2:8362, V-B:GLU:543:CD:9879, V-A:GLU:543:CD:4907, V-A:GLU:543:CB:4905, V-A:TYR:539:CB:4870, V-A:ALA:541:CB:4891, V-A:GLU:543:CG:4906, V-B:TYR:539:CB:9842, V-A:HIS:383:CE1:3393, H-B:GLU:543:OE2:9881, H-A:TYR:484:OH:4347, H-A:GLY:454:N:4049, V-A:PRO:482:CB:4325, H-B:SER:385:OG:8380, H-B:HIS:383:NE2:8364, V-A:PRO:482:CG:4326, V-B:VAL:344:CG1:7971, H-A:HIS:456:NE2:4070"]

$$$$
9b_Ghoteimi_2023
     RDKit          3D

 42 48  0  0  0  0  0  0  0  0999 V2000
  128.6310  129.4230   59.4060 N   0  0  0  0  0  0  0  0  0  0  0  0
  128.7620  130.0880   60.5990 C   0  0  0  0  0  0  0  0  0  0  0  0
  129.1430  131.4360   60.6960 C   0  0  0  0  0  0  0  0  0  0  0  0
  129.4410  132.3810   59.6160 C   0  0  0  0  0  0  0  0  0  0  0  0
  128.7600  133.3970   59.4640 O   0  0  0  0  0  0  0  0  0  0  0  0
  130.4910  132.0490   58.8240 N   0  0  0  0  0  0  0  0  0  0  0  0
  130.9830  132.7500   57.7310 C   0  0  0  0  0  0  0  0  0  0  0  0
  132.2220  132.4840   57.1500 C   0  0  0  0  0  0  0  0  0  0  0  0
  132.3300  133.3790   56.1110 C   0  0  0  0  0  0  0  0  0  0  0  0
  131.2130  134.1450   56.0690 O   0  0  0  0  0  0  0  0  0  0  0  0
  130.3670  133.7370   57.1010 N   0  0  0  0  0  0  0  0  0  0  0  0
  129.2410  131.9510   62.3790 S   0  0  0  0  0  0  0  0  0  0  0  0
  128.7910  130.3590   62.9400 C   0  0  0  0  0  0  0  0  0  0  0  0
  128.7100  130.0740   64.2390 N   0  0  0  0  0  0  0  0  0  0  0  0
  128.3690  128.8010   64.5700 C   0  0  0  0  0  0  0  0  0  0  0  0
  128.3050  128.5020   66.0330 C   0  0  0  0  0  0  0  0  0  0  0  0
  127.1320  128.7190   66.7660 C   0  0  0  0  0  0  0  0  0  0  0  0
  127.0820  128.4520   68.1310 C   0  0  0  0  0  0  0  0  0  0  0  0
  128.2090  127.9730   68.8170 C   0  0  0  0  0  0  0  0  0  0  0  0
  128.1740  127.6980   70.1880 N   0  0  0  0  0  0  0  0  0  0  0  0
  129.3700  127.8650   71.0380 C   0  0  0  0  0  0  0  0  0  0  0  0
  129.0670  127.8550   72.5500 C   0  0  0  0  0  0  0  0  0  0  0  0
  128.3610  126.6750   72.8960 O   0  0  0  0  0  0  0  0  0  0  0  0
  127.1240  126.5890   72.2080 C   0  0  0  0  0  0  0  0  0  0  0  0
  127.3640  126.5640   70.6830 C   0  0  0  0  0  0  0  0  0  0  0  0
  129.3750  127.7390   68.0740 C   0  0  0  0  0  0  0  0  0  0  0  0
  129.4230  128.0010   66.7080 C   0  0  0  0  0  0  0  0  0  0  0  0
  128.0860  127.8290   63.6080 C   0  0  0  0  0  0  0  0  0  0  0  0
  128.1510  128.1300   62.2420 C   0  0  0  0  0  0  0  0  0  0  0  0
  127.8120  127.0700   61.2590 C   0  0  0  0  0  0  0  0  0  0  0  0
  126.4780  126.7750   60.9730 C   0  0  0  0  0  0  0  0  0  0  0  0
  126.1570  125.7960   60.0380 C   0  0  0  0  0  0  0  0  0  0  0  0
  127.1610  125.0830   59.3640 C   0  0  0  0  0  0  0  0  0  0  0  0
  126.8620  124.1070   58.4100 N   0  0  0  0  0  0  0  0  0  0  0  0
  127.8650  123.0710   58.0970 C   0  0  0  0  0  0  0  0  0  0  0  0
  127.5750  122.3230   56.7780 C   0  0  0  0  0  0  0  0  0  0  0  0
  126.2710  121.7640   56.8130 O   0  0  0  0  0  0  0  0  0  0  0  0
  125.2750  122.7630   56.9800 C   0  0  0  0  0  0  0  0  0  0  0  0
  125.5090  123.5260   58.3020 C   0  0  0  0  0  0  0  0  0  0  0  0
  128.4980  125.4020   59.6460 C   0  0  0  0  0  0  0  0  0  0  0  0
  128.8190  126.3810   60.5810 C   0  0  0  0  0  0  0  0  0  0  0  0
  128.5400  129.4480   61.8720 C   0  0  0  0  0  0  0  0  0  0  0  0
  1  2  1  0
  2  3  2  0
  3  4  1  0
  4  5  2  0
  4  6  1  0
  6  7  1  0
  7  8  1  0
  8  9  2  0
  9 10  1  0
 10 11  1  0
  3 12  1  0
 12 13  1  0
 13 14  2  0
 14 15  1  0
 15 16  1  0
 16 17  2  0
 17 18  1  0
 18 19  2  0
 19 20  1  0
 20 21  1  0
 21 22  1  0
 22 23  1  0
 23 24  1  0
 24 25  1  0
 19 26  1  0
 26 27  2  0
 15 28  2  0
 28 29  1  0
 29 30  1  0
 30 31  2  0
 31 32  1  0
 32 33  2  0
 33 34  1  0
 34 35  1  0
 35 36  1  0
 36 37  1  0
 37 38  1  0
 38 39  1  0
 33 40  1  0
 40 41  2  0
 29 42  2  0
 42  2  1  0
 11  7  2  0
 42 13  1  0
 27 16  1  0
 41 30  1  0
 25 20  1  0
 39 34  1  0
M  END
>  <Binding energies>  (40) 
[-9.76]

>  <Ligand effiencies>  (40) 
[-0.21688888888888888]

>  <Interactions>  (40) 
["V-B:TYR:539:CE2:9847, V-B:PRO:540:CB:9856, V-B:MET:535:CE:9806, V-B:PRO:540:CA:9854, V-B:TYR:539:CD2:9845, V-B:LEU:363:CD1:8159, V-B:TYR:539:C:9838, V-A:HIS:456:CE1:4069, V-B:GLY:544:C:9883, V-B:GLU:543:CB:9877, V-B:GLU:543:C:9873, V-B:HIS:456:CE1:9040, V-B:GLY:544:CA:9885, V-B:PRO:540:N:9855, V-A:ILE:538:CG2:4862, V-A:ILE:538:CB:4861, V-A:TYR:539:C:4866, V-B:PRO:540:CD:9858, V-B:GLU:543:CD:9879, V-A:PRO:540:CA:4882, V-A:GLU:543:CD:4907, V-A:GLU:543:CG:4906, V-B:TYR:539:CG:9843, V-A:TYR:531:CZ:4793, H-B:TYR:539:N:9841, V-B:TYR:539:CZ:9848, H-A:TYR:539:N:4869, V-A:PRO:540:N:4883, V-B:TYR:539:CE1:9846, V-A:PRO:540:CD:4886, V-B:TYR:539:CD1:9844, V-A:TYR:531:CE2:4792, V-A:LEU:363:CD1:3188, V-B:TYR:539:CA:9840"]

$$$$
9c_Ghoteimi_2023
     RDKit          3D

 42 48  0  0  0  0  0  0  0  0999 V2000
  130.2440  124.1520   64.8230 N   0  0  0  0  0  0  0  0  0  0  0  0
  130.3240  124.3630   63.4700 C   0  0  0  0  0  0  0  0  0  0  0  0
  130.4390  123.3260   62.5310 C   0  0  0  0  0  0  0  0  0  0  0  0
  130.4760  121.8800   62.7680 C   0  0  0  0  0  0  0  0  0  0  0  0
  130.2970  121.4210   63.8980 O   0  0  0  0  0  0  0  0  0  0  0  0
  130.7230  121.1180   61.6740 N   0  0  0  0  0  0  0  0  0  0  0  0
  130.8240  119.7340   61.6260 C   0  0  0  0  0  0  0  0  0  0  0  0
  129.8600  118.8480   61.7550 N   0  0  0  0  0  0  0  0  0  0  0  0
  130.3200  117.6150   61.6610 C   0  0  0  0  0  0  0  0  0  0  0  0
  131.6900  117.4830   61.4510 C   0  0  0  0  0  0  0  0  0  0  0  0
  132.4050  119.0650   61.3750 S   0  0  0  0  0  0  0  0  0  0  0  0
  130.5480  123.9600   60.8900 S   0  0  0  0  0  0  0  0  0  0  0  0
  130.4580  125.6060   61.4710 C   0  0  0  0  0  0  0  0  0  0  0  0
  130.5200  126.6450   60.6390 N   0  0  0  0  0  0  0  0  0  0  0  0
  130.4580  127.8830   61.1940 C   0  0  0  0  0  0  0  0  0  0  0  0
  130.5520  129.0300   60.2410 C   0  0  0  0  0  0  0  0  0  0  0  0
  131.3820  130.1260   60.5050 C   0  0  0  0  0  0  0  0  0  0  0  0
  131.4590  131.1960   59.6190 C   0  0  0  0  0  0  0  0  0  0  0  0
  130.6960  131.2150   58.4390 C   0  0  0  0  0  0  0  0  0  0  0  0
  130.7680  132.2800   57.5340 N   0  0  0  0  0  0  0  0  0  0  0  0
  129.7930  132.4200   56.4330 C   0  0  0  0  0  0  0  0  0  0  0  0
  129.8040  133.8100   55.7620 C   0  0  0  0  0  0  0  0  0  0  0  0
  131.1160  134.1230   55.3210 O   0  0  0  0  0  0  0  0  0  0  0  0
  132.0330  134.1580   56.4020 C   0  0  0  0  0  0  0  0  0  0  0  0
  132.0880  132.7800   57.0970 C   0  0  0  0  0  0  0  0  0  0  0  0
  129.8820  130.1060   58.1700 C   0  0  0  0  0  0  0  0  0  0  0  0
  129.8090  129.0340   59.0560 C   0  0  0  0  0  0  0  0  0  0  0  0
  130.3060  128.0780   62.5690 C   0  0  0  0  0  0  0  0  0  0  0  0
  130.2180  126.9900   63.4440 C   0  0  0  0  0  0  0  0  0  0  0  0
  130.0260  127.2490   64.8920 C   0  0  0  0  0  0  0  0  0  0  0  0
  129.0040  128.0950   65.3280 C   0  0  0  0  0  0  0  0  0  0  0  0
  128.8100  128.3270   66.6870 C   0  0  0  0  0  0  0  0  0  0  0  0
  129.6350  127.7210   67.6470 C   0  0  0  0  0  0  0  0  0  0  0  0
  129.4510  127.9310   69.0170 N   0  0  0  0  0  0  0  0  0  0  0  0
  129.0380  126.7980   69.8700 C   0  0  0  0  0  0  0  0  0  0  0  0
  128.5000  127.2390   71.2480 C   0  0  0  0  0  0  0  0  0  0  0  0
  129.4640  128.0420   71.9120 O   0  0  0  0  0  0  0  0  0  0  0  0
  129.7760  129.2100   71.1680 C   0  0  0  0  0  0  0  0  0  0  0  0
  130.3420  128.8210   69.7850 C   0  0  0  0  0  0  0  0  0  0  0  0
  130.6450  126.8570   67.1990 C   0  0  0  0  0  0  0  0  0  0  0  0
  130.8390  126.6240   65.8400 C   0  0  0  0  0  0  0  0  0  0  0  0
  130.3170  125.6820   62.8890 C   0  0  0  0  0  0  0  0  0  0  0  0
  1  2  1  0
  2  3  2  0
  3  4  1  0
  4  5  2  0
  4  6  1  0
  6  7  1  0
  7  8  2  0
  8  9  1  0
  9 10  2  0
 10 11  1  0
  3 12  1  0
 12 13  1  0
 13 14  2  0
 14 15  1  0
 15 16  1  0
 16 17  2  0
 17 18  1  0
 18 19  2  0
 19 20  1  0
 20 21  1  0
 21 22  1  0
 22 23  1  0
 23 24  1  0
 24 25  1  0
 19 26  1  0
 26 27  2  0
 15 28  2  0
 28 29  1  0
 29 30  1  0
 30 31  2  0
 31 32  1  0
 32 33  2  0
 33 34  1  0
 34 35  1  0
 35 36  1  0
 36 37  1  0
 37 38  1  0
 38 39  1  0
 33 40  1  0
 40 41  2  0
 29 42  2  0
 42  2  1  0
 11  7  1  0
 42 13  1  0
 27 16  1  0
 41 30  1  0
 25 20  1  0
 39 34  1  0
M  END
>  <Binding energies>  (41) 
[-8.98]

>  <Ligand effiencies>  (41) 
[-0.19955555555555557]

>  <Interactions>  (41) 
["V-B:ALA:541:CB:9863, V-A:SER:385:CA:3406, V-B:TYR:539:CD2:9845, V-A:SER:385:CB:3408, V-A:LEU:475:CD2:4258, V-A:HIS:456:CE1:4069, V-B:HIS:456:CE1:9040, V-A:TYR:539:CZ:4876, V-A:TYR:539:CG:4871, V-A:ILE:538:CG2:4862, V-A:TYR:539:CD1:4872, V-A:ILE:538:CB:4861, V-A:TYR:539:CE2:4875, V-A:ILE:538:CA:4859, V-A:TYR:539:C:4866, V-A:ILE:538:C:4857, V-A:TYR:539:CE1:4874, V-B:GLU:543:CD:9879, V-A:PRO:540:CB:4884, V-A:GLU:543:CD:4907, V-A:GLU:543:CB:4905, V-A:GLU:543:CG:4906, V-A:GLU:543:C:4901, V-A:HIS:383:CE1:3393, H-B:TYR:539:O:9839, H-B:GLU:543:OE2:9881, H-A:TYR:484:OH:4347, H-A:TYR:539:N:4869, V-A:PRO:540:N:4883, V-A:PRO:540:CD:4886, V-A:TYR:531:CE2:4792, V-A:LEU:363:CD1:3188, V-A:PRO:482:CB:4325, V-A:TYR:539:CD2:4873, V-A:PRO:482:CG:4326"]

$$$$
RR11_Rahimova_2017
     RDKit          3D

 33 38  0  0  0  0  0  0  0  0999 V2000
  134.6230  130.7390   57.5830 N   0  0  0  0  0  0  0  0  0  0  0  0
  133.4760  131.1400   58.2650 C   0  0  0  0  0  0  0  0  0  0  0  0
  132.5280  131.9330   57.6210 C   0  0  0  0  0  0  0  0  0  0  0  0
  131.3810  132.3310   58.3030 C   0  0  0  0  0  0  0  0  0  0  0  0
  131.1720  131.9410   59.6320 C   0  0  0  0  0  0  0  0  0  0  0  0
  129.9330  132.3660   60.3630 C   0  0  0  0  0  0  0  0  0  0  0  0
  128.9310  131.5650   60.6550 N   0  0  0  0  0  0  0  0  0  0  0  0
  128.0270  132.3470   61.3270 C   0  0  0  0  0  0  0  0  0  0  0  0
  126.7840  131.9950   61.8710 C   0  0  0  0  0  0  0  0  0  0  0  0
  126.0450  132.9810   62.5350 C   0  0  0  0  0  0  0  0  0  0  0  0
  124.6890  132.6300   63.1320 C   0  0  0  0  0  0  0  0  0  0  0  0
  124.7450  131.4310   64.0680 C   0  0  0  0  0  0  0  0  0  0  0  0
  123.8140  130.3970   63.9190 C   0  0  0  0  0  0  0  0  0  0  0  0
  123.8300  129.2730   64.7480 C   0  0  0  0  0  0  0  0  0  0  0  0
  124.8160  129.1990   65.7410 C   0  0  0  0  0  0  0  0  0  0  0  0
  125.0370  128.2190   66.6730 N   0  0  0  0  0  0  0  0  0  0  0  0
  126.0760  128.6290   67.3690 C   0  0  0  0  0  0  0  0  0  0  0  0
  126.6760  127.8770   68.5220 C   0  0  0  0  0  0  0  0  0  0  0  0
  125.8550  127.3230   69.5130 C   0  0  0  0  0  0  0  0  0  0  0  0
  126.4120  126.6350   70.5880 C   0  0  0  0  0  0  0  0  0  0  0  0
  127.7950  126.4960   70.6790 C   0  0  0  0  0  0  0  0  0  0  0  0
  128.3540  125.8110   71.7580 N   0  0  0  0  0  0  0  0  0  0  0  0
  128.6230  127.0380   69.6990 C   0  0  0  0  0  0  0  0  0  0  0  0
  128.0650  127.7260   68.6250 C   0  0  0  0  0  0  0  0  0  0  0  0
  126.5490  129.8440   66.9210 N   0  0  0  0  0  0  0  0  0  0  0  0
  125.7580  130.2470   65.8710 C   0  0  0  0  0  0  0  0  0  0  0  0
  125.7510  131.3710   65.0420 C   0  0  0  0  0  0  0  0  0  0  0  0
  126.5270  134.2920   62.6280 C   0  0  0  0  0  0  0  0  0  0  0  0
  127.7590  134.6750   62.0920 C   0  0  0  0  0  0  0  0  0  0  0  0
  128.4930  133.6770   61.4460 C   0  0  0  0  0  0  0  0  0  0  0  0
  129.7150  133.6510   60.8150 N   0  0  0  0  0  0  0  0  0  0  0  0
  132.1350  131.1450   60.2680 C   0  0  0  0  0  0  0  0  0  0  0  0
  133.2820  130.7450   59.5880 C   0  0  0  0  0  0  0  0  0  0  0  0
  1  2  1  0
  2  3  2  0
  3  4  1  0
  4  5  2  0
  5  6  1  0
  6  7  2  0
  7  8  1  0
  8  9  2  0
  9 10  1  0
 10 11  1  0
 11 12  1  0
 12 13  2  0
 13 14  1  0
 14 15  2  0
 15 16  1  0
 16 17  2  0
 17 18  1  0
 18 19  2  0
 19 20  1  0
 20 21  2  0
 21 22  1  0
 21 23  1  0
 23 24  2  0
 17 25  1  0
 25 26  1  0
 26 27  2  0
 10 28  2  0
 28 29  1  0
 29 30  2  0
 30 31  1  0
  5 32  1  0
 32 33  2  0
 33  2  1  0
 31  6  1  0
 30  8  1  0
 27 12  1  0
 26 15  1  0
 24 18  1  0
M  END
>  <Binding energies>  (42) 
[-8.76]

>  <Ligand effiencies>  (42) 
[-0.2246153846153846]

>  <Interactions>  (42) 
["V-A:ASP:366:CG:3212, V-A:HIS:456:CE1:4069, V-B:GLY:544:C:9883, V-B:GLU:543:CB:9877, V-B:GLU:543:C:9873, V-B:HIS:456:CE1:9040, V-B:GLY:454:CA:9019, V-B:GLY:453:CA:9014, V-A:TYR:539:C:4866, V-B:GLY:453:C:9012, V-B:LEU:475:CD1:9228, V-B:GLU:543:CD:9879, V-A:PRO:540:CA:4882, V-A:PRO:540:CB:4884, V-B:ARG:545:CG:9893, V-A:ASN:362:C:3171, V-A:ASP:366:CB:3211, V-A:ALA:541:CB:4891, V-A:LEU:363:CA:3184, V-B:ARG:545:CA:9890, H-B:TYR:484:OH:9318, V-B:ARG:545:CZ:9897, H-B:ARG:545:NE:9895, V-A:TYR:531:CZ:4793, H-A:TYR:531:OH:4794, V-A:PRO:540:N:4883, V-A:TYR:531:CE2:4792, V-A:LEU:363:CD1:3188, H-A:TYR:539:O:4867, V-A:PRO:540:C:4880, V-B:TYR:484:CZ:9317, V-A:LEU:363:C:3182, V-A:LEU:363:CB:3186, H-B:GLU:543:O:9874, H-A:HIS:456:NE2:4070, H-A:ASN:362:O:3172, H-A:LEU:363:O:3183, V-A:LEU:363:CG:3187, H-A:PRO:540:O:4881"]

$$$$
RR16_Rahimova_2017
     RDKit          3D

 44 49  0  0  0  0  0  0  0  0999 V2000
  130.8920  123.3750   62.3750 O   0  0  0  0  0  0  0  0  0  0  0  0
  129.6160  122.6810   62.5790 S   0  0  0  0  0  0  0  0  0  0  0  0
  128.8000  122.9410   63.7710 O   0  0  0  0  0  0  0  0  0  0  0  0
  129.9350  120.9470   62.5000 N   0  0  0  0  0  0  0  0  0  0  0  0
  130.4640  120.3260   61.2640 C   0  0  0  0  0  0  0  0  0  0  0  0
  131.8240  120.9800   60.9070 C   0  0  0  0  0  0  0  0  0  0  0  0
  133.1010  120.2680   61.3950 C   0  0  0  0  0  0  0  0  0  0  0  0
  133.4380  118.9860   60.6140 C   0  0  0  0  0  0  0  0  0  0  0  0
  132.3530  118.4890   59.6380 C   0  0  0  0  0  0  0  0  0  0  0  0
  131.0270  117.9970   60.2520 C   0  0  0  0  0  0  0  0  0  0  0  0
  130.4890  118.7920   61.4580 C   0  0  0  0  0  0  0  0  0  0  0  0
  128.6080  123.0150   61.1390 C   0  0  0  0  0  0  0  0  0  0  0  0
  129.1960  123.1160   59.8760 C   0  0  0  0  0  0  0  0  0  0  0  0
  128.4210  123.4970   58.7840 C   0  0  0  0  0  0  0  0  0  0  0  0
  127.0630  123.7720   58.9590 C   0  0  0  0  0  0  0  0  0  0  0  0
  126.0950  124.3970   57.5870 S   0  0  0  0  0  0  0  0  0  0  0  0
  124.7210  124.5880   58.0700 O   0  0  0  0  0  0  0  0  0  0  0  0
  126.3610  123.5320   56.4310 O   0  0  0  0  0  0  0  0  0  0  0  0
  126.7950  125.9940   57.2550 N   0  0  0  0  0  0  0  0  0  0  0  0
  126.4520  127.0360   58.2560 C   0  0  0  0  0  0  0  0  0  0  0  0
  126.8320  128.4360   57.7300 C   0  0  0  0  0  0  0  0  0  0  0  0
  128.3110  128.4970   57.2750 C   0  0  0  0  0  0  0  0  0  0  0  0
  128.6960  129.8650   56.7060 C   0  0  0  0  0  0  0  0  0  0  0  0
  127.9640  130.4050   55.6390 C   0  0  0  0  0  0  0  0  0  0  0  0
  128.2740  131.6520   55.0940 C   0  0  0  0  0  0  0  0  0  0  0  0
  127.5450  132.1660   54.0530 O   0  0  0  0  0  0  0  0  0  0  0  0
  129.3490  132.3660   55.6450 C   0  0  0  0  0  0  0  0  0  0  0  0
  129.8620  133.5930   55.3370 N   0  0  0  0  0  0  0  0  0  0  0  0
  130.9010  133.8390   56.2080 N   0  0  0  0  0  0  0  0  0  0  0  0
  131.0510  132.7630   57.0050 N   0  0  0  0  0  0  0  0  0  0  0  0
  132.0290  132.7820   58.0850 C   0  0  0  0  0  0  0  0  0  0  0  0
  131.3960  132.5850   59.4550 C   0  0  0  0  0  0  0  0  0  0  0  0
  132.1270  131.9880   60.4870 C   0  0  0  0  0  0  0  0  0  0  0  0
  131.5570  131.8260   61.7500 C   0  0  0  0  0  0  0  0  0  0  0  0
  130.2520  132.2610   61.9880 C   0  0  0  0  0  0  0  0  0  0  0  0
  129.5180  132.8590   60.9640 C   0  0  0  0  0  0  0  0  0  0  0  0
  127.9090  133.4080   61.2580 Cl  0  0  0  0  0  0  0  0  0  0  0  0
  130.0880  133.0180   59.6990 C   0  0  0  0  0  0  0  0  0  0  0  0
  130.0870  131.8110   56.7170 C   0  0  0  0  0  0  0  0  0  0  0  0
  129.7800  130.5600   57.2610 C   0  0  0  0  0  0  0  0  0  0  0  0
  128.6840  127.3260   56.3280 C   0  0  0  0  0  0  0  0  0  0  0  0
  128.2360  125.9630   56.8940 C   0  0  0  0  0  0  0  0  0  0  0  0
  126.4680  123.6290   60.2150 C   0  0  0  0  0  0  0  0  0  0  0  0
  127.2440  123.2530   61.3070 C   0  0  0  0  0  0  0  0  0  0  0  0
  1  2  2  0
  2  3  2  0
  2  4  1  0
  4  5  1  0
  5  6  1  0
  6  7  1  0
  7  8  1  0
  8  9  1  0
  9 10  1  0
 10 11  1  0
  2 12  1  0
 12 13  2  0
 13 14  1  0
 14 15  2  0
 15 16  1  0
 16 17  2  0
 16 18  2  0
 16 19  1  0
 19 20  1  0
 20 21  1  0
 21 22  1  0
 22 23  1  0
 23 24  2  0
 24 25  1  0
 25 26  1  0
 25 27  2  0
 27 28  1  0
 28 29  2  0
 29 30  1  0
 30 31  1  0
 31 32  1  0
 32 33  2  0
 33 34  1  0
 34 35  2  0
 35 36  1  0
 36 37  1  0
 36 38  2  0
 30 39  1  0
 39 40  2  0
 22 41  1  0
 41 42  1  0
 15 43  1  0
 43 44  2  0
 11  5  1  0
 44 12  1  0
 42 19  1  0
 40 23  1  0
 39 27  1  0
 38 32  1  0
M  END
>  <Binding energies>  (43) 
[-11.0]

>  <Ligand effiencies>  (43) 
[-0.22916666666666666]

>  <Interactions>  (43) 
["V-B:ALA:541:CB:9863, V-B:TYR:539:CE2:9847, V-A:ILE:369:CG2:3236, V-B:PRO:540:CB:9856, V-B:MET:535:CE:9806, V-B:PRO:540:CA:9854, V-A:SER:385:CA:3406, V-B:TYR:539:CD2:9845, V-B:PRO:540:C:9852, V-A:SER:385:CB:3408, V-A:LEU:475:CD2:4258, V-A:MET:535:CE:4834, H-A:TYR:539:OH:4877, V-A:TYR:539:CZ:4876, V-A:TYR:539:C:4866, V-A:TYR:539:CE1:4874, V-A:PRO:540:CA:4882, V-A:PRO:540:CB:4884, V-B:TYR:539:CG:9843, V-B:TYR:539:CB:9842, H-A:TYR:539:N:4869, V-A:PRO:540:N:4883, V-A:PRO:540:CD:4886, H-B:TYR:531:OH:9766, V-A:VAL:384:C:3396, H-A:VAL:537:O:4850"]

$$$$
RR18_Rahimova_2017
     RDKit          3D

 36 41  0  0  0  0  0  0  0  0999 V2000
  130.1520  127.2730   59.9150 C   0  0  0  0  0  0  0  0  0  0  0  0
  129.9750  127.6420   61.3670 C   0  0  0  0  0  0  0  0  0  0  0  0
  130.0630  126.9420   62.5590 C   0  0  0  0  0  0  0  0  0  0  0  0
  129.7860  127.8490   63.5810 C   0  0  0  0  0  0  0  0  0  0  0  0
  129.5390  129.0710   62.9760 C   0  0  0  0  0  0  0  0  0  0  0  0
  129.1890  130.4610   63.5030 C   0  0  1  0  0  0  0  0  0  0  0  0
  129.1980  131.5230   62.3640 C   0  0  0  0  0  0  0  0  0  0  0  0
  130.4400  131.8530   61.6720 C   0  0  0  0  0  0  0  0  0  0  0  0
  131.2730  132.6190   62.1600 O   0  0  0  0  0  0  0  0  0  0  0  0
  130.5890  131.2360   60.4770 N   0  0  0  0  0  0  0  0  0  0  0  0
  131.6310  131.3220   59.5280 C   0  0  0  0  0  0  0  0  0  0  0  0
  132.8400  130.6100   59.6370 C   0  0  0  0  0  0  0  0  0  0  0  0
  133.8330  130.7460   58.6690 C   0  0  0  0  0  0  0  0  0  0  0  0
  133.6390  131.5950   57.5840 C   0  0  0  0  0  0  0  0  0  0  0  0
  132.4530  132.3160   57.4690 C   0  0  0  0  0  0  0  0  0  0  0  0
  131.4470  132.1900   58.4330 C   0  0  0  0  0  0  0  0  0  0  0  0
  130.1670  133.0040   58.2630 C   0  0  0  0  0  0  0  0  0  0  0  0
  128.0130  132.0540   61.9650 C   0  0  0  0  0  0  0  0  0  0  0  0
  126.8140  131.8170   62.5660 N   0  0  0  0  0  0  0  0  0  0  0  0
  126.7730  131.1110   63.6350 C   0  0  0  0  0  0  0  0  0  0  0  0
  125.3370  130.8480   64.5970 S   0  0  0  0  0  0  0  0  0  0  0  0
  126.2480  129.8600   65.7820 C   0  0  0  0  0  0  0  0  0  0  0  0
  125.7530  129.2560   66.9180 C   0  0  0  0  0  0  0  0  0  0  0  0
  124.3510  129.4570   67.3140 C   0  0  0  0  0  0  0  0  0  0  0  0
  123.4560  130.0970   66.7630 O   0  0  0  0  0  0  0  0  0  0  0  0
  124.1660  128.8070   68.4670 N   0  0  0  0  0  0  0  0  0  0  0  0
  125.2820  128.1500   68.8920 C   0  0  0  0  0  0  0  0  0  0  0  0
  125.4300  127.3700   70.0380 C   0  0  0  0  0  0  0  0  0  0  0  0
  126.6550  126.7530   70.2780 C   0  0  0  0  0  0  0  0  0  0  0  0
  127.6990  126.9180   69.3700 C   0  0  0  0  0  0  0  0  0  0  0  0
  127.5260  127.7050   68.2280 C   0  0  0  0  0  0  0  0  0  0  0  0
  126.3030  128.3560   67.9810 C   0  0  0  0  0  0  0  0  0  0  0  0
  127.6440  129.8060   65.3470 C   0  0  0  0  0  0  0  0  0  0  0  0
  128.5720  129.2630   65.9380 O   0  0  0  0  0  0  0  0  0  0  0  0
  127.8410  130.4690   64.1740 N   0  0  0  0  0  0  0  0  0  0  0  0
  129.6550  128.9360   61.6280 O   0  0  0  0  0  0  0  0  0  0  0  0
  1  2  1  0
  2  3  2  0
  3  4  1  0
  4  5  2  0
  6  5  1  6
  6  7  1  0
  7  8  1  0
  8  9  2  0
  8 10  1  0
 10 11  1  0
 11 12  2  0
 12 13  1  0
 13 14  2  0
 14 15  1  0
 15 16  2  0
 16 17  1  0
  7 18  2  0
 18 19  1  0
 19 20  2  0
 20 21  1  0
 21 22  1  0
 22 23  2  0
 23 24  1  0
 24 25  2  0
 24 26  1  0
 26 27  1  0
 27 28  2  0
 28 29  1  0
 29 30  2  0
 30 31  1  0
 31 32  2  0
 22 33  1  0
 33 34  2  0
 33 35  1  0
  5 36  1  0
 36  2  1  0
 35  6  1  0
 16 11  1  0
 35 20  1  0
 32 23  1  0
 32 27  1  0
M  END
>  <Binding energies>  (44) 
[-9.45]

>  <Ligand effiencies>  (44) 
[-0.24868421052631576]

>  <Interactions>  (44) 
["V-A:ASP:366:CG:3212, V-B:GLY:544:C:9883, V-B:GLU:543:CB:9877, V-B:GLU:543:C:9873, V-B:HIS:456:CE1:9040, V-A:TYR:539:CD1:4872, V-A:TYR:539:C:4866, V-B:GLU:543:CD:9879, V-A:PRO:540:CA:4882, V-A:PRO:540:CB:4884, V-B:ARG:545:CG:9893, V-A:GLU:543:CD:4907, H-A:ALA:541:N:4890, V-A:ASN:362:C:3171, V-A:ASP:366:CB:3211, V-A:GLU:543:CG:4906, V-A:LEU:363:CA:3184, H-B:ILE:455:N:9025, H-B:GLY:454:N:9020, V-B:ARG:545:CA:9890, V-B:ARG:545:CD:9894, V-B:ARG:545:CB:9892, H-B:TYR:484:OH:9318, V-A:TYR:531:CZ:4793, V-A:PRO:540:N:4883, V-A:TYR:531:CE2:4792, V-A:LEU:363:CD1:3188, V-A:LEU:363:C:3182, H-B:ILE:455:O:9023"]

$$$$
RR20_Rahimova_2017
     RDKit          3D

 38 43  0  0  0  0  0  0  0  0999 V2000
  131.7810  133.7160   56.0740 C   0  0  0  0  0  0  0  0  0  0  0  0
  130.4770  133.0410   55.6900 C   0  0  0  0  0  0  0  0  0  0  0  0
  129.8990  132.1060   56.5500 C   0  0  0  0  0  0  0  0  0  0  0  0
  128.6980  131.4930   56.2040 C   0  0  0  0  0  0  0  0  0  0  0  0
  128.0720  131.7980   54.9900 C   0  0  0  0  0  0  0  0  0  0  0  0
  126.7570  131.1350   54.6420 C   0  0  0  0  0  0  0  0  0  0  0  0
  126.3920  131.1730   53.4650 O   0  0  0  0  0  0  0  0  0  0  0  0
  126.0400  130.5160   55.6250 N   0  0  0  0  0  0  0  0  0  0  0  0
  124.6150  130.8160   55.8460 C   0  0  0  0  0  0  0  0  0  0  0  0
  124.1300  129.8380   56.9020 C   0  0  0  0  0  0  0  0  0  0  0  0
  125.2190  128.8080   56.9280 C   0  0  0  0  0  0  0  0  0  0  0  0
  125.2840  127.6160   57.6490 C   0  0  0  0  0  0  0  0  0  0  0  0
  126.4620  126.8590   57.6710 C   0  0  0  0  0  0  0  0  0  0  0  0
  126.5300  125.5690   58.4410 C   0  0  0  0  0  0  0  0  0  0  0  0
  127.6160  125.3190   59.1540 N   0  0  0  0  0  0  0  0  0  0  0  0
  127.5590  124.1800   59.7970 C   0  0  0  0  0  0  0  0  0  0  0  0
  128.5140  123.6210   60.6320 N   0  0  0  0  0  0  0  0  0  0  0  0
  128.3010  123.0240   61.8300 C   0  0  0  0  0  0  0  0  0  0  0  0
  127.1880  122.8780   62.3380 O   0  0  0  0  0  0  0  0  0  0  0  0
  129.5260  122.4680   62.5930 C   0  0  0  0  0  0  0  0  0  0  0  0
  130.4280  121.6750   61.7370 N   0  0  0  0  0  0  0  0  0  0  0  0
  131.8460  121.9090   62.0460 C   0  0  0  0  0  0  0  0  0  0  0  0
  132.7410  121.2710   60.9590 C   0  0  0  0  0  0  0  0  0  0  0  0
  132.3150  119.8480   60.5950 C   0  0  0  0  0  0  0  0  0  0  0  0
  133.1500  119.0170   59.8390 C   0  0  0  0  0  0  0  0  0  0  0  0
  132.7460  117.7350   59.4750 C   0  0  0  0  0  0  0  0  0  0  0  0
  131.4970  117.2650   59.8690 C   0  0  0  0  0  0  0  0  0  0  0  0
  130.6600  118.0780   60.6290 C   0  0  0  0  0  0  0  0  0  0  0  0
  131.0520  119.3690   61.0010 C   0  0  0  0  0  0  0  0  0  0  0  0
  130.1580  120.2400   61.8840 C   0  0  0  0  0  0  0  0  0  0  0  0
  126.1050  123.2960   59.5480 S   0  0  0  0  0  0  0  0  0  0  0  0
  125.5400  124.5640   58.4860 C   0  0  0  0  0  0  0  0  0  0  0  0
  124.2050  124.4390   57.7860 C   0  0  0  0  0  0  0  0  0  0  0  0
  127.5890  127.3550   56.9990 C   0  0  0  0  0  0  0  0  0  0  0  0
  127.5330  128.5570   56.2930 C   0  0  0  0  0  0  0  0  0  0  0  0
  126.3250  129.2610   56.2080 C   0  0  0  0  0  0  0  0  0  0  0  0
  128.6430  132.7580   54.1450 C   0  0  0  0  0  0  0  0  0  0  0  0
  129.8440  133.3740   54.4910 C   0  0  0  0  0  0  0  0  0  0  0  0
  1  2  1  0
  2  3  2  0
  3  4  1  0
  4  5  2  0
  5  6  1  0
  6  7  2  0
  6  8  1  0
  8  9  1  0
  9 10  1  0
 10 11  1  0
 11 12  2  0
 12 13  1  0
 13 14  1  0
 14 15  1  0
 15 16  2  0
 16 17  1  0
 17 18  1  0
 18 19  2  0
 18 20  1  0
 20 21  1  0
 21 22  1  0
 22 23  1  0
 23 24  1  0
 24 25  2  0
 25 26  1  0
 26 27  2  0
 27 28  1  0
 28 29  2  0
 29 30  1  0
 16 31  1  0
 31 32  1  0
 32 33  1  0
 13 34  2  0
 34 35  1  0
 35 36  2  0
  5 37  1  0
 37 38  2  0
 38  2  1  0
 36  8  1  0
 36 11  1  0
 32 14  2  0
 30 21  1  0
 29 24  1  0
M  END
>  <Binding energies>  (45) 
[-12.02]

>  <Ligand effiencies>  (45) 
[-0.3082051282051282]

>  <Interactions>  (45) 
["V-B:ALA:541:CB:9863, V-B:TYR:539:CE2:9847, V-A:ILE:369:CG2:3236, V-B:ASP:366:CB:8182, V-B:PRO:540:CB:9856, H-B:ALA:541:N:9862, V-B:PRO:540:CA:9854, V-A:SER:385:CA:3406, V-B:TYR:531:CZ:9765, V-B:TYR:539:CD2:9845, V-B:TYR:531:CE2:9764, V-B:LEU:363:CD1:8159, V-A:LEU:475:CD2:4258, V-B:TYR:539:C:9838, V-B:ASN:370:CB:8215, H-B:LYS:534:NZ:9794, H-A:TYR:539:OH:4877, V-A:TYR:539:CZ:4876, V-B:TYR:531:CE1:9763, V-B:PRO:540:N:9855, V-A:MET:535:CG:4832, V-A:ILE:538:CG2:4862, V-A:ILE:538:CB:4861, V-A:TYR:539:CE2:4875, V-A:ILE:538:CA:4859, V-A:TYR:539:CE1:4874, V-B:TYR:539:CB:9842, V-A:HIS:383:CE1:3393, V-A:PRO:540:N:4883, V-A:PRO:540:CD:4886, V-A:TYR:531:CE2:4792, V-A:LEU:363:CD1:3188, V-B:ASP:366:C:8178, V-A:MET:535:CB:4831, V-A:VAL:384:C:3396, V-A:LEU:373:CD2:3280"]

$$$$
RR21_Rahimova_2017
     RDKit          3D

 40 45  0  0  0  0  0  0  0  0999 V2000
  133.6170  124.9740   63.0440 C   0  0  0  0  0  0  0  0  0  0  0  0
  133.9290  125.3810   64.3730 O   0  0  0  0  0  0  0  0  0  0  0  0
  132.9190  125.8570   65.1870 C   0  0  0  0  0  0  0  0  0  0  0  0
  131.6040  126.0990   64.7560 C   0  0  0  0  0  0  0  0  0  0  0  0
  130.6420  126.5790   65.6450 C   0  0  0  0  0  0  0  0  0  0  0  0
  130.9660  126.8250   66.9840 C   0  0  0  0  0  0  0  0  0  0  0  0
  129.9300  127.3350   67.9380 C   0  0  0  0  0  0  0  0  0  0  0  0
  129.8380  126.8140   69.1460 N   0  0  0  0  0  0  0  0  0  0  0  0
  128.8390  127.4580   69.7680 N   0  0  0  0  0  0  0  0  0  0  0  0
  128.4820  127.1550   71.1070 C   0  0  0  0  0  0  0  0  0  0  0  0
  127.4620  126.2330   71.3870 C   0  0  0  0  0  0  0  0  0  0  0  0
  127.1240  125.9400   72.7060 C   0  0  0  0  0  0  0  0  0  0  0  0
  127.8030  126.5680   73.7480 C   0  0  0  0  0  0  0  0  0  0  0  0
  128.8150  127.4870   73.4840 C   0  0  0  0  0  0  0  0  0  0  0  0
  129.1550  127.7820   72.1660 C   0  0  0  0  0  0  0  0  0  0  0  0
  128.3030  128.4130   68.9400 C   0  0  0  0  0  0  0  0  0  0  0  0
  128.9760  128.3570   67.7290 C   0  0  0  0  0  0  0  0  0  0  0  0
  128.7940  129.2030   66.5590 C   0  0  0  0  0  0  0  0  0  0  0  0
  127.6380  129.5420   65.9430 C   0  0  0  0  0  0  0  0  0  0  0  0
  125.9860  129.0460   66.3720 S   0  0  0  0  0  0  0  0  0  0  0  0
  125.3650  130.0150   65.0430 C   0  0  0  0  0  0  0  0  0  0  0  0
  124.1270  130.1870   64.6940 N   0  0  0  0  0  0  0  0  0  0  0  0
  123.7570  131.0130   63.5980 C   0  0  0  0  0  0  0  0  0  0  0  0
  122.6090  131.2430   63.2170 O   0  0  0  0  0  0  0  0  0  0  0  0
  124.9250  131.6390   62.8860 C   0  0  0  0  0  0  0  0  0  0  0  0
  124.6490  132.5360   61.6730 C   0  0  0  0  0  0  0  0  0  0  0  0
  125.4210  133.8540   61.6760 C   0  0  0  0  0  0  0  0  0  0  0  0
  126.3210  134.1350   62.7080 C   0  0  0  0  0  0  0  0  0  0  0  0
  127.0370  135.3300   62.7010 C   0  0  0  0  0  0  0  0  0  0  0  0
  126.8570  136.2450   61.6630 C   0  0  0  0  0  0  0  0  0  0  0  0
  127.6480  137.5400   61.6540 C   0  0  0  0  0  0  0  0  0  0  0  0
  125.9660  135.9600   60.6240 C   0  0  0  0  0  0  0  0  0  0  0  0
  125.2500  134.7670   60.6310 C   0  0  0  0  0  0  0  0  0  0  0  0
  126.1540  131.4530   63.2420 N   0  0  0  0  0  0  0  0  0  0  0  0
  126.3760  130.6240   64.3490 N   0  0  0  0  0  0  0  0  0  0  0  0
  127.6460  130.4110   64.7750 C   0  0  0  0  0  0  0  0  0  0  0  0
  128.6560  130.8930   64.2480 O   0  0  0  0  0  0  0  0  0  0  0  0
  132.2770  126.5900   67.4120 C   0  0  0  0  0  0  0  0  0  0  0  0
  133.2410  126.1110   66.5250 C   0  0  0  0  0  0  0  0  0  0  0  0
  134.5000  125.8940   66.9720 F   0  0  0  0  0  0  0  0  0  0  0  0
  1  2  1  0
  2  3  1  0
  3  4  2  0
  4  5  1  0
  5  6  2  0
  6  7  1  0
  7  8  2  0
  8  9  1  0
  9 10  1  0
 10 11  2  0
 11 12  1  0
 12 13  2  0
 13 14  1  0
 14 15  2  0
  9 16  1  0
 16 17  2  0
 17 18  1  0
 18 19  2  0
 19 20  1  0
 20 21  1  0
 21 22  2  0
 22 23  1  0
 23 24  2  0
 23 25  1  0
 25 26  1  0
 26 27  1  0
 27 28  2  0
 28 29  1  0
 29 30  2  0
 30 31  1  0
 30 32  1  0
 32 33  2  0
 25 34  2  0
 34 35  1  0
 35 36  1  0
 36 37  2  0
  6 38  1  0
 38 39  2  0
 39 40  1  0
 39  3  1  0
 17  7  1  0
 36 19  1  0
 15 10  1  0
 35 21  1  0
 33 27  1  0
M  END
>  <Binding energies>  (46) 
[-10.94]

>  <Ligand effiencies>  (46) 
[-0.27349999999999997]

>  <Interactions>  (46) 
["V-A:GLY:453:CA:4043, H-A:ARG:545:NH2:4927, V-A:ARG:545:CZ:4925, V-A:ASP:366:CG:3212, V-A:HIS:456:CE1:4069, V-B:GLY:544:C:9883, V-B:GLU:543:CB:9877, V-B:GLU:543:C:9873, V-B:HIS:456:CE1:9040, V-B:GLY:544:CA:9885, V-B:LYS:547:CE:9921, V-A:TYR:539:CG:4871, V-B:SER:385:CB:8379, V-B:GLY:454:CA:9019, V-A:TYR:539:CD1:4872, V-A:TYR:539:C:4866, V-A:TYR:539:CE1:4874, V-B:GLY:453:C:9012, V-B:LEU:475:CD1:9228, V-B:PRO:482:CG:9297, V-B:PRO:482:CB:9296, V-B:GLU:543:CD:9879, V-A:GLU:543:CD:4907, V-A:GLU:543:CB:4905, V-A:TYR:539:CB:4870, V-A:ALA:541:CB:4891, V-A:GLU:543:CG:4906, H-B:GLY:454:N:9020, H-A:GLY:454:N:4049, V-A:ARG:545:CD:4922, V-A:ARG:545:CG:4921, H-A:ARG:545:NH1:4926"]

$$$$
RR23_Rahimova_2017
     RDKit          3D

 39 44  0  0  0  0  0  0  0  0999 V2000
  132.3860  117.2650   58.8800 C   0  0  0  0  0  0  0  0  0  0  0  0
  132.0400  118.3680   59.8630 C   0  0  0  0  0  0  0  0  0  0  0  0
  130.8490  118.3090   60.5880 C   0  0  0  0  0  0  0  0  0  0  0  0
  130.5370  119.3170   61.4970 C   0  0  0  0  0  0  0  0  0  0  0  0
  131.4100  120.3960   61.6810 C   0  0  0  0  0  0  0  0  0  0  0  0
  131.0630  121.4690   62.6880 C   0  0  0  0  0  0  0  0  0  0  0  0
  131.9420  121.8140   63.4810 O   0  0  0  0  0  0  0  0  0  0  0  0
  129.8130  122.0220   62.6760 N   0  0  0  0  0  0  0  0  0  0  0  0
  129.2430  122.6630   63.8720 C   0  0  0  0  0  0  0  0  0  0  0  0
  127.9240  123.2800   63.4380 C   0  0  0  0  0  0  0  0  0  0  0  0
  128.0240  123.2670   61.9430 C   0  0  0  0  0  0  0  0  0  0  0  0
  127.1420  123.7900   60.9980 C   0  0  0  0  0  0  0  0  0  0  0  0
  127.3330  123.5350   59.6320 C   0  0  0  0  0  0  0  0  0  0  0  0
  126.3850  124.0920   58.5580 C   0  0  2  0  0  0  0  0  0  0  0  0
  126.6010  125.5020   58.3170 N   0  0  0  0  0  0  0  0  0  0  0  0
  125.5240  126.0980   57.9940 C   0  0  0  0  0  0  0  0  0  0  0  0
  125.3460  127.4190   57.7240 N   0  0  0  0  0  0  0  0  0  0  0  0
  126.2310  128.4350   57.8670 C   0  0  0  0  0  0  0  0  0  0  0  0
  127.4000  128.3200   58.2420 O   0  0  0  0  0  0  0  0  0  0  0  0
  125.6930  129.8350   57.5280 C   0  0  0  0  0  0  0  0  0  0  0  0
  126.7610  130.6180   56.8670 N   0  0  0  0  0  0  0  0  0  0  0  0
  126.6820  130.6810   55.4810 N   0  0  0  0  0  0  0  0  0  0  0  0
  127.5570  131.3340   54.7840 N   0  0  0  0  0  0  0  0  0  0  0  0
  128.6060  131.9940   55.4280 C   0  0  0  0  0  0  0  0  0  0  0  0
  129.5330  132.6870   54.6460 C   0  0  0  0  0  0  0  0  0  0  0  0
  130.5930  133.3560   55.2600 C   0  0  0  0  0  0  0  0  0  0  0  0
  130.7280  133.3330   56.6500 C   0  0  0  0  0  0  0  0  0  0  0  0
  129.8020  132.6400   57.4330 C   0  0  0  0  0  0  0  0  0  0  0  0
  128.7380  131.9710   56.8170 C   0  0  0  0  0  0  0  0  0  0  0  0
  127.7280  131.2120   57.6460 C   0  0  0  0  0  0  0  0  0  0  0  0
  127.7750  131.1280   58.8770 O   0  0  0  0  0  0  0  0  0  0  0  0
  124.0450  125.1000   57.8910 S   0  0  0  0  0  0  0  0  0  0  0  0
  124.8880  123.8070   58.8210 C   0  0  2  0  0  0  0  0  0  0  0  0
  124.4210  123.8600   60.2910 C   0  0  0  0  0  0  0  0  0  0  0  0
  128.3920  122.7080   59.2400 C   0  0  0  0  0  0  0  0  0  0  0  0
  129.2630  122.1670   60.1870 C   0  0  0  0  0  0  0  0  0  0  0  0
  129.1140  122.4920   61.5420 C   0  0  0  0  0  0  0  0  0  0  0  0
  132.6170  120.4340   60.9710 C   0  0  0  0  0  0  0  0  0  0  0  0
  132.9280  119.4260   60.0630 C   0  0  0  0  0  0  0  0  0  0  0  0
  1  2  1  0
  2  3  2  0
  3  4  1  0
  4  5  2  0
  5  6  1  0
  6  7  2  0
  6  8  1  0
  8  9  1  0
  9 10  1  0
 10 11  1  0
 11 12  2  0
 12 13  1  0
 14 13  1  1
 14 15  1  0
 15 16  2  0
 16 17  1  0
 17 18  1  0
 18 19  2  0
 18 20  1  0
 20 21  1  0
 21 22  1  0
 22 23  2  0
 23 24  1  0
 24 25  2  0
 25 26  1  0
 26 27  2  0
 27 28  1  0
 28 29  2  0
 29 30  1  0
 30 31  2  0
 16 32  1  0
 32 33  1  0
 33 34  1  1
 13 35  2  0
 35 36  1  0
 36 37  2  0
  5 38  1  0
 38 39  2  0
 39  2  1  0
 37  8  1  0
 37 11  1  0
 33 14  1  0
 30 21  1  0
 29 24  1  0
M  END
>  <Binding energies>  (47) 
[-11.08]

>  <Ligand effiencies>  (47) 
[-0.277]

>  <Interactions>  (47) 
["V-B:ALA:541:CB:9863, V-B:TYR:539:CE2:9847, V-A:ILE:369:CG2:3236, V-B:ASP:366:CB:8182, V-B:PRO:540:CB:9856, V-B:PRO:540:CA:9854, V-A:SER:385:CA:3406, V-B:TYR:531:CZ:9765, V-B:TYR:539:CD2:9845, V-A:LEU:475:CD2:4258, V-B:TYR:539:C:9838, H-A:TYR:539:OH:4877, V-A:TYR:539:CZ:4876, V-B:TYR:531:CE1:9763, V-B:PRO:540:N:9855, V-A:MET:535:CG:4832, V-A:ILE:538:CG2:4862, V-A:TYR:539:CD1:4872, V-A:ILE:538:CB:4861, V-A:ILE:538:CA:4859, V-A:TYR:539:C:4866, V-A:TYR:539:CE1:4874, V-B:GLU:543:CD:9879, V-A:LEU:373:CD1:3279, V-B:TYR:539:CG:9843, V-A:HIS:383:CG:3389, V-B:TYR:539:CB:9842, V-A:HIS:383:CE1:3393, V-B:GLU:543:CG:9878, V-A:PRO:540:N:4883, H-B:TYR:531:OH:9766, V-A:MET:535:CB:4831, V-A:LEU:373:CG:3278, V-A:LEU:373:CD2:3280"]

$$$$
RR26_Rahimova_2017
     RDKit          3D

 38 44  0  0  0  0  0  0  0  0999 V2000
  123.0030  135.2910   55.7940 C   0  0  0  0  0  0  0  0  0  0  0  0
  122.6400  136.7360   56.1100 C   0  0  0  0  0  0  0  0  0  0  0  0
  121.8270  137.4280   55.2050 C   0  0  0  0  0  0  0  0  0  0  0  0
  121.4310  138.7390   55.4620 C   0  0  0  0  0  0  0  0  0  0  0  0
  121.8410  139.3690   56.6330 C   0  0  0  0  0  0  0  0  0  0  0  0
  122.6510  138.6910   57.5420 C   0  0  0  0  0  0  0  0  0  0  0  0
  123.0660  137.3740   57.2960 C   0  0  0  0  0  0  0  0  0  0  0  0
  123.9500  136.7210   58.3190 C   0  0  0  0  0  0  0  0  0  0  0  0
  123.8140  135.4440   58.6660 N   0  0  0  0  0  0  0  0  0  0  0  0
  124.7670  135.3000   59.5470 C   0  0  0  0  0  0  0  0  0  0  0  0
  125.3550  134.0140   60.5350 S   0  0  0  0  0  0  0  0  0  0  0  0
  126.6070  135.1280   61.2010 C   0  0  0  0  0  0  0  0  0  0  0  0
  127.5500  134.8530   62.1280 C   0  0  0  0  0  0  0  0  0  0  0  0
  127.7940  133.5940   62.8130 C   0  0  0  0  0  0  0  0  0  0  0  0
  127.1580  133.0930   63.9380 C   0  0  0  0  0  0  0  0  0  0  0  0
  127.6830  131.8540   64.2050 N   0  0  0  0  0  0  0  0  0  0  0  0
  127.3390  130.9620   65.2530 C   0  0  0  0  0  0  0  0  0  0  0  0
  128.2340  130.7090   66.3030 C   0  0  0  0  0  0  0  0  0  0  0  0
  127.8850  129.8280   67.3240 C   0  0  0  0  0  0  0  0  0  0  0  0
  126.6420  129.2010   67.3000 C   0  0  0  0  0  0  0  0  0  0  0  0
  125.7430  129.4460   66.2640 C   0  0  0  0  0  0  0  0  0  0  0  0
  126.0900  130.3240   65.2410 C   0  0  0  0  0  0  0  0  0  0  0  0
  128.6040  131.5320   63.2840 N   0  0  0  0  0  0  0  0  0  0  0  0
  128.6840  132.5550   62.4560 C   0  0  0  0  0  0  0  0  0  0  0  0
  129.6430  132.5120   61.3070 C   0  0  0  0  0  0  0  0  0  0  0  0
  130.9300  131.9770   61.4750 C   0  0  0  0  0  0  0  0  0  0  0  0
  131.8320  131.9350   60.4100 C   0  0  0  0  0  0  0  0  0  0  0  0
  131.4530  132.4310   59.1650 C   0  0  0  0  0  0  0  0  0  0  0  0
  130.1630  132.9520   58.9790 C   0  0  0  0  0  0  0  0  0  0  0  0
  129.2660  132.9980   60.0460 C   0  0  0  0  0  0  0  0  0  0  0  0
  129.7590  133.4940   57.7750 O   0  0  0  0  0  0  0  0  0  0  0  0
  130.5560  133.0950   56.6560 C   0  0  0  0  0  0  0  0  0  0  0  0
  132.0620  133.1680   57.0080 C   0  0  0  0  0  0  0  0  0  0  0  0
  132.3580  132.3270   58.1280 O   0  0  0  0  0  0  0  0  0  0  0  0
  126.5160  136.4690   60.6300 C   0  0  0  0  0  0  0  0  0  0  0  0
  127.2070  137.4620   60.8650 O   0  0  0  0  0  0  0  0  0  0  0  0
  125.4520  136.4460   59.7160 N   0  0  0  0  0  0  0  0  0  0  0  0
  124.9310  137.3810   58.9160 N   0  0  0  0  0  0  0  0  0  0  0  0
  1  2  1  0
  2  3  2  0
  3  4  1  0
  4  5  2  0
  5  6  1  0
  6  7  2  0
  7  8  1  0
  8  9  1  0
  9 10  2  0
 10 11  1  0
 11 12  1  0
 12 13  2  0
 13 14  1  0
 14 15  2  0
 15 16  1  0
 16 17  1  0
 17 18  2  0
 18 19  1  0
 19 20  2  0
 20 21  1  0
 21 22  2  0
 16 23  1  0
 23 24  2  0
 24 25  1  0
 25 26  2  0
 26 27  1  0
 27 28  2  0
 28 29  1  0
 29 30  2  0
 29 31  1  0
 31 32  1  0
 32 33  1  0
 33 34  1  0
 12 35  1  0
 35 36  2  0
 35 37  1  0
 37 38  1  0
  7  2  1  0
 38  8  2  0
 37 10  1  0
 24 14  1  0
 30 25  1  0
 22 17  1  0
 34 28  1  0
M  END
>  <Binding energies>  (48) 
[-11.54]

>  <Ligand effiencies>  (48) 
[-0.3036842105263158]

>  <Interactions>  (48) 
["V-B:ASN:370:CA:8213, V-A:TYR:539:CZ:4876, V-B:ILE:369:CG2:8207, V-A:TYR:539:CG:4871, V-B:SER:385:CB:8379, V-A:TYR:539:CD1:4872, V-A:TYR:539:CE2:4875, V-A:TYR:539:C:4866, V-A:TYR:539:CE1:4874, V-B:LEU:475:CD1:9228, V-B:HIS:383:CD2:8362, V-A:PRO:540:CA:4882, V-A:PRO:540:CB:4884, V-A:GLU:543:CD:4907, V-A:GLU:543:CB:4905, V-A:TYR:539:CB:4870, V-A:ALA:541:CB:4891, V-A:GLU:543:CG:4906, H-A:TYR:539:N:4869, V-A:PRO:540:N:4883, V-A:PRO:540:CD:4886, V-A:TYR:531:CE2:4792, V-A:LEU:363:CD1:3188, V-B:TYR:484:CZ:9317, H-B:SER:385:OG:8380, H-B:HIS:383:NE2:8364, V-B:TYR:484:CE2:9316, V-B:ILE:369:C:8202, V-B:LEU:373:CD2:8251, V-B:ASN:372:C:8233, V-B:HIS:383:CB:8359, V-B:LEU:373:CG:8249, V-B:ASN:372:CB:8237, V-B:VAL:384:C:8367, V-B:HIS:383:CG:8360, V-B:LEU:373:CD1:8250"]

$$$$
RR2_Rahimova_2017
     RDKit          3D

 46 50  0  0  0  0  0  0  0  0999 V2000
  132.2430  133.7680   55.9970 C   0  0  0  0  0  0  0  0  0  0  0  0
  132.6680  133.3630   57.2940 O   0  0  0  0  0  0  0  0  0  0  0  0
  132.1840  132.1820   57.8240 C   0  0  0  0  0  0  0  0  0  0  0  0
  130.8260  131.8400   57.8840 C   0  0  0  0  0  0  0  0  0  0  0  0
  130.4300  130.6270   58.4410 C   0  0  0  0  0  0  0  0  0  0  0  0
  131.3790  129.7310   58.9530 C   0  0  0  0  0  0  0  0  0  0  0  0
  130.9220  128.4190   59.5600 C   0  0  0  0  0  0  0  0  0  0  0  0
  130.0470  128.4080   60.4330 O   0  0  0  0  0  0  0  0  0  0  0  0
  131.5370  127.3070   59.0950 N   0  0  0  0  0  0  0  0  0  0  0  0
  131.2220  126.0870   59.6840 N   0  0  0  0  0  0  0  0  0  0  0  0
  132.0110  125.0270   59.4180 C   0  0  0  0  0  0  0  0  0  0  0  0
  132.8910  125.0030   58.5520 O   0  0  0  0  0  0  0  0  0  0  0  0
  131.7770  123.7910   60.2960 C   0  0  0  0  0  0  0  0  0  0  0  0
  133.2800  123.1040   61.0830 S   0  0  0  0  0  0  0  0  0  0  0  0
  133.4120  124.1500   62.5010 C   0  0  0  0  0  0  0  0  0  0  0  0
  134.5400  124.6880   62.8880 N   0  0  0  0  0  0  0  0  0  0  0  0
  134.2910  125.3810   64.0650 N   0  0  0  0  0  0  0  0  0  0  0  0
  133.0120  125.2590   64.3290 C   0  0  0  0  0  0  0  0  0  0  0  0
  132.3550  125.8870   65.5170 C   0  0  0  0  0  0  0  0  0  0  0  0
  133.1250  126.2440   66.6270 C   0  0  0  0  0  0  0  0  0  0  0  0
  132.5220  126.8220   67.7400 C   0  0  0  0  0  0  0  0  0  0  0  0
  131.1430  127.0630   67.7470 C   0  0  0  0  0  0  0  0  0  0  0  0
  130.4800  127.6320   68.8450 N   0  0  0  0  0  0  0  0  0  0  0  0
  128.9640  127.0190   69.5410 S   0  0  0  0  0  0  0  0  0  0  0  0
  128.8720  127.6010   70.8850 O   0  0  0  0  0  0  0  0  0  0  0  0
  128.9300  125.5640   69.3470 O   0  0  0  0  0  0  0  0  0  0  0  0
  127.6630  127.7670   68.5640 C   0  0  0  0  0  0  0  0  0  0  0  0
  127.9720  128.5850   67.4750 C   0  0  0  0  0  0  0  0  0  0  0  0
  126.9460  129.1710   66.7380 C   0  0  0  0  0  0  0  0  0  0  0  0
  125.6140  128.9340   67.0860 C   0  0  0  0  0  0  0  0  0  0  0  0
  124.4970  129.5850   66.2900 C   0  0  0  0  0  0  0  0  0  0  0  0
  125.3080  128.1180   68.1780 C   0  0  0  0  0  0  0  0  0  0  0  0
  126.3330  127.5340   68.9160 C   0  0  0  0  0  0  0  0  0  0  0  0
  130.3770  126.7080   66.6360 C   0  0  0  0  0  0  0  0  0  0  0  0
  130.9780  126.1240   65.5250 C   0  0  0  0  0  0  0  0  0  0  0  0
  132.3880  124.4790   63.3700 N   0  0  0  0  0  0  0  0  0  0  0  0
  131.0380  124.0740   63.3120 C   0  0  0  0  0  0  0  0  0  0  0  0
  130.0940  124.8860   62.6820 C   0  0  0  0  0  0  0  0  0  0  0  0
  128.7640  124.4780   62.6230 C   0  0  0  0  0  0  0  0  0  0  0  0
  128.3670  123.2660   63.1910 C   0  0  0  0  0  0  0  0  0  0  0  0
  127.0270  122.9470   63.0840 O   0  0  0  0  0  0  0  0  0  0  0  0
  126.0820  123.9870   62.8500 C   0  0  0  0  0  0  0  0  0  0  0  0
  129.3250  122.4560   63.8230 C   0  0  0  0  0  0  0  0  0  0  0  0
  130.6550  122.8580   63.8820 C   0  0  0  0  0  0  0  0  0  0  0  0
  132.7370  130.0780   58.8840 C   0  0  0  0  0  0  0  0  0  0  0  0
  133.1300  131.2910   58.3250 C   0  0  0  0  0  0  0  0  0  0  0  0
  1  2  1  0
  2  3  1  0
  3  4  2  0
  4  5  1  0
  5  6  2  0
  6  7  1  0
  7  8  2  0
  7  9  1  0
  9 10  1  0
 10 11  1  0
 11 12  2  0
 11 13  1  0
 13 14  1  0
 14 15  1  0
 15 16  2  0
 16 17  1  0
 17 18  2  0
 18 19  1  0
 19 20  2  0
 20 21  1  0
 21 22  2  0
 22 23  1  0
 23 24  1  0
 24 25  2  0
 24 26  2  0
 24 27  1  0
 27 28  2  0
 28 29  1  0
 29 30  2  0
 30 31  1  0
 30 32  1  0
 32 33  2  0
 22 34  1  0
 34 35  2  0
 18 36  1  0
 36 37  1  0
 37 38  2  0
 38 39  1  0
 39 40  2  0
 40 41  1  0
 41 42  1  0
 40 43  1  0
 43 44  2  0
  6 45  1  0
 45 46  2  0
 46  3  1  0
 36 15  1  0
 44 37  1  0
 35 19  1  0
 33 27  1  0
M  END
>  <Binding energies>  (49) 
[-11.63]

>  <Ligand effiencies>  (49) 
[-0.23734693877551022]

>  <Interactions>  (49) 
["V-B:ALA:541:CB:9863, V-B:TYR:539:CE2:9847, H-B:ALA:541:N:9862, H-A:ARG:545:NH2:4927, H-A:GLU:543:OE1:4908, V-A:ARG:545:CZ:4925, V-A:ILE:369:CD1:3238, V-A:ASP:366:CG:3212, V-A:HIS:456:CE1:4069, V-B:GLU:543:CB:9877, V-B:HIS:456:CE1:9040, V-A:ILE:538:CG2:4862, V-A:ILE:538:CB:4861, V-A:ILE:538:CA:4859, V-B:GLU:543:CD:9879, V-A:PRO:540:CA:4882, V-A:PRO:540:CB:4884, V-B:ARG:545:CG:9893, V-A:GLU:543:CD:4907, V-A:GLU:543:CB:4905, V-A:ASP:366:CB:3211, V-A:LEU:363:CA:3184, V-B:ARG:545:CD:9894, V-B:ARG:545:CZ:9897, H-A:GLY:454:N:4049, V-B:GLU:543:CG:9878, H-B:TYR:539:OH:9849, V-A:PRO:540:N:4883, V-A:PRO:540:CD:4886, H-A:ASP:366:OD2:3214, V-A:ARG:545:CD:4922, V-A:TYR:531:CE2:4792, V-A:LEU:363:CD1:3188, V-A:ARG:545:CG:4921, H-A:ARG:545:NH1:4926, H-A:HIS:456:NE2:4070"]

$$$$
RR33_Rahimova_2017
     RDKit          3D

 18 19  0  0  0  0  0  0  0  0999 V2000
  120.3440  140.5380   56.1240 C   0  0  0  0  0  0  0  0  0  0  0  0
  120.8840  140.3450   54.7040 C   0  0  0  0  0  0  0  0  0  0  0  0
  121.3090  138.9930   54.5560 O   0  0  0  0  0  0  0  0  0  0  0  0
  122.1000  138.4200   55.5340 C   0  0  0  0  0  0  0  0  0  0  0  0
  121.5570  137.3320   56.2150 C   0  0  0  0  0  0  0  0  0  0  0  0
  122.2790  136.6920   57.2190 C   0  0  0  0  0  0  0  0  0  0  0  0
  123.5610  137.1340   57.5570 C   0  0  0  0  0  0  0  0  0  0  0  0
  124.3350  136.4470   58.6360 C   0  0  0  0  0  0  0  0  0  0  0  0
  125.2250  136.9760   59.4470 N   0  0  0  0  0  0  0  0  0  0  0  0
  125.6290  135.9800   60.2190 C   0  0  0  0  0  0  0  0  0  0  0  0
  126.6600  136.2070   61.3040 C   0  0  0  0  0  0  0  0  0  0  0  0
  126.5540  137.5560   61.8400 N   0  0  0  0  0  0  0  0  0  0  0  0
  126.3440  137.5210   63.2780 C   0  0  0  0  0  0  0  0  0  0  0  0
  124.9640  134.8130   59.8630 C   0  0  0  0  0  0  0  0  0  0  0  0
  124.9720  133.3840   60.3460 C   0  0  0  0  0  0  0  0  0  0  0  0
  124.1320  135.1200   58.8420 O   0  0  0  0  0  0  0  0  0  0  0  0
  124.1120  138.2230   56.8730 C   0  0  0  0  0  0  0  0  0  0  0  0
  123.3890  138.8640   55.8690 C   0  0  0  0  0  0  0  0  0  0  0  0
  1  2  1  0
  2  3  1  0
  3  4  1  0
  4  5  2  0
  5  6  1  0
  6  7  2  0
  7  8  1  0
  8  9  2  0
  9 10  1  0
 10 11  1  0
 11 12  1  0
 12 13  1  0
 10 14  2  0
 14 15  1  0
 14 16  1  0
  7 17  1  0
 17 18  2  0
 18  4  1  0
 16  8  1  0
M  END
>  <Binding energies>  (50) 
[-5.82]

>  <Ligand effiencies>  (50) 
[-0.3063157894736842]

>  <Interactions>  (50) 
["V-B:ILE:369:CG2:8207, V-A:TYR:539:CG:4871, V-B:SER:385:CB:8379, V-A:TYR:539:CD1:4872, V-A:TYR:539:CE2:4875, V-A:TYR:539:CE1:4874, V-B:LEU:475:CD1:9228, V-B:PRO:482:CG:9297, V-B:PRO:482:CB:9296, V-B:HIS:383:CD2:8362, V-A:TYR:539:CB:4870, V-A:TYR:539:CD2:4873, H-B:SER:385:OG:8380, H-B:HIS:383:NE2:8364, V-B:ILE:369:C:8202, V-B:LEU:373:CD2:8251, V-B:MET:379:CA:8309, V-B:ASN:372:C:8233, V-B:HIS:383:CA:8357, V-B:HIS:383:CB:8359, V-B:LEU:373:CG:8249, V-B:MET:379:CB:8311, V-B:ASN:372:CB:8237, V-B:VAL:384:C:8367, H-B:LEU:373:N:8247, V-A:ILE:343:CD1:2993, V-B:HIS:383:CG:8360"]

$$$$
RR3_Rahimova_2017
     RDKit          3D

 38 44  0  0  0  0  0  0  0  0999 V2000
  131.5600  133.7220   55.9200 C   0  0  0  0  0  0  0  0  0  0  0  0
  132.3840  133.3270   56.9690 C   0  0  0  0  0  0  0  0  0  0  0  0
  131.8520  132.5890   58.0230 C   0  0  0  0  0  0  0  0  0  0  0  0
  130.4950  132.2360   58.0430 C   0  0  0  0  0  0  0  0  0  0  0  0
  129.9250  131.4410   59.1770 C   0  0  0  0  0  0  0  0  0  0  0  0
  130.7630  130.8220   60.1140 C   0  0  0  0  0  0  0  0  0  0  0  0
  130.2330  130.0800   61.1660 C   0  0  0  0  0  0  0  0  0  0  0  0
  128.8490  129.9340   61.3000 C   0  0  0  0  0  0  0  0  0  0  0  0
  128.2730  129.1330   62.4260 C   0  0  0  0  0  0  0  0  0  0  0  0
  128.3480  129.5880   63.6710 N   0  0  0  0  0  0  0  0  0  0  0  0
  127.7300  128.7130   64.4280 C   0  0  0  0  0  0  0  0  0  0  0  0
  127.5720  128.8160   65.8760 C   0  0  0  0  0  0  0  0  0  0  0  0
  126.4840  129.3630   66.5350 C   0  0  0  0  0  0  0  0  0  0  0  0
  126.6650  129.2860   67.8920 N   0  0  0  0  0  0  0  0  0  0  0  0
  127.8760  128.6910   68.1700 C   0  0  0  0  0  0  0  0  0  0  0  0
  128.4910  128.4000   69.3920 C   0  0  0  0  0  0  0  0  0  0  0  0
  129.7410  127.7830   69.3410 C   0  0  0  0  0  0  0  0  0  0  0  0
  130.3550  127.4690   68.1330 C   0  0  0  0  0  0  0  0  0  0  0  0
  129.7420  127.7580   66.9150 C   0  0  0  0  0  0  0  0  0  0  0  0
  128.4810  128.3810   66.9110 C   0  0  0  0  0  0  0  0  0  0  0  0
  127.2510  127.6730   63.6810 N   0  0  0  0  0  0  0  0  0  0  0  0
  127.6050  127.8980   62.3750 C   0  0  0  0  0  0  0  0  0  0  0  0
  127.3010  126.9340   61.2750 C   0  0  0  0  0  0  0  0  0  0  0  0
  126.4990  125.8190   61.5230 C   0  0  0  0  0  0  0  0  0  0  0  0
  126.2240  124.9130   60.5040 C   0  0  0  0  0  0  0  0  0  0  0  0
  126.7390  125.1010   59.2130 C   0  0  0  0  0  0  0  0  0  0  0  0
  126.4580  124.1140   58.1250 C   0  0  0  0  0  0  0  0  0  0  0  0
  127.5010  123.4120   57.5020 C   0  0  0  0  0  0  0  0  0  0  0  0
  127.2380  122.4900   56.4920 C   0  0  0  0  0  0  0  0  0  0  0  0
  125.9250  122.2580   56.0940 C   0  0  0  0  0  0  0  0  0  0  0  0
  124.8760  122.9410   56.6990 C   0  0  0  0  0  0  0  0  0  0  0  0
  125.1420  123.8640   57.7070 C   0  0  0  0  0  0  0  0  0  0  0  0
  127.5280  126.2350   58.9730 C   0  0  0  0  0  0  0  0  0  0  0  0
  127.8050  127.1440   59.9900 C   0  0  0  0  0  0  0  0  0  0  0  0
  128.0070  130.5580   60.3790 C   0  0  0  0  0  0  0  0  0  0  0  0
  128.5400  131.2990   59.3270 C   0  0  0  0  0  0  0  0  0  0  0  0
  129.6830  132.6460   56.9750 C   0  0  0  0  0  0  0  0  0  0  0  0
  130.2100  133.3830   55.9190 C   0  0  0  0  0  0  0  0  0  0  0  0
  1  2  2  0
  2  3  1  0
  3  4  2  0
  4  5  1  0
  5  6  2  0
  6  7  1  0
  7  8  2  0
  8  9  1  0
  9 10  1  0
 10 11  2  0
 11 12  1  0
 12 13  2  0
 13 14  1  0
 14 15  1  0
 15 16  2  0
 16 17  1  0
 17 18  2  0
 18 19  1  0
 19 20  2  0
 11 21  1  0
 21 22  1  0
 22 23  1  0
 23 24  2  0
 24 25  1  0
 25 26  2  0
 26 27  1  0
 27 28  2  0
 28 29  1  0
 29 30  2  0
 30 31  1  0
 31 32  2  0
 26 33  1  0
 33 34  2  0
  8 35  1  0
 35 36  2  0
  4 37  1  0
 37 38  2  0
 38  1  1  0
 36  5  1  0
 22  9  2  0
 34 23  1  0
 20 12  1  0
 32 27  1  0
 20 15  1  0
M  END
>  <Binding energies>  (51) 
[-10.6]

>  <Ligand effiencies>  (51) 
[-0.265]

>  <Interactions>  (51) 
["V-B:PRO:540:CB:9856, V-B:MET:535:CE:9806, V-B:TYR:531:CE2:9764, V-B:LEU:363:CD1:8159, V-B:TYR:539:C:9838, V-A:HIS:456:CE1:4069, V-B:HIS:456:CE1:9040, V-B:PRO:540:N:9855, V-A:ILE:538:CG2:4862, V-A:TYR:539:CD1:4872, V-A:ILE:538:CB:4861, V-A:ILE:538:CA:4859, V-A:ILE:538:C:4857, V-B:PRO:540:CD:9858, V-A:TYR:539:CE1:4874, V-B:GLU:543:CD:9879, V-A:PRO:540:CA:4882, V-A:PRO:540:CB:4884, V-A:GLU:543:CD:4907, H-B:TYR:484:OH:9318, V-B:TYR:539:CG:9843, H-B:GLU:543:OE1:9880, H-B:GLU:543:OE2:9881, V-A:PRO:540:N:4883, V-A:PRO:540:CD:4886, V-B:TYR:539:CD1:9844, V-A:TYR:531:CE2:4792, V-A:LEU:363:CD1:3188, V-B:ILE:538:CD1:9836, V-B:ILE:538:CG2:9834, V-B:ILE:538:CA:9831, V-B:TYR:484:CZ:9317, V-B:TYR:484:CE2:9316"]

$$$$
RR4_Rahimova_2017
     RDKit          3D

 40 44  0  0  0  0  0  0  0  0999 V2000
  127.9460  123.1040   63.6270 C   0  0  0  0  0  0  0  0  0  0  0  0
  127.1170  123.2490   62.4790 O   0  0  0  0  0  0  0  0  0  0  0  0
  126.8220  124.5170   62.0160 C   0  0  0  0  0  0  0  0  0  0  0  0
  127.1030  125.5770   62.8740 C   0  0  0  0  0  0  0  0  0  0  0  0
  126.8410  126.8890   62.4920 C   0  0  0  0  0  0  0  0  0  0  0  0
  126.2840  127.1800   61.2370 C   0  0  0  0  0  0  0  0  0  0  0  0
  126.0010  128.5970   60.8280 C   0  0  0  0  0  0  0  0  0  0  0  0
  126.9470  129.4050   60.1910 C   0  0  0  0  0  0  0  0  0  0  0  0
  126.6330  130.7200   59.8250 C   0  0  0  0  0  0  0  0  0  0  0  0
  127.6850  131.5140   59.1220 C   0  0  0  0  0  0  0  0  0  0  0  0
  128.5740  132.3060   59.8550 C   0  0  0  0  0  0  0  0  0  0  0  0
  129.5650  133.0400   59.2090 C   0  0  0  0  0  0  0  0  0  0  0  0
  129.6910  132.9920   57.8210 C   0  0  0  0  0  0  0  0  0  0  0  0
  130.7040  133.7520   57.2670 O   0  0  0  0  0  0  0  0  0  0  0  0
  131.2680  133.3560   56.0210 C   0  0  0  0  0  0  0  0  0  0  0  0
  128.8050  132.1950   57.0810 C   0  0  0  0  0  0  0  0  0  0  0  0
  127.8140  131.4620   57.7300 C   0  0  0  0  0  0  0  0  0  0  0  0
  125.3460  131.2200   60.1420 C   0  0  0  0  0  0  0  0  0  0  0  0
  124.9640  132.5880   59.7810 C   0  0  0  0  0  0  0  0  0  0  0  0
  124.6630  133.6690   59.4960 N   0  0  0  0  0  0  0  0  0  0  0  0
  124.4490  130.3580   60.8130 C   0  0  0  0  0  0  0  0  0  0  0  0
  122.7990  130.8190   61.3000 S   0  0  0  0  0  0  0  0  0  0  0  0
  122.9370  132.1320   62.5580 C   0  0  0  0  0  0  0  0  0  0  0  0
  123.9820  131.8610   63.6500 C   0  0  0  0  0  0  0  0  0  0  0  0
  124.4390  132.7880   64.3230 O   0  0  0  0  0  0  0  0  0  0  0  0
  124.3420  130.5630   63.7790 N   0  0  0  0  0  0  0  0  0  0  0  0
  125.2580  130.0010   64.6720 C   0  0  0  0  0  0  0  0  0  0  0  0
  126.9480  129.7990   64.2970 S   0  0  0  0  0  0  0  0  0  0  0  0
  127.2650  129.0830   65.8470 C   0  0  0  0  0  0  0  0  0  0  0  0
  126.0990  129.0000   66.6250 C   0  0  0  0  0  0  0  0  0  0  0  0
  124.9670  129.5350   65.9640 C   0  0  0  0  0  0  0  0  0  0  0  0
  123.6370  129.5870   66.5630 C   0  0  0  0  0  0  0  0  0  0  0  0
  122.5820  129.6280   67.0370 N   0  0  0  0  0  0  0  0  0  0  0  0
  126.1250  128.4390   68.0520 C   0  0  0  0  0  0  0  0  0  0  0  0
  127.5720  128.3890   68.5920 C   0  0  0  0  0  0  0  0  0  0  0  0
  128.5540  127.8000   67.5650 C   0  0  0  0  0  0  0  0  0  0  0  0
  128.6610  128.6740   66.2980 C   0  0  0  0  0  0  0  0  0  0  0  0
  124.7670  129.0800   61.1270 N   0  0  0  0  0  0  0  0  0  0  0  0
  126.0080  126.1050   60.3780 C   0  0  0  0  0  0  0  0  0  0  0  0
  126.2690  124.7910   60.7570 C   0  0  0  0  0  0  0  0  0  0  0  0
  1  2  1  0
  2  3  1  0
  3  4  2  0
  4  5  1  0
  5  6  2  0
  6  7  1  0
  7  8  2  0
  8  9  1  0
  9 10  1  0
 10 11  2  0
 11 12  1  0
 12 13  2  0
 13 14  1  0
 14 15  1  0
 13 16  1  0
 16 17  2  0
  9 18  2  0
 18 19  1  0
 19 20  3  0
 18 21  1  0
 21 22  1  0
 22 23  1  0
 23 24  1  0
 24 25  2  0
 24 26  1  0
 26 27  1  0
 27 28  1  0
 28 29  1  0
 29 30  2  0
 30 31  1  0
 31 32  1  0
 32 33  3  0
 30 34  1  0
 34 35  1  0
 35 36  1  0
 36 37  1  0
 21 38  2  0
  6 39  1  0
 39 40  2  0
 40  3  1  0
 38  7  1  0
 17 10  1  0
 31 27  2  0
 37 29  1  0
M  END
>  <Binding energies>  (52) 
[-9.49]

>  <Ligand effiencies>  (52) 
[-0.23146341463414635]

>  <Interactions>  (52) 
["V-B:ALA:541:CB:9863, H-B:ALA:541:N:9862, V-B:HIS:456:CE1:9040, V-B:ASP:366:CG:8183, H-B:ASP:366:OD2:8185, V-B:ILE:369:CG1:8208, V-A:TYR:539:CZ:4876, V-B:ILE:369:CG2:8207, V-A:ILE:538:CG2:4862, V-B:GLY:454:CA:9019, V-A:TYR:539:CD1:4872, V-A:ILE:538:CB:4861, V-A:ILE:538:CA:4859, V-A:TYR:539:C:4866, V-A:TYR:539:CE1:4874, V-B:GLY:453:C:9012, V-B:GLU:543:CD:9879, V-A:PRO:540:CA:4882, V-B:ARG:545:CG:9893, V-A:GLU:543:CD:4907, V-A:GLU:543:CG:4906, H-B:ILE:455:N:9025, H-B:GLY:454:N:9020, V-B:ARG:545:CD:9894, V-B:ARG:545:CZ:9897, H-B:ARG:545:NE:9895, H-A:TYR:539:N:4869, V-B:ALA:541:CA:9861, V-B:GLU:543:CG:9878, V-A:PRO:540:N:4883, V-B:ALA:541:C:9859, V-A:TYR:531:CE2:4792"]

$$$$
RR6_Rahimova_2017
     RDKit          3D

 38 41  0  0  0  0  0  0  0  0999 V2000
  129.3780  133.5010   55.1860 C   0  0  0  0  0  0  0  0  0  0  0  0
  129.7810  133.7360   56.5280 O   0  0  0  0  0  0  0  0  0  0  0  0
  131.0640  133.5220   56.9200 C   0  0  0  0  0  0  0  0  0  0  0  0
  131.9480  134.3830   56.8530 O   0  0  0  0  0  0  0  0  0  0  0  0
  131.3010  132.1350   57.4440 C   0  0  0  0  0  0  0  0  0  0  0  0
  132.5720  131.7000   57.8460 C   0  0  0  0  0  0  0  0  0  0  0  0
  132.7610  130.4040   58.3220 C   0  0  0  0  0  0  0  0  0  0  0  0
  131.6760  129.5170   58.3980 C   0  0  0  0  0  0  0  0  0  0  0  0
  131.7600  128.1820   58.8350 N   0  0  0  0  0  0  0  0  0  0  0  0
  131.5520  127.0410   58.1420 C   0  0  0  0  0  0  0  0  0  0  0  0
  131.2490  126.9730   56.9510 O   0  0  0  0  0  0  0  0  0  0  0  0
  131.6510  125.7460   58.9560 C   0  0  0  0  0  0  0  0  0  0  0  0
  131.1120  125.9260   60.6890 S   0  0  0  0  0  0  0  0  0  0  0  0
  129.3420  126.1210   60.6600 C   0  0  0  0  0  0  0  0  0  0  0  0
  128.7120  125.3500   59.7410 N   0  0  0  0  0  0  0  0  0  0  0  0
  127.3600  125.3890   59.6430 C   0  0  0  0  0  0  0  0  0  0  0  0
  126.7360  124.4600   58.6440 C   0  0  0  0  0  0  0  0  0  0  0  0
  127.5240  123.5840   57.8810 C   0  0  0  0  0  0  0  0  0  0  0  0
  126.9460  122.7320   56.9440 C   0  0  0  0  0  0  0  0  0  0  0  0
  125.5640  122.7360   56.7560 C   0  0  0  0  0  0  0  0  0  0  0  0
  124.9400  121.8110   55.7270 C   0  0  0  0  0  0  0  0  0  0  0  0
  124.7640  123.5960   57.5040 C   0  0  0  0  0  0  0  0  0  0  0  0
  125.3470  124.4450   58.4400 C   0  0  0  0  0  0  0  0  0  0  0  0
  126.6070  126.2270   60.4720 C   0  0  0  0  0  0  0  0  0  0  0  0
  127.2360  127.0380   61.4280 C   0  0  0  0  0  0  0  0  0  0  0  0
  126.3710  127.8940   62.2920 C   0  0  0  0  0  0  0  0  0  0  0  0
  126.5580  127.9100   63.6780 C   0  0  0  0  0  0  0  0  0  0  0  0
  125.7660  128.7180   64.4900 C   0  0  0  0  0  0  0  0  0  0  0  0
  124.7780  129.5280   63.9340 C   0  0  0  0  0  0  0  0  0  0  0  0
  124.0430  130.2980   64.8150 O   0  0  0  0  0  0  0  0  0  0  0  0
  124.1130  130.0140   66.2090 C   0  0  0  0  0  0  0  0  0  0  0  0
  124.5890  129.5200   62.5440 C   0  0  0  0  0  0  0  0  0  0  0  0
  125.3830  128.7120   61.7350 C   0  0  0  0  0  0  0  0  0  0  0  0
  128.6490  126.9910   61.5240 C   0  0  0  0  0  0  0  0  0  0  0  0
  129.3720  127.8340   62.4820 C   0  0  0  0  0  0  0  0  0  0  0  0
  129.9430  128.4980   63.2390 N   0  0  0  0  0  0  0  0  0  0  0  0
  130.4070  129.9530   58.0150 C   0  0  0  0  0  0  0  0  0  0  0  0
  130.2210  131.2470   57.5380 C   0  0  0  0  0  0  0  0  0  0  0  0
  1  2  1  0
  2  3  1  0
  3  4  2  0
  3  5  1  0
  5  6  2  0
  6  7  1  0
  7  8  2  0
  8  9  1  0
  9 10  1  0
 10 11  2  0
 10 12  1  0
 12 13  1  0
 13 14  1  0
 14 15  2  0
 15 16  1  0
 16 17  1  0
 17 18  2  0
 18 19  1  0
 19 20  2  0
 20 21  1  0
 20 22  1  0
 22 23  2  0
 16 24  2  0
 24 25  1  0
 25 26  1  0
 26 27  2  0
 27 28  1  0
 28 29  2  0
 29 30  1  0
 30 31  1  0
 29 32  1  0
 32 33  2  0
 25 34  2  0
 34 35  1  0
 35 36  3  0
  8 37  1  0
 37 38  2  0
 38  5  1  0
 34 14  1  0
 23 17  1  0
 33 26  1  0
M  END
>  <Binding energies>  (53) 
[-9.62]

>  <Ligand effiencies>  (53) 
[-0.24666666666666665]

>  <Interactions>  (53) 
["V-B:PRO:540:CB:9856, V-B:MET:535:CE:9806, V-B:TYR:531:CE2:9764, V-B:LEU:363:CD1:8159, V-B:TYR:539:C:9838, V-A:ASP:366:CG:3212, V-B:ASP:366:CG:8183, V-A:TYR:539:CZ:4876, V-B:PRO:540:N:9855, V-B:GLY:454:CA:9019, V-A:TYR:539:CD1:4872, V-A:TYR:539:CE2:4875, V-A:ILE:538:CA:4859, V-A:TYR:539:C:4866, V-B:PRO:540:CD:9858, V-A:TYR:539:CE1:4874, V-B:GLU:543:CD:9879, V-A:PRO:540:CA:4882, V-A:ASP:366:CB:3211, H-B:GLY:454:N:9020, V-B:ARG:545:CZ:9897, V-A:TYR:531:CZ:4793, H-A:TYR:531:OH:4794, H-A:TYR:539:N:4869, V-A:PRO:540:N:4883, V-A:PRO:540:CD:4886, H-A:ASP:366:OD2:3214, V-A:TYR:531:CE2:4792, V-A:LEU:363:CD1:3188, V-B:ILE:538:CD1:9836, V-B:ILE:538:CG2:9834, V-B:ILE:538:CA:9831, V-B:ILE:538:C:9829, V-A:TYR:539:CD2:4873, V-B:ILE:538:CB:9833, V-B:ILE:538:CG1:9835"]

$$$$
RR7_Rahimova_2017
     RDKit          3D

 47 53  0  0  0  0  0  0  0  0999 V2000
  132.3600  124.6580   59.0330 C   0  0  0  0  0  0  0  0  0  0  0  0
  131.5450  125.0760   57.9420 O   0  0  0  0  0  0  0  0  0  0  0  0
  130.9640  126.3290   57.9780 C   0  0  0  0  0  0  0  0  0  0  0  0
  131.0860  127.0380   59.1710 C   0  0  0  0  0  0  0  0  0  0  0  0
  130.5370  128.3100   59.3000 C   0  0  0  0  0  0  0  0  0  0  0  0
  129.8410  128.9020   58.2360 C   0  0  0  0  0  0  0  0  0  0  0  0
  129.2440  130.3400   58.3410 C   0  0  0  0  0  0  0  0  0  0  0  0
  127.8170  130.1770   58.5000 O   0  0  0  0  0  0  0  0  0  0  0  0
  127.2910  128.9670   59.0540 C   0  0  0  0  0  0  0  0  0  0  0  0
  126.5370  128.2000   57.9560 C   0  0  1  0  0  0  0  0  0  0  0  0
  127.2270  126.9680   57.7650 O   0  0  0  0  0  0  0  0  0  0  0  0
  126.3990  125.8640   57.9930 C   0  0  1  0  0  0  0  0  0  0  0  0
  127.1690  124.7680   58.5500 N   0  0  0  0  0  0  0  0  0  0  0  0
  128.0450  123.9220   57.8930 C   0  0  0  0  0  0  0  0  0  0  0  0
  128.5760  122.9800   58.6330 N   0  0  0  0  0  0  0  0  0  0  0  0
  127.9970  123.1620   59.8590 C   0  0  0  0  0  0  0  0  0  0  0  0
  128.1330  122.4700   61.0780 C   0  0  0  0  0  0  0  0  0  0  0  0
  129.0220  121.3800   61.1410 N   0  0  0  0  0  0  0  0  0  0  0  0
  130.3700  121.3720   61.0140 C   0  0  0  0  0  0  0  0  0  0  0  0
  131.0530  122.3750   60.7960 O   0  0  0  0  0  0  0  0  0  0  0  0
  131.0300  120.0140   61.1260 C   0  0  0  0  0  0  0  0  0  0  0  0
  132.3920  119.8770   60.8180 C   0  0  0  0  0  0  0  0  0  0  0  0
  133.0200  118.6390   60.9200 C   0  0  0  0  0  0  0  0  0  0  0  0
  132.2920  117.5280   61.3350 C   0  0  0  0  0  0  0  0  0  0  0  0
  130.9410  117.6430   61.6490 C   0  0  0  0  0  0  0  0  0  0  0  0
  130.3110  118.8820   61.5470 C   0  0  0  0  0  0  0  0  0  0  0  0
  127.3990  122.8720   62.1600 N   0  0  0  0  0  0  0  0  0  0  0  0
  126.5640  123.9320   62.0010 C   0  0  0  0  0  0  0  0  0  0  0  0
  126.3590  124.6700   60.8770 N   0  0  0  0  0  0  0  0  0  0  0  0
  127.0960  124.2570   59.8360 C   0  0  0  0  0  0  0  0  0  0  0  0
  125.2770  126.3810   58.8860 C   0  0  0  0  0  0  0  0  0  0  0  0
  125.1060  127.7810   58.3220 C   0  0  2  0  0  0  0  0  0  0  0  0
  124.2340  127.8000   57.2050 O   0  0  0  0  0  0  0  0  0  0  0  0
  129.7560  131.1020   59.5920 C   0  0  0  0  0  0  0  0  0  0  0  0
  128.8570  131.8050   60.4100 C   0  0  0  0  0  0  0  0  0  0  0  0
  129.3060  132.5030   61.5260 C   0  0  0  0  0  0  0  0  0  0  0  0
  130.6630  132.5060   61.8370 C   0  0  0  0  0  0  0  0  0  0  0  0
  131.5720  131.8160   61.0400 C   0  0  0  0  0  0  0  0  0  0  0  0
  131.1210  131.1190   59.9230 C   0  0  0  0  0  0  0  0  0  0  0  0
  129.5280  131.2800   57.1350 C   0  0  0  0  0  0  0  0  0  0  0  0
  130.6950  132.0580   57.1000 C   0  0  0  0  0  0  0  0  0  0  0  0
  130.9530  132.9090   56.0300 C   0  0  0  0  0  0  0  0  0  0  0  0
  130.0390  132.9980   54.9840 C   0  0  0  0  0  0  0  0  0  0  0  0
  128.8680  132.2460   55.0040 C   0  0  0  0  0  0  0  0  0  0  0  0
  128.6120  131.3950   56.0750 C   0  0  0  0  0  0  0  0  0  0  0  0
  129.7340  128.1900   57.0320 C   0  0  0  0  0  0  0  0  0  0  0  0
  130.2830  126.9170   56.9030 C   0  0  0  0  0  0  0  0  0  0  0  0
  1  2  1  0
  2  3  1  0
  3  4  2  0
  4  5  1  0
  5  6  2  0
  6  7  1  0
  7  8  1  0
  8  9  1  0
 10  9  1  1
 10 11  1  0
 11 12  1  0
 12 13  1  1
 13 14  1  0
 14 15  2  0
 15 16  1  0
 16 17  2  0
 17 18  1  0
 18 19  1  0
 19 20  2  0
 19 21  1  0
 21 22  2  0
 22 23  1  0
 23 24  2  0
 24 25  1  0
 25 26  2  0
 17 27  1  0
 27 28  2  0
 28 29  1  0
 29 30  2  0
 12 31  1  0
 31 32  1  0
 32 33  1  6
  7 34  1  0
 34 35  2  0
 35 36  1  0
 36 37  2  0
 37 38  1  0
 38 39  2  0
  7 40  1  0
 40 41  2  0
 41 42  1  0
 42 43  2  0
 43 44  1  0
 44 45  2  0
  6 46  1  0
 46 47  2  0
 47  3  1  0
 32 10  1  0
 39 34  1  0
 45 40  1  0
 30 13  1  0
 30 16  1  0
 26 21  1  0
M  END
>  <Binding energies>  (54) 
[-10.74]

>  <Ligand effiencies>  (54) 
[-0.21918367346938775]

>  <Interactions>  (54) 
["V-B:ALA:541:CB:9863, V-B:TYR:539:CE2:9847, V-B:ASP:366:CB:8182, H-B:ALA:541:N:9862, V-B:MET:535:CE:9806, V-B:PRO:540:CA:9854, V-A:SER:385:CA:3406, V-B:TYR:539:CD2:9845, V-B:PRO:540:C:9852, V-A:SER:385:CB:3408, V-A:LEU:475:CD2:4258, V-B:TYR:539:C:9838, V-A:ASP:366:CG:3212, V-B:ASP:366:CG:8183, V-A:TYR:539:CZ:4876, V-A:MET:535:CG:4832, V-A:ILE:538:CG2:4862, V-A:ILE:538:CA:4859, V-A:TYR:539:CE1:4874, V-A:PRO:540:CA:4882, V-A:ASP:366:CB:3211, V-A:ALA:541:CB:4891, V-A:HIS:383:CE1:3393, H-B:TYR:539:O:9839, V-B:TYR:539:CZ:9848, H-B:TYR:539:OH:9849, H-B:TYR:531:OH:9766, V-A:TYR:531:CE2:4792, V-A:PRO:540:C:4880, V-A:PRO:482:CB:4325, V-A:THR:477:CG2:4272, V-A:PRO:482:CG:4326"]

$$$$
RR8_A_Rahimova_2017
     RDKit          3D

 42 46  0  0  0  0  0  0  0  0999 V2000
  126.1280  123.2410   62.1350 O   0  0  0  0  0  0  0  0  0  0  0  0
  126.7780  123.8200   61.2570 C   0  0  0  0  0  0  0  0  0  0  0  0
  127.6590  124.8410   61.4940 O   0  0  0  0  0  0  0  0  0  0  0  0
  128.8280  124.5370   62.2030 C   0  0  1  0  0  0  0  0  0  0  0  0
  128.5670  124.3220   63.5600 O   0  0  0  0  0  0  0  0  0  0  0  0
  129.3630  123.2660   64.0920 C   0  0  2  0  0  0  0  0  0  0  0  0
  130.1450  123.8040   65.3030 C   0  0  0  0  0  0  0  0  0  0  0  0
  130.8650  124.9630   64.9050 O   0  0  0  0  0  0  0  0  0  0  0  0
  132.2710  124.8590   65.0860 C   0  0  0  0  0  0  0  0  0  0  0  0
  132.8600  123.9300   64.0350 C   0  0  0  0  0  0  0  0  0  0  0  0
  133.3360  124.4540   62.8300 C   0  0  0  0  0  0  0  0  0  0  0  0
  133.8810  123.6070   61.8680 C   0  0  0  0  0  0  0  0  0  0  0  0
  133.9520  122.2370   62.1160 C   0  0  0  0  0  0  0  0  0  0  0  0
  133.4850  121.7070   63.3160 C   0  0  0  0  0  0  0  0  0  0  0  0
  132.9410  122.5550   64.2780 C   0  0  0  0  0  0  0  0  0  0  0  0
  130.2180  122.8170   62.9000 C   0  0  1  0  0  0  0  0  0  0  0  0
  130.4050  121.4050   62.8430 O   0  0  0  0  0  0  0  0  0  0  0  0
  129.9640  120.7710   61.6480 C   0  0  0  0  0  0  0  0  0  0  0  0
  130.8180  119.5430   61.3660 C   0  0  0  0  0  0  0  0  0  0  0  0
  130.3400  118.2730   61.7050 C   0  0  0  0  0  0  0  0  0  0  0  0
  131.1180  117.1470   61.4590 C   0  0  0  0  0  0  0  0  0  0  0  0
  132.3770  117.2910   60.8770 C   0  0  0  0  0  0  0  0  0  0  0  0
  132.8650  118.5520   60.5430 C   0  0  0  0  0  0  0  0  0  0  0  0
  132.0860  119.6800   60.7910 C   0  0  0  0  0  0  0  0  0  0  0  0
  129.3770  123.2100   61.6990 C   0  0  2  0  0  0  0  0  0  0  0  0
  130.1910  123.3320   60.5350 O   0  0  0  0  0  0  0  0  0  0  0  0
  131.0710  124.4500   60.5120 C   0  0  0  0  0  0  0  0  0  0  0  0
  131.1020  125.0570   59.1170 C   0  0  0  0  0  0  0  0  0  0  0  0
  129.9200  125.1920   58.3820 C   0  0  0  0  0  0  0  0  0  0  0  0
  129.9520  125.7570   57.1100 C   0  0  0  0  0  0  0  0  0  0  0  0
  131.1650  126.1880   56.5770 C   0  0  0  0  0  0  0  0  0  0  0  0
  132.3460  126.0620   57.3040 C   0  0  0  0  0  0  0  0  0  0  0  0
  132.3140  125.4970   58.5780 C   0  0  0  0  0  0  0  0  0  0  0  0
  126.6880  123.4580   59.8030 C   0  0  0  0  0  0  0  0  0  0  0  0
  127.7380  122.8100   59.1330 C   0  0  0  0  0  0  0  0  0  0  0  0
  127.6240  122.4890   57.7830 C   0  0  0  0  0  0  0  0  0  0  0  0
  126.4630  122.8090   57.0680 C   0  0  0  0  0  0  0  0  0  0  0  0
  126.3430  122.4650   55.6300 N   0  0  0  0  0  0  0  0  0  0  0  0
  127.2070  121.7570   55.1200 O   0  0  0  0  0  0  0  0  0  0  0  0
  125.3830  122.8990   55.0000 O   0  0  0  0  0  0  0  0  0  0  0  0
  125.4170  123.4580   57.7370 C   0  0  0  0  0  0  0  0  0  0  0  0
  125.5280  123.7790   59.0860 C   0  0  0  0  0  0  0  0  0  0  0  0
  1  2  2  0
  2  3  1  0
  4  3  1  6
  4  5  1  0
  5  6  1  0
  6  7  1  1
  7  8  1  0
  8  9  1  0
  9 10  1  0
 10 11  2  0
 11 12  1  0
 12 13  2  0
 13 14  1  0
 14 15  2  0
  6 16  1  0
 16 17  1  1
 17 18  1  0
 18 19  1  0
 19 20  2  0
 20 21  1  0
 21 22  2  0
 22 23  1  0
 23 24  2  0
 16 25  1  0
 25 26  1  6
 26 27  1  0
 27 28  1  0
 28 29  2  0
 29 30  1  0
 30 31  2  0
 31 32  1  0
 32 33  2  0
  2 34  1  0
 34 35  2  0
 35 36  1  0
 36 37  2  0
 37 38  1  0
 38 39  2  0
 38 40  1  0
 37 41  1  0
 41 42  2  0
 25  4  1  0
 33 28  1  0
 42 34  1  0
 15 10  1  0
 24 19  1  0
M  CHG  2  38   1  40  -1
M  END
>  <Binding energies>  (55) 
[-11.21]

>  <Ligand effiencies>  (55) 
[-0.2669047619047619]

>  <Interactions>  (55) 
["V-B:ALA:541:CB:9863, V-B:TYR:539:CE2:9847, V-B:PRO:540:CB:9856, H-B:ALA:541:N:9862, V-B:MET:535:CE:9806, V-B:PRO:540:CA:9854, V-A:SER:385:CA:3406, V-B:TYR:539:CD2:9845, V-A:SER:385:CB:3408, V-A:LEU:475:CD2:4258, V-B:TYR:539:C:9838, V-A:ILE:369:CD1:3238, V-A:ASP:366:CG:3212, V-B:PRO:540:N:9855, V-B:PRO:540:CD:9858, V-B:GLU:543:CD:9879, V-A:ASP:366:CB:3211, V-B:TYR:539:CG:9843, V-A:HIS:383:CE1:3393, V-A:ASP:366:C:3207, H-B:TYR:539:N:9841, V-A:TYR:531:CE1:4791, H-A:TYR:484:OH:4347, V-A:TYR:484:CZ:4346, H-B:TYR:531:OH:9766, V-B:ILE:538:CD1:9836, V-B:ILE:538:CA:9831, V-A:TYR:484:CE2:4345, V-B:TYR:539:CA:9840, V-A:GLY:454:CA:4048, V-B:MET:535:CG:9804, V-A:PRO:482:CB:4325, V-A:THR:477:CG2:4272, V-A:PRO:482:CG:4326, H-B:ILE:538:N:9832"]

$$$$
RR8_B_Rahimova_2017
     RDKit          3D

 42 46  0  0  0  0  0  0  0  0999 V2000
  126.6550  123.2430   62.9470 O   0  0  0  0  0  0  0  0  0  0  0  0
  127.5790  123.1410   62.1330 C   0  0  0  0  0  0  0  0  0  0  0  0
  128.9040  123.0970   62.4690 O   0  0  0  0  0  0  0  0  0  0  0  0
  129.3300  123.8360   63.5880 C   0  0  2  0  0  0  0  0  0  0  0  0
  129.0700  125.2030   63.4400 O   0  0  0  0  0  0  0  0  0  0  0  0
  130.1790  125.8850   62.8550 C   0  0  2  0  0  0  0  0  0  0  0  0
  129.7280  126.5810   61.5590 C   0  0  0  0  0  0  0  0  0  0  0  0
  129.1660  125.6140   60.6800 O   0  0  0  0  0  0  0  0  0  0  0  0
  129.3870  125.8620   59.2990 C   0  0  0  0  0  0  0  0  0  0  0  0
  130.8220  125.5020   58.9490 C   0  0  0  0  0  0  0  0  0  0  0  0
  131.4820  126.1920   57.9270 C   0  0  0  0  0  0  0  0  0  0  0  0
  132.7880  125.8510   57.5850 C   0  0  0  0  0  0  0  0  0  0  0  0
  133.4310  124.8200   58.2680 C   0  0  0  0  0  0  0  0  0  0  0  0
  132.7830  124.1320   59.2910 C   0  0  0  0  0  0  0  0  0  0  0  0
  131.4760  124.4710   59.6310 C   0  0  0  0  0  0  0  0  0  0  0  0
  131.2450  124.7960   62.6820 C   0  0  1  0  0  0  0  0  0  0  0  0
  132.5450  125.3500   62.9070 O   0  0  0  0  0  0  0  0  0  0  0  0
  133.3280  124.7660   63.9510 C   0  0  0  0  0  0  0  0  0  0  0  0
  133.0630  125.4170   65.3050 C   0  0  0  0  0  0  0  0  0  0  0  0
  134.0910  125.5190   66.2470 C   0  0  0  0  0  0  0  0  0  0  0  0
  133.8540  126.1430   67.4690 C   0  0  0  0  0  0  0  0  0  0  0  0
  132.5900  126.6580   67.7470 C   0  0  0  0  0  0  0  0  0  0  0  0
  131.5590  126.5550   66.8150 C   0  0  0  0  0  0  0  0  0  0  0  0
  131.7970  125.9350   65.5910 C   0  0  0  0  0  0  0  0  0  0  0  0
  130.8500  123.7430   63.7110 C   0  0  2  0  0  0  0  0  0  0  0  0
  131.3800  122.4700   63.3470 O   0  0  0  0  0  0  0  0  0  0  0  0
  131.8870  122.3710   62.0250 C   0  0  0  0  0  0  0  0  0  0  0  0
  131.7730  120.9240   61.5790 C   0  0  0  0  0  0  0  0  0  0  0  0
  130.5840  120.2170   61.7750 C   0  0  0  0  0  0  0  0  0  0  0  0
  130.4970  118.8840   61.3800 C   0  0  0  0  0  0  0  0  0  0  0  0
  131.5970  118.2650   60.7910 C   0  0  0  0  0  0  0  0  0  0  0  0
  132.7860  118.9650   60.5910 C   0  0  0  0  0  0  0  0  0  0  0  0
  132.8730  120.2970   60.9850 C   0  0  0  0  0  0  0  0  0  0  0  0
  127.3620  123.0880   60.6480 C   0  0  0  0  0  0  0  0  0  0  0  0
  126.1920  123.5840   60.0540 C   0  0  0  0  0  0  0  0  0  0  0  0
  126.0150  123.5140   58.6770 C   0  0  0  0  0  0  0  0  0  0  0  0
  126.9950  122.9370   57.8590 C   0  0  0  0  0  0  0  0  0  0  0  0
  126.7920  122.8390   56.3930 N   0  0  0  0  0  0  0  0  0  0  0  0
  127.4670  122.0340   55.7580 O   0  0  0  0  0  0  0  0  0  0  0  0
  125.9510  123.5640   55.8660 O   0  0  0  0  0  0  0  0  0  0  0  0
  128.1650  122.4470   58.4530 C   0  0  0  0  0  0  0  0  0  0  0  0
  128.3470  122.5240   59.8300 C   0  0  0  0  0  0  0  0  0  0  0  0
  1  2  2  0
  2  3  1  0
  4  3  1  6
  4  5  1  0
  5  6  1  0
  6  7  1  6
  7  8  1  0
  8  9  1  0
  9 10  1  0
 10 11  2  0
 11 12  1  0
 12 13  2  0
 13 14  1  0
 14 15  2  0
  6 16  1  0
 16 17  1  1
 17 18  1  0
 18 19  1  0
 19 20  2  0
 20 21  1  0
 21 22  2  0
 22 23  1  0
 23 24  2  0
 16 25  1  0
 25 26  1  6
 26 27  1  0
 27 28  1  0
 28 29  2  0
 29 30  1  0
 30 31  2  0
 31 32  1  0
 32 33  2  0
  2 34  1  0
 34 35  2  0
 35 36  1  0
 36 37  2  0
 37 38  1  0
 38 39  2  0
 38 40  1  0
 37 41  1  0
 41 42  2  0
 25  4  1  0
 33 28  1  0
 42 34  1  0
 15 10  1  0
 24 19  1  0
M  CHG  2  38   1  40  -1
M  END
>  <Binding energies>  (56) 
[-10.46]

>  <Ligand effiencies>  (56) 
[-0.24904761904761907]

>  <Interactions>  (56) 
["V-B:ALA:541:CB:9863, V-B:TYR:539:CE2:9847, V-A:ILE:369:CG2:3236, V-B:PRO:540:CB:9856, H-B:ALA:541:N:9862, V-B:MET:535:CE:9806, V-B:PRO:540:CA:9854, V-A:SER:385:CA:3406, V-A:GLY:453:CA:4043, V-B:TYR:539:CD2:9845, H-A:ARG:545:NH2:4927, V-A:GLY:453:C:4041, V-A:ARG:545:CZ:4925, V-B:PRO:540:C:9852, V-A:SER:385:CB:3408, V-A:LEU:475:CD2:4258, V-B:TYR:539:C:9838, V-A:ASP:366:CG:3212, V-A:HIS:456:CE1:4069, V-B:PRO:540:N:9855, V-B:GLU:543:CD:9879, V-A:GLU:543:CD:4907, V-A:ASP:366:CB:3211, V-B:TYR:539:CG:9843, V-A:ASP:366:C:3207, H-B:TYR:539:N:9841, V-B:TYR:539:CZ:9848, V-A:ASP:366:CA:3209, V-A:ILE:369:CB:3235, H-B:TYR:531:OH:9766, V-A:ARG:545:CD:4922, V-A:ARG:545:CG:4921, V-A:GLY:454:CA:4048, V-A:ARG:545:CB:4920"]

$$$$
RR9_Rahimova_2017
     RDKit          3D

 36 40  0  0  0  0  0  0  0  0999 V2000
  127.5130  126.9370   70.1860 C   0  0  0  0  0  0  0  0  0  0  0  0
  125.9950  126.8450   69.9980 C   0  0  0  0  0  0  0  0  0  0  0  0
  125.5030  128.1280   69.6210 O   0  0  0  0  0  0  0  0  0  0  0  0
  125.3650  128.4350   68.2810 C   0  0  0  0  0  0  0  0  0  0  0  0
  124.1490  128.9910   67.8900 C   0  0  0  0  0  0  0  0  0  0  0  0
  123.9190  129.3300   66.5610 C   0  0  0  0  0  0  0  0  0  0  0  0
  124.9020  129.1210   65.5820 C   0  0  0  0  0  0  0  0  0  0  0  0
  124.6580  129.4800   64.1460 C   0  0  0  0  0  0  0  0  0  0  0  0
  125.3790  128.8770   63.1040 C   0  0  0  0  0  0  0  0  0  0  0  0
  125.1370  129.2080   61.7580 C   0  0  0  0  0  0  0  0  0  0  0  0
  125.8710  128.4530   60.6830 C   0  0  0  0  0  0  0  0  0  0  0  0
  126.6000  129.0500   59.8910 O   0  0  0  0  0  0  0  0  0  0  0  0
  125.6500  127.1240   60.6450 N   0  0  0  0  0  0  0  0  0  0  0  0
  126.1430  126.2000   59.6190 C   0  0  0  0  0  0  0  0  0  0  0  0
  125.3030  124.9060   59.5160 C   0  0  0  0  0  0  0  0  0  0  0  0
  125.6410  124.0200   58.3210 C   0  0  0  0  0  0  0  0  0  0  0  0
  126.9440  123.5450   58.1460 C   0  0  0  0  0  0  0  0  0  0  0  0
  127.2410  122.7090   57.0730 C   0  0  0  0  0  0  0  0  0  0  0  0
  126.2350  122.3550   56.1760 C   0  0  0  0  0  0  0  0  0  0  0  0
  124.9350  122.8280   56.3420 C   0  0  0  0  0  0  0  0  0  0  0  0
  124.6370  123.6640   57.4160 C   0  0  0  0  0  0  0  0  0  0  0  0
  124.1550  130.2020   61.5230 C   0  0  0  0  0  0  0  0  0  0  0  0
  123.5690  130.9080   60.4090 C   0  0  0  0  0  0  0  0  0  0  0  0
  123.9190  130.8490   58.9580 C   0  0  0  0  0  0  0  0  0  0  0  0
  124.0380  132.0270   58.2140 C   0  0  0  0  0  0  0  0  0  0  0  0
  124.3480  131.9690   56.8580 C   0  0  0  0  0  0  0  0  0  0  0  0
  124.5450  130.7320   56.2410 C   0  0  0  0  0  0  0  0  0  0  0  0
  124.8650  130.6680   54.7590 C   0  0  0  0  0  0  0  0  0  0  0  0
  124.4260  129.5540   56.9800 C   0  0  0  0  0  0  0  0  0  0  0  0
  124.1180  129.6140   58.3360 C   0  0  0  0  0  0  0  0  0  0  0  0
  122.6160  131.7130   60.8220 N   0  0  0  0  0  0  0  0  0  0  0  0
  122.5610  131.6340   62.1620 N   0  0  0  0  0  0  0  0  0  0  0  0
  123.4840  130.7380   62.6480 C   0  0  0  0  0  0  0  0  0  0  0  0
  123.6990  130.4230   63.9240 N   0  0  0  0  0  0  0  0  0  0  0  0
  126.1220  128.5590   65.9820 C   0  0  0  0  0  0  0  0  0  0  0  0
  126.3560  128.2200   67.3130 C   0  0  0  0  0  0  0  0  0  0  0  0
  1  2  1  0
  2  3  1  0
  3  4  1  0
  4  5  2  0
  5  6  1  0
  6  7  2  0
  7  8  1  0
  8  9  2  0
  9 10  1  0
 10 11  1  0
 11 12  2  0
 11 13  1  0
 13 14  1  0
 14 15  1  0
 15 16  1  0
 16 17  2  0
 17 18  1  0
 18 19  2  0
 19 20  1  0
 20 21  2  0
 10 22  2  0
 22 23  1  0
 23 24  1  0
 24 25  2  0
 25 26  1  0
 26 27  2  0
 27 28  1  0
 27 29  1  0
 29 30  2  0
 23 31  2  0
 31 32  1  0
 32 33  1  0
 33 34  2  0
  7 35  1  0
 35 36  2  0
 36  4  1  0
 34  8  1  0
 21 16  1  0
 33 22  1  0
 30 24  1  0
M  END
>  <Binding energies>  (57) 
[-10.31]

>  <Ligand effiencies>  (57) 
[-0.27131578947368423]

>  <Interactions>  (57) 
["V-B:ASP:366:CB:8182, V-B:PRO:540:CB:9856, V-B:MET:535:CE:9806, V-B:PRO:540:CA:9854, V-B:TYR:531:CZ:9765, V-B:TYR:531:CE2:9764, V-B:LEU:363:CD1:8159, V-B:TYR:539:C:9838, V-B:GLY:544:C:9883, V-B:GLU:543:CB:9877, V-B:GLU:543:C:9873, V-B:HIS:456:CE1:9040, V-B:ASP:366:CG:8183, V-B:ASN:370:CB:8215, V-B:ASP:366:CA:8180, H-B:ASP:366:OD2:8185, V-B:ILE:369:CG1:8208, V-A:TYR:539:CZ:4876, V-B:TYR:531:CE1:9763, V-B:ILE:369:CB:8206, V-B:ILE:369:CG2:8207, V-B:PRO:540:N:9855, V-B:PRO:540:CD:9858, V-A:TYR:539:CE1:4874, V-B:GLU:543:CD:9879, V-B:ARG:545:CG:9893, H-B:HIS:456:ND1:9037, H-B:GLY:454:N:9020, V-B:ARG:545:CA:9890, V-B:ARG:545:CD:9894, V-B:ARG:545:CB:9892, V-B:ARG:545:CZ:9897, V-B:ASP:366:C:8178, V-B:TYR:531:CD1:9761, H-B:ASP:366:OD1:8184, V-B:ILE:538:CA:9831, V-B:ASN:370:CG:8216, H-B:SER:385:O:8376"]

$$$$
