1a_Ghoteimi_2023
     RDKit          3D

 40 43  0  0  0  0  0  0  0  0999 V2000
  132.8540  131.0320   60.1330 C   0  0  0  0  0  0  0  0  0  0  0  0
  133.7050  131.0170   58.8590 C   0  0  0  0  0  0  0  0  0  0  0  0
  133.0280  130.2770   57.8500 O   0  0  0  0  0  0  0  0  0  0  0  0
  131.7070  130.4750   57.6020 C   0  0  0  0  0  0  0  0  0  0  0  0
  131.2590  131.5010   57.0820 O   0  0  0  0  0  0  0  0  0  0  0  0
  130.8470  129.3170   58.0200 C   0  0  0  0  0  0  0  0  0  0  0  0
  130.7350  128.1560   57.2410 C   0  0  0  0  0  0  0  0  0  0  0  0
  129.9260  127.1000   57.6530 C   0  0  0  0  0  0  0  0  0  0  0  0
  129.2150  127.1860   58.8590 C   0  0  0  0  0  0  0  0  0  0  0  0
  128.3670  126.1840   59.3680 N   0  0  0  0  0  0  0  0  0  0  0  0
  127.3670  125.5070   58.7630 C   0  0  0  0  0  0  0  0  0  0  0  0
  127.0140  125.6460   57.5920 O   0  0  0  0  0  0  0  0  0  0  0  0
  126.6410  124.4860   59.6390 C   0  0  0  0  0  0  0  0  0  0  0  0
  126.7190  124.9320   61.3980 S   0  0  0  0  0  0  0  0  0  0  0  0
  128.2490  124.2640   62.0120 C   0  0  0  0  0  0  0  0  0  0  0  0
  128.7310  124.9060   63.1020 N   0  0  0  0  0  0  0  0  0  0  0  0
  129.8920  124.4900   63.6730 C   0  0  0  0  0  0  0  0  0  0  0  0
  130.3490  125.2400   64.8900 C   0  0  0  0  0  0  0  0  0  0  0  0
  129.4400  125.6470   65.8810 C   0  0  0  0  0  0  0  0  0  0  0  0
  129.8670  126.3410   67.0090 C   0  0  0  0  0  0  0  0  0  0  0  0
  131.2140  126.6520   67.1830 C   0  0  0  0  0  0  0  0  0  0  0  0
  131.5480  127.3410   68.3330 O   0  0  0  0  0  0  0  0  0  0  0  0
  130.5420  128.0820   69.0150 C   0  0  0  0  0  0  0  0  0  0  0  0
  132.1330  126.2560   66.2010 C   0  0  0  0  0  0  0  0  0  0  0  0
  131.7030  125.5620   65.0750 C   0  0  0  0  0  0  0  0  0  0  0  0
  130.5970  123.4030   63.1410 C   0  0  0  0  0  0  0  0  0  0  0  0
  130.1310  122.7390   61.9990 C   0  0  0  0  0  0  0  0  0  0  0  0
  130.9520  121.6080   61.4690 C   0  0  0  0  0  0  0  0  0  0  0  0
  130.6030  120.2810   61.7390 C   0  0  0  0  0  0  0  0  0  0  0  0
  131.3650  119.2320   61.2300 C   0  0  0  0  0  0  0  0  0  0  0  0
  132.4820  119.4880   60.4350 C   0  0  0  0  0  0  0  0  0  0  0  0
  133.1750  118.3870   59.9740 O   0  0  0  0  0  0  0  0  0  0  0  0
  133.6080  118.3560   58.6180 C   0  0  0  0  0  0  0  0  0  0  0  0
  132.8300  120.8190   60.1550 C   0  0  0  0  0  0  0  0  0  0  0  0
  132.0680  121.8660   60.6670 C   0  0  0  0  0  0  0  0  0  0  0  0
  128.9180  123.1750   61.4130 C   0  0  0  0  0  0  0  0  0  0  0  0
  128.3730  122.5100   60.2250 C   0  0  0  0  0  0  0  0  0  0  0  0
  127.9430  121.9840   59.2880 N   0  0  0  0  0  0  0  0  0  0  0  0
  129.3210  128.3410   59.6340 C   0  0  0  0  0  0  0  0  0  0  0  0
  130.1300  129.3970   59.2210 C   0  0  0  0  0  0  0  0  0  0  0  0
  1  2  1  0
  2  3  1  0
  3  4  1  0
  4  5  2  0
  4  6  1  0
  6  7  2  0
  7  8  1  0
  8  9  2  0
  9 10  1  0
 10 11  1  0
 11 12  2  0
 11 13  1  0
 13 14  1  0
 14 15  1  0
 15 16  2  0
 16 17  1  0
 17 18  1  0
 18 19  2  0
 19 20  1  0
 20 21  2  0
 21 22  1  0
 22 23  1  0
 21 24  1  0
 24 25  2  0
 17 26  2  0
 26 27  1  0
 27 28  1  0
 28 29  2  0
 29 30  1  0
 30 31  2  0
 31 32  1  0
 32 33  1  0
 31 34  1  0
 34 35  2  0
 27 36  2  0
 36 37  1  0
 37 38  3  0
  9 39  1  0
 39 40  2  0
 40  6  1  0
 36 15  1  0
 25 18  1  0
 35 28  1  0
M  END
>  <Binding energies>  (1) 
[-6.53]

>  <Ligand effiencies>  (1) 
[-0.15926829268292683]

>  <Interactions>  (1) 
["V-A:ILE:369:CG2:3236, V-A:ASP:366:CG:3212, V-B:TYR:539:CD2:9846, V-B:PRO:540:CA:9855, V-B:TYR:539:CE2:9848, V-B:ALA:541:CB:9864, V-A:ARG:545:CZ:4926, V-B:GLU:543:CG:9879, V-B:GLU:543:CD:9880, V-A:LEU:475:CD1:4257, V-A:GLU:543:CB:4906, V-A:GLU:543:CD:4908, V-B:GLU:543:CB:9878, V-A:HIS:456:CE1:4069, H-B:TYR:531:OH:9767, H-A:HIS:383:NE2:3393, H-A:SER:385:OG:3409, V-A:LEU:363:CD1:3188, V-A:LEU:363:CA:3184, V-A:ASN:362:C:3171, V-A:PRO:540:CA:4883, V-A:PRO:540:CB:4885, V-A:ASP:366:CB:3211, V-A:LEU:363:CB:3186, V-A:GLU:543:C:4902, V-A:HIS:383:CD2:3391, H-A:HIS:456:ND1:4066"]

$$$$
1b_Ghoteimi_2023
     RDKit          3D

 34 37  0  0  0  0  0  0  0  0999 V2000
  128.0330  126.6460   74.5210 C   0  0  0  0  0  0  0  0  0  0  0  0
  129.1970  127.0690   73.8210 O   0  0  0  0  0  0  0  0  0  0  0  0
  129.1720  127.1190   72.4400 C   0  0  0  0  0  0  0  0  0  0  0  0
  128.7820  125.9550   71.7800 C   0  0  0  0  0  0  0  0  0  0  0  0
  128.7290  125.9110   70.3910 C   0  0  0  0  0  0  0  0  0  0  0  0
  129.0600  127.0320   69.6160 C   0  0  0  0  0  0  0  0  0  0  0  0
  129.0030  126.9800   68.1150 C   0  0  0  0  0  0  0  0  0  0  0  0
  129.8370  126.1580   67.3500 C   0  0  0  0  0  0  0  0  0  0  0  0
  129.7410  126.1440   65.9530 C   0  0  0  0  0  0  0  0  0  0  0  0
  130.6660  125.2450   65.2000 C   0  0  0  0  0  0  0  0  0  0  0  0
  130.2160  124.0130   64.7180 C   0  0  0  0  0  0  0  0  0  0  0  0
  131.0770  123.1680   64.0230 C   0  0  0  0  0  0  0  0  0  0  0  0
  132.4040  123.5350   63.8010 C   0  0  0  0  0  0  0  0  0  0  0  0
  133.1850  122.6340   63.1030 O   0  0  0  0  0  0  0  0  0  0  0  0
  133.9770  123.0980   62.0150 C   0  0  0  0  0  0  0  0  0  0  0  0
  132.8630  124.7670   64.2900 C   0  0  0  0  0  0  0  0  0  0  0  0
  131.9990  125.6090   64.9850 C   0  0  0  0  0  0  0  0  0  0  0  0
  128.7720  126.9720   65.3350 C   0  0  0  0  0  0  0  0  0  0  0  0
  128.5660  126.9230   63.8840 C   0  0  0  0  0  0  0  0  0  0  0  0
  128.4040  126.8830   62.7390 N   0  0  0  0  0  0  0  0  0  0  0  0
  127.9760  127.7940   66.1640 C   0  0  0  0  0  0  0  0  0  0  0  0
  126.7180  128.9020   65.5640 S   0  0  0  0  0  0  0  0  0  0  0  0
  127.2920  130.6100   65.8490 C   0  0  0  0  0  0  0  0  0  0  0  0
  127.5250  131.4380   64.5770 C   0  0  0  0  0  0  0  0  0  0  0  0
  126.9770  132.5320   64.4280 O   0  0  0  0  0  0  0  0  0  0  0  0
  128.3550  130.8650   63.6760 N   0  0  0  0  0  0  0  0  0  0  0  0
  128.7460  131.3800   62.4460 C   0  0  0  0  0  0  0  0  0  0  0  0
  127.8710  131.5320   61.3720 C   0  0  0  0  0  0  0  0  0  0  0  0
  128.6360  132.0650   60.3600 C   0  0  0  0  0  0  0  0  0  0  0  0
  129.9060  132.2280   60.8040 O   0  0  0  0  0  0  0  0  0  0  0  0
  129.9620  131.7910   62.1270 N   0  0  0  0  0  0  0  0  0  0  0  0
  128.0810  127.7770   67.5150 N   0  0  0  0  0  0  0  0  0  0  0  0
  129.4530  128.1990   70.2910 C   0  0  0  0  0  0  0  0  0  0  0  0
  129.5100  128.2470   71.6810 C   0  0  0  0  0  0  0  0  0  0  0  0
  1  2  1  0
  2  3  1  0
  3  4  2  0
  4  5  1  0
  5  6  2  0
  6  7  1  0
  7  8  2  0
  8  9  1  0
  9 10  1  0
 10 11  2  0
 11 12  1  0
 12 13  2  0
 13 14  1  0
 14 15  1  0
 13 16  1  0
 16 17  2  0
  9 18  2  0
 18 19  1  0
 19 20  3  0
 18 21  1  0
 21 22  1  0
 22 23  1  0
 23 24  1  0
 24 25  2  0
 24 26  1  0
 26 27  1  0
 27 28  1  0
 28 29  2  0
 29 30  1  0
 30 31  1  0
 21 32  2  0
  6 33  1  0
 33 34  2  0
 34  3  1  0
 32  7  1  0
 17 10  1  0
 31 27  2  0
M  END
>  <Binding energies>  (2) 
[-7.32]

>  <Ligand effiencies>  (2) 
[-0.20914285714285716]

>  <Interactions>  (2) 
["V-A:ARG:545:CZ:4926, V-B:GLU:543:CG:9879, V-B:GLU:543:CD:9880, V-A:GLU:543:CD:4908, H-A:GLU:543:OE2:4910, H-A:GLY:454:N:4049, H-A:GLU:543:OE1:4909, V-A:HIS:456:CE1:4069, V-B:HIS:456:CE1:9041, V-A:ILE:369:CD1:3238, V-A:GLU:543:CG:4907, V-B:TYR:484:CE2:9317, V-B:TYR:484:CZ:9318, V-B:HIS:456:CD2:9039, H-A:ALA:541:N:4891, V-A:ALA:541:CB:4892, V-B:GLU:543:C:9874, V-A:GLU:543:C:4902"]

$$$$
1c_Ghoteimi_2023
     RDKit          3D

 34 37  0  0  0  0  0  0  0  0999 V2000
  128.5790  126.2610   69.2080 C   0  0  0  0  0  0  0  0  0  0  0  0
  129.8300  126.6930   68.6860 O   0  0  0  0  0  0  0  0  0  0  0  0
  130.2140  126.2800   67.4240 C   0  0  0  0  0  0  0  0  0  0  0  0
  129.1990  125.8640   66.5670 C   0  0  0  0  0  0  0  0  0  0  0  0
  129.4950  125.4290   65.2780 C   0  0  0  0  0  0  0  0  0  0  0  0
  130.8170  125.3970   64.8070 C   0  0  0  0  0  0  0  0  0  0  0  0
  131.1400  124.9240   63.4200 C   0  0  0  0  0  0  0  0  0  0  0  0
  130.1720  124.8020   62.4170 C   0  0  0  0  0  0  0  0  0  0  0  0
  130.5270  124.3820   61.1290 C   0  0  0  0  0  0  0  0  0  0  0  0
  129.4540  124.3390   60.0920 C   0  0  0  0  0  0  0  0  0  0  0  0
  128.8370  123.1300   59.7560 C   0  0  0  0  0  0  0  0  0  0  0  0
  127.8530  123.0890   58.7740 C   0  0  0  0  0  0  0  0  0  0  0  0
  127.4700  124.2510   58.1050 C   0  0  0  0  0  0  0  0  0  0  0  0
  126.4850  124.1150   57.1450 O   0  0  0  0  0  0  0  0  0  0  0  0
  125.7760  122.8840   57.0470 C   0  0  0  0  0  0  0  0  0  0  0  0
  128.0910  125.4660   58.4350 C   0  0  0  0  0  0  0  0  0  0  0  0
  129.0760  125.5050   59.4180 C   0  0  0  0  0  0  0  0  0  0  0  0
  131.8800  124.0570   60.8760 C   0  0  0  0  0  0  0  0  0  0  0  0
  132.3100  123.5800   59.5570 C   0  0  0  0  0  0  0  0  0  0  0  0
  132.6470  123.2030   58.5160 N   0  0  0  0  0  0  0  0  0  0  0  0
  132.8070  124.2200   61.9260 C   0  0  0  0  0  0  0  0  0  0  0  0
  134.5600  124.0120   61.7030 S   0  0  0  0  0  0  0  0  0  0  0  0
  134.9040  122.3140   62.2660 C   0  0  0  0  0  0  0  0  0  0  0  0
  133.6340  121.4590   62.3350 C   0  0  0  0  0  0  0  0  0  0  0  0
  132.7440  121.7550   63.1330 O   0  0  0  0  0  0  0  0  0  0  0  0
  133.5780  120.4390   61.4510 N   0  0  0  0  0  0  0  0  0  0  0  0
  132.4900  119.6180   61.2010 C   0  0  0  0  0  0  0  0  0  0  0  0
  132.4990  118.3580   60.8220 N   0  0  0  0  0  0  0  0  0  0  0  0
  131.2750  117.8760   60.7170 C   0  0  0  0  0  0  0  0  0  0  0  0
  130.2400  118.7560   61.0180 C   0  0  0  0  0  0  0  0  0  0  0  0
  130.9150  120.2960   61.4570 S   0  0  0  0  0  0  0  0  0  0  0  0
  132.4450  124.6500   63.1590 N   0  0  0  0  0  0  0  0  0  0  0  0
  131.8300  125.8250   65.6770 C   0  0  0  0  0  0  0  0  0  0  0  0
  131.5390  126.2590   66.9670 C   0  0  0  0  0  0  0  0  0  0  0  0
  1  2  1  0
  2  3  1  0
  3  4  2  0
  4  5  1  0
  5  6  2  0
  6  7  1  0
  7  8  2  0
  8  9  1  0
  9 10  1  0
 10 11  2  0
 11 12  1  0
 12 13  2  0
 13 14  1  0
 14 15  1  0
 13 16  1  0
 16 17  2  0
  9 18  2  0
 18 19  1  0
 19 20  3  0
 18 21  1  0
 21 22  1  0
 22 23  1  0
 23 24  1  0
 24 25  2  0
 24 26  1  0
 26 27  1  0
 27 28  2  0
 28 29  1  0
 29 30  2  0
 30 31  1  0
 21 32  2  0
  6 33  1  0
 33 34  2  0
 34  3  1  0
 32  7  1  0
 17 10  1  0
 31 27  1  0
M  END
>  <Binding energies>  (3) 
[-7.49]

>  <Ligand effiencies>  (3) 
[-0.214]

>  <Interactions>  (3) 
["V-B:PRO:540:CB:9857, V-A:ILE:369:CG2:3236, V-B:PRO:540:CA:9855, V-B:TYR:539:C:9839, V-B:TYR:539:CE2:9848, V-B:LEU:363:CD1:8160, V-B:ALA:541:CB:9864, V-A:GLY:454:CA:4048, V-B:GLU:543:CG:9879, V-B:GLU:543:CD:9880, V-A:LEU:475:CD1:4257, H-A:GLY:454:N:4049, V-B:MET:535:CE:9807, V-B:GLU:543:CB:9878, V-A:HIS:456:CE1:4069, H-B:TYR:531:OH:9767, V-B:HIS:456:CE1:9041, V-A:PRO:482:CG:4326, H-A:HIS:383:NE2:3393, H-A:SER:385:OG:3409, H-A:SER:385:O:3405, V-A:GLY:453:C:4041, V-A:ILE:369:CD1:3238, V-B:GLU:543:C:9874, H-B:TYR:539:OH:9850"]

$$$$
1d_Ghoteimi_2023
     RDKit          3D

 30 32  0  0  0  0  0  0  0  0999 V2000
  125.7140  122.0000   56.5590 C   0  0  0  0  0  0  0  0  0  0  0  0
  125.9460  122.3580   57.9130 O   0  0  0  0  0  0  0  0  0  0  0  0
  125.8810  123.6480   58.3020 C   0  0  0  0  0  0  0  0  0  0  0  0
  125.8840  124.6330   57.5620 O   0  0  0  0  0  0  0  0  0  0  0  0
  125.8030  123.7940   59.8190 C   0  0  0  0  0  0  0  0  0  0  0  0
  127.0270  125.0440   60.3120 S   0  0  0  0  0  0  0  0  0  0  0  0
  128.2430  124.2170   61.3130 C   0  0  0  0  0  0  0  0  0  0  0  0
  128.3980  124.7600   62.5440 N   0  0  0  0  0  0  0  0  0  0  0  0
  129.2970  124.2290   63.4110 C   0  0  0  0  0  0  0  0  0  0  0  0
  129.4030  124.8870   64.7570 C   0  0  0  0  0  0  0  0  0  0  0  0
  129.8750  124.1840   65.8760 C   0  0  0  0  0  0  0  0  0  0  0  0
  129.9660  124.7930   67.1240 C   0  0  0  0  0  0  0  0  0  0  0  0
  129.5870  126.1230   67.2930 C   0  0  0  0  0  0  0  0  0  0  0  0
  129.7080  126.6440   68.5670 O   0  0  0  0  0  0  0  0  0  0  0  0
  128.7500  126.2850   69.5570 C   0  0  0  0  0  0  0  0  0  0  0  0
  129.1130  126.8380   66.1850 C   0  0  0  0  0  0  0  0  0  0  0  0
  129.0250  126.2250   64.9380 C   0  0  0  0  0  0  0  0  0  0  0  0
  130.0630  123.1140   63.0500 C   0  0  0  0  0  0  0  0  0  0  0  0
  129.9340  122.5410   61.7780 C   0  0  0  0  0  0  0  0  0  0  0  0
  130.7880  121.3570   61.4560 C   0  0  0  0  0  0  0  0  0  0  0  0
  132.1750  121.4980   61.3510 C   0  0  0  0  0  0  0  0  0  0  0  0
  132.9760  120.3990   61.0510 C   0  0  0  0  0  0  0  0  0  0  0  0
  132.4100  119.1400   60.8560 C   0  0  0  0  0  0  0  0  0  0  0  0
  133.2800  118.1100   60.5560 O   0  0  0  0  0  0  0  0  0  0  0  0
  134.3870  118.3630   59.6970 C   0  0  0  0  0  0  0  0  0  0  0  0
  131.0190  118.9920   60.9730 C   0  0  0  0  0  0  0  0  0  0  0  0
  130.2200  120.0920   61.2740 C   0  0  0  0  0  0  0  0  0  0  0  0
  129.0130  123.1180   60.8690 C   0  0  0  0  0  0  0  0  0  0  0  0
  128.9120  122.6250   59.4920 C   0  0  0  0  0  0  0  0  0  0  0  0
  128.8340  122.2350   58.4060 N   0  0  0  0  0  0  0  0  0  0  0  0
  1  2  1  0
  2  3  1  0
  3  4  2  0
  3  5  1  0
  5  6  1  0
  6  7  1  0
  7  8  2  0
  8  9  1  0
  9 10  1  0
 10 11  2  0
 11 12  1  0
 12 13  2  0
 13 14  1  0
 14 15  1  0
 13 16  1  0
 16 17  2  0
  9 18  2  0
 18 19  1  0
 19 20  1  0
 20 21  2  0
 21 22  1  0
 22 23  2  0
 23 24  1  0
 24 25  1  0
 23 26  1  0
 26 27  2  0
 19 28  2  0
 28 29  1  0
 29 30  3  0
 28  7  1  0
 17 10  1  0
 27 20  1  0
M  END
>  <Binding energies>  (4) 
[-6.23]

>  <Ligand effiencies>  (4) 
[-0.2076666666666667]

>  <Interactions>  (4) 
["V-B:PRO:540:CB:9857, V-A:ILE:369:CG2:3236, V-B:TYR:539:CD2:9846, V-A:SER:385:C:3404, V-A:SER:385:CB:3408, V-A:SER:385:CA:3406, V-B:PRO:540:CA:9855, V-B:TYR:539:C:9839, V-B:PRO:540:N:9856, V-B:LEU:363:CD1:8160, V-B:ALA:541:CB:9864, V-B:GLU:543:CG:9879, V-B:GLU:543:CD:9880, V-A:LEU:475:CD1:4257, V-A:GLU:543:CD:4908, V-A:TYR:484:CE2:4345, V-B:PRO:540:CD:9859, V-B:MET:535:CE:9807, V-B:GLU:543:CB:9878, V-A:HIS:456:CE1:4069, H-B:TYR:531:OH:9767, V-B:HIS:456:CE1:9041, V-A:TYR:484:CZ:4346, H-A:HIS:383:NE2:3393, H-A:SER:385:OG:3409, V-A:HIS:383:CD2:3391"]

$$$$
1j_Grossjean_2025
     RDKit          3D

 20 21  0  0  0  0  0  0  0  0999 V2000
  129.0300  122.4720   61.9670 C   0  0  0  0  0  0  0  0  0  0  0  0
  130.1290  121.5160   61.5410 C   0  0  0  0  0  0  0  0  0  0  0  0
  129.8710  120.1680   61.3030 C   0  0  0  0  0  0  0  0  0  0  0  0
  130.9200  119.3370   60.9000 C   0  0  0  0  0  0  0  0  0  0  0  0
  130.6090  117.8650   60.6280 C   0  0  0  0  0  0  0  0  0  0  0  0
  132.2160  119.8810   60.7520 C   0  0  0  0  0  0  0  0  0  0  0  0
  133.3190  119.0400   60.2790 C   0  0  0  0  0  0  0  0  0  0  0  0
  134.1880  118.3740   59.9050 N   0  0  0  0  0  0  0  0  0  0  0  0
  132.3910  121.2550   61.0400 C   0  0  0  0  0  0  0  0  0  0  0  0
  133.9500  122.1050   60.9100 S   0  0  0  0  0  0  0  0  0  0  0  0
  133.7160  123.7900   61.5480 C   0  0  0  0  0  0  0  0  0  0  0  0
  133.4890  123.8050   63.0610 C   0  0  0  0  0  0  0  0  0  0  0  0
  133.1950  122.7570   63.6380 O   0  0  0  0  0  0  0  0  0  0  0  0
  133.6370  125.0060   63.6610 N   0  0  0  0  0  0  0  0  0  0  0  0
  133.4800  125.2830   65.0120 C   0  0  0  0  0  0  0  0  0  0  0  0
  134.3520  125.0980   65.9800 N   0  0  0  0  0  0  0  0  0  0  0  0
  133.8650  125.4740   67.1460 C   0  0  0  0  0  0  0  0  0  0  0  0
  132.5690  125.9800   67.1390 C   0  0  0  0  0  0  0  0  0  0  0  0
  131.9620  125.9580   65.5110 S   0  0  0  0  0  0  0  0  0  0  0  0
  131.3620  122.0580   61.4100 N   0  0  0  0  0  0  0  0  0  0  0  0
  1  2  1  0
  2  3  2  0
  3  4  1  0
  4  5  1  0
  4  6  2  0
  6  7  1  0
  7  8  3  0
  6  9  1  0
  9 10  1  0
 10 11  1  0
 11 12  1  0
 12 13  2  0
 12 14  1  0
 14 15  1  0
 15 16  2  0
 16 17  1  0
 17 18  2  0
 18 19  1  0
  9 20  2  0
 20  2  1  0
 19 15  1  0
M  END
>  <Binding energies>  (5) 
[-6.75]

>  <Ligand effiencies>  (5) 
[-0.32142857142857145]

>  <Interactions>  (5) 
["V-A:ILE:369:CG2:3236, V-A:ASP:366:CG:3212, V-B:TYR:539:CD2:9846, V-A:SER:385:CA:3406, V-B:ALA:541:CB:9864, V-A:ARG:545:CZ:4926, V-A:GLY:454:CA:4048, V-A:LEU:475:CD1:4257, V-A:ARG:545:CG:4922, H-A:ARG:545:NE:4924, H-A:GLY:454:N:4049, V-A:HIS:456:CE1:4069, V-A:TYR:484:CZ:4346, V-A:PRO:482:CG:4326, H-A:HIS:383:NE2:3393, H-A:SER:385:OG:3409, V-A:ARG:545:CD:4923, H-A:TYR:484:OH:4347, H-A:ASP:366:OD2:3214, V-A:GLY:453:CA:4043, H-A:ASP:366:OD1:3213, V-B:PRO:540:C:9853, H-A:ILE:455:N:4054, V-B:ALA:541:CA:9862, V-A:PRO:482:CB:4325"]

$$$$
1o_Grossjean_2025
     RDKit          3D

 26 27  0  0  0  0  0  0  0  0999 V2000
  133.6070  118.7130   59.2550 C   0  0  0  0  0  0  0  0  0  0  0  0
  133.3250  118.0370   60.4720 O   0  0  0  0  0  0  0  0  0  0  0  0
  132.0660  118.0040   60.9780 C   0  0  0  0  0  0  0  0  0  0  0  0
  131.4370  116.9590   61.1700 O   0  0  0  0  0  0  0  0  0  0  0  0
  131.5140  119.3670   61.2860 C   0  0  0  0  0  0  0  0  0  0  0  0
  130.1380  119.6350   61.2520 C   0  0  0  0  0  0  0  0  0  0  0  0
  129.6580  120.9090   61.5450 C   0  0  0  0  0  0  0  0  0  0  0  0
  130.5410  121.9400   61.8710 C   0  0  0  0  0  0  0  0  0  0  0  0
  129.9480  123.1850   62.1580 N   0  0  0  0  0  0  0  0  0  0  0  0
  128.6520  123.4970   62.3790 C   0  0  0  0  0  0  0  0  0  0  0  0
  127.7240  122.6890   62.4110 O   0  0  0  0  0  0  0  0  0  0  0  0
  128.3640  124.9840   62.6350 C   0  0  0  0  0  0  0  0  0  0  0  0
  129.2240  125.5860   63.7640 C   0  0  0  0  0  0  0  0  0  0  0  0
  130.5780  126.6450   63.1750 S   0  0  0  0  0  0  0  0  0  0  0  0
  131.6430  125.6700   62.1310 C   0  0  0  0  0  0  0  0  0  0  0  0
  131.1930  125.5580   60.8560 N   0  0  0  0  0  0  0  0  0  0  0  0
  131.9250  124.8460   59.9670 C   0  0  0  0  0  0  0  0  0  0  0  0
  131.3670  124.7770   58.5580 C   0  0  0  0  0  0  0  0  0  0  0  0
  133.1170  124.2120   60.3120 C   0  0  0  0  0  0  0  0  0  0  0  0
  133.5770  124.3000   61.6300 C   0  0  0  0  0  0  0  0  0  0  0  0
  134.8790  123.5840   61.9860 C   0  0  0  0  0  0  0  0  0  0  0  0
  132.8270  125.0340   62.5770 C   0  0  0  0  0  0  0  0  0  0  0  0
  133.2620  125.0870   63.9740 C   0  0  0  0  0  0  0  0  0  0  0  0
  133.6080  125.1290   65.0780 N   0  0  0  0  0  0  0  0  0  0  0  0
  131.9180  121.6770   61.9120 C   0  0  0  0  0  0  0  0  0  0  0  0
  132.3960  120.4030   61.6200 C   0  0  0  0  0  0  0  0  0  0  0  0
  1  2  1  0
  2  3  1  0
  3  4  2  0
  3  5  1  0
  5  6  2  0
  6  7  1  0
  7  8  2  0
  8  9  1  0
  9 10  1  0
 10 11  2  0
 10 12  1  0
 12 13  1  0
 13 14  1  0
 14 15  1  0
 15 16  2  0
 16 17  1  0
 17 18  1  0
 17 19  2  0
 19 20  1  0
 20 21  1  0
 20 22  2  0
 22 23  1  0
 23 24  3  0
  8 25  1  0
 25 26  2  0
 26  5  1  0
 22 15  1  0
M  END
>  <Binding energies>  (6) 
[-6.65]

>  <Ligand effiencies>  (6) 
[-0.24629629629629632]

>  <Interactions>  (6) 
["V-A:ILE:369:CG2:3236, H-B:ALA:541:N:9863, V-A:ASP:366:CG:3212, V-B:TYR:539:CD2:9846, V-B:TYR:539:CE2:9848, V-B:ALA:541:CB:9864, V-A:ARG:545:CZ:4926, V-B:GLU:543:CD:9880, V-A:LEU:475:CD1:4257, H-A:ARG:545:NE:4924, H-A:GLY:454:N:4049, H-A:ARG:545:NH2:4928, V-A:PRO:482:CG:4326, H-A:HIS:383:NE2:3393, H-A:SER:385:OG:3409, H-A:TYR:484:OH:4347, V-A:ASP:366:CB:3211, V-A:GLY:453:CA:4043, V-A:GLY:453:C:4041, V-A:ILE:369:CD1:3238, V-B:PRO:540:C:9853, V-B:ALA:541:CA:9862, V-A:HIS:383:CD2:3391"]

$$$$
1p_Grossjean_2025
     RDKit          3D

 21 22  0  0  0  0  0  0  0  0999 V2000
  129.0830  122.4130   62.3700 C   0  0  0  0  0  0  0  0  0  0  0  0
  130.1630  121.4890   61.8380 C   0  0  0  0  0  0  0  0  0  0  0  0
  129.8760  120.1820   61.4480 C   0  0  0  0  0  0  0  0  0  0  0  0
  130.9140  119.3700   60.9780 C   0  0  0  0  0  0  0  0  0  0  0  0
  130.5790  117.9370   60.5700 C   0  0  0  0  0  0  0  0  0  0  0  0
  132.2230  119.8970   60.9020 C   0  0  0  0  0  0  0  0  0  0  0  0
  133.3340  119.0530   60.4580 C   0  0  0  0  0  0  0  0  0  0  0  0
  134.2110  118.3840   60.1070 N   0  0  0  0  0  0  0  0  0  0  0  0
  132.4180  121.2420   61.2970 C   0  0  0  0  0  0  0  0  0  0  0  0
  133.9950  122.0620   61.2550 S   0  0  0  0  0  0  0  0  0  0  0  0
  133.7370  123.6570   60.4240 C   0  0  0  0  0  0  0  0  0  0  0  0
  132.9740  124.6860   61.2800 C   0  0  0  0  0  0  0  0  0  0  0  0
  133.5420  124.8460   62.6980 C   0  0  0  0  0  0  0  0  0  0  0  0
  134.7460  124.6720   62.8940 O   0  0  0  0  0  0  0  0  0  0  0  0
  132.6460  125.1910   63.6510 N   0  0  0  0  0  0  0  0  0  0  0  0
  132.8940  125.3990   65.0020 C   0  0  0  0  0  0  0  0  0  0  0  0
  131.9640  125.9740   65.8670 C   0  0  0  0  0  0  0  0  0  0  0  0
  132.5850  126.0010   67.0950 C   0  0  0  0  0  0  0  0  0  0  0  0
  133.8260  125.4720   66.9750 O   0  0  0  0  0  0  0  0  0  0  0  0
  134.0100  125.0950   65.6430 N   0  0  0  0  0  0  0  0  0  0  0  0
  131.4080  122.0150   61.7720 N   0  0  0  0  0  0  0  0  0  0  0  0
  1  2  1  0
  2  3  2  0
  3  4  1  0
  4  5  1  0
  4  6  2  0
  6  7  1  0
  7  8  3  0
  6  9  1  0
  9 10  1  0
 10 11  1  0
 11 12  1  0
 12 13  1  0
 13 14  2  0
 13 15  1  0
 15 16  1  0
 16 17  1  0
 17 18  2  0
 18 19  1  0
 19 20  1  0
  9 21  2  0
 21  2  1  0
 20 16  2  0
M  END
>  <Binding energies>  (7) 
[-7.04]

>  <Ligand effiencies>  (7) 
[-0.32]

>  <Interactions>  (7) 
["V-A:ILE:369:CG2:3236, V-A:ASP:366:CG:3212, V-B:TYR:539:CD2:9846, V-A:SER:385:CA:3406, V-B:TYR:539:C:9839, V-B:ALA:541:CB:9864, V-A:ARG:545:CZ:4926, V-A:LEU:475:CD1:4257, V-A:ARG:545:CG:4922, H-A:ARG:545:NE:4924, H-A:GLY:454:N:4049, V-A:HIS:456:CE1:4069, H-A:ARG:545:NH1:4927, H-A:ARG:545:NH2:4928, V-A:TYR:484:CZ:4346, V-A:PRO:482:CG:4326, H-A:HIS:383:NE2:3393, H-A:SER:385:OG:3409, V-A:ARG:545:CD:4923, H-A:TYR:484:OH:4347, V-A:ILE:369:CD1:3238, V-B:PRO:540:C:9853, V-B:ALA:541:CA:9862"]

$$$$
2a_Ghoteimi_2023
     RDKit          3D

 48 53  0  0  0  0  0  0  0  0999 V2000
  129.3200  123.9450   57.0130 C   0  0  0  0  0  0  0  0  0  0  0  0
  129.0790  122.5180   57.5150 C   0  0  0  0  0  0  0  0  0  0  0  0
  127.9750  121.9530   56.8190 O   0  0  0  0  0  0  0  0  0  0  0  0
  126.7000  122.1730   57.2300 C   0  0  0  0  0  0  0  0  0  0  0  0
  125.7210  121.5940   56.7490 O   0  0  0  0  0  0  0  0  0  0  0  0
  126.5990  123.1870   58.3340 C   0  0  0  0  0  0  0  0  0  0  0  0
  126.1500  124.4960   58.1020 C   0  0  0  0  0  0  0  0  0  0  0  0
  126.0670  125.4100   59.1470 C   0  0  0  0  0  0  0  0  0  0  0  0
  126.4250  125.0380   60.4440 C   0  0  0  0  0  0  0  0  0  0  0  0
  126.3070  126.0430   61.4230 N   0  0  0  0  0  0  0  0  0  0  0  0
  126.3550  127.3870   61.2940 C   0  0  0  0  0  0  0  0  0  0  0  0
  126.5700  127.9900   60.2420 O   0  0  0  0  0  0  0  0  0  0  0  0
  126.1610  128.1750   62.5960 C   0  0  0  0  0  0  0  0  0  0  0  0
  127.6870  128.9080   63.2690 S   0  0  0  0  0  0  0  0  0  0  0  0
  128.3350  127.7050   64.4060 C   0  0  0  0  0  0  0  0  0  0  0  0
  128.8210  126.5920   63.8090 N   0  0  0  0  0  0  0  0  0  0  0  0
  129.3350  125.5960   64.5730 C   0  0  0  0  0  0  0  0  0  0  0  0
  129.8440  124.3930   63.8450 C   0  0  0  0  0  0  0  0  0  0  0  0
  131.2150  124.1240   63.7570 C   0  0  0  0  0  0  0  0  0  0  0  0
  131.6830  123.0090   63.0680 C   0  0  0  0  0  0  0  0  0  0  0  0
  130.7990  122.1150   62.4480 C   0  0  0  0  0  0  0  0  0  0  0  0
  131.2850  121.0150   61.7340 N   0  0  0  0  0  0  0  0  0  0  0  0
  130.5850  119.7150   61.7520 C   0  0  0  0  0  0  0  0  0  0  0  0
  131.0460  118.7440   60.6440 C   0  0  0  0  0  0  0  0  0  0  0  0
  132.4520  118.5650   60.7090 O   0  0  0  0  0  0  0  0  0  0  0  0
  133.1390  119.7920   60.5220 C   0  0  0  0  0  0  0  0  0  0  0  0
  132.7430  120.7960   61.6250 C   0  0  0  0  0  0  0  0  0  0  0  0
  129.4250  122.3960   62.5300 C   0  0  0  0  0  0  0  0  0  0  0  0
  128.9570  123.5090   63.2200 C   0  0  0  0  0  0  0  0  0  0  0  0
  129.3850  125.7050   65.9650 C   0  0  0  0  0  0  0  0  0  0  0  0
  128.8890  126.8480   66.6060 C   0  0  0  0  0  0  0  0  0  0  0  0
  128.9680  126.8970   68.0970 C   0  0  0  0  0  0  0  0  0  0  0  0
  129.4740  128.0310   68.7380 C   0  0  0  0  0  0  0  0  0  0  0  0
  129.5710  128.0780   70.1250 C   0  0  0  0  0  0  0  0  0  0  0  0
  129.1610  126.9930   70.9150 C   0  0  0  0  0  0  0  0  0  0  0  0
  129.2660  127.0130   72.3080 N   0  0  0  0  0  0  0  0  0  0  0  0
  130.6050  126.9950   72.9330 C   0  0  0  0  0  0  0  0  0  0  0  0
  130.5890  127.4100   74.4190 C   0  0  0  0  0  0  0  0  0  0  0  0
  129.6840  126.5910   75.1430 O   0  0  0  0  0  0  0  0  0  0  0  0
  128.3610  126.7020   74.6440 C   0  0  0  0  0  0  0  0  0  0  0  0
  128.3170  126.2730   73.1630 C   0  0  0  0  0  0  0  0  0  0  0  0
  128.6660  125.8540   70.2640 C   0  0  0  0  0  0  0  0  0  0  0  0
  128.5710  125.8060   68.8760 C   0  0  0  0  0  0  0  0  0  0  0  0
  128.3510  127.8870   65.8070 C   0  0  0  0  0  0  0  0  0  0  0  0
  127.8680  129.1310   66.4160 C   0  0  0  0  0  0  0  0  0  0  0  0
  127.4870  130.1110   66.8990 N   0  0  0  0  0  0  0  0  0  0  0  0
  126.8830  123.7340   60.6830 C   0  0  0  0  0  0  0  0  0  0  0  0
  126.9640  122.8190   59.6360 C   0  0  0  0  0  0  0  0  0  0  0  0
  1  2  1  0
  2  3  1  0
  3  4  1  0
  4  5  2  0
  4  6  1  0
  6  7  2  0
  7  8  1  0
  8  9  2  0
  9 10  1  0
 10 11  1  0
 11 12  2  0
 11 13  1  0
 13 14  1  0
 14 15  1  0
 15 16  2  0
 16 17  1  0
 17 18  1  0
 18 19  2  0
 19 20  1  0
 20 21  2  0
 21 22  1  0
 22 23  1  0
 23 24  1  0
 24 25  1  0
 25 26  1  0
 26 27  1  0
 21 28  1  0
 28 29  2  0
 17 30  2  0
 30 31  1  0
 31 32  1  0
 32 33  2  0
 33 34  1  0
 34 35  2  0
 35 36  1  0
 36 37  1  0
 37 38  1  0
 38 39  1  0
 39 40  1  0
 40 41  1  0
 35 42  1  0
 42 43  2  0
 31 44  2  0
 44 45  1  0
 45 46  3  0
  9 47  1  0
 47 48  2  0
 48  6  1  0
 44 15  1  0
 29 18  1  0
 43 32  1  0
 27 22  1  0
 41 36  1  0
M  END
>  <Binding energies>  (8) 
[-9.35]

>  <Ligand effiencies>  (8) 
[-0.19081632653061223]

>  <Interactions>  (8) 
["V-B:PRO:540:CB:9857, V-A:ILE:369:CG2:3236, V-B:TYR:539:CD2:9846, V-B:PRO:540:CA:9855, V-B:TYR:539:C:9839, V-B:TYR:539:CE2:9848, V-B:TYR:539:CZ:9849, V-B:PRO:540:N:9856, V-B:ASP:366:CG:8184, V-B:ALA:541:CB:9864, V-B:GLU:543:CG:9879, V-B:GLU:543:CD:9880, V-A:LEU:475:CD1:4257, V-A:GLU:543:CB:4906, V-A:GLU:543:CD:4908, V-B:PRO:540:CD:9859, V-B:MET:535:CE:9807, V-B:GLU:543:CB:9878, V-A:HIS:456:CE1:4069, V-B:HIS:456:CE1:9041, H-A:HIS:383:NE2:3393, H-A:SER:385:OG:3409, H-B:GLU:543:OE2:9882, V-B:TYR:539:CG:9844, H-B:TYR:539:N:9842, V-A:GLU:543:CG:4907, V-B:HIS:456:CD2:9039, V-B:GLU:543:C:9874, V-A:HIS:456:CD2:4067, V-A:LYS:547:CE:4950, V-A:HIS:456:CG:4065, V-B:GLU:543:CA:9876, H-B:ASP:366:OD1:8185, H-B:GLU:543:OE1:9881, V-A:GLU:543:C:4902, V-B:ARG:545:CZ:9898, H-B:TYR:484:OH:9319, V-B:TYR:539:CD1:9845, V-B:TYR:539:CE1:9847"]

$$$$
2aa_Ghoteimi_2023
     RDKit          3D

 48 53  0  0  0  0  0  0  0  0999 V2000
  134.6040  124.1860   61.5920 C   0  0  0  0  0  0  0  0  0  0  0  0
  134.3750  123.0960   60.5400 C   0  0  0  0  0  0  0  0  0  0  0  0
  134.5830  123.6430   59.2440 O   0  0  0  0  0  0  0  0  0  0  0  0
  133.5680  123.7220   58.3440 C   0  0  0  0  0  0  0  0  0  0  0  0
  133.6560  123.3110   57.1820 O   0  0  0  0  0  0  0  0  0  0  0  0
  132.3230  124.3450   58.9070 C   0  0  0  0  0  0  0  0  0  0  0  0
  131.3920  123.6010   59.6470 C   0  0  0  0  0  0  0  0  0  0  0  0
  130.2500  124.2080   60.1590 C   0  0  0  0  0  0  0  0  0  0  0  0
  130.0090  125.5650   59.9380 C   0  0  0  0  0  0  0  0  0  0  0  0
  128.8250  126.0770   60.5040 N   0  0  0  0  0  0  0  0  0  0  0  0
  128.3200  127.3280   60.4670 C   0  0  0  0  0  0  0  0  0  0  0  0
  128.8280  128.2810   59.8720 O   0  0  0  0  0  0  0  0  0  0  0  0
  126.9970  127.5050   61.2250 C   0  0  0  0  0  0  0  0  0  0  0  0
  127.2560  128.0470   62.5250 O   0  0  0  0  0  0  0  0  0  0  0  0
  127.9470  127.2970   63.4670 C   0  0  0  0  0  0  0  0  0  0  0  0
  128.5180  126.1280   63.0620 N   0  0  0  0  0  0  0  0  0  0  0  0
  129.2040  125.3730   63.9560 C   0  0  0  0  0  0  0  0  0  0  0  0
  129.7990  124.1010   63.4410 C   0  0  0  0  0  0  0  0  0  0  0  0
  128.9870  123.1040   62.8910 C   0  0  0  0  0  0  0  0  0  0  0  0
  129.5370  121.9200   62.4040 C   0  0  0  0  0  0  0  0  0  0  0  0
  130.9220  121.6970   62.4360 C   0  0  0  0  0  0  0  0  0  0  0  0
  131.4900  120.5080   61.9620 N   0  0  0  0  0  0  0  0  0  0  0  0
  130.6520  119.3490   61.5930 C   0  0  0  0  0  0  0  0  0  0  0  0
  131.4440  118.0330   61.4370 C   0  0  0  0  0  0  0  0  0  0  0  0
  132.5020  118.2100   60.5100 O   0  0  0  0  0  0  0  0  0  0  0  0
  133.4090  119.2130   60.9420 C   0  0  0  0  0  0  0  0  0  0  0  0
  132.6760  120.5640   61.0820 C   0  0  0  0  0  0  0  0  0  0  0  0
  131.7300  122.6900   63.0070 C   0  0  0  0  0  0  0  0  0  0  0  0
  131.1790  123.8720   63.4970 C   0  0  0  0  0  0  0  0  0  0  0  0
  129.3220  125.7650   65.2930 C   0  0  0  0  0  0  0  0  0  0  0  0
  128.7350  126.9560   65.7380 C   0  0  0  0  0  0  0  0  0  0  0  0
  128.8730  127.3100   67.1840 C   0  0  0  0  0  0  0  0  0  0  0  0
  128.9010  126.3070   68.1560 C   0  0  0  0  0  0  0  0  0  0  0  0
  129.0090  126.6300   69.5060 C   0  0  0  0  0  0  0  0  0  0  0  0
  129.0780  127.9680   69.9240 C   0  0  0  0  0  0  0  0  0  0  0  0
  129.1900  128.3160   71.2730 N   0  0  0  0  0  0  0  0  0  0  0  0
  128.7170  129.6210   71.7720 C   0  0  0  0  0  0  0  0  0  0  0  0
  128.5970  129.6840   73.3100 C   0  0  0  0  0  0  0  0  0  0  0  0
  129.8360  129.3330   73.9080 O   0  0  0  0  0  0  0  0  0  0  0  0
  130.2330  128.0180   73.5510 C   0  0  0  0  0  0  0  0  0  0  0  0
  130.3980  127.9110   72.0210 C   0  0  0  0  0  0  0  0  0  0  0  0
  129.0560  128.9670   68.9410 C   0  0  0  0  0  0  0  0  0  0  0  0
  128.9480  128.6440   67.5920 C   0  0  0  0  0  0  0  0  0  0  0  0
  128.0410  127.7500   64.7950 C   0  0  0  0  0  0  0  0  0  0  0  0
  127.4390  129.0340   65.1590 C   0  0  0  0  0  0  0  0  0  0  0  0
  126.9630  130.0500   65.4480 N   0  0  0  0  0  0  0  0  0  0  0  0
  130.9390  126.3170   59.2060 C   0  0  0  0  0  0  0  0  0  0  0  0
  132.0830  125.7090   58.6970 C   0  0  0  0  0  0  0  0  0  0  0  0
  1  2  1  0
  2  3  1  0
  3  4  1  0
  4  5  2  0
  4  6  1  0
  6  7  2  0
  7  8  1  0
  8  9  2  0
  9 10  1  0
 10 11  1  0
 11 12  2  0
 11 13  1  0
 13 14  1  0
 14 15  1  0
 15 16  2  0
 16 17  1  0
 17 18  1  0
 18 19  2  0
 19 20  1  0
 20 21  2  0
 21 22  1  0
 22 23  1  0
 23 24  1  0
 24 25  1  0
 25 26  1  0
 26 27  1  0
 21 28  1  0
 28 29  2  0
 17 30  2  0
 30 31  1  0
 31 32  1  0
 32 33  2  0
 33 34  1  0
 34 35  2  0
 35 36  1  0
 36 37  1  0
 37 38  1  0
 38 39  1  0
 39 40  1  0
 40 41  1  0
 35 42  1  0
 42 43  2  0
 31 44  2  0
 44 45  1  0
 45 46  3  0
  9 47  1  0
 47 48  2  0
 48  6  1  0
 44 15  1  0
 29 18  1  0
 43 32  1  0
 27 22  1  0
 41 36  1  0
M  END
>  <Binding energies>  (9) 
[-8.16]

>  <Ligand effiencies>  (9) 
[-0.16653061224489796]

>  <Interactions>  (9) 
["V-A:ILE:369:CG2:3236, V-A:ASP:366:CG:3212, V-A:SER:385:C:3404, V-A:SER:385:CA:3406, V-B:TYR:539:CE2:9848, V-B:ALA:541:CB:9864, V-B:GLU:543:CG:9879, V-B:GLU:543:CD:9880, V-A:LEU:475:CD1:4257, V-A:GLU:543:CB:4906, V-A:GLU:543:CD:4908, V-B:GLU:543:CB:9878, V-A:HIS:456:CE1:4069, V-B:HIS:456:CE1:9041, V-A:PRO:482:CG:4326, H-A:HIS:383:NE2:3393, H-A:SER:385:OG:3409, V-A:ASP:366:CB:3211, V-A:GLY:453:CA:4043, V-A:ILE:369:CD1:3238, V-A:GLU:543:CG:4907, V-B:HIS:456:CD2:9039, V-A:LYS:547:CE:4950, H-A:LYS:547:NZ:4951, V-A:GLU:543:C:4902, V-A:GLU:543:CA:4904, V-B:ALA:541:CA:9862, V-A:PRO:482:CB:4325, V-A:ASP:366:C:3207, H-B:TYR:539:OH:9850, V-A:ASP:366:CA:3209, V-A:ILE:369:CB:3235, H-B:TYR:484:OH:9319, V-A:ILE:369:CG1:3237, H-A:ASN:370:N:3243"]

$$$$
2b_Ghoteimi_2023
     RDKit          3D

 42 47  0  0  0  0  0  0  0  0999 V2000
  127.3070  129.7710   65.8450 N   0  0  0  0  0  0  0  0  0  0  0  0
  127.7710  128.7960   65.4300 C   0  0  0  0  0  0  0  0  0  0  0  0
  128.3590  127.5580   64.9100 C   0  0  0  0  0  0  0  0  0  0  0  0
  128.9750  126.6300   65.7870 C   0  0  0  0  0  0  0  0  0  0  0  0
  129.0740  126.8230   67.2640 C   0  0  0  0  0  0  0  0  0  0  0  0
  128.4270  125.9430   68.1340 C   0  0  0  0  0  0  0  0  0  0  0  0
  128.5150  126.1190   69.5120 C   0  0  0  0  0  0  0  0  0  0  0  0
  129.2380  127.1910   70.0580 C   0  0  0  0  0  0  0  0  0  0  0  0
  129.3520  127.3810   71.4360 N   0  0  0  0  0  0  0  0  0  0  0  0
  129.2620  128.7490   71.9830 C   0  0  0  0  0  0  0  0  0  0  0  0
  129.7740  128.8620   73.4350 C   0  0  0  0  0  0  0  0  0  0  0  0
  129.0950  127.9330   74.2670 O   0  0  0  0  0  0  0  0  0  0  0  0
  129.2940  126.5970   73.8330 C   0  0  0  0  0  0  0  0  0  0  0  0
  128.7600  126.4270   72.3950 C   0  0  0  0  0  0  0  0  0  0  0  0
  129.8810  128.0710   69.1760 C   0  0  0  0  0  0  0  0  0  0  0  0
  129.7970  127.8930   67.7980 C   0  0  0  0  0  0  0  0  0  0  0  0
  129.5190  125.4590   65.2440 C   0  0  0  0  0  0  0  0  0  0  0  0
  129.4240  125.2040   63.8730 C   0  0  0  0  0  0  0  0  0  0  0  0
  129.9610  123.9560   63.2480 C   0  0  0  0  0  0  0  0  0  0  0  0
  129.1990  123.2370   62.3210 C   0  0  0  0  0  0  0  0  0  0  0  0
  129.6990  122.0830   61.7230 C   0  0  0  0  0  0  0  0  0  0  0  0
  130.9770  121.5970   62.0410 C   0  0  0  0  0  0  0  0  0  0  0  0
  131.5050  120.4560   61.4260 N   0  0  0  0  0  0  0  0  0  0  0  0
  132.9690  120.2820   61.3310 C   0  0  0  0  0  0  0  0  0  0  0  0
  133.3990  119.2080   60.3080 C   0  0  0  0  0  0  0  0  0  0  0  0
  132.7580  117.9760   60.6000 O   0  0  0  0  0  0  0  0  0  0  0  0
  131.3460  118.0950   60.5320 C   0  0  0  0  0  0  0  0  0  0  0  0
  130.8540  119.1380   61.5580 C   0  0  0  0  0  0  0  0  0  0  0  0
  131.7400  122.3240   62.9650 C   0  0  0  0  0  0  0  0  0  0  0  0
  131.2400  123.4800   63.5600 C   0  0  0  0  0  0  0  0  0  0  0  0
  128.8320  126.0940   63.0350 N   0  0  0  0  0  0  0  0  0  0  0  0
  128.3290  127.2480   63.5320 C   0  0  0  0  0  0  0  0  0  0  0  0
  127.5970  128.2970   62.2940 S   0  0  0  0  0  0  0  0  0  0  0  0
  126.2490  127.3620   61.5100 C   0  0  0  0  0  0  0  0  0  0  0  0
  126.6800  126.7350   60.1830 C   0  0  0  0  0  0  0  0  0  0  0  0
  127.5100  127.3160   59.4820 O   0  0  0  0  0  0  0  0  0  0  0  0
  126.0900  125.5590   59.8770 N   0  0  0  0  0  0  0  0  0  0  0  0
  126.3040  124.7780   58.7500 C   0  0  0  0  0  0  0  0  0  0  0  0
  127.2120  123.7200   58.7190 C   0  0  0  0  0  0  0  0  0  0  0  0
  127.1270  123.2130   57.4440 C   0  0  0  0  0  0  0  0  0  0  0  0
  126.2160  123.9270   56.7430 O   0  0  0  0  0  0  0  0  0  0  0  0
  125.6990  124.9170   57.5820 N   0  0  0  0  0  0  0  0  0  0  0  0
  1  2  3  0
  2  3  1  0
  3  4  2  0
  4  5  1  0
  5  6  2  0
  6  7  1  0
  7  8  2  0
  8  9  1  0
  9 10  1  0
 10 11  1  0
 11 12  1  0
 12 13  1  0
 13 14  1  0
  8 15  1  0
 15 16  2  0
  4 17  1  0
 17 18  2  0
 18 19  1  0
 19 20  2  0
 20 21  1  0
 21 22  2  0
 22 23  1  0
 23 24  1  0
 24 25  1  0
 25 26  1  0
 26 27  1  0
 27 28  1  0
 22 29  1  0
 29 30  2  0
 18 31  1  0
 31 32  2  0
 32 33  1  0
 33 34  1  0
 34 35  1  0
 35 36  2  0
 35 37  1  0
 37 38  1  0
 38 39  1  0
 39 40  2  0
 40 41  1  0
 41 42  1  0
 32  3  1  0
 42 38  2  0
 16  5  1  0
 30 19  1  0
 14  9  1  0
 28 23  1  0
M  END
>  <Binding energies>  (10) 
[-9.6]

>  <Ligand effiencies>  (10) 
[-0.22325581395348837]

>  <Interactions>  (10) 
["V-A:ILE:369:CG2:3236, V-B:TYR:539:CD2:9846, V-B:ASP:366:CG:8184, V-B:ALA:541:CB:9864, V-B:GLU:543:CG:9879, V-B:GLU:543:CD:9880, V-A:LEU:475:CD1:4257, V-A:GLU:543:CB:4906, V-A:GLU:543:CD:4908, V-B:MET:535:CE:9807, V-B:GLU:543:CB:9878, V-A:HIS:456:CE1:4069, H-B:TYR:531:OH:9767, V-B:HIS:456:CE1:9041, V-A:PRO:482:CG:4326, H-A:HIS:383:NE2:3393, H-A:SER:385:OG:3409, V-A:GLU:543:CG:4907, V-B:HIS:456:CD2:9039, V-B:GLU:543:C:9874, V-A:LYS:547:CE:4950, H-A:LYS:547:NZ:4951, V-B:GLU:543:CA:9876, H-B:ASP:366:OD1:8185, V-A:GLU:543:C:4902, H-B:TYR:484:OH:9319"]

$$$$
2c_Ghoteimi_2023
     RDKit          3D

 42 47  0  0  0  0  0  0  0  0999 V2000
  128.8970  126.2750   60.0720 N   0  0  0  0  0  0  0  0  0  0  0  0
  128.9310  126.3330   61.2270 C   0  0  0  0  0  0  0  0  0  0  0  0
  128.9770  126.4010   62.6910 C   0  0  0  0  0  0  0  0  0  0  0  0
  129.5320  125.3380   63.4460 C   0  0  0  0  0  0  0  0  0  0  0  0
  130.0960  124.0940   62.8400 C   0  0  0  0  0  0  0  0  0  0  0  0
  131.4740  123.8690   62.8530 C   0  0  0  0  0  0  0  0  0  0  0  0
  132.0070  122.7100   62.2960 C   0  0  0  0  0  0  0  0  0  0  0  0
  131.1780  121.7500   61.6960 C   0  0  0  0  0  0  0  0  0  0  0  0
  131.6900  120.5710   61.1480 N   0  0  0  0  0  0  0  0  0  0  0  0
  133.1130  120.2360   61.3550 C   0  0  0  0  0  0  0  0  0  0  0  0
  133.6270  119.1430   60.3950 C   0  0  0  0  0  0  0  0  0  0  0  0
  132.8150  117.9830   60.4970 O   0  0  0  0  0  0  0  0  0  0  0  0
  131.4630  118.2590   60.1620 C   0  0  0  0  0  0  0  0  0  0  0  0
  130.8920  119.3300   61.1150 C   0  0  0  0  0  0  0  0  0  0  0  0
  129.7960  121.9860   61.6840 C   0  0  0  0  0  0  0  0  0  0  0  0
  129.2630  123.1440   62.2440 C   0  0  0  0  0  0  0  0  0  0  0  0
  129.5560  125.4530   64.8410 C   0  0  0  0  0  0  0  0  0  0  0  0
  129.0670  126.6040   65.4660 C   0  0  0  0  0  0  0  0  0  0  0  0
  129.0870  126.7820   66.9500 C   0  0  0  0  0  0  0  0  0  0  0  0
  129.0870  128.0610   67.5160 C   0  0  0  0  0  0  0  0  0  0  0  0
  129.0990  128.2330   68.8980 C   0  0  0  0  0  0  0  0  0  0  0  0
  129.1240  127.1310   69.7670 C   0  0  0  0  0  0  0  0  0  0  0  0
  129.1110  127.2860   71.1570 N   0  0  0  0  0  0  0  0  0  0  0  0
  128.8410  126.1220   72.0250 C   0  0  0  0  0  0  0  0  0  0  0  0
  128.4780  126.5020   73.4760 C   0  0  0  0  0  0  0  0  0  0  0  0
  129.4940  127.3200   74.0320 O   0  0  0  0  0  0  0  0  0  0  0  0
  129.6520  128.5230   73.2970 C   0  0  0  0  0  0  0  0  0  0  0  0
  130.0440  128.2060   71.8390 C   0  0  0  0  0  0  0  0  0  0  0  0
  129.1100  125.8510   69.1950 C   0  0  0  0  0  0  0  0  0  0  0  0
  129.0960  125.6790   67.8130 C   0  0  0  0  0  0  0  0  0  0  0  0
  128.5390  127.6220   64.7410 N   0  0  0  0  0  0  0  0  0  0  0  0
  128.4750  127.5210   63.3910 C   0  0  0  0  0  0  0  0  0  0  0  0
  127.7440  128.9390   62.6050 S   0  0  0  0  0  0  0  0  0  0  0  0
  128.6810  130.4030   63.1390 C   0  0  0  0  0  0  0  0  0  0  0  0
  129.5810  130.9450   62.0280 C   0  0  0  0  0  0  0  0  0  0  0  0
  129.3520  132.0590   61.5540 O   0  0  0  0  0  0  0  0  0  0  0  0
  130.5850  130.1290   61.6410 N   0  0  0  0  0  0  0  0  0  0  0  0
  131.5420  130.3920   60.6720 C   0  0  0  0  0  0  0  0  0  0  0  0
  131.4380  130.2340   59.3700 N   0  0  0  0  0  0  0  0  0  0  0  0
  132.5440  130.5910   58.7490 C   0  0  0  0  0  0  0  0  0  0  0  0
  133.5810  131.0520   59.5550 C   0  0  0  0  0  0  0  0  0  0  0  0
  133.0680  131.0120   61.2150 S   0  0  0  0  0  0  0  0  0  0  0  0
  1  2  3  0
  2  3  1  0
  3  4  2  0
  4  5  1  0
  5  6  2  0
  6  7  1  0
  7  8  2  0
  8  9  1  0
  9 10  1  0
 10 11  1  0
 11 12  1  0
 12 13  1  0
 13 14  1  0
  8 15  1  0
 15 16  2  0
  4 17  1  0
 17 18  2  0
 18 19  1  0
 19 20  2  0
 20 21  1  0
 21 22  2  0
 22 23  1  0
 23 24  1  0
 24 25  1  0
 25 26  1  0
 26 27  1  0
 27 28  1  0
 22 29  1  0
 29 30  2  0
 18 31  1  0
 31 32  2  0
 32 33  1  0
 33 34  1  0
 34 35  1  0
 35 36  2  0
 35 37  1  0
 37 38  1  0
 38 39  2  0
 39 40  1  0
 40 41  2  0
 41 42  1  0
 32  3  1  0
 42 38  1  0
 16  5  1  0
 30 19  1  0
 14  9  1  0
 28 23  1  0
M  END
>  <Binding energies>  (11) 
[-9.55]

>  <Ligand effiencies>  (11) 
[-0.22209302325581398]

>  <Interactions>  (11) 
["V-A:ILE:369:CG2:3236, V-A:ASP:366:CG:3212, V-B:TYR:539:CD2:9846, V-A:SER:385:CA:3406, V-B:ALA:541:CB:9864, V-B:GLU:543:CG:9879, V-B:GLU:543:CD:9880, V-A:LEU:475:CD1:4257, V-A:GLU:543:CB:4906, V-A:GLU:543:CD:4908, V-A:TYR:484:CE2:4345, H-A:GLU:543:OE2:4910, H-A:GLU:543:OE1:4909, V-B:GLU:543:CB:9878, V-A:HIS:456:CE1:4069, V-B:HIS:456:CE1:9041, H-A:HIS:383:NE2:3393, H-A:SER:385:OG:3409, V-A:LEU:363:CA:3184, V-A:ASN:362:C:3171, V-A:PRO:540:CA:4883, V-A:PRO:540:CB:4885, H-A:ASP:366:OD2:3214, V-A:LEU:363:CB:3186, V-A:GLU:543:CG:4907, V-B:HIS:456:CD2:9039, H-A:ALA:541:N:4891, V-A:ALA:541:CB:4892, V-B:GLU:543:C:9874, V-A:LYS:547:CE:4950, V-A:ASN:362:CB:3175"]

$$$$
2j_Grossjean_2025
     RDKit          3D

 23 24  0  0  0  0  0  0  0  0999 V2000
  129.3600  122.4490   62.6130 C   0  0  0  0  0  0  0  0  0  0  0  0
  130.3800  121.5050   62.0040 C   0  0  0  0  0  0  0  0  0  0  0  0
  130.0350  120.2160   61.6070 C   0  0  0  0  0  0  0  0  0  0  0  0
  131.0130  119.3810   61.0460 C   0  0  0  0  0  0  0  0  0  0  0  0
  130.6140  117.9580   60.6110 C   0  0  0  0  0  0  0  0  0  0  0  0
  131.3540  117.0590   61.2610 F   0  0  0  0  0  0  0  0  0  0  0  0
  129.3280  117.7400   60.8870 F   0  0  0  0  0  0  0  0  0  0  0  0
  130.7850  117.7510   59.3040 F   0  0  0  0  0  0  0  0  0  0  0  0
  132.3310  119.8850   60.9030 C   0  0  0  0  0  0  0  0  0  0  0  0
  133.3930  119.0570   60.3230 C   0  0  0  0  0  0  0  0  0  0  0  0
  134.2310  118.4030   59.8650 N   0  0  0  0  0  0  0  0  0  0  0  0
  132.5930  121.2070   61.3330 C   0  0  0  0  0  0  0  0  0  0  0  0
  134.2150  121.9450   61.2000 S   0  0  0  0  0  0  0  0  0  0  0  0
  134.0160  123.7580   61.1200 C   0  0  0  0  0  0  0  0  0  0  0  0
  134.1060  124.4780   62.4730 C   0  0  0  0  0  0  0  0  0  0  0  0
  135.1210  125.1040   62.7870 O   0  0  0  0  0  0  0  0  0  0  0  0
  133.0120  124.3500   63.2570 N   0  0  0  0  0  0  0  0  0  0  0  0
  132.8280  124.8960   64.5200 C   0  0  0  0  0  0  0  0  0  0  0  0
  133.7370  125.1140   65.4460 N   0  0  0  0  0  0  0  0  0  0  0  0
  133.2080  125.6490   66.5290 C   0  0  0  0  0  0  0  0  0  0  0  0
  131.8360  125.8770   66.4960 C   0  0  0  0  0  0  0  0  0  0  0  0
  131.2140  125.3580   64.9570 S   0  0  0  0  0  0  0  0  0  0  0  0
  131.6320  122.0000   61.8720 N   0  0  0  0  0  0  0  0  0  0  0  0
  1  2  1  0
  2  3  2  0
  3  4  1  0
  4  5  1  0
  5  6  1  0
  5  7  1  0
  5  8  1  0
  4  9  2  0
  9 10  1  0
 10 11  3  0
  9 12  1  0
 12 13  1  0
 13 14  1  0
 14 15  1  0
 15 16  2  0
 15 17  1  0
 17 18  1  0
 18 19  2  0
 19 20  1  0
 20 21  2  0
 21 22  1  0
 12 23  2  0
 23  2  1  0
 22 18  1  0
M  END
>  <Binding energies>  (12) 
[-6.36]

>  <Ligand effiencies>  (12) 
[-0.265]

>  <Interactions>  (12) 
["V-A:ILE:369:CG2:3236, V-A:ASP:366:CG:3212, V-B:TYR:539:CD2:9846, V-A:SER:385:CA:3406, V-B:TYR:539:C:9839, V-B:ALA:541:CB:9864, V-A:ARG:545:CZ:4926, V-A:LEU:475:CD1:4257, V-A:ARG:545:CG:4922, H-A:ARG:545:NE:4924, H-A:GLY:454:N:4049, V-A:HIS:456:CE1:4069, V-B:TYR:539:CA:9841, H-A:ARG:545:NH1:4927, H-A:ARG:545:NH2:4928, V-A:TYR:484:CZ:4346, V-A:PRO:482:CG:4326, H-A:HIS:383:NE2:3393, H-A:SER:385:OG:3409, V-A:ARG:545:CD:4923, H-A:TYR:484:OH:4347, V-A:GLY:453:CA:4043, V-A:GLY:453:C:4041, V-A:ILE:369:CD1:3238, V-B:TYR:539:CG:9844, V-B:PRO:540:C:9853, V-B:TYR:539:CB:9843, V-B:ALA:541:CA:9862, V-A:PRO:482:CB:4325, V-A:HIS:383:CE1:3392, V-A:PRO:482:CD:4327"]

$$$$
3ab_Grossjean_2025
     RDKit          3D

 33 35  0  0  0  0  0  0  0  0999 V2000
  128.3110  129.4080   67.3850 C   0  0  0  0  0  0  0  0  0  0  0  0
  128.7920  129.4510   68.7210 O   0  0  0  0  0  0  0  0  0  0  0  0
  129.4090  128.3770   69.2770 C   0  0  0  0  0  0  0  0  0  0  0  0
  129.4140  128.1470   70.4900 O   0  0  0  0  0  0  0  0  0  0  0  0
  130.0830  127.4930   68.2680 C   0  0  0  0  0  0  0  0  0  0  0  0
  131.4380  127.6430   67.9360 C   0  0  0  0  0  0  0  0  0  0  0  0
  132.0370  126.8080   66.9970 C   0  0  0  0  0  0  0  0  0  0  0  0
  131.2860  125.8020   66.3700 C   0  0  0  0  0  0  0  0  0  0  0  0
  131.7890  124.8990   65.4130 N   0  0  0  0  0  0  0  0  0  0  0  0
  133.0300  124.7860   64.8970 C   0  0  0  0  0  0  0  0  0  0  0  0
  133.9910  125.5020   65.1800 O   0  0  0  0  0  0  0  0  0  0  0  0
  133.2160  123.6610   63.8760 C   0  0  0  0  0  0  0  0  0  0  0  0
  132.7620  124.1820   62.1940 S   0  0  0  0  0  0  0  0  0  0  0  0
  131.9820  122.7940   61.3970 C   0  0  0  0  0  0  0  0  0  0  0  0
  130.7460  123.0690   60.9180 N   0  0  0  0  0  0  0  0  0  0  0  0
  130.0370  122.1020   60.2800 C   0  0  0  0  0  0  0  0  0  0  0  0
  128.6780  122.4880   59.7760 C   0  0  0  0  0  0  0  0  0  0  0  0
  127.6720  122.8950   60.6660 C   0  0  0  0  0  0  0  0  0  0  0  0
  126.4080  123.2560   60.2040 C   0  0  0  0  0  0  0  0  0  0  0  0
  126.1340  123.2130   58.8410 C   0  0  0  0  0  0  0  0  0  0  0  0
  127.1120  122.8100   57.9390 C   0  0  0  0  0  0  0  0  0  0  0  0
  128.3730  122.4500   58.4050 C   0  0  0  0  0  0  0  0  0  0  0  0
  130.5600  120.8120   60.1300 C   0  0  0  0  0  0  0  0  0  0  0  0
  131.8300  120.4970   60.6350 C   0  0  0  0  0  0  0  0  0  0  0  0
  132.3660  119.0640   60.4540 C   0  0  0  0  0  0  0  0  0  0  0  0
  133.5140  119.0240   59.7720 F   0  0  0  0  0  0  0  0  0  0  0  0
  132.5890  118.5020   61.6430 F   0  0  0  0  0  0  0  0  0  0  0  0
  131.4770  118.3270   59.7870 F   0  0  0  0  0  0  0  0  0  0  0  0
  132.5660  121.5110   61.2970 C   0  0  0  0  0  0  0  0  0  0  0  0
  133.8730  121.2200   61.8930 C   0  0  0  0  0  0  0  0  0  0  0  0
  134.9050  120.9870   62.3630 N   0  0  0  0  0  0  0  0  0  0  0  0
  129.9400  125.6460   66.7020 C   0  0  0  0  0  0  0  0  0  0  0  0
  129.3430  126.4830   67.6400 C   0  0  0  0  0  0  0  0  0  0  0  0
  1  2  1  0
  2  3  1  0
  3  4  2  0
  3  5  1  0
  5  6  2  0
  6  7  1  0
  7  8  2  0
  8  9  1  0
  9 10  1  0
 10 11  2  0
 10 12  1  0
 12 13  1  0
 13 14  1  0
 14 15  2  0
 15 16  1  0
 16 17  1  0
 17 18  2  0
 18 19  1  0
 19 20  2  0
 20 21  1  0
 21 22  2  0
 16 23  2  0
 23 24  1  0
 24 25  1  0
 25 26  1  0
 25 27  1  0
 25 28  1  0
 24 29  2  0
 29 30  1  0
 30 31  3  0
  8 32  1  0
 32 33  2  0
 33  5  1  0
 29 14  1  0
 22 17  1  0
M  END
>  <Binding energies>  (13) 
[-7.77]

>  <Ligand effiencies>  (13) 
[-0.22852941176470587]

>  <Interactions>  (13) 
["V-B:PRO:540:CB:9857, V-A:ILE:369:CG2:3236, V-B:TYR:539:CD2:9846, V-A:SER:385:CB:3408, V-B:PRO:540:CA:9855, V-B:TYR:539:C:9839, V-B:TYR:539:CE2:9848, V-B:PRO:540:N:9856, V-A:ARG:545:CZ:4926, V-A:GLY:454:CA:4048, V-A:LEU:475:CD1:4257, V-A:GLU:543:CB:4906, V-A:ARG:545:CG:4922, V-A:GLU:543:CD:4908, H-A:ARG:545:NE:4924, H-A:GLY:454:N:4049, V-B:MET:535:CE:9807, V-B:GLU:543:CB:9878, V-A:HIS:456:CE1:4069, H-A:ARG:545:NH1:4927, H-A:ARG:545:NH2:4928, V-B:HIS:456:CE1:9041, V-A:TYR:484:CZ:4346, H-A:TYR:484:OH:4347, V-A:ILE:369:CD1:3238, V-B:TYR:539:CG:9844, V-A:GLU:543:CG:4907, V-B:TYR:484:CE2:9317, V-A:GLU:543:C:4902, V-B:TYR:539:CB:9843, V-A:HIS:383:CD2:3391"]

$$$$
3ac_Grossjean_2025
     RDKit          3D

 31 33  0  0  0  0  0  0  0  0999 V2000
  128.6950  126.2620   68.5790 C   0  0  0  0  0  0  0  0  0  0  0  0
  130.0810  126.0310   68.3450 O   0  0  0  0  0  0  0  0  0  0  0  0
  130.4960  125.6390   67.0870 C   0  0  0  0  0  0  0  0  0  0  0  0
  131.6820  126.2040   66.6190 C   0  0  0  0  0  0  0  0  0  0  0  0
  132.1810  125.8660   65.3650 C   0  0  0  0  0  0  0  0  0  0  0  0
  131.4940  124.9610   64.5540 C   0  0  0  0  0  0  0  0  0  0  0  0
  132.0870  124.6660   63.3120 N   0  0  0  0  0  0  0  0  0  0  0  0
  133.3880  124.7260   62.9540 C   0  0  0  0  0  0  0  0  0  0  0  0
  134.3190  125.0220   63.7040 O   0  0  0  0  0  0  0  0  0  0  0  0
  133.6860  124.3880   61.4930 C   0  0  0  0  0  0  0  0  0  0  0  0
  133.9860  122.6110   61.2460 S   0  0  0  0  0  0  0  0  0  0  0  0
  132.4150  121.7720   61.1610 C   0  0  0  0  0  0  0  0  0  0  0  0
  131.3570  122.6060   61.3060 N   0  0  0  0  0  0  0  0  0  0  0  0
  130.0930  122.1120   61.2570 C   0  0  0  0  0  0  0  0  0  0  0  0
  128.9790  123.1000   61.4330 C   0  0  0  0  0  0  0  0  0  0  0  0
  127.6570  122.7600   61.1020 C   0  0  0  0  0  0  0  0  0  0  0  0
  126.6180  123.6710   61.2680 C   0  0  0  0  0  0  0  0  0  0  0  0
  126.8880  124.9410   61.7670 C   0  0  0  0  0  0  0  0  0  0  0  0
  128.1880  125.3060   62.0970 C   0  0  0  0  0  0  0  0  0  0  0  0
  129.2250  124.3920   61.9300 C   0  0  0  0  0  0  0  0  0  0  0  0
  129.8660  120.7440   61.0770 C   0  0  0  0  0  0  0  0  0  0  0  0
  130.9440  119.8560   60.9470 C   0  0  0  0  0  0  0  0  0  0  0  0
  130.6480  118.3550   60.7560 C   0  0  0  0  0  0  0  0  0  0  0  0
  129.3580  118.0550   60.9260 F   0  0  0  0  0  0  0  0  0  0  0  0
  130.9850  117.9710   59.5240 F   0  0  0  0  0  0  0  0  0  0  0  0
  131.3480  117.6400   61.6380 F   0  0  0  0  0  0  0  0  0  0  0  0
  132.2610  120.3750   61.0040 C   0  0  0  0  0  0  0  0  0  0  0  0
  133.4170  119.4780   60.9510 C   0  0  0  0  0  0  0  0  0  0  0  0
  134.3310  118.7690   60.9100 N   0  0  0  0  0  0  0  0  0  0  0  0
  130.3030  124.3820   65.0200 C   0  0  0  0  0  0  0  0  0  0  0  0
  129.8070  124.7230   66.2760 C   0  0  0  0  0  0  0  0  0  0  0  0
  1  2  1  0
  2  3  1  0
  3  4  2  0
  4  5  1  0
  5  6  2  0
  6  7  1  0
  7  8  1  0
  8  9  2  0
  8 10  1  0
 10 11  1  0
 11 12  1  0
 12 13  2  0
 13 14  1  0
 14 15  1  0
 15 16  2  0
 16 17  1  0
 17 18  2  0
 18 19  1  0
 19 20  2  0
 14 21  2  0
 21 22  1  0
 22 23  1  0
 23 24  1  0
 23 25  1  0
 23 26  1  0
 22 27  2  0
 27 28  1  0
 28 29  3  0
  6 30  1  0
 30 31  2  0
 31  3  1  0
 27 12  1  0
 20 15  1  0
M  END
>  <Binding energies>  (14) 
[-7.26]

>  <Ligand effiencies>  (14) 
[-0.226875]

>  <Interactions>  (14) 
["V-A:ILE:369:CG2:3236, V-A:ASP:366:CG:3212, V-B:TYR:539:CD2:9846, V-A:SER:385:CA:3406, V-B:PRO:540:CA:9855, V-B:TYR:539:C:9839, V-B:PRO:540:N:9856, V-B:ALA:541:CB:9864, V-A:ARG:545:CZ:4926, V-B:GLU:543:CG:9879, V-B:GLU:543:CD:9880, V-A:LEU:475:CD1:4257, V-A:TYR:484:CE2:4345, H-A:GLY:454:N:4049, V-B:GLU:543:CB:9878, V-A:HIS:456:CE1:4069, H-A:ARG:545:NH1:4927, H-A:ARG:545:NH2:4928, V-A:TYR:484:CZ:4346, V-A:PRO:482:CG:4326, H-A:HIS:383:NE2:3393, H-A:SER:385:OG:3409, V-B:TYR:539:CG:9844, V-B:PRO:540:C:9853, V-B:TYR:539:CB:9843, V-B:ALA:541:CA:9862, V-A:PRO:482:CB:4325, V-A:PRO:482:CD:4327"]

$$$$
3af_Grossjean_2025
     RDKit          3D

 29 31  0  0  0  0  0  0  0  0999 V2000
  134.3510  125.5030   66.0610 N   0  0  0  0  0  0  0  0  0  0  0  0
  133.4510  125.2370   65.3820 C   0  0  0  0  0  0  0  0  0  0  0  0
  132.3120  124.9010   64.5240 C   0  0  0  0  0  0  0  0  0  0  0  0
  130.9850  125.0910   64.9790 C   0  0  0  0  0  0  0  0  0  0  0  0
  130.6560  125.6980   66.3570 C   0  0  0  0  0  0  0  0  0  0  0  0
  131.6040  126.5280   66.7980 F   0  0  0  0  0  0  0  0  0  0  0  0
  129.5170  126.3890   66.2900 F   0  0  0  0  0  0  0  0  0  0  0  0
  130.5220  124.7300   67.2640 F   0  0  0  0  0  0  0  0  0  0  0  0
  129.9270  124.7030   64.1430 C   0  0  0  0  0  0  0  0  0  0  0  0
  130.1870  124.1400   62.8890 C   0  0  0  0  0  0  0  0  0  0  0  0
  129.0960  123.6910   61.9640 C   0  0  0  0  0  0  0  0  0  0  0  0
  127.7600  123.6510   62.3950 C   0  0  0  0  0  0  0  0  0  0  0  0
  126.7420  123.2370   61.5400 C   0  0  0  0  0  0  0  0  0  0  0  0
  127.0470  122.8570   60.2380 C   0  0  0  0  0  0  0  0  0  0  0  0
  128.3620  122.8900   59.7840 C   0  0  0  0  0  0  0  0  0  0  0  0
  129.3770  123.3050   60.6420 C   0  0  0  0  0  0  0  0  0  0  0  0
  131.4610  123.9560   62.4590 N   0  0  0  0  0  0  0  0  0  0  0  0
  132.4990  124.3430   63.2390 C   0  0  0  0  0  0  0  0  0  0  0  0
  134.0900  124.0360   62.5000 S   0  0  0  0  0  0  0  0  0  0  0  0
  133.8710  123.9820   60.6950 C   0  0  0  0  0  0  0  0  0  0  0  0
  133.2390  122.6680   60.2380 C   0  0  0  0  0  0  0  0  0  0  0  0
  133.2200  122.3990   59.0370 O   0  0  0  0  0  0  0  0  0  0  0  0
  132.7330  121.8960   61.2230 N   0  0  0  0  0  0  0  0  0  0  0  0
  132.0850  120.6480   61.1430 C   0  0  0  0  0  0  0  0  0  0  0  0
  130.7440  120.3940   61.4860 C   0  0  0  0  0  0  0  0  0  0  0  0
  130.2310  119.1020   61.3590 C   0  0  0  0  0  0  0  0  0  0  0  0
  131.0720  118.0920   60.8920 C   0  0  0  0  0  0  0  0  0  0  0  0
  132.3670  118.3090   60.5540 N   0  0  0  0  0  0  0  0  0  0  0  0
  132.8510  119.5710   60.6830 C   0  0  0  0  0  0  0  0  0  0  0  0
  1  2  3  0
  2  3  1  0
  3  4  2  0
  4  5  1  0
  5  6  1  0
  5  7  1  0
  5  8  1  0
  4  9  1  0
  9 10  2  0
 10 11  1  0
 11 12  2  0
 12 13  1  0
 13 14  2  0
 14 15  1  0
 15 16  2  0
 10 17  1  0
 17 18  2  0
 18 19  1  0
 19 20  1  0
 20 21  1  0
 21 22  2  0
 21 23  1  0
 23 24  1  0
 24 25  2  0
 25 26  1  0
 26 27  2  0
 27 28  1  0
 28 29  2  0
 18  3  1  0
 29 24  1  0
 16 11  1  0
M  END
>  <Binding energies>  (15) 
[-7.05]

>  <Ligand effiencies>  (15) 
[-0.235]

>  <Interactions>  (15) 
["V-B:PRO:540:CB:9857, V-A:ILE:369:CG2:3236, V-A:ASP:366:CG:3212, V-B:PRO:540:CA:9855, V-B:ALA:541:CB:9864, V-A:ARG:545:CZ:4926, V-B:GLU:543:CG:9879, V-B:GLU:543:CD:9880, V-A:LEU:475:CD1:4257, V-A:GLU:543:CD:4908, V-A:TYR:484:CE2:4345, H-A:ARG:545:NE:4924, H-A:GLY:454:N:4049, V-A:HIS:456:CE1:4069, V-A:TYR:484:CZ:4346, V-A:PRO:482:CG:4326, H-A:HIS:383:NE2:3393, H-A:SER:385:OG:3409, V-A:ARG:545:CD:4923, H-A:TYR:484:OH:4347, V-A:ASP:366:CB:3211, V-A:ILE:369:CD1:3238, V-B:PRO:540:C:9853, V-A:ASP:366:CA:3209"]

$$$$
3ag_Grossjean_2025
     RDKit          3D

 30 32  0  0  0  0  0  0  0  0999 V2000
  132.9300  123.5600   58.3970 N   0  0  0  0  0  0  0  0  0  0  0  0
  132.6750  123.8780   59.4810 C   0  0  0  0  0  0  0  0  0  0  0  0
  132.3570  124.2800   60.8540 C   0  0  0  0  0  0  0  0  0  0  0  0
  133.3550  124.2740   61.8590 C   0  0  0  0  0  0  0  0  0  0  0  0
  134.8240  123.9110   61.5710 C   0  0  0  0  0  0  0  0  0  0  0  0
  135.6870  124.7710   62.1170 F   0  0  0  0  0  0  0  0  0  0  0  0
  135.0970  122.7020   62.0620 F   0  0  0  0  0  0  0  0  0  0  0  0
  135.0470  123.9040   60.2560 F   0  0  0  0  0  0  0  0  0  0  0  0
  132.9880  124.6150   63.1700 C   0  0  0  0  0  0  0  0  0  0  0  0
  131.6610  124.9400   63.4710 C   0  0  0  0  0  0  0  0  0  0  0  0
  131.2140  125.3100   64.8530 C   0  0  0  0  0  0  0  0  0  0  0  0
  129.8890  125.0860   65.2620 C   0  0  0  0  0  0  0  0  0  0  0  0
  129.4670  125.4260   66.5440 C   0  0  0  0  0  0  0  0  0  0  0  0
  130.3670  125.9980   67.4380 C   0  0  0  0  0  0  0  0  0  0  0  0
  131.6840  126.2330   67.0570 C   0  0  0  0  0  0  0  0  0  0  0  0
  132.1020  125.8920   65.7740 C   0  0  0  0  0  0  0  0  0  0  0  0
  130.7100  124.9570   62.5020 N   0  0  0  0  0  0  0  0  0  0  0  0
  131.0450  124.6500   61.2260 C   0  0  0  0  0  0  0  0  0  0  0  0
  129.6750  124.7260   60.0930 S   0  0  0  0  0  0  0  0  0  0  0  0
  128.2100  124.1070   60.9730 C   0  0  0  0  0  0  0  0  0  0  0  0
  128.4550  122.7400   61.6140 C   0  0  0  0  0  0  0  0  0  0  0  0
  127.9480  122.4740   62.7050 O   0  0  0  0  0  0  0  0  0  0  0  0
  129.2290  121.8860   60.9220 N   0  0  0  0  0  0  0  0  0  0  0  0
  129.5620  120.5220   61.3300 C   0  0  0  0  0  0  0  0  0  0  0  0
  131.0320  120.1600   61.1500 C   0  0  0  0  0  0  0  0  0  0  0  0
  131.3840  119.0390   60.3950 C   0  0  0  0  0  0  0  0  0  0  0  0
  132.7270  118.7220   60.2040 C   0  0  0  0  0  0  0  0  0  0  0  0
  133.7130  119.5340   60.7610 C   0  0  0  0  0  0  0  0  0  0  0  0
  133.3690  120.6610   61.5030 C   0  0  0  0  0  0  0  0  0  0  0  0
  132.0270  120.9790   61.6940 C   0  0  0  0  0  0  0  0  0  0  0  0
  1  2  3  0
  2  3  1  0
  3  4  2  0
  4  5  1  0
  5  6  1  0
  5  7  1  0
  5  8  1  0
  4  9  1  0
  9 10  2  0
 10 11  1  0
 11 12  2  0
 12 13  1  0
 13 14  2  0
 14 15  1  0
 15 16  2  0
 10 17  1  0
 17 18  2  0
 18 19  1  0
 19 20  1  0
 20 21  1  0
 21 22  2  0
 21 23  1  0
 23 24  1  0
 24 25  1  0
 25 26  2  0
 26 27  1  0
 27 28  2  0
 28 29  1  0
 29 30  2  0
 18  3  1  0
 30 25  1  0
 16 11  1  0
M  END
>  <Binding energies>  (16) 
[-7.02]

>  <Ligand effiencies>  (16) 
[-0.2264516129032258]

>  <Interactions>  (16) 
["V-A:ILE:369:CG2:3236, H-B:ALA:541:N:9863, V-A:ASP:366:CG:3212, V-B:TYR:539:CD2:9846, V-A:SER:385:C:3404, V-A:SER:385:CA:3406, V-B:PRO:540:CA:9855, V-B:TYR:539:C:9839, V-B:ALA:541:CB:9864, V-A:ARG:545:CZ:4926, V-A:GLY:454:CA:4048, V-B:GLU:543:CG:9879, V-B:GLU:543:CD:9880, V-A:LEU:475:CD1:4257, V-A:TYR:484:CE2:4345, V-B:GLU:543:CB:9878, V-A:HIS:456:CE1:4069, V-A:ASP:366:CB:3211, V-A:GLY:453:CA:4043, V-A:GLY:453:C:4041, V-A:ILE:369:CD1:3238, V-B:PRO:540:C:9853, H-B:TYR:539:O:9840, V-B:ALA:541:CA:9862, H-B:TYR:539:OH:9850, V-A:ASP:366:CA:3209, V-A:ILE:369:CB:3235, V-A:HIS:383:CD2:3391, V-A:ILE:369:CG1:3237"]

$$$$
3bc_Grossjean_2025
     RDKit          3D

 28 30  0  0  0  0  0  0  0  0999 V2000
  133.2350  125.4400   65.5450 C   0  0  0  0  0  0  0  0  0  0  0  0
  133.8710  124.7260   64.4910 O   0  0  0  0  0  0  0  0  0  0  0  0
  133.3370  124.7880   63.2180 C   0  0  0  0  0  0  0  0  0  0  0  0
  132.1260  125.4660   63.0840 C   0  0  0  0  0  0  0  0  0  0  0  0
  131.5100  125.5810   61.8400 C   0  0  0  0  0  0  0  0  0  0  0  0
  132.0980  125.0100   60.7100 C   0  0  0  0  0  0  0  0  0  0  0  0
  131.4100  125.1890   59.4960 N   0  0  0  0  0  0  0  0  0  0  0  0
  131.7940  124.8650   58.2430 C   0  0  0  0  0  0  0  0  0  0  0  0
  132.8510  124.2970   57.9580 O   0  0  0  0  0  0  0  0  0  0  0  0
  130.7800  125.2230   57.1470 C   0  0  0  0  0  0  0  0  0  0  0  0
  129.4580  123.9930   56.8830 S   0  0  0  0  0  0  0  0  0  0  0  0
  129.0830  123.2510   58.4560 C   0  0  0  0  0  0  0  0  0  0  0  0
  130.0490  122.4140   58.9080 N   0  0  0  0  0  0  0  0  0  0  0  0
  129.8920  121.7810   60.1000 C   0  0  0  0  0  0  0  0  0  0  0  0
  130.9960  120.8560   60.5180 C   0  0  0  0  0  0  0  0  0  0  0  0
  130.7160  119.5400   60.9150 C   0  0  0  0  0  0  0  0  0  0  0  0
  131.7360  118.6750   61.3040 C   0  0  0  0  0  0  0  0  0  0  0  0
  133.0540  119.1190   61.3030 C   0  0  0  0  0  0  0  0  0  0  0  0
  133.3590  120.4200   60.9170 C   0  0  0  0  0  0  0  0  0  0  0  0
  132.3350  121.2810   60.5290 C   0  0  0  0  0  0  0  0  0  0  0  0
  128.7430  121.9790   60.8730 C   0  0  0  0  0  0  0  0  0  0  0  0
  127.7470  122.8570   60.4320 C   0  0  0  0  0  0  0  0  0  0  0  0
  126.5180  123.0560   61.3170 C   0  0  0  0  0  0  0  0  0  0  0  0
  127.9120  123.5250   59.1990 C   0  0  0  0  0  0  0  0  0  0  0  0
  126.9060  124.4860   58.7410 C   0  0  0  0  0  0  0  0  0  0  0  0
  126.1100  125.2440   58.3810 N   0  0  0  0  0  0  0  0  0  0  0  0
  133.3230  124.3380   60.8330 C   0  0  0  0  0  0  0  0  0  0  0  0
  133.9350  124.2250   62.0800 C   0  0  0  0  0  0  0  0  0  0  0  0
  1  2  1  0
  2  3  1  0
  3  4  2  0
  4  5  1  0
  5  6  2  0
  6  7  1  0
  7  8  1  0
  8  9  2  0
  8 10  1  0
 10 11  1  0
 11 12  1  0
 12 13  2  0
 13 14  1  0
 14 15  1  0
 15 16  2  0
 16 17  1  0
 17 18  2  0
 18 19  1  0
 19 20  2  0
 14 21  2  0
 21 22  1  0
 22 23  1  0
 22 24  2  0
 24 25  1  0
 25 26  3  0
  6 27  1  0
 27 28  2  0
 28  3  1  0
 24 12  1  0
 20 15  1  0
M  END
>  <Binding energies>  (17) 
[-7.44]

>  <Ligand effiencies>  (17) 
[-0.25655172413793104]

>  <Interactions>  (17) 
["V-B:PRO:540:CB:9857, V-A:ILE:369:CG2:3236, V-A:ASP:366:CG:3212, V-B:TYR:539:CD2:9846, V-B:PRO:540:CA:9855, V-B:TYR:539:CE2:9848, V-B:TYR:539:CZ:9849, V-A:ARG:545:CZ:4926, V-A:LEU:475:CD1:4257, H-A:GLY:454:N:4049, H-B:TYR:531:OH:9767, H-A:ARG:545:NH2:4928, V-A:ARG:545:CD:4923, H-A:TYR:484:OH:4347, V-A:ASP:366:CB:3211, V-B:PRO:540:C:9853, H-B:TYR:539:OH:9850"]

$$$$
3bd_Grossjean_2025
     RDKit          3D

 26 28  0  0  0  0  0  0  0  0999 V2000
  130.3090  118.3770   61.0130 C   0  0  0  0  0  0  0  0  0  0  0  0
  130.6430  119.8610   61.1490 C   0  0  0  0  0  0  0  0  0  0  0  0
  129.5850  120.7690   61.2710 C   0  0  0  0  0  0  0  0  0  0  0  0
  129.8490  122.1380   61.3940 C   0  0  0  0  0  0  0  0  0  0  0  0
  128.7630  123.1630   61.5330 C   0  0  0  0  0  0  0  0  0  0  0  0
  127.4330  122.8470   61.2170 C   0  0  0  0  0  0  0  0  0  0  0  0
  126.4200  123.7950   61.3420 C   0  0  0  0  0  0  0  0  0  0  0  0
  126.7260  125.0770   61.7870 C   0  0  0  0  0  0  0  0  0  0  0  0
  128.0370  125.4170   62.1030 C   0  0  0  0  0  0  0  0  0  0  0  0
  129.0460  124.4670   61.9760 C   0  0  0  0  0  0  0  0  0  0  0  0
  131.1270  122.6010   61.4100 N   0  0  0  0  0  0  0  0  0  0  0  0
  132.1650  121.7350   61.2920 C   0  0  0  0  0  0  0  0  0  0  0  0
  133.7920  122.4700   61.3150 S   0  0  0  0  0  0  0  0  0  0  0  0
  133.5940  124.2700   61.4750 C   0  0  0  0  0  0  0  0  0  0  0  0
  133.4030  124.6980   62.9310 C   0  0  0  0  0  0  0  0  0  0  0  0
  134.3840  125.0580   63.5820 O   0  0  0  0  0  0  0  0  0  0  0  0
  132.1370  124.6310   63.3990 N   0  0  0  0  0  0  0  0  0  0  0  0
  131.6450  124.9790   64.6710 C   0  0  0  0  0  0  0  0  0  0  0  0
  130.4100  124.4280   65.0230 C   0  0  0  0  0  0  0  0  0  0  0  0
  129.8380  124.7210   66.2590 C   0  0  0  0  0  0  0  0  0  0  0  0
  130.4970  125.5750   67.1390 C   0  0  0  0  0  0  0  0  0  0  0  0
  131.7220  126.1410   66.7940 C   0  0  0  0  0  0  0  0  0  0  0  0
  132.2970  125.8490   65.5600 C   0  0  0  0  0  0  0  0  0  0  0  0
  131.9690  120.3430   61.1560 C   0  0  0  0  0  0  0  0  0  0  0  0
  133.1000  119.4180   61.0310 C   0  0  0  0  0  0  0  0  0  0  0  0
  133.9910  118.6860   60.9330 N   0  0  0  0  0  0  0  0  0  0  0  0
  1  2  1  0
  2  3  2  0
  3  4  1  0
  4  5  1  0
  5  6  2  0
  6  7  1  0
  7  8  2  0
  8  9  1  0
  9 10  2  0
  4 11  2  0
 11 12  1  0
 12 13  1  0
 13 14  1  0
 14 15  1  0
 15 16  2  0
 15 17  1  0
 17 18  1  0
 18 19  2  0
 19 20  1  0
 20 21  2  0
 21 22  1  0
 22 23  2  0
 12 24  2  0
 24 25  1  0
 25 26  3  0
 24  2  1  0
 10  5  1  0
 23 18  1  0
M  END
>  <Binding energies>  (18) 
[-7.47]

>  <Ligand effiencies>  (18) 
[-0.27666666666666667]

>  <Interactions>  (18) 
["V-A:ILE:369:CG2:3236, V-A:ASP:366:CG:3212, V-B:PRO:540:CA:9855, V-B:TYR:539:C:9839, V-B:ALA:541:CB:9864, V-A:ARG:545:CZ:4926, V-B:GLU:543:CG:9879, V-B:GLU:543:CD:9880, V-A:LEU:475:CD1:4257, V-A:TYR:484:CE2:4345, H-A:GLY:454:N:4049, V-B:GLU:543:CB:9878, V-A:HIS:456:CE1:4069, H-A:ARG:545:NH1:4927, H-A:ARG:545:NH2:4928, V-A:TYR:484:CZ:4346, V-A:PRO:482:CG:4326, H-A:HIS:383:NE2:3393, H-A:SER:385:OG:3409, V-B:PRO:540:C:9853, V-B:ALA:541:CA:9862, V-A:PRO:482:CB:4325"]

$$$$
3be_Grossjean_2025
     RDKit          3D

 27 29  0  0  0  0  0  0  0  0999 V2000
  134.7070  125.2530   66.9400 C   0  0  0  0  0  0  0  0  0  0  0  0
  133.6120  125.3860   65.9000 C   0  0  0  0  0  0  0  0  0  0  0  0
  132.3110  125.7560   66.2500 C   0  0  0  0  0  0  0  0  0  0  0  0
  131.3540  125.8560   65.2400 C   0  0  0  0  0  0  0  0  0  0  0  0
  131.7160  125.5860   63.9170 C   0  0  0  0  0  0  0  0  0  0  0  0
  133.0380  125.2240   63.6350 C   0  0  0  0  0  0  0  0  0  0  0  0
  133.3370  124.9560   62.2860 N   0  0  0  0  0  0  0  0  0  0  0  0
  133.7030  123.7860   61.7180 C   0  0  0  0  0  0  0  0  0  0  0  0
  133.8430  122.7250   62.3290 O   0  0  0  0  0  0  0  0  0  0  0  0
  133.9430  123.8560   60.2010 C   0  0  0  0  0  0  0  0  0  0  0  0
  133.2170  122.4870   59.2370 S   0  0  0  0  0  0  0  0  0  0  0  0
  131.8800  121.7920   60.1830 C   0  0  0  0  0  0  0  0  0  0  0  0
  130.8520  122.6530   60.3840 N   0  0  0  0  0  0  0  0  0  0  0  0
  129.7610  122.2530   61.0890 C   0  0  0  0  0  0  0  0  0  0  0  0
  128.6750  123.2710   61.2780 C   0  0  0  0  0  0  0  0  0  0  0  0
  128.9740  124.5620   61.7420 C   0  0  0  0  0  0  0  0  0  0  0  0
  127.9710  125.5090   61.9220 C   0  0  0  0  0  0  0  0  0  0  0  0
  126.6500  125.1780   61.6410 C   0  0  0  0  0  0  0  0  0  0  0  0
  126.3260  123.9060   61.1830 C   0  0  0  0  0  0  0  0  0  0  0  0
  127.3320  122.9600   61.0040 C   0  0  0  0  0  0  0  0  0  0  0  0
  129.6820  120.9600   61.6160 C   0  0  0  0  0  0  0  0  0  0  0  0
  130.7230  120.0510   61.3970 C   0  0  0  0  0  0  0  0  0  0  0  0
  130.5860  118.6450   61.9770 C   0  0  0  0  0  0  0  0  0  0  0  0
  131.8520  120.4600   60.6540 C   0  0  0  0  0  0  0  0  0  0  0  0
  132.9270  119.5090   60.3660 C   0  0  0  0  0  0  0  0  0  0  0  0
  133.7760  118.7550   60.1400 N   0  0  0  0  0  0  0  0  0  0  0  0
  133.9780  125.1220   64.6190 N   0  0  0  0  0  0  0  0  0  0  0  0
  1  2  1  0
  2  3  2  0
  3  4  1  0
  4  5  2  0
  5  6  1  0
  6  7  1  0
  7  8  1  0
  8  9  2  0
  8 10  1  0
 10 11  1  0
 11 12  1  0
 12 13  2  0
 13 14  1  0
 14 15  1  0
 15 16  2  0
 16 17  1  0
 17 18  2  0
 18 19  1  0
 19 20  2  0
 14 21  2  0
 21 22  1  0
 22 23  1  0
 22 24  2  0
 24 25  1  0
 25 26  3  0
  6 27  2  0
 27  2  1  0
 24 12  1  0
 20 15  1  0
M  END
>  <Binding energies>  (19) 
[-8.2]

>  <Ligand effiencies>  (19) 
[-0.2928571428571428]

>  <Interactions>  (19) 
["V-B:PRO:540:CB:9857, V-A:ILE:369:CG2:3236, V-A:ASP:366:CG:3212, V-B:TYR:539:CD2:9846, V-B:PRO:540:CA:9855, V-B:TYR:539:CE2:9848, V-B:ALA:541:CB:9864, V-A:ARG:545:CZ:4926, V-A:GLY:454:CA:4048, V-B:GLU:543:CD:9880, V-A:LEU:475:CD1:4257, V-A:ARG:545:CG:4922, H-A:ARG:545:NE:4924, H-A:GLY:454:N:4049, H-A:ARG:545:NH1:4927, H-A:ARG:545:NH2:4928, V-A:TYR:484:CZ:4346, V-A:PRO:482:CG:4326, H-A:HIS:383:NE2:3393, H-A:SER:385:OG:3409, V-A:ARG:545:CD:4923, H-A:TYR:484:OH:4347, H-A:ASP:366:OD2:3214, V-A:ASP:366:CB:3211, V-A:GLY:453:CA:4043, V-A:GLY:453:C:4041, V-A:ILE:369:CD1:3238, V-A:ILE:455:C:4051, H-A:ASP:366:OD1:3213, V-B:PRO:540:C:9853, V-B:ALA:541:CA:9862, V-A:PRO:482:CB:4325, V-A:ASP:366:CA:3209"]

$$$$
3bf_Grossjean_2025
     RDKit          3D

 26 28  0  0  0  0  0  0  0  0999 V2000
  129.6840  125.2140   66.1760 C   0  0  0  0  0  0  0  0  0  0  0  0
  130.3940  124.8400   64.8770 C   0  0  0  0  0  0  0  0  0  0  0  0
  129.6200  124.3510   63.8200 C   0  0  0  0  0  0  0  0  0  0  0  0
  130.2290  124.0110   62.6060 C   0  0  0  0  0  0  0  0  0  0  0  0
  129.4530  123.5020   61.4290 C   0  0  0  0  0  0  0  0  0  0  0  0
  130.1010  123.2010   60.2200 C   0  0  0  0  0  0  0  0  0  0  0  0
  129.3870  122.7290   59.1220 C   0  0  0  0  0  0  0  0  0  0  0  0
  128.0110  122.5510   59.2180 C   0  0  0  0  0  0  0  0  0  0  0  0
  127.3450  122.8440   60.4040 C   0  0  0  0  0  0  0  0  0  0  0  0
  128.0620  123.3170   61.4990 C   0  0  0  0  0  0  0  0  0  0  0  0
  131.5710  124.1480   62.4370 N   0  0  0  0  0  0  0  0  0  0  0  0
  132.3380  124.5980   63.4600 C   0  0  0  0  0  0  0  0  0  0  0  0
  134.0690  124.7070   63.0590 S   0  0  0  0  0  0  0  0  0  0  0  0
  134.3540  123.7630   61.5240 C   0  0  0  0  0  0  0  0  0  0  0  0
  134.1170  122.2490   61.6360 C   0  0  0  0  0  0  0  0  0  0  0  0
  135.0090  121.5010   62.0390 O   0  0  0  0  0  0  0  0  0  0  0  0
  132.8740  121.8470   61.2910 N   0  0  0  0  0  0  0  0  0  0  0  0
  132.3410  120.5450   61.2710 C   0  0  0  0  0  0  0  0  0  0  0  0
  131.0020  120.3970   61.6500 C   0  0  0  0  0  0  0  0  0  0  0  0
  130.4110  119.1320   61.6380 C   0  0  0  0  0  0  0  0  0  0  0  0
  131.1820  118.0410   61.2380 C   0  0  0  0  0  0  0  0  0  0  0  0
  132.4790  118.1560   60.8550 N   0  0  0  0  0  0  0  0  0  0  0  0
  133.0400  119.3920   60.8720 C   0  0  0  0  0  0  0  0  0  0  0  0
  131.7890  124.9780   64.7050 C   0  0  0  0  0  0  0  0  0  0  0  0
  132.6110  125.5350   65.7820 C   0  0  0  0  0  0  0  0  0  0  0  0
  133.2600  125.9740   66.6340 N   0  0  0  0  0  0  0  0  0  0  0  0
  1  2  1  0
  2  3  2  0
  3  4  1  0
  4  5  1  0
  5  6  2  0
  6  7  1  0
  7  8  2  0
  8  9  1  0
  9 10  2  0
  4 11  2  0
 11 12  1  0
 12 13  1  0
 13 14  1  0
 14 15  1  0
 15 16  2  0
 15 17  1  0
 17 18  1  0
 18 19  2  0
 19 20  1  0
 20 21  2  0
 21 22  1  0
 22 23  2  0
 12 24  2  0
 24 25  1  0
 25 26  3  0
 24  2  1  0
 10  5  1  0
 23 18  1  0
M  END
>  <Binding energies>  (20) 
[-7.24]

>  <Ligand effiencies>  (20) 
[-0.26814814814814814]

>  <Interactions>  (20) 
["V-B:PRO:540:CB:9857, V-A:ILE:369:CG2:3236, V-A:ASP:366:CG:3212, V-B:TYR:539:CD2:9846, V-B:PRO:540:CA:9855, V-B:TYR:539:C:9839, V-B:TYR:539:CE2:9848, V-B:PRO:540:N:9856, V-B:ALA:541:CB:9864, V-A:ARG:545:CZ:4926, V-B:GLU:543:CG:9879, V-B:GLU:543:CD:9880, V-A:LEU:475:CD1:4257, V-A:TYR:484:CE2:4345, H-A:ARG:545:NE:4924, H-A:GLY:454:N:4049, V-B:GLU:543:CB:9878, H-A:ARG:545:NH1:4927, H-A:ARG:545:NH2:4928, V-A:PRO:482:CG:4326, H-A:HIS:383:NE2:3393, H-A:SER:385:OG:3409, H-A:TYR:484:OH:4347, V-A:ILE:369:CD1:3238, V-B:PRO:540:C:9853, V-A:PRO:482:CB:4325"]

$$$$
3bg_Grossjean_2025
     RDKit          3D

 27 29  0  0  0  0  0  0  0  0999 V2000
  134.2740  123.9170   60.0750 C   0  0  0  0  0  0  0  0  0  0  0  0
  133.0920  124.3330   60.9490 C   0  0  0  0  0  0  0  0  0  0  0  0
  133.3320  124.6070   62.2990 C   0  0  0  0  0  0  0  0  0  0  0  0
  132.2770  124.9990   63.1340 C   0  0  0  0  0  0  0  0  0  0  0  0
  132.4690  125.3200   64.5910 C   0  0  0  0  0  0  0  0  0  0  0  0
  131.3990  125.7780   65.3780 C   0  0  0  0  0  0  0  0  0  0  0  0
  131.5680  126.0580   66.7310 C   0  0  0  0  0  0  0  0  0  0  0  0
  132.8160  125.8890   67.3210 C   0  0  0  0  0  0  0  0  0  0  0  0
  133.8960  125.4490   66.5640 C   0  0  0  0  0  0  0  0  0  0  0  0
  133.7220  125.1710   65.2110 C   0  0  0  0  0  0  0  0  0  0  0  0
  131.0180  125.1340   62.6390 N   0  0  0  0  0  0  0  0  0  0  0  0
  130.7690  124.8740   61.3300 C   0  0  0  0  0  0  0  0  0  0  0  0
  129.0810  125.1220   60.8000 S   0  0  0  0  0  0  0  0  0  0  0  0
  128.4690  123.5570   60.0930 C   0  0  0  0  0  0  0  0  0  0  0  0
  128.7080  122.3730   61.0350 C   0  0  0  0  0  0  0  0  0  0  0  0
  128.3220  122.4310   62.2030 O   0  0  0  0  0  0  0  0  0  0  0  0
  129.3670  121.3210   60.5190 N   0  0  0  0  0  0  0  0  0  0  0  0
  129.8600  120.1720   61.2780 C   0  0  0  0  0  0  0  0  0  0  0  0
  131.3710  120.0200   61.1570 C   0  0  0  0  0  0  0  0  0  0  0  0
  131.9130  118.9030   60.5110 C   0  0  0  0  0  0  0  0  0  0  0  0
  133.2930  118.7590   60.4090 C   0  0  0  0  0  0  0  0  0  0  0  0
  134.1300  119.7380   60.9430 C   0  0  0  0  0  0  0  0  0  0  0  0
  133.5980  120.8620   61.5700 C   0  0  0  0  0  0  0  0  0  0  0  0
  132.2170  121.0060   61.6720 C   0  0  0  0  0  0  0  0  0  0  0  0
  131.7820  124.4590   60.4410 C   0  0  0  0  0  0  0  0  0  0  0  0
  131.5010  124.1850   59.0290 C   0  0  0  0  0  0  0  0  0  0  0  0
  131.2810  123.9690   57.9140 N   0  0  0  0  0  0  0  0  0  0  0  0
  1  2  1  0
  2  3  2  0
  3  4  1  0
  4  5  1  0
  5  6  2  0
  6  7  1  0
  7  8  2  0
  8  9  1  0
  9 10  2  0
  4 11  2  0
 11 12  1  0
 12 13  1  0
 13 14  1  0
 14 15  1  0
 15 16  2  0
 15 17  1  0
 17 18  1  0
 18 19  1  0
 19 20  2  0
 20 21  1  0
 21 22  2  0
 22 23  1  0
 23 24  2  0
 12 25  2  0
 25 26  1  0
 26 27  3  0
 25  2  1  0
 10  5  1  0
 24 19  1  0
M  END
>  <Binding energies>  (21) 
[-7.55]

>  <Ligand effiencies>  (21) 
[-0.26964285714285713]

>  <Interactions>  (21) 
["V-A:ILE:369:CG2:3236, H-B:ALA:541:N:9863, V-A:ASP:366:CG:3212, V-B:TYR:539:CD2:9846, V-A:SER:385:C:3404, V-A:SER:385:CA:3406, V-B:PRO:540:CA:9855, V-B:TYR:539:C:9839, V-B:TYR:539:CE2:9848, V-B:ALA:541:CB:9864, V-A:ARG:545:CZ:4926, V-A:GLY:454:CA:4048, V-A:LEU:475:CD1:4257, V-A:ARG:545:CG:4922, V-A:HIS:456:CE1:4069, V-A:TYR:484:CZ:4346, V-A:ARG:545:CD:4923, V-A:ASP:366:CB:3211, V-A:GLY:453:CA:4043, V-A:GLY:453:C:4041, V-A:ILE:369:CD1:3238, V-B:PRO:540:C:9853, H-B:TYR:539:O:9840, V-B:ALA:541:CA:9862, H-B:TYR:539:OH:9850, V-A:ASP:366:CA:3209, V-A:ILE:369:CB:3235, V-A:HIS:383:CD2:3391"]

$$$$
3ca_Grossjean_2025
     RDKit          3D

 31 33  0  0  0  0  0  0  0  0999 V2000
  128.4220  128.4860   67.6070 C   0  0  0  0  0  0  0  0  0  0  0  0
  129.4710  128.1600   68.6740 C   0  0  0  0  0  0  0  0  0  0  0  0
  130.5060  127.3730   68.0960 O   0  0  0  0  0  0  0  0  0  0  0  0
  130.2460  126.1480   67.5730 C   0  0  0  0  0  0  0  0  0  0  0  0
  129.4420  125.3520   68.0690 O   0  0  0  0  0  0  0  0  0  0  0  0
  131.0290  125.8580   66.3240 C   0  0  0  0  0  0  0  0  0  0  0  0
  132.4280  125.8330   66.3840 C   0  0  0  0  0  0  0  0  0  0  0  0
  133.1820  125.5670   65.2450 C   0  0  0  0  0  0  0  0  0  0  0  0
  132.5540  125.3290   64.0210 C   0  0  0  0  0  0  0  0  0  0  0  0
  133.4090  125.0690   62.9330 N   0  0  0  0  0  0  0  0  0  0  0  0
  133.8940  123.8930   62.4800 C   0  0  0  0  0  0  0  0  0  0  0  0
  133.6410  122.7870   62.9560 O   0  0  0  0  0  0  0  0  0  0  0  0
  134.8130  123.9920   61.2570 C   0  0  0  0  0  0  0  0  0  0  0  0
  133.9110  123.9200   59.6740 S   0  0  0  0  0  0  0  0  0  0  0  0
  132.4760  122.8660   59.8390 C   0  0  0  0  0  0  0  0  0  0  0  0
  132.6950  121.6640   60.4290 N   0  0  0  0  0  0  0  0  0  0  0  0
  131.6520  120.8240   60.6060 C   0  0  0  0  0  0  0  0  0  0  0  0
  131.9740  119.5090   61.2870 C   0  0  0  0  0  0  0  0  0  0  0  0
  130.3600  121.1370   60.1920 C   0  0  0  0  0  0  0  0  0  0  0  0
  130.1110  122.3650   59.5650 C   0  0  0  0  0  0  0  0  0  0  0  0
  128.7120  122.6510   59.1270 C   0  0  0  0  0  0  0  0  0  0  0  0
  128.3370  122.4460   57.7930 C   0  0  0  0  0  0  0  0  0  0  0  0
  127.0380  122.7200   57.3730 C   0  0  0  0  0  0  0  0  0  0  0  0
  126.1070  123.2050   58.2880 C   0  0  0  0  0  0  0  0  0  0  0  0
  126.4640  123.4210   59.6160 C   0  0  0  0  0  0  0  0  0  0  0  0
  127.7650  123.1470   60.0320 C   0  0  0  0  0  0  0  0  0  0  0  0
  131.1950  123.2630   59.3890 C   0  0  0  0  0  0  0  0  0  0  0  0
  130.9860  124.5830   58.7850 C   0  0  0  0  0  0  0  0  0  0  0  0
  130.8190  125.6250   58.3090 N   0  0  0  0  0  0  0  0  0  0  0  0
  131.1520  125.3430   63.9530 C   0  0  0  0  0  0  0  0  0  0  0  0
  130.4010  125.6080   65.0950 C   0  0  0  0  0  0  0  0  0  0  0  0
  1  2  1  0
  2  3  1  0
  3  4  1  0
  4  5  2  0
  4  6  1  0
  6  7  2  0
  7  8  1  0
  8  9  2  0
  9 10  1  0
 10 11  1  0
 11 12  2  0
 11 13  1  0
 13 14  1  0
 14 15  1  0
 15 16  2  0
 16 17  1  0
 17 18  1  0
 17 19  2  0
 19 20  1  0
 20 21  1  0
 21 22  2  0
 22 23  1  0
 23 24  2  0
 24 25  1  0
 25 26  2  0
 20 27  2  0
 27 28  1  0
 28 29  3  0
  9 30  1  0
 30 31  2  0
 31  6  1  0
 27 15  1  0
 26 21  1  0
M  END
>  <Binding energies>  (22) 
[-8.11]

>  <Ligand effiencies>  (22) 
[-0.2534375]

>  <Interactions>  (22) 
["V-B:PRO:540:CB:9857, V-A:ILE:369:CG2:3236, V-A:ASP:366:CG:3212, V-B:TYR:539:CD2:9846, V-B:PRO:540:CA:9855, V-B:TYR:539:C:9839, V-B:TYR:539:CE2:9848, V-B:TYR:539:CZ:9849, V-B:PRO:540:N:9856, V-A:ARG:545:CZ:4926, V-A:LEU:475:CD1:4257, V-A:GLU:543:CB:4906, H-A:GLY:454:N:4049, V-B:MET:535:CE:9807, V-A:HIS:456:CE1:4069, V-B:HIS:456:CE1:9041, V-A:TYR:484:CZ:4346, V-A:ARG:545:CD:4923, H-A:ASP:366:OD2:3214, V-A:GLY:453:C:4041, V-A:ILE:369:CD1:3238, H-A:ASP:366:OD1:3213, V-B:TYR:539:CG:9844, V-A:ASP:366:CA:3209"]

$$$$
3ce_Grossjean_2025
     RDKit          3D

 27 29  0  0  0  0  0  0  0  0999 V2000
  125.5100  123.5160   61.1880 C   0  0  0  0  0  0  0  0  0  0  0  0
  126.7890  123.2130   60.4320 C   0  0  0  0  0  0  0  0  0  0  0  0
  126.7750  122.8790   59.0750 C   0  0  0  0  0  0  0  0  0  0  0  0
  127.9910  122.6230   58.4420 C   0  0  0  0  0  0  0  0  0  0  0  0
  129.1800  122.7050   59.1700 C   0  0  0  0  0  0  0  0  0  0  0  0
  129.1220  123.0350   60.5290 C   0  0  0  0  0  0  0  0  0  0  0  0
  130.3500  123.1230   61.2070 N   0  0  0  0  0  0  0  0  0  0  0  0
  130.7730  122.3970   62.2650 C   0  0  0  0  0  0  0  0  0  0  0  0
  130.1240  121.5070   62.8170 O   0  0  0  0  0  0  0  0  0  0  0  0
  132.1730  122.7310   62.7810 C   0  0  0  0  0  0  0  0  0  0  0  0
  132.5240  124.5120   62.6870 S   0  0  0  0  0  0  0  0  0  0  0  0
  132.6650  125.0660   64.3700 C   0  0  0  0  0  0  0  0  0  0  0  0
  133.9340  125.0630   64.8460 N   0  0  0  0  0  0  0  0  0  0  0  0
  134.1490  125.4840   66.1140 C   0  0  0  0  0  0  0  0  0  0  0  0
  135.5930  125.4680   66.5780 C   0  0  0  0  0  0  0  0  0  0  0  0
  133.1190  125.9070   66.9490 C   0  0  0  0  0  0  0  0  0  0  0  0
  131.7970  125.8920   66.4840 C   0  0  0  0  0  0  0  0  0  0  0  0
  130.7230  126.3300   67.4250 C   0  0  0  0  0  0  0  0  0  0  0  0
  129.6820  125.4550   67.7600 C   0  0  0  0  0  0  0  0  0  0  0  0
  128.6740  125.8580   68.6320 C   0  0  0  0  0  0  0  0  0  0  0  0
  128.6990  127.1420   69.1690 C   0  0  0  0  0  0  0  0  0  0  0  0
  129.7220  128.0280   68.8380 C   0  0  0  0  0  0  0  0  0  0  0  0
  130.7290  127.6220   67.9670 C   0  0  0  0  0  0  0  0  0  0  0  0
  131.5560  125.4640   65.1540 C   0  0  0  0  0  0  0  0  0  0  0  0
  130.1960  125.4420   64.6060 C   0  0  0  0  0  0  0  0  0  0  0  0
  129.1220  125.4250   64.1750 N   0  0  0  0  0  0  0  0  0  0  0  0
  127.9350  123.2950   61.1540 N   0  0  0  0  0  0  0  0  0  0  0  0
  1  2  1  0
  2  3  2  0
  3  4  1  0
  4  5  2  0
  5  6  1  0
  6  7  1  0
  7  8  1  0
  8  9  2  0
  8 10  1  0
 10 11  1  0
 11 12  1  0
 12 13  2  0
 13 14  1  0
 14 15  1  0
 14 16  2  0
 16 17  1  0
 17 18  1  0
 18 19  2  0
 19 20  1  0
 20 21  2  0
 21 22  1  0
 22 23  2  0
 17 24  2  0
 24 25  1  0
 25 26  3  0
  6 27  2  0
 27  2  1  0
 24 12  1  0
 23 18  1  0
M  END
>  <Binding energies>  (23) 
[-7.68]

>  <Ligand effiencies>  (23) 
[-0.2742857142857143]

>  <Interactions>  (23) 
["V-B:PRO:540:CB:9857, V-B:TYR:539:CD2:9846, V-B:PRO:540:CA:9855, V-B:TYR:539:C:9839, V-B:TYR:539:CE2:9848, V-B:PRO:540:N:9856, V-A:ARG:545:CZ:4926, V-A:GLY:454:CA:4048, V-A:LEU:475:CD1:4257, V-A:GLU:543:CB:4906, V-A:ARG:545:CG:4922, V-A:GLU:543:CD:4908, V-A:TYR:484:CE2:4345, H-A:ARG:545:NE:4924, H-A:GLY:454:N:4049, V-B:GLU:543:CB:9878, V-A:HIS:456:CE1:4069, H-A:ARG:545:NH1:4927, H-A:ARG:545:NH2:4928, V-B:HIS:456:CE1:9041, V-A:TYR:484:CZ:4346, V-A:ARG:545:CD:4923, H-A:TYR:484:OH:4347, V-A:GLY:453:CA:4043, V-A:GLY:453:C:4041, V-A:ILE:455:C:4051, V-B:GLU:543:C:9874, V-B:GLU:543:CA:9876, V-A:GLU:543:C:4902, V-A:ARG:545:CB:4921"]

$$$$
3cj_Grossjean_2025
     RDKit          3D

 25 27  0  0  0  0  0  0  0  0999 V2000
  134.7760  124.2660   62.0320 C   0  0  0  0  0  0  0  0  0  0  0  0
  133.3750  123.7420   61.7800 C   0  0  0  0  0  0  0  0  0  0  0  0
  133.1350  122.3910   61.5380 C   0  0  0  0  0  0  0  0  0  0  0  0
  131.8210  121.9480   61.3330 C   0  0  0  0  0  0  0  0  0  0  0  0
  131.6040  120.4840   61.1410 C   0  0  0  0  0  0  0  0  0  0  0  0
  130.6590  119.7980   61.9130 C   0  0  0  0  0  0  0  0  0  0  0  0
  130.4660  118.4290   61.7420 C   0  0  0  0  0  0  0  0  0  0  0  0
  131.2250  117.7400   60.8010 C   0  0  0  0  0  0  0  0  0  0  0  0
  132.1760  118.4060   60.0320 C   0  0  0  0  0  0  0  0  0  0  0  0
  132.3660  119.7750   60.2040 C   0  0  0  0  0  0  0  0  0  0  0  0
  130.7760  122.9040   61.3470 C   0  0  0  0  0  0  0  0  0  0  0  0
  129.3850  122.5060   61.1100 C   0  0  0  0  0  0  0  0  0  0  0  0
  128.2870  122.1910   60.9240 N   0  0  0  0  0  0  0  0  0  0  0  0
  131.1110  124.2530   61.6050 C   0  0  0  0  0  0  0  0  0  0  0  0
  129.8840  125.5310   61.7830 S   0  0  0  0  0  0  0  0  0  0  0  0
  129.2630  125.3480   63.4850 C   0  0  0  0  0  0  0  0  0  0  0  0
  130.3570  124.8620   64.4420 C   0  0  0  0  0  0  0  0  0  0  0  0
  130.3960  123.6740   64.7670 O   0  0  0  0  0  0  0  0  0  0  0  0
  131.2410  125.8040   64.8360 N   0  0  0  0  0  0  0  0  0  0  0  0
  132.3890  125.6000   65.5840 C   0  0  0  0  0  0  0  0  0  0  0  0
  133.5550  125.1520   65.1690 N   0  0  0  0  0  0  0  0  0  0  0  0
  134.4340  125.1130   66.1500 C   0  0  0  0  0  0  0  0  0  0  0  0
  133.9850  125.5350   67.3980 C   0  0  0  0  0  0  0  0  0  0  0  0
  132.3160  126.0060   67.2690 S   0  0  0  0  0  0  0  0  0  0  0  0
  132.3850  124.6620   61.8280 N   0  0  0  0  0  0  0  0  0  0  0  0
  1  2  1  0
  2  3  2  0
  3  4  1  0
  4  5  1  0
  5  6  2  0
  6  7  1  0
  7  8  2  0
  8  9  1  0
  9 10  2  0
  4 11  2  0
 11 12  1  0
 12 13  3  0
 11 14  1  0
 14 15  1  0
 15 16  1  0
 16 17  1  0
 17 18  2  0
 17 19  1  0
 19 20  1  0
 20 21  2  0
 21 22  1  0
 22 23  2  0
 23 24  1  0
 14 25  2  0
 25  2  1  0
 10  5  1  0
 24 20  1  0
M  END
>  <Binding energies>  (24) 
[-7.59]

>  <Ligand effiencies>  (24) 
[-0.2919230769230769]

>  <Interactions>  (24) 
["V-A:ILE:369:CG2:3236, H-B:ALA:541:N:9863, V-A:ASP:366:CG:3212, V-B:TYR:539:CD2:9846, V-B:TYR:539:CE2:9848, V-B:ALA:541:CB:9864, V-A:ARG:545:CZ:4926, V-A:GLY:454:CA:4048, V-B:GLU:543:CD:9880, V-A:LEU:475:CD1:4257, V-A:ARG:545:CG:4922, H-A:GLU:543:OE2:4910, H-A:ARG:545:NE:4924, H-A:GLY:454:N:4049, H-A:GLU:543:OE1:4909, V-A:HIS:456:CE1:4069, H-A:ARG:545:NH2:4928, V-A:TYR:484:CZ:4346, V-A:PRO:482:CG:4326, V-A:ARG:545:CD:4923, H-A:TYR:484:OH:4347, V-A:GLY:453:CA:4043, V-A:GLY:453:C:4041, V-A:ILE:369:CD1:3238, V-A:ILE:455:C:4051, V-A:PRO:482:CB:4325, V-A:HIS:383:CE1:3392, V-A:HIS:383:CD2:3391"]

$$$$
4ba_Grossjean_2025
     RDKit          3D

 28 30  0  0  0  0  0  0  0  0999 V2000
  128.2700  129.4530   67.3770 C   0  0  0  0  0  0  0  0  0  0  0  0
  128.7530  129.4320   68.8400 C   0  0  0  0  0  0  0  0  0  0  0  0
  129.5760  128.1910   69.2400 C   0  0  0  0  0  0  0  0  0  0  0  0
  129.9390  128.0540   70.4100 O   0  0  0  0  0  0  0  0  0  0  0  0
  129.8970  127.1910   68.1670 C   0  0  0  0  0  0  0  0  0  0  0  0
  128.9120  126.2860   67.7530 C   0  0  0  0  0  0  0  0  0  0  0  0
  129.1830  125.3470   66.7620 C   0  0  0  0  0  0  0  0  0  0  0  0
  130.4410  125.2970   66.1600 C   0  0  0  0  0  0  0  0  0  0  0  0
  130.6090  124.3040   65.1760 N   0  0  0  0  0  0  0  0  0  0  0  0
  130.3480  124.3420   63.8460 C   0  0  0  0  0  0  0  0  0  0  0  0
  129.8500  125.3080   63.2660 O   0  0  0  0  0  0  0  0  0  0  0  0
  130.6780  123.1200   63.1090 C   0  0  0  0  0  0  0  0  0  0  0  0
  129.3980  122.0340   62.5750 S   0  0  0  0  0  0  0  0  0  0  0  0
  130.5610  120.9190   61.8980 C   0  0  0  0  0  0  0  0  0  0  0  0
  130.1770  119.7930   61.2990 N   0  0  0  0  0  0  0  0  0  0  0  0
  131.1680  119.0100   60.8150 C   0  0  0  0  0  0  0  0  0  0  0  0
  130.7080  117.7280   60.1440 C   0  0  0  0  0  0  0  0  0  0  0  0
  132.5200  119.3240   60.9110 C   0  0  0  0  0  0  0  0  0  0  0  0
  132.9320  120.5100   61.5410 C   0  0  0  0  0  0  0  0  0  0  0  0
  134.4320  120.8150   61.6200 C   0  0  0  0  0  0  0  0  0  0  0  0
  135.1880  119.8650   61.0660 F   0  0  0  0  0  0  0  0  0  0  0  0
  134.6960  121.9570   60.9850 F   0  0  0  0  0  0  0  0  0  0  0  0
  134.8020  120.9250   62.8970 F   0  0  0  0  0  0  0  0  0  0  0  0
  131.9110  121.3560   62.0680 C   0  0  0  0  0  0  0  0  0  0  0  0
  131.9450  122.6140   62.7730 C   0  0  0  0  0  0  0  0  0  0  0  0
  133.1170  123.2570   63.0830 N   0  0  0  0  0  0  0  0  0  0  0  0
  131.4360  126.1960   66.5730 C   0  0  0  0  0  0  0  0  0  0  0  0
  131.1630  127.1340   67.5650 C   0  0  0  0  0  0  0  0  0  0  0  0
  1  2  1  0
  2  3  1  0
  3  4  2  0
  3  5  1  0
  5  6  2  0
  6  7  1  0
  7  8  2  0
  8  9  1  0
  9 10  1  0
 10 11  2  0
 10 12  1  0
 12 13  1  0
 13 14  1  0
 14 15  2  0
 15 16  1  0
 16 17  1  0
 16 18  2  0
 18 19  1  0
 19 20  1  0
 20 21  1  0
 20 22  1  0
 20 23  1  0
 19 24  2  0
 24 25  1  0
 25 26  1  0
  8 27  1  0
 27 28  2  0
 28  5  1  0
 25 12  2  0
 24 14  1  0
M  END
>  <Binding energies>  (25) 
[-6.2]

>  <Ligand effiencies>  (25) 
[-0.2]

>  <Interactions>  (25) 
["V-A:ILE:369:CG2:3236, H-B:ALA:541:N:9863, V-B:TYR:539:CD2:9846, V-A:SER:385:C:3404, V-A:SER:385:CA:3406, V-B:TYR:539:C:9839, V-B:ALA:541:CB:9864, V-A:GLY:454:CA:4048, V-B:GLU:543:CG:9879, V-B:GLU:543:CD:9880, V-A:LEU:475:CD1:4257, V-A:GLU:543:CB:4906, V-A:GLU:543:CD:4908, V-A:TYR:484:CE2:4345, V-B:GLU:543:CB:9878, V-A:HIS:456:CE1:4069, V-B:HIS:456:CE1:9041, V-A:TYR:484:CZ:4346, V-A:PRO:482:CG:4326, H-A:TYR:484:OH:4347, V-A:GLY:453:C:4041, V-A:ILE:369:CD1:3238, V-A:GLU:543:CG:4907, V-B:TYR:484:CE2:9317, V-A:GLU:543:C:4902, V-A:GLU:543:CA:4904, V-B:TYR:539:CB:9843, V-B:ALA:541:CA:9862, V-A:ILE:369:CB:3235, V-A:ILE:369:CG1:3237"]

$$$$
4bb_Grossjean_2025
     RDKit          3D

 27 29  0  0  0  0  0  0  0  0999 V2000
  129.8500  128.0790   70.6050 C   0  0  0  0  0  0  0  0  0  0  0  0
  129.4650  128.3600   69.1510 C   0  0  0  0  0  0  0  0  0  0  0  0
  128.8740  129.4120   68.9000 O   0  0  0  0  0  0  0  0  0  0  0  0
  129.8160  127.3380   68.1130 C   0  0  0  0  0  0  0  0  0  0  0  0
  128.8110  126.5100   67.5950 C   0  0  0  0  0  0  0  0  0  0  0  0
  129.1110  125.5520   66.6310 C   0  0  0  0  0  0  0  0  0  0  0  0
  130.4170  125.4080   66.1600 C   0  0  0  0  0  0  0  0  0  0  0  0
  130.6090  124.4070   65.1870 N   0  0  0  0  0  0  0  0  0  0  0  0
  130.4450  124.4560   63.8420 C   0  0  0  0  0  0  0  0  0  0  0  0
  130.0480  125.4470   63.2290 O   0  0  0  0  0  0  0  0  0  0  0  0
  130.7470  123.2110   63.1310 C   0  0  0  0  0  0  0  0  0  0  0  0
  129.4490  122.1000   62.6980 S   0  0  0  0  0  0  0  0  0  0  0  0
  130.5850  120.9730   61.9920 C   0  0  0  0  0  0  0  0  0  0  0  0
  130.1800  119.8310   61.4410 N   0  0  0  0  0  0  0  0  0  0  0  0
  131.1510  119.0410   60.9290 C   0  0  0  0  0  0  0  0  0  0  0  0
  130.6680  117.7450   60.3040 C   0  0  0  0  0  0  0  0  0  0  0  0
  132.5060  119.3630   60.9560 C   0  0  0  0  0  0  0  0  0  0  0  0
  132.9380  120.5650   61.5350 C   0  0  0  0  0  0  0  0  0  0  0  0
  134.4390  120.8760   61.5410 C   0  0  0  0  0  0  0  0  0  0  0  0
  134.9410  121.0030   62.7720 F   0  0  0  0  0  0  0  0  0  0  0  0
  135.1060  119.8920   60.9370 F   0  0  0  0  0  0  0  0  0  0  0  0
  134.6660  122.0210   60.8980 F   0  0  0  0  0  0  0  0  0  0  0  0
  131.9380  121.4230   62.0860 C   0  0  0  0  0  0  0  0  0  0  0  0
  131.9980  122.7030   62.7460 C   0  0  0  0  0  0  0  0  0  0  0  0
  133.1780  123.3660   62.9690 N   0  0  0  0  0  0  0  0  0  0  0  0
  131.4300  126.2290   66.6790 C   0  0  0  0  0  0  0  0  0  0  0  0
  131.1280  127.1850   67.6450 C   0  0  0  0  0  0  0  0  0  0  0  0
  1  2  1  0
  2  3  2  0
  2  4  1  0
  4  5  2  0
  5  6  1  0
  6  7  2  0
  7  8  1  0
  8  9  1  0
  9 10  2  0
  9 11  1  0
 11 12  1  0
 12 13  1  0
 13 14  2  0
 14 15  1  0
 15 16  1  0
 15 17  2  0
 17 18  1  0
 18 19  1  0
 19 20  1  0
 19 21  1  0
 19 22  1  0
 18 23  2  0
 23 24  1  0
 24 25  1  0
  7 26  1  0
 26 27  2  0
 27  4  1  0
 24 11  2  0
 23 13  1  0
M  END
>  <Binding energies>  (26) 
[-6.13]

>  <Ligand effiencies>  (26) 
[-0.20433333333333334]

>  <Interactions>  (26) 
["V-A:ILE:369:CG2:3236, H-B:ALA:541:N:9863, V-B:TYR:539:CD2:9846, V-A:SER:385:C:3404, V-A:SER:385:CA:3406, V-B:TYR:539:C:9839, V-B:ALA:541:CB:9864, V-A:GLY:454:CA:4048, V-B:GLU:543:CG:9879, V-B:GLU:543:CD:9880, V-A:LEU:475:CD1:4257, V-A:GLU:543:CB:4906, V-A:GLU:543:CD:4908, V-A:TYR:484:CE2:4345, V-B:GLU:543:CB:9878, V-A:HIS:456:CE1:4069, V-B:HIS:456:CE1:9041, V-A:TYR:484:CZ:4346, V-A:PRO:482:CG:4326, H-A:TYR:484:OH:4347, V-A:GLY:453:C:4041, V-A:ILE:369:CD1:3238, V-A:GLU:543:C:4902, V-B:TYR:539:CB:9843, V-B:ALA:541:CA:9862, V-A:ILE:369:CB:3235, V-A:ILE:369:CG1:3237"]

$$$$
4bd_Grossjean_2025
     RDKit          3D

 24 26  0  0  0  0  0  0  0  0999 V2000
  132.8950  126.1640   66.4340 C   0  0  0  0  0  0  0  0  0  0  0  0
  132.4930  125.4580   65.1520 C   0  0  0  0  0  0  0  0  0  0  0  0
  133.4460  125.0790   64.2110 C   0  0  0  0  0  0  0  0  0  0  0  0
  133.0600  124.4290   63.0280 C   0  0  0  0  0  0  0  0  0  0  0  0
  134.1440  124.0340   62.0200 C   0  0  0  0  0  0  0  0  0  0  0  0
  134.3770  122.7200   61.9910 F   0  0  0  0  0  0  0  0  0  0  0  0
  133.7760  124.4020   60.7940 F   0  0  0  0  0  0  0  0  0  0  0  0
  135.2920  124.6350   62.3350 F   0  0  0  0  0  0  0  0  0  0  0  0
  131.6670  124.1780   62.8460 C   0  0  0  0  0  0  0  0  0  0  0  0
  130.9120  123.5500   61.7900 C   0  0  0  0  0  0  0  0  0  0  0  0
  131.5030  123.0310   60.6680 N   0  0  0  0  0  0  0  0  0  0  0  0
  129.5250  123.5190   62.0150 C   0  0  0  0  0  0  0  0  0  0  0  0
  128.4720  122.9780   61.1510 C   0  0  0  0  0  0  0  0  0  0  0  0
  127.7130  122.0990   61.5620 O   0  0  0  0  0  0  0  0  0  0  0  0
  128.4010  123.5210   59.9100 N   0  0  0  0  0  0  0  0  0  0  0  0
  127.5440  123.2010   58.8410 C   0  0  0  0  0  0  0  0  0  0  0  0
  126.3010  123.8390   58.8410 C   0  0  0  0  0  0  0  0  0  0  0  0
  125.3870  123.5960   57.8190 C   0  0  0  0  0  0  0  0  0  0  0  0
  125.7190  122.7190   56.7900 C   0  0  0  0  0  0  0  0  0  0  0  0
  126.9590  122.0870   56.7720 C   0  0  0  0  0  0  0  0  0  0  0  0
  127.8760  122.3270   57.7920 C   0  0  0  0  0  0  0  0  0  0  0  0
  129.1130  124.2670   63.5560 S   0  0  0  0  0  0  0  0  0  0  0  0
  130.7930  124.6180   63.8880 C   0  0  0  0  0  0  0  0  0  0  0  0
  131.1660  125.2350   65.0080 N   0  0  0  0  0  0  0  0  0  0  0  0
  1  2  1  0
  2  3  2  0
  3  4  1  0
  4  5  1  0
  5  6  1  0
  5  7  1  0
  5  8  1  0
  4  9  2  0
  9 10  1  0
 10 11  1  0
 10 12  2  0
 12 13  1  0
 13 14  2  0
 13 15  1  0
 15 16  1  0
 16 17  2  0
 17 18  1  0
 18 19  2  0
 19 20  1  0
 20 21  2  0
 12 22  1  0
 22 23  1  0
 23 24  2  0
 24  2  1  0
 23  9  1  0
 21 16  1  0
M  END
>  <Binding energies>  (27) 
[-5.7]

>  <Ligand effiencies>  (27) 
[-0.2111111111111111]

>  <Interactions>  (27) 
["V-B:PRO:540:CB:9857, H-B:ALA:541:N:9863, V-A:ASP:366:CG:3212, V-B:TYR:539:CD2:9846, V-B:PRO:540:CA:9855, V-B:TYR:539:C:9839, V-B:PRO:540:N:9856, V-B:LEU:363:CD1:8160, V-A:ARG:545:CZ:4926, V-A:GLY:454:CA:4048, V-B:GLU:543:CG:9879, V-B:GLU:543:CD:9880, V-A:ARG:545:CG:4922, V-B:PRO:540:CD:9859, V-B:MET:535:CE:9807, V-B:TYR:539:CA:9841, V-A:ARG:545:CD:4923, H-A:TYR:484:OH:4347, V-A:ASP:366:CB:3211, V-A:GLY:453:CA:4043, V-A:GLY:453:C:4041, V-A:ILE:369:CD1:3238, V-B:TYR:531:CE2:9765, V-A:ASP:366:CA:3209"]

$$$$
4be_Grossjean_2025
     RDKit          3D

 25 27  0  0  0  0  0  0  0  0999 V2000
  127.6690  122.1740   57.2070 C   0  0  0  0  0  0  0  0  0  0  0  0
  127.1810  122.9100   58.4400 C   0  0  0  0  0  0  0  0  0  0  0  0
  125.8340  123.2390   58.6090 C   0  0  0  0  0  0  0  0  0  0  0  0
  125.4570  123.9200   59.7670 C   0  0  0  0  0  0  0  0  0  0  0  0
  126.4250  124.2510   60.7180 C   0  0  0  0  0  0  0  0  0  0  0  0
  127.7560  123.8860   60.4890 C   0  0  0  0  0  0  0  0  0  0  0  0
  128.6820  124.2550   61.4810 N   0  0  0  0  0  0  0  0  0  0  0  0
  129.6780  125.1740   61.4170 C   0  0  0  0  0  0  0  0  0  0  0  0
  129.9180  125.8580   60.4200 O   0  0  0  0  0  0  0  0  0  0  0  0
  130.4960  125.3010   62.6270 C   0  0  0  0  0  0  0  0  0  0  0  0
  132.2260  124.9720   62.5650 S   0  0  0  0  0  0  0  0  0  0  0  0
  132.3950  125.2950   64.2740 C   0  0  0  0  0  0  0  0  0  0  0  0
  133.5760  125.2090   64.8840 N   0  0  0  0  0  0  0  0  0  0  0  0
  133.5820  125.4840   66.2090 C   0  0  0  0  0  0  0  0  0  0  0  0
  134.9360  125.3780   66.8860 C   0  0  0  0  0  0  0  0  0  0  0  0
  132.4460  125.8420   66.9300 C   0  0  0  0  0  0  0  0  0  0  0  0
  131.1990  125.9360   66.2930 C   0  0  0  0  0  0  0  0  0  0  0  0
  129.9770  126.3370   67.1270 C   0  0  0  0  0  0  0  0  0  0  0  0
  129.1000  127.0770   66.4450 F   0  0  0  0  0  0  0  0  0  0  0  0
  129.3370  125.2450   67.5430 F   0  0  0  0  0  0  0  0  0  0  0  0
  130.3670  127.0490   68.1840 F   0  0  0  0  0  0  0  0  0  0  0  0
  131.1570  125.6470   64.8960 C   0  0  0  0  0  0  0  0  0  0  0  0
  130.0870  125.6310   63.9290 C   0  0  0  0  0  0  0  0  0  0  0  0
  128.7870  125.9210   64.2570 N   0  0  0  0  0  0  0  0  0  0  0  0
  128.1330  123.2250   59.3550 N   0  0  0  0  0  0  0  0  0  0  0  0
  1  2  1  0
  2  3  2  0
  3  4  1  0
  4  5  2  0
  5  6  1  0
  6  7  1  0
  7  8  1  0
  8  9  2  0
  8 10  1  0
 10 11  1  0
 11 12  1  0
 12 13  2  0
 13 14  1  0
 14 15  1  0
 14 16  2  0
 16 17  1  0
 17 18  1  0
 18 19  1  0
 18 20  1  0
 18 21  1  0
 17 22  2  0
 22 23  1  0
 23 24  1  0
  6 25  2  0
 25  2  1  0
 23 10  2  0
 22 12  1  0
M  END
>  <Binding energies>  (28) 
[-5.91]

>  <Ligand effiencies>  (28) 
[-0.21107142857142858]

>  <Interactions>  (28) 
["V-B:PRO:540:CB:9857, V-B:TYR:539:CD2:9846, V-B:PRO:540:CA:9855, V-B:TYR:539:C:9839, V-B:PRO:540:N:9856, V-A:ARG:545:CZ:4926, V-A:GLY:454:CA:4048, V-B:GLU:543:CG:9879, V-B:GLU:543:CD:9880, V-A:GLU:543:CB:4906, V-A:ARG:545:CG:4922, V-A:GLU:543:CD:4908, V-A:TYR:484:CE2:4345, H-A:ARG:545:NE:4924, H-A:GLY:454:N:4049, V-B:MET:535:CE:9807, H-A:GLU:543:OE1:4909, V-B:GLU:543:CB:9878, V-A:HIS:456:CE1:4069, V-B:TYR:539:CA:9841, H-A:ARG:545:NH2:4928, V-A:TYR:484:CZ:4346, H-B:GLU:543:OE2:9882, V-A:ARG:545:CD:4923, H-A:TYR:484:OH:4347, V-A:GLY:453:CA:4043, V-A:GLY:453:C:4041, V-A:ILE:455:C:4051, V-B:TYR:539:CG:9844, V-B:GLU:543:CA:9876, H-B:GLU:543:OE1:9881"]

$$$$
4bg_Grossjean_2025
     RDKit          3D

 25 27  0  0  0  0  0  0  0  0999 V2000
  133.5850  123.6510   57.7310 C   0  0  0  0  0  0  0  0  0  0  0  0
  133.0330  124.2390   59.0170 C   0  0  0  0  0  0  0  0  0  0  0  0
  131.8330  124.9450   59.0250 C   0  0  0  0  0  0  0  0  0  0  0  0
  131.3360  125.4880   60.2210 C   0  0  0  0  0  0  0  0  0  0  0  0
  130.0110  126.2570   60.1820 C   0  0  0  0  0  0  0  0  0  0  0  0
  130.1260  127.5160   60.6120 F   0  0  0  0  0  0  0  0  0  0  0  0
  129.5540  126.3030   58.9300 F   0  0  0  0  0  0  0  0  0  0  0  0
  129.1130  125.6510   60.9570 F   0  0  0  0  0  0  0  0  0  0  0  0
  132.1090  125.2800   61.4020 C   0  0  0  0  0  0  0  0  0  0  0  0
  131.9290  125.6810   62.7760 C   0  0  0  0  0  0  0  0  0  0  0  0
  130.8570  126.4250   63.1990 N   0  0  0  0  0  0  0  0  0  0  0  0
  132.9420  125.2350   63.6390 C   0  0  0  0  0  0  0  0  0  0  0  0
  133.0920  125.4820   65.0730 C   0  0  0  0  0  0  0  0  0  0  0  0
  133.8590  124.8090   65.7640 O   0  0  0  0  0  0  0  0  0  0  0  0
  132.3730  126.5070   65.5740 N   0  0  0  0  0  0  0  0  0  0  0  0
  132.3540  126.9250   66.9760 C   0  0  0  0  0  0  0  0  0  0  0  0
  130.9930  126.7640   67.6410 C   0  0  0  0  0  0  0  0  0  0  0  0
  130.3310  125.5340   67.5960 C   0  0  0  0  0  0  0  0  0  0  0  0
  129.1060  125.3780   68.2380 C   0  0  0  0  0  0  0  0  0  0  0  0
  128.5520  126.4490   68.9360 C   0  0  0  0  0  0  0  0  0  0  0  0
  129.2140  127.6730   69.0010 C   0  0  0  0  0  0  0  0  0  0  0  0
  130.4390  127.8290   68.3570 C   0  0  0  0  0  0  0  0  0  0  0  0
  134.1770  124.3320   62.7660 S   0  0  0  0  0  0  0  0  0  0  0  0
  133.3180  124.5320   61.2580 C   0  0  0  0  0  0  0  0  0  0  0  0
  133.7860  124.0210   60.1190 N   0  0  0  0  0  0  0  0  0  0  0  0
  1  2  1  0
  2  3  2  0
  3  4  1  0
  4  5  1  0
  5  6  1  0
  5  7  1  0
  5  8  1  0
  4  9  2  0
  9 10  1  0
 10 11  1  0
 10 12  2  0
 12 13  1  0
 13 14  2  0
 13 15  1  0
 15 16  1  0
 16 17  1  0
 17 18  2  0
 18 19  1  0
 19 20  2  0
 20 21  1  0
 21 22  2  0
 12 23  1  0
 23 24  1  0
 24 25  2  0
 25  2  1  0
 24  9  1  0
 22 17  1  0
M  END
>  <Binding energies>  (29) 
[-6.64]

>  <Ligand effiencies>  (29) 
[-0.23714285714285713]

>  <Interactions>  (29) 
["V-A:ILE:369:CG2:3236, V-A:ASP:366:CG:3212, V-B:TYR:539:CE2:9848, V-B:TYR:539:CZ:9849, V-A:ARG:545:CZ:4926, V-B:GLU:543:CG:9879, V-A:GLU:543:CB:4906, V-A:ARG:545:CG:4922, V-A:GLU:543:CD:4908, V-A:TYR:484:CE2:4345, H-A:GLU:543:OE2:4910, H-A:GLY:454:N:4049, H-A:GLU:543:OE1:4909, V-B:GLU:543:CB:9878, V-A:HIS:456:CE1:4069, V-B:HIS:456:CE1:9041, V-A:TYR:484:CZ:4346, V-A:ARG:545:CD:4923, H-A:TYR:484:OH:4347, V-A:ASP:366:CB:3211, V-A:GLY:453:CA:4043, V-A:GLY:453:C:4041, V-B:GLU:543:C:9874, V-B:GLU:543:CA:9876, V-A:ASP:366:C:3207, V-A:ASP:366:CA:3209, V-A:ILE:369:CB:3235"]

$$$$
4ca_Grossjean_2025
     RDKit          3D

 34 37  0  0  0  0  0  0  0  0999 V2000
  128.1430  126.2830   73.3080 C   0  0  0  0  0  0  0  0  0  0  0  0
  129.5550  126.1090   72.7390 C   0  0  0  0  0  0  0  0  0  0  0  0
  130.0680  127.3780   72.3520 O   0  0  0  0  0  0  0  0  0  0  0  0
  129.4320  128.1380   71.4230 C   0  0  0  0  0  0  0  0  0  0  0  0
  128.8920  129.2180   71.6830 O   0  0  0  0  0  0  0  0  0  0  0  0
  129.4550  127.5360   70.0490 C   0  0  0  0  0  0  0  0  0  0  0  0
  128.6680  126.4070   69.7830 C   0  0  0  0  0  0  0  0  0  0  0  0
  128.6650  125.8290   68.5170 C   0  0  0  0  0  0  0  0  0  0  0  0
  129.4500  126.3610   67.4940 C   0  0  0  0  0  0  0  0  0  0  0  0
  129.3640  125.7030   66.2510 N   0  0  0  0  0  0  0  0  0  0  0  0
  130.3350  125.3990   65.3550 C   0  0  0  0  0  0  0  0  0  0  0  0
  131.5320  125.6280   65.5290 O   0  0  0  0  0  0  0  0  0  0  0  0
  129.8720  124.7410   64.1310 C   0  0  0  0  0  0  0  0  0  0  0  0
  128.5820  125.4620   63.1710 S   0  0  0  0  0  0  0  0  0  0  0  0
  128.6860  124.1810   61.9870 C   0  0  0  0  0  0  0  0  0  0  0  0
  127.8970  124.1610   60.9160 N   0  0  0  0  0  0  0  0  0  0  0  0
  128.0600  123.1340   60.0430 C   0  0  0  0  0  0  0  0  0  0  0  0
  127.1620  123.1450   58.8400 C   0  0  0  0  0  0  0  0  0  0  0  0
  127.2430  122.1300   57.8730 C   0  0  0  0  0  0  0  0  0  0  0  0
  126.4170  122.1370   56.7520 C   0  0  0  0  0  0  0  0  0  0  0  0
  125.4940  123.1650   56.5810 C   0  0  0  0  0  0  0  0  0  0  0  0
  125.3950  124.1840   57.5220 C   0  0  0  0  0  0  0  0  0  0  0  0
  126.2230  124.1730   58.6410 C   0  0  0  0  0  0  0  0  0  0  0  0
  128.9990  122.1200   60.2620 C   0  0  0  0  0  0  0  0  0  0  0  0
  129.8320  122.1290   61.3910 C   0  0  0  0  0  0  0  0  0  0  0  0
  130.8420  120.9890   61.5670 C   0  0  0  0  0  0  0  0  0  0  0  0
  132.1050  121.4130   61.6320 F   0  0  0  0  0  0  0  0  0  0  0  0
  130.5840  120.3280   62.6950 F   0  0  0  0  0  0  0  0  0  0  0  0
  130.7580  120.1490   60.5350 F   0  0  0  0  0  0  0  0  0  0  0  0
  129.6820  123.2120   62.3040 C   0  0  0  0  0  0  0  0  0  0  0  0
  130.3470  123.5600   63.5360 C   0  0  0  0  0  0  0  0  0  0  0  0
  131.3520  122.7990   64.0760 N   0  0  0  0  0  0  0  0  0  0  0  0
  130.2370  127.4940   67.7480 C   0  0  0  0  0  0  0  0  0  0  0  0
  130.2380  128.0730   69.0150 C   0  0  0  0  0  0  0  0  0  0  0  0
  1  2  1  0
  2  3  1  0
  3  4  1  0
  4  5  2  0
  4  6  1  0
  6  7  2  0
  7  8  1  0
  8  9  2  0
  9 10  1  0
 10 11  1  0
 11 12  2  0
 11 13  1  0
 13 14  1  0
 14 15  1  0
 15 16  2  0
 16 17  1  0
 17 18  1  0
 18 19  2  0
 19 20  1  0
 20 21  2  0
 21 22  1  0
 22 23  2  0
 17 24  2  0
 24 25  1  0
 25 26  1  0
 26 27  1  0
 26 28  1  0
 26 29  1  0
 25 30  2  0
 30 31  1  0
 31 32  1  0
  9 33  1  0
 33 34  2  0
 34  6  1  0
 31 13  2  0
 30 15  1  0
 23 18  1  0
M  END
>  <Binding energies>  (30) 
[-7.57]

>  <Ligand effiencies>  (30) 
[-0.20459459459459461]

>  <Interactions>  (30) 
["V-B:PRO:540:CB:9857, V-B:TYR:539:CD2:9846, V-B:PRO:540:CA:9855, V-B:TYR:539:C:9839, V-B:TYR:539:CE2:9848, V-B:PRO:540:N:9856, V-B:LEU:363:CD1:8160, V-B:ALA:541:CB:9864, V-B:GLU:543:CG:9879, V-B:GLU:543:CD:9880, V-A:LEU:475:CD1:4257, V-A:GLU:543:CB:4906, V-A:GLU:543:CD:4908, V-B:PRO:540:CD:9859, V-B:MET:535:CE:9807, V-B:GLU:543:CB:9878, V-A:HIS:456:CE1:4069, V-B:HIS:456:CE1:9041, H-B:GLU:543:OE2:9882, H-A:TYR:484:OH:4347, V-B:HIS:456:CD2:9039, V-B:GLU:543:C:9874, V-A:HIS:456:CD2:4067, V-B:GLU:543:CA:9876, V-B:TYR:531:CE2:9765, V-A:GLU:543:C:4902, V-B:TYR:531:CZ:9766, H-A:HIS:456:ND1:4066"]

$$$$
4cb_Grossjean_2025
     RDKit          3D

 33 36  0  0  0  0  0  0  0  0999 V2000
  130.8040  127.2550   73.2430 C   0  0  0  0  0  0  0  0  0  0  0  0
  129.5770  127.1960   72.5290 O   0  0  0  0  0  0  0  0  0  0  0  0
  129.2980  128.0880   71.5440 C   0  0  0  0  0  0  0  0  0  0  0  0
  129.0430  129.2780   71.7550 O   0  0  0  0  0  0  0  0  0  0  0  0
  129.3320  127.4840   70.1690 C   0  0  0  0  0  0  0  0  0  0  0  0
  128.7570  126.2230   69.9620 C   0  0  0  0  0  0  0  0  0  0  0  0
  128.7660  125.6400   68.6990 C   0  0  0  0  0  0  0  0  0  0  0  0
  129.3530  126.3000   67.6190 C   0  0  0  0  0  0  0  0  0  0  0  0
  129.2910  125.6250   66.3840 N   0  0  0  0  0  0  0  0  0  0  0  0
  130.2880  125.2350   65.5530 C   0  0  0  0  0  0  0  0  0  0  0  0
  131.4870  125.3820   65.7930 O   0  0  0  0  0  0  0  0  0  0  0  0
  129.8500  124.5860   64.3130 C   0  0  0  0  0  0  0  0  0  0  0  0
  128.5750  125.3100   63.3360 S   0  0  0  0  0  0  0  0  0  0  0  0
  128.7060  124.0400   62.1420 C   0  0  0  0  0  0  0  0  0  0  0  0
  127.9370  124.0240   61.0570 N   0  0  0  0  0  0  0  0  0  0  0  0
  128.1180  123.0020   60.1810 C   0  0  0  0  0  0  0  0  0  0  0  0
  127.2390  123.0140   58.9630 C   0  0  0  0  0  0  0  0  0  0  0  0
  127.4600  122.1120   57.9100 C   0  0  0  0  0  0  0  0  0  0  0  0
  126.6510  122.1210   56.7760 C   0  0  0  0  0  0  0  0  0  0  0  0
  125.6070  123.0350   56.6800 C   0  0  0  0  0  0  0  0  0  0  0  0
  125.3680  123.9410   57.7090 C   0  0  0  0  0  0  0  0  0  0  0  0
  126.1800  123.9300   58.8390 C   0  0  0  0  0  0  0  0  0  0  0  0
  129.0560  121.9900   60.4110 C   0  0  0  0  0  0  0  0  0  0  0  0
  129.8700  121.9950   61.5530 C   0  0  0  0  0  0  0  0  0  0  0  0
  130.8800  120.8560   61.7420 C   0  0  0  0  0  0  0  0  0  0  0  0
  130.5650  120.0410   62.7520 F   0  0  0  0  0  0  0  0  0  0  0  0
  130.9340  120.1150   60.6360 F   0  0  0  0  0  0  0  0  0  0  0  0
  132.0870  121.3590   61.9960 F   0  0  0  0  0  0  0  0  0  0  0  0
  129.6990  123.0720   62.4710 C   0  0  0  0  0  0  0  0  0  0  0  0
  130.3420  123.4130   63.7170 C   0  0  0  0  0  0  0  0  0  0  0  0
  131.3440  122.6540   64.2660 N   0  0  0  0  0  0  0  0  0  0  0  0
  129.9270  127.5640   67.8160 C   0  0  0  0  0  0  0  0  0  0  0  0
  129.9170  128.1470   69.0800 C   0  0  0  0  0  0  0  0  0  0  0  0
  1  2  1  0
  2  3  1  0
  3  4  2  0
  3  5  1  0
  5  6  2  0
  6  7  1  0
  7  8  2  0
  8  9  1  0
  9 10  1  0
 10 11  2  0
 10 12  1  0
 12 13  1  0
 13 14  1  0
 14 15  2  0
 15 16  1  0
 16 17  1  0
 17 18  2  0
 18 19  1  0
 19 20  2  0
 20 21  1  0
 21 22  2  0
 16 23  2  0
 23 24  1  0
 24 25  1  0
 25 26  1  0
 25 27  1  0
 25 28  1  0
 24 29  2  0
 29 30  1  0
 30 31  1  0
  8 32  1  0
 32 33  2  0
 33  5  1  0
 30 12  2  0
 29 14  1  0
 22 17  1  0
M  END
>  <Binding energies>  (31) 
[-7.61]

>  <Ligand effiencies>  (31) 
[-0.2113888888888889]

>  <Interactions>  (31) 
["V-B:PRO:540:CB:9857, V-B:TYR:539:CD2:9846, V-B:PRO:540:CA:9855, V-B:TYR:539:C:9839, V-B:TYR:539:CE2:9848, V-B:PRO:540:N:9856, V-B:LEU:363:CD1:8160, V-B:ALA:541:CB:9864, V-B:GLU:543:CG:9879, V-B:GLU:543:CD:9880, V-A:LEU:475:CD1:4257, V-A:GLU:543:CB:4906, V-A:GLU:543:CD:4908, V-B:PRO:540:CD:9859, V-B:MET:535:CE:9807, V-B:GLU:543:CB:9878, V-A:HIS:456:CE1:4069, V-B:HIS:456:CE1:9041, V-A:TYR:484:CZ:4346, H-B:GLU:543:OE2:9882, H-A:TYR:484:OH:4347, V-B:HIS:456:CD2:9039, V-B:GLU:543:C:9874, V-A:HIS:456:CG:4065, V-B:GLU:543:CA:9876, V-B:TYR:531:CE2:9765, V-A:GLU:543:C:4902, V-B:ALA:541:CA:9862"]

$$$$
4cc_Grossjean_2025
     RDKit          3D

 31 34  0  0  0  0  0  0  0  0999 V2000
  130.2290  127.5970   72.2330 C   0  0  0  0  0  0  0  0  0  0  0  0
  129.2430  128.0660   71.3190 O   0  0  0  0  0  0  0  0  0  0  0  0
  129.2310  127.5730   70.0280 C   0  0  0  0  0  0  0  0  0  0  0  0
  129.0820  126.1930   69.8910 C   0  0  0  0  0  0  0  0  0  0  0  0
  129.0570  125.6050   68.6290 C   0  0  0  0  0  0  0  0  0  0  0  0
  129.1920  126.3920   67.4840 C   0  0  0  0  0  0  0  0  0  0  0  0
  129.1390  125.7110   66.2530 N   0  0  0  0  0  0  0  0  0  0  0  0
  130.1550  125.2480   65.4860 C   0  0  0  0  0  0  0  0  0  0  0  0
  131.3440  125.3280   65.7960 O   0  0  0  0  0  0  0  0  0  0  0  0
  129.7540  124.6210   64.2220 C   0  0  0  0  0  0  0  0  0  0  0  0
  128.4920  125.3490   63.2310 S   0  0  0  0  0  0  0  0  0  0  0  0
  128.6440  124.0860   62.0320 C   0  0  0  0  0  0  0  0  0  0  0  0
  127.8890  124.0750   60.9360 N   0  0  0  0  0  0  0  0  0  0  0  0
  128.0850  123.0580   60.0570 C   0  0  0  0  0  0  0  0  0  0  0  0
  127.2180  123.0710   58.8310 C   0  0  0  0  0  0  0  0  0  0  0  0
  127.3970  122.1180   57.8150 C   0  0  0  0  0  0  0  0  0  0  0  0
  126.5980  122.1240   56.6750 C   0  0  0  0  0  0  0  0  0  0  0  0
  125.6050  123.0870   56.5330 C   0  0  0  0  0  0  0  0  0  0  0  0
  125.4080  124.0450   57.5230 C   0  0  0  0  0  0  0  0  0  0  0  0
  126.2110  124.0360   58.6610 C   0  0  0  0  0  0  0  0  0  0  0  0
  129.0250  122.0500   60.2900 C   0  0  0  0  0  0  0  0  0  0  0  0
  129.8250  122.0510   61.4450 C   0  0  0  0  0  0  0  0  0  0  0  0
  130.8390  120.9180   61.6340 C   0  0  0  0  0  0  0  0  0  0  0  0
  130.6130  120.1880   62.7300 F   0  0  0  0  0  0  0  0  0  0  0  0
  130.7930  120.0910   60.5900 F   0  0  0  0  0  0  0  0  0  0  0  0
  132.0670  121.4250   61.7400 F   0  0  0  0  0  0  0  0  0  0  0  0
  129.6340  123.1170   62.3690 C   0  0  0  0  0  0  0  0  0  0  0  0
  130.2500  123.4480   63.6310 C   0  0  0  0  0  0  0  0  0  0  0  0
  131.2370  122.6800   64.1970 N   0  0  0  0  0  0  0  0  0  0  0  0
  129.3300  127.7820   67.6140 C   0  0  0  0  0  0  0  0  0  0  0  0
  129.3530  128.3650   68.8770 C   0  0  0  0  0  0  0  0  0  0  0  0
  1  2  1  0
  2  3  1  0
  3  4  2  0
  4  5  1  0
  5  6  2  0
  6  7  1  0
  7  8  1  0
  8  9  2  0
  8 10  1  0
 10 11  1  0
 11 12  1  0
 12 13  2  0
 13 14  1  0
 14 15  1  0
 15 16  2  0
 16 17  1  0
 17 18  2  0
 18 19  1  0
 19 20  2  0
 14 21  2  0
 21 22  1  0
 22 23  1  0
 23 24  1  0
 23 25  1  0
 23 26  1  0
 22 27  2  0
 27 28  1  0
 28 29  1  0
  6 30  1  0
 30 31  2  0
 31  3  1  0
 28 10  2  0
 27 12  1  0
 20 15  1  0
M  END
>  <Binding energies>  (32) 
[-7.12]

>  <Ligand effiencies>  (32) 
[-0.20941176470588235]

>  <Interactions>  (32) 
["V-B:PRO:540:CB:9857, V-B:TYR:539:CD2:9846, V-B:PRO:540:CA:9855, V-B:TYR:539:C:9839, V-B:TYR:539:CE2:9848, V-B:PRO:540:N:9856, V-B:LEU:363:CD1:8160, V-B:ALA:541:CB:9864, V-B:GLU:543:CG:9879, V-B:GLU:543:CD:9880, V-A:LEU:475:CD1:4257, V-A:GLU:543:CB:4906, V-A:GLU:543:CD:4908, V-A:TYR:484:CE2:4345, V-B:PRO:540:CD:9859, V-B:MET:535:CE:9807, V-B:GLU:543:CB:9878, V-A:HIS:456:CE1:4069, V-B:HIS:456:CE1:9041, V-A:TYR:484:CZ:4346, H-B:GLU:543:OE2:9882, H-A:TYR:484:OH:4347, V-B:GLU:543:C:9874, V-B:GLU:543:CA:9876, H-B:GLU:543:OE1:9881, V-B:TYR:531:CE2:9765, V-A:GLU:543:C:4902, V-B:ALA:541:CA:9862, V-B:TYR:531:CZ:9766"]

$$$$
4ce_Grossjean_2025
     RDKit          3D

 30 33  0  0  0  0  0  0  0  0999 V2000
  129.8660  128.1430   71.2000 C   0  0  0  0  0  0  0  0  0  0  0  0
  129.4320  128.2980   69.7540 C   0  0  0  0  0  0  0  0  0  0  0  0
  128.7120  129.4150   69.3230 C   0  0  0  0  0  0  0  0  0  0  0  0
  128.3530  129.4940   67.9760 C   0  0  0  0  0  0  0  0  0  0  0  0
  128.7200  128.4680   67.1040 C   0  0  0  0  0  0  0  0  0  0  0  0
  129.4370  127.3740   67.6030 C   0  0  0  0  0  0  0  0  0  0  0  0
  129.7980  126.3850   66.6710 N   0  0  0  0  0  0  0  0  0  0  0  0
  129.6840  125.0370   66.7760 C   0  0  0  0  0  0  0  0  0  0  0  0
  129.2030  124.4650   67.7550 O   0  0  0  0  0  0  0  0  0  0  0  0
  130.1750  124.2730   65.6270 C   0  0  0  0  0  0  0  0  0  0  0  0
  129.6760  122.5980   65.3970 S   0  0  0  0  0  0  0  0  0  0  0  0
  130.5940  122.4810   63.9160 C   0  0  0  0  0  0  0  0  0  0  0  0
  130.6180  121.3580   63.2010 N   0  0  0  0  0  0  0  0  0  0  0  0
  131.3480  121.3670   62.0550 C   0  0  0  0  0  0  0  0  0  0  0  0
  131.3490  120.0890   61.2700 C   0  0  0  0  0  0  0  0  0  0  0  0
  132.4050  119.7870   60.3950 C   0  0  0  0  0  0  0  0  0  0  0  0
  132.4100  118.6050   59.6580 C   0  0  0  0  0  0  0  0  0  0  0  0
  131.3570  117.7060   59.7880 C   0  0  0  0  0  0  0  0  0  0  0  0
  130.2980  117.9820   60.6470 C   0  0  0  0  0  0  0  0  0  0  0  0
  130.2960  119.1660   61.3800 C   0  0  0  0  0  0  0  0  0  0  0  0
  132.0670  122.4940   61.6440 C   0  0  0  0  0  0  0  0  0  0  0  0
  132.0530  123.6820   62.3940 C   0  0  0  0  0  0  0  0  0  0  0  0
  132.8620  124.8800   61.8850 C   0  0  0  0  0  0  0  0  0  0  0  0
  133.4740  124.6430   60.7230 F   0  0  0  0  0  0  0  0  0  0  0  0
  132.0540  125.9250   61.7040 F   0  0  0  0  0  0  0  0  0  0  0  0
  133.8020  125.1990   62.7740 F   0  0  0  0  0  0  0  0  0  0  0  0
  131.2780  123.6890   63.5890 C   0  0  0  0  0  0  0  0  0  0  0  0
  131.0210  124.6970   64.5880 C   0  0  0  0  0  0  0  0  0  0  0  0
  131.5560  125.9580   64.5250 N   0  0  0  0  0  0  0  0  0  0  0  0
  129.7950  127.2910   68.9180 N   0  0  0  0  0  0  0  0  0  0  0  0
  1  2  1  0
  2  3  2  0
  3  4  1  0
  4  5  2  0
  5  6  1  0
  6  7  1  0
  7  8  1  0
  8  9  2  0
  8 10  1  0
 10 11  1  0
 11 12  1  0
 12 13  2  0
 13 14  1  0
 14 15  1  0
 15 16  2  0
 16 17  1  0
 17 18  2  0
 18 19  1  0
 19 20  2  0
 14 21  2  0
 21 22  1  0
 22 23  1  0
 23 24  1  0
 23 25  1  0
 23 26  1  0
 22 27  2  0
 27 28  1  0
 28 29  1  0
  6 30  2  0
 30  2  1  0
 28 10  2  0
 27 12  1  0
 20 15  1  0
M  END
>  <Binding energies>  (33) 
[-6.77]

>  <Ligand effiencies>  (33) 
[-0.20515151515151514]

>  <Interactions>  (33) 
["V-A:ILE:369:CG2:3236, V-A:ASP:366:CG:3212, V-B:TYR:539:CD2:9846, V-B:TYR:539:C:9839, V-B:TYR:539:CE2:9848, V-B:ALA:541:CB:9864, V-A:ARG:545:CZ:4926, V-B:GLU:543:CG:9879, V-B:GLU:543:CD:9880, V-A:LEU:475:CD1:4257, V-A:GLU:543:CB:4906, V-A:GLU:543:CD:4908, V-A:TYR:484:CE2:4345, H-A:GLU:543:OE2:4910, H-A:GLU:543:OE1:4909, V-B:GLU:543:CB:9878, V-A:HIS:456:CE1:4069, V-B:HIS:456:CE1:9041, V-A:TYR:484:CZ:4346, V-A:PRO:482:CG:4326, H-A:TYR:484:OH:4347, V-A:ASP:366:CB:3211, V-A:GLU:543:CG:4907, V-B:TYR:484:CE2:9317, V-A:GLU:543:C:4902, V-A:GLU:543:CA:4904, V-B:TYR:539:CB:9843, V-A:PRO:482:CB:4325, V-A:HIS:383:CE1:3392, V-A:ASP:366:CA:3209, V-A:HIS:383:CD2:3391"]

$$$$
4cf_Grossjean_2025
     RDKit          3D

 29 32  0  0  0  0  0  0  0  0999 V2000
  131.3030  122.6090   64.1860 N   0  0  0  0  0  0  0  0  0  0  0  0
  130.3260  123.4010   63.6390 C   0  0  0  0  0  0  0  0  0  0  0  0
  129.8600  124.5780   64.2470 C   0  0  0  0  0  0  0  0  0  0  0  0
  130.2580  125.1630   65.5310 C   0  0  0  0  0  0  0  0  0  0  0  0
  131.4330  125.1240   65.9000 O   0  0  0  0  0  0  0  0  0  0  0  0
  129.2580  125.7390   66.2410 N   0  0  0  0  0  0  0  0  0  0  0  0
  129.2910  126.3380   67.5150 C   0  0  0  0  0  0  0  0  0  0  0  0
  128.6790  125.8240   68.6750 C   0  0  0  0  0  0  0  0  0  0  0  0
  128.7770  126.5290   69.8760 C   0  0  0  0  0  0  0  0  0  0  0  0
  129.4820  127.7320   69.8900 C   0  0  0  0  0  0  0  0  0  0  0  0
  130.0750  128.2520   68.7860 N   0  0  0  0  0  0  0  0  0  0  0  0
  129.9700  127.5560   67.6250 C   0  0  0  0  0  0  0  0  0  0  0  0
  128.6110  125.3470   63.2700 S   0  0  0  0  0  0  0  0  0  0  0  0
  128.7160  124.0860   62.0640 C   0  0  0  0  0  0  0  0  0  0  0  0
  127.9450  124.0980   60.9780 N   0  0  0  0  0  0  0  0  0  0  0  0
  128.0880  123.0650   60.1050 C   0  0  0  0  0  0  0  0  0  0  0  0
  127.2010  123.1010   58.8950 C   0  0  0  0  0  0  0  0  0  0  0  0
  126.2390  124.1110   58.7400 C   0  0  0  0  0  0  0  0  0  0  0  0
  125.4130  124.1520   57.6200 C   0  0  0  0  0  0  0  0  0  0  0  0
  125.5410  123.1790   56.6340 C   0  0  0  0  0  0  0  0  0  0  0  0
  126.4880  122.1680   56.7600 C   0  0  0  0  0  0  0  0  0  0  0  0
  127.3120  122.1320   57.8810 C   0  0  0  0  0  0  0  0  0  0  0  0
  129.0190  122.0430   60.3140 C   0  0  0  0  0  0  0  0  0  0  0  0
  129.8390  122.0250   61.4530 C   0  0  0  0  0  0  0  0  0  0  0  0
  130.8340  120.8710   61.6220 C   0  0  0  0  0  0  0  0  0  0  0  0
  130.6020  120.1330   62.7100 F   0  0  0  0  0  0  0  0  0  0  0  0
  130.7660  120.0590   60.5670 F   0  0  0  0  0  0  0  0  0  0  0  0
  132.0730  121.3540   61.7250 F   0  0  0  0  0  0  0  0  0  0  0  0
  129.6860  123.0920   62.3840 C   0  0  0  0  0  0  0  0  0  0  0  0
  1  2  1  0
  2  3  2  0
  3  4  1  0
  4  5  2  0
  4  6  1  0
  6  7  1  0
  7  8  2  0
  8  9  1  0
  9 10  2  0
 10 11  1  0
 11 12  2  0
  3 13  1  0
 13 14  1  0
 14 15  2  0
 15 16  1  0
 16 17  1  0
 17 18  2  0
 18 19  1  0
 19 20  2  0
 20 21  1  0
 21 22  2  0
 16 23  2  0
 23 24  1  0
 24 25  1  0
 25 26  1  0
 25 27  1  0
 25 28  1  0
 24 29  2  0
 29  2  1  0
 12  7  1  0
 29 14  1  0
 22 17  1  0
M  END
>  <Binding energies>  (34) 
[-7.0]

>  <Ligand effiencies>  (34) 
[-0.21875]

>  <Interactions>  (34) 
["V-B:PRO:540:CB:9857, V-B:TYR:539:CD2:9846, V-B:PRO:540:CA:9855, V-B:TYR:539:C:9839, V-B:TYR:539:CE2:9848, V-B:PRO:540:N:9856, V-B:LEU:363:CD1:8160, V-B:ALA:541:CB:9864, V-B:GLU:543:CG:9879, V-B:GLU:543:CD:9880, V-A:LEU:475:CD1:4257, V-A:GLU:543:CB:4906, V-A:GLU:543:CD:4908, V-B:PRO:540:CD:9859, V-B:MET:535:CE:9807, V-B:GLU:543:CB:9878, V-A:HIS:456:CE1:4069, V-B:HIS:456:CE1:9041, V-A:TYR:484:CZ:4346, H-B:GLU:543:OE2:9882, H-A:TYR:484:OH:4347, V-B:GLU:543:C:9874, V-B:GLU:543:CA:9876, V-B:TYR:531:CE2:9765, V-B:ALA:541:CA:9862, V-B:TYR:531:CZ:9766"]

$$$$
4ci_Grossjean_2025
     RDKit          3D

 28 31  0  0  0  0  0  0  0  0999 V2000
  131.9590  125.9860   64.9480 N   0  0  0  0  0  0  0  0  0  0  0  0
  131.2600  124.8080   64.9060 C   0  0  0  0  0  0  0  0  0  0  0  0
  130.2370  124.4880   65.8130 C   0  0  0  0  0  0  0  0  0  0  0  0
  129.7140  125.2910   66.9210 C   0  0  0  0  0  0  0  0  0  0  0  0
  129.2060  124.7500   67.9060 O   0  0  0  0  0  0  0  0  0  0  0  0
  129.8220  126.6350   66.7700 N   0  0  0  0  0  0  0  0  0  0  0  0
  129.4100  127.6220   67.6560 C   0  0  0  0  0  0  0  0  0  0  0  0
  128.5950  128.6900   67.2830 C   0  0  0  0  0  0  0  0  0  0  0  0
  128.4230  129.4280   68.4300 C   0  0  0  0  0  0  0  0  0  0  0  0
  129.0990  128.8350   69.4430 O   0  0  0  0  0  0  0  0  0  0  0  0
  129.7210  127.6920   68.9400 N   0  0  0  0  0  0  0  0  0  0  0  0
  129.5490  122.9040   65.4630 S   0  0  0  0  0  0  0  0  0  0  0  0
  130.6390  122.6780   64.1150 C   0  0  0  0  0  0  0  0  0  0  0  0
  130.6110  121.5710   63.3770 N   0  0  0  0  0  0  0  0  0  0  0  0
  131.4950  121.4870   62.3480 C   0  0  0  0  0  0  0  0  0  0  0  0
  131.4430  120.2240   61.5360 C   0  0  0  0  0  0  0  0  0  0  0  0
  132.4770  119.9000   60.6420 C   0  0  0  0  0  0  0  0  0  0  0  0
  132.4350  118.7300   59.8880 C   0  0  0  0  0  0  0  0  0  0  0  0
  131.3520  117.8660   60.0150 C   0  0  0  0  0  0  0  0  0  0  0  0
  130.3130  118.1640   60.8890 C   0  0  0  0  0  0  0  0  0  0  0  0
  130.3580  119.3350   61.6400 C   0  0  0  0  0  0  0  0  0  0  0  0
  132.4120  122.5080   62.0790 C   0  0  0  0  0  0  0  0  0  0  0  0
  132.4500  123.6800   62.8510 C   0  0  0  0  0  0  0  0  0  0  0  0
  133.4810  124.7580   62.4990 C   0  0  0  0  0  0  0  0  0  0  0  0
  134.2630  125.0910   63.5280 F   0  0  0  0  0  0  0  0  0  0  0  0
  134.2740  124.3180   61.5220 F   0  0  0  0  0  0  0  0  0  0  0  0
  132.8570  125.8650   62.0950 F   0  0  0  0  0  0  0  0  0  0  0  0
  131.5190  123.7830   63.9240 C   0  0  0  0  0  0  0  0  0  0  0  0
  1  2  1  0
  2  3  2  0
  3  4  1  0
  4  5  2  0
  4  6  1  0
  6  7  1  0
  7  8  1  0
  8  9  2  0
  9 10  1  0
 10 11  1  0
  3 12  1  0
 12 13  1  0
 13 14  2  0
 14 15  1  0
 15 16  1  0
 16 17  2  0
 17 18  1  0
 18 19  2  0
 19 20  1  0
 20 21  2  0
 15 22  2  0
 22 23  1  0
 23 24  1  0
 24 25  1  0
 24 26  1  0
 24 27  1  0
 23 28  2  0
 28  2  1  0
 11  7  2  0
 28 13  1  0
 21 16  1  0
M  END
>  <Binding energies>  (35) 
[-6.88]

>  <Ligand effiencies>  (35) 
[-0.22193548387096773]

>  <Interactions>  (35) 
["V-A:ASP:366:CG:3212, V-B:TYR:539:CD2:9846, V-B:TYR:539:C:9839, V-B:TYR:539:CE2:9848, V-B:ALA:541:CB:9864, V-A:ARG:545:CZ:4926, V-B:GLU:543:CG:9879, V-B:GLU:543:CD:9880, V-A:LEU:475:CD1:4257, V-A:GLU:543:CB:4906, V-A:GLU:543:CD:4908, V-A:TYR:484:CE2:4345, H-A:GLU:543:OE2:4910, H-A:GLU:543:OE1:4909, V-B:GLU:543:CB:9878, V-B:HIS:456:CE1:9041, V-A:TYR:484:CZ:4346, V-A:PRO:482:CG:4326, H-A:TYR:484:OH:4347, V-A:GLY:453:CA:4043, V-A:GLY:453:C:4041, V-A:ILE:369:CD1:3238, V-A:GLU:543:CG:4907, V-B:TYR:484:CE2:9317, V-A:GLU:543:C:4902, V-A:GLU:543:CA:4904, V-B:TYR:539:CB:9843, V-A:PRO:482:CB:4325, V-A:HIS:383:CE1:3392, V-A:HIS:383:CD2:3391"]

$$$$
8a_Ghoteimi_2023
     RDKit          3D

 40 44  0  0  0  0  0  0  0  0999 V2000
  130.8930  118.5800   60.8640 C   0  0  0  0  0  0  0  0  0  0  0  0
  132.4070  118.3490   60.9010 C   0  0  0  0  0  0  0  0  0  0  0  0
  133.0710  119.4840   60.3580 O   0  0  0  0  0  0  0  0  0  0  0  0
  133.8560  120.2750   61.1350 C   0  0  0  0  0  0  0  0  0  0  0  0
  135.0860  120.1740   61.1820 O   0  0  0  0  0  0  0  0  0  0  0  0
  133.0790  121.2790   61.9350 C   0  0  0  0  0  0  0  0  0  0  0  0
  133.6570  121.8300   63.0860 C   0  0  0  0  0  0  0  0  0  0  0  0
  132.9610  122.7630   63.8500 C   0  0  0  0  0  0  0  0  0  0  0  0
  131.6760  123.1650   63.4820 C   0  0  0  0  0  0  0  0  0  0  0  0
  131.0680  124.1090   64.3330 N   0  0  0  0  0  0  0  0  0  0  0  0
  129.7750  124.5080   64.4170 C   0  0  0  0  0  0  0  0  0  0  0  0
  128.8670  124.0750   63.7080 O   0  0  0  0  0  0  0  0  0  0  0  0
  129.4990  125.5190   65.4420 C   0  0  0  0  0  0  0  0  0  0  0  0
  130.0540  125.2830   67.0990 S   0  0  0  0  0  0  0  0  0  0  0  0
  129.3530  126.8040   67.6010 C   0  0  0  0  0  0  0  0  0  0  0  0
  129.4200  127.2230   68.8650 N   0  0  0  0  0  0  0  0  0  0  0  0
  128.8380  128.4170   69.1500 C   0  0  0  0  0  0  0  0  0  0  0  0
  128.9080  128.8580   70.5770 C   0  0  0  0  0  0  0  0  0  0  0  0
  128.3510  130.0790   70.9850 C   0  0  0  0  0  0  0  0  0  0  0  0
  128.4300  130.4890   72.3130 C   0  0  0  0  0  0  0  0  0  0  0  0
  129.0620  129.6910   73.2650 C   0  0  0  0  0  0  0  0  0  0  0  0
  129.0940  130.1800   74.5580 O   0  0  0  0  0  0  0  0  0  0  0  0
  127.9580  130.8710   75.0650 C   0  0  0  0  0  0  0  0  0  0  0  0
  129.6160  128.4660   72.8680 C   0  0  0  0  0  0  0  0  0  0  0  0
  129.5390  128.0590   71.5390 C   0  0  0  0  0  0  0  0  0  0  0  0
  128.2000  129.1880   68.1760 C   0  0  0  0  0  0  0  0  0  0  0  0
  128.1410  128.7600   66.8450 C   0  0  0  0  0  0  0  0  0  0  0  0
  127.4790  129.6330   65.8430 C   0  0  0  0  0  0  0  0  0  0  0  0
  126.3610  129.1770   65.1420 C   0  0  0  0  0  0  0  0  0  0  0  0
  125.7250  129.9990   64.2170 C   0  0  0  0  0  0  0  0  0  0  0  0
  126.1910  131.2930   63.9800 C   0  0  0  0  0  0  0  0  0  0  0  0
  125.4970  132.0370   63.0450 O   0  0  0  0  0  0  0  0  0  0  0  0
  126.2210  132.8330   62.1150 C   0  0  0  0  0  0  0  0  0  0  0  0
  127.3090  131.7570   64.6900 C   0  0  0  0  0  0  0  0  0  0  0  0
  127.9430  130.9320   65.6160 C   0  0  0  0  0  0  0  0  0  0  0  0
  128.7250  127.5010   66.5270 C   0  0  0  0  0  0  0  0  0  0  0  0
  128.8080  126.7340   65.3090 C   0  0  0  0  0  0  0  0  0  0  0  0
  128.2420  127.1570   64.1320 N   0  0  0  0  0  0  0  0  0  0  0  0
  131.0920  122.6220   62.3280 C   0  0  0  0  0  0  0  0  0  0  0  0
  131.7890  121.6880   61.5650 C   0  0  0  0  0  0  0  0  0  0  0  0
  1  2  1  0
  2  3  1  0
  3  4  1  0
  4  5  2  0
  4  6  1  0
  6  7  2  0
  7  8  1  0
  8  9  2  0
  9 10  1  0
 10 11  1  0
 11 12  2  0
 11 13  1  0
 13 14  1  0
 14 15  1  0
 15 16  2  0
 16 17  1  0
 17 18  1  0
 18 19  2  0
 19 20  1  0
 20 21  2  0
 21 22  1  0
 22 23  1  0
 21 24  1  0
 24 25  2  0
 17 26  2  0
 26 27  1  0
 27 28  1  0
 28 29  2  0
 29 30  1  0
 30 31  2  0
 31 32  1  0
 32 33  1  0
 31 34  1  0
 34 35  2  0
 27 36  2  0
 36 37  1  0
 37 38  1  0
  9 39  1  0
 39 40  2  0
 40  6  1  0
 37 13  2  0
 36 15  1  0
 25 18  1  0
 35 28  1  0
M  END
>  <Binding energies>  (36) 
[-6.96]

>  <Ligand effiencies>  (36) 
[-0.16186046511627908]

>  <Interactions>  (36) 
["V-A:ILE:369:CG2:3236, V-B:TYR:539:CD2:9846, V-A:SER:385:C:3404, V-A:GLY:454:CA:4048, V-B:GLU:543:CG:9879, V-B:GLU:543:CD:9880, V-A:LEU:475:CD1:4257, V-A:GLU:543:CB:4906, V-A:GLU:543:CD:4908, V-A:TYR:484:CE2:4345, H-A:GLU:543:OE1:4909, V-B:GLU:543:CB:9878, V-A:HIS:456:CE1:4069, V-B:HIS:456:CE1:9041, V-A:TYR:484:CZ:4346, V-A:PRO:482:CG:4326, H-B:GLU:543:OE2:9882, H-A:TYR:484:OH:4347, V-A:GLU:543:CG:4907, V-B:TYR:484:CE2:9317, V-B:HIS:456:CD2:9039, V-A:ALA:541:CB:4892, H-A:LYS:547:NZ:4951, H-B:GLU:543:OE1:9881, V-A:GLU:543:C:4902, V-B:LEU:475:CD1:9229, V-B:HIS:456:CG:9037, V-B:TYR:484:CD2:9315"]

$$$$
8c_Ghoteimi_2023
     RDKit          3D

 34 38  0  0  0  0  0  0  0  0999 V2000
  128.4260  127.2850   75.7560 C   0  0  0  0  0  0  0  0  0  0  0  0
  129.5860  127.5400   74.9710 O   0  0  0  0  0  0  0  0  0  0  0  0
  129.4810  127.5330   73.5930 C   0  0  0  0  0  0  0  0  0  0  0  0
  128.8940  126.4080   73.0180 C   0  0  0  0  0  0  0  0  0  0  0  0
  128.7500  126.3140   71.6370 C   0  0  0  0  0  0  0  0  0  0  0  0
  129.1900  127.3440   70.7940 C   0  0  0  0  0  0  0  0  0  0  0  0
  129.0410  127.2470   69.3080 C   0  0  0  0  0  0  0  0  0  0  0  0
  128.3440  128.2090   68.5730 C   0  0  0  0  0  0  0  0  0  0  0  0
  128.2220  128.0960   67.1840 C   0  0  0  0  0  0  0  0  0  0  0  0
  127.4690  129.1280   66.4350 C   0  0  0  0  0  0  0  0  0  0  0  0
  127.9930  130.4150   66.2890 C   0  0  0  0  0  0  0  0  0  0  0  0
  127.2890  131.3800   65.5770 C   0  0  0  0  0  0  0  0  0  0  0  0
  126.0530  131.0790   65.0050 C   0  0  0  0  0  0  0  0  0  0  0  0
  125.4270  132.0990   64.3140 O   0  0  0  0  0  0  0  0  0  0  0  0
  125.4550  132.0940   62.8910 C   0  0  0  0  0  0  0  0  0  0  0  0
  125.5250  129.7870   65.1560 C   0  0  0  0  0  0  0  0  0  0  0  0
  126.2310  128.8210   65.8670 C   0  0  0  0  0  0  0  0  0  0  0  0
  128.8310  126.9810   66.5480 C   0  0  0  0  0  0  0  0  0  0  0  0
  128.9050  126.5620   65.1740 C   0  0  0  0  0  0  0  0  0  0  0  0
  128.3230  127.2750   64.1550 N   0  0  0  0  0  0  0  0  0  0  0  0
  129.6220  125.3710   64.9800 C   0  0  0  0  0  0  0  0  0  0  0  0
  129.8960  124.6650   63.7260 C   0  0  0  0  0  0  0  0  0  0  0  0
  131.0500  124.5510   63.3070 O   0  0  0  0  0  0  0  0  0  0  0  0
  128.8080  124.1670   63.0890 N   0  0  0  0  0  0  0  0  0  0  0  0
  128.7910  123.4610   61.8950 C   0  0  0  0  0  0  0  0  0  0  0  0
  128.6400  122.1650   61.7250 N   0  0  0  0  0  0  0  0  0  0  0  0
  128.6720  121.8370   60.4490 C   0  0  0  0  0  0  0  0  0  0  0  0
  128.8530  122.8810   59.5480 C   0  0  0  0  0  0  0  0  0  0  0  0
  128.9900  124.3720   60.4330 S   0  0  0  0  0  0  0  0  0  0  0  0
  130.2300  124.7370   66.5100 S   0  0  0  0  0  0  0  0  0  0  0  0
  129.5200  126.0660   67.3960 C   0  0  0  0  0  0  0  0  0  0  0  0
  129.6350  126.1730   68.7200 N   0  0  0  0  0  0  0  0  0  0  0  0
  129.7770  128.4740   71.3800 C   0  0  0  0  0  0  0  0  0  0  0  0
  129.9240  128.5710   72.7610 C   0  0  0  0  0  0  0  0  0  0  0  0
  1  2  1  0
  2  3  1  0
  3  4  2  0
  4  5  1  0
  5  6  2  0
  6  7  1  0
  7  8  2  0
  8  9  1  0
  9 10  1  0
 10 11  2  0
 11 12  1  0
 12 13  2  0
 13 14  1  0
 14 15  1  0
 13 16  1  0
 16 17  2  0
  9 18  2  0
 18 19  1  0
 19 20  1  0
 19 21  2  0
 21 22  1  0
 22 23  2  0
 22 24  1  0
 24 25  1  0
 25 26  2  0
 26 27  1  0
 27 28  2  0
 28 29  1  0
 21 30  1  0
 30 31  1  0
 31 32  2  0
  6 33  1  0
 33 34  2  0
 34  3  1  0
 32  7  1  0
 17 10  1  0
 31 18  1  0
 29 25  1  0
M  END
>  <Binding energies>  (37) 
[-6.59]

>  <Ligand effiencies>  (37) 
[-0.1781081081081081]

>  <Interactions>  (37) 
["H-B:ALA:541:N:9863, V-B:PRO:540:CA:9855, V-B:TYR:539:C:9839, V-B:PRO:540:N:9856, V-B:GLU:543:CG:9879, V-B:GLU:543:CD:9880, V-A:GLU:543:CB:4906, V-A:GLU:543:CD:4908, V-A:TYR:484:CE2:4345, H-A:GLU:543:OE1:4909, V-B:GLU:543:CB:9878, V-A:HIS:456:CE1:4069, V-B:HIS:456:CE1:9041, V-A:TYR:484:CZ:4346, H-B:GLU:543:OE2:9882, V-A:GLU:543:CG:4907, V-B:TYR:484:CE2:9317, V-B:TYR:484:CZ:9318, V-B:HIS:456:CD2:9039, V-B:PRO:540:C:9853, H-A:LYS:547:NZ:4951, H-B:GLU:543:OE1:9881, V-A:GLU:543:C:4902, H-B:TYR:484:OH:9319, V-B:LEU:475:CD1:9229, H-B:GLY:454:N:9021"]

$$$$
8d_Ghoteimi_2023
     RDKit          3D

 30 33  0  0  0  0  0  0  0  0999 V2000
  125.9450  122.0050   56.5520 C   0  0  0  0  0  0  0  0  0  0  0  0
  126.7430  122.3260   57.6820 O   0  0  0  0  0  0  0  0  0  0  0  0
  126.6970  123.5650   58.2380 C   0  0  0  0  0  0  0  0  0  0  0  0
  126.0490  124.5060   57.7730 O   0  0  0  0  0  0  0  0  0  0  0  0
  127.5090  123.6740   59.4690 C   0  0  0  0  0  0  0  0  0  0  0  0
  127.2150  124.9940   60.6030 S   0  0  0  0  0  0  0  0  0  0  0  0
  128.4850  124.4220   61.6590 C   0  0  0  0  0  0  0  0  0  0  0  0
  128.7890  125.0470   62.7970 N   0  0  0  0  0  0  0  0  0  0  0  0
  129.7930  124.5170   63.5460 C   0  0  0  0  0  0  0  0  0  0  0  0
  130.1180  125.2400   64.8140 C   0  0  0  0  0  0  0  0  0  0  0  0
  129.1080  125.6210   65.7100 C   0  0  0  0  0  0  0  0  0  0  0  0
  129.4150  126.2940   66.8880 C   0  0  0  0  0  0  0  0  0  0  0  0
  130.7370  126.6060   67.2030 C   0  0  0  0  0  0  0  0  0  0  0  0
  130.9480  127.2750   68.3930 O   0  0  0  0  0  0  0  0  0  0  0  0
  129.9090  128.0890   68.9260 C   0  0  0  0  0  0  0  0  0  0  0  0
  131.7550  126.2290   66.3150 C   0  0  0  0  0  0  0  0  0  0  0  0
  131.4440  125.5540   65.1370 C   0  0  0  0  0  0  0  0  0  0  0  0
  130.4920  123.3720   63.1530 C   0  0  0  0  0  0  0  0  0  0  0  0
  130.1710  122.7140   61.9610 C   0  0  0  0  0  0  0  0  0  0  0  0
  130.9240  121.4980   61.5760 C   0  0  0  0  0  0  0  0  0  0  0  0
  132.2450  121.6000   61.1360 C   0  0  0  0  0  0  0  0  0  0  0  0
  132.9500  120.4580   60.7660 C   0  0  0  0  0  0  0  0  0  0  0  0
  132.3490  119.2000   60.8340 C   0  0  0  0  0  0  0  0  0  0  0  0
  133.1240  118.1250   60.4470 O   0  0  0  0  0  0  0  0  0  0  0  0
  134.3320  118.3600   59.7320 C   0  0  0  0  0  0  0  0  0  0  0  0
  131.0210  119.1000   61.2820 C   0  0  0  0  0  0  0  0  0  0  0  0
  130.3180  120.2430   61.6500 C   0  0  0  0  0  0  0  0  0  0  0  0
  129.1240  123.2490   61.1650 C   0  0  0  0  0  0  0  0  0  0  0  0
  128.5460  122.8450   59.9130 C   0  0  0  0  0  0  0  0  0  0  0  0
  128.9820  121.7460   59.2180 N   0  0  0  0  0  0  0  0  0  0  0  0
  1  2  1  0
  2  3  1  0
  3  4  2  0
  3  5  1  0
  5  6  1  0
  6  7  1  0
  7  8  2  0
  8  9  1  0
  9 10  1  0
 10 11  2  0
 11 12  1  0
 12 13  2  0
 13 14  1  0
 14 15  1  0
 13 16  1  0
 16 17  2  0
  9 18  2  0
 18 19  1  0
 19 20  1  0
 20 21  2  0
 21 22  1  0
 22 23  2  0
 23 24  1  0
 24 25  1  0
 23 26  1  0
 26 27  2  0
 19 28  2  0
 28 29  1  0
 29 30  1  0
 29  5  2  0
 28  7  1  0
 17 10  1  0
 27 20  1  0
M  END
>  <Binding energies>  (38) 
[-6.9]

>  <Ligand effiencies>  (38) 
[-0.215625]

>  <Interactions>  (38) 
["V-B:PRO:540:CB:9857, V-A:ILE:369:CG2:3236, V-B:TYR:539:CD2:9846, V-A:SER:385:C:3404, V-A:SER:385:CB:3408, V-A:SER:385:CA:3406, V-B:PRO:540:CA:9855, V-B:TYR:539:C:9839, V-B:TYR:539:CE2:9848, V-B:PRO:540:N:9856, V-B:LEU:363:CD1:8160, V-B:ALA:541:CB:9864, V-B:GLU:543:CG:9879, V-B:GLU:543:CD:9880, V-A:LEU:475:CD1:4257, V-A:GLU:543:CB:4906, V-A:GLU:543:CD:4908, V-B:PRO:540:CD:9859, V-B:MET:535:CE:9807, V-B:GLU:543:CB:9878, V-A:HIS:456:CE1:4069, H-B:TYR:531:OH:9767, H-A:HIS:383:NE2:3393, H-A:SER:385:OG:3409, H-B:TYR:539:O:9840, V-A:GLU:543:C:4902, V-A:HIS:383:CD2:3391"]

$$$$
9a_Ghoteimi_2023
     RDKit          3D

 48 54  0  0  0  0  0  0  0  0999 V2000
  136.5330  119.4170   56.9140 C   0  0  0  0  0  0  0  0  0  0  0  0
  136.5970  118.3660   58.0280 C   0  0  0  0  0  0  0  0  0  0  0  0
  135.3080  117.7950   58.2140 O   0  0  0  0  0  0  0  0  0  0  0  0
  134.1930  118.4110   57.7430 C   0  0  0  0  0  0  0  0  0  0  0  0
  133.7320  118.2120   56.6140 O   0  0  0  0  0  0  0  0  0  0  0  0
  133.5800  119.3630   58.7280 C   0  0  0  0  0  0  0  0  0  0  0  0
  133.4150  118.9600   60.0600 C   0  0  0  0  0  0  0  0  0  0  0  0
  132.8480  119.8190   60.9960 C   0  0  0  0  0  0  0  0  0  0  0  0
  132.4350  121.0980   60.6240 C   0  0  0  0  0  0  0  0  0  0  0  0
  131.8750  121.8800   61.6530 N   0  0  0  0  0  0  0  0  0  0  0  0
  130.9700  121.5550   62.6090 C   0  0  0  0  0  0  0  0  0  0  0  0
  130.4620  120.4400   62.7310 O   0  0  0  0  0  0  0  0  0  0  0  0
  130.6170  122.6390   63.5310 C   0  0  0  0  0  0  0  0  0  0  0  0
  130.5340  122.3390   65.2680 S   0  0  0  0  0  0  0  0  0  0  0  0
  130.1070  124.0050   65.5810 C   0  0  0  0  0  0  0  0  0  0  0  0
  129.9110  124.4550   66.8190 N   0  0  0  0  0  0  0  0  0  0  0  0
  129.5940  125.7700   66.9550 C   0  0  0  0  0  0  0  0  0  0  0  0
  129.3900  126.2560   68.3540 C   0  0  0  0  0  0  0  0  0  0  0  0
  129.6900  127.5780   68.6980 C   0  0  0  0  0  0  0  0  0  0  0  0
  129.5010  128.0390   69.9990 C   0  0  0  0  0  0  0  0  0  0  0  0
  128.9930  127.1970   71.0000 C   0  0  0  0  0  0  0  0  0  0  0  0
  128.8160  127.6400   72.3150 N   0  0  0  0  0  0  0  0  0  0  0  0
  128.9480  129.0670   72.6730 C   0  0  0  0  0  0  0  0  0  0  0  0
  129.0810  129.3190   74.1900 C   0  0  0  0  0  0  0  0  0  0  0  0
  127.9970  128.7200   74.8790 O   0  0  0  0  0  0  0  0  0  0  0  0
  127.9610  127.3160   74.6720 C   0  0  0  0  0  0  0  0  0  0  0  0
  127.7890  127.0100   73.1700 C   0  0  0  0  0  0  0  0  0  0  0  0
  128.7070  125.8690   70.6530 C   0  0  0  0  0  0  0  0  0  0  0  0
  128.8990  125.4080   69.3530 C   0  0  0  0  0  0  0  0  0  0  0  0
  129.4480  126.6200   65.8560 C   0  0  0  0  0  0  0  0  0  0  0  0
  129.6340  126.1460   64.5520 C   0  0  0  0  0  0  0  0  0  0  0  0
  129.4310  127.0820   63.4170 C   0  0  0  0  0  0  0  0  0  0  0  0
  130.2150  126.9850   62.2650 C   0  0  0  0  0  0  0  0  0  0  0  0
  130.0140  127.8540   61.1970 C   0  0  0  0  0  0  0  0  0  0  0  0
  129.0090  128.8340   61.2450 C   0  0  0  0  0  0  0  0  0  0  0  0
  128.7960  129.7250   60.1910 N   0  0  0  0  0  0  0  0  0  0  0  0
  127.8400  130.8370   60.3690 C   0  0  0  0  0  0  0  0  0  0  0  0
  127.9810  131.9410   59.3010 C   0  0  0  0  0  0  0  0  0  0  0  0
  127.8670  131.3790   58.0030 O   0  0  0  0  0  0  0  0  0  0  0  0
  128.8720  130.4070   57.7610 C   0  0  0  0  0  0  0  0  0  0  0  0
  128.7560  129.2620   58.7890 C   0  0  0  0  0  0  0  0  0  0  0  0
  128.2260  128.9210   62.4050 C   0  0  0  0  0  0  0  0  0  0  0  0
  128.4300  128.0540   63.4750 C   0  0  0  0  0  0  0  0  0  0  0  0
  130.0020  124.7800   64.3890 C   0  0  0  0  0  0  0  0  0  0  0  0
  130.3220  123.9780   63.2330 C   0  0  0  0  0  0  0  0  0  0  0  0
  130.3480  124.4930   61.9620 N   0  0  0  0  0  0  0  0  0  0  0  0
  132.5990  121.5130   59.2930 C   0  0  0  0  0  0  0  0  0  0  0  0
  133.1660  120.6520   58.3570 C   0  0  0  0  0  0  0  0  0  0  0  0
  1  2  1  0
  2  3  1  0
  3  4  1  0
  4  5  2  0
  4  6  1  0
  6  7  2  0
  7  8  1  0
  8  9  2  0
  9 10  1  0
 10 11  1  0
 11 12  2  0
 11 13  1  0
 13 14  1  0
 14 15  1  0
 15 16  2  0
 16 17  1  0
 17 18  1  0
 18 19  2  0
 19 20  1  0
 20 21  2  0
 21 22  1  0
 22 23  1  0
 23 24  1  0
 24 25  1  0
 25 26  1  0
 26 27  1  0
 21 28  1  0
 28 29  2  0
 17 30  2  0
 30 31  1  0
 31 32  1  0
 32 33  2  0
 33 34  1  0
 34 35  2  0
 35 36  1  0
 36 37  1  0
 37 38  1  0
 38 39  1  0
 39 40  1  0
 40 41  1  0
 35 42  1  0
 42 43  2  0
 31 44  2  0
 44 45  1  0
 45 46  1  0
  9 47  1  0
 47 48  2  0
 48  6  1  0
 45 13  2  0
 44 15  1  0
 29 18  1  0
 43 32  1  0
 27 22  1  0
 41 36  1  0
M  END
>  <Binding energies>  (39) 
[89.8]

>  <Ligand effiencies>  (39) 
[1.7607843137254902]

>  <Interactions>  (39) 
["V-A:ILE:369:CG2:3236, V-B:TYR:539:CD2:9846, V-A:SER:385:CA:3406, V-B:TYR:539:CE2:9848, V-B:TYR:539:CZ:9849, V-B:ALA:541:CB:9864, V-B:GLU:543:CG:9879, V-B:GLU:543:CD:9880, V-A:LEU:475:CD1:4257, V-A:GLU:543:CB:4906, V-A:GLU:543:CD:4908, V-A:TYR:484:CE2:4345, V-B:GLU:543:CB:9878, V-A:HIS:456:CE1:4069, V-B:HIS:456:CE1:9041, V-A:TYR:484:CZ:4346, H-A:HIS:383:NE2:3393, H-A:TYR:484:OH:4347, V-A:TYR:539:CD1:4873, V-A:TYR:539:CE1:4875, V-B:HIS:456:CD2:9039, V-B:GLU:543:C:9874, V-A:LYS:547:CE:4950, V-B:GLU:543:CA:9876, V-A:ILE:369:CB:3235, V-A:HIS:383:CD2:3391, V-A:LEU:475:CD2:4258, V-A:ILE:369:CG1:3237, V-A:ILE:369:C:3231, V-A:ILE:369:CA:3233, V-A:VAL:384:C:3396, V-A:VAL:384:CG1:3401"]

$$$$
9b_Ghoteimi_2023
     RDKit          3D

 42 48  0  0  0  0  0  0  0  0999 V2000
  129.4750  124.1120   61.3550 N   0  0  0  0  0  0  0  0  0  0  0  0
  129.7400  123.7440   62.6490 C   0  0  0  0  0  0  0  0  0  0  0  0
  130.1480  122.4520   63.0180 C   0  0  0  0  0  0  0  0  0  0  0  0
  130.3910  121.2910   62.1590 C   0  0  0  0  0  0  0  0  0  0  0  0
  129.4510  120.6760   61.6510 O   0  0  0  0  0  0  0  0  0  0  0  0
  131.6950  120.9590   61.9820 N   0  0  0  0  0  0  0  0  0  0  0  0
  132.2070  119.9070   61.2340 C   0  0  0  0  0  0  0  0  0  0  0  0
  133.4720  119.9350   60.6480 C   0  0  0  0  0  0  0  0  0  0  0  0
  133.5970  118.7220   60.0100 C   0  0  0  0  0  0  0  0  0  0  0  0
  132.4660  118.0020   60.2020 O   0  0  0  0  0  0  0  0  0  0  0  0
  131.5930  118.7630   60.9790 N   0  0  0  0  0  0  0  0  0  0  0  0
  130.3680  122.3270   64.7630 S   0  0  0  0  0  0  0  0  0  0  0  0
  129.8960  123.9940   64.9880 C   0  0  0  0  0  0  0  0  0  0  0  0
  129.8290  124.5440   66.1990 N   0  0  0  0  0  0  0  0  0  0  0  0
  129.4340  125.8430   66.2670 C   0  0  0  0  0  0  0  0  0  0  0  0
  129.3480  126.4280   67.6390 C   0  0  0  0  0  0  0  0  0  0  0  0
  128.8560  125.6810   68.7150 C   0  0  0  0  0  0  0  0  0  0  0  0
  128.7640  126.2370   69.9880 C   0  0  0  0  0  0  0  0  0  0  0  0
  129.1480  127.5650   70.2280 C   0  0  0  0  0  0  0  0  0  0  0  0
  129.0650  128.1370   71.5030 N   0  0  0  0  0  0  0  0  0  0  0  0
  128.7400  129.5650   71.6860 C   0  0  0  0  0  0  0  0  0  0  0  0
  128.3530  129.9370   73.1320 C   0  0  0  0  0  0  0  0  0  0  0  0
  129.3740  129.5310   74.0270 O   0  0  0  0  0  0  0  0  0  0  0  0
  129.5780  128.1280   73.9820 C   0  0  0  0  0  0  0  0  0  0  0  0
  129.9990  127.6970   72.5610 C   0  0  0  0  0  0  0  0  0  0  0  0
  129.6590  128.3020   69.1510 C   0  0  0  0  0  0  0  0  0  0  0  0
  129.7550  127.7450   67.8780 C   0  0  0  0  0  0  0  0  0  0  0  0
  129.1340  126.5920   65.1260 C   0  0  0  0  0  0  0  0  0  0  0  0
  129.2220  126.0240   63.8500 C   0  0  0  0  0  0  0  0  0  0  0  0
  128.9220  126.8710   62.6680 C   0  0  0  0  0  0  0  0  0  0  0  0
  127.6000  127.1050   62.2860 C   0  0  0  0  0  0  0  0  0  0  0  0
  127.3150  127.9140   61.1910 C   0  0  0  0  0  0  0  0  0  0  0  0
  128.3440  128.5110   60.4460 C   0  0  0  0  0  0  0  0  0  0  0  0
  128.0800  129.3390   59.3520 N   0  0  0  0  0  0  0  0  0  0  0  0
  129.0950  130.3230   58.9290 C   0  0  0  0  0  0  0  0  0  0  0  0
  128.5310  131.4160   57.9960 C   0  0  0  0  0  0  0  0  0  0  0  0
  127.9100  130.8190   56.8680 O   0  0  0  0  0  0  0  0  0  0  0  0
  126.8390  129.9670   57.2460 C   0  0  0  0  0  0  0  0  0  0  0  0
  127.3580  128.8410   58.1640 C   0  0  0  0  0  0  0  0  0  0  0  0
  129.6680  128.2840   60.8500 C   0  0  0  0  0  0  0  0  0  0  0  0
  129.9530  127.4740   61.9460 C   0  0  0  0  0  0  0  0  0  0  0  0
  129.6010  124.6550   63.7580 C   0  0  0  0  0  0  0  0  0  0  0  0
  1  2  1  0
  2  3  2  0
  3  4  1  0
  4  5  2  0
  4  6  1  0
  6  7  1  0
  7  8  1  0
  8  9  2  0
  9 10  1  0
 10 11  1  0
  3 12  1  0
 12 13  1  0
 13 14  2  0
 14 15  1  0
 15 16  1  0
 16 17  2  0
 17 18  1  0
 18 19  2  0
 19 20  1  0
 20 21  1  0
 21 22  1  0
 22 23  1  0
 23 24  1  0
 24 25  1  0
 19 26  1  0
 26 27  2  0
 15 28  2  0
 28 29  1  0
 29 30  1  0
 30 31  2  0
 31 32  1  0
 32 33  2  0
 33 34  1  0
 34 35  1  0
 35 36  1  0
 36 37  1  0
 37 38  1  0
 38 39  1  0
 33 40  1  0
 40 41  2  0
 29 42  2  0
 42  2  1  0
 11  7  2  0
 42 13  1  0
 27 16  1  0
 41 30  1  0
 25 20  1  0
 39 34  1  0
M  END
>  <Binding energies>  (40) 
[-8.39]

>  <Ligand effiencies>  (40) 
[-0.18644444444444447]

>  <Interactions>  (40) 
["V-A:ILE:369:CG2:3236, H-B:ALA:541:N:9863, V-A:SER:385:CA:3406, V-B:ALA:541:CB:9864, V-B:GLU:543:CG:9879, V-B:GLU:543:CD:9880, V-A:LEU:475:CD1:4257, V-A:GLU:543:CB:4906, V-A:GLU:543:CD:4908, V-A:TYR:484:CE2:4345, V-B:GLU:543:CB:9878, V-A:HIS:456:CE1:4069, V-B:HIS:456:CE1:9041, V-A:TYR:484:CZ:4346, H-A:HIS:383:NE2:3393, H-A:SER:385:OG:3409, H-A:TYR:484:OH:4347, V-A:TYR:539:CD1:4873, V-A:TYR:539:CE1:4875, V-B:HIS:456:CD2:9039, V-B:GLU:543:C:9874, V-A:LYS:547:CE:4950, H-A:LYS:547:NZ:4951, V-B:GLU:543:CA:9876, V-A:GLU:543:C:4902, V-A:HIS:383:CD2:3391, V-B:HIS:456:CG:9037, V-A:LEU:475:CD2:4258, V-A:TYR:539:CZ:4877"]

$$$$
9c_Ghoteimi_2023
     RDKit          3D

 42 48  0  0  0  0  0  0  0  0999 V2000
  129.4390  124.1100   61.3100 N   0  0  0  0  0  0  0  0  0  0  0  0
  129.7360  123.7670   62.6050 C   0  0  0  0  0  0  0  0  0  0  0  0
  130.1940  122.4950   62.9810 C   0  0  0  0  0  0  0  0  0  0  0  0
  130.4610  121.3310   62.1300 C   0  0  0  0  0  0  0  0  0  0  0  0
  129.5430  120.5980   61.7570 O   0  0  0  0  0  0  0  0  0  0  0  0
  131.7630  121.1350   61.8050 N   0  0  0  0  0  0  0  0  0  0  0  0
  132.2840  120.1070   61.0310 C   0  0  0  0  0  0  0  0  0  0  0  0
  131.6280  119.2510   60.2780 N   0  0  0  0  0  0  0  0  0  0  0  0
  132.4460  118.4030   59.6840 C   0  0  0  0  0  0  0  0  0  0  0  0
  133.8020  118.5640   59.9550 C   0  0  0  0  0  0  0  0  0  0  0  0
  134.0060  119.9010   61.0460 S   0  0  0  0  0  0  0  0  0  0  0  0
  130.4460  122.3970   64.7230 S   0  0  0  0  0  0  0  0  0  0  0  0
  129.9190  124.0500   64.9380 C   0  0  0  0  0  0  0  0  0  0  0  0
  129.8540  124.6110   66.1440 N   0  0  0  0  0  0  0  0  0  0  0  0
  129.4160  125.8950   66.2040 C   0  0  0  0  0  0  0  0  0  0  0  0
  129.3320  126.4930   67.5710 C   0  0  0  0  0  0  0  0  0  0  0  0
  129.4690  127.8720   67.7690 C   0  0  0  0  0  0  0  0  0  0  0  0
  129.4000  128.4220   69.0440 C   0  0  0  0  0  0  0  0  0  0  0  0
  129.2030  127.6110   70.1740 C   0  0  0  0  0  0  0  0  0  0  0  0
  129.1240  128.1500   71.4630 N   0  0  0  0  0  0  0  0  0  0  0  0
  128.7660  129.5660   71.6840 C   0  0  0  0  0  0  0  0  0  0  0  0
  128.3870  129.8930   73.1430 C   0  0  0  0  0  0  0  0  0  0  0  0
  129.4310  129.4930   74.0160 O   0  0  0  0  0  0  0  0  0  0  0  0
  129.6690  128.0970   73.9340 C   0  0  0  0  0  0  0  0  0  0  0  0
  130.0830  127.7110   72.4980 C   0  0  0  0  0  0  0  0  0  0  0  0
  129.0470  126.2330   69.9680 C   0  0  0  0  0  0  0  0  0  0  0  0
  129.1130  125.6830   68.6900 C   0  0  0  0  0  0  0  0  0  0  0  0
  129.0720  126.6200   65.0600 C   0  0  0  0  0  0  0  0  0  0  0  0
  129.1600  126.0420   63.7890 C   0  0  0  0  0  0  0  0  0  0  0  0
  128.8130  126.8630   62.6030 C   0  0  0  0  0  0  0  0  0  0  0  0
  129.8090  127.5480   61.9050 C   0  0  0  0  0  0  0  0  0  0  0  0
  129.4900  128.3060   60.7810 C   0  0  0  0  0  0  0  0  0  0  0  0
  128.1650  128.4010   60.3280 C   0  0  0  0  0  0  0  0  0  0  0  0
  127.8240  129.1470   59.1960 N   0  0  0  0  0  0  0  0  0  0  0  0
  128.8890  129.8310   58.4350 C   0  0  0  0  0  0  0  0  0  0  0  0
  128.3520  130.9120   57.4730 C   0  0  0  0  0  0  0  0  0  0  0  0
  127.3920  130.3460   56.5940 O   0  0  0  0  0  0  0  0  0  0  0  0
  126.2890  129.8020   57.3020 C   0  0  0  0  0  0  0  0  0  0  0  0
  126.7720  128.6950   58.2640 C   0  0  0  0  0  0  0  0  0  0  0  0
  127.1760  127.6920   61.0250 C   0  0  0  0  0  0  0  0  0  0  0  0
  127.4950  126.9340   62.1480 C   0  0  0  0  0  0  0  0  0  0  0  0
  129.5830  124.6850   63.7050 C   0  0  0  0  0  0  0  0  0  0  0  0
  1  2  1  0
  2  3  2  0
  3  4  1  0
  4  5  2  0
  4  6  1  0
  6  7  1  0
  7  8  2  0
  8  9  1  0
  9 10  2  0
 10 11  1  0
  3 12  1  0
 12 13  1  0
 13 14  2  0
 14 15  1  0
 15 16  1  0
 16 17  2  0
 17 18  1  0
 18 19  2  0
 19 20  1  0
 20 21  1  0
 21 22  1  0
 22 23  1  0
 23 24  1  0
 24 25  1  0
 19 26  1  0
 26 27  2  0
 15 28  2  0
 28 29  1  0
 29 30  1  0
 30 31  2  0
 31 32  1  0
 32 33  2  0
 33 34  1  0
 34 35  1  0
 35 36  1  0
 36 37  1  0
 37 38  1  0
 38 39  1  0
 33 40  1  0
 40 41  2  0
 29 42  2  0
 42  2  1  0
 11  7  1  0
 42 13  1  0
 27 16  1  0
 41 30  1  0
 25 20  1  0
 39 34  1  0
M  END
>  <Binding energies>  (41) 
[-7.63]

>  <Ligand effiencies>  (41) 
[-0.16955555555555554]

>  <Interactions>  (41) 
["V-A:ILE:369:CG2:3236, H-B:ALA:541:N:9863, V-B:TYR:539:CD2:9846, V-A:SER:385:C:3404, V-A:SER:385:CB:3408, V-A:SER:385:CA:3406, V-B:ALA:541:CB:9864, V-B:GLU:543:CG:9879, V-B:GLU:543:CD:9880, V-A:LEU:475:CD1:4257, V-A:GLU:543:CB:4906, V-A:GLU:543:CD:4908, V-A:TYR:484:CE2:4345, V-B:GLU:543:CB:9878, V-A:HIS:456:CE1:4069, V-B:HIS:456:CE1:9041, V-A:TYR:484:CZ:4346, H-A:TYR:484:OH:4347, V-A:TYR:539:CD1:4873, V-A:TYR:539:CE1:4875, V-B:HIS:456:CD2:9039, V-B:GLU:543:C:9874, V-A:LYS:547:CE:4950, H-A:LYS:547:NZ:4951, V-A:GLU:543:C:4902, V-A:HIS:383:CD2:3391, V-B:HIS:456:CG:9037, V-A:LEU:475:CD2:4258, V-A:TYR:539:CZ:4877, H-A:TYR:539:OH:4878"]

$$$$
RR11_Rahimova_2017
     RDKit          3D

 33 38  0  0  0  0  0  0  0  0999 V2000
  133.5130  123.8180   57.0240 N   0  0  0  0  0  0  0  0  0  0  0  0
  132.4580  124.6700   57.3470 C   0  0  0  0  0  0  0  0  0  0  0  0
  132.2340  125.8150   56.5850 C   0  0  0  0  0  0  0  0  0  0  0  0
  131.1780  126.6630   56.9060 C   0  0  0  0  0  0  0  0  0  0  0  0
  130.3370  126.3750   57.9890 C   0  0  0  0  0  0  0  0  0  0  0  0
  129.1960  127.2870   58.3300 C   0  0  0  0  0  0  0  0  0  0  0  0
  129.0150  127.8420   59.5090 N   0  0  0  0  0  0  0  0  0  0  0  0
  127.8780  128.5970   59.3820 C   0  0  0  0  0  0  0  0  0  0  0  0
  127.2390  129.4020   60.3350 C   0  0  0  0  0  0  0  0  0  0  0  0
  126.0860  130.0980   59.9530 C   0  0  0  0  0  0  0  0  0  0  0  0
  125.3670  130.9760   60.9680 C   0  0  0  0  0  0  0  0  0  0  0  0
  125.9460  130.8570   62.3710 C   0  0  0  0  0  0  0  0  0  0  0  0
  126.3240  132.0150   63.0610 C   0  0  0  0  0  0  0  0  0  0  0  0
  126.8510  131.9580   64.3530 C   0  0  0  0  0  0  0  0  0  0  0  0
  126.9890  130.7000   64.9550 C   0  0  0  0  0  0  0  0  0  0  0  0
  127.4790  130.3800   66.1940 N   0  0  0  0  0  0  0  0  0  0  0  0
  127.3980  129.0690   66.2710 C   0  0  0  0  0  0  0  0  0  0  0  0
  127.8410  128.2590   67.4560 C   0  0  0  0  0  0  0  0  0  0  0  0
  128.7700  128.7800   68.3660 C   0  0  0  0  0  0  0  0  0  0  0  0
  129.1890  128.0260   69.4590 C   0  0  0  0  0  0  0  0  0  0  0  0
  128.6800  126.7430   69.6500 C   0  0  0  0  0  0  0  0  0  0  0  0
  129.1020  125.9850   70.7420 N   0  0  0  0  0  0  0  0  0  0  0  0
  127.7520  126.2140   68.7570 C   0  0  0  0  0  0  0  0  0  0  0  0
  127.3340  126.9690   67.6640 C   0  0  0  0  0  0  0  0  0  0  0  0
  126.8640  128.5160   65.1270 N   0  0  0  0  0  0  0  0  0  0  0  0
  126.5900  129.5390   64.2500 C   0  0  0  0  0  0  0  0  0  0  0  0
  126.0570  129.5900   62.9600 C   0  0  0  0  0  0  0  0  0  0  0  0
  125.5720  129.9690   58.6580 C   0  0  0  0  0  0  0  0  0  0  0  0
  126.1820  129.1710   57.6880 C   0  0  0  0  0  0  0  0  0  0  0  0
  127.3410  128.4950   58.0770 C   0  0  0  0  0  0  0  0  0  0  0  0
  128.2100  127.6450   57.4340 N   0  0  0  0  0  0  0  0  0  0  0  0
  130.5750  125.2200   58.7470 C   0  0  0  0  0  0  0  0  0  0  0  0
  131.6300  124.3700   58.4270 C   0  0  0  0  0  0  0  0  0  0  0  0
  1  2  1  0
  2  3  2  0
  3  4  1  0
  4  5  2  0
  5  6  1  0
  6  7  2  0
  7  8  1  0
  8  9  2  0
  9 10  1  0
 10 11  1  0
 11 12  1  0
 12 13  2  0
 13 14  1  0
 14 15  2  0
 15 16  1  0
 16 17  2  0
 17 18  1  0
 18 19  2  0
 19 20  1  0
 20 21  2  0
 21 22  1  0
 21 23  1  0
 23 24  2  0
 17 25  1  0
 25 26  1  0
 26 27  2  0
 10 28  2  0
 28 29  1  0
 29 30  2  0
 30 31  1  0
  5 32  1  0
 32 33  2  0
 33  2  1  0
 31  6  1  0
 30  8  1  0
 27 12  1  0
 26 15  1  0
 24 18  1  0
M  END
>  <Binding energies>  (42) 
[-8.0]

>  <Ligand effiencies>  (42) 
[-0.20512820512820512]

>  <Interactions>  (42) 
["V-A:ILE:369:CG2:3236, V-B:TYR:539:CE2:9848, V-B:TYR:539:CZ:9849, V-B:GLU:543:CD:9880, V-A:GLU:543:CB:4906, V-B:GLU:543:CB:9878, H-B:HIS:456:NE2:9042, V-A:HIS:456:CE1:4069, H-B:TYR:531:OH:9767, V-B:HIS:456:CE1:9041, H-B:GLU:543:OE2:9882, V-A:ASP:366:CB:3211, V-A:TYR:539:CE1:4875, V-A:ALA:541:CB:4892, V-B:GLU:543:C:9874, V-B:GLU:543:CA:9876, V-A:ASP:366:C:3207, V-B:ASP:366:CB:8183, H-B:TYR:539:OH:9850, V-A:ASP:366:CA:3209, V-A:ILE:369:CB:3235, V-A:ASN:370:CB:3244, H-A:HIS:456:NE2:4070, H-B:GLU:543:O:9875, H-B:TYR:484:OH:9319, V-B:LEU:475:CD1:9229, V-B:TYR:531:CZ:9766, V-A:ASN:370:CA:3242, H-A:ASP:366:O:3208"]

$$$$
RR16_Rahimova_2017
     RDKit          3D

 44 49  0  0  0  0  0  0  0  0999 V2000
  125.9360  130.6210   65.1870 O   0  0  0  0  0  0  0  0  0  0  0  0
  126.2850  129.2020   65.3140 S   0  0  0  0  0  0  0  0  0  0  0  0
  125.4060  128.2720   66.0320 O   0  0  0  0  0  0  0  0  0  0  0  0
  127.8900  129.1130   66.0430 N   0  0  0  0  0  0  0  0  0  0  0  0
  128.1700  128.1730   67.1540 C   0  0  0  0  0  0  0  0  0  0  0  0
  129.0450  127.0060   66.6260 C   0  0  0  0  0  0  0  0  0  0  0  0
  128.8580  125.6270   67.2870 C   0  0  0  0  0  0  0  0  0  0  0  0
  129.2390  125.5920   68.7770 C   0  0  0  0  0  0  0  0  0  0  0  0
  128.6360  126.7090   69.6500 C   0  0  0  0  0  0  0  0  0  0  0  0
  129.2530  128.1150   69.5180 C   0  0  0  0  0  0  0  0  0  0  0  0
  128.7640  128.9740   68.3360 C   0  0  0  0  0  0  0  0  0  0  0  0
  126.5140  128.5730   63.6550 C   0  0  0  0  0  0  0  0  0  0  0  0
  125.5720  128.8490   62.6610 C   0  0  0  0  0  0  0  0  0  0  0  0
  125.6980  128.2530   61.4090 C   0  0  0  0  0  0  0  0  0  0  0  0
  126.7640  127.3870   61.1560 C   0  0  0  0  0  0  0  0  0  0  0  0
  126.8510  126.5110   59.5960 S   0  0  0  0  0  0  0  0  0  0  0  0
  127.4400  127.4270   58.6100 O   0  0  0  0  0  0  0  0  0  0  0  0
  125.5330  125.9110   59.3550 O   0  0  0  0  0  0  0  0  0  0  0  0
  128.0080  125.2000   59.8980 N   0  0  0  0  0  0  0  0  0  0  0  0
  127.5150  124.1460   60.8220 C   0  0  0  0  0  0  0  0  0  0  0  0
  128.6760  123.2320   61.2660 C   0  0  0  0  0  0  0  0  0  0  0  0
  129.4540  122.6610   60.0550 C   0  0  0  0  0  0  0  0  0  0  0  0
  130.6390  121.7880   60.4760 C   0  0  0  0  0  0  0  0  0  0  0  0
  130.5900  120.4020   60.2710 C   0  0  0  0  0  0  0  0  0  0  0  0
  131.6510  119.5700   60.6320 C   0  0  0  0  0  0  0  0  0  0  0  0
  131.5870  118.2170   60.4200 O   0  0  0  0  0  0  0  0  0  0  0  0
  132.7860  120.1570   61.2110 C   0  0  0  0  0  0  0  0  0  0  0  0
  133.9600  119.6080   61.6390 N   0  0  0  0  0  0  0  0  0  0  0  0
  134.7540  120.6350   62.1000 N   0  0  0  0  0  0  0  0  0  0  0  0
  134.0630  121.7870   61.9970 N   0  0  0  0  0  0  0  0  0  0  0  0
  134.6970  123.0550   62.3360 C   0  0  0  0  0  0  0  0  0  0  0  0
  133.6880  124.1450   62.6700 C   0  0  0  0  0  0  0  0  0  0  0  0
  133.0710  124.8690   61.6450 C   0  0  0  0  0  0  0  0  0  0  0  0
  132.1290  125.8530   61.9480 C   0  0  0  0  0  0  0  0  0  0  0  0
  131.7990  126.1170   63.2780 C   0  0  0  0  0  0  0  0  0  0  0  0
  132.4090  125.3970   64.3050 C   0  0  0  0  0  0  0  0  0  0  0  0
  131.9940  125.7140   65.9500 Cl  0  0  0  0  0  0  0  0  0  0  0  0
  133.3540  124.4150   64.0020 C   0  0  0  0  0  0  0  0  0  0  0  0
  132.8250  121.5560   61.4220 C   0  0  0  0  0  0  0  0  0  0  0  0
  131.7610  122.3910   61.0640 C   0  0  0  0  0  0  0  0  0  0  0  0
  129.8500  123.7620   59.0370 C   0  0  0  0  0  0  0  0  0  0  0  0
  128.6540  124.6650   58.6720 C   0  0  0  0  0  0  0  0  0  0  0  0
  127.7280  127.1460   62.1390 C   0  0  0  0  0  0  0  0  0  0  0  0
  127.6000  127.7380   63.3910 C   0  0  0  0  0  0  0  0  0  0  0  0
  1  2  2  0
  2  3  2  0
  2  4  1  0
  4  5  1  0
  5  6  1  0
  6  7  1  0
  7  8  1  0
  8  9  1  0
  9 10  1  0
 10 11  1  0
  2 12  1  0
 12 13  2  0
 13 14  1  0
 14 15  2  0
 15 16  1  0
 16 17  2  0
 16 18  2  0
 16 19  1  0
 19 20  1  0
 20 21  1  0
 21 22  1  0
 22 23  1  0
 23 24  2  0
 24 25  1  0
 25 26  1  0
 25 27  2  0
 27 28  1  0
 28 29  2  0
 29 30  1  0
 30 31  1  0
 31 32  1  0
 32 33  2  0
 33 34  1  0
 34 35  2  0
 35 36  1  0
 36 37  1  0
 36 38  2  0
 30 39  1  0
 39 40  2  0
 22 41  1  0
 41 42  1  0
 15 43  1  0
 43 44  2  0
 11  5  1  0
 44 12  1  0
 42 19  1  0
 40 23  1  0
 39 27  1  0
 38 32  1  0
M  END
>  <Binding energies>  (43) 
[-7.64]

>  <Ligand effiencies>  (43) 
[-0.15916666666666665]

>  <Interactions>  (43) 
["V-A:ILE:369:CG2:3236, V-A:ASP:366:CG:3212, V-B:TYR:539:CD2:9846, V-B:TYR:539:C:9839, V-B:TYR:539:CE2:9848, V-B:ASP:366:CG:8184, V-A:ARG:545:CZ:4926, V-A:GLY:454:CA:4048, V-B:GLU:543:CG:9879, V-B:GLU:543:CD:9880, V-A:LEU:475:CD1:4257, V-A:GLU:543:CB:4906, V-A:GLU:543:CD:4908, V-A:TYR:484:CE2:4345, H-A:GLU:543:OE2:4910, H-A:GLU:543:OE1:4909, V-B:GLU:543:CB:9878, V-A:HIS:456:CE1:4069, H-B:TYR:531:OH:9767, V-B:HIS:456:CE1:9041, H-A:HIS:383:NE2:3393, H-A:SER:385:OG:3409, V-A:GLY:453:CA:4043, V-A:GLY:453:C:4041, V-A:ILE:369:CD1:3238, V-A:GLU:543:CG:4907, V-B:GLU:543:C:9874, H-B:ARG:545:NH2:9900, V-B:ARG:545:CZ:9898, V-A:GLU:543:CA:4904, V-B:ASP:366:CB:8183, H-B:TYR:484:OH:9319, H-B:ARG:545:NE:9896"]

$$$$
RR18_Rahimova_2017
     RDKit          3D

 36 41  0  0  0  0  0  0  0  0999 V2000
  128.7500  122.0950   60.8430 C   0  0  0  0  0  0  0  0  0  0  0  0
  128.8990  123.3220   59.9800 C   0  0  0  0  0  0  0  0  0  0  0  0
  128.0410  124.0330   59.1560 C   0  0  0  0  0  0  0  0  0  0  0  0
  128.7780  125.0890   58.6230 C   0  0  0  0  0  0  0  0  0  0  0  0
  130.0590  124.9870   59.1410 C   0  0  0  0  0  0  0  0  0  0  0  0
  131.3350  125.8090   58.9770 C   0  0  1  0  0  0  0  0  0  0  0  0
  132.3220  125.1400   57.9740 C   0  0  0  0  0  0  0  0  0  0  0  0
  132.9260  123.8480   58.2840 C   0  0  0  0  0  0  0  0  0  0  0  0
  133.6050  123.2340   57.4580 O   0  0  0  0  0  0  0  0  0  0  0  0
  132.6870  123.4110   59.5420 N   0  0  0  0  0  0  0  0  0  0  0  0
  133.0830  122.2180   60.1840 C   0  0  0  0  0  0  0  0  0  0  0  0
  132.6180  120.9440   59.8100 C   0  0  0  0  0  0  0  0  0  0  0  0
  133.0430  119.8050   60.4910 C   0  0  0  0  0  0  0  0  0  0  0  0
  133.9310  119.9190   61.5560 C   0  0  0  0  0  0  0  0  0  0  0  0
  134.3920  121.1750   61.9460 C   0  0  0  0  0  0  0  0  0  0  0  0
  133.9740  122.3270   61.2710 C   0  0  0  0  0  0  0  0  0  0  0  0
  134.5050  123.6790   61.7400 C   0  0  0  0  0  0  0  0  0  0  0  0
  132.5220  125.7350   56.7690 C   0  0  0  0  0  0  0  0  0  0  0  0
  132.0160  126.9470   56.4070 N   0  0  0  0  0  0  0  0  0  0  0  0
  131.3630  127.6390   57.2660 C   0  0  0  0  0  0  0  0  0  0  0  0
  130.7850  129.2660   56.9950 S   0  0  0  0  0  0  0  0  0  0  0  0
  130.1030  129.3560   58.6500 C   0  0  0  0  0  0  0  0  0  0  0  0
  129.4380  130.4200   59.2200 C   0  0  0  0  0  0  0  0  0  0  0  0
  129.2960  131.6850   58.4850 C   0  0  0  0  0  0  0  0  0  0  0  0
  129.6690  131.9910   57.3540 O   0  0  0  0  0  0  0  0  0  0  0  0
  128.6640  132.5450   59.2920 N   0  0  0  0  0  0  0  0  0  0  0  0
  128.3250  131.9970   60.4910 C   0  0  0  0  0  0  0  0  0  0  0  0
  127.6520  132.6060   61.5500 C   0  0  0  0  0  0  0  0  0  0  0  0
  127.3710  131.8570   62.6890 C   0  0  0  0  0  0  0  0  0  0  0  0
  127.7580  130.5190   62.7460 C   0  0  0  0  0  0  0  0  0  0  0  0
  128.4320  129.9310   61.6730 C   0  0  0  0  0  0  0  0  0  0  0  0
  128.7460  130.6790   60.5220 C   0  0  0  0  0  0  0  0  0  0  0  0
  130.3850  128.0880   59.3230 C   0  0  0  0  0  0  0  0  0  0  0  0
  130.1140  127.8030   60.4860 O   0  0  0  0  0  0  0  0  0  0  0  0
  131.0300  127.2080   58.5100 N   0  0  0  0  0  0  0  0  0  0  0  0
  130.1240  123.9080   59.9660 O   0  0  0  0  0  0  0  0  0  0  0  0
  1  2  1  0
  2  3  2  0
  3  4  1  0
  4  5  2  0
  6  5  1  6
  6  7  1  0
  7  8  1  0
  8  9  2  0
  8 10  1  0
 10 11  1  0
 11 12  2  0
 12 13  1  0
 13 14  2  0
 14 15  1  0
 15 16  2  0
 16 17  1  0
  7 18  2  0
 18 19  1  0
 19 20  2  0
 20 21  1  0
 21 22  1  0
 22 23  2  0
 23 24  1  0
 24 25  2  0
 24 26  1  0
 26 27  1  0
 27 28  2  0
 28 29  1  0
 29 30  2  0
 30 31  1  0
 31 32  2  0
 22 33  1  0
 33 34  2  0
 33 35  1  0
  5 36  1  0
 36  2  1  0
 35  6  1  0
 16 11  1  0
 35 20  1  0
 32 23  1  0
 32 27  1  0
M  END
>  <Binding energies>  (44) 
[-8.27]

>  <Ligand effiencies>  (44) 
[-0.2176315789473684]

>  <Interactions>  (44) 
["V-A:ILE:369:CG2:3236, V-A:ASP:366:CG:3212, V-B:TYR:539:CD2:9846, V-A:SER:385:C:3404, V-A:SER:385:CA:3406, V-B:PRO:540:CA:9855, V-B:TYR:539:CE2:9848, V-B:TYR:539:CZ:9849, V-A:GLY:454:CA:4048, V-A:LEU:475:CD1:4257, V-A:PRO:540:CA:4883, V-A:PRO:540:N:4884, V-A:TYR:539:CD1:4873, V-A:ASP:366:CB:3211, V-A:TYR:539:C:4867, V-A:TYR:539:CE1:4875, V-A:GLY:453:C:4041, V-A:ILE:369:CD1:3238, V-B:PRO:540:C:9853, V-A:ALA:541:CB:4892, V-A:ASP:366:C:3207, H-B:TYR:539:OH:9850, V-A:ASP:366:CA:3209, H-A:TYR:531:OH:4795, H-A:TYR:539:O:4868, H-A:ASN:370:N:3243"]

$$$$
RR20_Rahimova_2017
     RDKit          3D

 38 43  0  0  0  0  0  0  0  0999 V2000
  134.1460  124.2680   75.8070 C   0  0  0  0  0  0  0  0  0  0  0  0
  132.8120  124.9380   75.5300 C   0  0  0  0  0  0  0  0  0  0  0  0
  132.7610  126.3110   75.2880 C   0  0  0  0  0  0  0  0  0  0  0  0
  131.5400  126.9260   75.0250 C   0  0  0  0  0  0  0  0  0  0  0  0
  130.3590  126.1750   75.0140 C   0  0  0  0  0  0  0  0  0  0  0  0
  129.0450  126.8590   74.7060 C   0  0  0  0  0  0  0  0  0  0  0  0
  128.1170  126.6990   75.5030 O   0  0  0  0  0  0  0  0  0  0  0  0
  128.9380  127.6260   73.5820 N   0  0  0  0  0  0  0  0  0  0  0  0
  129.1600  129.0810   73.6180 C   0  0  0  0  0  0  0  0  0  0  0  0
  129.1080  129.5580   72.1760 C   0  0  0  0  0  0  0  0  0  0  0  0
  129.2350  128.2830   71.3980 C   0  0  0  0  0  0  0  0  0  0  0  0
  129.3360  128.1010   70.0190 C   0  0  0  0  0  0  0  0  0  0  0  0
  129.2820  126.8170   69.4620 C   0  0  0  0  0  0  0  0  0  0  0  0
  129.4000  126.6200   67.9770 C   0  0  0  0  0  0  0  0  0  0  0  0
  130.3930  125.8750   67.5180 N   0  0  0  0  0  0  0  0  0  0  0  0
  130.3860  125.7550   66.2150 C   0  0  0  0  0  0  0  0  0  0  0  0
  131.2720  125.0470   65.4170 N   0  0  0  0  0  0  0  0  0  0  0  0
  131.8760  125.4820   64.2850 C   0  0  0  0  0  0  0  0  0  0  0  0
  131.7250  126.6110   63.8130 O   0  0  0  0  0  0  0  0  0  0  0  0
  132.8330  124.5120   63.5520 C   0  0  0  0  0  0  0  0  0  0  0  0
  132.2050  123.2180   63.2290 N   0  0  0  0  0  0  0  0  0  0  0  0
  130.8210  123.3680   62.7560 C   0  0  0  0  0  0  0  0  0  0  0  0
  130.1290  121.9880   62.6890 C   0  0  0  0  0  0  0  0  0  0  0  0
  130.9960  120.9160   62.0280 C   0  0  0  0  0  0  0  0  0  0  0  0
  130.4510  119.6880   61.6370 C   0  0  0  0  0  0  0  0  0  0  0  0
  131.2480  118.6970   61.0690 C   0  0  0  0  0  0  0  0  0  0  0  0
  132.6080  118.9260   60.8840 C   0  0  0  0  0  0  0  0  0  0  0  0
  133.1620  120.1470   61.2610 C   0  0  0  0  0  0  0  0  0  0  0  0
  132.3720  121.1510   61.8330 C   0  0  0  0  0  0  0  0  0  0  0  0
  132.9690  122.5120   62.1930 C   0  0  0  0  0  0  0  0  0  0  0  0
  129.1090  126.5980   65.4290 S   0  0  0  0  0  0  0  0  0  0  0  0
  128.5500  127.1590   66.9870 C   0  0  0  0  0  0  0  0  0  0  0  0
  127.3580  128.0860   67.0860 C   0  0  0  0  0  0  0  0  0  0  0  0
  129.0690  125.7260   70.3180 C   0  0  0  0  0  0  0  0  0  0  0  0
  128.9490  125.9060   71.6960 C   0  0  0  0  0  0  0  0  0  0  0  0
  129.0900  127.1860   72.2480 C   0  0  0  0  0  0  0  0  0  0  0  0
  130.4210  124.7920   75.2290 C   0  0  0  0  0  0  0  0  0  0  0  0
  131.6430  124.1770   75.4910 C   0  0  0  0  0  0  0  0  0  0  0  0
  1  2  1  0
  2  3  2  0
  3  4  1  0
  4  5  2  0
  5  6  1  0
  6  7  2  0
  6  8  1  0
  8  9  1  0
  9 10  1  0
 10 11  1  0
 11 12  2  0
 12 13  1  0
 13 14  1  0
 14 15  1  0
 15 16  2  0
 16 17  1  0
 17 18  1  0
 18 19  2  0
 18 20  1  0
 20 21  1  0
 21 22  1  0
 22 23  1  0
 23 24  1  0
 24 25  2  0
 25 26  1  0
 26 27  2  0
 27 28  1  0
 28 29  2  0
 29 30  1  0
 16 31  1  0
 31 32  1  0
 32 33  1  0
 13 34  2  0
 34 35  1  0
 35 36  2  0
  5 37  1  0
 37 38  2  0
 38  2  1  0
 36  8  1  0
 36 11  1  0
 32 14  2  0
 30 21  1  0
 29 24  1  0
M  END
>  <Binding energies>  (45) 
[-9.09]

>  <Ligand effiencies>  (45) 
[-0.23307692307692307]

>  <Interactions>  (45) 
["V-A:ILE:369:CG2:3236, V-B:ALA:541:CB:9864, V-A:ARG:545:CZ:4926, V-B:GLU:543:CD:9880, V-A:LEU:475:CD1:4257, V-A:GLU:543:CD:4908, V-A:HIS:456:CE1:4069, H-A:ARG:545:NH2:4928, V-B:HIS:456:CE1:9041, V-A:TYR:484:CZ:4346, V-A:PRO:482:CG:4326, H-A:TYR:484:OH:4347, V-B:HIS:456:CD2:9039, V-B:GLU:543:C:9874, V-A:LYS:547:CE:4950, V-A:HIS:456:CG:4065, V-A:HIS:456:CB:4064, V-A:ASP:473:CG:4239, V-A:HIS:456:C:4060, V-A:LYS:471:CD:4218"]

$$$$
RR21_Rahimova_2017
     RDKit          3D

 40 45  0  0  0  0  0  0  0  0999 V2000
  127.2590  131.7270   62.5600 C   0  0  0  0  0  0  0  0  0  0  0  0
  126.3910  131.1360   63.5220 O   0  0  0  0  0  0  0  0  0  0  0  0
  126.9270  130.3440   64.5200 C   0  0  0  0  0  0  0  0  0  0  0  0
  127.3610  130.8290   65.7660 C   0  0  0  0  0  0  0  0  0  0  0  0
  127.8880  129.9610   66.7210 C   0  0  0  0  0  0  0  0  0  0  0  0
  127.9920  128.5900   66.4600 C   0  0  0  0  0  0  0  0  0  0  0  0
  128.5540  127.6590   67.4900 C   0  0  0  0  0  0  0  0  0  0  0  0
  128.5210  127.9940   68.7650 N   0  0  0  0  0  0  0  0  0  0  0  0
  129.0840  126.9840   69.4440 N   0  0  0  0  0  0  0  0  0  0  0  0
  129.1930  127.0110   70.8590 C   0  0  0  0  0  0  0  0  0  0  0  0
  128.6830  125.9620   71.6380 C   0  0  0  0  0  0  0  0  0  0  0  0
  128.8000  125.9980   73.0250 C   0  0  0  0  0  0  0  0  0  0  0  0
  129.4260  127.0810   73.6370 C   0  0  0  0  0  0  0  0  0  0  0  0
  129.9340  128.1300   72.8750 C   0  0  0  0  0  0  0  0  0  0  0  0
  129.8180  128.0970   71.4880 C   0  0  0  0  0  0  0  0  0  0  0  0
  129.4650  125.9870   68.5810 C   0  0  0  0  0  0  0  0  0  0  0  0
  129.1500  126.3920   67.2930 C   0  0  0  0  0  0  0  0  0  0  0  0
  129.3220  125.6530   66.0510 C   0  0  0  0  0  0  0  0  0  0  0  0
  130.4630  125.4330   65.3580 C   0  0  0  0  0  0  0  0  0  0  0  0
  132.1040  125.9910   65.7520 S   0  0  0  0  0  0  0  0  0  0  0  0
  132.7110  125.1690   64.3220 C   0  0  0  0  0  0  0  0  0  0  0  0
  133.9380  125.0980   63.9050 N   0  0  0  0  0  0  0  0  0  0  0  0
  134.2990  124.3850   62.7300 C   0  0  0  0  0  0  0  0  0  0  0  0
  135.4370  124.2530   62.2810 O   0  0  0  0  0  0  0  0  0  0  0  0
  133.1340  123.7480   62.0230 C   0  0  0  0  0  0  0  0  0  0  0  0
  133.3990  122.9680   60.7290 C   0  0  0  0  0  0  0  0  0  0  0  0
  132.7940  121.5650   60.7050 C   0  0  0  0  0  0  0  0  0  0  0  0
  133.6170  120.4460   60.8530 C   0  0  0  0  0  0  0  0  0  0  0  0
  133.0630  119.1680   60.8470 C   0  0  0  0  0  0  0  0  0  0  0  0
  131.6850  119.0070   60.6970 C   0  0  0  0  0  0  0  0  0  0  0  0
  131.0850  117.6130   60.7040 C   0  0  0  0  0  0  0  0  0  0  0  0
  130.8590  120.1250   60.5610 C   0  0  0  0  0  0  0  0  0  0  0  0
  131.4120  121.4020   60.5660 C   0  0  0  0  0  0  0  0  0  0  0  0
  131.9150  123.8320   62.4470 N   0  0  0  0  0  0  0  0  0  0  0  0
  131.7020  124.5570   63.6260 N   0  0  0  0  0  0  0  0  0  0  0  0
  130.4460  124.6600   64.1240 C   0  0  0  0  0  0  0  0  0  0  0  0
  129.4390  124.1620   63.6060 O   0  0  0  0  0  0  0  0  0  0  0  0
  127.5660  128.1080   65.2180 C   0  0  0  0  0  0  0  0  0  0  0  0
  127.0380  128.9740   64.2610 C   0  0  0  0  0  0  0  0  0  0  0  0
  126.6340  128.4750   63.0690 F   0  0  0  0  0  0  0  0  0  0  0  0
  1  2  1  0
  2  3  1  0
  3  4  2  0
  4  5  1  0
  5  6  2  0
  6  7  1  0
  7  8  2  0
  8  9  1  0
  9 10  1  0
 10 11  2  0
 11 12  1  0
 12 13  2  0
 13 14  1  0
 14 15  2  0
  9 16  1  0
 16 17  2  0
 17 18  1  0
 18 19  2  0
 19 20  1  0
 20 21  1  0
 21 22  2  0
 22 23  1  0
 23 24  2  0
 23 25  1  0
 25 26  1  0
 26 27  1  0
 27 28  2  0
 28 29  1  0
 29 30  2  0
 30 31  1  0
 30 32  1  0
 32 33  2  0
 25 34  2  0
 34 35  1  0
 35 36  1  0
 36 37  2  0
  6 38  1  0
 38 39  2  0
 39 40  1  0
 39  3  1  0
 17  7  1  0
 36 19  1  0
 15 10  1  0
 35 21  1  0
 33 27  1  0
M  END
>  <Binding energies>  (46) 
[-10.39]

>  <Ligand effiencies>  (46) 
[-0.25975000000000004]

>  <Interactions>  (46) 
["V-A:ILE:369:CG2:3236, V-B:TYR:539:CD2:9846, V-B:TYR:539:CE2:9848, V-A:ARG:545:CZ:4926, V-B:GLU:543:CG:9879, V-B:GLU:543:CD:9880, V-A:LEU:475:CD1:4257, V-A:GLU:543:CB:4906, V-A:GLU:543:CD:4908, H-A:ARG:545:NE:4924, H-A:GLY:454:N:4049, V-B:GLU:543:CB:9878, V-A:HIS:456:CE1:4069, H-A:ARG:545:NH1:4927, H-A:ARG:545:NH2:4928, V-B:HIS:456:CE1:9041, V-A:PRO:482:CG:4326, V-A:GLY:453:CA:4043, V-A:GLY:453:C:4041, V-A:GLU:543:CG:4907, V-B:TYR:484:CE2:9317, V-B:TYR:484:CZ:9318, V-B:HIS:456:CD2:9039, V-A:ALA:541:CB:4892, V-A:PRO:482:CB:4325, V-A:HIS:383:CE1:3392"]

$$$$
RR23_Rahimova_2017
     RDKit          3D

 39 44  0  0  0  0  0  0  0  0999 V2000
  133.8360  130.8420   59.3850 C   0  0  0  0  0  0  0  0  0  0  0  0
  132.3470  131.0930   59.5370 C   0  0  0  0  0  0  0  0  0  0  0  0
  131.7820  131.1990   60.8090 C   0  0  0  0  0  0  0  0  0  0  0  0
  130.4170  131.4390   60.9470 C   0  0  0  0  0  0  0  0  0  0  0  0
  129.6050  131.5640   59.8150 C   0  0  0  0  0  0  0  0  0  0  0  0
  128.1290  131.8450   59.9860 C   0  0  0  0  0  0  0  0  0  0  0  0
  127.7860  133.0180   60.1480 O   0  0  0  0  0  0  0  0  0  0  0  0
  127.2390  130.8090   59.9400 N   0  0  0  0  0  0  0  0  0  0  0  0
  126.2390  130.6990   58.8650 C   0  0  0  0  0  0  0  0  0  0  0  0
  125.5420  129.3630   59.0640 C   0  0  0  0  0  0  0  0  0  0  0  0
  126.4560  128.6480   60.0120 C   0  0  0  0  0  0  0  0  0  0  0  0
  126.3770  127.3400   60.4900 C   0  0  0  0  0  0  0  0  0  0  0  0
  127.2430  126.9010   61.5030 C   0  0  0  0  0  0  0  0  0  0  0  0
  127.1910  125.4690   62.0580 C   0  0  2  0  0  0  0  0  0  0  0  0
  128.4620  125.0500   62.6080 N   0  0  0  0  0  0  0  0  0  0  0  0
  128.6520  123.8000   62.4630 C   0  0  0  0  0  0  0  0  0  0  0  0
  129.7370  123.0680   62.8310 N   0  0  0  0  0  0  0  0  0  0  0  0
  130.9260  123.5080   63.3100 C   0  0  0  0  0  0  0  0  0  0  0  0
  131.2160  124.6850   63.5360 O   0  0  0  0  0  0  0  0  0  0  0  0
  131.9770  122.4180   63.5760 C   0  0  0  0  0  0  0  0  0  0  0  0
  131.7660  121.3000   62.6280 N   0  0  0  0  0  0  0  0  0  0  0  0
  130.5760  120.6020   62.7860 N   0  0  0  0  0  0  0  0  0  0  0  0
  130.2730  119.6020   62.0210 N   0  0  0  0  0  0  0  0  0  0  0  0
  131.1530  119.2080   61.0110 C   0  0  0  0  0  0  0  0  0  0  0  0
  130.7970  118.1240   60.2050 C   0  0  0  0  0  0  0  0  0  0  0  0
  131.6560  117.7060   59.1880 C   0  0  0  0  0  0  0  0  0  0  0  0
  132.8680  118.3670   58.9760 C   0  0  0  0  0  0  0  0  0  0  0  0
  133.2260  119.4510   59.7810 C   0  0  0  0  0  0  0  0  0  0  0  0
  132.3640  119.8710   60.8000 C   0  0  0  0  0  0  0  0  0  0  0  0
  132.7340  121.0380   61.6840 C   0  0  0  0  0  0  0  0  0  0  0  0
  133.7880  121.6730   61.5770 O   0  0  0  0  0  0  0  0  0  0  0  0
  127.3510  122.8700   61.6640 S   0  0  0  0  0  0  0  0  0  0  0  0
  126.6570  124.4180   61.0570 C   0  0  2  0  0  0  0  0  0  0  0  0
  127.0580  124.6040   59.5780 C   0  0  0  0  0  0  0  0  0  0  0  0
  128.1510  127.8120   62.0570 C   0  0  0  0  0  0  0  0  0  0  0  0
  128.2160  129.1270   61.5940 C   0  0  0  0  0  0  0  0  0  0  0  0
  127.4040  129.5340   60.5270 C   0  0  0  0  0  0  0  0  0  0  0  0
  130.1830  131.4850   58.5410 C   0  0  0  0  0  0  0  0  0  0  0  0
  131.5470  131.2460   58.4030 C   0  0  0  0  0  0  0  0  0  0  0  0
  1  2  1  0
  2  3  2  0
  3  4  1  0
  4  5  2  0
  5  6  1  0
  6  7  2  0
  6  8  1  0
  8  9  1  0
  9 10  1  0
 10 11  1  0
 11 12  2  0
 12 13  1  0
 14 13  1  6
 14 15  1  0
 15 16  2  0
 16 17  1  0
 17 18  1  0
 18 19  2  0
 18 20  1  0
 20 21  1  0
 21 22  1  0
 22 23  2  0
 23 24  1  0
 24 25  2  0
 25 26  1  0
 26 27  2  0
 27 28  1  0
 28 29  2  0
 29 30  1  0
 30 31  2  0
 16 32  1  0
 32 33  1  0
 33 34  1  6
 13 35  2  0
 35 36  1  0
 36 37  2  0
  5 38  1  0
 38 39  2  0
 39  2  1  0
 37  8  1  0
 37 11  1  0
 33 14  1  0
 30 21  1  0
 29 24  1  0
M  END
>  <Binding energies>  (47) 
[-8.16]

>  <Ligand effiencies>  (47) 
[-0.20400000000000001]

>  <Interactions>  (47) 
["V-A:ILE:369:CG2:3236, H-B:ALA:541:N:9863, V-A:ASP:366:CG:3212, V-B:TYR:539:CD2:9846, V-B:TYR:539:C:9839, V-B:TYR:539:CE2:9848, V-B:ASP:366:CG:8184, V-B:ALA:541:CB:9864, V-B:GLU:543:CD:9880, V-A:LEU:475:CD1:4257, V-A:PRO:482:CG:4326, V-A:LEU:363:CA:3184, V-A:ASN:362:C:3171, V-A:PRO:540:CA:4883, V-A:PRO:540:CB:4885, V-A:PRO:540:N:4884, V-A:TYR:539:CD1:4873, V-A:ASP:366:CB:3211, V-A:LEU:363:CB:3186, V-A:TYR:539:C:4867, V-A:TYR:539:CE1:4875, V-B:TYR:539:CG:9844, V-A:PRO:540:C:4881, V-B:TYR:539:CB:9843, V-A:HIS:383:CE1:3392, V-B:ASP:366:CB:8183, V-A:HIS:383:CD2:3391"]

$$$$
RR26_Rahimova_2017
     RDKit          3D

 38 44  0  0  0  0  0  0  0  0999 V2000
  133.7680  121.5300   61.7160 C   0  0  0  0  0  0  0  0  0  0  0  0
  132.6880  120.5330   61.3140 C   0  0  0  0  0  0  0  0  0  0  0  0
  133.0710  119.3940   60.5980 C   0  0  0  0  0  0  0  0  0  0  0  0
  132.1320  118.4290   60.2400 C   0  0  0  0  0  0  0  0  0  0  0  0
  130.7980  118.5930   60.6010 C   0  0  0  0  0  0  0  0  0  0  0  0
  130.4040  119.7230   61.3140 C   0  0  0  0  0  0  0  0  0  0  0  0
  131.3340  120.7090   61.6760 C   0  0  0  0  0  0  0  0  0  0  0  0
  130.8240  121.9030   62.4310 C   0  0  0  0  0  0  0  0  0  0  0  0
  130.8360  121.9630   63.7600 N   0  0  0  0  0  0  0  0  0  0  0  0
  130.3280  123.1450   63.9810 C   0  0  0  0  0  0  0  0  0  0  0  0
  129.9510  124.0880   65.3760 S   0  0  0  0  0  0  0  0  0  0  0  0
  129.3620  125.4070   64.2960 C   0  0  0  0  0  0  0  0  0  0  0  0
  128.8470  126.6040   64.6570 C   0  0  0  0  0  0  0  0  0  0  0  0
  128.6470  127.1250   65.9990 C   0  0  0  0  0  0  0  0  0  0  0  0
  129.0980  126.5990   67.1990 C   0  0  0  0  0  0  0  0  0  0  0  0
  128.7100  127.4470   68.2050 N   0  0  0  0  0  0  0  0  0  0  0  0
  128.9500  127.3240   69.5980 C   0  0  0  0  0  0  0  0  0  0  0  0
  129.4400  128.4090   70.3410 C   0  0  0  0  0  0  0  0  0  0  0  0
  129.6740  128.2740   71.7060 C   0  0  0  0  0  0  0  0  0  0  0  0
  129.4180  127.0580   72.3340 C   0  0  0  0  0  0  0  0  0  0  0  0
  128.9290  125.9740   71.6090 C   0  0  0  0  0  0  0  0  0  0  0  0
  128.6960  126.1040   70.2430 C   0  0  0  0  0  0  0  0  0  0  0  0
  128.0570  128.5030   67.6970 N   0  0  0  0  0  0  0  0  0  0  0  0
  128.0070  128.3230   66.3920 C   0  0  0  0  0  0  0  0  0  0  0  0
  127.3250  129.3360   65.5250 C   0  0  0  0  0  0  0  0  0  0  0  0
  126.0250  129.7690   65.8270 C   0  0  0  0  0  0  0  0  0  0  0  0
  125.3800  130.7100   65.0230 C   0  0  0  0  0  0  0  0  0  0  0  0
  126.0330  131.2270   63.9060 C   0  0  0  0  0  0  0  0  0  0  0  0
  127.3400  130.8160   63.6040 C   0  0  0  0  0  0  0  0  0  0  0  0
  127.9790  129.8710   64.4050 C   0  0  0  0  0  0  0  0  0  0  0  0
  128.0090  131.2670   62.4830 O   0  0  0  0  0  0  0  0  0  0  0  0
  127.4720  132.4720   61.9270 C   0  0  0  0  0  0  0  0  0  0  0  0
  125.9270  132.3980   61.8600 C   0  0  0  0  0  0  0  0  0  0  0  0
  125.3770  132.1910   63.1660 O   0  0  0  0  0  0  0  0  0  0  0  0
  129.4760  125.0600   62.8830 C   0  0  0  0  0  0  0  0  0  0  0  0
  129.1640  125.7230   61.8920 O   0  0  0  0  0  0  0  0  0  0  0  0
  130.0310  123.7720   62.8290 N   0  0  0  0  0  0  0  0  0  0  0  0
  130.3540  122.9730   61.8080 N   0  0  0  0  0  0  0  0  0  0  0  0
  1  2  1  0
  2  3  2  0
  3  4  1  0
  4  5  2  0
  5  6  1  0
  6  7  2  0
  7  8  1  0
  8  9  1  0
  9 10  2  0
 10 11  1  0
 11 12  1  0
 12 13  2  0
 13 14  1  0
 14 15  2  0
 15 16  1  0
 16 17  1  0
 17 18  2  0
 18 19  1  0
 19 20  2  0
 20 21  1  0
 21 22  2  0
 16 23  1  0
 23 24  2  0
 24 25  1  0
 25 26  2  0
 26 27  1  0
 27 28  2  0
 28 29  1  0
 29 30  2  0
 29 31  1  0
 31 32  1  0
 32 33  1  0
 33 34  1  0
 12 35  1  0
 35 36  2  0
 35 37  1  0
 37 38  1  0
  7  2  1  0
 38  8  2  0
 37 10  1  0
 24 14  1  0
 30 25  1  0
 22 17  1  0
 34 28  1  0
M  END
>  <Binding energies>  (48) 
[-8.21]

>  <Ligand effiencies>  (48) 
[-0.21605263157894739]

>  <Interactions>  (48) 
["V-A:ILE:369:CG2:3236, V-B:TYR:539:CD2:9846, V-B:ALA:541:CB:9864, V-B:GLU:543:CG:9879, V-B:GLU:543:CD:9880, V-A:LEU:475:CD1:4257, V-A:GLU:543:CD:4908, V-A:TYR:484:CE2:4345, V-B:GLU:543:CB:9878, V-A:HIS:456:CE1:4069, V-B:HIS:456:CE1:9041, V-A:TYR:484:CZ:4346, V-A:PRO:482:CG:4326, H-A:TYR:484:OH:4347, V-A:ILE:369:CD1:3238, V-A:GLU:543:CG:4907, V-B:TYR:484:CZ:9318, V-A:ALA:541:CB:4892, V-B:GLU:543:C:9874, V-A:GLU:543:C:4902, V-B:LEU:475:CD1:9229, V-B:GLY:454:CA:9020"]

$$$$
RR2_Rahimova_2017
     RDKit          3D

 46 50  0  0  0  0  0  0  0  0999 V2000
  131.2070  126.6610   74.6790 C   0  0  0  0  0  0  0  0  0  0  0  0
  130.1480  127.4540   74.1550 O   0  0  0  0  0  0  0  0  0  0  0  0
  129.8370  127.3610   72.8110 C   0  0  0  0  0  0  0  0  0  0  0  0
  130.1690  128.3300   71.8540 C   0  0  0  0  0  0  0  0  0  0  0  0
  129.8100  128.1520   70.5210 C   0  0  0  0  0  0  0  0  0  0  0  0
  129.1110  127.0070   70.1140 C   0  0  0  0  0  0  0  0  0  0  0  0
  128.7250  126.8400   68.6570 C   0  0  0  0  0  0  0  0  0  0  0  0
  128.6980  125.7160   68.1440 O   0  0  0  0  0  0  0  0  0  0  0  0
  128.4410  127.9820   67.9870 N   0  0  0  0  0  0  0  0  0  0  0  0
  128.1720  127.8940   66.6260 N   0  0  0  0  0  0  0  0  0  0  0  0
  126.9400  128.2330   66.1960 C   0  0  0  0  0  0  0  0  0  0  0  0
  125.9700  128.4450   66.9300 O   0  0  0  0  0  0  0  0  0  0  0  0
  126.7860  128.3750   64.6750 C   0  0  0  0  0  0  0  0  0  0  0  0
  128.3520  128.3260   63.7300 S   0  0  0  0  0  0  0  0  0  0  0  0
  128.1530  126.8080   62.8480 C   0  0  0  0  0  0  0  0  0  0  0  0
  127.0870  126.5270   62.1420 N   0  0  0  0  0  0  0  0  0  0  0  0
  127.2370  125.2370   61.6530 N   0  0  0  0  0  0  0  0  0  0  0  0
  128.4040  124.7960   62.0580 C   0  0  0  0  0  0  0  0  0  0  0  0
  128.9350  123.4420   61.7160 C   0  0  0  0  0  0  0  0  0  0  0  0
  129.4340  122.6150   62.7260 C   0  0  0  0  0  0  0  0  0  0  0  0
  129.9360  121.3560   62.4160 C   0  0  0  0  0  0  0  0  0  0  0  0
  129.9290  120.9020   61.0920 C   0  0  0  0  0  0  0  0  0  0  0  0
  130.4330  119.6460   60.7200 N   0  0  0  0  0  0  0  0  0  0  0  0
  132.1450  119.1750   60.8090 S   0  0  0  0  0  0  0  0  0  0  0  0
  132.5040  118.7040   59.4660 O   0  0  0  0  0  0  0  0  0  0  0  0
  132.3190  118.3100   61.9820 O   0  0  0  0  0  0  0  0  0  0  0  0
  133.0380  120.7050   61.0740 C   0  0  0  0  0  0  0  0  0  0  0  0
  132.8240  121.8070   60.2440 C   0  0  0  0  0  0  0  0  0  0  0  0
  133.5410  122.9820   60.4580 C   0  0  0  0  0  0  0  0  0  0  0  0
  134.4650  123.0560   61.5030 C   0  0  0  0  0  0  0  0  0  0  0  0
  135.2560  124.3320   61.7250 C   0  0  0  0  0  0  0  0  0  0  0  0
  134.6790  121.9500   62.3290 C   0  0  0  0  0  0  0  0  0  0  0  0
  133.9650  120.7750   62.1160 C   0  0  0  0  0  0  0  0  0  0  0  0
  129.4280  121.7270   60.0850 C   0  0  0  0  0  0  0  0  0  0  0  0
  128.9310  122.9900   60.3930 C   0  0  0  0  0  0  0  0  0  0  0  0
  129.0440  125.7500   62.8320 N   0  0  0  0  0  0  0  0  0  0  0  0
  130.2870  125.6550   63.4910 C   0  0  0  0  0  0  0  0  0  0  0  0
  131.4580  125.4900   62.7490 C   0  0  0  0  0  0  0  0  0  0  0  0
  132.6820  125.4020   63.4050 C   0  0  0  0  0  0  0  0  0  0  0  0
  132.7500  125.4760   64.7970 C   0  0  0  0  0  0  0  0  0  0  0  0
  134.0090  125.3780   65.3570 O   0  0  0  0  0  0  0  0  0  0  0  0
  134.1410  125.3810   66.7750 C   0  0  0  0  0  0  0  0  0  0  0  0
  131.5670  125.6430   65.5350 C   0  0  0  0  0  0  0  0  0  0  0  0
  130.3400  125.7330   64.8840 C   0  0  0  0  0  0  0  0  0  0  0  0
  128.7870  126.0390   71.0770 C   0  0  0  0  0  0  0  0  0  0  0  0
  129.1480  126.2190   72.4100 C   0  0  0  0  0  0  0  0  0  0  0  0
  1  2  1  0
  2  3  1  0
  3  4  2  0
  4  5  1  0
  5  6  2  0
  6  7  1  0
  7  8  2  0
  7  9  1  0
  9 10  1  0
 10 11  1  0
 11 12  2  0
 11 13  1  0
 13 14  1  0
 14 15  1  0
 15 16  2  0
 16 17  1  0
 17 18  2  0
 18 19  1  0
 19 20  2  0
 20 21  1  0
 21 22  2  0
 22 23  1  0
 23 24  1  0
 24 25  2  0
 24 26  2  0
 24 27  1  0
 27 28  2  0
 28 29  1  0
 29 30  2  0
 30 31  1  0
 30 32  1  0
 32 33  2  0
 22 34  1  0
 34 35  2  0
 18 36  1  0
 36 37  1  0
 37 38  2  0
 38 39  1  0
 39 40  2  0
 40 41  1  0
 41 42  1  0
 40 43  1  0
 43 44  2  0
  6 45  1  0
 45 46  2  0
 46  3  1  0
 36 15  1  0
 44 37  1  0
 35 19  1  0
 33 27  1  0
M  END
>  <Binding energies>  (49) 
[-10.6]

>  <Ligand effiencies>  (49) 
[-0.21632653061224488]

>  <Interactions>  (49) 
["V-A:ILE:369:CG2:3236, V-A:ASP:366:CG:3212, V-B:TYR:539:CD2:9846, V-A:SER:385:C:3404, V-B:PRO:540:CA:9855, V-B:TYR:539:C:9839, V-B:TYR:539:CE2:9848, V-B:ALA:541:CB:9864, V-A:ARG:545:CZ:4926, V-A:GLY:454:CA:4048, V-B:GLU:543:CD:9880, V-A:LEU:475:CD1:4257, H-A:GLU:543:O:4903, V-A:ARG:545:CG:4922, V-A:GLU:543:CD:4908, H-A:ARG:545:NE:4924, H-A:GLY:454:N:4049, H-A:GLU:543:OE1:4909, V-A:HIS:456:CE1:4069, H-A:ARG:545:NH1:4927, H-A:ARG:545:NH2:4928, V-B:HIS:456:CE1:9041, H-A:HIS:383:NE2:3393, H-A:SER:385:OG:3409, H-B:GLU:543:OE2:9882, V-A:ARG:545:CD:4923, H-A:TYR:484:OH:4347, V-A:GLY:453:CA:4043, V-A:GLY:453:C:4041, V-A:ILE:369:CD1:3238, V-B:HIS:456:CD2:9039, V-B:GLU:543:C:9874, H-A:LYS:547:NZ:4951, H-B:TYR:539:O:9840, H-B:ARG:545:NH2:9900, V-A:GLU:543:C:4902, V-B:ALA:541:CA:9862, V-A:ASP:366:CA:3209, H-B:TYR:484:OH:9319, H-B:ARG:545:NE:9896"]

$$$$
RR33_Rahimova_2017
     RDKit          3D

 18 19  0  0  0  0  0  0  0  0999 V2000
  132.8120  125.5940   56.4520 C   0  0  0  0  0  0  0  0  0  0  0  0
  131.8950  124.9720   57.5100 C   0  0  0  0  0  0  0  0  0  0  0  0
  132.6650  124.0880   58.3190 O   0  0  0  0  0  0  0  0  0  0  0  0
  132.7760  124.3320   59.6750 C   0  0  0  0  0  0  0  0  0  0  0  0
  131.7150  125.0110   60.2730 C   0  0  0  0  0  0  0  0  0  0  0  0
  131.7390  125.3060   61.6330 C   0  0  0  0  0  0  0  0  0  0  0  0
  132.8300  124.9220   62.4190 C   0  0  0  0  0  0  0  0  0  0  0  0
  132.8550  125.2390   63.8800 C   0  0  0  0  0  0  0  0  0  0  0  0
  131.9070  125.8020   64.5950 N   0  0  0  0  0  0  0  0  0  0  0  0
  132.3920  125.8710   65.8250 C   0  0  0  0  0  0  0  0  0  0  0  0
  131.5700  126.4590   66.9530 C   0  0  0  0  0  0  0  0  0  0  0  0
  130.1700  126.5620   66.5690 N   0  0  0  0  0  0  0  0  0  0  0  0
  129.4450  125.3600   66.9450 C   0  0  0  0  0  0  0  0  0  0  0  0
  133.6730  125.3340   65.8530 C   0  0  0  0  0  0  0  0  0  0  0  0
  134.7240  125.1200   66.9150 C   0  0  0  0  0  0  0  0  0  0  0  0
  133.9670  124.9290   64.5960 O   0  0  0  0  0  0  0  0  0  0  0  0
  133.8940  124.2380   61.8240 C   0  0  0  0  0  0  0  0  0  0  0  0
  133.8710  123.9440   60.4630 C   0  0  0  0  0  0  0  0  0  0  0  0
  1  2  1  0
  2  3  1  0
  3  4  1  0
  4  5  2  0
  5  6  1  0
  6  7  2  0
  7  8  1  0
  8  9  2  0
  9 10  1  0
 10 11  1  0
 11 12  1  0
 12 13  1  0
 10 14  2  0
 14 15  1  0
 14 16  1  0
  7 17  1  0
 17 18  2  0
 18  4  1  0
 16  8  1  0
M  END
>  <Binding energies>  (50) 
[-5.14]

>  <Ligand effiencies>  (50) 
[-0.27052631578947367]

>  <Interactions>  (50) 
["V-A:ASP:366:CG:3212, V-B:TYR:539:CE2:9848, V-B:TYR:539:CZ:9849, V-A:ARG:545:CZ:4926, V-A:GLY:454:CA:4048, V-B:GLU:543:CG:9879, V-B:GLU:543:CD:9880, V-A:ARG:545:CG:4922, V-A:GLU:543:CD:4908, V-A:TYR:484:CE2:4345, H-A:ARG:545:NE:4924, H-A:GLY:454:N:4049, H-A:GLU:543:OE1:4909, V-B:GLU:543:CB:9878, V-A:HIS:456:CE1:4069, H-A:ARG:545:NH1:4927, H-A:ARG:545:NH2:4928, V-A:ARG:545:CD:4923, H-A:TYR:484:OH:4347, V-A:ASP:366:CB:3211, V-A:GLY:453:CA:4043, V-A:GLY:453:C:4041, V-A:ILE:369:CD1:3238, V-A:ILE:455:C:4051, V-A:GLY:454:C:4046, V-A:ASP:366:C:3207, H-B:TYR:539:OH:9850, V-A:ASP:366:CA:3209, V-A:ASN:370:CB:3244"]

$$$$
RR3_Rahimova_2017
     RDKit          3D

 38 44  0  0  0  0  0  0  0  0999 V2000
  126.6780  133.6890   61.6460 C   0  0  0  0  0  0  0  0  0  0  0  0
  125.8480  132.8200   62.3470 C   0  0  0  0  0  0  0  0  0  0  0  0
  126.2820  131.5280   62.6290 C   0  0  0  0  0  0  0  0  0  0  0  0
  127.5490  131.0880   62.2160 C   0  0  0  0  0  0  0  0  0  0  0  0
  128.0150  129.6980   62.5200 C   0  0  0  0  0  0  0  0  0  0  0  0
  129.2960  129.2700   62.1470 C   0  0  0  0  0  0  0  0  0  0  0  0
  129.7270  127.9760   62.4270 C   0  0  0  0  0  0  0  0  0  0  0  0
  128.8820  127.0770   63.0830 C   0  0  0  0  0  0  0  0  0  0  0  0
  129.3380  125.6830   63.3820 C   0  0  0  0  0  0  0  0  0  0  0  0
  129.5640  124.8300   62.3890 N   0  0  0  0  0  0  0  0  0  0  0  0
  129.9900  123.7190   62.9400 C   0  0  0  0  0  0  0  0  0  0  0  0
  130.3590  122.5070   62.2130 C   0  0  0  0  0  0  0  0  0  0  0  0
  129.4940  121.6930   61.5020 C   0  0  0  0  0  0  0  0  0  0  0  0
  130.1820  120.6500   60.9390 N   0  0  0  0  0  0  0  0  0  0  0  0
  131.5180  120.7410   61.2600 C   0  0  0  0  0  0  0  0  0  0  0  0
  132.5970  119.9180   60.9210 C   0  0  0  0  0  0  0  0  0  0  0  0
  133.8500  120.2830   61.4110 C   0  0  0  0  0  0  0  0  0  0  0  0
  134.0280  121.4130   62.2030 C   0  0  0  0  0  0  0  0  0  0  0  0
  132.9530  122.2330   62.5400 C   0  0  0  0  0  0  0  0  0  0  0  0
  131.6670  121.9100   62.0720 C   0  0  0  0  0  0  0  0  0  0  0  0
  130.0380  123.8350   64.3020 N   0  0  0  0  0  0  0  0  0  0  0  0
  129.5990  125.0910   64.6300 C   0  0  0  0  0  0  0  0  0  0  0  0
  129.4580  125.5580   66.0420 C   0  0  0  0  0  0  0  0  0  0  0  0
  128.9500  126.8290   66.3110 C   0  0  0  0  0  0  0  0  0  0  0  0
  128.8290  127.2720   67.6250 C   0  0  0  0  0  0  0  0  0  0  0  0
  129.2080  126.4550   68.6990 C   0  0  0  0  0  0  0  0  0  0  0  0
  129.0950  126.9420   70.1090 C   0  0  0  0  0  0  0  0  0  0  0  0
  128.7340  126.0680   71.1460 C   0  0  0  0  0  0  0  0  0  0  0  0
  128.6330  126.5210   72.4590 C   0  0  0  0  0  0  0  0  0  0  0  0
  128.8940  127.8560   72.7500 C   0  0  0  0  0  0  0  0  0  0  0  0
  129.2550  128.7390   71.7390 C   0  0  0  0  0  0  0  0  0  0  0  0
  129.3540  128.2840   70.4270 C   0  0  0  0  0  0  0  0  0  0  0  0
  129.7010  125.1730   68.4150 C   0  0  0  0  0  0  0  0  0  0  0  0
  129.8230  124.7270   67.1030 C   0  0  0  0  0  0  0  0  0  0  0  0
  127.6090  127.4980   63.4710 C   0  0  0  0  0  0  0  0  0  0  0  0
  127.1800  128.7930   63.1890 C   0  0  0  0  0  0  0  0  0  0  0  0
  128.3680  131.9810   61.5100 C   0  0  0  0  0  0  0  0  0  0  0  0
  127.9380  133.2740   61.2260 C   0  0  0  0  0  0  0  0  0  0  0  0
  1  2  2  0
  2  3  1  0
  3  4  2  0
  4  5  1  0
  5  6  2  0
  6  7  1  0
  7  8  2  0
  8  9  1  0
  9 10  1  0
 10 11  2  0
 11 12  1  0
 12 13  2  0
 13 14  1  0
 14 15  1  0
 15 16  2  0
 16 17  1  0
 17 18  2  0
 18 19  1  0
 19 20  2  0
 11 21  1  0
 21 22  1  0
 22 23  1  0
 23 24  2  0
 24 25  1  0
 25 26  2  0
 26 27  1  0
 27 28  2  0
 28 29  1  0
 29 30  2  0
 30 31  1  0
 31 32  2  0
 26 33  1  0
 33 34  2  0
  8 35  1  0
 35 36  2  0
  4 37  1  0
 37 38  2  0
 38  1  1  0
 36  5  1  0
 22  9  2  0
 34 23  1  0
 20 12  1  0
 32 27  1  0
 20 15  1  0
M  END
>  <Binding energies>  (51) 
[-9.22]

>  <Ligand effiencies>  (51) 
[-0.2305]

>  <Interactions>  (51) 
["V-A:ILE:369:CG2:3236, V-B:TYR:539:CD2:9846, V-A:SER:385:C:3404, V-B:ALA:541:CB:9864, V-A:GLY:454:CA:4048, V-B:GLU:543:CG:9879, V-B:GLU:543:CD:9880, V-A:LEU:475:CD1:4257, V-A:GLU:543:CD:4908, V-A:TYR:484:CE2:4345, V-B:GLU:543:CB:9878, V-A:HIS:456:CE1:4069, V-B:HIS:456:CE1:9041, V-A:TYR:484:CZ:4346, H-A:TYR:484:OH:4347, V-A:ILE:369:CD1:3238, V-B:HIS:456:CD2:9039, V-A:ALA:541:CB:4892, H-B:TYR:539:O:9840, V-A:GLU:543:C:4902, V-B:LEU:475:CD1:9229"]

$$$$
RR4_Rahimova_2017
     RDKit          3D

 40 44  0  0  0  0  0  0  0  0999 V2000
  134.4610  121.8870   62.3690 C   0  0  0  0  0  0  0  0  0  0  0  0
  133.1250  121.5200   62.6970 O   0  0  0  0  0  0  0  0  0  0  0  0
  132.2950  122.4540   63.2880 C   0  0  0  0  0  0  0  0  0  0  0  0
  132.7320  123.7770   63.2730 C   0  0  0  0  0  0  0  0  0  0  0  0
  131.9620  124.7850   63.8440 C   0  0  0  0  0  0  0  0  0  0  0  0
  130.7300  124.4990   64.4510 C   0  0  0  0  0  0  0  0  0  0  0  0
  129.9010  125.5900   65.0670 C   0  0  0  0  0  0  0  0  0  0  0  0
  129.8420  125.8090   66.4470 C   0  0  0  0  0  0  0  0  0  0  0  0
  129.0570  126.8430   66.9730 C   0  0  0  0  0  0  0  0  0  0  0  0
  129.0660  127.0340   68.4550 C   0  0  0  0  0  0  0  0  0  0  0  0
  128.7070  125.9810   69.3010 C   0  0  0  0  0  0  0  0  0  0  0  0
  128.7240  126.1470   70.6830 C   0  0  0  0  0  0  0  0  0  0  0  0
  129.1060  127.3650   71.2460 C   0  0  0  0  0  0  0  0  0  0  0  0
  129.0930  127.4370   72.6260 O   0  0  0  0  0  0  0  0  0  0  0  0
  128.5970  126.3320   73.3750 C   0  0  0  0  0  0  0  0  0  0  0  0
  129.4720  128.4230   70.4010 C   0  0  0  0  0  0  0  0  0  0  0  0
  129.4550  128.2540   69.0190 C   0  0  0  0  0  0  0  0  0  0  0  0
  128.3040  127.6410   66.0780 C   0  0  0  0  0  0  0  0  0  0  0  0
  127.4670  128.7370   66.5750 C   0  0  0  0  0  0  0  0  0  0  0  0
  126.8050  129.6010   66.9670 N   0  0  0  0  0  0  0  0  0  0  0  0
  128.3870  127.3450   64.6980 C   0  0  0  0  0  0  0  0  0  0  0  0
  127.5020  128.2330   63.4330 S   0  0  0  0  0  0  0  0  0  0  0  0
  126.4900  127.0270   62.5120 C   0  0  0  0  0  0  0  0  0  0  0  0
  127.2980  126.0140   61.6890 C   0  0  0  0  0  0  0  0  0  0  0  0
  126.7250  125.1450   61.0270 O   0  0  0  0  0  0  0  0  0  0  0  0
  128.6410  126.1570   61.7750 N   0  0  0  0  0  0  0  0  0  0  0  0
  129.6370  125.4020   61.1510 C   0  0  0  0  0  0  0  0  0  0  0  0
  131.0200  126.1180   60.3680 S   0  0  0  0  0  0  0  0  0  0  0  0
  131.6420  124.5600   59.9170 C   0  0  0  0  0  0  0  0  0  0  0  0
  130.8040  123.5230   60.3550 C   0  0  0  0  0  0  0  0  0  0  0  0
  129.6770  124.0010   61.0670 C   0  0  0  0  0  0  0  0  0  0  0  0
  128.6610  123.1270   61.6460 C   0  0  0  0  0  0  0  0  0  0  0  0
  127.8560  122.4330   62.1030 N   0  0  0  0  0  0  0  0  0  0  0  0
  131.1550  122.0510   60.1130 C   0  0  0  0  0  0  0  0  0  0  0  0
  132.6450  121.9020   59.7300 C   0  0  0  0  0  0  0  0  0  0  0  0
  133.0790  122.9320   58.6730 C   0  0  0  0  0  0  0  0  0  0  0  0
  132.9730  124.3800   59.1980 C   0  0  0  0  0  0  0  0  0  0  0  0
  129.1790  126.3600   64.2130 N   0  0  0  0  0  0  0  0  0  0  0  0
  130.2960  123.1640   64.4570 C   0  0  0  0  0  0  0  0  0  0  0  0
  131.0650  122.1530   63.8870 C   0  0  0  0  0  0  0  0  0  0  0  0
  1  2  1  0
  2  3  1  0
  3  4  2  0
  4  5  1  0
  5  6  2  0
  6  7  1  0
  7  8  2  0
  8  9  1  0
  9 10  1  0
 10 11  2  0
 11 12  1  0
 12 13  2  0
 13 14  1  0
 14 15  1  0
 13 16  1  0
 16 17  2  0
  9 18  2  0
 18 19  1  0
 19 20  3  0
 18 21  1  0
 21 22  1  0
 22 23  1  0
 23 24  1  0
 24 25  2  0
 24 26  1  0
 26 27  1  0
 27 28  1  0
 28 29  1  0
 29 30  2  0
 30 31  1  0
 31 32  1  0
 32 33  3  0
 30 34  1  0
 34 35  1  0
 35 36  1  0
 36 37  1  0
 21 38  2  0
  6 39  1  0
 39 40  2  0
 40  3  1  0
 38  7  1  0
 17 10  1  0
 31 27  2  0
 37 29  1  0
M  END
>  <Binding energies>  (52) 
[-7.13]

>  <Ligand effiencies>  (52) 
[-0.17390243902439023]

>  <Interactions>  (52) 
["V-A:ILE:369:CG2:3236, H-B:ALA:541:N:9863, V-A:ASP:366:CG:3212, V-B:TYR:539:CD2:9846, V-B:TYR:539:CE2:9848, V-B:TYR:539:CZ:9849, V-B:ASP:366:CG:8184, V-B:ALA:541:CB:9864, V-A:GLY:454:CA:4048, V-B:GLU:543:CG:9879, V-B:GLU:543:CD:9880, V-A:LEU:475:CD1:4257, V-A:GLU:543:CB:4906, V-A:GLU:543:CD:4908, V-B:GLU:543:CB:9878, V-A:HIS:456:CE1:4069, V-B:HIS:456:CE1:9041, V-A:ASP:366:CB:3211, V-A:GLY:453:C:4041, V-A:ILE:369:CD1:3238, V-B:HIS:456:CD2:9039, V-B:GLU:543:C:9874, V-A:GLU:543:C:4902, V-B:ARG:545:CZ:9898, V-A:ASP:366:CA:3209, V-A:ILE:369:CB:3235, H-B:TYR:484:OH:9319"]

$$$$
RR6_Rahimova_2017
     RDKit          3D

 38 41  0  0  0  0  0  0  0  0999 V2000
  134.3770  121.2360   62.4000 C   0  0  0  0  0  0  0  0  0  0  0  0
  134.6560  120.3220   61.3490 O   0  0  0  0  0  0  0  0  0  0  0  0
  133.6800  119.5310   60.8330 C   0  0  0  0  0  0  0  0  0  0  0  0
  133.8570  118.3490   60.5220 O   0  0  0  0  0  0  0  0  0  0  0  0
  132.3630  120.2360   60.6800 C   0  0  0  0  0  0  0  0  0  0  0  0
  132.2530  121.4710   60.0250 C   0  0  0  0  0  0  0  0  0  0  0  0
  131.0170  122.1030   59.9060 C   0  0  0  0  0  0  0  0  0  0  0  0
  129.8680  121.5090   60.4470 C   0  0  0  0  0  0  0  0  0  0  0  0
  128.5790  122.0730   60.4090 N   0  0  0  0  0  0  0  0  0  0  0  0
  127.9300  122.6570   59.3770 C   0  0  0  0  0  0  0  0  0  0  0  0
  128.3760  122.7900   58.2380 O   0  0  0  0  0  0  0  0  0  0  0  0
  126.5540  123.2420   59.7080 C   0  0  0  0  0  0  0  0  0  0  0  0
  126.2830  123.5180   61.4900 S   0  0  0  0  0  0  0  0  0  0  0  0
  127.4000  124.8140   61.9850 C   0  0  0  0  0  0  0  0  0  0  0  0
  126.9970  126.0600   61.6400 N   0  0  0  0  0  0  0  0  0  0  0  0
  127.7520  127.1320   61.9890 C   0  0  0  0  0  0  0  0  0  0  0  0
  127.2040  128.4810   61.6230 C   0  0  0  0  0  0  0  0  0  0  0  0
  126.1400  128.6070   60.7170 C   0  0  0  0  0  0  0  0  0  0  0  0
  125.6410  129.8590   60.3680 C   0  0  0  0  0  0  0  0  0  0  0  0
  126.1950  131.0110   60.9240 C   0  0  0  0  0  0  0  0  0  0  0  0
  125.6540  132.3740   60.5330 C   0  0  0  0  0  0  0  0  0  0  0  0
  127.2510  130.9070   61.8260 C   0  0  0  0  0  0  0  0  0  0  0  0
  127.7450  129.6540   62.1720 C   0  0  0  0  0  0  0  0  0  0  0  0
  128.9500  126.9650   62.6900 C   0  0  0  0  0  0  0  0  0  0  0  0
  129.3910  125.6850   63.0550 C   0  0  0  0  0  0  0  0  0  0  0  0
  130.6700  125.5810   63.8180 C   0  0  0  0  0  0  0  0  0  0  0  0
  131.8510  125.2150   63.1650 C   0  0  0  0  0  0  0  0  0  0  0  0
  133.0510  125.1310   63.8660 C   0  0  0  0  0  0  0  0  0  0  0  0
  133.0960  125.4160   65.2300 C   0  0  0  0  0  0  0  0  0  0  0  0
  134.3290  125.3090   65.8430 O   0  0  0  0  0  0  0  0  0  0  0  0
  134.3910  125.1660   67.2580 C   0  0  0  0  0  0  0  0  0  0  0  0
  131.9150  125.7900   65.8890 C   0  0  0  0  0  0  0  0  0  0  0  0
  130.7170  125.8730   65.1850 C   0  0  0  0  0  0  0  0  0  0  0  0
  128.5980  124.5710   62.6880 C   0  0  0  0  0  0  0  0  0  0  0  0
  129.0150  123.2030   63.0120 C   0  0  0  0  0  0  0  0  0  0  0  0
  129.3430  122.1230   63.2700 N   0  0  0  0  0  0  0  0  0  0  0  0
  129.9710  120.2720   61.0850 C   0  0  0  0  0  0  0  0  0  0  0  0
  131.2070  119.6430   61.2050 C   0  0  0  0  0  0  0  0  0  0  0  0
  1  2  1  0
  2  3  1  0
  3  4  2  0
  3  5  1  0
  5  6  2  0
  6  7  1  0
  7  8  2  0
  8  9  1  0
  9 10  1  0
 10 11  2  0
 10 12  1  0
 12 13  1  0
 13 14  1  0
 14 15  2  0
 15 16  1  0
 16 17  1  0
 17 18  2  0
 18 19  1  0
 19 20  2  0
 20 21  1  0
 20 22  1  0
 22 23  2  0
 16 24  2  0
 24 25  1  0
 25 26  1  0
 26 27  2  0
 27 28  1  0
 28 29  2  0
 29 30  1  0
 30 31  1  0
 29 32  1  0
 32 33  2  0
 25 34  2  0
 34 35  1  0
 35 36  3  0
  8 37  1  0
 37 38  2  0
 38  5  1  0
 34 14  1  0
 23 17  1  0
 33 26  1  0
M  END
>  <Binding energies>  (53) 
[-8.13]

>  <Ligand effiencies>  (53) 
[-0.20846153846153848]

>  <Interactions>  (53) 
["V-B:PRO:540:CB:9857, V-A:ILE:369:CG2:3236, H-B:ALA:541:N:9863, V-B:TYR:539:CD2:9846, V-A:SER:385:C:3404, V-A:SER:385:CA:3406, V-B:PRO:540:CA:9855, V-B:TYR:539:C:9839, V-B:TYR:539:CE2:9848, V-B:PRO:540:N:9856, V-B:ASP:366:CG:8184, V-B:ALA:541:CB:9864, V-A:ARG:545:CZ:4926, V-A:GLY:454:CA:4048, V-B:GLU:543:CG:9879, V-B:GLU:543:CD:9880, V-A:LEU:475:CD1:4257, V-A:ARG:545:CG:4922, H-A:ARG:545:NE:4924, H-A:GLY:454:N:4049, V-A:HIS:456:CE1:4069, V-A:TYR:484:CZ:4346, H-A:HIS:383:NE2:3393, H-A:SER:385:OG:3409, V-A:ARG:545:CD:4923, H-A:TYR:484:OH:4347, V-A:TYR:539:CD1:4873, V-A:TYR:539:CE1:4875, V-A:ILE:369:CD1:3238, V-A:ILE:455:C:4051, V-B:PRO:540:C:9853, H-B:TYR:539:O:9840, H-B:ARG:545:NH2:9900, V-B:ILE:369:CG2:8208"]

$$$$
RR7_Rahimova_2017
     RDKit          3D

 47 53  0  0  0  0  0  0  0  0999 V2000
  125.6300  123.4380   56.6480 C   0  0  0  0  0  0  0  0  0  0  0  0
  126.7890  124.2130   56.9370 O   0  0  0  0  0  0  0  0  0  0  0  0
  127.7060  123.7360   57.8540 C   0  0  0  0  0  0  0  0  0  0  0  0
  128.8200  124.5380   58.0950 C   0  0  0  0  0  0  0  0  0  0  0  0
  129.7940  124.1430   59.0060 C   0  0  0  0  0  0  0  0  0  0  0  0
  129.6820  122.9250   59.6930 C   0  0  0  0  0  0  0  0  0  0  0  0
  130.7430  122.4720   60.7450 C   0  0  0  0  0  0  0  0  0  0  0  0
  130.2500  122.9080   62.0320 O   0  0  0  0  0  0  0  0  0  0  0  0
  128.9980  123.5950   62.1260 C   0  0  0  0  0  0  0  0  0  0  0  0
  129.2570  125.1110   62.1140 C   0  0  1  0  0  0  0  0  0  0  0  0
  128.9450  125.5930   63.4180 O   0  0  0  0  0  0  0  0  0  0  0  0
  130.0410  126.2160   64.0220 C   0  0  1  0  0  0  0  0  0  0  0  0
  130.0100  126.0010   65.4560 N   0  0  0  0  0  0  0  0  0  0  0  0
  130.7930  125.1400   66.2060 C   0  0  0  0  0  0  0  0  0  0  0  0
  130.5230  125.1090   67.4870 N   0  0  0  0  0  0  0  0  0  0  0  0
  129.4620  125.9640   67.6190 C   0  0  0  0  0  0  0  0  0  0  0  0
  128.7010  126.3570   68.7360 C   0  0  0  0  0  0  0  0  0  0  0  0
  129.0310  125.8280   69.9980 N   0  0  0  0  0  0  0  0  0  0  0  0
  129.1140  126.4610   71.1920 C   0  0  0  0  0  0  0  0  0  0  0  0
  128.9180  127.6680   71.3540 O   0  0  0  0  0  0  0  0  0  0  0  0
  129.5060  125.5920   72.3690 C   0  0  0  0  0  0  0  0  0  0  0  0
  129.9630  126.1910   73.5530 C   0  0  0  0  0  0  0  0  0  0  0  0
  130.3230  125.4120   74.6480 C   0  0  0  0  0  0  0  0  0  0  0  0
  130.2260  124.0260   74.5700 C   0  0  0  0  0  0  0  0  0  0  0  0
  129.7720  123.4120   73.4070 C   0  0  0  0  0  0  0  0  0  0  0  0
  129.4120  124.1910   72.3100 C   0  0  0  0  0  0  0  0  0  0  0  0
  127.6650  127.2330   68.5640 N   0  0  0  0  0  0  0  0  0  0  0  0
  127.4200  127.6850   67.3070 C   0  0  0  0  0  0  0  0  0  0  0  0
  128.0900  127.3760   66.1650 N   0  0  0  0  0  0  0  0  0  0  0  0
  129.1030  126.5220   66.3650 C   0  0  0  0  0  0  0  0  0  0  0  0
  131.2660  125.6500   63.3130 C   0  0  0  0  0  0  0  0  0  0  0  0
  130.7220  125.5170   61.9000 C   0  0  2  0  0  0  0  0  0  0  0  0
  130.8480  126.7240   61.1670 O   0  0  0  0  0  0  0  0  0  0  0  0
  130.8850  120.9290   60.8130 C   0  0  0  0  0  0  0  0  0  0  0  0
  129.9480  120.1610   61.5230 C   0  0  0  0  0  0  0  0  0  0  0  0
  130.0730  118.7790   61.6030 C   0  0  0  0  0  0  0  0  0  0  0  0
  131.1400  118.1460   60.9720 C   0  0  0  0  0  0  0  0  0  0  0  0
  132.0810  118.8860   60.2630 C   0  0  0  0  0  0  0  0  0  0  0  0
  131.9560  120.2700   60.1850 C   0  0  0  0  0  0  0  0  0  0  0  0
  132.1840  123.0160   60.5300 C   0  0  0  0  0  0  0  0  0  0  0  0
  132.6590  123.2750   59.2350 C   0  0  0  0  0  0  0  0  0  0  0  0
  133.9500  123.7520   59.0310 C   0  0  0  0  0  0  0  0  0  0  0  0
  134.7860  123.9670   60.1240 C   0  0  0  0  0  0  0  0  0  0  0  0
  134.3400  123.7040   61.4160 C   0  0  0  0  0  0  0  0  0  0  0  0
  133.0480  123.2270   61.6170 C   0  0  0  0  0  0  0  0  0  0  0  0
  128.5520  122.1290   59.4570 C   0  0  0  0  0  0  0  0  0  0  0  0
  127.5770  122.5240   58.5460 C   0  0  0  0  0  0  0  0  0  0  0  0
  1  2  1  0
  2  3  1  0
  3  4  2  0
  4  5  1  0
  5  6  2  0
  6  7  1  0
  7  8  1  0
  8  9  1  0
 10  9  1  1
 10 11  1  0
 11 12  1  0
 12 13  1  1
 13 14  1  0
 14 15  2  0
 15 16  1  0
 16 17  2  0
 17 18  1  0
 18 19  1  0
 19 20  2  0
 19 21  1  0
 21 22  2  0
 22 23  1  0
 23 24  2  0
 24 25  1  0
 25 26  2  0
 17 27  1  0
 27 28  2  0
 28 29  1  0
 29 30  2  0
 12 31  1  0
 31 32  1  0
 32 33  1  6
  7 34  1  0
 34 35  2  0
 35 36  1  0
 36 37  2  0
 37 38  1  0
 38 39  2  0
  7 40  1  0
 40 41  2  0
 41 42  1  0
 42 43  2  0
 43 44  1  0
 44 45  2  0
  6 46  1  0
 46 47  2  0
 47  3  1  0
 32 10  1  0
 39 34  1  0
 45 40  1  0
 30 13  1  0
 30 16  1  0
 26 21  1  0
M  END
>  <Binding energies>  (54) 
[-9.46]

>  <Ligand effiencies>  (54) 
[-0.19306122448979593]

>  <Interactions>  (54) 
["V-B:PRO:540:CB:9857, V-A:ILE:369:CG2:3236, V-A:ASP:366:CG:3212, V-B:TYR:539:CD2:9846, V-B:PRO:540:CA:9855, V-B:TYR:539:C:9839, V-B:TYR:539:CE2:9848, V-B:PRO:540:N:9856, V-B:LEU:363:CD1:8160, V-B:ALA:541:CB:9864, V-B:GLU:543:CG:9879, V-B:GLU:543:CD:9880, V-A:LEU:475:CD1:4257, V-A:GLU:543:CD:4908, V-A:TYR:484:CE2:4345, V-B:MET:535:CE:9807, V-B:GLU:543:CB:9878, V-A:HIS:456:CE1:4069, H-B:TYR:531:OH:9767, V-B:HIS:456:CE1:9041, V-A:TYR:484:CZ:4346, V-A:PRO:482:CG:4326, H-A:TYR:484:OH:4347, H-A:ASP:366:OD2:3214, V-A:ASP:366:CB:3211, V-A:ILE:369:CD1:3238, H-A:ASP:366:OD1:3213, V-B:PRO:540:C:9853, V-B:GLU:543:C:9874, V-A:HIS:456:CD2:4067, V-B:TYR:531:CE2:9765, V-B:ALA:541:CA:9862, V-A:PRO:482:CB:4325, V-A:ASP:366:C:3207, V-A:ASP:366:CA:3209, V-A:ILE:369:CB:3235, H-A:HIS:456:NE2:4070, H-B:GLU:543:O:9875, V-B:TYR:531:CZ:9766, V-A:ILE:369:CG1:3237"]

$$$$
RR8_A_Rahimova_2017
     RDKit          3D

 42 46  0  0  0  0  0  0  0  0999 V2000
  129.4840  126.9410   62.6430 O   0  0  0  0  0  0  0  0  0  0  0  0
  129.7460  125.8820   63.2230 C   0  0  0  0  0  0  0  0  0  0  0  0
  129.0550  124.7130   63.0490 O   0  0  0  0  0  0  0  0  0  0  0  0
  129.3320  123.9610   61.9000 C   0  0  1  0  0  0  0  0  0  0  0  0
  130.7040  123.7390   61.7470 O   0  0  0  0  0  0  0  0  0  0  0  0
  130.9770  122.4320   61.2510 C   0  0  2  0  0  0  0  0  0  0  0  0
  131.8180  122.5590   59.9690 C   0  0  0  0  0  0  0  0  0  0  0  0
  132.2830  123.8970   59.8570 O   0  0  0  0  0  0  0  0  0  0  0  0
  132.3180  124.3870   58.5230 C   0  0  0  0  0  0  0  0  0  0  0  0
  130.9710  124.9960   58.1620 C   0  0  0  0  0  0  0  0  0  0  0  0
  130.5590  125.0330   56.8280 C   0  0  0  0  0  0  0  0  0  0  0  0
  129.3240  125.5850   56.4950 C   0  0  0  0  0  0  0  0  0  0  0  0
  128.5020  126.0940   57.4990 C   0  0  0  0  0  0  0  0  0  0  0  0
  128.9030  126.0560   58.8320 C   0  0  0  0  0  0  0  0  0  0  0  0
  130.1380  125.5030   59.1650 C   0  0  0  0  0  0  0  0  0  0  0  0
  129.5850  121.8120   61.0680 C   0  0  1  0  0  0  0  0  0  0  0  0
  129.5330  120.4340   61.4290 O   0  0  0  0  0  0  0  0  0  0  0  0
  130.6250  119.9580   62.2060 C   0  0  0  0  0  0  0  0  0  0  0  0
  131.7550  119.5050   61.2930 C   0  0  0  0  0  0  0  0  0  0  0  0
  133.0750  119.8550   61.5960 C   0  0  0  0  0  0  0  0  0  0  0  0
  134.1120  119.4520   60.7600 C   0  0  0  0  0  0  0  0  0  0  0  0
  133.8280  118.7020   59.6190 C   0  0  0  0  0  0  0  0  0  0  0  0
  132.5170  118.3560   59.3050 C   0  0  0  0  0  0  0  0  0  0  0  0
  131.4780  118.7600   60.1410 C   0  0  0  0  0  0  0  0  0  0  0  0
  128.7300  122.5720   62.0650 C   0  0  2  0  0  0  0  0  0  0  0  0
  127.3530  122.4980   61.7060 O   0  0  0  0  0  0  0  0  0  0  0  0
  126.8510  123.5990   60.9560 C   0  0  0  0  0  0  0  0  0  0  0  0
  126.7220  123.2120   59.4900 C   0  0  0  0  0  0  0  0  0  0  0  0
  127.8310  122.7270   58.7900 C   0  0  0  0  0  0  0  0  0  0  0  0
  127.7050  122.3640   57.4510 C   0  0  0  0  0  0  0  0  0  0  0  0
  126.4700  122.4830   56.8170 C   0  0  0  0  0  0  0  0  0  0  0  0
  125.3590  122.9600   57.5090 C   0  0  0  0  0  0  0  0  0  0  0  0
  125.4840  123.3230   58.8490 C   0  0  0  0  0  0  0  0  0  0  0  0
  130.8810  125.7430   64.1960 C   0  0  0  0  0  0  0  0  0  0  0  0
  130.6920  125.8780   65.5800 C   0  0  0  0  0  0  0  0  0  0  0  0
  131.7660  125.7450   66.4570 C   0  0  0  0  0  0  0  0  0  0  0  0
  133.0530  125.4750   65.9750 C   0  0  0  0  0  0  0  0  0  0  0  0
  134.1950  125.3320   66.9100 N   0  0  0  0  0  0  0  0  0  0  0  0
  133.9890  125.4580   68.1140 O   0  0  0  0  0  0  0  0  0  0  0  0
  135.3070  125.0920   66.4480 O   0  0  0  0  0  0  0  0  0  0  0  0
  133.2410  125.3430   64.5930 C   0  0  0  0  0  0  0  0  0  0  0  0
  132.1690  125.4760   63.7150 C   0  0  0  0  0  0  0  0  0  0  0  0
  1  2  2  0
  2  3  1  0
  4  3  1  1
  4  5  1  0
  5  6  1  0
  6  7  1  6
  7  8  1  0
  8  9  1  0
  9 10  1  0
 10 11  2  0
 11 12  1  0
 12 13  2  0
 13 14  1  0
 14 15  2  0
  6 16  1  0
 16 17  1  1
 17 18  1  0
 18 19  1  0
 19 20  2  0
 20 21  1  0
 21 22  2  0
 22 23  1  0
 23 24  2  0
 16 25  1  0
 25 26  1  6
 26 27  1  0
 27 28  1  0
 28 29  2  0
 29 30  1  0
 30 31  2  0
 31 32  1  0
 32 33  2  0
  2 34  1  0
 34 35  2  0
 35 36  1  0
 36 37  2  0
 37 38  1  0
 38 39  2  0
 38 40  1  0
 37 41  1  0
 41 42  2  0
 25  4  1  0
 33 28  1  0
 42 34  1  0
 15 10  1  0
 24 19  1  0
M  CHG  2  38   1  40  -1
M  END
>  <Binding energies>  (55) 
[-9.57]

>  <Ligand effiencies>  (55) 
[-0.22785714285714287]

>  <Interactions>  (55) 
["V-B:PRO:540:CB:9857, V-A:ILE:369:CG2:3236, H-B:ALA:541:N:9863, V-A:ASP:366:CG:3212, V-B:TYR:539:CD2:9846, V-A:SER:385:C:3404, V-A:SER:385:CA:3406, V-B:PRO:540:CA:9855, V-B:TYR:539:C:9839, V-B:TYR:539:CE2:9848, V-B:TYR:539:CZ:9849, V-B:PRO:540:N:9856, V-B:LEU:363:CD1:8160, V-B:ALA:541:CB:9864, V-A:ARG:545:CZ:4926, V-A:LEU:475:CD1:4257, V-A:ARG:545:CG:4922, H-A:ARG:545:NE:4924, H-A:GLY:454:N:4049, V-B:MET:535:CE:9807, V-A:HIS:456:CE1:4069, V-A:TYR:484:CZ:4346, V-A:ARG:545:CD:4923, H-A:TYR:484:OH:4347, V-A:ASP:366:CB:3211, V-A:ILE:455:C:4051, H-A:ILE:455:N:4054, V-A:HIS:383:CD2:3391, H-A:HIS:456:ND1:4066"]

$$$$
RR8_B_Rahimova_2017
     RDKit          3D

 42 46  0  0  0  0  0  0  0  0999 V2000
  134.7830  124.6900   62.7050 O   0  0  0  0  0  0  0  0  0  0  0  0
  133.8940  123.9140   63.0700 C   0  0  0  0  0  0  0  0  0  0  0  0
  133.0250  124.1630   64.0960 O   0  0  0  0  0  0  0  0  0  0  0  0
  132.5750  125.4830   64.2810 C   0  0  2  0  0  0  0  0  0  0  0  0
  131.7790  125.6080   65.4250 O   0  0  0  0  0  0  0  0  0  0  0  0
  130.3970  125.4230   65.1220 C   0  0  2  0  0  0  0  0  0  0  0  0
  129.8380  124.2610   65.9620 C   0  0  0  0  0  0  0  0  0  0  0  0
  129.1530  124.7870   67.0910 O   0  0  0  0  0  0  0  0  0  0  0  0
  129.8710  125.7690   67.8230 C   0  0  0  0  0  0  0  0  0  0  0  0
  129.1740  127.1130   67.6770 C   0  0  0  0  0  0  0  0  0  0  0  0
  129.3740  128.1060   68.6400 C   0  0  0  0  0  0  0  0  0  0  0  0
  128.7200  129.3300   68.5250 C   0  0  0  0  0  0  0  0  0  0  0  0
  127.8690  129.5570   67.4450 C   0  0  0  0  0  0  0  0  0  0  0  0
  127.6710  128.5750   66.4780 C   0  0  0  0  0  0  0  0  0  0  0  0
  128.3220  127.3490   66.5940 C   0  0  0  0  0  0  0  0  0  0  0  0
  130.3660  125.2140   63.6040 C   0  0  1  0  0  0  0  0  0  0  0  0
  129.1870  125.8090   63.0550 O   0  0  0  0  0  0  0  0  0  0  0  0
  128.1030  124.9320   62.7370 C   0  0  0  0  0  0  0  0  0  0  0  0
  128.4710  123.9340   61.6420 C   0  0  0  0  0  0  0  0  0  0  0  0
  128.4600  124.3290   60.3020 C   0  0  0  0  0  0  0  0  0  0  0  0
  128.8270  123.4260   59.3080 C   0  0  0  0  0  0  0  0  0  0  0  0
  129.1990  122.1290   59.6580 C   0  0  0  0  0  0  0  0  0  0  0  0
  129.2070  121.7270   60.9920 C   0  0  0  0  0  0  0  0  0  0  0  0
  128.8430  122.6320   61.9860 C   0  0  0  0  0  0  0  0  0  0  0  0
  131.6550  125.8740   63.1260 C   0  0  2  0  0  0  0  0  0  0  0  0
  132.0510  125.3360   61.8670 O   0  0  0  0  0  0  0  0  0  0  0  0
  131.2960  125.7730   60.7470 C   0  0  0  0  0  0  0  0  0  0  0  0
  131.9630  125.2460   59.4890 C   0  0  0  0  0  0  0  0  0  0  0  0
  132.8760  124.1900   59.5630 C   0  0  0  0  0  0  0  0  0  0  0  0
  133.4960  123.7280   58.4040 C   0  0  0  0  0  0  0  0  0  0  0  0
  133.2030  124.3220   57.1790 C   0  0  0  0  0  0  0  0  0  0  0  0
  132.2930  125.3750   57.0980 C   0  0  0  0  0  0  0  0  0  0  0  0
  131.6730  125.8370   58.2550 C   0  0  0  0  0  0  0  0  0  0  0  0
  133.6760  122.5650   62.4490 C   0  0  0  0  0  0  0  0  0  0  0  0
  134.7470  121.7610   62.0290 C   0  0  0  0  0  0  0  0  0  0  0  0
  134.5140  120.5200   61.4490 C   0  0  0  0  0  0  0  0  0  0  0  0
  133.2070  120.0520   61.2640 C   0  0  0  0  0  0  0  0  0  0  0  0
  132.9610  118.7380   60.6200 N   0  0  0  0  0  0  0  0  0  0  0  0
  131.8010  118.3670   60.4650 O   0  0  0  0  0  0  0  0  0  0  0  0
  133.9270  118.0690   60.2600 O   0  0  0  0  0  0  0  0  0  0  0  0
  132.1380  120.8520   61.6880 C   0  0  0  0  0  0  0  0  0  0  0  0
  132.3700  122.0910   62.2750 C   0  0  0  0  0  0  0  0  0  0  0  0
  1  2  2  0
  2  3  1  0
  4  3  1  6
  4  5  1  0
  5  6  1  0
  6  7  1  1
  7  8  1  0
  8  9  1  0
  9 10  1  0
 10 11  2  0
 11 12  1  0
 12 13  2  0
 13 14  1  0
 14 15  2  0
  6 16  1  0
 16 17  1  6
 17 18  1  0
 18 19  1  0
 19 20  2  0
 20 21  1  0
 21 22  2  0
 22 23  1  0
 23 24  2  0
 16 25  1  0
 25 26  1  6
 26 27  1  0
 27 28  1  0
 28 29  2  0
 29 30  1  0
 30 31  2  0
 31 32  1  0
 32 33  2  0
  2 34  1  0
 34 35  2  0
 35 36  1  0
 36 37  2  0
 37 38  1  0
 38 39  2  0
 38 40  1  0
 37 41  1  0
 41 42  2  0
 25  4  1  0
 33 28  1  0
 42 34  1  0
 15 10  1  0
 24 19  1  0
M  CHG  2  38   1  40  -1
M  END
>  <Binding energies>  (56) 
[-8.43]

>  <Ligand effiencies>  (56) 
[-0.2007142857142857]

>  <Interactions>  (56) 
["V-A:ILE:369:CG2:3236, V-A:ASP:366:CG:3212, V-B:TYR:539:CD2:9846, V-A:SER:385:C:3404, V-A:SER:385:CA:3406, V-B:PRO:540:CA:9855, V-B:TYR:539:C:9839, V-B:TYR:539:CE2:9848, V-B:TYR:539:CZ:9849, V-B:ALA:541:CB:9864, V-A:ARG:545:CZ:4926, V-A:GLY:454:CA:4048, V-B:GLU:543:CG:9879, V-B:GLU:543:CD:9880, V-A:LEU:475:CD1:4257, V-A:GLU:543:CB:4906, V-A:TYR:484:CE2:4345, H-A:GLY:454:N:4049, V-B:GLU:543:CB:9878, V-A:HIS:456:CE1:4069, H-A:ARG:545:NH1:4927, H-A:ARG:545:NH2:4928, V-B:HIS:456:CE1:9041, V-A:TYR:484:CZ:4346, H-A:HIS:383:NE2:3393, H-A:SER:385:OG:3409, H-A:TYR:484:OH:4347, V-A:ASP:366:CB:3211, V-A:GLY:453:CA:4043, V-A:GLY:453:C:4041, V-A:ILE:369:CD1:3238, V-A:GLU:543:CG:4907, V-B:TYR:484:CE2:9317, V-B:TYR:484:CZ:9318, V-A:GLU:543:C:4902, V-A:GLU:543:CA:4904, V-A:ASP:366:C:3207, V-A:ASP:366:CA:3209, V-A:ILE:369:CB:3235"]

$$$$
RR9_Rahimova_2017
     RDKit          3D

 36 40  0  0  0  0  0  0  0  0999 V2000
  129.0630  127.0220   72.0750 C   0  0  0  0  0  0  0  0  0  0  0  0
  129.2230  128.5050   71.7280 C   0  0  0  0  0  0  0  0  0  0  0  0
  128.7360  128.7220   70.4080 O   0  0  0  0  0  0  0  0  0  0  0  0
  129.2000  127.9310   69.3750 C   0  0  0  0  0  0  0  0  0  0  0  0
  130.5200  128.1330   68.9790 C   0  0  0  0  0  0  0  0  0  0  0  0
  131.0730  127.3840   67.9450 C   0  0  0  0  0  0  0  0  0  0  0  0
  130.3190  126.4080   67.2770 C   0  0  0  0  0  0  0  0  0  0  0  0
  130.9090  125.6010   66.1590 C   0  0  0  0  0  0  0  0  0  0  0  0
  130.1590  124.6300   65.4770 C   0  0  0  0  0  0  0  0  0  0  0  0
  130.7120  123.8850   64.4200 C   0  0  0  0  0  0  0  0  0  0  0  0
  129.8270  122.9320   63.6630 C   0  0  0  0  0  0  0  0  0  0  0  0
  130.0880  121.7290   63.6350 O   0  0  0  0  0  0  0  0  0  0  0  0
  128.7800  123.4880   63.0230 N   0  0  0  0  0  0  0  0  0  0  0  0
  127.8570  122.7930   62.1200 C   0  0  0  0  0  0  0  0  0  0  0  0
  128.4520  122.5550   60.7130 C   0  0  0  0  0  0  0  0  0  0  0  0
  127.4930  122.8340   59.5600 C   0  0  0  0  0  0  0  0  0  0  0  0
  127.8390  122.4680   58.2550 C   0  0  0  0  0  0  0  0  0  0  0  0
  126.9470  122.6930   57.2110 C   0  0  0  0  0  0  0  0  0  0  0  0
  125.7140  123.2860   57.4720 C   0  0  0  0  0  0  0  0  0  0  0  0
  125.3640  123.6580   58.7690 C   0  0  0  0  0  0  0  0  0  0  0  0
  126.2560  123.4320   59.8150 C   0  0  0  0  0  0  0  0  0  0  0  0
  132.0700  124.1460   64.1120 C   0  0  0  0  0  0  0  0  0  0  0  0
  133.0890  123.6740   63.2040 C   0  0  0  0  0  0  0  0  0  0  0  0
  133.0350  122.5560   62.2170 C   0  0  0  0  0  0  0  0  0  0  0  0
  132.1430  122.6090   61.1420 C   0  0  0  0  0  0  0  0  0  0  0  0
  132.0830  121.5570   60.2300 C   0  0  0  0  0  0  0  0  0  0  0  0
  132.9180  120.4500   60.3890 C   0  0  0  0  0  0  0  0  0  0  0  0
  132.8400  119.2950   59.4070 C   0  0  0  0  0  0  0  0  0  0  0  0
  133.8090  120.3930   61.4620 C   0  0  0  0  0  0  0  0  0  0  0  0
  133.8690  121.4460   62.3700 C   0  0  0  0  0  0  0  0  0  0  0  0
  134.1950  124.3690   63.3510 N   0  0  0  0  0  0  0  0  0  0  0  0
  134.0020  125.2480   64.3470 N   0  0  0  0  0  0  0  0  0  0  0  0
  132.7290  125.1520   64.8590 C   0  0  0  0  0  0  0  0  0  0  0  0
  132.2090  125.8690   65.8540 N   0  0  0  0  0  0  0  0  0  0  0  0
  128.9910  126.2120   67.6790 C   0  0  0  0  0  0  0  0  0  0  0  0
  128.4350  126.9600   68.7150 C   0  0  0  0  0  0  0  0  0  0  0  0
  1  2  1  0
  2  3  1  0
  3  4  1  0
  4  5  2  0
  5  6  1  0
  6  7  2  0
  7  8  1  0
  8  9  2  0
  9 10  1  0
 10 11  1  0
 11 12  2  0
 11 13  1  0
 13 14  1  0
 14 15  1  0
 15 16  1  0
 16 17  2  0
 17 18  1  0
 18 19  2  0
 19 20  1  0
 20 21  2  0
 10 22  2  0
 22 23  1  0
 23 24  1  0
 24 25  2  0
 25 26  1  0
 26 27  2  0
 27 28  1  0
 27 29  1  0
 29 30  2  0
 23 31  2  0
 31 32  1  0
 32 33  1  0
 33 34  2  0
  7 35  1  0
 35 36  2  0
 36  4  1  0
 34  8  1  0
 21 16  1  0
 33 22  1  0
 30 24  1  0
M  END
>  <Binding energies>  (57) 
[-9.1]

>  <Ligand effiencies>  (57) 
[-0.2394736842105263]

>  <Interactions>  (57) 
["V-B:PRO:540:CB:9857, V-A:ILE:369:CG2:3236, V-B:TYR:539:CD2:9846, V-A:SER:385:C:3404, V-B:PRO:540:CA:9855, V-B:TYR:539:C:9839, V-B:TYR:539:CE2:9848, V-B:PRO:540:N:9856, V-B:LEU:363:CD1:8160, V-B:ALA:541:CB:9864, V-A:ARG:545:CZ:4926, V-A:GLY:454:CA:4048, V-B:GLU:543:CG:9879, V-B:GLU:543:CD:9880, V-A:LEU:475:CD1:4257, V-A:GLU:543:CB:4906, V-A:GLU:543:CD:4908, V-A:TYR:484:CE2:4345, H-A:ARG:545:NE:4924, H-A:GLY:454:N:4049, V-B:MET:535:CE:9807, V-B:GLU:543:CB:9878, V-A:HIS:456:CE1:4069, V-B:HIS:456:CE1:9041, V-A:TYR:484:CZ:4346, H-B:GLU:543:OE2:9882, H-A:TYR:484:OH:4347, V-A:GLY:453:CA:4043, V-A:GLY:453:C:4041, V-B:HIS:456:CD2:9039, H-B:GLU:543:OE1:9881, V-A:GLU:543:C:4902, V-A:GLU:543:CA:4904, V-B:ALA:541:CA:9862"]

$$$$
