1a_Grossjean_2025
     RDKit          3D

 26 27  0  0  0  0  0  0  0  0999 V2000
  127.4670  127.7790   67.2640 C   0  0  0  0  0  0  0  0  0  0  0  0
  128.7410  128.5570   67.6040 C   0  0  0  0  0  0  0  0  0  0  0  0
  129.5510  127.7810   68.4790 O   0  0  0  0  0  0  0  0  0  0  0  0
  129.5600  126.4240   68.4070 C   0  0  0  0  0  0  0  0  0  0  0  0
  129.1210  125.6930   69.3000 O   0  0  0  0  0  0  0  0  0  0  0  0
  130.1730  125.9020   67.1400 C   0  0  0  0  0  0  0  0  0  0  0  0
  131.4880  126.2620   66.8170 C   0  0  0  0  0  0  0  0  0  0  0  0
  132.0820  125.7970   65.6480 C   0  0  0  0  0  0  0  0  0  0  0  0
  131.3770  124.9670   64.7760 C   0  0  0  0  0  0  0  0  0  0  0  0
  132.0740  124.5590   63.6220 N   0  0  0  0  0  0  0  0  0  0  0  0
  133.3900  124.6350   63.3320 C   0  0  0  0  0  0  0  0  0  0  0  0
  134.2600  125.0990   64.0690 O   0  0  0  0  0  0  0  0  0  0  0  0
  133.7910  124.0870   61.9610 C   0  0  0  0  0  0  0  0  0  0  0  0
  134.0570  122.2880   61.9920 S   0  0  0  0  0  0  0  0  0  0  0  0
  132.4720  121.5100   61.7780 C   0  0  0  0  0  0  0  0  0  0  0  0
  131.4240  122.2940   62.1360 N   0  0  0  0  0  0  0  0  0  0  0  0
  130.1700  121.7980   62.0180 C   0  0  0  0  0  0  0  0  0  0  0  0
  129.0500  122.7270   62.4490 C   0  0  0  0  0  0  0  0  0  0  0  0
  129.9100  120.5180   61.5340 C   0  0  0  0  0  0  0  0  0  0  0  0
  130.9820  119.7090   61.1420 C   0  0  0  0  0  0  0  0  0  0  0  0
  130.6720  118.3150   60.6000 C   0  0  0  0  0  0  0  0  0  0  0  0
  132.3010  120.2070   61.2530 C   0  0  0  0  0  0  0  0  0  0  0  0
  133.4360  119.3960   60.8040 C   0  0  0  0  0  0  0  0  0  0  0  0
  134.3300  118.7540   60.4480 N   0  0  0  0  0  0  0  0  0  0  0  0
  130.0620  124.5950   65.0950 C   0  0  0  0  0  0  0  0  0  0  0  0
  129.4680  125.0610   66.2650 C   0  0  0  0  0  0  0  0  0  0  0  0
  1  2  1  0
  2  3  1  0
  3  4  1  0
  4  5  2  0
  4  6  1  0
  6  7  2  0
  7  8  1  0
  8  9  2  0
  9 10  1  0
 10 11  1  0
 11 12  2  0
 11 13  1  0
 13 14  1  0
 14 15  1  0
 15 16  2  0
 16 17  1  0
 17 18  1  0
 17 19  2  0
 19 20  1  0
 20 21  1  0
 20 22  2  0
 22 23  1  0
 23 24  3  0
  9 25  1  0
 25 26  2  0
 26  6  1  0
 22 15  1  0
M  END
>  <Binding energies>  (1) 
[-7.32]

>  <Ligand effiencies>  (1) 
[-0.27111111111111114]

>  <Interactions>  (1) 
["V-A:ILE:369:CG2:3236, V-A:ASP:366:CG:3212, V-B:TYR:539:CD2:9846, V-A:SER:385:CA:3406, V-B:TYR:539:C:9839, V-B:ALA:541:CB:9864, V-A:ARG:545:CZ:4926, V-B:GLU:543:CG:9879, V-B:GLU:543:CD:9880, V-A:LEU:475:CD1:4257, V-A:GLU:543:CB:4906, V-A:GLU:543:CD:4908, V-A:TYR:484:CE2:4345, H-A:ARG:545:NE:4924, H-A:GLY:454:N:4049, V-B:GLU:543:CB:9878, V-A:HIS:456:CE1:4069, H-A:ARG:545:NH1:4927, H-A:ARG:545:NH2:4928, V-B:HIS:456:CE1:9041, V-A:PRO:482:CG:4326, H-A:HIS:383:NE2:3393, H-A:SER:385:OG:3409, V-A:GLU:543:CG:4907, V-B:ALA:541:CA:9862"]

$$$$
1aa_Ghoteimi_2023
     RDKit          3D

 40 43  0  0  0  0  0  0  0  0999 V2000
  133.5250  130.7220   58.6270 C   0  0  0  0  0  0  0  0  0  0  0  0
  132.5730  130.8560   57.4350 C   0  0  0  0  0  0  0  0  0  0  0  0
  131.6510  131.9110   57.6810 O   0  0  0  0  0  0  0  0  0  0  0  0
  130.3530  131.8100   57.2990 C   0  0  0  0  0  0  0  0  0  0  0  0
  129.8140  132.5900   56.5070 O   0  0  0  0  0  0  0  0  0  0  0  0
  129.6340  130.6550   57.9350 C   0  0  0  0  0  0  0  0  0  0  0  0
  128.7610  129.8320   57.2070 C   0  0  0  0  0  0  0  0  0  0  0  0
  128.1080  128.7670   57.8230 C   0  0  0  0  0  0  0  0  0  0  0  0
  128.3210  128.5050   59.1850 C   0  0  0  0  0  0  0  0  0  0  0  0
  127.7180  127.4610   59.9120 N   0  0  0  0  0  0  0  0  0  0  0  0
  127.0720  127.4810   61.1000 C   0  0  0  0  0  0  0  0  0  0  0  0
  126.8880  128.4870   61.7850 O   0  0  0  0  0  0  0  0  0  0  0  0
  126.5270  126.1430   61.6270 C   0  0  0  0  0  0  0  0  0  0  0  0
  127.2810  125.0480   61.0920 O   0  0  0  0  0  0  0  0  0  0  0  0
  128.3660  124.5350   61.7890 C   0  0  0  0  0  0  0  0  0  0  0  0
  128.7350  125.1540   62.9450 N   0  0  0  0  0  0  0  0  0  0  0  0
  129.8010  124.6890   63.6490 C   0  0  0  0  0  0  0  0  0  0  0  0
  130.1420  125.4250   64.9130 C   0  0  0  0  0  0  0  0  0  0  0  0
  129.1360  125.9600   65.7310 C   0  0  0  0  0  0  0  0  0  0  0  0
  129.4500  126.6440   66.9020 C   0  0  0  0  0  0  0  0  0  0  0  0
  130.7760  126.8140   67.2920 C   0  0  0  0  0  0  0  0  0  0  0  0
  130.9920  127.5070   68.4680 O   0  0  0  0  0  0  0  0  0  0  0  0
  129.8860  128.1070   69.1330 C   0  0  0  0  0  0  0  0  0  0  0  0
  131.7920  126.2810   66.4880 C   0  0  0  0  0  0  0  0  0  0  0  0
  131.4760  125.5960   65.3180 C   0  0  0  0  0  0  0  0  0  0  0  0
  130.5120  123.5670   63.2090 C   0  0  0  0  0  0  0  0  0  0  0  0
  130.1460  122.9050   62.0290 C   0  0  0  0  0  0  0  0  0  0  0  0
  130.9390  121.7080   61.6190 C   0  0  0  0  0  0  0  0  0  0  0  0
  130.3160  120.4620   61.4920 C   0  0  0  0  0  0  0  0  0  0  0  0
  131.0460  119.3430   61.1010 C   0  0  0  0  0  0  0  0  0  0  0  0
  132.4080  119.4460   60.8230 C   0  0  0  0  0  0  0  0  0  0  0  0
  133.0510  118.2840   60.4420 O   0  0  0  0  0  0  0  0  0  0  0  0
  134.2980  118.3710   59.7620 C   0  0  0  0  0  0  0  0  0  0  0  0
  133.0350  120.6960   60.9420 C   0  0  0  0  0  0  0  0  0  0  0  0
  132.3040  121.8130   61.3340 C   0  0  0  0  0  0  0  0  0  0  0  0
  129.0470  123.4100   61.2950 C   0  0  0  0  0  0  0  0  0  0  0  0
  128.6190  122.8120   60.0290 C   0  0  0  0  0  0  0  0  0  0  0  0
  128.2790  122.3410   59.0290 N   0  0  0  0  0  0  0  0  0  0  0  0
  129.1870  129.3230   59.9120 C   0  0  0  0  0  0  0  0  0  0  0  0
  129.8370  130.3870   59.2950 C   0  0  0  0  0  0  0  0  0  0  0  0
  1  2  1  0
  2  3  1  0
  3  4  1  0
  4  5  2  0
  4  6  1  0
  6  7  2  0
  7  8  1  0
  8  9  2  0
  9 10  1  0
 10 11  1  0
 11 12  2  0
 11 13  1  0
 13 14  1  0
 14 15  1  0
 15 16  2  0
 16 17  1  0
 17 18  1  0
 18 19  2  0
 19 20  1  0
 20 21  2  0
 21 22  1  0
 22 23  1  0
 21 24  1  0
 24 25  2  0
 17 26  2  0
 26 27  1  0
 27 28  1  0
 28 29  2  0
 29 30  1  0
 30 31  2  0
 31 32  1  0
 32 33  1  0
 31 34  1  0
 34 35  2  0
 27 36  2  0
 36 37  1  0
 37 38  3  0
  9 39  1  0
 39 40  2  0
 40  6  1  0
 36 15  1  0
 25 18  1  0
 35 28  1  0
M  END
>  <Binding energies>  (2) 
[-7.25]

>  <Ligand effiencies>  (2) 
[-0.17682926829268292]

>  <Interactions>  (2) 
["V-A:ILE:369:CG2:3236, V-A:ASP:366:CG:3212, V-B:TYR:539:CD2:9846, V-A:SER:385:C:3404, V-A:SER:385:CB:3408, V-A:SER:385:CA:3406, V-B:PRO:540:CA:9855, V-B:ASP:366:CG:8184, V-B:ALA:541:CB:9864, V-B:GLU:543:CG:9879, V-B:GLU:543:CD:9880, V-A:LEU:475:CD1:4257, V-A:GLU:543:CB:4906, V-A:GLU:543:CD:4908, V-B:GLU:543:CB:9878, V-A:HIS:456:CE1:4069, H-A:HIS:383:NE2:3393, H-A:SER:385:OG:3409, V-A:LEU:363:CD1:3188, V-A:LEU:363:CA:3184, V-A:PRO:540:CA:4883, H-A:TYR:539:N:4870, V-A:PRO:540:CB:4885, V-A:PRO:540:N:4884, V-A:ASP:366:CB:3211, V-A:LEU:363:CB:3186, V-A:TYR:539:C:4867, V-A:GLU:543:C:4902, V-A:HIS:383:CD2:3391"]

$$$$
1b_Grossjean_2025
     RDKit          3D

 25 26  0  0  0  0  0  0  0  0999 V2000
  129.1570  128.4160   68.6930 C   0  0  0  0  0  0  0  0  0  0  0  0
  130.1590  127.4680   68.3500 O   0  0  0  0  0  0  0  0  0  0  0  0
  129.8310  126.1880   68.0380 C   0  0  0  0  0  0  0  0  0  0  0  0
  129.0450  125.5060   68.7010 O   0  0  0  0  0  0  0  0  0  0  0  0
  130.5150  125.6860   66.7980 C   0  0  0  0  0  0  0  0  0  0  0  0
  129.8650  124.8480   65.8790 C   0  0  0  0  0  0  0  0  0  0  0  0
  130.5280  124.3990   64.7410 C   0  0  0  0  0  0  0  0  0  0  0  0
  131.8480  124.7760   64.4950 C   0  0  0  0  0  0  0  0  0  0  0  0
  132.4180  124.2610   63.3150 N   0  0  0  0  0  0  0  0  0  0  0  0
  133.6650  124.4070   62.8150 C   0  0  0  0  0  0  0  0  0  0  0  0
  134.5750  125.0480   63.3390 O   0  0  0  0  0  0  0  0  0  0  0  0
  133.9280  123.6890   61.4910 C   0  0  0  0  0  0  0  0  0  0  0  0
  134.1320  121.8960   61.7110 S   0  0  0  0  0  0  0  0  0  0  0  0
  132.5240  121.1530   61.5350 C   0  0  0  0  0  0  0  0  0  0  0  0
  131.5120  121.9220   62.0080 N   0  0  0  0  0  0  0  0  0  0  0  0
  130.2450  121.4530   61.9230 C   0  0  0  0  0  0  0  0  0  0  0  0
  129.1630  122.3730   62.4590 C   0  0  0  0  0  0  0  0  0  0  0  0
  129.9390  120.2080   61.3770 C   0  0  0  0  0  0  0  0  0  0  0  0
  130.9780  119.3990   60.9070 C   0  0  0  0  0  0  0  0  0  0  0  0
  130.6200  118.0310   60.3280 C   0  0  0  0  0  0  0  0  0  0  0  0
  132.3090  119.8670   60.9860 C   0  0  0  0  0  0  0  0  0  0  0  0
  133.4170  119.0190   60.5390 C   0  0  0  0  0  0  0  0  0  0  0  0
  134.2900  118.3470   60.1860 N   0  0  0  0  0  0  0  0  0  0  0  0
  132.5050  125.6140   65.4090 C   0  0  0  0  0  0  0  0  0  0  0  0
  131.8410  126.0620   66.5470 C   0  0  0  0  0  0  0  0  0  0  0  0
  1  2  1  0
  2  3  1  0
  3  4  2  0
  3  5  1  0
  5  6  2  0
  6  7  1  0
  7  8  2  0
  8  9  1  0
  9 10  1  0
 10 11  2  0
 10 12  1  0
 12 13  1  0
 13 14  1  0
 14 15  2  0
 15 16  1  0
 16 17  1  0
 16 18  2  0
 18 19  1  0
 19 20  1  0
 19 21  2  0
 21 22  1  0
 22 23  3  0
  8 24  1  0
 24 25  2  0
 25  5  1  0
 21 14  1  0
M  END
>  <Binding energies>  (3) 
[-7.15]

>  <Ligand effiencies>  (3) 
[-0.275]

>  <Interactions>  (3) 
["V-A:ILE:369:CG2:3236, V-B:TYR:539:CD2:9846, V-A:SER:385:CA:3406, V-B:TYR:539:C:9839, V-B:ALA:541:CB:9864, V-A:ARG:545:CZ:4926, V-B:GLU:543:CG:9879, V-B:GLU:543:CD:9880, V-A:LEU:475:CD1:4257, V-A:GLU:543:CB:4906, V-A:TYR:484:CE2:4345, H-A:GLY:454:N:4049, V-B:GLU:543:CB:9878, V-A:HIS:456:CE1:4069, H-A:ARG:545:NH1:4927, H-A:ARG:545:NH2:4928, V-B:HIS:456:CE1:9041, V-A:TYR:484:CZ:4346, V-A:PRO:482:CG:4326, H-A:HIS:383:NE2:3393, H-A:SER:385:OG:3409, V-A:ILE:369:CD1:3238, V-B:PRO:540:C:9853, V-B:TYR:539:CB:9843, V-B:ALA:541:CA:9862"]

$$$$
1c_Grossjean_2025
     RDKit          3D

 23 24  0  0  0  0  0  0  0  0999 V2000
  134.3670  118.3760   59.7520 C   0  0  0  0  0  0  0  0  0  0  0  0
  133.1860  118.1270   60.5070 O   0  0  0  0  0  0  0  0  0  0  0  0
  132.4840  119.1960   61.0300 C   0  0  0  0  0  0  0  0  0  0  0  0
  133.2140  120.3590   61.2750 C   0  0  0  0  0  0  0  0  0  0  0  0
  132.5960  121.4900   61.8010 C   0  0  0  0  0  0  0  0  0  0  0  0
  131.2220  121.4710   62.0830 C   0  0  0  0  0  0  0  0  0  0  0  0
  130.5000  122.5520   62.6250 N   0  0  0  0  0  0  0  0  0  0  0  0
  129.1800  122.8270   62.5440 C   0  0  0  0  0  0  0  0  0  0  0  0
  128.3400  122.1360   61.9700 O   0  0  0  0  0  0  0  0  0  0  0  0
  128.7350  124.1120   63.2460 C   0  0  0  0  0  0  0  0  0  0  0  0
  130.0380  125.3790   63.2310 S   0  0  0  0  0  0  0  0  0  0  0  0
  130.5200  125.7100   64.9130 C   0  0  0  0  0  0  0  0  0  0  0  0
  129.5070  126.1880   65.6800 N   0  0  0  0  0  0  0  0  0  0  0  0
  129.7550  126.4780   66.9790 C   0  0  0  0  0  0  0  0  0  0  0  0
  128.5720  126.9970   67.7750 C   0  0  0  0  0  0  0  0  0  0  0  0
  131.0100  126.3150   67.5590 C   0  0  0  0  0  0  0  0  0  0  0  0
  132.0670  125.8470   66.7720 C   0  0  0  0  0  0  0  0  0  0  0  0
  133.4390  125.6940   67.4270 C   0  0  0  0  0  0  0  0  0  0  0  0
  131.8330  125.5400   65.4120 C   0  0  0  0  0  0  0  0  0  0  0  0
  132.9400  125.1000   64.5580 C   0  0  0  0  0  0  0  0  0  0  0  0
  133.8140  124.7530   63.8850 N   0  0  0  0  0  0  0  0  0  0  0  0
  130.4900  120.3050   61.8490 C   0  0  0  0  0  0  0  0  0  0  0  0
  131.1130  119.1760   61.3240 C   0  0  0  0  0  0  0  0  0  0  0  0
  1  2  1  0
  2  3  1  0
  3  4  2  0
  4  5  1  0
  5  6  2  0
  6  7  1  0
  7  8  1  0
  8  9  2  0
  8 10  1  0
 10 11  1  0
 11 12  1  0
 12 13  2  0
 13 14  1  0
 14 15  1  0
 14 16  2  0
 16 17  1  0
 17 18  1  0
 17 19  2  0
 19 20  1  0
 20 21  3  0
  6 22  1  0
 22 23  2  0
 23  3  1  0
 19 12  1  0
M  END
>  <Binding energies>  (4) 
[-7.07]

>  <Ligand effiencies>  (4) 
[-0.29458333333333336]

>  <Interactions>  (4) 
["V-A:ILE:369:CG2:3236, H-B:ALA:541:N:9863, V-A:SER:385:C:3404, V-A:SER:385:CB:3408, V-A:SER:385:CA:3406, V-B:ALA:541:CB:9864, V-A:ARG:545:CZ:4926, V-B:GLU:543:CG:9879, V-B:GLU:543:CD:9880, V-A:LEU:475:CD1:4257, V-A:ARG:545:CG:4922, H-A:GLY:454:N:4049, V-B:GLU:543:CB:9878, V-A:HIS:456:CE1:4069, H-A:ARG:545:NH2:4928, V-B:HIS:456:CE1:9041, V-A:TYR:484:CZ:4346, H-A:HIS:383:NE2:3393, H-A:SER:385:OG:3409, V-A:ARG:545:CD:4923, V-A:HIS:383:CD2:3391"]

$$$$
1d_Grossjean_2025
     RDKit          3D

 21 22  0  0  0  0  0  0  0  0999 V2000
  128.5450  126.6010   67.7060 C   0  0  0  0  0  0  0  0  0  0  0  0
  129.7440  126.2100   66.8640 C   0  0  0  0  0  0  0  0  0  0  0  0
  131.0360  126.2240   67.3840 C   0  0  0  0  0  0  0  0  0  0  0  0
  132.1040  125.8440   66.5630 C   0  0  0  0  0  0  0  0  0  0  0  0
  133.5100  125.8530   67.1600 C   0  0  0  0  0  0  0  0  0  0  0  0
  131.8470  125.4640   65.2260 C   0  0  0  0  0  0  0  0  0  0  0  0
  132.9420  125.0170   64.3630 C   0  0  0  0  0  0  0  0  0  0  0  0
  133.8100  124.6640   63.6840 N   0  0  0  0  0  0  0  0  0  0  0  0
  130.5060  125.5030   64.7750 C   0  0  0  0  0  0  0  0  0  0  0  0
  130.0020  125.0610   63.1280 S   0  0  0  0  0  0  0  0  0  0  0  0
  128.8180  123.6880   63.2720 C   0  0  0  0  0  0  0  0  0  0  0  0
  129.1770  122.5180   62.3550 C   0  0  0  0  0  0  0  0  0  0  0  0
  128.3470  122.1180   61.5380 O   0  0  0  0  0  0  0  0  0  0  0  0
  130.4250  122.0240   62.5090 N   0  0  0  0  0  0  0  0  0  0  0  0
  131.0600  120.9560   61.8490 C   0  0  0  0  0  0  0  0  0  0  0  0
  130.2760  119.8160   61.6480 C   0  0  0  0  0  0  0  0  0  0  0  0
  130.8060  118.7040   60.9990 C   0  0  0  0  0  0  0  0  0  0  0  0
  132.1210  118.7330   60.5440 C   0  0  0  0  0  0  0  0  0  0  0  0
  132.9110  119.8650   60.7300 C   0  0  0  0  0  0  0  0  0  0  0  0
  132.3840  120.9780   61.3790 C   0  0  0  0  0  0  0  0  0  0  0  0
  129.4750  125.8530   65.5860 N   0  0  0  0  0  0  0  0  0  0  0  0
  1  2  1  0
  2  3  2  0
  3  4  1  0
  4  5  1  0
  4  6  2  0
  6  7  1  0
  7  8  3  0
  6  9  1  0
  9 10  1  0
 10 11  1  0
 11 12  1  0
 12 13  2  0
 12 14  1  0
 14 15  1  0
 15 16  2  0
 16 17  1  0
 17 18  2  0
 18 19  1  0
 19 20  2  0
  9 21  2  0
 21  2  1  0
 20 15  1  0
M  END
>  <Binding energies>  (5) 
[-7.0]

>  <Ligand effiencies>  (5) 
[-0.3181818181818182]

>  <Interactions>  (5) 
["V-A:ILE:369:CG2:3236, H-B:ALA:541:N:9863, V-B:TYR:539:CD2:9846, V-B:ALA:541:CB:9864, V-A:ARG:545:CZ:4926, V-B:GLU:543:CG:9879, V-B:GLU:543:CD:9880, V-A:LEU:475:CD1:4257, V-A:ARG:545:CG:4922, H-A:GLY:454:N:4049, V-B:GLU:543:CB:9878, V-A:HIS:456:CE1:4069, H-A:ARG:545:NH2:4928, V-A:TYR:484:CZ:4346, V-A:PRO:482:CG:4326, V-A:ARG:545:CD:4923, V-B:ALA:541:CA:9862"]

$$$$
1e_Grossjean_2025
     RDKit          3D

 22 23  0  0  0  0  0  0  0  0999 V2000
  134.7560  125.4360   66.9090 C   0  0  0  0  0  0  0  0  0  0  0  0
  133.5390  125.4420   66.0020 C   0  0  0  0  0  0  0  0  0  0  0  0
  132.2910  125.8780   66.4560 C   0  0  0  0  0  0  0  0  0  0  0  0
  131.2170  125.8530   65.5670 C   0  0  0  0  0  0  0  0  0  0  0  0
  131.4110  125.3980   64.2610 C   0  0  0  0  0  0  0  0  0  0  0  0
  132.6890  124.9810   63.8700 C   0  0  0  0  0  0  0  0  0  0  0  0
  132.8210  124.5220   62.5470 N   0  0  0  0  0  0  0  0  0  0  0  0
  133.9460  124.1740   61.8860 C   0  0  0  0  0  0  0  0  0  0  0  0
  135.0840  124.2150   62.3570 O   0  0  0  0  0  0  0  0  0  0  0  0
  133.7550  123.7260   60.4350 C   0  0  0  0  0  0  0  0  0  0  0  0
  132.0430  123.2090   60.1030 S   0  0  0  0  0  0  0  0  0  0  0  0
  131.9010  121.4630   60.4300 C   0  0  0  0  0  0  0  0  0  0  0  0
  133.0280  120.7660   60.1390 N   0  0  0  0  0  0  0  0  0  0  0  0
  133.0400  119.4280   60.3440 C   0  0  0  0  0  0  0  0  0  0  0  0
  134.3360  118.7180   60.0030 C   0  0  0  0  0  0  0  0  0  0  0  0
  131.9350  118.7330   60.8310 C   0  0  0  0  0  0  0  0  0  0  0  0
  130.7600  119.4380   61.1120 C   0  0  0  0  0  0  0  0  0  0  0  0
  129.5560  118.6500   61.6280 C   0  0  0  0  0  0  0  0  0  0  0  0
  130.7230  120.8350   60.9020 C   0  0  0  0  0  0  0  0  0  0  0  0
  129.4830  121.5780   61.1360 C   0  0  0  0  0  0  0  0  0  0  0  0
  128.5010  122.1630   61.3200 N   0  0  0  0  0  0  0  0  0  0  0  0
  133.7440  124.9980   64.7370 N   0  0  0  0  0  0  0  0  0  0  0  0
  1  2  1  0
  2  3  2  0
  3  4  1  0
  4  5  2  0
  5  6  1  0
  6  7  1  0
  7  8  1  0
  8  9  2  0
  8 10  1  0
 10 11  1  0
 11 12  1  0
 12 13  2  0
 13 14  1  0
 14 15  1  0
 14 16  2  0
 16 17  1  0
 17 18  1  0
 17 19  2  0
 19 20  1  0
 20 21  3  0
  6 22  2  0
 22  2  1  0
 19 12  1  0
M  END
>  <Binding energies>  (6) 
[-7.65]

>  <Ligand effiencies>  (6) 
[-0.33260869565217394]

>  <Interactions>  (6) 
["V-A:ILE:369:CG2:3236, H-B:ALA:541:N:9863, V-A:ASP:366:CG:3212, V-B:TYR:539:CD2:9846, V-A:SER:385:C:3404, V-A:SER:385:CB:3408, V-A:SER:385:CA:3406, V-B:TYR:539:C:9839, V-B:TYR:539:CE2:9848, V-B:ALA:541:CB:9864, V-A:ARG:545:CZ:4926, V-A:LEU:475:CD1:4257, V-A:ARG:545:CG:4922, H-A:ARG:545:NE:4924, H-A:GLY:454:N:4049, V-A:HIS:456:CE1:4069, H-A:ARG:545:NH2:4928, V-A:TYR:484:CZ:4346, V-A:PRO:482:CG:4326, V-A:ARG:545:CD:4923, H-A:TYR:484:OH:4347, V-A:GLY:453:CA:4043, V-A:GLY:453:C:4041, V-A:ILE:369:CD1:3238, V-A:ILE:455:C:4051, V-B:PRO:540:C:9853, V-B:ALA:541:CA:9862, V-A:PRO:482:CB:4325, V-A:ASP:366:CA:3209, V-A:HIS:383:CD2:3391"]

$$$$
1f_Grossjean_2025
     RDKit          3D

 21 22  0  0  0  0  0  0  0  0999 V2000
  133.4810  125.6890   66.9860 C   0  0  0  0  0  0  0  0  0  0  0  0
  133.0100  125.4410   65.5650 C   0  0  0  0  0  0  0  0  0  0  0  0
  131.6710  125.5670   65.2080 C   0  0  0  0  0  0  0  0  0  0  0  0
  131.2940  125.3140   63.8850 C   0  0  0  0  0  0  0  0  0  0  0  0
  129.8160  125.4400   63.5210 C   0  0  0  0  0  0  0  0  0  0  0  0
  132.2820  124.9460   62.9420 C   0  0  0  0  0  0  0  0  0  0  0  0
  131.8990  124.6230   61.5650 C   0  0  0  0  0  0  0  0  0  0  0  0
  131.5950  124.3680   60.4780 N   0  0  0  0  0  0  0  0  0  0  0  0
  133.6230  124.8700   63.3870 C   0  0  0  0  0  0  0  0  0  0  0  0
  134.9990  124.4240   62.3470 S   0  0  0  0  0  0  0  0  0  0  0  0
  134.3630  123.4660   60.9300 C   0  0  0  0  0  0  0  0  0  0  0  0
  133.9620  122.0200   61.2550 C   0  0  0  0  0  0  0  0  0  0  0  0
  134.7070  121.2990   61.9200 O   0  0  0  0  0  0  0  0  0  0  0  0
  132.7760  121.6360   60.7360 N   0  0  0  0  0  0  0  0  0  0  0  0
  132.1060  120.4020   60.8400 C   0  0  0  0  0  0  0  0  0  0  0  0
  130.7760  120.2240   61.2650 C   0  0  0  0  0  0  0  0  0  0  0  0
  130.2340  118.9370   61.3170 C   0  0  0  0  0  0  0  0  0  0  0  0
  131.0340  117.8580   60.9400 C   0  0  0  0  0  0  0  0  0  0  0  0
  132.3160  118.0030   60.5230 N   0  0  0  0  0  0  0  0  0  0  0  0
  132.8300  119.2600   60.4780 C   0  0  0  0  0  0  0  0  0  0  0  0
  133.9730  125.0940   64.6790 N   0  0  0  0  0  0  0  0  0  0  0  0
  1  2  1  0
  2  3  2  0
  3  4  1  0
  4  5  1  0
  4  6  2  0
  6  7  1  0
  7  8  3  0
  6  9  1  0
  9 10  1  0
 10 11  1  0
 11 12  1  0
 12 13  2  0
 12 14  1  0
 14 15  1  0
 15 16  2  0
 16 17  1  0
 17 18  2  0
 18 19  1  0
 19 20  2  0
  9 21  2  0
 21  2  1  0
 20 15  1  0
M  END
>  <Binding energies>  (7) 
[-6.87]

>  <Ligand effiencies>  (7) 
[-0.31227272727272726]

>  <Interactions>  (7) 
["V-A:ILE:369:CG2:3236, V-B:TYR:539:CD2:9846, V-B:ALA:541:CB:9864, V-A:ARG:545:CZ:4926, V-A:LEU:475:CD1:4257, V-A:ARG:545:CG:4922, H-A:ARG:545:NE:4924, H-A:GLY:454:N:4049, V-A:HIS:456:CE1:4069, H-A:ARG:545:NH1:4927, H-A:ARG:545:NH2:4928, V-A:TYR:484:CZ:4346, V-A:PRO:482:CG:4326, H-A:HIS:383:NE2:3393, H-A:SER:385:OG:3409, V-A:ARG:545:CD:4923, H-A:TYR:484:OH:4347, V-A:GLY:453:CA:4043, V-A:ILE:369:CD1:3238, V-A:PRO:482:CB:4325"]

$$$$
1g_Grossjean_2025
     RDKit          3D

 22 23  0  0  0  0  0  0  0  0999 V2000
  130.2990  118.7600   61.0380 C   0  0  0  0  0  0  0  0  0  0  0  0
  131.0000  119.9720   61.6220 C   0  0  0  0  0  0  0  0  0  0  0  0
  132.3450  120.2310   61.3670 C   0  0  0  0  0  0  0  0  0  0  0  0
  132.9430  121.3550   61.9460 C   0  0  0  0  0  0  0  0  0  0  0  0
  134.4230  121.6100   61.6640 C   0  0  0  0  0  0  0  0  0  0  0  0
  132.1670  122.2040   62.7680 C   0  0  0  0  0  0  0  0  0  0  0  0
  132.7840  123.3580   63.4270 C   0  0  0  0  0  0  0  0  0  0  0  0
  133.2740  124.2680   63.9480 N   0  0  0  0  0  0  0  0  0  0  0  0
  130.8030  121.8780   62.9520 C   0  0  0  0  0  0  0  0  0  0  0  0
  129.6820  122.8400   63.9440 S   0  0  0  0  0  0  0  0  0  0  0  0
  128.5920  123.7430   62.8040 C   0  0  0  0  0  0  0  0  0  0  0  0
  128.4930  123.0570   61.4410 C   0  0  0  0  0  0  0  0  0  0  0  0
  127.7190  122.1120   61.2800 O   0  0  0  0  0  0  0  0  0  0  0  0
  129.2890  123.5400   60.4720 N   0  0  0  0  0  0  0  0  0  0  0  0
  129.3160  123.0760   59.0850 C   0  0  0  0  0  0  0  0  0  0  0  0
  127.9500  123.0490   58.4050 C   0  0  0  0  0  0  0  0  0  0  0  0
  126.9630  123.9640   58.7860 C   0  0  0  0  0  0  0  0  0  0  0  0
  125.7170  123.9400   58.1650 C   0  0  0  0  0  0  0  0  0  0  0  0
  125.4640  123.0060   57.1620 C   0  0  0  0  0  0  0  0  0  0  0  0
  126.4440  122.0960   56.7750 C   0  0  0  0  0  0  0  0  0  0  0  0
  127.6900  122.1180   57.3960 C   0  0  0  0  0  0  0  0  0  0  0  0
  130.2380  120.7720   62.4040 N   0  0  0  0  0  0  0  0  0  0  0  0
  1  2  1  0
  2  3  2  0
  3  4  1  0
  4  5  1  0
  4  6  2  0
  6  7  1  0
  7  8  3  0
  6  9  1  0
  9 10  1  0
 10 11  1  0
 11 12  1  0
 12 13  2  0
 12 14  1  0
 14 15  1  0
 15 16  1  0
 16 17  2  0
 17 18  1  0
 18 19  2  0
 19 20  1  0
 20 21  2  0
  9 22  2  0
 22  2  1  0
 21 16  1  0
M  END
>  <Binding energies>  (8) 
[-7.09]

>  <Ligand effiencies>  (8) 
[-0.30826086956521737]

>  <Interactions>  (8) 
["V-B:PRO:540:CB:9857, V-A:ILE:369:CG2:3236, H-B:ALA:541:N:9863, V-B:TYR:539:CD2:9846, V-B:PRO:540:CA:9855, V-B:TYR:539:C:9839, V-B:TYR:539:CE2:9848, V-B:PRO:540:N:9856, V-B:LEU:363:CD1:8160, V-B:ALA:541:CB:9864, V-A:GLY:454:CA:4048, V-B:GLU:543:CG:9879, V-B:GLU:543:CD:9880, V-A:LEU:475:CD1:4257, H-A:GLY:454:N:4049, V-B:PRO:540:CD:9859, V-B:MET:535:CE:9807, V-B:TYR:539:CA:9841, V-A:PRO:482:CG:4326, H-A:TYR:484:OH:4347, V-A:ILE:369:CD1:3238, V-B:TYR:539:CG:9844, V-B:TYR:531:CE2:9765"]

$$$$
1h_Grossjean_2025
     RDKit          3D

 28 29  0  0  0  0  0  0  0  0999 V2000
  130.5660  116.9720   59.4170 C   0  0  0  0  0  0  0  0  0  0  0  0
  130.8350  117.3790   60.7540 O   0  0  0  0  0  0  0  0  0  0  0  0
  131.0210  118.7220   61.0300 C   0  0  0  0  0  0  0  0  0  0  0  0
  129.9850  119.6020   61.3790 C   0  0  0  0  0  0  0  0  0  0  0  0
  130.2450  120.9490   61.6310 C   0  0  0  0  0  0  0  0  0  0  0  0
  129.1130  121.8900   62.0300 C   0  0  0  0  0  0  0  0  0  0  0  0
  129.5520  123.0630   62.7860 N   0  0  0  0  0  0  0  0  0  0  0  0
  129.7740  123.0950   64.1130 C   0  0  0  0  0  0  0  0  0  0  0  0
  129.6540  122.1150   64.8480 O   0  0  0  0  0  0  0  0  0  0  0  0
  130.1900  124.4420   64.7020 C   0  0  0  0  0  0  0  0  0  0  0  0
  130.3550  125.7230   63.4220 S   0  0  0  0  0  0  0  0  0  0  0  0
  131.5100  125.1340   62.1950 C   0  0  0  0  0  0  0  0  0  0  0  0
  131.0130  124.9870   60.9380 N   0  0  0  0  0  0  0  0  0  0  0  0
  131.8370  124.5480   59.9590 C   0  0  0  0  0  0  0  0  0  0  0  0
  131.2110  124.4150   58.5830 C   0  0  0  0  0  0  0  0  0  0  0  0
  133.1760  124.2370   60.1840 C   0  0  0  0  0  0  0  0  0  0  0  0
  133.6990  124.3820   61.4740 C   0  0  0  0  0  0  0  0  0  0  0  0
  135.1700  124.0370   61.6990 C   0  0  0  0  0  0  0  0  0  0  0  0
  132.8560  124.8390   62.5120 C   0  0  0  0  0  0  0  0  0  0  0  0
  133.3760  124.9980   63.8730 C   0  0  0  0  0  0  0  0  0  0  0  0
  133.7870  125.1230   64.9480 N   0  0  0  0  0  0  0  0  0  0  0  0
  131.5580  121.4200   61.5720 C   0  0  0  0  0  0  0  0  0  0  0  0
  132.6150  120.5610   61.2310 C   0  0  0  0  0  0  0  0  0  0  0  0
  133.9370  120.9580   61.1520 O   0  0  0  0  0  0  0  0  0  0  0  0
  134.7170  121.0360   62.3400 C   0  0  0  0  0  0  0  0  0  0  0  0
  132.3320  119.2160   60.9520 C   0  0  0  0  0  0  0  0  0  0  0  0
  133.3570  118.3620   60.6240 O   0  0  0  0  0  0  0  0  0  0  0  0
  133.9800  118.6570   59.3810 C   0  0  0  0  0  0  0  0  0  0  0  0
  1  2  1  0
  2  3  1  0
  3  4  2  0
  4  5  1  0
  5  6  1  0
  6  7  1  0
  7  8  1  0
  8  9  2  0
  8 10  1  0
 10 11  1  0
 11 12  1  0
 12 13  2  0
 13 14  1  0
 14 15  1  0
 14 16  2  0
 16 17  1  0
 17 18  1  0
 17 19  2  0
 19 20  1  0
 20 21  3  0
  5 22  2  0
 22 23  1  0
 23 24  1  0
 24 25  1  0
 23 26  2  0
 26 27  1  0
 27 28  1  0
 26  3  1  0
 19 12  1  0
M  END
>  <Binding energies>  (9) 
[-6.14]

>  <Ligand effiencies>  (9) 
[-0.21172413793103448]

>  <Interactions>  (9) 
["V-A:ILE:369:CG2:3236, V-A:ASP:366:CG:3212, V-B:TYR:539:CD2:9846, V-A:SER:385:C:3404, V-A:SER:385:CA:3406, V-B:TYR:539:C:9839, V-B:TYR:539:CE2:9848, V-B:ALA:541:CB:9864, V-A:ARG:545:CZ:4926, V-A:GLY:454:CA:4048, V-B:GLU:543:CG:9879, V-B:GLU:543:CD:9880, V-A:LEU:475:CD1:4257, H-A:ARG:545:NE:4924, H-A:GLY:454:N:4049, V-B:TYR:539:CA:9841, H-A:ARG:545:NH2:4928, V-A:PRO:482:CG:4326, H-A:HIS:383:NE2:3393, H-A:SER:385:OG:3409, H-A:TYR:484:OH:4347, V-A:ASP:366:CB:3211, V-A:GLY:453:CA:4043, V-A:GLY:453:C:4041, V-A:ILE:369:CD1:3238, V-B:TYR:539:CG:9844, V-B:PRO:540:C:9853, V-B:TYR:539:CB:9843, V-B:ALA:541:CA:9862, V-A:HIS:383:CE1:3392, V-A:ASP:366:CA:3209, V-A:HIS:383:CD2:3391, V-B:VAL:344:CG1:7972"]

$$$$
1i_Grossjean_2025
     RDKit          3D

 20 21  0  0  0  0  0  0  0  0999 V2000
  133.7780  125.4790   66.7920 C   0  0  0  0  0  0  0  0  0  0  0  0
  133.1650  125.3870   65.4070 C   0  0  0  0  0  0  0  0  0  0  0  0
  131.8550  125.7920   65.1610 C   0  0  0  0  0  0  0  0  0  0  0  0
  131.3460  125.6930   63.8610 C   0  0  0  0  0  0  0  0  0  0  0  0
  129.9130  126.1590   63.6120 C   0  0  0  0  0  0  0  0  0  0  0  0
  132.1700  125.1790   62.8330 C   0  0  0  0  0  0  0  0  0  0  0  0
  131.6740  125.1150   61.4560 C   0  0  0  0  0  0  0  0  0  0  0  0
  131.2810  125.0660   60.3680 N   0  0  0  0  0  0  0  0  0  0  0  0
  133.4790  124.7700   63.1800 C   0  0  0  0  0  0  0  0  0  0  0  0
  134.6470  124.1020   62.0160 S   0  0  0  0  0  0  0  0  0  0  0  0
  134.7360  122.3070   62.2940 C   0  0  0  0  0  0  0  0  0  0  0  0
  133.5850  121.5620   61.6160 C   0  0  0  0  0  0  0  0  0  0  0  0
  132.7440  122.2000   60.9800 O   0  0  0  0  0  0  0  0  0  0  0  0
  133.5870  120.2200   61.7720 N   0  0  0  0  0  0  0  0  0  0  0  0
  132.6640  119.3130   61.2710 C   0  0  0  0  0  0  0  0  0  0  0  0
  131.2950  119.4070   61.5150 C   0  0  0  0  0  0  0  0  0  0  0  0
  130.7400  118.3370   60.8530 C   0  0  0  0  0  0  0  0  0  0  0  0
  131.7230  117.6340   60.2430 O   0  0  0  0  0  0  0  0  0  0  0  0
  132.9390  118.2620   60.5160 N   0  0  0  0  0  0  0  0  0  0  0  0
  133.9700  124.8880   64.4390 N   0  0  0  0  0  0  0  0  0  0  0  0
  1  2  1  0
  2  3  2  0
  3  4  1  0
  4  5  1  0
  4  6  2  0
  6  7  1  0
  7  8  3  0
  6  9  1  0
  9 10  1  0
 10 11  1  0
 11 12  1  0
 12 13  2  0
 12 14  1  0
 14 15  1  0
 15 16  1  0
 16 17  2  0
 17 18  1  0
 18 19  1  0
  9 20  2  0
 20  2  1  0
 19 15  2  0
M  END
>  <Binding energies>  (10) 
[-7.01]

>  <Ligand effiencies>  (10) 
[-0.3338095238095238]

>  <Interactions>  (10) 
["V-A:ILE:369:CG2:3236, V-A:ASP:366:CG:3212, V-A:SER:385:C:3404, V-A:ARG:545:CZ:4926, V-A:GLY:454:CA:4048, V-A:LEU:475:CD1:4257, V-A:ARG:545:CG:4922, H-A:GLY:454:N:4049, H-A:ARG:545:NH1:4927, H-A:ARG:545:NH2:4928, V-A:TYR:484:CZ:4346, V-A:PRO:482:CG:4326, H-A:HIS:383:NE2:3393, H-A:SER:385:OG:3409, H-A:SER:385:O:3405, V-A:ARG:545:CD:4923, H-A:TYR:484:OH:4347, V-A:GLY:453:C:4041, V-A:ILE:369:CD1:3238"]

$$$$
1k_Grossjean_2025
     RDKit          3D

 25 25  0  0  0  0  0  0  0  0999 V2000
  130.9690  117.5810   60.1700 C   0  0  0  0  0  0  0  0  0  0  0  0
  132.2660  118.0130   60.5470 O   0  0  0  0  0  0  0  0  0  0  0  0
  132.4980  119.3930   60.2970 C   0  0  0  0  0  0  0  0  0  0  0  0
  131.9950  120.2210   61.4860 C   0  0  0  0  0  0  0  0  0  0  0  0
  130.5750  120.2880   61.4490 O   0  0  0  0  0  0  0  0  0  0  0  0
  130.0640  121.6140   61.4750 C   0  0  0  0  0  0  0  0  0  0  0  0
  130.3080  122.2810   60.1160 C   0  0  0  0  0  0  0  0  0  0  0  0
  130.2500  123.6940   60.2640 O   0  0  0  0  0  0  0  0  0  0  0  0
  130.5500  124.4060   59.0700 C   0  0  0  0  0  0  0  0  0  0  0  0
  132.0160  124.8760   59.1040 C   0  0  0  0  0  0  0  0  0  0  0  0
  132.7360  124.4950   60.3200 N   0  0  0  0  0  0  0  0  0  0  0  0
  133.3840  123.3310   60.5050 C   0  0  0  0  0  0  0  0  0  0  0  0
  133.4440  122.4500   59.6450 O   0  0  0  0  0  0  0  0  0  0  0  0
  134.0560  123.1570   61.8760 C   0  0  0  0  0  0  0  0  0  0  0  0
  134.3530  124.6970   62.8120 S   0  0  0  0  0  0  0  0  0  0  0  0
  132.8710  125.1360   63.7080 C   0  0  0  0  0  0  0  0  0  0  0  0
  131.7390  125.2480   62.9640 N   0  0  0  0  0  0  0  0  0  0  0  0
  130.5830  125.5870   63.5780 C   0  0  0  0  0  0  0  0  0  0  0  0
  129.3670  125.7000   62.6790 C   0  0  0  0  0  0  0  0  0  0  0  0
  130.5010  125.8200   64.9490 C   0  0  0  0  0  0  0  0  0  0  0  0
  131.6570  125.7010   65.7280 C   0  0  0  0  0  0  0  0  0  0  0  0
  131.5460  125.9610   67.2290 C   0  0  0  0  0  0  0  0  0  0  0  0
  132.8760  125.3520   65.1050 C   0  0  0  0  0  0  0  0  0  0  0  0
  134.1040  125.2240   65.8960 C   0  0  0  0  0  0  0  0  0  0  0  0
  135.0720  125.1240   66.5210 N   0  0  0  0  0  0  0  0  0  0  0  0
  1  2  1  0
  2  3  1  0
  3  4  1  0
  4  5  1  0
  5  6  1  0
  6  7  1  0
  7  8  1  0
  8  9  1  0
  9 10  1  0
 10 11  1  0
 11 12  1  0
 12 13  2  0
 12 14  1  0
 14 15  1  0
 15 16  1  0
 16 17  2  0
 17 18  1  0
 18 19  1  0
 18 20  2  0
 20 21  1  0
 21 22  1  0
 21 23  2  0
 23 24  1  0
 24 25  3  0
 23 16  1  0
M  END
>  <Binding energies>  (11) 
[-4.6]

>  <Ligand effiencies>  (11) 
[-0.1769230769230769]

>  <Interactions>  (11) 
["V-A:ILE:369:CG2:3236, V-A:ASP:366:CG:3212, V-B:TYR:539:CD2:9846, V-B:TYR:539:CE2:9848, V-B:ALA:541:CB:9864, V-A:ARG:545:CZ:4926, V-A:GLY:454:CA:4048, V-A:LEU:475:CD1:4257, V-A:ARG:545:CG:4922, H-A:ARG:545:NE:4924, H-A:GLY:454:N:4049, V-A:HIS:456:CE1:4069, H-A:ARG:545:NH1:4927, H-A:ARG:545:NH2:4928, V-A:TYR:484:CZ:4346, V-A:PRO:482:CG:4326, H-A:HIS:383:NE2:3393, H-A:SER:385:OG:3409, V-A:ARG:545:CD:4923, H-A:TYR:484:OH:4347, H-A:ASP:366:OD2:3214, V-A:ASP:366:CB:3211, V-A:GLY:453:CA:4043, V-A:GLY:453:C:4041, V-A:ILE:369:CD1:3238, H-A:ASP:366:OD1:3213, H-A:ILE:455:N:4054, V-B:TYR:539:CB:9843, V-A:HIS:383:CE1:3392"]

$$$$
1l_Grossjean_2025
     RDKit          3D

 17 17  0  0  0  0  0  0  0  0999 V2000
  133.8010  125.4850   66.8100 C   0  0  0  0  0  0  0  0  0  0  0  0
  134.1850  125.1760   65.4780 O   0  0  0  0  0  0  0  0  0  0  0  0
  133.1830  124.4330   64.8550 N   0  0  0  0  0  0  0  0  0  0  0  0
  133.2610  124.2160   63.5280 C   0  0  0  0  0  0  0  0  0  0  0  0
  134.2730  124.4350   62.8570 O   0  0  0  0  0  0  0  0  0  0  0  0
  131.9870  123.6510   62.8840 C   0  0  0  0  0  0  0  0  0  0  0  0
  132.1460  123.2010   61.1230 S   0  0  0  0  0  0  0  0  0  0  0  0
  131.9860  121.4290   60.9850 C   0  0  0  0  0  0  0  0  0  0  0  0
  133.1140  120.7600   60.6330 N   0  0  0  0  0  0  0  0  0  0  0  0
  133.0640  119.4130   60.5090 C   0  0  0  0  0  0  0  0  0  0  0  0
  134.3630  118.7380   60.1130 C   0  0  0  0  0  0  0  0  0  0  0  0
  131.8990  118.6810   60.7290 C   0  0  0  0  0  0  0  0  0  0  0  0
  130.7310  119.3580   61.0930 C   0  0  0  0  0  0  0  0  0  0  0  0
  129.4650  118.5360   61.3310 C   0  0  0  0  0  0  0  0  0  0  0  0
  130.7610  120.7640   61.2270 C   0  0  0  0  0  0  0  0  0  0  0  0
  129.5510  121.5000   61.6080 C   0  0  0  0  0  0  0  0  0  0  0  0
  128.5960  122.0790   61.9080 N   0  0  0  0  0  0  0  0  0  0  0  0
  1  2  1  0
  2  3  1  0
  3  4  1  0
  4  5  2  0
  4  6  1  0
  6  7  1  0
  7  8  1  0
  8  9  2  0
  9 10  1  0
 10 11  1  0
 10 12  2  0
 12 13  1  0
 13 14  1  0
 13 15  2  0
 15 16  1  0
 16 17  3  0
 15  8  1  0
M  END
>  <Binding energies>  (12) 
[-6.01]

>  <Ligand effiencies>  (12) 
[-0.3338888888888889]

>  <Interactions>  (12) 
["V-A:ILE:369:CG2:3236, H-B:ALA:541:N:9863, V-B:TYR:539:CD2:9846, V-A:SER:385:C:3404, V-A:SER:385:CB:3408, V-A:SER:385:CA:3406, V-B:TYR:539:C:9839, V-B:ALA:541:CB:9864, V-A:ARG:545:CZ:4926, V-A:GLY:454:CA:4048, V-A:LEU:475:CD1:4257, V-A:ARG:545:CG:4922, H-A:ARG:545:NE:4924, H-A:GLY:454:N:4049, H-A:ARG:545:NH1:4927, V-A:TYR:484:CZ:4346, V-A:PRO:482:CG:4326, V-A:ARG:545:CD:4923, H-A:TYR:484:OH:4347, V-B:PRO:540:C:9853, V-B:ALA:541:CA:9862, V-A:PRO:482:CB:4325, V-A:HIS:383:CD2:3391"]

$$$$
1m_Grossjean_2025
     RDKit          3D

 20 20  0  0  0  0  0  0  0  0999 V2000
  132.7710  131.4850   61.5970 C   0  0  0  0  0  0  0  0  0  0  0  0
  131.6830  130.7250   61.0900 O   0  0  0  0  0  0  0  0  0  0  0  0
  130.4110  131.1190   61.3090 C   0  0  0  0  0  0  0  0  0  0  0  0
  129.9340  132.2120   60.9900 O   0  0  0  0  0  0  0  0  0  0  0  0
  129.5910  130.0180   62.0120 C   0  0  0  0  0  0  0  0  0  0  0  0
  130.2900  128.7240   62.0520 N   0  0  0  0  0  0  0  0  0  0  0  0
  129.7020  127.5130   62.0460 C   0  0  0  0  0  0  0  0  0  0  0  0
  128.4790  127.3600   62.0220 O   0  0  0  0  0  0  0  0  0  0  0  0
  130.6580  126.3140   62.0810 C   0  0  0  0  0  0  0  0  0  0  0  0
  130.1500  124.9650   63.2020 S   0  0  0  0  0  0  0  0  0  0  0  0
  130.5560  125.4500   64.8660 C   0  0  0  0  0  0  0  0  0  0  0  0
  129.4840  125.8670   65.5870 N   0  0  0  0  0  0  0  0  0  0  0  0
  129.6720  126.2550   66.8700 C   0  0  0  0  0  0  0  0  0  0  0  0
  128.4250  126.6880   67.6170 C   0  0  0  0  0  0  0  0  0  0  0  0
  130.9250  126.2550   67.4790 C   0  0  0  0  0  0  0  0  0  0  0  0
  132.0410  125.8530   66.7380 C   0  0  0  0  0  0  0  0  0  0  0  0
  133.4070  125.8780   67.4210 C   0  0  0  0  0  0  0  0  0  0  0  0
  131.8690  125.4450   65.3950 C   0  0  0  0  0  0  0  0  0  0  0  0
  133.0310  125.0680   64.5860 C   0  0  0  0  0  0  0  0  0  0  0  0
  133.9480  124.7690   63.9480 N   0  0  0  0  0  0  0  0  0  0  0  0
  1  2  1  0
  2  3  1  0
  3  4  2  0
  3  5  1  0
  5  6  1  0
  6  7  1  0
  7  8  2  0
  7  9  1  0
  9 10  1  0
 10 11  1  0
 11 12  2  0
 12 13  1  0
 13 14  1  0
 13 15  2  0
 15 16  1  0
 16 17  1  0
 16 18  2  0
 18 19  1  0
 19 20  3  0
 18 11  1  0
M  END
>  <Binding energies>  (13) 
[-5.12]

>  <Ligand effiencies>  (13) 
[-0.2438095238095238]

>  <Interactions>  (13) 
["V-A:ARG:545:CZ:4926, V-A:ARG:545:CG:4922, V-A:GLU:543:CD:4908, H-A:GLU:543:OE2:4910, H-A:GLY:454:N:4049, H-A:GLU:543:OE1:4909, V-B:GLU:543:CB:9878, V-A:HIS:456:CE1:4069, H-A:ARG:545:NH1:4927, H-A:ARG:545:NH2:4928, V-A:TYR:484:CZ:4346, V-A:ARG:545:CD:4923, V-A:PRO:540:CA:4883, V-A:PRO:540:CB:4885, H-A:ASP:366:OD2:3214, V-A:PRO:540:C:4881, H-A:ALA:541:N:4891, V-A:ASN:362:CB:3175"]

$$$$
1n_Grossjean_2025
     RDKit          3D

 27 28  0  0  0  0  0  0  0  0999 V2000
  129.4630  128.0710   69.3490 C   0  0  0  0  0  0  0  0  0  0  0  0
  129.1470  128.0060   67.8510 C   0  0  0  0  0  0  0  0  0  0  0  0
  128.7030  126.6960   67.5190 O   0  0  0  0  0  0  0  0  0  0  0  0
  129.5220  125.6220   67.6530 C   0  0  0  0  0  0  0  0  0  0  0  0
  129.4860  124.8560   68.6210 O   0  0  0  0  0  0  0  0  0  0  0  0
  130.4700  125.4510   66.5010 C   0  0  0  0  0  0  0  0  0  0  0  0
  130.0930  124.7930   65.3200 C   0  0  0  0  0  0  0  0  0  0  0  0
  130.9960  124.6490   64.2720 C   0  0  0  0  0  0  0  0  0  0  0  0
  132.2940  125.1500   64.3820 C   0  0  0  0  0  0  0  0  0  0  0  0
  133.1270  124.9450   63.2650 N   0  0  0  0  0  0  0  0  0  0  0  0
  133.6280  123.7960   62.7600 C   0  0  0  0  0  0  0  0  0  0  0  0
  133.4240  122.6700   63.2130 O   0  0  0  0  0  0  0  0  0  0  0  0
  134.5150  123.9490   61.5190 C   0  0  0  0  0  0  0  0  0  0  0  0
  133.7080  124.1170   60.2140 C   0  0  0  0  0  0  0  0  0  0  0  0
  133.2310  122.5540   59.4170 S   0  0  0  0  0  0  0  0  0  0  0  0
  131.8290  121.9030   60.3000 C   0  0  0  0  0  0  0  0  0  0  0  0
  130.9380  122.8530   60.6790 N   0  0  0  0  0  0  0  0  0  0  0  0
  129.8230  122.4710   61.3440 C   0  0  0  0  0  0  0  0  0  0  0  0
  128.8680  123.5850   61.7250 C   0  0  0  0  0  0  0  0  0  0  0  0
  129.5550  121.1410   61.6620 C   0  0  0  0  0  0  0  0  0  0  0  0
  130.4790  120.1560   61.2930 C   0  0  0  0  0  0  0  0  0  0  0  0
  130.1710  118.7070   61.6640 C   0  0  0  0  0  0  0  0  0  0  0  0
  131.6530  120.5330   60.6020 C   0  0  0  0  0  0  0  0  0  0  0  0
  132.6570  119.5260   60.2530 C   0  0  0  0  0  0  0  0  0  0  0  0
  133.4490  118.7280   59.9790 N   0  0  0  0  0  0  0  0  0  0  0  0
  132.6760  125.8180   65.5550 C   0  0  0  0  0  0  0  0  0  0  0  0
  131.7690  125.9640   66.6010 C   0  0  0  0  0  0  0  0  0  0  0  0
  1  2  1  0
  2  3  1  0
  3  4  1  0
  4  5  2  0
  4  6  1  0
  6  7  2  0
  7  8  1  0
  8  9  2  0
  9 10  1  0
 10 11  1  0
 11 12  2  0
 11 13  1  0
 13 14  1  0
 14 15  1  0
 15 16  1  0
 16 17  2  0
 17 18  1  0
 18 19  1  0
 18 20  2  0
 20 21  1  0
 21 22  1  0
 21 23  2  0
 23 24  1  0
 24 25  3  0
  9 26  1  0
 26 27  2  0
 27  6  1  0
 23 16  1  0
M  END
>  <Binding energies>  (14) 
[-6.84]

>  <Ligand effiencies>  (14) 
[-0.24428571428571427]

>  <Interactions>  (14) 
["V-A:ILE:369:CG2:3236, V-A:ASP:366:CG:3212, V-B:TYR:539:CD2:9846, V-B:TYR:539:CE2:9848, V-B:ALA:541:CB:9864, V-A:ARG:545:CZ:4926, V-A:GLY:454:CA:4048, V-B:GLU:543:CG:9879, V-B:GLU:543:CD:9880, V-A:LEU:475:CD1:4257, V-A:GLU:543:CB:4906, V-A:TYR:484:CE2:4345, H-A:GLY:454:N:4049, V-B:GLU:543:CB:9878, V-A:HIS:456:CE1:4069, V-B:HIS:456:CE1:9041, V-A:TYR:484:CZ:4346, V-A:PRO:482:CG:4326, H-A:HIS:383:NE2:3393, H-A:SER:385:OG:3409, H-A:ASP:366:OD2:3214, V-A:ASP:366:CB:3211, V-A:ILE:369:CD1:3238, H-A:ASP:366:OD1:3213, V-B:PRO:540:C:9853, V-B:ALA:541:CA:9862, V-A:PRO:482:CB:4325, V-A:ASP:366:CA:3209"]

$$$$
1q_Grossjean_2025
     RDKit          3D

 21 21  0  0  0  0  0  0  0  0999 V2000
  133.9680  125.4390   67.7290 C   0  0  0  0  0  0  0  0  0  0  0  0
  134.3880  125.0250   66.4370 O   0  0  0  0  0  0  0  0  0  0  0  0
  133.6150  125.2690   65.3500 C   0  0  0  0  0  0  0  0  0  0  0  0
  133.9600  125.1140   64.1770 O   0  0  0  0  0  0  0  0  0  0  0  0
  132.2110  125.8130   65.6870 C   0  0  0  0  0  0  0  0  0  0  0  0
  131.1270  124.9310   65.2280 N   0  0  0  0  0  0  0  0  0  0  0  0
  130.4080  125.0860   64.1000 C   0  0  0  0  0  0  0  0  0  0  0  0
  130.5890  126.0120   63.3070 O   0  0  0  0  0  0  0  0  0  0  0  0
  129.3360  124.0180   63.8340 C   0  0  0  0  0  0  0  0  0  0  0  0
  129.8660  122.5710   63.8520 C   0  0  0  0  0  0  0  0  0  0  0  0
  129.8950  121.7860   62.2120 S   0  0  0  0  0  0  0  0  0  0  0  0
  131.5840  121.4020   61.7970 C   0  0  0  0  0  0  0  0  0  0  0  0
  132.4470  122.4170   62.0560 N   0  0  0  0  0  0  0  0  0  0  0  0
  133.7600  122.2440   61.7790 C   0  0  0  0  0  0  0  0  0  0  0  0
  134.6590  123.4280   62.0810 C   0  0  0  0  0  0  0  0  0  0  0  0
  134.2670  121.0600   61.2480 C   0  0  0  0  0  0  0  0  0  0  0  0
  133.3910  119.9980   61.0000 C   0  0  0  0  0  0  0  0  0  0  0  0
  133.9740  118.7030   60.4340 C   0  0  0  0  0  0  0  0  0  0  0  0
  132.0150  120.1540   61.2830 C   0  0  0  0  0  0  0  0  0  0  0  0
  131.0940  119.0340   61.0840 C   0  0  0  0  0  0  0  0  0  0  0  0
  130.3680  118.1460   60.9250 N   0  0  0  0  0  0  0  0  0  0  0  0
  1  2  1  0
  2  3  1  0
  3  4  2  0
  3  5  1  0
  5  6  1  0
  6  7  1  0
  7  8  2  0
  7  9  1  0
  9 10  1  0
 10 11  1  0
 11 12  1  0
 12 13  2  0
 13 14  1  0
 14 15  1  0
 14 16  2  0
 16 17  1  0
 17 18  1  0
 17 19  2  0
 19 20  1  0
 20 21  3  0
 19 12  1  0
M  END
>  <Binding energies>  (15) 
[-5.87]

>  <Ligand effiencies>  (15) 
[-0.26681818181818184]

>  <Interactions>  (15) 
["V-A:ILE:369:CG2:3236, V-A:SER:385:C:3404, V-A:SER:385:CB:3408, V-A:SER:385:CA:3406, V-B:ALA:541:CB:9864, V-A:ARG:545:CZ:4926, V-A:GLY:454:CA:4048, V-B:GLU:543:CG:9879, V-B:GLU:543:CD:9880, V-A:LEU:475:CD1:4257, V-A:ARG:545:CG:4922, H-A:ARG:545:NE:4924, H-A:GLY:454:N:4049, V-A:HIS:456:CE1:4069, H-A:ARG:545:NH1:4927, H-A:ARG:545:NH2:4928, V-A:TYR:484:CZ:4346, V-A:ARG:545:CD:4923, H-A:TYR:484:OH:4347, V-A:GLY:453:CA:4043, V-A:GLY:453:C:4041, V-A:ILE:369:CD1:3238, V-A:ILE:455:C:4051, H-A:ILE:455:N:4054, V-A:HIS:383:CD2:3391"]

$$$$
2a_Grossjean_2025
     RDKit          3D

 29 30  0  0  0  0  0  0  0  0999 V2000
  128.2950  128.6930   67.3380 C   0  0  0  0  0  0  0  0  0  0  0  0
  129.1050  128.8150   68.6330 C   0  0  0  0  0  0  0  0  0  0  0  0
  130.0760  127.7750   68.6790 O   0  0  0  0  0  0  0  0  0  0  0  0
  129.7450  126.4940   68.3750 C   0  0  0  0  0  0  0  0  0  0  0  0
  128.9970  125.8000   69.0700 O   0  0  0  0  0  0  0  0  0  0  0  0
  130.3640  126.0120   67.0940 C   0  0  0  0  0  0  0  0  0  0  0  0
  131.7070  126.2610   66.7800 C   0  0  0  0  0  0  0  0  0  0  0  0
  132.2500  125.8020   65.5830 C   0  0  0  0  0  0  0  0  0  0  0  0
  131.4630  125.0930   64.6750 C   0  0  0  0  0  0  0  0  0  0  0  0
  132.1120  124.6900   63.4930 N   0  0  0  0  0  0  0  0  0  0  0  0
  133.4240  124.6990   63.1760 C   0  0  0  0  0  0  0  0  0  0  0  0
  134.3320  125.1090   63.9010 O   0  0  0  0  0  0  0  0  0  0  0  0
  133.7740  124.1490   61.7890 C   0  0  0  0  0  0  0  0  0  0  0  0
  133.9930  122.3380   61.7660 S   0  0  0  0  0  0  0  0  0  0  0  0
  132.3950  121.5380   61.6730 C   0  0  0  0  0  0  0  0  0  0  0  0
  131.3350  122.2930   62.0570 N   0  0  0  0  0  0  0  0  0  0  0  0
  130.0980  121.7480   62.0240 C   0  0  0  0  0  0  0  0  0  0  0  0
  128.9680  122.6450   62.4940 C   0  0  0  0  0  0  0  0  0  0  0  0
  129.8640  120.4430   61.6040 C   0  0  0  0  0  0  0  0  0  0  0  0
  130.9440  119.6460   61.1940 C   0  0  0  0  0  0  0  0  0  0  0  0
  130.6670  118.2030   60.7300 C   0  0  0  0  0  0  0  0  0  0  0  0
  129.3770  117.9100   60.8890 F   0  0  0  0  0  0  0  0  0  0  0  0
  130.9860  118.0700   59.4410 F   0  0  0  0  0  0  0  0  0  0  0  0
  131.3720  117.2980   61.4130 F   0  0  0  0  0  0  0  0  0  0  0  0
  132.2470  120.2040   61.2260 C   0  0  0  0  0  0  0  0  0  0  0  0
  133.4120  119.4150   60.8120 C   0  0  0  0  0  0  0  0  0  0  0  0
  134.3310  118.7930   60.4850 N   0  0  0  0  0  0  0  0  0  0  0  0
  130.1210  124.8320   64.9860 C   0  0  0  0  0  0  0  0  0  0  0  0
  129.5810  125.2880   66.1850 C   0  0  0  0  0  0  0  0  0  0  0  0
  1  2  1  0
  2  3  1  0
  3  4  1  0
  4  5  2  0
  4  6  1  0
  6  7  2  0
  7  8  1  0
  8  9  2  0
  9 10  1  0
 10 11  1  0
 11 12  2  0
 11 13  1  0
 13 14  1  0
 14 15  1  0
 15 16  2  0
 16 17  1  0
 17 18  1  0
 17 19  2  0
 19 20  1  0
 20 21  1  0
 21 22  1  0
 21 23  1  0
 21 24  1  0
 20 25  2  0
 25 26  1  0
 26 27  3  0
  9 28  1  0
 28 29  2  0
 29  6  1  0
 25 15  1  0
M  END
>  <Binding energies>  (16) 
[-7.25]

>  <Ligand effiencies>  (16) 
[-0.24166666666666667]

>  <Interactions>  (16) 
["V-A:ILE:369:CG2:3236, V-A:ASP:366:CG:3212, V-B:TYR:539:CD2:9846, V-A:SER:385:CA:3406, V-B:TYR:539:C:9839, V-B:ALA:541:CB:9864, V-A:ARG:545:CZ:4926, V-B:GLU:543:CG:9879, V-B:GLU:543:CD:9880, V-A:LEU:475:CD1:4257, V-A:GLU:543:CB:4906, V-A:GLU:543:CD:4908, H-A:ARG:545:NE:4924, H-A:GLY:454:N:4049, V-B:GLU:543:CB:9878, V-A:HIS:456:CE1:4069, H-A:ARG:545:NH1:4927, H-A:ARG:545:NH2:4928, V-B:HIS:456:CE1:9041, V-A:PRO:482:CG:4326, H-A:HIS:383:NE2:3393, H-A:SER:385:OG:3409, V-B:TYR:539:CG:9844, V-A:GLU:543:CG:4907, V-B:PRO:540:C:9853, V-A:GLU:543:C:4902, V-A:GLU:543:CA:4904, V-B:TYR:539:CB:9843, V-B:ALA:541:CA:9862, V-A:PRO:482:CB:4325, V-A:HIS:383:CE1:3392, V-A:PRO:482:CD:4327"]

$$$$
2b_Grossjean_2025
     RDKit          3D

 28 29  0  0  0  0  0  0  0  0999 V2000
  125.3620  124.3100   58.2130 C   0  0  0  0  0  0  0  0  0  0  0  0
  125.9990  123.8840   57.0170 O   0  0  0  0  0  0  0  0  0  0  0  0
  126.8290  122.8100   57.0110 C   0  0  0  0  0  0  0  0  0  0  0  0
  126.5300  121.7220   56.5070 O   0  0  0  0  0  0  0  0  0  0  0  0
  128.1460  123.0740   57.6800 C   0  0  0  0  0  0  0  0  0  0  0  0
  128.5520  122.3700   58.8230 C   0  0  0  0  0  0  0  0  0  0  0  0
  129.7800  122.6410   59.4210 C   0  0  0  0  0  0  0  0  0  0  0  0
  130.6270  123.6120   58.8890 C   0  0  0  0  0  0  0  0  0  0  0  0
  131.8410  123.8100   59.5750 N   0  0  0  0  0  0  0  0  0  0  0  0
  133.1020  123.5020   59.2020 C   0  0  0  0  0  0  0  0  0  0  0  0
  133.4180  122.9430   58.1510 O   0  0  0  0  0  0  0  0  0  0  0  0
  134.1910  123.8840   60.2090 C   0  0  0  0  0  0  0  0  0  0  0  0
  134.0640  122.9730   61.7830 S   0  0  0  0  0  0  0  0  0  0  0  0
  132.4900  122.1300   61.8750 C   0  0  0  0  0  0  0  0  0  0  0  0
  131.4490  122.8730   62.3290 N   0  0  0  0  0  0  0  0  0  0  0  0
  130.2300  122.2980   62.4290 C   0  0  0  0  0  0  0  0  0  0  0  0
  129.1240  123.1910   62.9580 C   0  0  0  0  0  0  0  0  0  0  0  0
  129.9930  120.9720   62.0760 C   0  0  0  0  0  0  0  0  0  0  0  0
  131.0530  120.1870   61.5970 C   0  0  0  0  0  0  0  0  0  0  0  0
  130.7730  118.7240   61.2060 C   0  0  0  0  0  0  0  0  0  0  0  0
  129.5060  118.4120   61.4810 F   0  0  0  0  0  0  0  0  0  0  0  0
  130.9870  118.5480   59.9010 F   0  0  0  0  0  0  0  0  0  0  0  0
  131.5500  117.8570   61.8590 F   0  0  0  0  0  0  0  0  0  0  0  0
  132.3390  120.7760   61.4930 C   0  0  0  0  0  0  0  0  0  0  0  0
  133.4830  120.0000   61.0040 C   0  0  0  0  0  0  0  0  0  0  0  0
  134.3860  119.3880   60.6180 N   0  0  0  0  0  0  0  0  0  0  0  0
  130.2260  124.3260   57.7500 C   0  0  0  0  0  0  0  0  0  0  0  0
  128.9980  124.0550   57.1540 C   0  0  0  0  0  0  0  0  0  0  0  0
  1  2  1  0
  2  3  1  0
  3  4  2  0
  3  5  1  0
  5  6  2  0
  6  7  1  0
  7  8  2  0
  8  9  1  0
  9 10  1  0
 10 11  2  0
 10 12  1  0
 12 13  1  0
 13 14  1  0
 14 15  2  0
 15 16  1  0
 16 17  1  0
 16 18  2  0
 18 19  1  0
 19 20  1  0
 20 21  1  0
 20 22  1  0
 20 23  1  0
 19 24  2  0
 24 25  1  0
 25 26  3  0
  8 27  1  0
 27 28  2  0
 28  5  1  0
 24 14  1  0
M  END
>  <Binding energies>  (17) 
[-7.25]

>  <Ligand effiencies>  (17) 
[-0.25]

>  <Interactions>  (17) 
["V-A:ILE:369:CG2:3236, V-A:ASP:366:CG:3212, V-B:TYR:539:CD2:9846, V-B:PRO:540:CA:9855, V-B:TYR:539:C:9839, V-B:TYR:539:CE2:9848, V-B:TYR:539:CZ:9849, V-B:PRO:540:N:9856, V-B:LEU:363:CD1:8160, V-B:ALA:541:CB:9864, V-B:GLU:543:CG:9879, V-B:GLU:543:CD:9880, V-A:LEU:475:CD1:4257, H-A:GLY:454:N:4049, V-B:MET:535:CE:9807, H-B:TYR:531:OH:9767, V-A:PRO:482:CG:4326, H-A:SER:385:OG:3409, V-A:ASP:366:CB:3211, V-A:ILE:369:CD1:3238, V-B:TYR:539:CG:9844, H-B:TYR:539:N:9842, V-B:PRO:540:C:9853, V-B:TYR:531:CE2:9765, V-B:TYR:539:CB:9843, V-B:ALA:541:CA:9862, V-A:PRO:482:CB:4325, H-B:TYR:539:OH:9850, V-A:ASP:366:CA:3209, V-A:ILE:369:CB:3235, V-A:PRO:482:CD:4327"]

$$$$
2c_Grossjean_2025
     RDKit          3D

 26 27  0  0  0  0  0  0  0  0999 V2000
  128.4400  126.5880   68.3070 C   0  0  0  0  0  0  0  0  0  0  0  0
  129.7140  125.9530   68.3150 O   0  0  0  0  0  0  0  0  0  0  0  0
  130.2970  125.5960   67.1150 C   0  0  0  0  0  0  0  0  0  0  0  0
  131.5550  126.1360   66.8480 C   0  0  0  0  0  0  0  0  0  0  0  0
  132.2210  125.8350   65.6630 C   0  0  0  0  0  0  0  0  0  0  0  0
  131.6220  124.9890   64.7190 C   0  0  0  0  0  0  0  0  0  0  0  0
  132.2250  124.6140   63.5040 N   0  0  0  0  0  0  0  0  0  0  0  0
  133.5300  124.6600   63.1610 C   0  0  0  0  0  0  0  0  0  0  0  0
  134.4270  125.1100   63.8770 O   0  0  0  0  0  0  0  0  0  0  0  0
  133.8480  124.1360   61.7530 C   0  0  0  0  0  0  0  0  0  0  0  0
  134.0520  122.3250   61.6160 S   0  0  0  0  0  0  0  0  0  0  0  0
  132.4420  121.5470   61.5690 C   0  0  0  0  0  0  0  0  0  0  0  0
  131.3990  122.3310   61.9480 N   0  0  0  0  0  0  0  0  0  0  0  0
  130.1550  121.8070   61.9460 C   0  0  0  0  0  0  0  0  0  0  0  0
  129.0470  122.7390   62.3980 C   0  0  0  0  0  0  0  0  0  0  0  0
  129.8920  120.4940   61.5610 C   0  0  0  0  0  0  0  0  0  0  0  0
  130.9520  119.6690   61.1580 C   0  0  0  0  0  0  0  0  0  0  0  0
  130.6460  118.2200   60.7330 C   0  0  0  0  0  0  0  0  0  0  0  0
  131.3570  117.3680   61.4730 F   0  0  0  0  0  0  0  0  0  0  0  0
  129.3490  117.9590   60.8970 F   0  0  0  0  0  0  0  0  0  0  0  0
  130.9440  117.9850   59.4530 F   0  0  0  0  0  0  0  0  0  0  0  0
  132.2650  120.2040   61.1600 C   0  0  0  0  0  0  0  0  0  0  0  0
  133.4120  119.3870   60.7510 C   0  0  0  0  0  0  0  0  0  0  0  0
  134.3160  118.7410   60.4270 N   0  0  0  0  0  0  0  0  0  0  0  0
  130.3700  124.4330   64.9870 C   0  0  0  0  0  0  0  0  0  0  0  0
  129.7080  124.7360   66.1730 C   0  0  0  0  0  0  0  0  0  0  0  0
  1  2  1  0
  2  3  1  0
  3  4  2  0
  4  5  1  0
  5  6  2  0
  6  7  1  0
  7  8  1  0
  8  9  2  0
  8 10  1  0
 10 11  1  0
 11 12  1  0
 12 13  2  0
 13 14  1  0
 14 15  1  0
 14 16  2  0
 16 17  1  0
 17 18  1  0
 18 19  1  0
 18 20  1  0
 18 21  1  0
 17 22  2  0
 22 23  1  0
 23 24  3  0
  6 25  1  0
 25 26  2  0
 26  3  1  0
 22 12  1  0
M  END
>  <Binding energies>  (18) 
[-6.71]

>  <Ligand effiencies>  (18) 
[-0.24851851851851853]

>  <Interactions>  (18) 
["V-A:ILE:369:CG2:3236, V-A:ASP:366:CG:3212, V-B:TYR:539:CD2:9846, V-A:SER:385:CA:3406, V-B:TYR:539:C:9839, V-B:PRO:540:N:9856, V-B:ALA:541:CB:9864, V-A:ARG:545:CZ:4926, V-B:GLU:543:CG:9879, V-B:GLU:543:CD:9880, V-A:LEU:475:CD1:4257, V-A:TYR:484:CE2:4345, H-A:ARG:545:NE:4924, H-A:GLY:454:N:4049, V-B:GLU:543:CB:9878, V-A:HIS:456:CE1:4069, H-A:ARG:545:NH1:4927, H-A:ARG:545:NH2:4928, V-B:HIS:456:CE1:9041, V-A:TYR:484:CZ:4346, V-A:PRO:482:CG:4326, H-A:HIS:383:NE2:3393, H-A:SER:385:OG:3409, V-B:TYR:539:CG:9844, V-B:PRO:540:C:9853, V-B:TYR:539:CB:9843, V-B:ALA:541:CA:9862, V-A:PRO:482:CB:4325, V-A:HIS:383:CE1:3392, V-A:PRO:482:CD:4327"]

$$$$
2d_Ghoteimi_2023
     RDKit          3D

 38 42  0  0  0  0  0  0  0  0999 V2000
  131.0360  131.0730   61.2790 C   0  0  0  0  0  0  0  0  0  0  0  0
  129.8390  131.6210   61.8120 O   0  0  0  0  0  0  0  0  0  0  0  0
  128.9940  130.8540   62.5300 C   0  0  0  0  0  0  0  0  0  0  0  0
  128.2670  131.2520   63.4450 O   0  0  0  0  0  0  0  0  0  0  0  0
  129.0340  129.3910   62.0620 C   0  0  0  0  0  0  0  0  0  0  0  0
  127.6630  128.4280   62.7860 S   0  0  0  0  0  0  0  0  0  0  0  0
  128.3310  127.3650   64.0490 C   0  0  0  0  0  0  0  0  0  0  0  0
  128.8660  126.2200   63.5570 N   0  0  0  0  0  0  0  0  0  0  0  0
  129.4060  125.3120   64.4090 C   0  0  0  0  0  0  0  0  0  0  0  0
  129.9600  124.0670   63.7950 C   0  0  0  0  0  0  0  0  0  0  0  0
  131.1840  123.5440   64.2280 C   0  0  0  0  0  0  0  0  0  0  0  0
  131.7060  122.3840   63.6610 C   0  0  0  0  0  0  0  0  0  0  0  0
  131.0180  121.7000   62.6480 C   0  0  0  0  0  0  0  0  0  0  0  0
  131.5380  120.5430   62.0550 N   0  0  0  0  0  0  0  0  0  0  0  0
  130.6630  119.4300   61.6360 C   0  0  0  0  0  0  0  0  0  0  0  0
  131.4230  118.1170   61.3590 C   0  0  0  0  0  0  0  0  0  0  0  0
  132.4460  118.3430   60.4010 O   0  0  0  0  0  0  0  0  0  0  0  0
  133.3860  119.3010   60.8590 C   0  0  0  0  0  0  0  0  0  0  0  0
  132.6830  120.6480   61.1290 C   0  0  0  0  0  0  0  0  0  0  0  0
  129.7990  122.2350   62.2080 C   0  0  0  0  0  0  0  0  0  0  0  0
  129.2780  123.3960   62.7730 C   0  0  0  0  0  0  0  0  0  0  0  0
  129.4240  125.5390   65.7870 C   0  0  0  0  0  0  0  0  0  0  0  0
  128.9080  126.7280   66.3180 C   0  0  0  0  0  0  0  0  0  0  0  0
  128.9870  126.9140   67.7980 C   0  0  0  0  0  0  0  0  0  0  0  0
  128.3110  126.0420   68.6530 C   0  0  0  0  0  0  0  0  0  0  0  0
  128.3870  126.1990   70.0340 C   0  0  0  0  0  0  0  0  0  0  0  0
  129.1430  127.2380   70.6000 C   0  0  0  0  0  0  0  0  0  0  0  0
  129.2450  127.4080   71.9840 N   0  0  0  0  0  0  0  0  0  0  0  0
  129.1690  128.7450   72.6030 C   0  0  0  0  0  0  0  0  0  0  0  0
  128.9400  128.7050   74.1290 C   0  0  0  0  0  0  0  0  0  0  0  0
  129.9420  127.9140   74.7500 O   0  0  0  0  0  0  0  0  0  0  0  0
  129.9310  126.5800   74.2670 C   0  0  0  0  0  0  0  0  0  0  0  0
  130.1900  126.5660   72.7450 C   0  0  0  0  0  0  0  0  0  0  0  0
  129.8340  128.0980   69.7350 C   0  0  0  0  0  0  0  0  0  0  0  0
  129.7580  127.9400   68.3540 C   0  0  0  0  0  0  0  0  0  0  0  0
  128.3480  127.6770   65.4280 C   0  0  0  0  0  0  0  0  0  0  0  0
  127.8130  128.9450   65.9330 C   0  0  0  0  0  0  0  0  0  0  0  0
  127.3910  129.9450   66.3370 N   0  0  0  0  0  0  0  0  0  0  0  0
  1  2  1  0
  2  3  1  0
  3  4  2  0
  3  5  1  0
  5  6  1  0
  6  7  1  0
  7  8  2  0
  8  9  1  0
  9 10  1  0
 10 11  2  0
 11 12  1  0
 12 13  2  0
 13 14  1  0
 14 15  1  0
 15 16  1  0
 16 17  1  0
 17 18  1  0
 18 19  1  0
 13 20  1  0
 20 21  2  0
  9 22  2  0
 22 23  1  0
 23 24  1  0
 24 25  2  0
 25 26  1  0
 26 27  2  0
 27 28  1  0
 28 29  1  0
 29 30  1  0
 30 31  1  0
 31 32  1  0
 32 33  1  0
 27 34  1  0
 34 35  2  0
 23 36  2  0
 36 37  1  0
 37 38  3  0
 36  7  1  0
 21 10  1  0
 35 24  1  0
 19 14  1  0
 33 28  1  0
M  END
>  <Binding energies>  (19) 
[-8.04]

>  <Ligand effiencies>  (19) 
[-0.21157894736842103]

>  <Interactions>  (19) 
["V-A:ILE:369:CG2:3236, V-A:SER:385:CA:3406, V-B:ALA:541:CB:9864, V-B:GLU:543:CG:9879, V-B:GLU:543:CD:9880, V-A:LEU:475:CD1:4257, V-A:GLU:543:CB:4906, V-A:GLU:543:CD:4908, V-B:GLU:543:CB:9878, V-A:HIS:456:CE1:4069, V-B:HIS:456:CE1:9041, V-A:PRO:482:CG:4326, H-A:HIS:383:NE2:3393, H-A:SER:385:OG:3409, V-A:PRO:540:CA:4883, V-A:GLU:543:CG:4907, V-B:HIS:456:CD2:9039, H-A:ALA:541:N:4891, V-A:ALA:541:CB:4892, V-B:GLU:543:C:9874, V-A:HIS:456:CD2:4067, H-A:LYS:547:NZ:4951, V-A:HIS:456:CG:4065, V-B:GLU:543:CA:9876, V-A:GLU:543:C:4902, V-A:PRO:482:CB:4325, H-B:TYR:484:OH:9319"]

$$$$
2d_Grossjean_2025
     RDKit          3D

 24 25  0  0  0  0  0  0  0  0999 V2000
  129.1240  122.3730   62.2900 C   0  0  0  0  0  0  0  0  0  0  0  0
  130.2260  121.4410   61.8220 C   0  0  0  0  0  0  0  0  0  0  0  0
  129.9500  120.1470   61.3840 C   0  0  0  0  0  0  0  0  0  0  0  0
  131.0030  119.3250   60.9570 C   0  0  0  0  0  0  0  0  0  0  0  0
  130.6770  117.9010   60.4660 C   0  0  0  0  0  0  0  0  0  0  0  0
  131.0160  117.7720   59.1830 F   0  0  0  0  0  0  0  0  0  0  0  0
  131.3550  117.0040   61.1840 F   0  0  0  0  0  0  0  0  0  0  0  0
  129.3810  117.6020   60.5710 F   0  0  0  0  0  0  0  0  0  0  0  0
  132.3230  119.8400   60.9920 C   0  0  0  0  0  0  0  0  0  0  0  0
  133.4520  119.0380   60.5130 C   0  0  0  0  0  0  0  0  0  0  0  0
  134.3420  118.4040   60.1320 N   0  0  0  0  0  0  0  0  0  0  0  0
  132.5110  121.1570   61.4760 C   0  0  0  0  0  0  0  0  0  0  0  0
  134.1020  121.9480   61.6180 S   0  0  0  0  0  0  0  0  0  0  0  0
  133.8790  123.7480   61.4370 C   0  0  0  0  0  0  0  0  0  0  0  0
  133.7290  124.4710   62.7790 C   0  0  0  0  0  0  0  0  0  0  0  0
  134.6890  125.0950   63.2340 O   0  0  0  0  0  0  0  0  0  0  0  0
  132.5310  124.3350   63.3850 N   0  0  0  0  0  0  0  0  0  0  0  0
  132.0860  124.8730   64.6070 C   0  0  0  0  0  0  0  0  0  0  0  0
  130.7160  124.7740   64.8570 C   0  0  0  0  0  0  0  0  0  0  0  0
  130.1790  125.2830   66.0370 C   0  0  0  0  0  0  0  0  0  0  0  0
  131.0150  125.9010   66.9650 C   0  0  0  0  0  0  0  0  0  0  0  0
  132.3810  126.0170   66.7200 C   0  0  0  0  0  0  0  0  0  0  0  0
  132.9200  125.5080   65.5420 C   0  0  0  0  0  0  0  0  0  0  0  0
  131.4800  121.9450   61.8660 N   0  0  0  0  0  0  0  0  0  0  0  0
  1  2  1  0
  2  3  2  0
  3  4  1  0
  4  5  1  0
  5  6  1  0
  5  7  1  0
  5  8  1  0
  4  9  2  0
  9 10  1  0
 10 11  3  0
  9 12  1  0
 12 13  1  0
 13 14  1  0
 14 15  1  0
 15 16  2  0
 15 17  1  0
 17 18  1  0
 18 19  2  0
 19 20  1  0
 20 21  2  0
 21 22  1  0
 22 23  2  0
 12 24  2  0
 24  2  1  0
 23 18  1  0
M  END
>  <Binding energies>  (20) 
[-6.76]

>  <Ligand effiencies>  (20) 
[-0.2704]

>  <Interactions>  (20) 
["V-A:ILE:369:CG2:3236, V-A:ASP:366:CG:3212, V-B:TYR:539:CD2:9846, V-A:SER:385:CA:3406, V-B:TYR:539:C:9839, V-B:PRO:540:N:9856, V-B:ALA:541:CB:9864, V-A:ARG:545:CZ:4926, V-B:GLU:543:CG:9879, V-A:LEU:475:CD1:4257, V-A:ARG:545:CG:4922, V-A:TYR:484:CE2:4345, H-A:GLY:454:N:4049, V-A:HIS:456:CE1:4069, V-B:TYR:539:CA:9841, H-A:ARG:545:NH1:4927, H-A:ARG:545:NH2:4928, V-A:TYR:484:CZ:4346, V-A:PRO:482:CG:4326, H-A:HIS:383:NE2:3393, H-A:SER:385:OG:3409, V-A:ILE:369:CD1:3238, V-B:TYR:539:CG:9844, V-B:PRO:540:C:9853, V-B:TYR:539:CB:9843, V-B:ALA:541:CA:9862, V-A:PRO:482:CB:4325, V-A:HIS:383:CE1:3392, V-A:PRO:482:CD:4327"]

$$$$
2e_Grossjean_2025
     RDKit          3D

 25 26  0  0  0  0  0  0  0  0999 V2000
  129.5270  125.7700   65.8420 C   0  0  0  0  0  0  0  0  0  0  0  0
  131.0390  125.6570   65.8200 C   0  0  0  0  0  0  0  0  0  0  0  0
  131.8130  125.9870   66.9360 C   0  0  0  0  0  0  0  0  0  0  0  0
  133.2000  125.8470   66.8460 C   0  0  0  0  0  0  0  0  0  0  0  0
  133.7720  125.3880   65.6570 C   0  0  0  0  0  0  0  0  0  0  0  0
  132.9380  125.0850   64.5750 C   0  0  0  0  0  0  0  0  0  0  0  0
  133.5620  124.5870   63.4190 N   0  0  0  0  0  0  0  0  0  0  0  0
  133.5240  123.3280   62.9270 C   0  0  0  0  0  0  0  0  0  0  0  0
  132.8520  122.4080   63.3950 O   0  0  0  0  0  0  0  0  0  0  0  0
  134.4310  123.0550   61.7240 C   0  0  0  0  0  0  0  0  0  0  0  0
  133.4850  122.9040   60.1750 S   0  0  0  0  0  0  0  0  0  0  0  0
  131.9730  122.0780   60.6190 C   0  0  0  0  0  0  0  0  0  0  0  0
  130.9420  122.9080   60.9180 N   0  0  0  0  0  0  0  0  0  0  0  0
  129.7680  122.3630   61.3100 C   0  0  0  0  0  0  0  0  0  0  0  0
  128.6590  123.3480   61.6270 C   0  0  0  0  0  0  0  0  0  0  0  0
  129.5780  120.9870   61.4250 C   0  0  0  0  0  0  0  0  0  0  0  0
  130.6370  120.1160   61.1300 C   0  0  0  0  0  0  0  0  0  0  0  0
  130.4180  118.6000   61.2830 C   0  0  0  0  0  0  0  0  0  0  0  0
  129.1580  118.3530   61.6430 F   0  0  0  0  0  0  0  0  0  0  0  0
  130.6660  117.9840   60.1260 F   0  0  0  0  0  0  0  0  0  0  0  0
  131.2130  118.0550   62.2070 F   0  0  0  0  0  0  0  0  0  0  0  0
  131.8720  120.6710   60.7120 C   0  0  0  0  0  0  0  0  0  0  0  0
  133.0260  119.8160   60.4170 C   0  0  0  0  0  0  0  0  0  0  0  0
  133.9370  119.1400   60.1850 N   0  0  0  0  0  0  0  0  0  0  0  0
  131.5810  125.2110   64.6580 N   0  0  0  0  0  0  0  0  0  0  0  0
  1  2  1  0
  2  3  2  0
  3  4  1  0
  4  5  2  0
  5  6  1  0
  6  7  1  0
  7  8  1  0
  8  9  2  0
  8 10  1  0
 10 11  1  0
 11 12  1  0
 12 13  2  0
 13 14  1  0
 14 15  1  0
 14 16  2  0
 16 17  1  0
 17 18  1  0
 18 19  1  0
 18 20  1  0
 18 21  1  0
 17 22  2  0
 22 23  1  0
 23 24  3  0
  6 25  2  0
 25  2  1  0
 22 12  1  0
M  END
>  <Binding energies>  (21) 
[-6.15]

>  <Ligand effiencies>  (21) 
[-0.23653846153846156]

>  <Interactions>  (21) 
["V-A:ILE:369:CG2:3236, V-B:TYR:539:CD2:9846, V-B:PRO:540:CA:9855, V-B:TYR:539:C:9839, V-B:TYR:539:CE2:9848, V-B:ALA:541:CB:9864, V-A:ARG:545:CZ:4926, V-A:GLY:454:CA:4048, V-B:GLU:543:CG:9879, V-B:GLU:543:CD:9880, V-A:LEU:475:CD1:4257, V-A:ARG:545:CG:4922, H-A:GLY:454:N:4049, V-A:HIS:456:CE1:4069, V-A:TYR:484:CZ:4346, V-A:PRO:482:CG:4326, H-A:HIS:383:NE2:3393, H-A:SER:385:OG:3409, V-A:ARG:545:CD:4923, H-A:TYR:484:OH:4347, V-A:ILE:369:CD1:3238, H-A:ASP:366:OD1:3213, V-B:PRO:540:C:9853, V-B:TYR:539:CB:9843, V-B:ALA:541:CA:9862, V-A:PRO:482:CB:4325, V-A:PRO:482:CD:4327"]

$$$$
2f_Grossjean_2025
     RDKit          3D

 24 25  0  0  0  0  0  0  0  0999 V2000
  135.0940  125.4570   66.8510 C   0  0  0  0  0  0  0  0  0  0  0  0
  133.7380  125.4740   66.1710 C   0  0  0  0  0  0  0  0  0  0  0  0
  132.5820  125.8400   66.8570 C   0  0  0  0  0  0  0  0  0  0  0  0
  131.3490  125.8320   66.1870 C   0  0  0  0  0  0  0  0  0  0  0  0
  130.0810  126.2270   66.9660 C   0  0  0  0  0  0  0  0  0  0  0  0
  129.4830  125.1380   67.4530 F   0  0  0  0  0  0  0  0  0  0  0  0
  130.4020  127.0320   67.9800 F   0  0  0  0  0  0  0  0  0  0  0  0
  129.1870  126.8690   66.2110 F   0  0  0  0  0  0  0  0  0  0  0  0
  131.3240  125.4560   64.8190 C   0  0  0  0  0  0  0  0  0  0  0  0
  130.0550  125.3770   64.0910 C   0  0  0  0  0  0  0  0  0  0  0  0
  129.0520  125.3160   63.5160 N   0  0  0  0  0  0  0  0  0  0  0  0
  132.5510  125.1260   64.1970 C   0  0  0  0  0  0  0  0  0  0  0  0
  132.7080  124.6440   62.4890 S   0  0  0  0  0  0  0  0  0  0  0  0
  134.1860  123.5850   62.3320 C   0  0  0  0  0  0  0  0  0  0  0  0
  133.8990  122.0860   62.1620 C   0  0  0  0  0  0  0  0  0  0  0  0
  134.7540  121.2470   62.4470 O   0  0  0  0  0  0  0  0  0  0  0  0
  132.6740  121.8030   61.6700 N   0  0  0  0  0  0  0  0  0  0  0  0
  132.0840  120.5530   61.4010 C   0  0  0  0  0  0  0  0  0  0  0  0
  130.7380  120.2190   61.6350 C   0  0  0  0  0  0  0  0  0  0  0  0
  130.2780  118.9390   61.3170 C   0  0  0  0  0  0  0  0  0  0  0  0
  131.1770  118.0240   60.7690 C   0  0  0  0  0  0  0  0  0  0  0  0
  132.4780  118.3240   60.5260 N   0  0  0  0  0  0  0  0  0  0  0  0
  132.9100  119.5730   60.8400 C   0  0  0  0  0  0  0  0  0  0  0  0
  133.7290  125.1170   64.8670 N   0  0  0  0  0  0  0  0  0  0  0  0
  1  2  1  0
  2  3  2  0
  3  4  1  0
  4  5  1  0
  5  6  1  0
  5  7  1  0
  5  8  1  0
  4  9  2  0
  9 10  1  0
 10 11  3  0
  9 12  1  0
 12 13  1  0
 13 14  1  0
 14 15  1  0
 15 16  2  0
 15 17  1  0
 17 18  1  0
 18 19  2  0
 19 20  1  0
 20 21  2  0
 21 22  1  0
 22 23  2  0
 12 24  2  0
 24  2  1  0
 23 18  1  0
M  END
>  <Binding energies>  (22) 
[-6.91]

>  <Ligand effiencies>  (22) 
[-0.2764]

>  <Interactions>  (22) 
["V-A:ILE:369:CG2:3236, V-B:ALA:541:CB:9864, V-A:ARG:545:CZ:4926, V-A:GLY:454:CA:4048, V-B:GLU:543:CG:9879, V-A:LEU:475:CD1:4257, V-A:GLU:543:CB:4906, V-A:ARG:545:CG:4922, V-A:GLU:543:CD:4908, V-A:TYR:484:CE2:4345, H-A:ARG:545:NE:4924, H-A:GLY:454:N:4049, V-B:GLU:543:CB:9878, V-A:HIS:456:CE1:4069, H-A:ARG:545:NH2:4928, V-A:TYR:484:CZ:4346, V-A:PRO:482:CG:4326, H-A:HIS:383:NE2:3393, H-A:SER:385:OG:3409, V-A:ARG:545:CD:4923, H-A:TYR:484:OH:4347, V-A:GLY:453:CA:4043, V-A:GLY:453:C:4041, V-A:ILE:369:CD1:3238, V-A:ILE:455:C:4051, V-A:PRO:482:CB:4325, V-A:ARG:545:CB:4921"]

$$$$
2g_Grossjean_2025
     RDKit          3D

 25 26  0  0  0  0  0  0  0  0999 V2000
  128.8280  122.4970   61.9320 C   0  0  0  0  0  0  0  0  0  0  0  0
  129.9960  121.6280   61.5070 C   0  0  0  0  0  0  0  0  0  0  0  0
  129.8500  120.2590   61.3000 C   0  0  0  0  0  0  0  0  0  0  0  0
  130.9630  119.4970   60.9140 C   0  0  0  0  0  0  0  0  0  0  0  0
  130.7840  117.9810   60.6990 C   0  0  0  0  0  0  0  0  0  0  0  0
  131.2730  117.6220   59.5100 F   0  0  0  0  0  0  0  0  0  0  0  0
  131.4310  117.3100   61.6530 F   0  0  0  0  0  0  0  0  0  0  0  0
  129.5050  117.6020   60.7350 F   0  0  0  0  0  0  0  0  0  0  0  0
  132.2080  120.1540   60.7370 C   0  0  0  0  0  0  0  0  0  0  0  0
  133.4130  119.3970   60.3900 C   0  0  0  0  0  0  0  0  0  0  0  0
  134.3640  118.7980   60.1160 N   0  0  0  0  0  0  0  0  0  0  0  0
  132.2540  121.5550   60.9400 C   0  0  0  0  0  0  0  0  0  0  0  0
  133.7240  122.5390   60.7370 S   0  0  0  0  0  0  0  0  0  0  0  0
  134.3120  122.9940   62.4040 C   0  0  0  0  0  0  0  0  0  0  0  0
  133.6810  124.2690   62.9820 C   0  0  0  0  0  0  0  0  0  0  0  0
  134.3290  125.0440   63.6870 O   0  0  0  0  0  0  0  0  0  0  0  0
  132.3870  124.4660   62.6680 N   0  0  0  0  0  0  0  0  0  0  0  0
  131.5750  125.6080   63.0920 C   0  0  0  0  0  0  0  0  0  0  0  0
  131.2550  125.6320   64.5830 C   0  0  0  0  0  0  0  0  0  0  0  0
  130.0800  125.0370   65.0520 C   0  0  0  0  0  0  0  0  0  0  0  0
  129.8040  125.0250   66.4180 C   0  0  0  0  0  0  0  0  0  0  0  0
  130.7070  125.5990   67.3090 C   0  0  0  0  0  0  0  0  0  0  0  0
  131.8860  126.1820   66.8480 C   0  0  0  0  0  0  0  0  0  0  0  0
  132.1630  126.1940   65.4840 C   0  0  0  0  0  0  0  0  0  0  0  0
  131.1730  122.2720   61.3350 N   0  0  0  0  0  0  0  0  0  0  0  0
  1  2  1  0
  2  3  2  0
  3  4  1  0
  4  5  1  0
  5  6  1  0
  5  7  1  0
  5  8  1  0
  4  9  2  0
  9 10  1  0
 10 11  3  0
  9 12  1  0
 12 13  1  0
 13 14  1  0
 14 15  1  0
 15 16  2  0
 15 17  1  0
 17 18  1  0
 18 19  1  0
 19 20  2  0
 20 21  1  0
 21 22  2  0
 22 23  1  0
 23 24  2  0
 12 25  2  0
 25  2  1  0
 24 19  1  0
M  END
>  <Binding energies>  (23) 
[-6.39]

>  <Ligand effiencies>  (23) 
[-0.24576923076923077]

>  <Interactions>  (23) 
["V-A:ILE:369:CG2:3236, V-B:TYR:539:CD2:9846, V-B:TYR:539:C:9839, V-B:ALA:541:CB:9864, V-A:ARG:545:CZ:4926, V-A:GLY:454:CA:4048, V-B:GLU:543:CG:9879, V-B:GLU:543:CD:9880, V-A:LEU:475:CD1:4257, V-A:GLU:543:CD:4908, V-A:TYR:484:CE2:4345, H-A:GLY:454:N:4049, V-B:GLU:543:CB:9878, V-A:HIS:456:CE1:4069, H-A:ARG:545:NH1:4927, H-A:ARG:545:NH2:4928, V-A:TYR:484:CZ:4346, V-A:PRO:482:CG:4326, H-A:HIS:383:NE2:3393, H-A:SER:385:OG:3409, V-A:GLY:453:C:4041, V-A:ILE:369:CD1:3238, V-B:TYR:539:CG:9844, V-B:PRO:540:C:9853, V-B:TYR:539:CB:9843, V-B:ALA:541:CA:9862, V-A:PRO:482:CB:4325, V-A:HIS:383:CE1:3392, V-A:HIS:383:CD2:3391, V-A:PRO:482:CD:4327"]

$$$$
2h_Grossjean_2025
     RDKit          3D

 31 32  0  0  0  0  0  0  0  0999 V2000
  131.7140  127.2880   67.6320 C   0  0  0  0  0  0  0  0  0  0  0  0
  132.3160  126.9130   66.3980 O   0  0  0  0  0  0  0  0  0  0  0  0
  131.8080  125.8350   65.6950 C   0  0  0  0  0  0  0  0  0  0  0  0
  130.4420  125.5180   65.6250 C   0  0  0  0  0  0  0  0  0  0  0  0
  130.0050  124.4190   64.8890 C   0  0  0  0  0  0  0  0  0  0  0  0
  130.9190  123.6130   64.2080 C   0  0  0  0  0  0  0  0  0  0  0  0
  130.4140  122.4250   63.3910 C   0  0  0  0  0  0  0  0  0  0  0  0
  129.6000  122.8100   62.2380 N   0  0  0  0  0  0  0  0  0  0  0  0
  128.2560  122.8460   62.2210 C   0  0  0  0  0  0  0  0  0  0  0  0
  127.5580  122.4740   63.1670 O   0  0  0  0  0  0  0  0  0  0  0  0
  127.6240  123.3960   60.9350 C   0  0  0  0  0  0  0  0  0  0  0  0
  128.1700  122.5790   59.3980 S   0  0  0  0  0  0  0  0  0  0  0  0
  129.9300  122.3560   59.5310 C   0  0  0  0  0  0  0  0  0  0  0  0
  130.2890  121.2640   60.2500 N   0  0  0  0  0  0  0  0  0  0  0  0
  131.6040  121.0100   60.4300 C   0  0  0  0  0  0  0  0  0  0  0  0
  131.9310  119.7770   61.2510 C   0  0  0  0  0  0  0  0  0  0  0  0
  132.6060  121.8220   59.9020 C   0  0  0  0  0  0  0  0  0  0  0  0
  132.2540  122.9450   59.1370 C   0  0  0  0  0  0  0  0  0  0  0  0
  133.3770  123.8250   58.5530 C   0  0  0  0  0  0  0  0  0  0  0  0
  133.5710  123.5220   57.2700 F   0  0  0  0  0  0  0  0  0  0  0  0
  133.0970  125.1290   58.6190 F   0  0  0  0  0  0  0  0  0  0  0  0
  134.5120  123.6230   59.2220 F   0  0  0  0  0  0  0  0  0  0  0  0
  130.8780  123.2200   58.9330 C   0  0  0  0  0  0  0  0  0  0  0  0
  130.4590  124.3460   58.0940 C   0  0  0  0  0  0  0  0  0  0  0  0
  130.1310  125.2340   57.4280 N   0  0  0  0  0  0  0  0  0  0  0  0
  132.2890  123.9040   64.2890 C   0  0  0  0  0  0  0  0  0  0  0  0
  133.1960  123.1130   63.6230 O   0  0  0  0  0  0  0  0  0  0  0  0
  133.7670  123.7180   62.4710 C   0  0  0  0  0  0  0  0  0  0  0  0
  132.7270  125.0240   65.0150 C   0  0  0  0  0  0  0  0  0  0  0  0
  134.0670  125.3220   65.0810 O   0  0  0  0  0  0  0  0  0  0  0  0
  134.6110  125.2690   66.3930 C   0  0  0  0  0  0  0  0  0  0  0  0
  1  2  1  0
  2  3  1  0
  3  4  2  0
  4  5  1  0
  5  6  2  0
  6  7  1  0
  7  8  1  0
  8  9  1  0
  9 10  2  0
  9 11  1  0
 11 12  1  0
 12 13  1  0
 13 14  2  0
 14 15  1  0
 15 16  1  0
 15 17  2  0
 17 18  1  0
 18 19  1  0
 19 20  1  0
 19 21  1  0
 19 22  1  0
 18 23  2  0
 23 24  1  0
 24 25  3  0
  6 26  1  0
 26 27  1  0
 27 28  1  0
 26 29  2  0
 29 30  1  0
 30 31  1  0
 29  3  1  0
 23 13  1  0
M  END
>  <Binding energies>  (24) 
[-5.55]

>  <Ligand effiencies>  (24) 
[-0.1734375]

>  <Interactions>  (24) 
["V-A:ILE:369:CG2:3236, H-B:ALA:541:N:9863, V-A:ASP:366:CG:3212, V-B:TYR:539:CD2:9846, V-B:PRO:540:CA:9855, V-B:TYR:539:CE2:9848, V-B:TYR:539:CZ:9849, V-B:ALA:541:CB:9864, V-A:ARG:545:CZ:4926, V-A:GLY:454:CA:4048, V-B:GLU:543:CG:9879, V-B:GLU:543:CD:9880, V-A:LEU:475:CD1:4257, V-A:GLU:543:CB:4906, V-A:ARG:545:CG:4922, V-A:GLU:543:CD:4908, H-A:ARG:545:NE:4924, H-A:GLY:454:N:4049, V-A:HIS:456:CE1:4069, H-A:ARG:545:NH1:4927, H-A:ARG:545:NH2:4928, V-A:ARG:545:CD:4923, H-A:TYR:484:OH:4347, V-A:ASP:366:CB:3211, V-A:GLY:453:CA:4043, V-A:GLY:453:C:4041, V-A:ILE:369:CD1:3238, V-A:ASP:366:C:3207, H-B:TYR:539:OH:9850, V-A:ASP:366:CA:3209, V-A:ILE:369:CB:3235, V-A:ASN:370:CB:3244, V-A:ILE:369:CG1:3237, V-A:ILE:369:C:3231, V-A:ASN:370:CA:3242"]

$$$$
2i_Grossjean_2025
     RDKit          3D

 23 24  0  0  0  0  0  0  0  0999 V2000
  134.5490  124.1890   61.9930 C   0  0  0  0  0  0  0  0  0  0  0  0
  133.1290  123.6720   61.8570 C   0  0  0  0  0  0  0  0  0  0  0  0
  132.8600  122.3190   61.6650 C   0  0  0  0  0  0  0  0  0  0  0  0
  131.5300  121.8900   61.5480 C   0  0  0  0  0  0  0  0  0  0  0  0
  131.2510  120.3900   61.3340 C   0  0  0  0  0  0  0  0  0  0  0  0
  130.4920  119.9220   62.3260 F   0  0  0  0  0  0  0  0  0  0  0  0
  130.6140  120.2030   60.1770 F   0  0  0  0  0  0  0  0  0  0  0  0
  132.3660  119.6570   61.3010 F   0  0  0  0  0  0  0  0  0  0  0  0
  130.4970  122.8580   61.6300 C   0  0  0  0  0  0  0  0  0  0  0  0
  129.0890  122.4650   61.5160 C   0  0  0  0  0  0  0  0  0  0  0  0
  127.9770  122.1550   61.4250 N   0  0  0  0  0  0  0  0  0  0  0  0
  130.8600  124.2110   61.8250 C   0  0  0  0  0  0  0  0  0  0  0  0
  129.6460  125.5160   61.9360 S   0  0  0  0  0  0  0  0  0  0  0  0
  129.3650  125.8780   63.6960 C   0  0  0  0  0  0  0  0  0  0  0  0
  130.4370  125.2570   64.5940 C   0  0  0  0  0  0  0  0  0  0  0  0
  130.2690  124.1140   65.0240 O   0  0  0  0  0  0  0  0  0  0  0  0
  131.4990  126.0430   64.8710 N   0  0  0  0  0  0  0  0  0  0  0  0
  132.5830  125.7170   65.6690 C   0  0  0  0  0  0  0  0  0  0  0  0
  132.7950  125.9340   67.0380 C   0  0  0  0  0  0  0  0  0  0  0  0
  134.0390  125.4030   67.2880 C   0  0  0  0  0  0  0  0  0  0  0  0
  134.5410  124.8900   66.1390 O   0  0  0  0  0  0  0  0  0  0  0  0
  133.6040  125.0920   65.1240 N   0  0  0  0  0  0  0  0  0  0  0  0
  132.1540  124.6050   61.9370 N   0  0  0  0  0  0  0  0  0  0  0  0
  1  2  1  0
  2  3  2  0
  3  4  1  0
  4  5  1  0
  5  6  1  0
  5  7  1  0
  5  8  1  0
  4  9  2  0
  9 10  1  0
 10 11  3  0
  9 12  1  0
 12 13  1  0
 13 14  1  0
 14 15  1  0
 15 16  2  0
 15 17  1  0
 17 18  1  0
 18 19  1  0
 19 20  2  0
 20 21  1  0
 21 22  1  0
 12 23  2  0
 23  2  1  0
 22 18  2  0
M  END
>  <Binding energies>  (25) 
[-6.18]

>  <Ligand effiencies>  (25) 
[-0.2575]

>  <Interactions>  (25) 
["H-B:ALA:541:N:9863, V-A:ASP:366:CG:3212, V-B:TYR:539:CD2:9846, V-B:TYR:539:C:9839, V-B:TYR:539:CE2:9848, V-B:ALA:541:CB:9864, V-A:ARG:545:CZ:4926, V-B:GLU:543:CD:9880, V-A:LEU:475:CD1:4257, V-A:ARG:545:CG:4922, V-A:GLU:543:CD:4908, H-A:GLU:543:OE2:4910, H-A:ARG:545:NE:4924, H-A:GLY:454:N:4049, H-A:GLU:543:OE1:4909, V-A:HIS:456:CE1:4069, H-A:ARG:545:NH2:4928, V-A:TYR:484:CZ:4346, V-A:ARG:545:CD:4923, H-A:TYR:484:OH:4347, V-A:GLY:453:CA:4043, V-A:GLY:453:C:4041, V-A:ILE:369:CD1:3238, V-A:ILE:455:C:4051, H-A:ILE:455:N:4054, V-B:ALA:541:CA:9862"]

$$$$
2k_Grossjean_2025
     RDKit          3D

 28 28  0  0  0  0  0  0  0  0999 V2000
  128.4000  122.5090   60.0200 C   0  0  0  0  0  0  0  0  0  0  0  0
  127.8480  122.1390   61.2740 O   0  0  0  0  0  0  0  0  0  0  0  0
  127.9760  123.1480   62.2680 C   0  0  0  0  0  0  0  0  0  0  0  0
  129.1830  122.8400   63.1650 C   0  0  0  0  0  0  0  0  0  0  0  0
  130.2920  122.4970   62.3470 O   0  0  0  0  0  0  0  0  0  0  0  0
  131.0070  121.3480   62.7860 C   0  0  0  0  0  0  0  0  0  0  0  0
  130.5010  120.1320   61.9990 C   0  0  0  0  0  0  0  0  0  0  0  0
  131.2770  120.0260   60.8160 O   0  0  0  0  0  0  0  0  0  0  0  0
  131.8200  118.7380   60.5630 C   0  0  0  0  0  0  0  0  0  0  0  0
  133.3520  118.8550   60.4520 C   0  0  0  0  0  0  0  0  0  0  0  0
  133.9210  119.8260   61.3900 N   0  0  0  0  0  0  0  0  0  0  0  0
  133.9210  121.1630   61.2280 C   0  0  0  0  0  0  0  0  0  0  0  0
  133.4040  121.7290   60.2630 O   0  0  0  0  0  0  0  0  0  0  0  0
  134.6360  121.9670   62.3250 C   0  0  0  0  0  0  0  0  0  0  0  0
  134.7500  123.7650   62.0290 S   0  0  0  0  0  0  0  0  0  0  0  0
  133.5860  124.6170   63.0850 C   0  0  0  0  0  0  0  0  0  0  0  0
  133.9570  124.7480   64.3850 N   0  0  0  0  0  0  0  0  0  0  0  0
  133.1230  125.3770   65.2420 C   0  0  0  0  0  0  0  0  0  0  0  0
  133.6040  125.4720   66.6770 C   0  0  0  0  0  0  0  0  0  0  0  0
  131.9000  125.9100   64.8450 C   0  0  0  0  0  0  0  0  0  0  0  0
  131.4990  125.7930   63.5050 C   0  0  0  0  0  0  0  0  0  0  0  0
  130.1450  126.3930   63.0820 C   0  0  0  0  0  0  0  0  0  0  0  0
  129.3220  126.5900   64.1130 F   0  0  0  0  0  0  0  0  0  0  0  0
  130.3330  127.5730   62.4890 F   0  0  0  0  0  0  0  0  0  0  0  0
  129.5300  125.5740   62.2280 F   0  0  0  0  0  0  0  0  0  0  0  0
  132.3610  125.1280   62.5960 C   0  0  0  0  0  0  0  0  0  0  0  0
  131.9910  124.9750   61.1850 C   0  0  0  0  0  0  0  0  0  0  0  0
  131.6990  124.8540   60.0720 N   0  0  0  0  0  0  0  0  0  0  0  0
  1  2  1  0
  2  3  1  0
  3  4  1  0
  4  5  1  0
  5  6  1  0
  6  7  1  0
  7  8  1  0
  8  9  1  0
  9 10  1  0
 10 11  1  0
 11 12  1  0
 12 13  2  0
 12 14  1  0
 14 15  1  0
 15 16  1  0
 16 17  2  0
 17 18  1  0
 18 19  1  0
 18 20  2  0
 20 21  1  0
 21 22  1  0
 22 23  1  0
 22 24  1  0
 22 25  1  0
 21 26  2  0
 26 27  1  0
 27 28  3  0
 26 16  1  0
M  END
>  <Binding energies>  (26) 
[-4.85]

>  <Ligand effiencies>  (26) 
[-0.16724137931034483]

>  <Interactions>  (26) 
["V-A:ILE:369:CG2:3236, H-B:ALA:541:N:9863, V-A:ASP:366:CG:3212, V-B:TYR:539:CD2:9846, V-A:SER:385:C:3404, V-A:SER:385:CA:3406, V-B:PRO:540:CA:9855, V-B:ALA:541:CB:9864, V-A:ARG:545:CZ:4926, V-A:GLY:454:CA:4048, V-B:GLU:543:CG:9879, V-B:GLU:543:CD:9880, V-A:LEU:475:CD1:4257, V-A:ARG:545:CG:4922, V-A:GLU:543:CD:4908, H-A:GLY:454:N:4049, H-A:ARG:545:NH2:4928, V-A:TYR:484:CZ:4346, H-A:SER:385:OG:3409, H-A:SER:385:O:3405, V-A:ARG:545:CD:4923, H-A:TYR:484:OH:4347, V-A:GLY:453:C:4041, V-A:ILE:369:CD1:3238, V-A:HIS:383:CD2:3391"]

$$$$
3aa_Grossjean_2025
     RDKit          3D

 34 36  0  0  0  0  0  0  0  0999 V2000
  131.7590  127.3400   67.6280 C   0  0  0  0  0  0  0  0  0  0  0  0
  131.4960  126.1590   66.6890 C   0  0  0  0  0  0  0  0  0  0  0  0
  132.7290  125.5350   66.3550 O   0  0  0  0  0  0  0  0  0  0  0  0
  133.0280  125.2210   65.0680 C   0  0  0  0  0  0  0  0  0  0  0  0
  134.1820  125.1220   64.6420 O   0  0  0  0  0  0  0  0  0  0  0  0
  131.8120  125.0230   64.2080 C   0  0  0  0  0  0  0  0  0  0  0  0
  131.1380  123.7940   64.1460 C   0  0  0  0  0  0  0  0  0  0  0  0
  130.0110  123.6460   63.3410 C   0  0  0  0  0  0  0  0  0  0  0  0
  129.5320  124.7200   62.5900 C   0  0  0  0  0  0  0  0  0  0  0  0
  128.3840  124.4650   61.8140 N   0  0  0  0  0  0  0  0  0  0  0  0
  127.5060  123.4400   61.8860 C   0  0  0  0  0  0  0  0  0  0  0  0
  127.5770  122.4920   62.6700 O   0  0  0  0  0  0  0  0  0  0  0  0
  126.3500  123.4910   60.8870 C   0  0  0  0  0  0  0  0  0  0  0  0
  126.9150  123.1870   59.1850 S   0  0  0  0  0  0  0  0  0  0  0  0
  128.6930  123.1500   59.2250 C   0  0  0  0  0  0  0  0  0  0  0  0
  129.2000  122.0310   59.7960 N   0  0  0  0  0  0  0  0  0  0  0  0
  130.5450  121.8750   59.8930 C   0  0  0  0  0  0  0  0  0  0  0  0
  131.0280  120.6050   60.5240 C   0  0  0  0  0  0  0  0  0  0  0  0
  130.2000  119.8800   61.3970 C   0  0  0  0  0  0  0  0  0  0  0  0
  130.6410  118.6980   61.9870 C   0  0  0  0  0  0  0  0  0  0  0  0
  131.9190  118.2250   61.7110 C   0  0  0  0  0  0  0  0  0  0  0  0
  132.7580  118.9220   60.8480 C   0  0  0  0  0  0  0  0  0  0  0  0
  132.3140  120.1020   60.2580 C   0  0  0  0  0  0  0  0  0  0  0  0
  131.4190  122.8510   59.4030 C   0  0  0  0  0  0  0  0  0  0  0  0
  130.9170  124.0270   58.8220 C   0  0  0  0  0  0  0  0  0  0  0  0
  131.9110  125.0830   58.3050 C   0  0  0  0  0  0  0  0  0  0  0  0
  133.1850  124.7200   58.4690 F   0  0  0  0  0  0  0  0  0  0  0  0
  131.7220  125.2930   57.0020 F   0  0  0  0  0  0  0  0  0  0  0  0
  131.7330  126.2320   58.9570 F   0  0  0  0  0  0  0  0  0  0  0  0
  129.5130  124.1920   58.7390 C   0  0  0  0  0  0  0  0  0  0  0  0
  128.9320  125.4230   58.1950 C   0  0  0  0  0  0  0  0  0  0  0  0
  128.4740  126.3960   57.7670 N   0  0  0  0  0  0  0  0  0  0  0  0
  130.2080  125.9480   62.6380 C   0  0  0  0  0  0  0  0  0  0  0  0
  131.3350  126.0940   63.4400 C   0  0  0  0  0  0  0  0  0  0  0  0
  1  2  1  0
  2  3  1  0
  3  4  1  0
  4  5  2  0
  4  6  1  0
  6  7  2  0
  7  8  1  0
  8  9  2  0
  9 10  1  0
 10 11  1  0
 11 12  2  0
 11 13  1  0
 13 14  1  0
 14 15  1  0
 15 16  2  0
 16 17  1  0
 17 18  1  0
 18 19  2  0
 19 20  1  0
 20 21  2  0
 21 22  1  0
 22 23  2  0
 17 24  2  0
 24 25  1  0
 25 26  1  0
 26 27  1  0
 26 28  1  0
 26 29  1  0
 25 30  2  0
 30 31  1  0
 31 32  3  0
  9 33  1  0
 33 34  2  0
 34  6  1  0
 30 15  1  0
 23 18  1  0
M  END
>  <Binding energies>  (27) 
[-7.45]

>  <Ligand effiencies>  (27) 
[-0.21285714285714286]

>  <Interactions>  (27) 
["V-B:PRO:540:CB:9857, V-A:ILE:369:CG2:3236, H-B:ALA:541:N:9863, V-A:ASP:366:CG:3212, V-B:TYR:539:CD2:9846, V-B:PRO:540:CA:9855, V-B:TYR:539:CE2:9848, V-B:TYR:539:CZ:9849, V-B:ALA:541:CB:9864, V-A:ARG:545:CZ:4926, V-B:GLU:543:CD:9880, V-A:LEU:475:CD1:4257, V-A:GLU:543:CB:4906, V-A:ARG:545:CG:4922, V-A:GLU:543:CD:4908, H-A:ARG:545:NE:4924, H-A:GLY:454:N:4049, V-A:HIS:456:CE1:4069, H-B:TYR:531:OH:9767, H-A:ARG:545:NH1:4927, H-A:ARG:545:NH2:4928, V-A:PRO:482:CG:4326, H-A:TYR:484:OH:4347, V-A:ASP:366:CB:3211, V-A:PRO:482:CB:4325, V-A:ASP:366:C:3207, V-A:ASP:366:CA:3209"]

$$$$
3ad_Grossjean_2025
     RDKit          3D

 29 31  0  0  0  0  0  0  0  0999 V2000
  134.2970  118.8040   60.8350 N   0  0  0  0  0  0  0  0  0  0  0  0
  133.3900  119.5060   60.9850 C   0  0  0  0  0  0  0  0  0  0  0  0
  132.2380  120.3930   61.1740 C   0  0  0  0  0  0  0  0  0  0  0  0
  130.9170  119.8840   61.1270 C   0  0  0  0  0  0  0  0  0  0  0  0
  130.6080  118.3890   60.9230 C   0  0  0  0  0  0  0  0  0  0  0  0
  130.8950  117.9630   59.6920 F   0  0  0  0  0  0  0  0  0  0  0  0
  131.3230  117.6560   61.7800 F   0  0  0  0  0  0  0  0  0  0  0  0
  129.3110  118.1560   61.1330 F   0  0  0  0  0  0  0  0  0  0  0  0
  129.8480  120.7830   61.2670 C   0  0  0  0  0  0  0  0  0  0  0  0
  130.0900  122.1490   61.4460 C   0  0  0  0  0  0  0  0  0  0  0  0
  128.9860  123.1540   61.5860 C   0  0  0  0  0  0  0  0  0  0  0  0
  129.2500  124.4480   62.0600 C   0  0  0  0  0  0  0  0  0  0  0  0
  128.2300  125.3860   62.1920 C   0  0  0  0  0  0  0  0  0  0  0  0
  126.9260  125.0400   61.8490 C   0  0  0  0  0  0  0  0  0  0  0  0
  126.6380  123.7650   61.3740 C   0  0  0  0  0  0  0  0  0  0  0  0
  127.6620  122.8300   61.2440 C   0  0  0  0  0  0  0  0  0  0  0  0
  131.3580  122.6320   61.4840 N   0  0  0  0  0  0  0  0  0  0  0  0
  132.4060  121.7820   61.3720 C   0  0  0  0  0  0  0  0  0  0  0  0
  133.9900  122.5870   61.4560 S   0  0  0  0  0  0  0  0  0  0  0  0
  133.6800  124.3680   61.6530 C   0  0  0  0  0  0  0  0  0  0  0  0
  133.4120  124.7510   63.1100 C   0  0  0  0  0  0  0  0  0  0  0  0
  134.3580  125.0740   63.8280 O   0  0  0  0  0  0  0  0  0  0  0  0
  132.1180  124.6980   63.4930 N   0  0  0  0  0  0  0  0  0  0  0  0
  131.5350  124.9950   64.7390 C   0  0  0  0  0  0  0  0  0  0  0  0
  132.2750  125.8450   65.5670 C   0  0  0  0  0  0  0  0  0  0  0  0
  131.7910  126.1990   66.8230 C   0  0  0  0  0  0  0  0  0  0  0  0
  130.5670  125.7000   67.2570 C   0  0  0  0  0  0  0  0  0  0  0  0
  129.8230  124.8470   66.4460 C   0  0  0  0  0  0  0  0  0  0  0  0
  130.3030  124.4890   65.1890 C   0  0  0  0  0  0  0  0  0  0  0  0
  1  2  3  0
  2  3  1  0
  3  4  2  0
  4  5  1  0
  5  6  1  0
  5  7  1  0
  5  8  1  0
  4  9  1  0
  9 10  2  0
 10 11  1  0
 11 12  2  0
 12 13  1  0
 13 14  2  0
 14 15  1  0
 15 16  2  0
 10 17  1  0
 17 18  2  0
 18 19  1  0
 19 20  1  0
 20 21  1  0
 21 22  2  0
 21 23  1  0
 23 24  1  0
 24 25  2  0
 25 26  1  0
 26 27  2  0
 27 28  1  0
 28 29  2  0
 18  3  1  0
 29 24  1  0
 16 11  1  0
M  END
>  <Binding energies>  (28) 
[-7.46]

>  <Ligand effiencies>  (28) 
[-0.24866666666666667]

>  <Interactions>  (28) 
["V-A:ILE:369:CG2:3236, V-A:ASP:366:CG:3212, V-B:TYR:539:CD2:9846, V-B:PRO:540:CA:9855, V-B:TYR:539:C:9839, V-B:ALA:541:CB:9864, V-A:ARG:545:CZ:4926, V-B:GLU:543:CG:9879, V-B:GLU:543:CD:9880, V-A:LEU:475:CD1:4257, V-A:TYR:484:CE2:4345, H-A:ARG:545:NE:4924, H-A:GLY:454:N:4049, V-B:GLU:543:CB:9878, V-A:HIS:456:CE1:4069, H-A:ARG:545:NH1:4927, H-A:ARG:545:NH2:4928, V-A:TYR:484:CZ:4346, V-A:PRO:482:CG:4326, H-A:HIS:383:NE2:3393, H-A:SER:385:OG:3409, V-B:TYR:539:CG:9844, V-B:PRO:540:C:9853, V-B:TYR:539:CB:9843, V-B:ALA:541:CA:9862, V-A:PRO:482:CB:4325, V-A:PRO:482:CD:4327"]

$$$$
3ai_Grossjean_2025
     RDKit          3D

 28 30  0  0  0  0  0  0  0  0999 V2000
  134.6600  119.7990   60.8440 N   0  0  0  0  0  0  0  0  0  0  0  0
  133.5920  120.2380   60.7640 C   0  0  0  0  0  0  0  0  0  0  0  0
  132.2390  120.7950   60.6650 C   0  0  0  0  0  0  0  0  0  0  0  0
  131.1130  120.0370   61.0700 C   0  0  0  0  0  0  0  0  0  0  0  0
  131.2350  118.6240   61.6730 C   0  0  0  0  0  0  0  0  0  0  0  0
  132.4890  118.3080   62.0020 F   0  0  0  0  0  0  0  0  0  0  0  0
  130.4950  118.5360   62.7790 F   0  0  0  0  0  0  0  0  0  0  0  0
  130.8120  117.7130   60.7960 F   0  0  0  0  0  0  0  0  0  0  0  0
  129.8360  120.5960   60.9110 C   0  0  0  0  0  0  0  0  0  0  0  0
  129.6860  121.8730   60.3600 C   0  0  0  0  0  0  0  0  0  0  0  0
  128.3470  122.5140   60.1560 C   0  0  0  0  0  0  0  0  0  0  0  0
  127.5490  122.8720   61.2550 C   0  0  0  0  0  0  0  0  0  0  0  0
  126.3060  123.4720   61.0740 C   0  0  0  0  0  0  0  0  0  0  0  0
  125.8430  123.7240   59.7870 C   0  0  0  0  0  0  0  0  0  0  0  0
  126.6140  123.3810   58.6820 C   0  0  0  0  0  0  0  0  0  0  0  0
  127.8570  122.7820   58.8670 C   0  0  0  0  0  0  0  0  0  0  0  0
  130.7680  122.5920   59.9650 N   0  0  0  0  0  0  0  0  0  0  0  0
  132.0130  122.0840   60.1310 C   0  0  0  0  0  0  0  0  0  0  0  0
  133.3050  123.1770   59.5780 S   0  0  0  0  0  0  0  0  0  0  0  0
  134.4560  123.4330   60.9700 C   0  0  0  0  0  0  0  0  0  0  0  0
  133.7920  123.5290   62.3520 C   0  0  0  0  0  0  0  0  0  0  0  0
  133.2620  122.5410   62.8660 O   0  0  0  0  0  0  0  0  0  0  0  0
  133.8460  124.7550   62.9200 N   0  0  0  0  0  0  0  0  0  0  0  0
  133.3390  125.1320   64.1560 C   0  0  0  0  0  0  0  0  0  0  0  0
  132.0320  125.5810   64.3400 C   0  0  0  0  0  0  0  0  0  0  0  0
  131.9300  125.8500   65.6850 C   0  0  0  0  0  0  0  0  0  0  0  0
  133.1150  125.5780   66.2820 O   0  0  0  0  0  0  0  0  0  0  0  0
  133.9990  125.1220   65.3030 N   0  0  0  0  0  0  0  0  0  0  0  0
  1  2  3  0
  2  3  1  0
  3  4  2  0
  4  5  1  0
  5  6  1  0
  5  7  1  0
  5  8  1  0
  4  9  1  0
  9 10  2  0
 10 11  1  0
 11 12  2  0
 12 13  1  0
 13 14  2  0
 14 15  1  0
 15 16  2  0
 10 17  1  0
 17 18  2  0
 18 19  1  0
 19 20  1  0
 20 21  1  0
 21 22  2  0
 21 23  1  0
 23 24  1  0
 24 25  1  0
 25 26  2  0
 26 27  1  0
 27 28  1  0
 18  3  1  0
 28 24  2  0
 16 11  1  0
M  END
>  <Binding energies>  (29) 
[-7.59]

>  <Ligand effiencies>  (29) 
[-0.2617241379310345]

>  <Interactions>  (29) 
["V-B:PRO:540:CB:9857, V-A:ILE:369:CG2:3236, V-A:ASP:366:CG:3212, V-B:TYR:539:CD2:9846, V-A:SER:385:CB:3408, V-B:PRO:540:CA:9855, V-B:TYR:539:C:9839, V-B:TYR:539:CE2:9848, V-B:PRO:540:N:9856, V-B:ALA:541:CB:9864, V-A:ARG:545:CZ:4926, V-A:LEU:475:CD1:4257, H-A:ARG:545:NE:4924, H-A:GLY:454:N:4049, H-A:ARG:545:NH2:4928, V-A:PRO:482:CG:4326, H-A:TYR:484:OH:4347, H-A:ASP:366:OD2:3214, V-A:GLY:453:CA:4043, V-A:ILE:369:CD1:3238, H-A:ASP:366:OD1:3213, V-B:PRO:540:C:9853, V-B:ALA:541:CA:9862, V-A:PRO:482:CB:4325, V-A:ILE:369:CB:3235, V-A:LEU:475:CD2:4258, V-A:LEU:475:CG:4256"]

$$$$
3aj_Grossjean_2025
     RDKit          3D

 28 30  0  0  0  0  0  0  0  0999 V2000
  134.3510  119.0800   60.8860 N   0  0  0  0  0  0  0  0  0  0  0  0
  133.4210  119.7580   61.0060 C   0  0  0  0  0  0  0  0  0  0  0  0
  132.2420  120.6150   61.1590 C   0  0  0  0  0  0  0  0  0  0  0  0
  130.9400  120.0580   61.1810 C   0  0  0  0  0  0  0  0  0  0  0  0
  130.6840  118.5410   61.0930 C   0  0  0  0  0  0  0  0  0  0  0  0
  131.3720  117.8450   62.0010 F   0  0  0  0  0  0  0  0  0  0  0  0
  129.3890  118.2850   61.2850 F   0  0  0  0  0  0  0  0  0  0  0  0
  131.0400  118.0870   59.8900 F   0  0  0  0  0  0  0  0  0  0  0  0
  129.8410  120.9250   61.2820 C   0  0  0  0  0  0  0  0  0  0  0  0
  130.0360  122.3080   61.3540 C   0  0  0  0  0  0  0  0  0  0  0  0
  128.8990  123.2790   61.4530 C   0  0  0  0  0  0  0  0  0  0  0  0
  127.5820  122.8670   61.1980 C   0  0  0  0  0  0  0  0  0  0  0  0
  126.5190  123.7630   61.2920 C   0  0  0  0  0  0  0  0  0  0  0  0
  126.7630  125.0870   61.6420 C   0  0  0  0  0  0  0  0  0  0  0  0
  128.0590  125.5200   61.9010 C   0  0  0  0  0  0  0  0  0  0  0  0
  129.1170  124.6210   61.8070 C   0  0  0  0  0  0  0  0  0  0  0  0
  131.2860  122.8380   61.3250 N   0  0  0  0  0  0  0  0  0  0  0  0
  132.3630  122.0210   61.2520 C   0  0  0  0  0  0  0  0  0  0  0  0
  133.9160  122.8910   61.2480 S   0  0  0  0  0  0  0  0  0  0  0  0
  133.5980  124.6050   61.7900 C   0  0  0  0  0  0  0  0  0  0  0  0
  133.1520  124.7510   63.2520 C   0  0  0  0  0  0  0  0  0  0  0  0
  133.9810  124.8970   64.1540 O   0  0  0  0  0  0  0  0  0  0  0  0
  131.8140  124.7070   63.4410 N   0  0  0  0  0  0  0  0  0  0  0  0
  131.1430  124.8200   64.6520 C   0  0  0  0  0  0  0  0  0  0  0  0
  130.0260  124.2270   65.0150 N   0  0  0  0  0  0  0  0  0  0  0  0
  129.6760  124.5610   66.2410 C   0  0  0  0  0  0  0  0  0  0  0  0
  130.5210  125.4480   66.9030 C   0  0  0  0  0  0  0  0  0  0  0  0
  131.8410  125.8610   65.8510 S   0  0  0  0  0  0  0  0  0  0  0  0
  1  2  3  0
  2  3  1  0
  3  4  2  0
  4  5  1  0
  5  6  1  0
  5  7  1  0
  5  8  1  0
  4  9  1  0
  9 10  2  0
 10 11  1  0
 11 12  2  0
 12 13  1  0
 13 14  2  0
 14 15  1  0
 15 16  2  0
 10 17  1  0
 17 18  2  0
 18 19  1  0
 19 20  1  0
 20 21  1  0
 21 22  2  0
 21 23  1  0
 23 24  1  0
 24 25  2  0
 25 26  1  0
 26 27  2  0
 27 28  1  0
 18  3  1  0
 28 24  1  0
 16 11  1  0
M  END
>  <Binding energies>  (30) 
[-6.67]

>  <Ligand effiencies>  (30) 
[-0.23]

>  <Interactions>  (30) 
["V-A:ILE:369:CG2:3236, V-A:ASP:366:CG:3212, V-B:TYR:539:CD2:9846, V-B:PRO:540:CA:9855, V-B:TYR:539:C:9839, V-B:ALA:541:CB:9864, V-A:ARG:545:CZ:4926, V-B:GLU:543:CG:9879, V-B:GLU:543:CD:9880, V-A:LEU:475:CD1:4257, V-A:TYR:484:CE2:4345, H-A:GLY:454:N:4049, V-B:GLU:543:CB:9878, V-A:HIS:456:CE1:4069, H-A:ARG:545:NH1:4927, H-A:ARG:545:NH2:4928, V-A:TYR:484:CZ:4346, V-A:PRO:482:CG:4326, H-A:SER:385:OG:3409, H-A:TYR:484:OH:4347, V-B:TYR:539:CG:9844, V-B:PRO:540:C:9853, V-B:TYR:539:CB:9843, V-B:ALA:541:CA:9862, V-A:PRO:482:CB:4325, V-A:PRO:482:CD:4327"]

$$$$
3ak_Grossjean_2025
     RDKit          3D

 33 34  0  0  0  0  0  0  0  0999 V2000
  128.7100  126.8230   58.9010 C   0  0  0  0  0  0  0  0  0  0  0  0
  127.7020  125.9010   58.5180 O   0  0  0  0  0  0  0  0  0  0  0  0
  126.3860  126.4230   58.6330 C   0  0  0  0  0  0  0  0  0  0  0  0
  125.3770  125.2940   58.3920 C   0  0  0  0  0  0  0  0  0  0  0  0
  125.9180  124.3860   57.4380 O   0  0  0  0  0  0  0  0  0  0  0  0
  126.6020  123.2600   57.9800 C   0  0  0  0  0  0  0  0  0  0  0  0
  127.1250  122.2800   56.9140 C   0  0  0  0  0  0  0  0  0  0  0  0
  128.5220  122.0940   57.0960 O   0  0  0  0  0  0  0  0  0  0  0  0
  129.0430  122.7330   58.2540 C   0  0  0  0  0  0  0  0  0  0  0  0
  130.0280  123.8450   57.8510 C   0  0  0  0  0  0  0  0  0  0  0  0
  131.0730  124.0910   58.8460 N   0  0  0  0  0  0  0  0  0  0  0  0
  132.4000  124.1010   58.6130 C   0  0  0  0  0  0  0  0  0  0  0  0
  132.8810  123.9140   57.4950 O   0  0  0  0  0  0  0  0  0  0  0  0
  133.3570  124.3550   59.7900 C   0  0  0  0  0  0  0  0  0  0  0  0
  133.5150  123.0090   61.0210 S   0  0  0  0  0  0  0  0  0  0  0  0
  131.9610  122.1340   61.1170 C   0  0  0  0  0  0  0  0  0  0  0  0
  130.8550  122.9120   61.2190 N   0  0  0  0  0  0  0  0  0  0  0  0
  129.6280  122.3390   61.3030 C   0  0  0  0  0  0  0  0  0  0  0  0
  128.4600  123.2740   61.4130 C   0  0  0  0  0  0  0  0  0  0  0  0
  127.1560  122.8270   61.1550 C   0  0  0  0  0  0  0  0  0  0  0  0
  126.0680  123.6900   61.2580 C   0  0  0  0  0  0  0  0  0  0  0  0
  126.2710  125.0160   61.6250 C   0  0  0  0  0  0  0  0  0  0  0  0
  127.5530  125.4840   61.8890 C   0  0  0  0  0  0  0  0  0  0  0  0
  128.6390  124.6190   61.7850 C   0  0  0  0  0  0  0  0  0  0  0  0
  129.4820  120.9480   61.2700 C   0  0  0  0  0  0  0  0  0  0  0  0
  130.6090  120.1200   61.1630 C   0  0  0  0  0  0  0  0  0  0  0  0
  130.4090  118.5920   61.1320 C   0  0  0  0  0  0  0  0  0  0  0  0
  129.1220  118.2960   61.3150 F   0  0  0  0  0  0  0  0  0  0  0  0
  130.8010  118.1040   59.9540 F   0  0  0  0  0  0  0  0  0  0  0  0
  131.1050  117.9590   62.0790 F   0  0  0  0  0  0  0  0  0  0  0  0
  131.8870  120.7240   61.0850 C   0  0  0  0  0  0  0  0  0  0  0  0
  133.1010  119.9090   60.9730 C   0  0  0  0  0  0  0  0  0  0  0  0
  134.0590  119.2650   60.8850 N   0  0  0  0  0  0  0  0  0  0  0  0
  1  2  1  0
  2  3  1  0
  3  4  1  0
  4  5  1  0
  5  6  1  0
  6  7  1  0
  7  8  1  0
  8  9  1  0
  9 10  1  0
 10 11  1  0
 11 12  1  0
 12 13  2  0
 12 14  1  0
 14 15  1  0
 15 16  1  0
 16 17  2  0
 17 18  1  0
 18 19  1  0
 19 20  2  0
 20 21  1  0
 21 22  2  0
 22 23  1  0
 23 24  2  0
 18 25  2  0
 25 26  1  0
 26 27  1  0
 27 28  1  0
 27 29  1  0
 27 30  1  0
 26 31  2  0
 31 32  1  0
 32 33  3  0
 31 16  1  0
 24 19  1  0
M  END
>  <Binding energies>  (31) 
[-5.3]

>  <Ligand effiencies>  (31) 
[-0.15588235294117647]

>  <Interactions>  (31) 
["V-B:PRO:540:CB:9857, V-A:ILE:369:CG2:3236, V-A:ASP:366:CG:3212, V-B:TYR:539:CD2:9846, V-B:PRO:540:CA:9855, V-B:TYR:539:C:9839, V-B:TYR:539:CE2:9848, V-B:TYR:539:CZ:9849, V-B:PRO:540:N:9856, V-B:ASP:366:CG:8184, V-B:ALA:541:CB:9864, V-B:GLU:543:CD:9880, V-A:LEU:475:CD1:4257, V-B:MET:535:CE:9807, H-B:TYR:531:OH:9767, V-A:PRO:482:CG:4326, H-A:SER:385:OG:3409, V-A:ASP:366:CB:3211, V-B:TYR:539:CG:9844, V-B:PRO:540:C:9853, V-B:TYR:531:CE2:9765, V-B:TYR:539:CB:9843, V-B:ALA:541:CA:9862, V-A:PRO:482:CB:4325, V-B:ASP:366:CB:8183, H-B:TYR:539:OH:9850, V-A:ASP:366:CA:3209, V-B:TYR:531:CZ:9766, V-A:PRO:482:CD:4327"]

$$$$
3bk_Grossjean_2025
     RDKit          3D

 30 31  0  0  0  0  0  0  0  0999 V2000
  125.7400  122.5120   56.7970 C   0  0  0  0  0  0  0  0  0  0  0  0
  126.8730  121.7020   56.5240 O   0  0  0  0  0  0  0  0  0  0  0  0
  128.0410  122.1080   57.2250 C   0  0  0  0  0  0  0  0  0  0  0  0
  127.9480  123.6040   57.5590 C   0  0  0  0  0  0  0  0  0  0  0  0
  129.2540  124.1600   57.5970 O   0  0  0  0  0  0  0  0  0  0  0  0
  130.1470  123.4720   58.4640 C   0  0  0  0  0  0  0  0  0  0  0  0
  131.4850  124.2210   58.5110 C   0  0  0  0  0  0  0  0  0  0  0  0
  132.0080  124.1700   59.8320 O   0  0  0  0  0  0  0  0  0  0  0  0
  133.4240  124.0530   59.8860 C   0  0  0  0  0  0  0  0  0  0  0  0
  133.8880  124.1470   61.3460 C   0  0  0  0  0  0  0  0  0  0  0  0
  132.7710  124.3120   62.2780 N   0  0  0  0  0  0  0  0  0  0  0  0
  132.8810  124.5810   63.5900 C   0  0  0  0  0  0  0  0  0  0  0  0
  133.9580  124.7420   64.1660 O   0  0  0  0  0  0  0  0  0  0  0  0
  131.5720  124.7150   64.3710 C   0  0  0  0  0  0  0  0  0  0  0  0
  130.2490  125.4550   63.3620 S   0  0  0  0  0  0  0  0  0  0  0  0
  129.4760  124.1750   62.3880 C   0  0  0  0  0  0  0  0  0  0  0  0
  130.2310  123.0730   62.1490 N   0  0  0  0  0  0  0  0  0  0  0  0
  129.7260  122.0480   61.4140 C   0  0  0  0  0  0  0  0  0  0  0  0
  130.6190  120.8600   61.2160 C   0  0  0  0  0  0  0  0  0  0  0  0
  130.1470  119.5600   61.4540 C   0  0  0  0  0  0  0  0  0  0  0  0
  130.9740  118.4530   61.2770 C   0  0  0  0  0  0  0  0  0  0  0  0
  132.2880  118.6330   60.8570 C   0  0  0  0  0  0  0  0  0  0  0  0
  132.7790  119.9110   60.6100 C   0  0  0  0  0  0  0  0  0  0  0  0
  131.9480  121.0150   60.7870 C   0  0  0  0  0  0  0  0  0  0  0  0
  128.4250  122.1070   60.8990 C   0  0  0  0  0  0  0  0  0  0  0  0
  127.6330  123.2360   61.1340 C   0  0  0  0  0  0  0  0  0  0  0  0
  126.2200  123.2610   60.5530 C   0  0  0  0  0  0  0  0  0  0  0  0
  128.1590  124.3020   61.8940 C   0  0  0  0  0  0  0  0  0  0  0  0
  127.3510  125.4960   62.1590 C   0  0  0  0  0  0  0  0  0  0  0  0
  126.7130  126.4390   62.3670 N   0  0  0  0  0  0  0  0  0  0  0  0
  1  2  1  0
  2  3  1  0
  3  4  1  0
  4  5  1  0
  5  6  1  0
  6  7  1  0
  7  8  1  0
  8  9  1  0
  9 10  1  0
 10 11  1  0
 11 12  1  0
 12 13  2  0
 12 14  1  0
 14 15  1  0
 15 16  1  0
 16 17  2  0
 17 18  1  0
 18 19  1  0
 19 20  2  0
 20 21  1  0
 21 22  2  0
 22 23  1  0
 23 24  2  0
 18 25  2  0
 25 26  1  0
 26 27  1  0
 26 28  2  0
 28 29  1  0
 29 30  3  0
 28 16  1  0
 24 19  1  0
M  END
>  <Binding energies>  (32) 
[-6.35]

>  <Ligand effiencies>  (32) 
[-0.20483870967741935]

>  <Interactions>  (32) 
["V-B:PRO:540:CB:9857, V-A:ILE:369:CG2:3236, V-A:ASP:366:CG:3212, V-B:TYR:539:CD2:9846, V-B:PRO:540:CA:9855, V-B:TYR:539:C:9839, V-B:TYR:539:CE2:9848, V-B:TYR:539:CZ:9849, V-B:PRO:540:N:9856, V-B:LEU:363:CD1:8160, V-B:ALA:541:CB:9864, V-B:GLU:543:CD:9880, V-A:LEU:475:CD1:4257, H-A:GLY:454:N:4049, V-B:PRO:540:CD:9859, V-B:MET:535:CE:9807, V-B:TYR:539:CA:9841, H-A:ARG:545:NH1:4927, H-A:ARG:545:NH2:4928, V-A:PRO:482:CG:4326, H-A:TYR:484:OH:4347, V-A:ASP:366:CB:3211, V-B:TYR:539:CG:9844, H-B:TYR:539:N:9842, V-B:PRO:540:C:9853, H-B:ARG:545:NH2:9900, V-B:ALA:541:CA:9862, V-A:PRO:482:CB:4325, H-B:TYR:539:OH:9850, V-A:ASP:366:CA:3209, V-B:TYR:539:CD1:9845, V-B:TYR:539:CE1:9847"]

$$$$
3cb_Grossjean_2025
     RDKit          3D

 30 32  0  0  0  0  0  0  0  0999 V2000
  131.3910  126.2180   66.9710 C   0  0  0  0  0  0  0  0  0  0  0  0
  132.4810  126.4400   66.0890 O   0  0  0  0  0  0  0  0  0  0  0  0
  132.8570  125.4950   65.1900 C   0  0  0  0  0  0  0  0  0  0  0  0
  133.9790  124.9790   65.1740 O   0  0  0  0  0  0  0  0  0  0  0  0
  131.7730  125.1400   64.2130 C   0  0  0  0  0  0  0  0  0  0  0  0
  131.6140  125.8210   62.9970 C   0  0  0  0  0  0  0  0  0  0  0  0
  130.6000  125.4650   62.1140 C   0  0  0  0  0  0  0  0  0  0  0  0
  129.7210  124.4270   62.4250 C   0  0  0  0  0  0  0  0  0  0  0  0
  128.7350  124.1490   61.4570 N   0  0  0  0  0  0  0  0  0  0  0  0
  127.7250  123.2520   61.4800 C   0  0  0  0  0  0  0  0  0  0  0  0
  127.4760  122.4940   62.4190 O   0  0  0  0  0  0  0  0  0  0  0  0
  126.8530  123.2420   60.2150 C   0  0  0  0  0  0  0  0  0  0  0  0
  127.6820  122.6180   58.7140 S   0  0  0  0  0  0  0  0  0  0  0  0
  129.4070  123.0460   58.8260 C   0  0  0  0  0  0  0  0  0  0  0  0
  129.7840  124.0010   57.9410 N   0  0  0  0  0  0  0  0  0  0  0  0
  131.0740  124.4060   57.9360 C   0  0  0  0  0  0  0  0  0  0  0  0
  131.4220  125.4850   56.9290 C   0  0  0  0  0  0  0  0  0  0  0  0
  132.0300  123.8770   58.7990 C   0  0  0  0  0  0  0  0  0  0  0  0
  131.6660  122.8770   59.7100 C   0  0  0  0  0  0  0  0  0  0  0  0
  132.7300  122.3380   60.6110 C   0  0  0  0  0  0  0  0  0  0  0  0
  133.0880  120.9850   60.5460 C   0  0  0  0  0  0  0  0  0  0  0  0
  134.0860  120.4750   61.3730 C   0  0  0  0  0  0  0  0  0  0  0  0
  134.7340  121.3200   62.2700 C   0  0  0  0  0  0  0  0  0  0  0  0
  134.3970  122.6680   62.3430 C   0  0  0  0  0  0  0  0  0  0  0  0
  133.4000  123.1760   61.5130 C   0  0  0  0  0  0  0  0  0  0  0  0
  130.3190  122.4320   59.7190 C   0  0  0  0  0  0  0  0  0  0  0  0
  129.9040  121.3240   60.5860 C   0  0  0  0  0  0  0  0  0  0  0  0
  129.5760  120.4510   61.2710 N   0  0  0  0  0  0  0  0  0  0  0  0
  129.8750  123.7370   63.6370 C   0  0  0  0  0  0  0  0  0  0  0  0
  130.8910  124.0940   64.5200 C   0  0  0  0  0  0  0  0  0  0  0  0
  1  2  1  0
  2  3  1  0
  3  4  2  0
  3  5  1  0
  5  6  2  0
  6  7  1  0
  7  8  2  0
  8  9  1  0
  9 10  1  0
 10 11  2  0
 10 12  1  0
 12 13  1  0
 13 14  1  0
 14 15  2  0
 15 16  1  0
 16 17  1  0
 16 18  2  0
 18 19  1  0
 19 20  1  0
 20 21  2  0
 21 22  1  0
 22 23  2  0
 23 24  1  0
 24 25  2  0
 19 26  2  0
 26 27  1  0
 27 28  3  0
  8 29  1  0
 29 30  2  0
 30  5  1  0
 26 14  1  0
 25 20  1  0
M  END
>  <Binding energies>  (33) 
[-7.67]

>  <Ligand effiencies>  (33) 
[-0.24741935483870967]

>  <Interactions>  (33) 
["V-B:PRO:540:CB:9857, V-A:ILE:369:CG2:3236, H-B:ALA:541:N:9863, V-B:TYR:539:CD2:9846, V-A:SER:385:C:3404, V-B:PRO:540:CA:9855, V-B:TYR:539:CE2:9848, V-B:TYR:539:CZ:9849, V-A:ARG:545:CZ:4926, V-A:GLY:454:CA:4048, V-B:GLU:543:CG:9879, V-A:LEU:475:CD1:4257, H-A:ARG:545:NE:4924, H-A:GLY:454:N:4049, V-A:HIS:456:CE1:4069, H-A:ARG:545:NH2:4928, H-A:TYR:484:OH:4347, V-A:GLY:453:C:4041, V-A:ILE:369:CD1:3238, H-B:TYR:539:OH:9850"]

$$$$
3ch_Grossjean_2025
     RDKit          3D

 32 34  0  0  0  0  0  0  0  0999 V2000
  134.2750  124.3760   61.8240 C   0  0  0  0  0  0  0  0  0  0  0  0
  134.0720  124.2450   63.2270 O   0  0  0  0  0  0  0  0  0  0  0  0
  132.9240  124.7600   63.8020 C   0  0  0  0  0  0  0  0  0  0  0  0
  131.6480  124.6710   63.2230 C   0  0  0  0  0  0  0  0  0  0  0  0
  130.5260  125.2090   63.8690 C   0  0  0  0  0  0  0  0  0  0  0  0
  129.2090  125.1640   63.3710 N   0  0  0  0  0  0  0  0  0  0  0  0
  128.6550  125.8360   62.3380 C   0  0  0  0  0  0  0  0  0  0  0  0
  129.2410  126.6360   61.6090 O   0  0  0  0  0  0  0  0  0  0  0  0
  127.1860  125.5180   62.0580 C   0  0  0  0  0  0  0  0  0  0  0  0
  126.8660  123.7290   62.0200 S   0  0  0  0  0  0  0  0  0  0  0  0
  128.0750  123.0350   60.9140 C   0  0  0  0  0  0  0  0  0  0  0  0
  127.7980  123.2330   59.6010 N   0  0  0  0  0  0  0  0  0  0  0  0
  128.6520  122.7370   58.6780 C   0  0  0  0  0  0  0  0  0  0  0  0
  128.2790  122.9890   57.2300 C   0  0  0  0  0  0  0  0  0  0  0  0
  129.8030  122.0310   59.0230 C   0  0  0  0  0  0  0  0  0  0  0  0
  130.1110  121.8230   60.3750 C   0  0  0  0  0  0  0  0  0  0  0  0
  131.3500  121.0520   60.6970 C   0  0  0  0  0  0  0  0  0  0  0  0
  132.5160  121.7230   61.0840 C   0  0  0  0  0  0  0  0  0  0  0  0
  133.6770  121.0120   61.3770 C   0  0  0  0  0  0  0  0  0  0  0  0
  133.6770  119.6230   61.2800 C   0  0  0  0  0  0  0  0  0  0  0  0
  132.5280  118.9400   60.8890 C   0  0  0  0  0  0  0  0  0  0  0  0
  131.3690  119.6550   60.5960 C   0  0  0  0  0  0  0  0  0  0  0  0
  129.2340  122.3540   61.3550 C   0  0  0  0  0  0  0  0  0  0  0  0
  129.5560  122.2490   62.7820 C   0  0  0  0  0  0  0  0  0  0  0  0
  129.8080  122.1650   63.9080 N   0  0  0  0  0  0  0  0  0  0  0  0
  130.6930  125.8570   65.0940 C   0  0  0  0  0  0  0  0  0  0  0  0
  131.9580  125.9600   65.6920 C   0  0  0  0  0  0  0  0  0  0  0  0
  132.1900  126.5820   66.9070 O   0  0  0  0  0  0  0  0  0  0  0  0
  131.0950  127.1280   67.6350 C   0  0  0  0  0  0  0  0  0  0  0  0
  133.0660  125.4100   65.0350 C   0  0  0  0  0  0  0  0  0  0  0  0
  134.3080  125.4890   65.6180 O   0  0  0  0  0  0  0  0  0  0  0  0
  134.3540  125.0030   66.9520 C   0  0  0  0  0  0  0  0  0  0  0  0
  1  2  1  0
  2  3  1  0
  3  4  2  0
  4  5  1  0
  5  6  1  0
  6  7  1  0
  7  8  2  0
  7  9  1  0
  9 10  1  0
 10 11  1  0
 11 12  2  0
 12 13  1  0
 13 14  1  0
 13 15  2  0
 15 16  1  0
 16 17  1  0
 17 18  2  0
 18 19  1  0
 19 20  2  0
 20 21  1  0
 21 22  2  0
 16 23  2  0
 23 24  1  0
 24 25  3  0
  5 26  2  0
 26 27  1  0
 27 28  1  0
 28 29  1  0
 27 30  2  0
 30 31  1  0
 31 32  1  0
 30  3  1  0
 23 11  1  0
 22 17  1  0
M  END
>  <Binding energies>  (34) 
[-7.05]

>  <Ligand effiencies>  (34) 
[-0.21363636363636362]

>  <Interactions>  (34) 
["V-A:ILE:369:CG2:3236, V-A:ASP:366:CG:3212, V-B:TYR:539:CD2:9846, V-A:SER:385:C:3404, V-A:SER:385:CA:3406, V-B:PRO:540:CA:9855, V-B:TYR:539:C:9839, V-B:TYR:539:CE2:9848, V-B:TYR:539:CZ:9849, V-B:ALA:541:CB:9864, V-A:ARG:545:CZ:4926, V-A:GLY:454:CA:4048, V-B:GLU:543:CD:9880, V-A:LEU:475:CD1:4257, V-A:GLU:543:CB:4906, V-A:ARG:545:CG:4922, V-A:GLU:543:CD:4908, H-A:ARG:545:NE:4924, H-A:GLY:454:N:4049, V-B:MET:535:CE:9807, V-A:HIS:456:CE1:4069, H-A:ARG:545:NH1:4927, H-A:ARG:545:NH2:4928, V-A:TYR:484:CZ:4346, H-B:GLU:543:OE2:9882, V-A:ARG:545:CD:4923, H-A:TYR:484:OH:4347, V-A:ILE:369:CD1:3238, V-A:ILE:455:C:4051, V-A:GLY:454:C:4046, V-B:TYR:539:CG:9844, H-B:GLU:543:OE1:9881"]

$$$$
3ci_Grossjean_2025
     RDKit          3D

 25 27  0  0  0  0  0  0  0  0999 V2000
  134.4210  124.6410   62.3960 C   0  0  0  0  0  0  0  0  0  0  0  0
  133.0350  124.0720   62.1590 C   0  0  0  0  0  0  0  0  0  0  0  0
  132.8380  122.7290   61.8500 C   0  0  0  0  0  0  0  0  0  0  0  0
  131.5370  122.2460   61.6560 C   0  0  0  0  0  0  0  0  0  0  0  0
  131.3730  120.7950   61.3420 C   0  0  0  0  0  0  0  0  0  0  0  0
  130.3670  120.0380   61.9560 C   0  0  0  0  0  0  0  0  0  0  0  0
  130.2240  118.6840   61.6660 C   0  0  0  0  0  0  0  0  0  0  0  0
  131.0930  118.0780   60.7640 C   0  0  0  0  0  0  0  0  0  0  0  0
  132.1040  118.8140   60.1510 C   0  0  0  0  0  0  0  0  0  0  0  0
  132.2440  120.1680   60.4430 C   0  0  0  0  0  0  0  0  0  0  0  0
  130.4560  123.1580   61.7710 C   0  0  0  0  0  0  0  0  0  0  0  0
  129.0760  122.7200   61.5360 C   0  0  0  0  0  0  0  0  0  0  0  0
  127.9870  122.3720   61.3510 N   0  0  0  0  0  0  0  0  0  0  0  0
  130.7440  124.5060   62.0930 C   0  0  0  0  0  0  0  0  0  0  0  0
  129.4580  125.7340   62.2830 S   0  0  0  0  0  0  0  0  0  0  0  0
  129.2190  126.0930   64.0540 C   0  0  0  0  0  0  0  0  0  0  0  0
  130.2790  125.4490   64.9540 C   0  0  0  0  0  0  0  0  0  0  0  0
  130.0130  124.3980   65.5400 O   0  0  0  0  0  0  0  0  0  0  0  0
  131.4520  126.1140   65.0480 N   0  0  0  0  0  0  0  0  0  0  0  0
  132.5780  125.7360   65.7680 C   0  0  0  0  0  0  0  0  0  0  0  0
  132.7310  125.9930   67.1300 C   0  0  0  0  0  0  0  0  0  0  0  0
  133.9620  125.4710   67.4550 C   0  0  0  0  0  0  0  0  0  0  0  0
  134.5200  124.9280   66.3460 O   0  0  0  0  0  0  0  0  0  0  0  0
  133.6330  125.1040   65.2830 N   0  0  0  0  0  0  0  0  0  0  0  0
  132.0140  124.9500   62.2750 N   0  0  0  0  0  0  0  0  0  0  0  0
  1  2  1  0
  2  3  2  0
  3  4  1  0
  4  5  1  0
  5  6  2  0
  6  7  1  0
  7  8  2  0
  8  9  1  0
  9 10  2  0
  4 11  2  0
 11 12  1  0
 12 13  3  0
 11 14  1  0
 14 15  1  0
 15 16  1  0
 16 17  1  0
 17 18  2  0
 17 19  1  0
 19 20  1  0
 20 21  1  0
 21 22  2  0
 22 23  1  0
 23 24  1  0
 14 25  2  0
 25  2  1  0
 10  5  1  0
 24 20  2  0
M  END
>  <Binding energies>  (35) 
[-8.24]

>  <Ligand effiencies>  (35) 
[-0.3169230769230769]

>  <Interactions>  (35) 
["H-B:ALA:541:N:9863, V-A:ASP:366:CG:3212, V-B:TYR:539:CD2:9846, V-B:TYR:539:CE2:9848, V-B:ALA:541:CB:9864, V-A:ARG:545:CZ:4926, V-B:GLU:543:CD:9880, V-A:LEU:475:CD1:4257, V-A:ARG:545:CG:4922, V-A:GLU:543:CD:4908, H-A:GLU:543:OE2:4910, H-A:ARG:545:NE:4924, H-A:GLY:454:N:4049, H-A:GLU:543:OE1:4909, V-A:HIS:456:CE1:4069, V-A:TYR:484:CZ:4346, V-A:PRO:482:CG:4326, V-A:ARG:545:CD:4923, H-A:TYR:484:OH:4347, V-A:GLY:453:CA:4043, V-A:GLY:453:C:4041, V-A:ILE:455:C:4051, H-A:ILE:455:N:4054, V-B:ALA:541:CA:9862, V-A:PRO:482:CB:4325"]

$$$$
3ck_Grossjean_2025
     RDKit          3D

 30 31  0  0  0  0  0  0  0  0999 V2000
  127.1880  123.3420   61.7470 C   0  0  0  0  0  0  0  0  0  0  0  0
  128.0210  122.1990   61.6340 O   0  0  0  0  0  0  0  0  0  0  0  0
  129.4040  122.4900   61.7760 C   0  0  0  0  0  0  0  0  0  0  0  0
  130.0980  122.3640   60.4140 C   0  0  0  0  0  0  0  0  0  0  0  0
  130.3100  120.9890   60.1200 O   0  0  0  0  0  0  0  0  0  0  0  0
  130.4530  120.1680   61.2720 C   0  0  0  0  0  0  0  0  0  0  0  0
  131.1950  118.8830   60.8830 C   0  0  0  0  0  0  0  0  0  0  0  0
  132.2160  119.2190   59.9550 O   0  0  0  0  0  0  0  0  0  0  0  0
  133.5020  118.7110   60.2750 C   0  0  0  0  0  0  0  0  0  0  0  0
  134.3490  119.8230   60.9230 C   0  0  0  0  0  0  0  0  0  0  0  0
  133.6020  120.6580   61.8690 N   0  0  0  0  0  0  0  0  0  0  0  0
  133.2550  121.9430   61.6750 C   0  0  0  0  0  0  0  0  0  0  0  0
  133.5130  122.5650   60.6420 O   0  0  0  0  0  0  0  0  0  0  0  0
  132.4960  122.6060   62.8360 C   0  0  0  0  0  0  0  0  0  0  0  0
  132.4800  124.4320   62.8200 S   0  0  0  0  0  0  0  0  0  0  0  0
  132.6320  125.0340   64.4950 C   0  0  0  0  0  0  0  0  0  0  0  0
  133.8900  125.0390   65.0040 N   0  0  0  0  0  0  0  0  0  0  0  0
  134.0780  125.4780   66.2680 C   0  0  0  0  0  0  0  0  0  0  0  0
  135.5090  125.4520   66.7690 C   0  0  0  0  0  0  0  0  0  0  0  0
  133.0320  125.9240   67.0710 C   0  0  0  0  0  0  0  0  0  0  0  0
  131.7240  125.9220   66.5690 C   0  0  0  0  0  0  0  0  0  0  0  0
  130.6300  126.3870   67.4740 C   0  0  0  0  0  0  0  0  0  0  0  0
  130.6780  127.6700   68.0330 C   0  0  0  0  0  0  0  0  0  0  0  0
  129.6660  128.1070   68.8850 C   0  0  0  0  0  0  0  0  0  0  0  0
  128.6050  127.2590   69.1870 C   0  0  0  0  0  0  0  0  0  0  0  0
  128.5480  125.9760   68.6460 C   0  0  0  0  0  0  0  0  0  0  0  0
  129.5600  125.5430   67.7940 C   0  0  0  0  0  0  0  0  0  0  0  0
  131.5140  125.4760   65.2390 C   0  0  0  0  0  0  0  0  0  0  0  0
  130.1710  125.4910   64.6460 C   0  0  0  0  0  0  0  0  0  0  0  0
  129.1130  125.5030   64.1790 N   0  0  0  0  0  0  0  0  0  0  0  0
  1  2  1  0
  2  3  1  0
  3  4  1  0
  4  5  1  0
  5  6  1  0
  6  7  1  0
  7  8  1  0
  8  9  1  0
  9 10  1  0
 10 11  1  0
 11 12  1  0
 12 13  2  0
 12 14  1  0
 14 15  1  0
 15 16  1  0
 16 17  2  0
 17 18  1  0
 18 19  1  0
 18 20  2  0
 20 21  1  0
 21 22  1  0
 22 23  2  0
 23 24  1  0
 24 25  2  0
 25 26  1  0
 26 27  2  0
 21 28  2  0
 28 29  1  0
 29 30  3  0
 28 16  1  0
 27 22  1  0
M  END
>  <Binding energies>  (36) 
[-6.74]

>  <Ligand effiencies>  (36) 
[-0.2174193548387097]

>  <Interactions>  (36) 
["V-A:ILE:369:CG2:3236, H-B:ALA:541:N:9863, V-B:TYR:539:CD2:9846, V-A:SER:385:C:3404, V-A:SER:385:CB:3408, V-A:SER:385:CA:3406, V-B:ALA:541:CB:9864, V-A:ARG:545:CZ:4926, V-A:GLY:454:CA:4048, V-B:GLU:543:CG:9879, V-B:GLU:543:CD:9880, V-A:LEU:475:CD1:4257, V-A:GLU:543:CB:4906, V-A:ARG:545:CG:4922, V-A:GLU:543:CD:4908, V-A:TYR:484:CE2:4345, H-A:ARG:545:NE:4924, H-A:GLY:454:N:4049, V-B:GLU:543:CB:9878, V-A:HIS:456:CE1:4069, H-A:ARG:545:NH2:4928, V-B:HIS:456:CE1:9041, V-A:TYR:484:CZ:4346, H-A:SER:385:O:3405, V-A:ARG:545:CD:4923, H-A:TYR:484:OH:4347, V-A:GLY:453:CA:4043, V-A:GLY:453:C:4041, V-A:ILE:369:CD1:3238, V-A:ILE:455:C:4051, V-B:GLU:543:C:9874, V-B:GLU:543:CA:9876, V-A:GLU:543:C:4902, V-A:HIS:383:CD2:3391, V-A:ILE:455:CA:4053, V-A:ARG:545:CB:4921"]

$$$$
4aa_Grossjean_2025
     RDKit          3D

 26 28  0  0  0  0  0  0  0  0999 V2000
  127.6880  131.3420   72.4930 C   0  0  0  0  0  0  0  0  0  0  0  0
  128.8900  130.3950   72.5620 C   0  0  0  0  0  0  0  0  0  0  0  0
  128.7070  129.3320   71.6350 O   0  0  0  0  0  0  0  0  0  0  0  0
  129.6730  128.3970   71.4410 C   0  0  0  0  0  0  0  0  0  0  0  0
  130.5860  128.1840   72.2460 O   0  0  0  0  0  0  0  0  0  0  0  0
  129.5240  127.6500   70.1470 C   0  0  0  0  0  0  0  0  0  0  0  0
  130.2120  128.1020   69.0130 C   0  0  0  0  0  0  0  0  0  0  0  0
  130.0910  127.4340   67.7980 C   0  0  0  0  0  0  0  0  0  0  0  0
  129.2880  126.2980   67.6930 C   0  0  0  0  0  0  0  0  0  0  0  0
  129.2300  125.7060   66.4160 N   0  0  0  0  0  0  0  0  0  0  0  0
  130.2290  125.2880   65.6010 C   0  0  0  0  0  0  0  0  0  0  0  0
  131.4270  125.4100   65.8560 O   0  0  0  0  0  0  0  0  0  0  0  0
  129.7940  124.6820   64.3410 C   0  0  0  0  0  0  0  0  0  0  0  0
  128.7160  125.5620   63.2550 S   0  0  0  0  0  0  0  0  0  0  0  0
  128.6750  124.2210   62.1330 C   0  0  0  0  0  0  0  0  0  0  0  0
  127.9680  124.2680   61.0030 N   0  0  0  0  0  0  0  0  0  0  0  0
  128.0180  123.1590   60.2240 C   0  0  0  0  0  0  0  0  0  0  0  0
  127.2030  123.2310   58.9460 C   0  0  0  0  0  0  0  0  0  0  0  0
  128.7520  122.0190   60.5440 C   0  0  0  0  0  0  0  0  0  0  0  0
  129.4940  121.9740   61.7300 C   0  0  0  0  0  0  0  0  0  0  0  0
  130.2800  120.7080   62.0360 C   0  0  0  0  0  0  0  0  0  0  0  0
  129.4630  123.1160   62.5750 C   0  0  0  0  0  0  0  0  0  0  0  0
  130.0870  123.4040   63.8390 C   0  0  0  0  0  0  0  0  0  0  0  0
  130.8960  122.4980   64.4790 N   0  0  0  0  0  0  0  0  0  0  0  0
  128.5900  125.8410   68.8200 C   0  0  0  0  0  0  0  0  0  0  0  0
  128.7100  126.5120   70.0350 C   0  0  0  0  0  0  0  0  0  0  0  0
  1  2  1  0
  2  3  1  0
  3  4  1  0
  4  5  2  0
  4  6  1  0
  6  7  2  0
  7  8  1  0
  8  9  2  0
  9 10  1  0
 10 11  1  0
 11 12  2  0
 11 13  1  0
 13 14  1  0
 14 15  1  0
 15 16  2  0
 16 17  1  0
 17 18  1  0
 17 19  2  0
 19 20  1  0
 20 21  1  0
 20 22  2  0
 22 23  1  0
 23 24  1  0
  9 25  1  0
 25 26  2  0
 26  6  1  0
 23 13  2  0
 22 15  1  0
M  END
>  <Binding energies>  (37) 
[-6.23]

>  <Ligand effiencies>  (37) 
[-0.21482758620689657]

>  <Interactions>  (37) 
["V-B:PRO:540:CB:9857, V-B:PRO:540:CA:9855, V-B:TYR:539:C:9839, V-B:ALA:541:CB:9864, V-B:GLU:543:CG:9879, V-B:GLU:543:CD:9880, V-A:LEU:475:CD1:4257, V-A:GLU:543:CB:4906, V-A:GLU:543:CD:4908, V-A:TYR:484:CE2:4345, V-B:GLU:543:CB:9878, V-A:HIS:456:CE1:4069, V-B:HIS:456:CE1:9041, V-A:TYR:484:CZ:4346, H-B:GLU:543:OE2:9882, H-A:TYR:484:OH:4347, V-B:HIS:456:CD2:9039, V-B:PRO:540:C:9853, V-B:GLU:543:C:9874, V-B:GLU:543:CA:9876, V-A:GLU:543:C:4902, H-A:HIS:456:ND1:4066, V-B:HIS:456:CG:9037, V-B:TYR:484:CD1:9314, V-B:TYR:484:CG:9313, V-B:TYR:484:CB:9312, V-B:TYR:484:CD2:9315"]

$$$$
4ab_Grossjean_2025
     RDKit          3D

 25 27  0  0  0  0  0  0  0  0999 V2000
  128.3600  129.3510   67.5170 C   0  0  0  0  0  0  0  0  0  0  0  0
  128.7320  129.2460   68.8840 O   0  0  0  0  0  0  0  0  0  0  0  0
  129.4740  128.1990   69.3270 C   0  0  0  0  0  0  0  0  0  0  0  0
  129.8310  128.0680   70.5030 O   0  0  0  0  0  0  0  0  0  0  0  0
  129.8230  127.2190   68.2450 C   0  0  0  0  0  0  0  0  0  0  0  0
  128.8560  126.2980   67.8190 C   0  0  0  0  0  0  0  0  0  0  0  0
  129.1510  125.3750   66.8190 C   0  0  0  0  0  0  0  0  0  0  0  0
  130.4090  125.3600   66.2180 C   0  0  0  0  0  0  0  0  0  0  0  0
  130.5990  124.3810   65.2240 N   0  0  0  0  0  0  0  0  0  0  0  0
  130.1530  124.3370   63.9450 C   0  0  0  0  0  0  0  0  0  0  0  0
  129.4280  125.1920   63.4340 O   0  0  0  0  0  0  0  0  0  0  0  0
  130.5740  123.1640   63.1770 C   0  0  0  0  0  0  0  0  0  0  0  0
  129.3710  122.1070   62.4340 S   0  0  0  0  0  0  0  0  0  0  0  0
  130.6150  121.0430   61.8190 C   0  0  0  0  0  0  0  0  0  0  0  0
  130.3240  119.9540   61.1060 N   0  0  0  0  0  0  0  0  0  0  0  0
  131.3810  119.2140   60.6920 C   0  0  0  0  0  0  0  0  0  0  0  0
  131.0270  117.9770   59.8870 C   0  0  0  0  0  0  0  0  0  0  0  0
  132.7080  119.5350   60.9680 C   0  0  0  0  0  0  0  0  0  0  0  0
  133.0100  120.6780   61.7170 C   0  0  0  0  0  0  0  0  0  0  0  0
  134.4740  120.9850   61.9930 C   0  0  0  0  0  0  0  0  0  0  0  0
  131.9270  121.4780   62.1730 C   0  0  0  0  0  0  0  0  0  0  0  0
  131.8750  122.6860   62.9520 C   0  0  0  0  0  0  0  0  0  0  0  0
  133.0070  123.3030   63.4210 N   0  0  0  0  0  0  0  0  0  0  0  0
  131.3850  126.2750   66.6410 C   0  0  0  0  0  0  0  0  0  0  0  0
  131.0900  127.1950   67.6430 C   0  0  0  0  0  0  0  0  0  0  0  0
  1  2  1  0
  2  3  1  0
  3  4  2  0
  3  5  1  0
  5  6  2  0
  6  7  1  0
  7  8  2  0
  8  9  1  0
  9 10  1  0
 10 11  2  0
 10 12  1  0
 12 13  1  0
 13 14  1  0
 14 15  2  0
 15 16  1  0
 16 17  1  0
 16 18  2  0
 18 19  1  0
 19 20  1  0
 19 21  2  0
 21 22  1  0
 22 23  1  0
  8 24  1  0
 24 25  2  0
 25  5  1  0
 22 12  2  0
 21 14  1  0
M  END
>  <Binding energies>  (38) 
[-6.35]

>  <Ligand effiencies>  (38) 
[-0.22678571428571428]

>  <Interactions>  (38) 
["V-A:ILE:369:CG2:3236, V-B:TYR:539:CD2:9846, V-A:SER:385:C:3404, V-B:TYR:539:C:9839, V-B:ALA:541:CB:9864, V-A:GLY:454:CA:4048, V-B:GLU:543:CG:9879, V-B:GLU:543:CD:9880, V-A:LEU:475:CD1:4257, V-A:GLU:543:CB:4906, V-A:GLU:543:CD:4908, V-A:TYR:484:CE2:4345, V-B:GLU:543:CB:9878, V-A:HIS:456:CE1:4069, V-B:HIS:456:CE1:9041, V-A:TYR:484:CZ:4346, V-A:PRO:482:CG:4326, H-A:TYR:484:OH:4347, V-A:ILE:369:CD1:3238, V-A:GLU:543:CG:4907, V-B:TYR:484:CE2:9317, V-A:GLU:543:C:4902, V-B:TYR:539:CB:9843"]

$$$$
4ac_Grossjean_2025
     RDKit          3D

 23 25  0  0  0  0  0  0  0  0999 V2000
  129.0910  128.8070   68.8240 C   0  0  0  0  0  0  0  0  0  0  0  0
  130.3710  128.1990   68.9620 O   0  0  0  0  0  0  0  0  0  0  0  0
  130.8090  127.3200   67.9910 C   0  0  0  0  0  0  0  0  0  0  0  0
  129.8550  126.4490   67.4650 C   0  0  0  0  0  0  0  0  0  0  0  0
  130.2030  125.5270   66.4810 C   0  0  0  0  0  0  0  0  0  0  0  0
  131.5120  125.4720   66.0030 C   0  0  0  0  0  0  0  0  0  0  0  0
  131.7740  124.5010   65.0180 N   0  0  0  0  0  0  0  0  0  0  0  0
  132.8710  124.3440   64.2390 C   0  0  0  0  0  0  0  0  0  0  0  0
  133.8450  125.0990   64.2600 O   0  0  0  0  0  0  0  0  0  0  0  0
  132.8360  123.1940   63.3310 C   0  0  0  0  0  0  0  0  0  0  0  0
  134.3100  122.6450   62.5320 S   0  0  0  0  0  0  0  0  0  0  0  0
  133.4450  121.3630   61.7140 C   0  0  0  0  0  0  0  0  0  0  0  0
  134.0570  120.5150   60.8860 N   0  0  0  0  0  0  0  0  0  0  0  0
  133.2720  119.5680   60.3170 C   0  0  0  0  0  0  0  0  0  0  0  0
  133.9870  118.6130   59.3800 C   0  0  0  0  0  0  0  0  0  0  0  0
  131.9030  119.4530   60.5520 C   0  0  0  0  0  0  0  0  0  0  0  0
  131.2640  120.3450   61.4210 C   0  0  0  0  0  0  0  0  0  0  0  0
  129.7690  120.1770   61.6450 C   0  0  0  0  0  0  0  0  0  0  0  0
  132.0560  121.3500   62.0390 C   0  0  0  0  0  0  0  0  0  0  0  0
  131.7360  122.4030   62.9640 C   0  0  0  0  0  0  0  0  0  0  0  0
  130.4620  122.6020   63.4340 N   0  0  0  0  0  0  0  0  0  0  0  0
  132.4810  126.3360   66.5350 C   0  0  0  0  0  0  0  0  0  0  0  0
  132.1290  127.2560   67.5200 C   0  0  0  0  0  0  0  0  0  0  0  0
  1  2  1  0
  2  3  1  0
  3  4  2  0
  4  5  1  0
  5  6  2  0
  6  7  1  0
  7  8  1  0
  8  9  2  0
  8 10  1  0
 10 11  1  0
 11 12  1  0
 12 13  2  0
 13 14  1  0
 14 15  1  0
 14 16  2  0
 16 17  1  0
 17 18  1  0
 17 19  2  0
 19 20  1  0
 20 21  1  0
  6 22  1  0
 22 23  2  0
 23  3  1  0
 20 10  2  0
 19 12  1  0
M  END
>  <Binding energies>  (39) 
[-6.11]

>  <Ligand effiencies>  (39) 
[-0.23500000000000001]

>  <Interactions>  (39) 
["V-A:ILE:369:CG2:3236, V-B:TYR:539:CD2:9846, V-A:SER:385:CA:3406, V-B:ALA:541:CB:9864, V-A:ARG:545:CZ:4926, V-A:GLY:454:CA:4048, V-A:LEU:475:CD1:4257, V-A:GLU:543:CB:4906, V-A:ARG:545:CG:4922, V-A:GLU:543:CD:4908, V-A:TYR:484:CE2:4345, H-A:ARG:545:NE:4924, H-A:GLY:454:N:4049, V-A:HIS:456:CE1:4069, H-A:ARG:545:NH1:4927, H-A:ARG:545:NH2:4928, V-B:HIS:456:CE1:9041, V-A:TYR:484:CZ:4346, V-A:ARG:545:CD:4923, H-A:TYR:484:OH:4347, V-A:GLY:453:C:4041, V-A:ILE:369:CD1:3238, V-B:PRO:540:C:9853, V-A:GLU:543:C:4902, V-A:GLU:543:CA:4904, V-B:ALA:541:CA:9862, V-A:HIS:383:CD2:3391"]

$$$$
4ad_Grossjean_2025
     RDKit          3D

 21 23  0  0  0  0  0  0  0  0999 V2000
  135.4460  125.2210   66.5480 C   0  0  0  0  0  0  0  0  0  0  0  0
  133.9960  125.4700   66.1780 C   0  0  0  0  0  0  0  0  0  0  0  0
  133.1530  126.1900   67.0220 C   0  0  0  0  0  0  0  0  0  0  0  0
  131.8180  126.4050   66.6600 C   0  0  0  0  0  0  0  0  0  0  0  0
  130.9350  127.1950   67.6150 C   0  0  0  0  0  0  0  0  0  0  0  0
  131.3710  125.8680   65.4230 C   0  0  0  0  0  0  0  0  0  0  0  0
  130.0970  125.8980   64.7560 C   0  0  0  0  0  0  0  0  0  0  0  0
  129.0060  126.5350   65.2920 N   0  0  0  0  0  0  0  0  0  0  0  0
  130.0810  125.2240   63.5240 C   0  0  0  0  0  0  0  0  0  0  0  0
  128.9620  125.0440   62.5980 C   0  0  0  0  0  0  0  0  0  0  0  0
  127.8970  125.6390   62.7770 O   0  0  0  0  0  0  0  0  0  0  0  0
  129.1970  124.2050   61.5590 N   0  0  0  0  0  0  0  0  0  0  0  0
  128.3300  123.7890   60.5310 C   0  0  0  0  0  0  0  0  0  0  0  0
  128.9200  123.0690   59.4870 C   0  0  0  0  0  0  0  0  0  0  0  0
  128.1440  122.6050   58.4280 C   0  0  0  0  0  0  0  0  0  0  0  0
  126.7740  122.8540   58.4160 C   0  0  0  0  0  0  0  0  0  0  0  0
  126.1720  123.5580   59.4550 C   0  0  0  0  0  0  0  0  0  0  0  0
  126.9450  124.0240   60.5150 C   0  0  0  0  0  0  0  0  0  0  0  0
  131.6630  124.5340   63.1570 S   0  0  0  0  0  0  0  0  0  0  0  0
  132.3320  125.1490   64.6510 C   0  0  0  0  0  0  0  0  0  0  0  0
  133.6050  124.9430   64.9920 N   0  0  0  0  0  0  0  0  0  0  0  0
  1  2  1  0
  2  3  2  0
  3  4  1  0
  4  5  1  0
  4  6  2  0
  6  7  1  0
  7  8  1  0
  7  9  2  0
  9 10  1  0
 10 11  2  0
 10 12  1  0
 12 13  1  0
 13 14  2  0
 14 15  1  0
 15 16  2  0
 16 17  1  0
 17 18  2  0
  9 19  1  0
 19 20  1  0
 20 21  2  0
 21  2  1  0
 20  6  1  0
 18 13  1  0
M  END
>  <Binding energies>  (40) 
[-6.0]

>  <Ligand effiencies>  (40) 
[-0.25]

>  <Interactions>  (40) 
["V-B:PRO:540:CB:9857, V-B:PRO:540:CA:9855, V-B:TYR:539:C:9839, V-B:PRO:540:N:9856, V-A:ARG:545:CZ:4926, V-A:GLY:454:CA:4048, V-B:GLU:543:CD:9880, V-A:GLU:543:CB:4906, V-A:ARG:545:CG:4922, V-A:GLU:543:CD:4908, H-A:ARG:545:NE:4924, H-A:GLY:454:N:4049, H-A:GLU:543:OE1:4909, V-A:HIS:456:CE1:4069, H-A:ARG:545:NH2:4928, H-B:GLU:543:OE2:9882, V-A:ARG:545:CD:4923, H-A:TYR:484:OH:4347, V-A:GLY:453:CA:4043, V-A:GLY:453:C:4041, V-A:ILE:455:C:4051, V-A:GLY:454:C:4046, H-B:GLU:543:OE1:9881, V-A:ILE:455:CA:4053"]

$$$$
4ae_Grossjean_2025
     RDKit          3D

 22 24  0  0  0  0  0  0  0  0999 V2000
  127.5820  122.4710   57.5370 C   0  0  0  0  0  0  0  0  0  0  0  0
  127.1190  123.0550   58.8570 C   0  0  0  0  0  0  0  0  0  0  0  0
  125.7640  123.2580   59.1310 C   0  0  0  0  0  0  0  0  0  0  0  0
  125.4120  123.8080   60.3650 C   0  0  0  0  0  0  0  0  0  0  0  0
  126.4120  124.1390   61.2820 C   0  0  0  0  0  0  0  0  0  0  0  0
  127.7490  123.9020   60.9470 C   0  0  0  0  0  0  0  0  0  0  0  0
  128.7100  124.2750   61.9030 N   0  0  0  0  0  0  0  0  0  0  0  0
  129.2240  125.5050   62.1530 C   0  0  0  0  0  0  0  0  0  0  0  0
  128.9040  126.5210   61.5340 O   0  0  0  0  0  0  0  0  0  0  0  0
  130.2160  125.5630   63.2290 C   0  0  0  0  0  0  0  0  0  0  0  0
  131.8440  124.9330   62.9750 S   0  0  0  0  0  0  0  0  0  0  0  0
  132.3040  125.3240   64.6160 C   0  0  0  0  0  0  0  0  0  0  0  0
  133.5240  125.0670   65.0870 N   0  0  0  0  0  0  0  0  0  0  0  0
  133.7490  125.4130   66.3770 C   0  0  0  0  0  0  0  0  0  0  0  0
  135.1420  125.1050   66.8960 C   0  0  0  0  0  0  0  0  0  0  0  0
  132.7930  126.0080   67.1990 C   0  0  0  0  0  0  0  0  0  0  0  0
  131.5130  126.2780   66.7000 C   0  0  0  0  0  0  0  0  0  0  0  0
  130.5030  126.9240   67.6360 C   0  0  0  0  0  0  0  0  0  0  0  0
  131.2390  125.9260   65.3510 C   0  0  0  0  0  0  0  0  0  0  0  0
  130.0600  126.0530   64.5360 C   0  0  0  0  0  0  0  0  0  0  0  0
  128.8960  126.6040   65.0100 N   0  0  0  0  0  0  0  0  0  0  0  0
  128.1010  123.3710   59.7390 N   0  0  0  0  0  0  0  0  0  0  0  0
  1  2  1  0
  2  3  2  0
  3  4  1  0
  4  5  2  0
  5  6  1  0
  6  7  1  0
  7  8  1  0
  8  9  2  0
  8 10  1  0
 10 11  1  0
 11 12  1  0
 12 13  2  0
 13 14  1  0
 14 15  1  0
 14 16  2  0
 16 17  1  0
 17 18  1  0
 17 19  2  0
 19 20  1  0
 20 21  1  0
  6 22  2  0
 22  2  1  0
 20 10  2  0
 19 12  1  0
M  END
>  <Binding energies>  (41) 
[-6.38]

>  <Ligand effiencies>  (41) 
[-0.2552]

>  <Interactions>  (41) 
["V-B:PRO:540:CB:9857, V-B:PRO:540:CA:9855, V-B:TYR:539:C:9839, V-B:PRO:540:N:9856, V-A:ARG:545:CZ:4926, V-A:GLY:454:CA:4048, V-B:GLU:543:CD:9880, V-A:GLU:543:CB:4906, V-A:ARG:545:CG:4922, V-A:GLU:543:CD:4908, H-A:ARG:545:NE:4924, H-A:GLY:454:N:4049, V-B:MET:535:CE:9807, H-A:GLU:543:OE1:4909, V-A:HIS:456:CE1:4069, H-A:ARG:545:NH2:4928, V-A:TYR:484:CZ:4346, H-B:GLU:543:OE2:9882, V-A:ARG:545:CD:4923, H-A:TYR:484:OH:4347, V-A:GLY:453:CA:4043, V-A:GLY:453:C:4041, V-A:ILE:455:C:4051, V-A:GLY:454:C:4046, H-B:GLU:543:OE1:9881, V-A:ILE:455:CA:4053"]

$$$$
4af_Grossjean_2025
     RDKit          3D

 21 23  0  0  0  0  0  0  0  0999 V2000
  126.3530  134.0780   60.6610 C   0  0  0  0  0  0  0  0  0  0  0  0
  126.3850  132.7280   61.3530 C   0  0  0  0  0  0  0  0  0  0  0  0
  126.2780  131.5450   60.6250 C   0  0  0  0  0  0  0  0  0  0  0  0
  126.3070  130.3110   61.2850 C   0  0  0  0  0  0  0  0  0  0  0  0
  126.1850  129.0480   60.4470 C   0  0  0  0  0  0  0  0  0  0  0  0
  126.4470  130.3190   62.6990 C   0  0  0  0  0  0  0  0  0  0  0  0
  126.5100  129.2620   63.6740 C   0  0  0  0  0  0  0  0  0  0  0  0
  126.4360  127.9380   63.3220 N   0  0  0  0  0  0  0  0  0  0  0  0
  126.6530  129.7120   64.9950 C   0  0  0  0  0  0  0  0  0  0  0  0
  126.7190  128.9210   66.2250 C   0  0  0  0  0  0  0  0  0  0  0  0
  125.6900  128.5010   66.7560 O   0  0  0  0  0  0  0  0  0  0  0  0
  127.9670  128.6880   66.6990 N   0  0  0  0  0  0  0  0  0  0  0  0
  128.3700  128.0140   67.8670 C   0  0  0  0  0  0  0  0  0  0  0  0
  129.1130  128.5790   68.9200 C   0  0  0  0  0  0  0  0  0  0  0  0
  129.4640  127.7910   70.0180 C   0  0  0  0  0  0  0  0  0  0  0  0
  129.0670  126.4530   70.0360 C   0  0  0  0  0  0  0  0  0  0  0  0
  128.3570  125.8830   69.0300 N   0  0  0  0  0  0  0  0  0  0  0  0
  128.0240  126.6610   67.9700 C   0  0  0  0  0  0  0  0  0  0  0  0
  126.7110  131.4760   65.0650 S   0  0  0  0  0  0  0  0  0  0  0  0
  126.5470  131.5960   63.3270 C   0  0  0  0  0  0  0  0  0  0  0  0
  126.5210  132.7740   62.7020 N   0  0  0  0  0  0  0  0  0  0  0  0
  1  2  1  0
  2  3  2  0
  3  4  1  0
  4  5  1  0
  4  6  2  0
  6  7  1  0
  7  8  1  0
  7  9  2  0
  9 10  1  0
 10 11  2  0
 10 12  1  0
 12 13  1  0
 13 14  2  0
 14 15  1  0
 15 16  2  0
 16 17  1  0
 17 18  2  0
  9 19  1  0
 19 20  1  0
 20 21  2  0
 21  2  1  0
 20  6  1  0
 18 13  1  0
M  END
>  <Binding energies>  (42) 
[-5.83]

>  <Ligand effiencies>  (42) 
[-0.24291666666666667]

>  <Interactions>  (42) 
["V-B:ASP:366:CG:8184, V-B:GLU:543:CD:9880, V-A:GLU:543:CB:4906, V-A:GLU:543:CD:4908, H-A:GLU:543:OE1:4909, V-B:GLU:543:CB:9878, V-A:HIS:456:CE1:4069, V-B:HIS:456:CE1:9041, H-B:GLU:543:OE2:9882, V-A:TYR:539:CD1:4873, V-A:TYR:539:CE1:4875, V-A:GLU:543:CG:4907, V-B:TYR:484:CE2:9317, V-B:TYR:484:CZ:9318, H-B:ASP:366:OD1:8185, H-B:GLU:543:OE1:9881, V-A:GLU:543:C:4902, V-B:ARG:545:CZ:9898, H-B:TYR:484:OH:9319, H-B:ARG:545:NE:9896, V-B:LEU:475:CD1:9229"]

$$$$
4ag_Grossjean_2025
     RDKit          3D

 22 24  0  0  0  0  0  0  0  0999 V2000
  133.5570  123.6120   57.7100 C   0  0  0  0  0  0  0  0  0  0  0  0
  133.0180  124.2150   58.9940 C   0  0  0  0  0  0  0  0  0  0  0  0
  131.8330  124.9480   59.0000 C   0  0  0  0  0  0  0  0  0  0  0  0
  131.3530  125.4950   60.1950 C   0  0  0  0  0  0  0  0  0  0  0  0
  130.0550  126.2860   60.1500 C   0  0  0  0  0  0  0  0  0  0  0  0
  132.1120  125.2750   61.3760 C   0  0  0  0  0  0  0  0  0  0  0  0
  131.9190  125.6820   62.7410 C   0  0  0  0  0  0  0  0  0  0  0  0
  130.8380  126.4300   63.1390 N   0  0  0  0  0  0  0  0  0  0  0  0
  132.9280  125.2470   63.6130 C   0  0  0  0  0  0  0  0  0  0  0  0
  133.0420  125.4690   65.0540 C   0  0  0  0  0  0  0  0  0  0  0  0
  133.7840  124.7760   65.7540 O   0  0  0  0  0  0  0  0  0  0  0  0
  132.2770  126.4560   65.5660 N   0  0  0  0  0  0  0  0  0  0  0  0
  132.2510  126.8670   66.9690 C   0  0  0  0  0  0  0  0  0  0  0  0
  130.9040  126.6560   67.6500 C   0  0  0  0  0  0  0  0  0  0  0  0
  130.3070  125.3920   67.6350 C   0  0  0  0  0  0  0  0  0  0  0  0
  129.0880  125.1900   68.2780 C   0  0  0  0  0  0  0  0  0  0  0  0
  128.4760  126.2500   68.9440 C   0  0  0  0  0  0  0  0  0  0  0  0
  129.0730  127.5080   68.9770 C   0  0  0  0  0  0  0  0  0  0  0  0
  130.2910  127.7100   68.3350 C   0  0  0  0  0  0  0  0  0  0  0  0
  134.1500  124.3060   62.7580 S   0  0  0  0  0  0  0  0  0  0  0  0
  133.3070  124.5080   61.2380 C   0  0  0  0  0  0  0  0  0  0  0  0
  133.7660  123.9840   60.1000 N   0  0  0  0  0  0  0  0  0  0  0  0
  1  2  1  0
  2  3  2  0
  3  4  1  0
  4  5  1  0
  4  6  2  0
  6  7  1  0
  7  8  1  0
  7  9  2  0
  9 10  1  0
 10 11  2  0
 10 12  1  0
 12 13  1  0
 13 14  1  0
 14 15  2  0
 15 16  1  0
 16 17  2  0
 17 18  1  0
 18 19  2  0
  9 20  1  0
 20 21  1  0
 21 22  2  0
 22  2  1  0
 21  6  1  0
 19 14  1  0
M  END
>  <Binding energies>  (43) 
[-7.01]

>  <Ligand effiencies>  (43) 
[-0.2804]

>  <Interactions>  (43) 
["V-A:ILE:369:CG2:3236, V-A:ASP:366:CG:3212, V-B:TYR:539:CE2:9848, V-B:TYR:539:CZ:9849, V-A:ARG:545:CZ:4926, V-B:GLU:543:CG:9879, V-A:GLU:543:CB:4906, V-A:ARG:545:CG:4922, V-A:GLU:543:CD:4908, V-A:TYR:484:CE2:4345, H-A:GLU:543:OE2:4910, H-A:GLY:454:N:4049, H-A:GLU:543:OE1:4909, V-B:GLU:543:CB:9878, V-A:HIS:456:CE1:4069, V-B:HIS:456:CE1:9041, V-A:TYR:484:CZ:4346, V-A:ARG:545:CD:4923, H-A:TYR:484:OH:4347, V-A:ASP:366:CB:3211, V-A:GLY:453:CA:4043, V-A:GLY:453:C:4041, V-B:GLU:543:C:9874, V-B:GLU:543:CA:9876, V-A:ASP:366:C:3207, V-A:ASP:366:CA:3209, V-A:ILE:369:CB:3235"]

$$$$
4ah_Grossjean_2025
     RDKit          3D

 28 30  0  0  0  0  0  0  0  0999 V2000
  132.7190  127.2550   74.4400 C   0  0  0  0  0  0  0  0  0  0  0  0
  131.3750  127.7160   74.3580 O   0  0  0  0  0  0  0  0  0  0  0  0
  130.5370  127.1970   73.3870 C   0  0  0  0  0  0  0  0  0  0  0  0
  130.2380  127.8490   72.1800 C   0  0  0  0  0  0  0  0  0  0  0  0
  129.3810  127.2660   71.2460 C   0  0  0  0  0  0  0  0  0  0  0  0
  129.1060  127.9670   69.9200 C   0  0  0  0  0  0  0  0  0  0  0  0
  129.6590  127.2670   68.7620 N   0  0  0  0  0  0  0  0  0  0  0  0
  130.9100  127.4200   68.2790 C   0  0  0  0  0  0  0  0  0  0  0  0
  131.7150  128.2180   68.7630 O   0  0  0  0  0  0  0  0  0  0  0  0
  131.2510  126.6100   67.1100 C   0  0  0  0  0  0  0  0  0  0  0  0
  132.9080  126.0540   66.8700 S   0  0  0  0  0  0  0  0  0  0  0  0
  132.4750  125.2770   65.3630 C   0  0  0  0  0  0  0  0  0  0  0  0
  133.3690  124.6150   64.6280 N   0  0  0  0  0  0  0  0  0  0  0  0
  132.9030  124.0580   63.4840 C   0  0  0  0  0  0  0  0  0  0  0  0
  133.9380  123.3120   62.6600 C   0  0  0  0  0  0  0  0  0  0  0  0
  131.5790  124.1450   63.0620 C   0  0  0  0  0  0  0  0  0  0  0  0
  130.6420  124.8430   63.8350 C   0  0  0  0  0  0  0  0  0  0  0  0
  129.2080  124.9110   63.3330 C   0  0  0  0  0  0  0  0  0  0  0  0
  131.0940  125.4430   65.0410 C   0  0  0  0  0  0  0  0  0  0  0  0
  130.4220  126.2180   66.0500 C   0  0  0  0  0  0  0  0  0  0  0  0
  129.0880  126.5280   65.9700 N   0  0  0  0  0  0  0  0  0  0  0  0
  128.8370  126.0070   71.5030 C   0  0  0  0  0  0  0  0  0  0  0  0
  129.1130  125.3340   72.7040 C   0  0  0  0  0  0  0  0  0  0  0  0
  128.5970  124.0930   73.0300 O   0  0  0  0  0  0  0  0  0  0  0  0
  129.2310  122.9200   72.5310 C   0  0  0  0  0  0  0  0  0  0  0  0
  129.9600  125.9440   73.6400 C   0  0  0  0  0  0  0  0  0  0  0  0
  130.2540  125.2890   74.8120 O   0  0  0  0  0  0  0  0  0  0  0  0
  131.2870  124.3200   74.6900 C   0  0  0  0  0  0  0  0  0  0  0  0
  1  2  1  0
  2  3  1  0
  3  4  2  0
  4  5  1  0
  5  6  1  0
  6  7  1  0
  7  8  1  0
  8  9  2  0
  8 10  1  0
 10 11  1  0
 11 12  1  0
 12 13  2  0
 13 14  1  0
 14 15  1  0
 14 16  2  0
 16 17  1  0
 17 18  1  0
 17 19  2  0
 19 20  1  0
 20 21  1  0
  5 22  2  0
 22 23  1  0
 23 24  1  0
 24 25  1  0
 23 26  2  0
 26 27  1  0
 27 28  1  0
 26  3  1  0
 20 10  2  0
 19 12  1  0
M  END
>  <Binding energies>  (44) 
[-6.51]

>  <Ligand effiencies>  (44) 
[-0.21]

>  <Interactions>  (44) 
["V-A:ARG:545:CZ:4926, V-A:GLY:454:CA:4048, V-B:GLU:543:CG:9879, V-B:GLU:543:CD:9880, V-A:GLU:543:CB:4906, V-A:ARG:545:CG:4922, V-A:GLU:543:CD:4908, H-A:GLY:454:N:4049, H-A:GLU:543:OE1:4909, V-A:HIS:456:CE1:4069, V-B:HIS:456:CE1:9041, H-B:GLU:543:OE2:9882, V-A:ARG:545:CD:4923, H-A:TYR:484:OH:4347, V-A:GLY:453:C:4041, V-B:HIS:456:CD2:9039, V-B:GLU:543:C:9874, V-A:HIS:456:CD2:4067, V-A:LYS:547:CE:4950, H-A:LYS:547:NZ:4951, H-B:LYS:547:NZ:9923, V-A:HIS:456:CG:4065, H-A:HIS:456:ND1:4066, V-A:LYS:547:CD:4949, V-A:HIS:456:CB:4064, V-A:TYR:484:CD2:4343, V-A:TYR:484:CG:4341, V-A:TYR:484:CB:4340"]

$$$$
4ai_Grossjean_2025
     RDKit          3D

 20 22  0  0  0  0  0  0  0  0999 V2000
  125.7210  128.5930   59.1710 C   0  0  0  0  0  0  0  0  0  0  0  0
  126.3860  128.2610   60.4940 C   0  0  0  0  0  0  0  0  0  0  0  0
  125.9350  128.8260   61.6850 C   0  0  0  0  0  0  0  0  0  0  0  0
  126.5590  128.5010   62.8950 C   0  0  0  0  0  0  0  0  0  0  0  0
  126.0290  129.1420   64.1680 C   0  0  0  0  0  0  0  0  0  0  0  0
  127.6490  127.5890   62.8550 C   0  0  0  0  0  0  0  0  0  0  0  0
  128.4970  127.0470   63.8810 C   0  0  0  0  0  0  0  0  0  0  0  0
  128.3550  127.3860   65.2040 N   0  0  0  0  0  0  0  0  0  0  0  0
  129.4650  126.1480   63.4060 C   0  0  0  0  0  0  0  0  0  0  0  0
  130.4890  125.4270   64.1650 C   0  0  0  0  0  0  0  0  0  0  0  0
  130.4480  124.1990   64.2670 O   0  0  0  0  0  0  0  0  0  0  0  0
  131.4610  126.2010   64.7110 N   0  0  0  0  0  0  0  0  0  0  0  0
  132.5500  125.7820   65.4640 C   0  0  0  0  0  0  0  0  0  0  0  0
  132.6740  126.0360   66.8300 C   0  0  0  0  0  0  0  0  0  0  0  0
  133.8740  125.4690   67.1920 C   0  0  0  0  0  0  0  0  0  0  0  0
  134.4430  124.9010   66.1020 O   0  0  0  0  0  0  0  0  0  0  0  0
  133.5940  125.1050   65.0130 N   0  0  0  0  0  0  0  0  0  0  0  0
  129.3630  125.9700   61.6530 S   0  0  0  0  0  0  0  0  0  0  0  0
  128.0130  127.0810   61.5710 C   0  0  0  0  0  0  0  0  0  0  0  0
  127.4220  127.3900   60.4170 N   0  0  0  0  0  0  0  0  0  0  0  0
  1  2  1  0
  2  3  2  0
  3  4  1  0
  4  5  1  0
  4  6  2  0
  6  7  1  0
  7  8  1  0
  7  9  2  0
  9 10  1  0
 10 11  2  0
 10 12  1  0
 12 13  1  0
 13 14  1  0
 14 15  2  0
 15 16  1  0
 16 17  1  0
  9 18  1  0
 18 19  1  0
 19 20  2  0
 20  2  1  0
 19  6  1  0
 17 13  2  0
M  END
>  <Binding energies>  (45) 
[-6.1]

>  <Ligand effiencies>  (45) 
[-0.2652173913043478]

>  <Interactions>  (45) 
["V-B:ASP:366:CG:8184, V-A:ARG:545:CZ:4926, V-B:GLU:543:CD:9880, V-A:ARG:545:CG:4922, V-A:GLU:543:CD:4908, H-A:GLU:543:OE2:4910, H-A:ARG:545:NE:4924, H-A:GLY:454:N:4049, H-A:GLU:543:OE1:4909, V-A:HIS:456:CE1:4069, H-A:ARG:545:NH2:4928, V-A:TYR:484:CZ:4346, H-B:GLU:543:OE2:9882, V-A:ARG:545:CD:4923, H-A:TYR:484:OH:4347, H-A:ILE:455:N:4054, V-B:ARG:545:CZ:9898, V-B:ASP:366:CB:8183"]

$$$$
4aj_Grossjean_2025
     RDKit          3D

 20 22  0  0  0  0  0  0  0  0999 V2000
  127.6570  122.8130   58.8000 C   0  0  0  0  0  0  0  0  0  0  0  0
  128.3720  122.8120   60.1390 C   0  0  0  0  0  0  0  0  0  0  0  0
  129.1360  121.7210   60.5430 C   0  0  0  0  0  0  0  0  0  0  0  0
  129.7820  121.7390   61.7850 C   0  0  0  0  0  0  0  0  0  0  0  0
  130.6050  120.5220   62.1800 C   0  0  0  0  0  0  0  0  0  0  0  0
  129.6280  122.8950   62.5960 C   0  0  0  0  0  0  0  0  0  0  0  0
  130.1370  123.2420   63.8950 C   0  0  0  0  0  0  0  0  0  0  0  0
  130.9390  122.3960   64.6180 N   0  0  0  0  0  0  0  0  0  0  0  0
  129.7430  124.5140   64.3400 C   0  0  0  0  0  0  0  0  0  0  0  0
  130.0660  125.1770   65.6050 C   0  0  0  0  0  0  0  0  0  0  0  0
  131.1970  125.0960   66.0880 O   0  0  0  0  0  0  0  0  0  0  0  0
  129.0510  125.8750   66.1720 N   0  0  0  0  0  0  0  0  0  0  0  0
  129.0960  126.5990   67.3560 C   0  0  0  0  0  0  0  0  0  0  0  0
  129.1320  127.9060   67.5020 N   0  0  0  0  0  0  0  0  0  0  0  0
  129.1640  128.2500   68.7750 C   0  0  0  0  0  0  0  0  0  0  0  0
  129.1560  127.2060   69.6960 C   0  0  0  0  0  0  0  0  0  0  0  0
  129.1020  125.6950   68.8350 S   0  0  0  0  0  0  0  0  0  0  0  0
  128.7090  125.3120   63.1540 S   0  0  0  0  0  0  0  0  0  0  0  0
  128.8210  123.9470   62.0670 C   0  0  0  0  0  0  0  0  0  0  0  0
  128.2030  123.9320   60.8850 N   0  0  0  0  0  0  0  0  0  0  0  0
  1  2  1  0
  2  3  2  0
  3  4  1  0
  4  5  1  0
  4  6  2  0
  6  7  1  0
  7  8  1  0
  7  9  2  0
  9 10  1  0
 10 11  2  0
 10 12  1  0
 12 13  1  0
 13 14  2  0
 14 15  1  0
 15 16  2  0
 16 17  1  0
  9 18  1  0
 18 19  1  0
 19 20  2  0
 20  2  1  0
 19  6  1  0
 17 13  1  0
M  END
>  <Binding energies>  (46) 
[-5.2]

>  <Ligand effiencies>  (46) 
[-0.22608695652173913]

>  <Interactions>  (46) 
["V-B:PRO:540:CA:9855, V-B:TYR:539:C:9839, V-B:PRO:540:N:9856, V-B:ALA:541:CB:9864, V-B:GLU:543:CG:9879, V-B:GLU:543:CD:9880, V-A:LEU:475:CD1:4257, V-A:GLU:543:CB:4906, V-A:TYR:484:CE2:4345, V-B:GLU:543:CB:9878, V-A:HIS:456:CE1:4069, V-B:HIS:456:CE1:9041, V-A:TYR:484:CZ:4346, H-B:GLU:543:OE2:9882, H-A:TYR:484:OH:4347, V-B:PRO:540:C:9853, V-B:GLU:543:C:9874, H-B:GLU:543:OE1:9881, V-A:LEU:475:CD2:4258"]

$$$$
4ak_Grossjean_2025
     RDKit          3D

 25 26  0  0  0  0  0  0  0  0999 V2000
  132.9990  119.3260   60.5150 C   0  0  0  0  0  0  0  0  0  0  0  0
  132.6140  118.0060   60.8650 O   0  0  0  0  0  0  0  0  0  0  0  0
  131.2040  117.8180   60.8980 C   0  0  0  0  0  0  0  0  0  0  0  0
  130.5870  118.7590   61.9400 C   0  0  0  0  0  0  0  0  0  0  0  0
  129.6870  119.6500   61.2950 O   0  0  0  0  0  0  0  0  0  0  0  0
  130.0310  121.0210   61.4440 C   0  0  0  0  0  0  0  0  0  0  0  0
  129.0730  121.8780   60.6070 C   0  0  0  0  0  0  0  0  0  0  0  0
  127.8820  122.1110   61.3480 O   0  0  0  0  0  0  0  0  0  0  0  0
  127.0250  123.0850   60.7670 C   0  0  0  0  0  0  0  0  0  0  0  0
  127.7640  124.4340   60.6950 C   0  0  0  0  0  0  0  0  0  0  0  0
  128.7390  124.6270   61.7690 N   0  0  0  0  0  0  0  0  0  0  0  0
  129.0670  125.8120   62.3210 C   0  0  0  0  0  0  0  0  0  0  0  0
  128.5420  126.8720   61.9720 O   0  0  0  0  0  0  0  0  0  0  0  0
  130.0830  125.7730   63.3720 C   0  0  0  0  0  0  0  0  0  0  0  0
  131.6930  125.1410   63.0300 S   0  0  0  0  0  0  0  0  0  0  0  0
  132.2130  125.4490   64.6710 C   0  0  0  0  0  0  0  0  0  0  0  0
  133.4460  125.1570   65.0880 N   0  0  0  0  0  0  0  0  0  0  0  0
  133.7190  125.4440   66.3840 C   0  0  0  0  0  0  0  0  0  0  0  0
  135.1270  125.1060   66.8380 C   0  0  0  0  0  0  0  0  0  0  0  0
  132.7990  126.0120   67.2630 C   0  0  0  0  0  0  0  0  0  0  0  0
  131.5060  126.3180   66.8230 C   0  0  0  0  0  0  0  0  0  0  0  0
  130.5370  126.9320   67.8200 C   0  0  0  0  0  0  0  0  0  0  0  0
  131.1820  126.0300   65.4700 C   0  0  0  0  0  0  0  0  0  0  0  0
  129.9790  126.2090   64.7020 C   0  0  0  0  0  0  0  0  0  0  0  0
  128.8410  126.7560   65.2390 N   0  0  0  0  0  0  0  0  0  0  0  0
  1  2  1  0
  2  3  1  0
  3  4  1  0
  4  5  1  0
  5  6  1  0
  6  7  1  0
  7  8  1  0
  8  9  1  0
  9 10  1  0
 10 11  1  0
 11 12  1  0
 12 13  2  0
 12 14  1  0
 14 15  1  0
 15 16  1  0
 16 17  2  0
 17 18  1  0
 18 19  1  0
 18 20  2  0
 20 21  1  0
 21 22  1  0
 21 23  2  0
 23 24  1  0
 24 25  1  0
 24 14  2  0
 23 16  1  0
M  END
>  <Binding energies>  (47) 
[-5.84]

>  <Ligand effiencies>  (47) 
[-0.20857142857142857]

>  <Interactions>  (47) 
["V-B:PRO:540:CB:9857, V-A:ILE:369:CG2:3236, H-B:ALA:541:N:9863, V-B:TYR:539:CD2:9846, V-B:PRO:540:CA:9855, V-B:ALA:541:CB:9864, V-A:ARG:545:CZ:4926, V-A:GLY:454:CA:4048, V-B:GLU:543:CD:9880, V-A:LEU:475:CD1:4257, V-A:GLU:543:CB:4906, V-A:ARG:545:CG:4922, V-A:GLU:543:CD:4908, H-A:ARG:545:NE:4924, H-A:GLY:454:N:4049, H-A:GLU:543:OE1:4909, V-A:HIS:456:CE1:4069, H-A:ARG:545:NH2:4928, V-A:TYR:484:CZ:4346, V-A:PRO:482:CG:4326, H-A:HIS:383:NE2:3393, H-A:SER:385:OG:3409, H-B:GLU:543:OE2:9882, V-A:ARG:545:CD:4923, H-A:TYR:484:OH:4347, V-A:GLY:453:CA:4043, V-A:GLY:453:C:4041, V-A:ILE:455:C:4051, V-A:GLY:454:C:4046, H-B:GLU:543:OE1:9881, V-A:PRO:482:CB:4325, V-A:ILE:455:CA:4053"]

$$$$
4al_Grossjean_2025
     RDKit          3D

 16 17  0  0  0  0  0  0  0  0999 V2000
  130.9830  117.4240   60.5070 C   0  0  0  0  0  0  0  0  0  0  0  0
  131.8200  118.3430   59.8220 O   0  0  0  0  0  0  0  0  0  0  0  0
  132.9330  118.8480   60.4150 C   0  0  0  0  0  0  0  0  0  0  0  0
  134.0540  118.3440   60.3180 O   0  0  0  0  0  0  0  0  0  0  0  0
  132.6630  120.0740   61.1960 C   0  0  0  0  0  0  0  0  0  0  0  0
  133.9880  120.9090   62.0120 S   0  0  0  0  0  0  0  0  0  0  0  0
  132.8940  122.1250   62.6320 C   0  0  0  0  0  0  0  0  0  0  0  0
  133.3200  123.1320   63.3950 N   0  0  0  0  0  0  0  0  0  0  0  0
  132.3710  124.0070   63.8110 C   0  0  0  0  0  0  0  0  0  0  0  0
  132.8760  125.1450   64.6780 C   0  0  0  0  0  0  0  0  0  0  0  0
  131.0200  123.8980   63.4830 C   0  0  0  0  0  0  0  0  0  0  0  0
  130.5770  122.8400   62.6820 C   0  0  0  0  0  0  0  0  0  0  0  0
  129.0950  122.7640   62.3520 C   0  0  0  0  0  0  0  0  0  0  0  0
  131.5440  121.9030   62.2280 C   0  0  0  0  0  0  0  0  0  0  0  0
  131.4430  120.7260   61.4100 C   0  0  0  0  0  0  0  0  0  0  0  0
  130.2520  120.2890   60.8900 N   0  0  0  0  0  0  0  0  0  0  0  0
  1  2  1  0
  2  3  1  0
  3  4  2  0
  3  5  1  0
  5  6  1  0
  6  7  1  0
  7  8  2  0
  8  9  1  0
  9 10  1  0
  9 11  2  0
 11 12  1  0
 12 13  1  0
 12 14  2  0
 14 15  1  0
 15 16  1  0
 15  5  2  0
 14  7  1  0
M  END
>  <Binding energies>  (48) 
[-5.15]

>  <Ligand effiencies>  (48) 
[-0.28611111111111115]

>  <Interactions>  (48) 
["V-A:ILE:369:CG2:3236, V-B:TYR:539:CD2:9846, V-B:TYR:539:C:9839, V-B:ALA:541:CB:9864, V-A:ARG:545:CZ:4926, V-A:GLY:454:CA:4048, V-A:LEU:475:CD1:4257, H-A:GLY:454:N:4049, V-A:PRO:482:CG:4326, H-A:HIS:383:NE2:3393, H-A:SER:385:OG:3409, H-A:TYR:484:OH:4347, V-A:ILE:369:CD1:3238, H-B:TYR:539:O:9840, V-A:HIS:383:CE1:3392"]

$$$$
4bc_Grossjean_2025
     RDKit          3D

 26 28  0  0  0  0  0  0  0  0999 V2000
  129.4990  128.0090   70.4090 C   0  0  0  0  0  0  0  0  0  0  0  0
  129.7440  128.4140   69.0660 O   0  0  0  0  0  0  0  0  0  0  0  0
  130.0710  127.4580   68.1240 C   0  0  0  0  0  0  0  0  0  0  0  0
  129.0220  126.6770   67.6390 C   0  0  0  0  0  0  0  0  0  0  0  0
  129.2540  125.6880   66.6880 C   0  0  0  0  0  0  0  0  0  0  0  0
  130.5440  125.4710   66.2000 C   0  0  0  0  0  0  0  0  0  0  0  0
  130.6850  124.4410   65.2530 N   0  0  0  0  0  0  0  0  0  0  0  0
  130.4570  124.4670   63.9170 C   0  0  0  0  0  0  0  0  0  0  0  0
  130.0340  125.4530   63.3110 O   0  0  0  0  0  0  0  0  0  0  0  0
  130.7420  123.2180   63.2040 C   0  0  0  0  0  0  0  0  0  0  0  0
  129.4310  122.1250   62.7710 S   0  0  0  0  0  0  0  0  0  0  0  0
  130.5480  121.0030   62.0300 C   0  0  0  0  0  0  0  0  0  0  0  0
  130.1270  119.8720   61.4660 N   0  0  0  0  0  0  0  0  0  0  0  0
  131.0850  119.0840   60.9280 C   0  0  0  0  0  0  0  0  0  0  0  0
  130.5840  117.8030   60.2860 C   0  0  0  0  0  0  0  0  0  0  0  0
  132.4420  119.3960   60.9400 C   0  0  0  0  0  0  0  0  0  0  0  0
  132.8920  120.5860   61.5330 C   0  0  0  0  0  0  0  0  0  0  0  0
  134.3960  120.8850   61.5240 C   0  0  0  0  0  0  0  0  0  0  0  0
  134.6990  122.0150   60.8820 F   0  0  0  0  0  0  0  0  0  0  0  0
  134.8380  121.0050   62.7760 F   0  0  0  0  0  0  0  0  0  0  0  0
  135.0500  119.8940   60.9190 F   0  0  0  0  0  0  0  0  0  0  0  0
  131.9060  121.4420   62.1090 C   0  0  0  0  0  0  0  0  0  0  0  0
  131.9840  122.7140   62.7850 C   0  0  0  0  0  0  0  0  0  0  0  0
  133.1710  123.3690   62.9950 N   0  0  0  0  0  0  0  0  0  0  0  0
  131.6080  126.2430   66.6920 C   0  0  0  0  0  0  0  0  0  0  0  0
  131.3710  127.2310   67.6440 C   0  0  0  0  0  0  0  0  0  0  0  0
  1  2  1  0
  2  3  1  0
  3  4  2  0
  4  5  1  0
  5  6  2  0
  6  7  1  0
  7  8  1  0
  8  9  2  0
  8 10  1  0
 10 11  1  0
 11 12  1  0
 12 13  2  0
 13 14  1  0
 14 15  1  0
 14 16  2  0
 16 17  1  0
 17 18  1  0
 18 19  1  0
 18 20  1  0
 18 21  1  0
 17 22  2  0
 22 23  1  0
 23 24  1  0
  6 25  1  0
 25 26  2  0
 26  3  1  0
 23 10  2  0
 22 12  1  0
M  END
>  <Binding energies>  (49) 
[-5.46]

>  <Ligand effiencies>  (49) 
[-0.18827586206896552]

>  <Interactions>  (49) 
["V-A:ILE:369:CG2:3236, H-B:ALA:541:N:9863, V-B:TYR:539:CD2:9846, V-A:SER:385:C:3404, V-A:SER:385:CA:3406, V-B:TYR:539:C:9839, V-B:ALA:541:CB:9864, V-A:GLY:454:CA:4048, V-B:GLU:543:CG:9879, V-B:GLU:543:CD:9880, V-A:LEU:475:CD1:4257, V-A:GLU:543:CB:4906, V-A:ARG:545:CG:4922, V-A:GLU:543:CD:4908, V-A:TYR:484:CE2:4345, V-B:GLU:543:CB:9878, V-A:HIS:456:CE1:4069, V-B:HIS:456:CE1:9041, V-A:TYR:484:CZ:4346, V-A:PRO:482:CG:4326, H-A:TYR:484:OH:4347, V-A:GLY:453:C:4041, V-A:ILE:369:CD1:3238, V-B:TYR:539:CB:9843, V-B:ALA:541:CA:9862, V-A:ILE:369:CB:3235, V-A:ILE:369:CG1:3237"]

$$$$
4bf_Grossjean_2025
     RDKit          3D

 24 26  0  0  0  0  0  0  0  0999 V2000
  130.6060  117.8370   60.1440 C   0  0  0  0  0  0  0  0  0  0  0  0
  131.0670  119.1130   60.8270 C   0  0  0  0  0  0  0  0  0  0  0  0
  132.4190  119.4300   60.9150 C   0  0  0  0  0  0  0  0  0  0  0  0
  132.8320  120.6110   61.5520 C   0  0  0  0  0  0  0  0  0  0  0  0
  134.3310  120.9170   61.6280 C   0  0  0  0  0  0  0  0  0  0  0  0
  134.6550  122.0840   61.0640 F   0  0  0  0  0  0  0  0  0  0  0  0
  134.7180  120.9690   62.9020 F   0  0  0  0  0  0  0  0  0  0  0  0
  135.0190  119.9650   60.9970 F   0  0  0  0  0  0  0  0  0  0  0  0
  131.8130  121.4510   62.0930 C   0  0  0  0  0  0  0  0  0  0  0  0
  131.8500  122.7080   62.7990 C   0  0  0  0  0  0  0  0  0  0  0  0
  133.0220  123.3610   63.0850 N   0  0  0  0  0  0  0  0  0  0  0  0
  130.5850  123.2010   63.1620 C   0  0  0  0  0  0  0  0  0  0  0  0
  130.2590  124.4200   63.9080 C   0  0  0  0  0  0  0  0  0  0  0  0
  129.6850  125.3590   63.3550 O   0  0  0  0  0  0  0  0  0  0  0  0
  130.6200  124.4150   65.2140 N   0  0  0  0  0  0  0  0  0  0  0  0
  130.4980  125.4310   66.1820 C   0  0  0  0  0  0  0  0  0  0  0  0
  129.2980  125.8320   66.7950 C   0  0  0  0  0  0  0  0  0  0  0  0
  129.3130  126.8680   67.7320 C   0  0  0  0  0  0  0  0  0  0  0  0
  130.5310  127.4820   68.0290 C   0  0  0  0  0  0  0  0  0  0  0  0
  131.7000  127.1180   67.4460 N   0  0  0  0  0  0  0  0  0  0  0  0
  131.6690  126.1100   66.5370 C   0  0  0  0  0  0  0  0  0  0  0  0
  129.3030  122.1110   62.6380 S   0  0  0  0  0  0  0  0  0  0  0  0
  130.4630  121.0090   61.9340 C   0  0  0  0  0  0  0  0  0  0  0  0
  130.0770  119.8880   61.3280 N   0  0  0  0  0  0  0  0  0  0  0  0
  1  2  1  0
  2  3  2  0
  3  4  1  0
  4  5  1  0
  5  6  1  0
  5  7  1  0
  5  8  1  0
  4  9  2  0
  9 10  1  0
 10 11  1  0
 10 12  2  0
 12 13  1  0
 13 14  2  0
 13 15  1  0
 15 16  1  0
 16 17  2  0
 17 18  1  0
 18 19  2  0
 19 20  1  0
 20 21  2  0
 12 22  1  0
 22 23  1  0
 23 24  2  0
 24  2  1  0
 23  9  1  0
 21 16  1  0
M  END
>  <Binding energies>  (50) 
[-5.32]

>  <Ligand effiencies>  (50) 
[-0.19703703703703704]

>  <Interactions>  (50) 
["V-A:ILE:369:CG2:3236, H-B:ALA:541:N:9863, V-B:TYR:539:CD2:9846, V-A:SER:385:C:3404, V-A:SER:385:CA:3406, V-B:TYR:539:C:9839, V-B:ALA:541:CB:9864, V-A:GLY:454:CA:4048, V-B:GLU:543:CG:9879, V-B:GLU:543:CD:9880, V-A:LEU:475:CD1:4257, V-A:GLU:543:CB:4906, V-A:GLU:543:CD:4908, V-A:TYR:484:CE2:4345, V-B:GLU:543:CB:9878, V-A:HIS:456:CE1:4069, V-A:TYR:484:CZ:4346, V-A:PRO:482:CG:4326, H-A:TYR:484:OH:4347, V-A:GLY:453:C:4041, V-A:ILE:369:CD1:3238, V-B:TYR:539:CB:9843, V-B:ALA:541:CA:9862, V-A:ILE:369:CB:3235, V-A:ILE:369:CG1:3237"]

$$$$
4bh_Grossjean_2025
     RDKit          3D

 31 33  0  0  0  0  0  0  0  0999 V2000
  129.3150  122.8160   72.5740 C   0  0  0  0  0  0  0  0  0  0  0  0
  128.6240  123.9930   72.9780 O   0  0  0  0  0  0  0  0  0  0  0  0
  129.1340  125.2320   72.6360 C   0  0  0  0  0  0  0  0  0  0  0  0
  128.8830  125.8710   71.4110 C   0  0  0  0  0  0  0  0  0  0  0  0
  129.4340  127.1220   71.1310 C   0  0  0  0  0  0  0  0  0  0  0  0
  129.1140  127.8210   69.8150 C   0  0  0  0  0  0  0  0  0  0  0  0
  129.7140  127.1720   68.6480 N   0  0  0  0  0  0  0  0  0  0  0  0
  130.9800  127.3520   68.2190 C   0  0  0  0  0  0  0  0  0  0  0  0
  131.7600  128.1350   68.7650 O   0  0  0  0  0  0  0  0  0  0  0  0
  131.3690  126.5940   67.0290 C   0  0  0  0  0  0  0  0  0  0  0  0
  133.0470  126.1110   66.8020 S   0  0  0  0  0  0  0  0  0  0  0  0
  132.6700  125.3710   65.2630 C   0  0  0  0  0  0  0  0  0  0  0  0
  133.6080  124.7730   64.5310 N   0  0  0  0  0  0  0  0  0  0  0  0
  133.1950  124.2350   63.3600 C   0  0  0  0  0  0  0  0  0  0  0  0
  134.2810  123.5600   62.5410 C   0  0  0  0  0  0  0  0  0  0  0  0
  131.8790  124.2790   62.9090 C   0  0  0  0  0  0  0  0  0  0  0  0
  130.8860  124.9100   63.6750 C   0  0  0  0  0  0  0  0  0  0  0  0
  129.4500  124.9300   63.1390 C   0  0  0  0  0  0  0  0  0  0  0  0
  128.8520  126.1140   63.2920 F   0  0  0  0  0  0  0  0  0  0  0  0
  129.4510  124.6500   61.8360 F   0  0  0  0  0  0  0  0  0  0  0  0
  128.7150  124.0240   63.7840 F   0  0  0  0  0  0  0  0  0  0  0  0
  131.2880  125.4900   64.9140 C   0  0  0  0  0  0  0  0  0  0  0  0
  130.5730  126.2070   65.9400 C   0  0  0  0  0  0  0  0  0  0  0  0
  129.2310  126.4780   65.8590 N   0  0  0  0  0  0  0  0  0  0  0  0
  130.2200  127.7580   72.0930 C   0  0  0  0  0  0  0  0  0  0  0  0
  130.4940  127.1400   73.3230 C   0  0  0  0  0  0  0  0  0  0  0  0
  131.2750  127.7050   74.3150 O   0  0  0  0  0  0  0  0  0  0  0  0
  132.6380  127.3120   74.4380 C   0  0  0  0  0  0  0  0  0  0  0  0
  129.9490  125.8730   73.5790 C   0  0  0  0  0  0  0  0  0  0  0  0
  130.1940  125.2640   74.7870 O   0  0  0  0  0  0  0  0  0  0  0  0
  131.2720  124.3390   74.7590 C   0  0  0  0  0  0  0  0  0  0  0  0
  1  2  1  0
  2  3  1  0
  3  4  2  0
  4  5  1  0
  5  6  1  0
  6  7  1  0
  7  8  1  0
  8  9  2  0
  8 10  1  0
 10 11  1  0
 11 12  1  0
 12 13  2  0
 13 14  1  0
 14 15  1  0
 14 16  2  0
 16 17  1  0
 17 18  1  0
 18 19  1  0
 18 20  1  0
 18 21  1  0
 17 22  2  0
 22 23  1  0
 23 24  1  0
  5 25  2  0
 25 26  1  0
 26 27  1  0
 27 28  1  0
 26 29  2  0
 29 30  1  0
 30 31  1  0
 29  3  1  0
 23 10  2  0
 22 12  1  0
M  END
>  <Binding energies>  (51) 
[-5.97]

>  <Ligand effiencies>  (51) 
[-0.17558823529411763]

>  <Interactions>  (51) 
["V-A:ARG:545:CZ:4926, V-A:GLY:454:CA:4048, V-B:GLU:543:CG:9879, V-B:GLU:543:CD:9880, V-A:GLU:543:CB:4906, V-A:ARG:545:CG:4922, V-A:GLU:543:CD:4908, H-A:GLY:454:N:4049, H-A:GLU:543:OE1:4909, V-A:HIS:456:CE1:4069, H-A:ARG:545:NH2:4928, V-B:HIS:456:CE1:9041, H-B:GLU:543:OE2:9882, V-A:ARG:545:CD:4923, H-A:TYR:484:OH:4347, V-A:GLY:453:CA:4043, V-A:GLY:453:C:4041, V-A:ILE:369:CD1:3238, V-B:GLU:543:C:9874, V-A:HIS:456:CD2:4067, V-A:LYS:547:CE:4950, H-A:LYS:547:NZ:4951, H-B:LYS:547:NZ:9923, V-A:HIS:456:CG:4065, H-A:HIS:456:ND1:4066, V-A:LYS:547:CD:4949, V-A:HIS:456:CB:4064, V-A:TYR:484:CD2:4343, V-A:TYR:484:CG:4341, V-A:TYR:484:CB:4340"]

$$$$
4bi_Grossjean_2025
     RDKit          3D

 23 25  0  0  0  0  0  0  0  0999 V2000
  135.5170  125.4700   66.8960 C   0  0  0  0  0  0  0  0  0  0  0  0
  134.0880  125.5810   66.3950 C   0  0  0  0  0  0  0  0  0  0  0  0
  133.0840  126.1100   67.2010 C   0  0  0  0  0  0  0  0  0  0  0  0
  131.7670  126.2110   66.7230 C   0  0  0  0  0  0  0  0  0  0  0  0
  130.6980  126.8070   67.6440 C   0  0  0  0  0  0  0  0  0  0  0  0
  129.6970  127.3860   66.9770 F   0  0  0  0  0  0  0  0  0  0  0  0
  130.1690  125.8480   68.4030 F   0  0  0  0  0  0  0  0  0  0  0  0
  131.2450  127.7370   68.4280 F   0  0  0  0  0  0  0  0  0  0  0  0
  131.5180  125.7470   65.3970 C   0  0  0  0  0  0  0  0  0  0  0  0
  130.3260  125.6870   64.5870 C   0  0  0  0  0  0  0  0  0  0  0  0
  129.1020  126.1150   65.0350 N   0  0  0  0  0  0  0  0  0  0  0  0
  130.5310  125.1600   63.3010 C   0  0  0  0  0  0  0  0  0  0  0  0
  129.5500  124.9450   62.2340 C   0  0  0  0  0  0  0  0  0  0  0  0
  129.7760  125.3290   61.0840 O   0  0  0  0  0  0  0  0  0  0  0  0
  128.4200  124.2940   62.6050 N   0  0  0  0  0  0  0  0  0  0  0  0
  127.3400  123.9500   61.8020 C   0  0  0  0  0  0  0  0  0  0  0  0
  126.5720  124.8890   61.1160 C   0  0  0  0  0  0  0  0  0  0  0  0
  125.6170  124.1540   60.4500 C   0  0  0  0  0  0  0  0  0  0  0  0
  125.8020  122.8390   60.7210 O   0  0  0  0  0  0  0  0  0  0  0  0
  126.8970  122.7230   61.5800 N   0  0  0  0  0  0  0  0  0  0  0  0
  132.2150  124.6970   63.0640 S   0  0  0  0  0  0  0  0  0  0  0  0
  132.6360  125.2270   64.6750 C   0  0  0  0  0  0  0  0  0  0  0  0
  133.8840  125.1350   65.1340 N   0  0  0  0  0  0  0  0  0  0  0  0
  1  2  1  0
  2  3  2  0
  3  4  1  0
  4  5  1  0
  5  6  1  0
  5  7  1  0
  5  8  1  0
  4  9  2  0
  9 10  1  0
 10 11  1  0
 10 12  2  0
 12 13  1  0
 13 14  2  0
 13 15  1  0
 15 16  1  0
 16 17  1  0
 17 18  2  0
 18 19  1  0
 19 20  1  0
 12 21  1  0
 21 22  1  0
 22 23  2  0
 23  2  1  0
 22  9  1  0
 20 16  2  0
M  END
>  <Binding energies>  (52) 
[-5.45]

>  <Ligand effiencies>  (52) 
[-0.20961538461538462]

>  <Interactions>  (52) 
["V-B:PRO:540:CB:9857, H-B:ALA:541:N:9863, V-A:ARG:545:CZ:4926, V-B:GLU:543:CG:9879, V-B:GLU:543:CD:9880, V-A:GLU:543:CB:4906, V-A:ARG:545:CG:4922, V-A:GLU:543:CD:4908, V-A:TYR:484:CE2:4345, H-A:ARG:545:NE:4924, H-A:GLY:454:N:4049, H-A:GLU:543:OE1:4909, V-A:HIS:456:CE1:4069, H-A:ARG:545:NH2:4928, H-B:GLU:543:OE2:9882, V-A:ARG:545:CD:4923, H-A:TYR:484:OH:4347, V-A:GLY:453:CA:4043, V-A:GLY:453:C:4041, V-A:ILE:455:C:4051, H-B:GLU:543:OE1:9881, V-A:GLU:543:C:4902, V-A:ILE:455:CA:4053, V-A:ARG:545:CB:4921, V-A:VAL:452:CG2:4039"]

$$$$
4bj_Grossjean_2025
     RDKit          3D

 23 25  0  0  0  0  0  0  0  0999 V2000
  127.3360  122.0980   57.1460 C   0  0  0  0  0  0  0  0  0  0  0  0
  128.4070  122.7230   58.0210 C   0  0  0  0  0  0  0  0  0  0  0  0
  129.2850  123.6750   57.5100 C   0  0  0  0  0  0  0  0  0  0  0  0
  130.2760  124.2400   58.3290 C   0  0  0  0  0  0  0  0  0  0  0  0
  131.2210  125.2830   57.7220 C   0  0  0  0  0  0  0  0  0  0  0  0
  130.9640  125.5350   56.4370 F   0  0  0  0  0  0  0  0  0  0  0  0
  131.1100  126.4330   58.3850 F   0  0  0  0  0  0  0  0  0  0  0  0
  132.4790  124.8490   57.8000 F   0  0  0  0  0  0  0  0  0  0  0  0
  130.3320  123.7980   59.6840 C   0  0  0  0  0  0  0  0  0  0  0  0
  131.1910  124.1370   60.7930 C   0  0  0  0  0  0  0  0  0  0  0  0
  132.2110  125.0490   60.6880 N   0  0  0  0  0  0  0  0  0  0  0  0
  130.8850  123.4590   61.9840 C   0  0  0  0  0  0  0  0  0  0  0  0
  131.5520  123.5540   63.2850 C   0  0  0  0  0  0  0  0  0  0  0  0
  131.6900  122.5570   63.9970 O   0  0  0  0  0  0  0  0  0  0  0  0
  132.0030  124.7880   63.6200 N   0  0  0  0  0  0  0  0  0  0  0  0
  132.6730  125.1430   64.7830 C   0  0  0  0  0  0  0  0  0  0  0  0
  133.9560  125.0190   65.0460 N   0  0  0  0  0  0  0  0  0  0  0  0
  134.2500  125.4660   66.2500 C   0  0  0  0  0  0  0  0  0  0  0  0
  133.1880  125.9680   66.9960 C   0  0  0  0  0  0  0  0  0  0  0  0
  131.7290  125.8400   66.0600 S   0  0  0  0  0  0  0  0  0  0  0  0
  129.5300  122.3560   61.7610 S   0  0  0  0  0  0  0  0  0  0  0  0
  129.3700  122.8190   60.0830 C   0  0  0  0  0  0  0  0  0  0  0  0
  128.4340  122.2840   59.3010 N   0  0  0  0  0  0  0  0  0  0  0  0
  1  2  1  0
  2  3  2  0
  3  4  1  0
  4  5  1  0
  5  6  1  0
  5  7  1  0
  5  8  1  0
  4  9  2  0
  9 10  1  0
 10 11  1  0
 10 12  2  0
 12 13  1  0
 13 14  2  0
 13 15  1  0
 15 16  1  0
 16 17  2  0
 17 18  1  0
 18 19  2  0
 19 20  1  0
 12 21  1  0
 21 22  1  0
 22 23  2  0
 23  2  1  0
 22  9  1  0
 20 16  1  0
M  END
>  <Binding energies>  (53) 
[-5.05]

>  <Ligand effiencies>  (53) 
[-0.19423076923076923]

>  <Interactions>  (53) 
["V-A:ASP:366:CG:3212, V-B:TYR:539:CD2:9846, V-B:PRO:540:CA:9855, V-B:TYR:539:C:9839, V-B:TYR:539:CE2:9848, V-B:TYR:539:CZ:9849, V-B:PRO:540:N:9856, V-B:ALA:541:CB:9864, V-A:ARG:545:CZ:4926, V-A:ARG:545:CG:4922, H-A:ARG:545:NE:4924, H-A:GLY:454:N:4049, V-B:MET:535:CE:9807, V-A:HIS:456:CE1:4069, V-B:TYR:539:CA:9841, H-A:ARG:545:NH2:4928, V-A:ARG:545:CD:4923, H-A:TYR:484:OH:4347, H-A:ASP:366:OD2:3214, V-A:ASP:366:CB:3211, V-A:GLY:453:CA:4043, V-A:GLY:453:C:4041, H-A:ASP:366:OD1:3213, V-A:ASP:366:C:3207, V-A:ASP:366:CA:3209"]

$$$$
4bk_Grossjean_2025
     RDKit          3D

 28 29  0  0  0  0  0  0  0  0999 V2000
  130.5940  133.0680   73.3760 C   0  0  0  0  0  0  0  0  0  0  0  0
  129.9300  131.8480   73.6660 O   0  0  0  0  0  0  0  0  0  0  0  0
  128.7570  131.6440   72.8880 C   0  0  0  0  0  0  0  0  0  0  0  0
  128.3030  130.1850   73.0210 C   0  0  0  0  0  0  0  0  0  0  0  0
  129.2820  129.4490   73.7430 O   0  0  0  0  0  0  0  0  0  0  0  0
  129.5480  128.1620   73.2020 C   0  0  0  0  0  0  0  0  0  0  0  0
  130.2570  128.3150   71.8500 C   0  0  0  0  0  0  0  0  0  0  0  0
  129.2860  128.4780   70.8250 O   0  0  0  0  0  0  0  0  0  0  0  0
  129.2440  127.4010   69.8960 C   0  0  0  0  0  0  0  0  0  0  0  0
  128.8970  127.9450   68.5000 C   0  0  0  0  0  0  0  0  0  0  0  0
  129.6690  127.3280   67.4200 N   0  0  0  0  0  0  0  0  0  0  0  0
  130.1400  126.0640   67.4230 C   0  0  0  0  0  0  0  0  0  0  0  0
  129.9380  125.2860   68.3570 O   0  0  0  0  0  0  0  0  0  0  0  0
  130.9020  125.6590   66.2410 C   0  0  0  0  0  0  0  0  0  0  0  0
  132.6480  125.8920   66.1920 S   0  0  0  0  0  0  0  0  0  0  0  0
  132.7430  125.1780   64.6010 C   0  0  0  0  0  0  0  0  0  0  0  0
  133.9050  125.0580   63.9600 N   0  0  0  0  0  0  0  0  0  0  0  0
  133.8530  124.4870   62.7350 C   0  0  0  0  0  0  0  0  0  0  0  0
  135.1890  124.3580   62.0250 C   0  0  0  0  0  0  0  0  0  0  0  0
  132.6770  124.0380   62.1400 C   0  0  0  0  0  0  0  0  0  0  0  0
  131.4490  124.1620   62.8070 C   0  0  0  0  0  0  0  0  0  0  0  0
  130.1820  123.6570   62.1100 C   0  0  0  0  0  0  0  0  0  0  0  0
  130.4160  123.1700   60.8900 F   0  0  0  0  0  0  0  0  0  0  0  0
  129.6290  122.6820   62.8310 F   0  0  0  0  0  0  0  0  0  0  0  0
  129.3100  124.6560   61.9800 F   0  0  0  0  0  0  0  0  0  0  0  0
  131.4690  124.7590   64.1030 C   0  0  0  0  0  0  0  0  0  0  0  0
  130.4370  125.0450   65.0680 C   0  0  0  0  0  0  0  0  0  0  0  0
  129.1160  124.7430   64.8530 N   0  0  0  0  0  0  0  0  0  0  0  0
  1  2  1  0
  2  3  1  0
  3  4  1  0
  4  5  1  0
  5  6  1  0
  6  7  1  0
  7  8  1  0
  8  9  1  0
  9 10  1  0
 10 11  1  0
 11 12  1  0
 12 13  2  0
 12 14  1  0
 14 15  1  0
 15 16  1  0
 16 17  2  0
 17 18  1  0
 18 19  1  0
 18 20  2  0
 20 21  1  0
 21 22  1  0
 22 23  1  0
 22 24  1  0
 22 25  1  0
 21 26  2  0
 26 27  1  0
 27 28  1  0
 27 14  2  0
 26 16  1  0
M  END
>  <Binding energies>  (54) 
[-5.75]

>  <Ligand effiencies>  (54) 
[-0.18548387096774194]

>  <Interactions>  (54) 
["V-A:ASP:366:CG:3212, V-B:ALA:541:CB:9864, V-A:ARG:545:CZ:4926, V-B:GLU:543:CG:9879, V-B:GLU:543:CD:9880, V-A:GLU:543:CB:4906, V-A:ARG:545:CG:4922, V-A:GLU:543:CD:4908, H-A:GLY:454:N:4049, H-A:GLU:543:OE1:4909, V-B:GLU:543:CB:9878, V-A:HIS:456:CE1:4069, H-A:ARG:545:NH1:4927, H-A:ARG:545:NH2:4928, V-B:HIS:456:CE1:9041, V-A:TYR:484:CZ:4346, H-B:GLU:543:OE2:9882, V-A:ARG:545:CD:4923, H-A:TYR:484:OH:4347, V-A:GLY:453:CA:4043, V-A:GLY:453:C:4041, V-A:ILE:369:CD1:3238, V-B:HIS:456:CD2:9039, V-A:LYS:547:CE:4950, H-A:LYS:547:NZ:4951, V-A:GLY:544:CA:4914, H-B:GLU:543:OE1:9881, V-B:HIS:456:CG:9037, V-B:TYR:484:CG:9313, V-B:TYR:484:CB:9312, V-B:TYR:484:CD2:9315"]

$$$$
4cd_Grossjean_2025
     RDKit          3D

 29 32  0  0  0  0  0  0  0  0999 V2000
  131.3240  122.6030   64.1870 N   0  0  0  0  0  0  0  0  0  0  0  0
  130.3340  123.3800   63.6410 C   0  0  0  0  0  0  0  0  0  0  0  0
  129.8550  124.5540   64.2450 C   0  0  0  0  0  0  0  0  0  0  0  0
  130.2630  125.1580   65.5170 C   0  0  0  0  0  0  0  0  0  0  0  0
  131.4540  125.2380   65.8200 O   0  0  0  0  0  0  0  0  0  0  0  0
  129.2510  125.6120   66.2950 N   0  0  0  0  0  0  0  0  0  0  0  0
  129.2960  126.1890   67.5780 C   0  0  0  0  0  0  0  0  0  0  0  0
  129.9200  127.4370   67.6670 C   0  0  0  0  0  0  0  0  0  0  0  0
  130.0030  128.0950   68.8900 C   0  0  0  0  0  0  0  0  0  0  0  0
  129.4550  127.5090   70.0280 C   0  0  0  0  0  0  0  0  0  0  0  0
  128.8180  126.2720   69.9520 C   0  0  0  0  0  0  0  0  0  0  0  0
  128.7330  125.6100   68.7290 C   0  0  0  0  0  0  0  0  0  0  0  0
  128.5960  125.3040   63.2670 S   0  0  0  0  0  0  0  0  0  0  0  0
  128.7130  124.0410   62.0660 C   0  0  0  0  0  0  0  0  0  0  0  0
  127.9430  124.0410   60.9800 N   0  0  0  0  0  0  0  0  0  0  0  0
  128.0970  123.0090   60.1090 C   0  0  0  0  0  0  0  0  0  0  0  0
  127.2130  123.0360   58.8960 C   0  0  0  0  0  0  0  0  0  0  0  0
  127.3900  122.1060   57.8580 C   0  0  0  0  0  0  0  0  0  0  0  0
  126.5740  122.1240   56.7300 C   0  0  0  0  0  0  0  0  0  0  0  0
  125.5650  123.0760   56.6250 C   0  0  0  0  0  0  0  0  0  0  0  0
  125.3660  124.0050   57.6390 C   0  0  0  0  0  0  0  0  0  0  0  0
  126.1820  123.9820   58.7660 C   0  0  0  0  0  0  0  0  0  0  0  0
  129.0350  121.9950   60.3230 C   0  0  0  0  0  0  0  0  0  0  0  0
  129.8550  121.9880   61.4630 C   0  0  0  0  0  0  0  0  0  0  0  0
  130.8600  120.8430   61.6370 C   0  0  0  0  0  0  0  0  0  0  0  0
  130.8620  119.9870   60.6120 F   0  0  0  0  0  0  0  0  0  0  0  0
  132.0930  121.3370   61.7460 F   0  0  0  0  0  0  0  0  0  0  0  0
  130.5650  120.1470   62.7350 F   0  0  0  0  0  0  0  0  0  0  0  0
  129.6940  123.0570   62.3890 C   0  0  0  0  0  0  0  0  0  0  0  0
  1  2  1  0
  2  3  2  0
  3  4  1  0
  4  5  2  0
  4  6  1  0
  6  7  1  0
  7  8  2  0
  8  9  1  0
  9 10  2  0
 10 11  1  0
 11 12  2  0
  3 13  1  0
 13 14  1  0
 14 15  2  0
 15 16  1  0
 16 17  1  0
 17 18  2  0
 18 19  1  0
 19 20  2  0
 20 21  1  0
 21 22  2  0
 16 23  2  0
 23 24  1  0
 24 25  1  0
 25 26  1  0
 25 27  1  0
 25 28  1  0
 24 29  2  0
 29  2  1  0
 12  7  1  0
 29 14  1  0
 22 17  1  0
M  END
>  <Binding energies>  (55) 
[-7.4]

>  <Ligand effiencies>  (55) 
[-0.23125]

>  <Interactions>  (55) 
["V-B:PRO:540:CB:9857, V-B:TYR:539:CD2:9846, V-B:PRO:540:CA:9855, V-B:TYR:539:C:9839, V-B:PRO:540:N:9856, V-B:LEU:363:CD1:8160, V-B:ALA:541:CB:9864, V-B:GLU:543:CG:9879, V-B:GLU:543:CD:9880, V-A:LEU:475:CD1:4257, V-A:GLU:543:CB:4906, V-A:GLU:543:CD:4908, V-B:PRO:540:CD:9859, V-B:MET:535:CE:9807, V-B:GLU:543:CB:9878, V-A:HIS:456:CE1:4069, V-B:HIS:456:CE1:9041, V-A:TYR:484:CZ:4346, H-B:GLU:543:OE2:9882, H-A:TYR:484:OH:4347, V-B:GLU:543:C:9874, V-B:GLU:543:CA:9876, V-B:TYR:531:CE2:9765, V-A:GLU:543:C:4902, V-B:ALA:541:CA:9862"]

$$$$
4cg_Grossjean_2025
     RDKit          3D

 30 33  0  0  0  0  0  0  0  0999 V2000
  131.9570  126.1710   64.8500 N   0  0  0  0  0  0  0  0  0  0  0  0
  131.2590  124.9910   64.8250 C   0  0  0  0  0  0  0  0  0  0  0  0
  130.2370  124.6850   65.7330 C   0  0  0  0  0  0  0  0  0  0  0  0
  129.6880  125.5170   66.8040 C   0  0  0  0  0  0  0  0  0  0  0  0
  129.6610  125.1250   67.9730 O   0  0  0  0  0  0  0  0  0  0  0  0
  129.1830  126.7100   66.4270 N   0  0  0  0  0  0  0  0  0  0  0  0
  128.6080  127.7090   67.3250 C   0  0  0  0  0  0  0  0  0  0  0  0
  127.6010  128.6290   66.6440 C   0  0  0  0  0  0  0  0  0  0  0  0
  127.9770  129.9280   66.2900 C   0  0  0  0  0  0  0  0  0  0  0  0
  127.0710  130.7620   65.6390 C   0  0  0  0  0  0  0  0  0  0  0  0
  125.7960  130.2900   65.3360 C   0  0  0  0  0  0  0  0  0  0  0  0
  125.4200  128.9910   65.6710 C   0  0  0  0  0  0  0  0  0  0  0  0
  126.3260  128.1570   66.3200 C   0  0  0  0  0  0  0  0  0  0  0  0
  129.5390  123.1010   65.4060 S   0  0  0  0  0  0  0  0  0  0  0  0
  130.6370  122.8490   64.0690 C   0  0  0  0  0  0  0  0  0  0  0  0
  130.6090  121.7310   63.3490 N   0  0  0  0  0  0  0  0  0  0  0  0
  131.4970  121.6260   62.3260 C   0  0  0  0  0  0  0  0  0  0  0  0
  131.4410  120.3510   61.5340 C   0  0  0  0  0  0  0  0  0  0  0  0
  130.3310  119.4950   61.6220 C   0  0  0  0  0  0  0  0  0  0  0  0
  130.2740  118.3120   60.8910 C   0  0  0  0  0  0  0  0  0  0  0  0
  131.3330  117.9650   60.0580 C   0  0  0  0  0  0  0  0  0  0  0  0
  132.4460  118.7920   59.9530 C   0  0  0  0  0  0  0  0  0  0  0  0
  132.4980  119.9740   60.6870 C   0  0  0  0  0  0  0  0  0  0  0  0
  132.4220  122.6380   62.0450 C   0  0  0  0  0  0  0  0  0  0  0  0
  132.4610  123.8220   62.7980 C   0  0  0  0  0  0  0  0  0  0  0  0
  133.4990  124.8900   62.4360 C   0  0  0  0  0  0  0  0  0  0  0  0
  134.2930  125.2160   63.4580 F   0  0  0  0  0  0  0  0  0  0  0  0
  134.2790  124.4430   61.4510 F   0  0  0  0  0  0  0  0  0  0  0  0
  132.8830  126.0020   62.0390 F   0  0  0  0  0  0  0  0  0  0  0  0
  131.5230  123.9480   63.8640 C   0  0  0  0  0  0  0  0  0  0  0  0
  1  2  1  0
  2  3  2  0
  3  4  1  0
  4  5  2  0
  4  6  1  0
  6  7  1  0
  7  8  1  0
  8  9  2  0
  9 10  1  0
 10 11  2  0
 11 12  1  0
 12 13  2  0
  3 14  1  0
 14 15  1  0
 15 16  2  0
 16 17  1  0
 17 18  1  0
 18 19  2  0
 19 20  1  0
 20 21  2  0
 21 22  1  0
 22 23  2  0
 17 24  2  0
 24 25  1  0
 25 26  1  0
 26 27  1  0
 26 28  1  0
 26 29  1  0
 25 30  2  0
 30  2  1  0
 13  8  1  0
 30 15  1  0
 23 18  1  0
M  END
>  <Binding energies>  (56) 
[-7.64]

>  <Ligand effiencies>  (56) 
[-0.2315151515151515]

>  <Interactions>  (56) 
["V-A:ASP:366:CG:3212, V-B:TYR:539:CD2:9846, V-B:TYR:539:C:9839, V-B:TYR:539:CE2:9848, V-B:ALA:541:CB:9864, V-A:ARG:545:CZ:4926, V-B:GLU:543:CG:9879, V-B:GLU:543:CD:9880, V-A:LEU:475:CD1:4257, V-A:GLU:543:CB:4906, V-A:GLU:543:CD:4908, V-A:TYR:484:CE2:4345, H-A:GLU:543:OE2:4910, H-A:GLU:543:OE1:4909, V-B:GLU:543:CB:9878, V-B:HIS:456:CE1:9041, V-A:TYR:484:CZ:4346, V-A:PRO:482:CG:4326, H-B:GLU:543:OE2:9882, H-A:TYR:484:OH:4347, V-A:GLY:453:CA:4043, V-A:GLY:453:C:4041, V-A:ILE:369:CD1:3238, V-A:GLU:543:CG:4907, V-B:TYR:484:CE2:9317, V-B:TYR:484:CZ:9318, V-B:ARG:545:CZ:9898, V-A:PRO:482:CB:4325, V-A:HIS:383:CE1:3392, V-A:ASP:366:CA:3209"]

$$$$
4ch_Grossjean_2025
     RDKit          3D

 36 39  0  0  0  0  0  0  0  0999 V2000
  129.3510  122.6250   72.6270 C   0  0  0  0  0  0  0  0  0  0  0  0
  128.7270  123.7060   73.3110 O   0  0  0  0  0  0  0  0  0  0  0  0
  129.2480  124.9800   73.1830 C   0  0  0  0  0  0  0  0  0  0  0  0
  128.9160  125.8620   72.1410 C   0  0  0  0  0  0  0  0  0  0  0  0
  129.4800  127.1370   72.0750 C   0  0  0  0  0  0  0  0  0  0  0  0
  129.1290  128.0690   70.9220 C   0  0  0  0  0  0  0  0  0  0  0  0
  129.4960  127.5550   69.6020 N   0  0  0  0  0  0  0  0  0  0  0  0
  128.7130  126.7890   68.8130 C   0  0  0  0  0  0  0  0  0  0  0  0
  127.5680  126.4630   69.1320 O   0  0  0  0  0  0  0  0  0  0  0  0
  129.2900  126.3930   67.5280 C   0  0  0  0  0  0  0  0  0  0  0  0
  130.5990  125.2170   67.4740 S   0  0  0  0  0  0  0  0  0  0  0  0
  130.6560  125.2940   65.7300 C   0  0  0  0  0  0  0  0  0  0  0  0
  131.5260  124.5720   65.0300 N   0  0  0  0  0  0  0  0  0  0  0  0
  131.4920  124.6940   63.6770 C   0  0  0  0  0  0  0  0  0  0  0  0
  132.4920  123.8690   62.9180 C   0  0  0  0  0  0  0  0  0  0  0  0
  133.3330  124.4610   61.9610 C   0  0  0  0  0  0  0  0  0  0  0  0
  134.2610  123.7030   61.2520 C   0  0  0  0  0  0  0  0  0  0  0  0
  134.3610  122.3370   61.4910 C   0  0  0  0  0  0  0  0  0  0  0  0
  133.5380  121.7240   62.4290 C   0  0  0  0  0  0  0  0  0  0  0  0
  132.6100  122.4860   63.1340 C   0  0  0  0  0  0  0  0  0  0  0  0
  130.5950  125.5540   63.0360 C   0  0  0  0  0  0  0  0  0  0  0  0
  129.6730  126.3220   63.7640 C   0  0  0  0  0  0  0  0  0  0  0  0
  128.7180  127.2450   62.9990 C   0  0  0  0  0  0  0  0  0  0  0  0
  127.4510  126.8230   63.0200 F   0  0  0  0  0  0  0  0  0  0  0  0
  128.7410  128.4640   63.5340 F   0  0  0  0  0  0  0  0  0  0  0  0
  129.0910  127.3190   61.7210 F   0  0  0  0  0  0  0  0  0  0  0  0
  129.6920  126.1920   65.1830 C   0  0  0  0  0  0  0  0  0  0  0  0
  128.9160  126.7980   66.2370 C   0  0  0  0  0  0  0  0  0  0  0  0
  127.9090  127.6980   65.9970 N   0  0  0  0  0  0  0  0  0  0  0  0
  130.3980  127.5340   73.0480 C   0  0  0  0  0  0  0  0  0  0  0  0
  130.7490  126.6730   74.1000 C   0  0  0  0  0  0  0  0  0  0  0  0
  131.6490  127.0010   75.0980 O   0  0  0  0  0  0  0  0  0  0  0  0
  133.0430  127.0030   74.8090 C   0  0  0  0  0  0  0  0  0  0  0  0
  130.1620  125.4010   74.1600 C   0  0  0  0  0  0  0  0  0  0  0  0
  130.5080  124.5430   75.1750 O   0  0  0  0  0  0  0  0  0  0  0  0
  131.6880  123.7930   74.9220 C   0  0  0  0  0  0  0  0  0  0  0  0
  1  2  1  0
  2  3  1  0
  3  4  2  0
  4  5  1  0
  5  6  1  0
  6  7  1  0
  7  8  1  0
  8  9  2  0
  8 10  1  0
 10 11  1  0
 11 12  1  0
 12 13  2  0
 13 14  1  0
 14 15  1  0
 15 16  2  0
 16 17  1  0
 17 18  2  0
 18 19  1  0
 19 20  2  0
 14 21  2  0
 21 22  1  0
 22 23  1  0
 23 24  1  0
 23 25  1  0
 23 26  1  0
 22 27  2  0
 27 28  1  0
 28 29  1  0
  5 30  2  0
 30 31  1  0
 31 32  1  0
 32 33  1  0
 31 34  2  0
 34 35  1  0
 35 36  1  0
 34  3  1  0
 28 10  2  0
 27 12  1  0
 20 15  1  0
M  END
>  <Binding energies>  (57) 
[-6.27]

>  <Ligand effiencies>  (57) 
[-0.16076923076923075]

>  <Interactions>  (57) 
["V-A:ILE:369:CG2:3236, V-A:ASP:366:CG:3212, V-A:GLY:454:CA:4048, V-B:GLU:543:CD:9880, V-A:LEU:475:CD1:4257, H-A:GLU:543:O:4903, V-A:GLU:543:CD:4908, V-A:TYR:484:CE2:4345, H-A:GLU:543:OE1:4909, V-B:GLU:543:CB:9878, V-A:HIS:456:CE1:4069, V-B:HIS:456:CE1:9041, V-A:TYR:484:CZ:4346, H-B:GLU:543:OE2:9882, H-A:TYR:484:OH:4347, V-A:ILE:369:CD1:3238, V-B:HIS:456:CD2:9039, V-B:GLU:543:C:9874, V-A:HIS:456:CD2:4067, V-A:LYS:547:CE:4950, H-A:LYS:547:NZ:4951, H-B:LYS:547:NZ:9923, V-A:HIS:456:CG:4065, H-A:HIS:456:NE2:4070, V-A:LYS:547:CD:4949, V-A:HIS:456:CB:4064, V-A:TYR:484:CD2:4343, V-A:TYR:484:CG:4341, V-A:TYR:484:CB:4340"]

$$$$
4cj_Grossjean_2025
     RDKit          3D

 28 31  0  0  0  0  0  0  0  0999 V2000
  131.9220  125.9810   64.8340 N   0  0  0  0  0  0  0  0  0  0  0  0
  131.2360  124.7940   64.7990 C   0  0  0  0  0  0  0  0  0  0  0  0
  130.2070  124.4740   65.6990 C   0  0  0  0  0  0  0  0  0  0  0  0
  129.6680  125.2820   66.7950 C   0  0  0  0  0  0  0  0  0  0  0  0
  129.2190  124.7470   67.8120 O   0  0  0  0  0  0  0  0  0  0  0  0
  129.6940  126.6230   66.5970 N   0  0  0  0  0  0  0  0  0  0  0  0
  129.2470  127.6040   67.4720 C   0  0  0  0  0  0  0  0  0  0  0  0
  128.6330  128.7300   67.1770 N   0  0  0  0  0  0  0  0  0  0  0  0
  128.3490  129.4250   68.2610 C   0  0  0  0  0  0  0  0  0  0  0  0
  128.7360  128.8610   69.4730 C   0  0  0  0  0  0  0  0  0  0  0  0
  129.5120  127.3360   69.1650 S   0  0  0  0  0  0  0  0  0  0  0  0
  129.5380  122.8790   65.3600 S   0  0  0  0  0  0  0  0  0  0  0  0
  130.6390  122.6530   64.0210 C   0  0  0  0  0  0  0  0  0  0  0  0
  130.6230  121.5420   63.2900 N   0  0  0  0  0  0  0  0  0  0  0  0
  131.5100  121.4590   62.2650 C   0  0  0  0  0  0  0  0  0  0  0  0
  131.4570  120.1980   61.4510 C   0  0  0  0  0  0  0  0  0  0  0  0
  130.3920  119.2940   61.5960 C   0  0  0  0  0  0  0  0  0  0  0  0
  130.3400  118.1200   60.8490 C   0  0  0  0  0  0  0  0  0  0  0  0
  131.3580  117.8310   59.9450 C   0  0  0  0  0  0  0  0  0  0  0  0
  132.4240  118.7080   59.7840 C   0  0  0  0  0  0  0  0  0  0  0  0
  132.4720  119.8810   60.5320 C   0  0  0  0  0  0  0  0  0  0  0  0
  132.4250  122.4820   61.9950 C   0  0  0  0  0  0  0  0  0  0  0  0
  132.4520  123.6580   62.7620 C   0  0  0  0  0  0  0  0  0  0  0  0
  133.4790  124.7410   62.4100 C   0  0  0  0  0  0  0  0  0  0  0  0
  134.2780  125.0570   63.4300 F   0  0  0  0  0  0  0  0  0  0  0  0
  134.2530  124.3190   61.4110 F   0  0  0  0  0  0  0  0  0  0  0  0
  132.8490  125.8550   62.0360 F   0  0  0  0  0  0  0  0  0  0  0  0
  131.5130  123.7630   63.8270 C   0  0  0  0  0  0  0  0  0  0  0  0
  1  2  1  0
  2  3  2  0
  3  4  1  0
  4  5  2  0
  4  6  1  0
  6  7  1  0
  7  8  2  0
  8  9  1  0
  9 10  2  0
 10 11  1  0
  3 12  1  0
 12 13  1  0
 13 14  2  0
 14 15  1  0
 15 16  1  0
 16 17  2  0
 17 18  1  0
 18 19  2  0
 19 20  1  0
 20 21  2  0
 15 22  2  0
 22 23  1  0
 23 24  1  0
 24 25  1  0
 24 26  1  0
 24 27  1  0
 23 28  2  0
 28  2  1  0
 11  7  1  0
 28 13  1  0
 21 16  1  0
M  END
>  <Binding energies>  (58) 
[-6.68]

>  <Ligand effiencies>  (58) 
[-0.21548387096774194]

>  <Interactions>  (58) 
["V-A:ILE:369:CG2:3236, V-A:ASP:366:CG:3212, V-B:TYR:539:CD2:9846, V-B:TYR:539:C:9839, V-B:TYR:539:CE2:9848, V-B:ALA:541:CB:9864, V-A:ARG:545:CZ:4926, V-B:GLU:543:CG:9879, V-B:GLU:543:CD:9880, V-A:LEU:475:CD1:4257, V-A:GLU:543:CB:4906, V-A:GLU:543:CD:4908, V-A:TYR:484:CE2:4345, H-A:GLU:543:OE2:4910, H-A:GLU:543:OE1:4909, V-B:GLU:543:CB:9878, V-A:HIS:456:CE1:4069, V-B:HIS:456:CE1:9041, V-A:TYR:484:CZ:4346, V-A:PRO:482:CG:4326, H-A:TYR:484:OH:4347, V-A:GLY:453:CA:4043, V-A:GLY:453:C:4041, V-A:ILE:369:CD1:3238, V-A:GLU:543:CG:4907, V-B:TYR:484:CE2:9317, V-A:GLU:543:C:4902, V-A:GLU:543:CA:4904, V-B:TYR:539:CB:9843, V-A:PRO:482:CB:4325, V-A:HIS:383:CE1:3392, V-A:HIS:383:CD2:3391"]

$$$$
4ck_Grossjean_2025
     RDKit          3D

 33 35  0  0  0  0  0  0  0  0999 V2000
  128.0320  120.9730   72.5470 C   0  0  0  0  0  0  0  0  0  0  0  0
  128.7920  121.8660   73.3460 O   0  0  0  0  0  0  0  0  0  0  0  0
  129.4700  122.8610   72.5920 C   0  0  0  0  0  0  0  0  0  0  0  0
  128.9240  124.2410   72.9800 C   0  0  0  0  0  0  0  0  0  0  0  0
  129.4840  125.2210   72.1170 O   0  0  0  0  0  0  0  0  0  0  0  0
  128.7580  126.4430   72.0990 C   0  0  0  0  0  0  0  0  0  0  0  0
  129.4210  127.4070   71.1070 C   0  0  0  0  0  0  0  0  0  0  0  0
  128.8170  127.2380   69.8320 O   0  0  0  0  0  0  0  0  0  0  0  0
  129.5860  127.7620   68.7570 C   0  0  0  0  0  0  0  0  0  0  0  0
  128.7860  127.6530   67.4500 C   0  0  0  0  0  0  0  0  0  0  0  0
  129.3510  126.6550   66.5400 N   0  0  0  0  0  0  0  0  0  0  0  0
  129.5850  125.3600   66.8360 C   0  0  0  0  0  0  0  0  0  0  0  0
  129.3100  124.8660   67.9310 O   0  0  0  0  0  0  0  0  0  0  0  0
  130.1800  124.5580   65.7660 C   0  0  0  0  0  0  0  0  0  0  0  0
  129.5410  122.9570   65.4020 S   0  0  0  0  0  0  0  0  0  0  0  0
  130.6770  122.7560   64.0880 C   0  0  0  0  0  0  0  0  0  0  0  0
  130.6980  121.6480   63.3510 N   0  0  0  0  0  0  0  0  0  0  0  0
  131.6170  121.5820   62.3530 C   0  0  0  0  0  0  0  0  0  0  0  0
  131.6030  120.3270   61.5290 C   0  0  0  0  0  0  0  0  0  0  0  0
  130.5330  119.4220   61.6160 C   0  0  0  0  0  0  0  0  0  0  0  0
  130.5150  118.2540   60.8560 C   0  0  0  0  0  0  0  0  0  0  0  0
  131.5700  117.9760   59.9940 C   0  0  0  0  0  0  0  0  0  0  0  0
  132.6400  118.8580   59.8840 C   0  0  0  0  0  0  0  0  0  0  0  0
  132.6540  120.0250   60.6450 C   0  0  0  0  0  0  0  0  0  0  0  0
  132.5040  122.6320   62.0940 C   0  0  0  0  0  0  0  0  0  0  0  0
  132.4910  123.8050   62.8660 C   0  0  0  0  0  0  0  0  0  0  0  0
  133.4940  124.9150   62.5300 C   0  0  0  0  0  0  0  0  0  0  0  0
  134.2250  125.2960   63.5790 F   0  0  0  0  0  0  0  0  0  0  0  0
  134.3370  124.4920   61.5880 F   0  0  0  0  0  0  0  0  0  0  0  0
  132.8420  125.9910   62.0860 F   0  0  0  0  0  0  0  0  0  0  0  0
  131.5330  123.8840   63.9170 C   0  0  0  0  0  0  0  0  0  0  0  0
  131.2190  124.9040   64.8890 C   0  0  0  0  0  0  0  0  0  0  0  0
  131.8830  126.1020   64.9480 N   0  0  0  0  0  0  0  0  0  0  0  0
  1  2  1  0
  2  3  1  0
  3  4  1  0
  4  5  1  0
  5  6  1  0
  6  7  1  0
  7  8  1  0
  8  9  1  0
  9 10  1  0
 10 11  1  0
 11 12  1  0
 12 13  2  0
 12 14  1  0
 14 15  1  0
 15 16  1  0
 16 17  2  0
 17 18  1  0
 18 19  1  0
 19 20  2  0
 20 21  1  0
 21 22  2  0
 22 23  1  0
 23 24  2  0
 18 25  2  0
 25 26  1  0
 26 27  1  0
 27 28  1  0
 27 29  1  0
 27 30  1  0
 26 31  2  0
 31 32  1  0
 32 33  1  0
 32 14  2  0
 31 16  1  0
 24 19  1  0
M  END
>  <Binding energies>  (59) 
[-6.66]

>  <Ligand effiencies>  (59) 
[-0.185]

>  <Interactions>  (59) 
["V-A:ILE:369:CG2:3236, V-A:ASP:366:CG:3212, V-B:TYR:539:CD2:9846, V-B:TYR:539:C:9839, V-B:TYR:539:CE2:9848, V-B:ALA:541:CB:9864, V-A:ARG:545:CZ:4926, V-B:GLU:543:CG:9879, V-B:GLU:543:CD:9880, V-A:LEU:475:CD1:4257, V-A:GLU:543:CB:4906, V-A:GLU:543:CD:4908, V-A:TYR:484:CE2:4345, H-A:GLU:543:OE2:4910, H-A:GLU:543:OE1:4909, V-B:GLU:543:CB:9878, V-A:HIS:456:CE1:4069, V-A:TYR:484:CZ:4346, V-A:PRO:482:CG:4326, H-B:GLU:543:OE2:9882, H-A:TYR:484:OH:4347, V-A:GLY:453:CA:4043, V-A:GLY:453:C:4041, V-A:ILE:369:CD1:3238, V-B:HIS:456:CD2:9039, V-B:GLU:543:C:9874, V-A:HIS:456:CD2:4067, H-B:LYS:547:NZ:9923, V-A:PRO:482:CB:4325, V-A:HIS:383:CE1:3392, V-A:HIS:383:CD2:3391, V-B:LYS:547:CE:9922, V-B:GLY:544:CA:9886, V-A:TYR:484:CD2:4343, V-A:TYR:484:CG:4341, V-A:TYR:484:CB:4340"]

$$$$
4dd_Grossjean_2025
     RDKit          3D

 26 29  0  0  0  0  0  0  0  0999 V2000
  131.0590  121.1040   61.7380 C   0  0  0  0  0  0  0  0  0  0  0  0
  129.9990  122.1760   61.5320 C   0  0  0  0  0  0  0  0  0  0  0  0
  129.1930  122.0960   60.3900 C   0  0  0  0  0  0  0  0  0  0  0  0
  128.2000  123.0520   60.1420 C   0  0  0  0  0  0  0  0  0  0  0  0
  127.3260  122.9950   58.9240 C   0  0  0  0  0  0  0  0  0  0  0  0
  126.2100  123.8380   58.7990 C   0  0  0  0  0  0  0  0  0  0  0  0
  125.3970  123.7930   57.6700 C   0  0  0  0  0  0  0  0  0  0  0  0
  125.6870  122.8980   56.6460 C   0  0  0  0  0  0  0  0  0  0  0  0
  126.7870  122.0520   56.7430 C   0  0  0  0  0  0  0  0  0  0  0  0
  127.6000  122.1020   57.8730 C   0  0  0  0  0  0  0  0  0  0  0  0
  127.9830  124.0980   60.9860 N   0  0  0  0  0  0  0  0  0  0  0  0
  128.7450  124.1710   62.0760 C   0  0  0  0  0  0  0  0  0  0  0  0
  128.5600  125.4520   63.2530 S   0  0  0  0  0  0  0  0  0  0  0  0
  129.8580  124.7890   64.2480 C   0  0  0  0  0  0  0  0  0  0  0  0
  130.2340  125.4380   65.5050 C   0  0  0  0  0  0  0  0  0  0  0  0
  131.4200  125.5700   65.8140 O   0  0  0  0  0  0  0  0  0  0  0  0
  129.2000  125.8730   66.2660 N   0  0  0  0  0  0  0  0  0  0  0  0
  129.2140  126.4810   67.5350 C   0  0  0  0  0  0  0  0  0  0  0  0
  128.9800  125.6330   68.6210 C   0  0  0  0  0  0  0  0  0  0  0  0
  128.9870  126.1360   69.9190 C   0  0  0  0  0  0  0  0  0  0  0  0
  129.2380  127.4890   70.1330 C   0  0  0  0  0  0  0  0  0  0  0  0
  129.4850  128.3420   69.0610 C   0  0  0  0  0  0  0  0  0  0  0  0
  129.4780  127.8420   67.7620 C   0  0  0  0  0  0  0  0  0  0  0  0
  130.3970  123.6290   63.6690 C   0  0  0  0  0  0  0  0  0  0  0  0
  131.4240  122.9050   64.2220 N   0  0  0  0  0  0  0  0  0  0  0  0
  129.7750  123.2540   62.4270 C   0  0  0  0  0  0  0  0  0  0  0  0
  1  2  1  0
  2  3  2  0
  3  4  1  0
  4  5  1  0
  5  6  2  0
  6  7  1  0
  7  8  2  0
  8  9  1  0
  9 10  2  0
  4 11  2  0
 11 12  1  0
 12 13  1  0
 13 14  1  0
 14 15  1  0
 15 16  2  0
 15 17  1  0
 17 18  1  0
 18 19  2  0
 19 20  1  0
 20 21  2  0
 21 22  1  0
 22 23  2  0
 14 24  2  0
 24 25  1  0
 24 26  1  0
 26  2  1  0
 10  5  1  0
 26 12  2  0
 23 18  1  0
M  END
>  <Binding energies>  (60) 
[-7.67]

>  <Ligand effiencies>  (60) 
[-0.26448275862068965]

>  <Interactions>  (60) 
["V-B:PRO:540:CB:9857, V-B:PRO:540:CA:9855, V-B:TYR:539:C:9839, V-B:PRO:540:N:9856, V-B:LEU:363:CD1:8160, V-B:GLU:543:CG:9879, V-B:GLU:543:CD:9880, V-A:LEU:475:CD1:4257, V-A:GLU:543:CB:4906, V-A:GLU:543:CD:4908, V-A:TYR:484:CE2:4345, V-B:PRO:540:CD:9859, V-B:MET:535:CE:9807, V-B:GLU:543:CB:9878, V-A:HIS:456:CE1:4069, V-B:TYR:539:CA:9841, V-B:HIS:456:CE1:9041, V-A:TYR:484:CZ:4346, H-B:GLU:543:OE2:9882, H-A:TYR:484:OH:4347, V-B:GLU:543:C:9874, V-B:GLU:543:CA:9876, V-B:TYR:531:CE2:9765, V-A:GLU:543:C:4902"]

$$$$
4dg_Grossjean_2025
     RDKit          3D

 27 30  0  0  0  0  0  0  0  0999 V2000
  134.0560  125.0860   62.7680 C   0  0  0  0  0  0  0  0  0  0  0  0
  132.9410  124.0850   63.0330 C   0  0  0  0  0  0  0  0  0  0  0  0
  132.9110  122.9120   62.2690 C   0  0  0  0  0  0  0  0  0  0  0  0
  131.9110  121.9520   62.4640 C   0  0  0  0  0  0  0  0  0  0  0  0
  131.8540  120.6830   61.6610 C   0  0  0  0  0  0  0  0  0  0  0  0
  130.6870  119.9030   61.6270 C   0  0  0  0  0  0  0  0  0  0  0  0
  130.6300  118.7240   60.8870 C   0  0  0  0  0  0  0  0  0  0  0  0
  131.7440  118.3060   60.1680 C   0  0  0  0  0  0  0  0  0  0  0  0
  132.9160  119.0570   60.1870 C   0  0  0  0  0  0  0  0  0  0  0  0
  132.9680  120.2340   60.9280 C   0  0  0  0  0  0  0  0  0  0  0  0
  130.9440  122.1040   63.4090 N   0  0  0  0  0  0  0  0  0  0  0  0
  130.9700  123.2200   64.1360 C   0  0  0  0  0  0  0  0  0  0  0  0
  129.7830  123.5450   65.3770 S   0  0  0  0  0  0  0  0  0  0  0  0
  130.5450  125.0870   65.7650 C   0  0  0  0  0  0  0  0  0  0  0  0
  129.9650  125.9570   66.7870 C   0  0  0  0  0  0  0  0  0  0  0  0
  130.5620  126.1990   67.8380 O   0  0  0  0  0  0  0  0  0  0  0  0
  128.7330  126.4380   66.5210 N   0  0  0  0  0  0  0  0  0  0  0  0
  127.9720  127.3410   67.3840 C   0  0  0  0  0  0  0  0  0  0  0  0
  127.2870  128.4710   66.6240 C   0  0  0  0  0  0  0  0  0  0  0  0
  127.9550  129.6840   66.4330 C   0  0  0  0  0  0  0  0  0  0  0  0
  127.3450  130.7070   65.7130 C   0  0  0  0  0  0  0  0  0  0  0  0
  126.0740  130.5110   65.1770 C   0  0  0  0  0  0  0  0  0  0  0  0
  125.4100  129.2990   65.3490 C   0  0  0  0  0  0  0  0  0  0  0  0
  126.0200  128.2750   66.0680 C   0  0  0  0  0  0  0  0  0  0  0  0
  131.6580  125.3250   64.9450 C   0  0  0  0  0  0  0  0  0  0  0  0
  132.4320  126.4560   65.0180 N   0  0  0  0  0  0  0  0  0  0  0  0
  131.9300  124.2650   64.0120 C   0  0  0  0  0  0  0  0  0  0  0  0
  1  2  1  0
  2  3  2  0
  3  4  1  0
  4  5  1  0
  5  6  2  0
  6  7  1  0
  7  8  2  0
  8  9  1  0
  9 10  2  0
  4 11  2  0
 11 12  1  0
 12 13  1  0
 13 14  1  0
 14 15  1  0
 15 16  2  0
 15 17  1  0
 17 18  1  0
 18 19  1  0
 19 20  2  0
 20 21  1  0
 21 22  2  0
 22 23  1  0
 23 24  2  0
 14 25  2  0
 25 26  1  0
 25 27  1  0
 27  2  1  0
 10  5  1  0
 27 12  2  0
 24 19  1  0
M  END
>  <Binding energies>  (61) 
[-8.09]

>  <Ligand effiencies>  (61) 
[-0.26966666666666667]

>  <Interactions>  (61) 
["V-A:ILE:369:CG2:3236, V-A:ASP:366:CG:3212, V-B:TYR:539:CD2:9846, V-B:ALA:541:CB:9864, V-A:ARG:545:CZ:4926, V-B:GLU:543:CG:9879, V-B:GLU:543:CD:9880, V-A:LEU:475:CD1:4257, V-A:GLU:543:CB:4906, V-A:GLU:543:CD:4908, V-A:TYR:484:CE2:4345, H-A:GLU:543:OE2:4910, H-A:GLU:543:OE1:4909, V-B:GLU:543:CB:9878, V-B:HIS:456:CE1:9041, V-A:TYR:484:CZ:4346, V-A:PRO:482:CG:4326, H-B:GLU:543:OE2:9882, V-A:GLY:453:CA:4043, V-A:GLU:543:CG:4907, V-B:TYR:484:CE2:9317, V-B:TYR:484:CZ:9318, V-B:ARG:545:CZ:9898"]

$$$$
4dj_Grossjean_2025
     RDKit          3D

 25 28  0  0  0  0  0  0  0  0999 V2000
  130.3610  120.8690   62.1510 C   0  0  0  0  0  0  0  0  0  0  0  0
  129.4900  122.0620   61.7870 C   0  0  0  0  0  0  0  0  0  0  0  0
  128.7670  122.0120   60.5900 C   0  0  0  0  0  0  0  0  0  0  0  0
  127.9490  123.0780   60.1970 C   0  0  0  0  0  0  0  0  0  0  0  0
  127.1580  123.0490   58.9210 C   0  0  0  0  0  0  0  0  0  0  0  0
  126.1040  123.9530   58.7060 C   0  0  0  0  0  0  0  0  0  0  0  0
  125.3660  123.9310   57.5250 C   0  0  0  0  0  0  0  0  0  0  0  0
  125.6700  122.9980   56.5390 C   0  0  0  0  0  0  0  0  0  0  0  0
  126.7050  122.0890   56.7270 C   0  0  0  0  0  0  0  0  0  0  0  0
  127.4410  122.1150   57.9080 C   0  0  0  0  0  0  0  0  0  0  0  0
  127.8070  124.1940   60.9630 N   0  0  0  0  0  0  0  0  0  0  0  0
  128.4950  124.2450   62.1020 C   0  0  0  0  0  0  0  0  0  0  0  0
  128.4120  125.6220   63.1770 S   0  0  0  0  0  0  0  0  0  0  0  0
  129.5350  124.8660   64.3090 C   0  0  0  0  0  0  0  0  0  0  0  0
  129.9320  125.5630   65.5340 C   0  0  0  0  0  0  0  0  0  0  0  0
  131.0900  125.4880   65.9550 O   0  0  0  0  0  0  0  0  0  0  0  0
  128.9510  126.2660   66.1500 N   0  0  0  0  0  0  0  0  0  0  0  0
  129.0610  127.0080   67.3170 C   0  0  0  0  0  0  0  0  0  0  0  0
  128.9090  128.3060   67.4670 N   0  0  0  0  0  0  0  0  0  0  0  0
  129.0870  128.6730   68.7220 C   0  0  0  0  0  0  0  0  0  0  0  0
  129.3900  127.6580   69.6230 C   0  0  0  0  0  0  0  0  0  0  0  0
  129.4440  126.1430   68.7720 S   0  0  0  0  0  0  0  0  0  0  0  0
  129.9440  123.6050   63.8500 C   0  0  0  0  0  0  0  0  0  0  0  0
  130.8190  122.7930   64.5270 N   0  0  0  0  0  0  0  0  0  0  0  0
  129.3620  123.2250   62.5910 C   0  0  0  0  0  0  0  0  0  0  0  0
  1  2  1  0
  2  3  2  0
  3  4  1  0
  4  5  1  0
  5  6  2  0
  6  7  1  0
  7  8  2  0
  8  9  1  0
  9 10  2  0
  4 11  2  0
 11 12  1  0
 12 13  1  0
 13 14  1  0
 14 15  1  0
 15 16  2  0
 15 17  1  0
 17 18  1  0
 18 19  2  0
 19 20  1  0
 20 21  2  0
 21 22  1  0
 14 23  2  0
 23 24  1  0
 23 25  1  0
 25  2  1  0
 10  5  1  0
 25 12  2  0
 22 18  1  0
M  END
>  <Binding energies>  (62) 
[-7.15]

>  <Ligand effiencies>  (62) 
[-0.2553571428571429]

>  <Interactions>  (62) 
["V-B:PRO:540:CB:9857, V-B:PRO:540:CA:9855, V-B:TYR:539:C:9839, V-B:PRO:540:N:9856, V-B:LEU:363:CD1:8160, V-B:ALA:541:CB:9864, V-B:GLU:543:CG:9879, V-B:GLU:543:CD:9880, V-A:LEU:475:CD1:4257, V-A:GLU:543:CB:4906, V-A:TYR:484:CE2:4345, V-B:PRO:540:CD:9859, V-B:MET:535:CE:9807, H-A:GLU:543:OE1:4909, V-B:GLU:543:CB:9878, V-A:HIS:456:CE1:4069, V-B:HIS:456:CE1:9041, V-A:TYR:484:CZ:4346, H-B:GLU:543:OE2:9882, H-A:TYR:484:OH:4347, V-B:PRO:540:C:9853, V-B:TYR:531:CE2:9765, V-A:GLU:543:C:4902"]

$$$$
4ea_Grossjean_2025
     RDKit          3D

 31 34  0  0  0  0  0  0  0  0999 V2000
  127.7760  131.3640   72.3650 C   0  0  0  0  0  0  0  0  0  0  0  0
  128.7880  130.2290   72.5430 C   0  0  0  0  0  0  0  0  0  0  0  0
  128.7300  129.3640   71.4160 O   0  0  0  0  0  0  0  0  0  0  0  0
  129.5170  128.2600   71.3370 C   0  0  0  0  0  0  0  0  0  0  0  0
  130.2600  127.8890   72.2510 O   0  0  0  0  0  0  0  0  0  0  0  0
  129.3920  127.5360   70.0280 C   0  0  0  0  0  0  0  0  0  0  0  0
  129.7700  128.1880   68.8470 C   0  0  0  0  0  0  0  0  0  0  0  0
  129.6670  127.5440   67.6180 C   0  0  0  0  0  0  0  0  0  0  0  0
  129.1850  126.2370   67.5420 C   0  0  0  0  0  0  0  0  0  0  0  0
  129.1250  125.6870   66.2460 N   0  0  0  0  0  0  0  0  0  0  0  0
  130.1050  125.1730   65.4640 C   0  0  0  0  0  0  0  0  0  0  0  0
  131.2900  125.1030   65.7920 O   0  0  0  0  0  0  0  0  0  0  0  0
  129.6670  124.6850   64.1540 C   0  0  0  0  0  0  0  0  0  0  0  0
  128.4870  125.5980   63.2090 S   0  0  0  0  0  0  0  0  0  0  0  0
  128.5330  124.4170   61.9200 C   0  0  0  0  0  0  0  0  0  0  0  0
  127.7930  124.5490   60.8180 N   0  0  0  0  0  0  0  0  0  0  0  0
  127.9210  123.5640   59.8940 C   0  0  0  0  0  0  0  0  0  0  0  0
  127.0710  123.7330   58.6480 C   0  0  0  0  0  0  0  0  0  0  0  0
  128.7610  122.4640   60.0460 C   0  0  0  0  0  0  0  0  0  0  0  0
  129.5350  122.3300   61.2030 C   0  0  0  0  0  0  0  0  0  0  0  0
  130.4230  121.1550   61.3500 C   0  0  0  0  0  0  0  0  0  0  0  0
  131.8050  121.2930   61.1850 C   0  0  0  0  0  0  0  0  0  0  0  0
  132.6410  120.1890   61.3250 C   0  0  0  0  0  0  0  0  0  0  0  0
  132.0940  118.9440   61.6260 C   0  0  0  0  0  0  0  0  0  0  0  0
  130.7190  118.7940   61.7870 C   0  0  0  0  0  0  0  0  0  0  0  0
  129.8840  119.8990   61.6470 C   0  0  0  0  0  0  0  0  0  0  0  0
  129.4300  123.3420   62.1970 C   0  0  0  0  0  0  0  0  0  0  0  0
  130.0640  123.5200   63.4780 C   0  0  0  0  0  0  0  0  0  0  0  0
  130.9710  122.6200   63.9760 N   0  0  0  0  0  0  0  0  0  0  0  0
  128.8040  125.5750   68.7190 C   0  0  0  0  0  0  0  0  0  0  0  0
  128.9080  126.2210   69.9480 C   0  0  0  0  0  0  0  0  0  0  0  0
  1  2  1  0
  2  3  1  0
  3  4  1  0
  4  5  2  0
  4  6  1  0
  6  7  2  0
  7  8  1  0
  8  9  2  0
  9 10  1  0
 10 11  1  0
 11 12  2  0
 11 13  1  0
 13 14  1  0
 14 15  1  0
 15 16  2  0
 16 17  1  0
 17 18  1  0
 17 19  2  0
 19 20  1  0
 20 21  1  0
 21 22  2  0
 22 23  1  0
 23 24  2  0
 24 25  1  0
 25 26  2  0
 20 27  2  0
 27 28  1  0
 28 29  1  0
  9 30  1  0
 30 31  2  0
 31  6  1  0
 28 13  2  0
 27 15  1  0
 26 21  1  0
M  END
>  <Binding energies>  (63) 
[-7.29]

>  <Ligand effiencies>  (63) 
[-0.21441176470588236]

>  <Interactions>  (63) 
["V-B:PRO:540:CA:9855, V-B:ALA:541:CB:9864, V-B:GLU:543:CG:9879, V-B:GLU:543:CD:9880, V-A:LEU:475:CD1:4257, V-A:GLU:543:CB:4906, V-A:GLU:543:CD:4908, V-A:TYR:484:CE2:4345, V-B:GLU:543:CB:9878, V-A:HIS:456:CE1:4069, V-B:HIS:456:CE1:9041, V-A:PRO:482:CG:4326, H-B:GLU:543:OE2:9882, H-A:TYR:484:OH:4347, V-B:HIS:456:CD2:9039, V-B:PRO:540:C:9853, V-B:GLU:543:C:9874, V-B:GLU:543:CA:9876, H-B:GLU:543:OE1:9881, V-A:GLU:543:C:4902, V-B:ALA:541:CA:9862, V-A:PRO:482:CB:4325, H-A:HIS:456:ND1:4066, V-B:HIS:456:CG:9037, V-B:TYR:484:CD1:9314, V-B:TYR:484:CG:9313, V-B:TYR:484:CB:9312, V-B:TYR:484:CD2:9315"]

$$$$
4eb_Grossjean_2025
     RDKit          3D

 30 33  0  0  0  0  0  0  0  0999 V2000
  128.9740  126.2130   72.9030 C   0  0  0  0  0  0  0  0  0  0  0  0
  129.8760  127.1180   72.2840 O   0  0  0  0  0  0  0  0  0  0  0  0
  129.4420  128.0140   71.3590 C   0  0  0  0  0  0  0  0  0  0  0  0
  129.0870  129.1630   71.6400 O   0  0  0  0  0  0  0  0  0  0  0  0
  129.4370  127.4680   69.9600 C   0  0  0  0  0  0  0  0  0  0  0  0
  128.7300  126.2890   69.6900 C   0  0  0  0  0  0  0  0  0  0  0  0
  128.7060  125.7570   68.4040 C   0  0  0  0  0  0  0  0  0  0  0  0
  129.3860  126.3900   67.3630 C   0  0  0  0  0  0  0  0  0  0  0  0
  129.2920  125.7630   66.1050 N   0  0  0  0  0  0  0  0  0  0  0  0
  130.2470  125.1740   65.3450 C   0  0  0  0  0  0  0  0  0  0  0  0
  131.4340  125.0910   65.6620 O   0  0  0  0  0  0  0  0  0  0  0  0
  129.7770  124.6160   64.0730 C   0  0  0  0  0  0  0  0  0  0  0  0
  128.4960  125.4220   63.1650 S   0  0  0  0  0  0  0  0  0  0  0  0
  128.5550  124.2060   61.9090 C   0  0  0  0  0  0  0  0  0  0  0  0
  127.7560  124.2550   60.8430 N   0  0  0  0  0  0  0  0  0  0  0  0
  127.9010  123.2530   59.9430 C   0  0  0  0  0  0  0  0  0  0  0  0
  126.9810  123.3280   58.7370 C   0  0  0  0  0  0  0  0  0  0  0  0
  128.8170  122.2130   60.0820 C   0  0  0  0  0  0  0  0  0  0  0  0
  129.6540  122.1650   61.2030 C   0  0  0  0  0  0  0  0  0  0  0  0
  130.6240  121.0540   61.3370 C   0  0  0  0  0  0  0  0  0  0  0  0
  131.9910  121.2900   61.1690 C   0  0  0  0  0  0  0  0  0  0  0  0
  132.9040  120.2450   61.2970 C   0  0  0  0  0  0  0  0  0  0  0  0
  132.4460  118.9630   61.5900 C   0  0  0  0  0  0  0  0  0  0  0  0
  131.0850  118.7170   61.7570 C   0  0  0  0  0  0  0  0  0  0  0  0
  130.1750  119.7620   61.6290 C   0  0  0  0  0  0  0  0  0  0  0  0
  129.5330  123.1990   62.1710 C   0  0  0  0  0  0  0  0  0  0  0  0
  130.2150  123.4580   63.4120 C   0  0  0  0  0  0  0  0  0  0  0  0
  131.2030  122.6350   63.8900 N   0  0  0  0  0  0  0  0  0  0  0  0
  130.0970  127.5710   67.6240 C   0  0  0  0  0  0  0  0  0  0  0  0
  130.1200  128.1020   68.9110 C   0  0  0  0  0  0  0  0  0  0  0  0
  1  2  1  0
  2  3  1  0
  3  4  2  0
  3  5  1  0
  5  6  2  0
  6  7  1  0
  7  8  2  0
  8  9  1  0
  9 10  1  0
 10 11  2  0
 10 12  1  0
 12 13  1  0
 13 14  1  0
 14 15  2  0
 15 16  1  0
 16 17  1  0
 16 18  2  0
 18 19  1  0
 19 20  1  0
 20 21  2  0
 21 22  1  0
 22 23  2  0
 23 24  1  0
 24 25  2  0
 19 26  2  0
 26 27  1  0
 27 28  1  0
  8 29  1  0
 29 30  2  0
 30  5  1  0
 27 12  2  0
 26 14  1  0
 25 20  1  0
M  END
>  <Binding energies>  (64) 
[-7.12]

>  <Ligand effiencies>  (64) 
[-0.21575757575757576]

>  <Interactions>  (64) 
["V-B:PRO:540:CB:9857, V-B:PRO:540:CA:9855, V-B:TYR:539:C:9839, V-B:ALA:541:CB:9864, V-B:GLU:543:CG:9879, V-B:GLU:543:CD:9880, V-A:LEU:475:CD1:4257, V-A:GLU:543:CB:4906, V-A:GLU:543:CD:4908, V-B:GLU:543:CB:9878, V-A:HIS:456:CE1:4069, V-B:HIS:456:CE1:9041, V-A:PRO:482:CG:4326, H-B:GLU:543:OE2:9882, H-A:TYR:484:OH:4347, V-A:GLU:543:CG:4907, V-B:HIS:456:CD2:9039, V-B:GLU:543:C:9874, V-B:GLU:543:CA:9876, V-A:GLU:543:C:4902, V-B:ALA:541:CA:9862, V-A:PRO:482:CB:4325, H-A:HIS:456:ND1:4066"]

$$$$
8b_Ghoteimi_2023
     RDKit          3D

 34 38  0  0  0  0  0  0  0  0999 V2000
  127.8540  130.3900   75.3840 C   0  0  0  0  0  0  0  0  0  0  0  0
  129.0880  129.9920   74.7970 O   0  0  0  0  0  0  0  0  0  0  0  0
  129.0920  129.5090   73.5020 C   0  0  0  0  0  0  0  0  0  0  0  0
  128.4330  130.2810   72.5470 C   0  0  0  0  0  0  0  0  0  0  0  0
  128.3850  129.8730   71.2180 C   0  0  0  0  0  0  0  0  0  0  0  0
  128.9970  128.6790   70.8080 C   0  0  0  0  0  0  0  0  0  0  0  0
  128.9460  128.2350   69.3800 C   0  0  0  0  0  0  0  0  0  0  0  0
  128.3240  129.0030   68.3910 C   0  0  0  0  0  0  0  0  0  0  0  0
  128.2910  128.5650   67.0640 C   0  0  0  0  0  0  0  0  0  0  0  0
  127.6150  129.3980   66.0420 C   0  0  0  0  0  0  0  0  0  0  0  0
  127.9770  130.7360   65.8740 C   0  0  0  0  0  0  0  0  0  0  0  0
  127.3470  131.5140   64.9060 C   0  0  0  0  0  0  0  0  0  0  0  0
  126.3490  130.9700   64.0970 C   0  0  0  0  0  0  0  0  0  0  0  0
  125.7820  131.8170   63.1630 O   0  0  0  0  0  0  0  0  0  0  0  0
  126.5940  132.3460   62.1210 C   0  0  0  0  0  0  0  0  0  0  0  0
  125.9850  129.6260   64.2710 C   0  0  0  0  0  0  0  0  0  0  0  0
  126.6160  128.8480   65.2380 C   0  0  0  0  0  0  0  0  0  0  0  0
  128.9140  127.3270   66.7520 C   0  0  0  0  0  0  0  0  0  0  0  0
  129.0710  126.5950   65.5230 C   0  0  0  0  0  0  0  0  0  0  0  0
  128.5780  127.0530   64.3280 N   0  0  0  0  0  0  0  0  0  0  0  0
  129.7700  125.3860   65.6660 C   0  0  0  0  0  0  0  0  0  0  0  0
  130.1120  124.4030   64.6360 C   0  0  0  0  0  0  0  0  0  0  0  0
  131.2370  123.8990   64.5960 O   0  0  0  0  0  0  0  0  0  0  0  0
  129.1190  124.1090   63.7590 N   0  0  0  0  0  0  0  0  0  0  0  0
  129.1660  123.2180   62.6960 C   0  0  0  0  0  0  0  0  0  0  0  0
  130.3110  123.0080   61.9290 C   0  0  0  0  0  0  0  0  0  0  0  0
  129.9460  122.0700   60.9900 C   0  0  0  0  0  0  0  0  0  0  0  0
  128.6500  121.7310   61.1830 O   0  0  0  0  0  0  0  0  0  0  0  0
  128.1660  122.4640   62.2680 N   0  0  0  0  0  0  0  0  0  0  0  0
  130.2550  125.1260   67.3420 S   0  0  0  0  0  0  0  0  0  0  0  0
  129.5210  126.6330   67.8380 C   0  0  0  0  0  0  0  0  0  0  0  0
  129.5500  127.0480   69.1040 N   0  0  0  0  0  0  0  0  0  0  0  0
  129.6600  127.9090   71.7720 C   0  0  0  0  0  0  0  0  0  0  0  0
  129.7090  128.3140   73.1040 C   0  0  0  0  0  0  0  0  0  0  0  0
  1  2  1  0
  2  3  1  0
  3  4  2  0
  4  5  1  0
  5  6  2  0
  6  7  1  0
  7  8  2  0
  8  9  1  0
  9 10  1  0
 10 11  2  0
 11 12  1  0
 12 13  2  0
 13 14  1  0
 14 15  1  0
 13 16  1  0
 16 17  2  0
  9 18  2  0
 18 19  1  0
 19 20  1  0
 19 21  2  0
 21 22  1  0
 22 23  2  0
 22 24  1  0
 24 25  1  0
 25 26  1  0
 26 27  2  0
 27 28  1  0
 28 29  1  0
 21 30  1  0
 30 31  1  0
 31 32  2  0
  6 33  1  0
 33 34  2  0
 34  3  1  0
 32  7  1  0
 17 10  1  0
 31 18  1  0
 29 25  2  0
M  END
>  <Binding energies>  (65) 
[-7.18]

>  <Ligand effiencies>  (65) 
[-0.19405405405405404]

>  <Interactions>  (65) 
["H-B:ALA:541:N:9863, V-B:ALA:541:CB:9864, V-B:GLU:543:CG:9879, V-B:GLU:543:CD:9880, V-A:GLU:543:CB:4906, V-A:GLU:543:CD:4908, V-A:TYR:484:CE2:4345, H-A:GLU:543:OE2:4910, H-A:GLU:543:OE1:4909, V-B:GLU:543:CB:9878, V-A:HIS:456:CE1:4069, V-B:HIS:456:CE1:9041, V-A:TYR:484:CZ:4346, H-B:GLU:543:OE2:9882, H-A:TYR:484:OH:4347, V-A:GLU:543:CG:4907, V-B:TYR:484:CE2:9317, V-B:TYR:484:CZ:9318, V-B:HIS:456:CD2:9039, V-A:ALA:541:CB:4892, H-A:LYS:547:NZ:4951, H-B:GLU:543:OE1:9881, V-A:GLU:543:C:4902, V-B:HIS:456:CG:9037"]

$$$$
9d_Ghoteimi_2023
     RDKit          3D

 38 43  0  0  0  0  0  0  0  0999 V2000
  127.1650  131.9560   62.3210 C   0  0  0  0  0  0  0  0  0  0  0  0
  126.3070  131.1670   63.1330 O   0  0  0  0  0  0  0  0  0  0  0  0
  126.6310  130.8890   64.4230 C   0  0  0  0  0  0  0  0  0  0  0  0
  126.4120  131.6510   65.3680 O   0  0  0  0  0  0  0  0  0  0  0  0
  127.2850  129.5710   64.5820 C   0  0  0  0  0  0  0  0  0  0  0  0
  127.5380  128.5410   63.1730 S   0  0  0  0  0  0  0  0  0  0  0  0
  128.3170  127.3230   64.1550 C   0  0  0  0  0  0  0  0  0  0  0  0
  128.8090  126.2060   63.6200 N   0  0  0  0  0  0  0  0  0  0  0  0
  129.4110  125.3300   64.4670 C   0  0  0  0  0  0  0  0  0  0  0  0
  129.9790  124.0970   63.8410 C   0  0  0  0  0  0  0  0  0  0  0  0
  129.1840  123.2820   63.0280 C   0  0  0  0  0  0  0  0  0  0  0  0
  129.7020  122.1300   62.4430 C   0  0  0  0  0  0  0  0  0  0  0  0
  131.0410  121.7570   62.6390 C   0  0  0  0  0  0  0  0  0  0  0  0
  131.5710  120.5930   62.0720 N   0  0  0  0  0  0  0  0  0  0  0  0
  130.6970  119.4900   61.6230 C   0  0  0  0  0  0  0  0  0  0  0  0
  131.4480  118.1690   61.3540 C   0  0  0  0  0  0  0  0  0  0  0  0
  132.5030  118.3890   60.4330 O   0  0  0  0  0  0  0  0  0  0  0  0
  133.4430  119.3250   60.9350 C   0  0  0  0  0  0  0  0  0  0  0  0
  132.7560  120.6830   61.1930 C   0  0  0  0  0  0  0  0  0  0  0  0
  131.8300  122.5690   63.4670 C   0  0  0  0  0  0  0  0  0  0  0  0
  131.3100  123.7190   64.0550 C   0  0  0  0  0  0  0  0  0  0  0  0
  129.4890  125.5570   65.8430 C   0  0  0  0  0  0  0  0  0  0  0  0
  128.9560  126.7190   66.4120 C   0  0  0  0  0  0  0  0  0  0  0  0
  129.0420  126.8980   67.8850 C   0  0  0  0  0  0  0  0  0  0  0  0
  129.8380  127.9040   68.4370 C   0  0  0  0  0  0  0  0  0  0  0  0
  129.9000  128.0790   69.8170 C   0  0  0  0  0  0  0  0  0  0  0  0
  129.1540  127.2620   70.6810 C   0  0  0  0  0  0  0  0  0  0  0  0
  129.2060  127.4110   72.0690 N   0  0  0  0  0  0  0  0  0  0  0  0
  129.1020  128.7640   72.6490 C   0  0  0  0  0  0  0  0  0  0  0  0
  128.7830  128.7560   74.1600 C   0  0  0  0  0  0  0  0  0  0  0  0
  129.7440  127.9770   74.8560 O   0  0  0  0  0  0  0  0  0  0  0  0
  129.7590  126.6320   74.4020 C   0  0  0  0  0  0  0  0  0  0  0  0
  130.1080  126.5890   72.8980 C   0  0  0  0  0  0  0  0  0  0  0  0
  128.3590  126.2540   70.1160 C   0  0  0  0  0  0  0  0  0  0  0  0
  128.2990  126.0780   68.7370 C   0  0  0  0  0  0  0  0  0  0  0  0
  128.3590  127.6700   65.5380 C   0  0  0  0  0  0  0  0  0  0  0  0
  127.7780  128.9710   65.7460 C   0  0  0  0  0  0  0  0  0  0  0  0
  127.7320  129.5770   66.9750 N   0  0  0  0  0  0  0  0  0  0  0  0
  1  2  1  0
  2  3  1  0
  3  4  2  0
  3  5  1  0
  5  6  1  0
  6  7  1  0
  7  8  2  0
  8  9  1  0
  9 10  1  0
 10 11  2  0
 11 12  1  0
 12 13  2  0
 13 14  1  0
 14 15  1  0
 15 16  1  0
 16 17  1  0
 17 18  1  0
 18 19  1  0
 13 20  1  0
 20 21  2  0
  9 22  2  0
 22 23  1  0
 23 24  1  0
 24 25  2  0
 25 26  1  0
 26 27  2  0
 27 28  1  0
 28 29  1  0
 29 30  1  0
 30 31  1  0
 31 32  1  0
 32 33  1  0
 27 34  1  0
 34 35  2  0
 23 36  2  0
 36 37  1  0
 37 38  1  0
 37  5  2  0
 36  7  1  0
 21 10  1  0
 35 24  1  0
 19 14  1  0
 33 28  1  0
M  END
>  <Binding energies>  (66) 
[-7.53]

>  <Ligand effiencies>  (66) 
[-0.18825]

>  <Interactions>  (66) 
["V-A:ILE:369:CG2:3236, V-A:SER:385:C:3404, V-A:SER:385:CA:3406, V-B:ALA:541:CB:9864, V-B:GLU:543:CG:9879, V-B:GLU:543:CD:9880, V-A:LEU:475:CD1:4257, V-A:GLU:543:CB:4906, V-A:GLU:543:CD:4908, H-A:GLU:543:OE1:4909, V-B:GLU:543:CB:9878, V-A:HIS:456:CE1:4069, V-B:HIS:456:CE1:9041, V-A:PRO:482:CG:4326, H-A:HIS:383:NE2:3393, H-A:SER:385:OG:3409, V-A:GLU:543:CG:4907, V-B:TYR:484:CE2:9317, V-B:TYR:484:CZ:9318, V-B:HIS:456:CD2:9039, V-A:ALA:541:CB:4892, V-B:GLU:543:C:9874, V-A:HIS:456:CD2:4067, H-A:LYS:547:NZ:4951, V-A:HIS:456:CG:4065, V-B:GLU:543:CA:9876, V-A:GLU:543:C:4902, V-A:PRO:482:CB:4325, H-B:TYR:484:OH:9319"]

$$$$
RR10_Rahimova_2017
     RDKit          3D

 34 38  0  0  0  0  0  0  0  0999 V2000
  128.6040  132.1610   61.2430 C   0  0  0  0  0  0  0  0  0  0  0  0
  129.8180  131.9910   60.3140 C   0  0  1  0  0  0  0  0  0  0  0  0
  130.9100  131.1000   60.9500 C   0  0  0  0  0  0  0  0  0  0  0  0
  132.1340  130.9710   60.0140 C   0  0  0  0  0  0  0  0  0  0  0  0
  131.7510  130.3940   58.6270 C   0  0  1  0  0  0  0  0  0  0  0  0
  131.3430  128.9880   58.7440 N   0  0  0  0  0  0  0  0  0  0  0  0
  130.5480  128.3320   57.8780 C   0  0  0  0  0  0  0  0  0  0  0  0
  130.0880  128.8550   56.8600 O   0  0  0  0  0  0  0  0  0  0  0  0
  130.2100  126.8660   58.2190 C   0  0  1  0  0  0  0  0  0  0  0  0
  129.4570  126.2200   57.0270 C   0  0  0  0  0  0  0  0  0  0  0  0
  129.1980  124.7240   57.3270 C   0  0  0  0  0  0  0  0  0  0  0  0
  130.4850  123.9720   57.7400 C   0  0  0  0  0  0  0  0  0  0  0  0
  131.1810  124.6880   58.8430 N   0  0  0  0  0  0  0  0  0  0  0  0
  132.4960  123.7720   59.5970 S   0  0  0  0  0  0  0  0  0  0  0  0
  133.7700  124.3230   59.1190 O   0  0  0  0  0  0  0  0  0  0  0  0
  132.2020  122.3430   59.4340 O   0  0  0  0  0  0  0  0  0  0  0  0
  132.3920  124.1590   61.3450 C   0  0  0  0  0  0  0  0  0  0  0  0
  133.5390  124.0590   62.1380 C   0  0  0  0  0  0  0  0  0  0  0  0
  133.5230  124.3440   63.5070 C   0  0  0  0  0  0  0  0  0  0  0  0
  132.2980  124.7400   64.0480 C   0  0  0  0  0  0  0  0  0  0  0  0
  131.8830  125.0900   65.3110 N   0  0  0  0  0  0  0  0  0  0  0  0
  130.5380  125.3910   65.2480 C   0  0  0  0  0  0  0  0  0  0  0  0
  129.7240  125.8100   66.4390 C   0  0  0  0  0  0  0  0  0  0  0  0
  129.8680  125.1480   67.6660 C   0  0  0  0  0  0  0  0  0  0  0  0
  129.1170  125.5380   68.7710 C   0  0  0  0  0  0  0  0  0  0  0  0
  128.2160  126.5930   68.6550 C   0  0  0  0  0  0  0  0  0  0  0  0
  128.0610  127.2610   67.4440 C   0  0  0  0  0  0  0  0  0  0  0  0
  128.8130  126.8700   66.3390 C   0  0  0  0  0  0  0  0  0  0  0  0
  130.0610  125.2630   64.0300 N   0  0  0  0  0  0  0  0  0  0  0  0
  131.1240  124.8590   63.2660 C   0  0  0  0  0  0  0  0  0  0  0  0
  131.1710  124.5680   61.8950 C   0  0  0  0  0  0  0  0  0  0  0  0
  131.5210  126.0950   58.5140 C   0  0  0  0  0  0  0  0  0  0  0  0
  130.6430  131.2880   58.0090 C   0  0  0  0  0  0  0  0  0  0  0  0
  129.4140  131.4120   58.9380 C   0  0  0  0  0  0  0  0  0  0  0  0
  2  1  1  1
  2  3  1  0
  3  4  1  0
  4  5  1  0
  5  6  1  1
  6  7  1  0
  7  8  2  0
  9  7  1  6
  9 10  1  0
 10 11  1  0
 11 12  1  0
 12 13  1  0
 13 14  1  0
 14 15  2  0
 14 16  2  0
 14 17  1  0
 17 18  2  0
 18 19  1  0
 19 20  2  0
 20 21  1  0
 21 22  1  0
 22 23  1  0
 23 24  2  0
 24 25  1  0
 25 26  2  0
 26 27  1  0
 27 28  2  0
 22 29  2  0
 29 30  1  0
 30 31  2  0
 13 32  1  0
  5 33  1  0
 33 34  1  0
 34  2  1  0
 32  9  1  0
 31 17  1  0
 30 20  1  0
 28 23  1  0
M  END
>  <Binding energies>  (67) 
[-8.76]

>  <Ligand effiencies>  (67) 
[-0.24333333333333332]

>  <Interactions>  (67) 
["V-A:ASP:366:CG:3212, V-B:TYR:539:CE2:9848, V-B:TYR:539:CZ:9849, V-A:GLY:454:CA:4048, V-B:GLU:543:CG:9879, V-B:GLU:543:CD:9880, V-A:TYR:484:CE2:4345, V-B:MET:535:CE:9807, V-B:GLU:543:CB:9878, V-A:HIS:456:CE1:4069, V-B:HIS:456:CE1:9041, V-A:TYR:484:CZ:4346, H-A:TYR:484:OH:4347, V-A:PRO:540:CA:4883, V-A:PRO:540:CB:4885, H-A:ASP:366:OD2:3214, V-A:PRO:540:N:4884, V-A:ASP:366:CB:3211, V-A:TYR:539:C:4867, V-A:GLY:453:C:4041, V-A:PRO:540:C:4881, V-A:ALA:541:CB:4892, V-B:GLU:543:C:9874, V-B:GLU:543:CA:9876, H-A:TYR:531:OH:4795"]

$$$$
RR12_Rahimova_2017
     RDKit          3D

 26 28  0  0  0  0  0  0  0  0999 V2000
  133.9520  123.5060   60.0300 C   0  0  0  0  0  0  0  0  0  0  0  0
  133.9180  123.8250   61.5300 C   0  0  0  0  0  0  0  0  0  0  0  0
  133.9730  122.5590   62.4050 C   0  0  0  0  0  0  0  0  0  0  0  0
  132.7210  121.8120   62.3140 N   0  0  0  0  0  0  0  0  0  0  0  0
  131.4970  122.1440   62.8750 C   0  0  0  0  0  0  0  0  0  0  0  0
  131.2680  123.3660   63.7470 C   0  0  0  0  0  0  0  0  0  0  0  0
  130.8450  124.5990   62.9290 C   0  0  0  0  0  0  0  0  0  0  0  0
  131.7150  125.8360   63.2230 C   0  0  0  0  0  0  0  0  0  0  0  0
  132.0190  126.0210   64.6410 N   0  0  0  0  0  0  0  0  0  0  0  0
  133.0790  125.4910   65.2790 C   0  0  0  0  0  0  0  0  0  0  0  0
  133.9170  124.7790   64.7200 O   0  0  0  0  0  0  0  0  0  0  0  0
  133.1960  125.8330   66.7690 C   0  0  0  0  0  0  0  0  0  0  0  0
  132.3500  126.9430   67.0720 O   0  0  0  0  0  0  0  0  0  0  0  0
  131.1020  126.7130   67.6200 C   0  0  0  0  0  0  0  0  0  0  0  0
  130.5490  127.7590   68.3630 C   0  0  0  0  0  0  0  0  0  0  0  0
  129.2940  127.6220   68.9510 C   0  0  0  0  0  0  0  0  0  0  0  0
  128.5860  126.4340   68.7950 C   0  0  0  0  0  0  0  0  0  0  0  0
  129.1240  125.3800   68.0590 C   0  0  0  0  0  0  0  0  0  0  0  0
  130.3790  125.5180   67.4720 C   0  0  0  0  0  0  0  0  0  0  0  0
  130.5480  121.2860   62.5950 N   0  0  0  0  0  0  0  0  0  0  0  0
  131.1430  120.3520   61.7940 C   0  0  0  0  0  0  0  0  0  0  0  0
  130.5810  119.2140   61.1940 C   0  0  0  0  0  0  0  0  0  0  0  0
  131.4050  118.4120   60.4060 C   0  0  0  0  0  0  0  0  0  0  0  0
  132.7510  118.7240   60.2120 C   0  0  0  0  0  0  0  0  0  0  0  0
  133.3410  119.8470   60.7960 C   0  0  0  0  0  0  0  0  0  0  0  0
  132.5130  120.6530   61.5890 C   0  0  0  0  0  0  0  0  0  0  0  0
  1  2  1  0
  2  3  1  0
  3  4  1  0
  4  5  1  0
  5  6  1  0
  6  7  1  0
  7  8  1  0
  8  9  1  0
  9 10  1  0
 10 11  2  0
 10 12  1  0
 12 13  1  0
 13 14  1  0
 14 15  2  0
 15 16  1  0
 16 17  2  0
 17 18  1  0
 18 19  2  0
  5 20  2  0
 20 21  1  0
 21 22  2  0
 22 23  1  0
 23 24  2  0
 24 25  1  0
 25 26  2  0
 26  4  1  0
 19 14  1  0
 26 21  1  0
M  END
>  <Binding energies>  (68) 
[-7.17]

>  <Ligand effiencies>  (68) 
[-0.26555555555555554]

>  <Interactions>  (68) 
["V-A:ILE:369:CG2:3236, V-A:ASP:366:CG:3212, V-B:TYR:539:CD2:9846, V-B:ALA:541:CB:9864, V-A:ARG:545:CZ:4926, V-A:GLY:454:CA:4048, V-B:GLU:543:CG:9879, V-A:LEU:475:CD1:4257, V-A:GLU:543:CB:4906, V-A:ARG:545:CG:4922, V-A:GLU:543:CD:4908, V-A:TYR:484:CE2:4345, H-A:GLU:543:OE2:4910, H-A:ARG:545:NE:4924, H-A:GLY:454:N:4049, H-A:GLU:543:OE1:4909, V-B:GLU:543:CB:9878, V-A:HIS:456:CE1:4069, V-B:HIS:456:CE1:9041, V-A:TYR:484:CZ:4346, V-A:ARG:545:CD:4923, H-A:TYR:484:OH:4347, V-A:ILE:369:CD1:3238, V-B:GLU:543:C:9874, V-B:GLU:543:CA:9876, V-A:ASP:366:CA:3209, V-A:ILE:369:CB:3235, V-A:HIS:383:CD2:3391"]

$$$$
RR13_Rahimova_2017
     RDKit          3D

 48 54  0  0  0  0  0  0  0  0999 V2000
  131.6030  129.6740   57.0970 Cl  0  0  0  0  0  0  0  0  0  0  0  0
  132.0390  130.1820   58.6930 C   0  0  0  0  0  0  0  0  0  0  0  0
  133.3050  130.7450   58.8740 C   0  0  0  0  0  0  0  0  0  0  0  0
  133.7230  131.1540   60.1370 C   0  0  0  0  0  0  0  0  0  0  0  0
  132.8770  131.0000   61.2320 C   0  0  0  0  0  0  0  0  0  0  0  0
  131.6130  130.4390   61.0600 C   0  0  0  0  0  0  0  0  0  0  0  0
  131.1680  130.0310   59.7910 C   0  0  0  0  0  0  0  0  0  0  0  0
  129.7720  129.3900   59.6320 C   0  0  1  0  0  0  0  0  0  0  0  0
  129.0370  129.9650   58.4120 C   0  0  0  0  0  0  0  0  0  0  0  0
  128.9160  131.2350   58.0940 N   0  0  0  0  0  0  0  0  0  0  0  0
  128.1510  131.2660   56.9320 N   0  0  0  0  0  0  0  0  0  0  0  0
  127.7950  129.9840   56.5640 N   0  0  0  0  0  0  0  0  0  0  0  0
  128.3320  129.2010   57.5060 N   0  0  0  0  0  0  0  0  0  0  0  0
  128.1940  127.7510   57.4270 C   0  0  0  0  0  0  0  0  0  0  0  0
  127.1190  127.2630   58.4160 C   0  0  0  0  0  0  0  0  0  0  0  0
  126.8650  125.7680   58.2960 C   0  0  0  0  0  0  0  0  0  0  0  0
  125.7330  125.2030   58.8890 C   0  0  0  0  0  0  0  0  0  0  0  0
  125.5050  123.8340   58.7850 C   0  0  0  0  0  0  0  0  0  0  0  0
  126.4090  123.0340   58.0880 C   0  0  0  0  0  0  0  0  0  0  0  0
  127.5400  123.5910   57.4960 C   0  0  0  0  0  0  0  0  0  0  0  0
  127.7690  124.9610   57.6000 C   0  0  0  0  0  0  0  0  0  0  0  0
  129.8010  127.9070   59.6270 N   0  0  0  0  0  0  0  0  0  0  0  0
  129.7730  127.3850   61.0060 C   0  0  0  0  0  0  0  0  0  0  0  0
  129.6680  125.8420   61.0070 C   0  0  0  0  0  0  0  0  0  0  0  0
  130.8330  125.2430   60.3350 N   0  0  0  0  0  0  0  0  0  0  0  0
  130.8160  123.7620   60.3840 C   0  0  1  0  0  0  0  0  0  0  0  0
  132.0590  123.1020   61.0210 C   0  0  0  0  0  0  0  0  0  0  0  0
  133.0640  123.9560   61.4950 C   0  0  0  0  0  0  0  0  0  0  0  0
  134.2130  123.4490   62.1000 C   0  0  0  0  0  0  0  0  0  0  0  0
  134.3780  122.0740   62.2350 C   0  0  0  0  0  0  0  0  0  0  0  0
  133.3990  121.2080   61.7560 C   0  0  0  0  0  0  0  0  0  0  0  0
  132.2450  121.7060   61.1440 C   0  0  0  0  0  0  0  0  0  0  0  0
  131.1200  120.5470   60.5200 Cl  0  0  0  0  0  0  0  0  0  0  0  0
  129.5400  123.1960   61.0130 C   0  0  0  0  0  0  0  0  0  0  0  0
  128.4800  122.7920   60.3520 N   0  0  0  0  0  0  0  0  0  0  0  0
  127.5790  122.3440   61.3130 N   0  0  0  0  0  0  0  0  0  0  0  0
  128.1270  122.4730   62.5720 N   0  0  0  0  0  0  0  0  0  0  0  0
  129.3470  122.9810   62.3610 N   0  0  0  0  0  0  0  0  0  0  0  0
  130.2210  123.2750   63.4910 C   0  0  0  0  0  0  0  0  0  0  0  0
  129.8960  124.6620   64.0760 C   0  0  0  0  0  0  0  0  0  0  0  0
  130.9890  125.1630   65.0070 C   0  0  0  0  0  0  0  0  0  0  0  0
  130.6500  125.7410   66.2330 C   0  0  0  0  0  0  0  0  0  0  0  0
  131.6520  126.1940   67.0880 C   0  0  0  0  0  0  0  0  0  0  0  0
  132.9890  126.0680   66.7140 C   0  0  0  0  0  0  0  0  0  0  0  0
  133.3320  125.4920   65.4920 C   0  0  0  0  0  0  0  0  0  0  0  0
  132.3320  125.0380   64.6370 C   0  0  0  0  0  0  0  0  0  0  0  0
  130.8550  125.7630   58.9560 C   0  0  0  0  0  0  0  0  0  0  0  0
  130.9700  127.3050   58.9620 C   0  0  0  0  0  0  0  0  0  0  0  0
  1  2  1  0
  2  3  2  0
  3  4  1  0
  4  5  2  0
  5  6  1  0
  6  7  2  0
  7  8  1  0
  8  9  1  0
  9 10  2  0
 10 11  1  0
 11 12  2  0
 12 13  1  0
 13 14  1  0
 14 15  1  0
 15 16  1  0
 16 17  2  0
 17 18  1  0
 18 19  2  0
 19 20  1  0
 20 21  2  0
  8 22  1  6
 22 23  1  0
 23 24  1  0
 24 25  1  0
 26 25  1  1
 26 27  1  0
 27 28  2  0
 28 29  1  0
 29 30  2  0
 30 31  1  0
 31 32  2  0
 32 33  1  0
 26 34  1  0
 34 35  2  0
 35 36  1  0
 36 37  2  0
 37 38  1  0
 38 39  1  0
 39 40  1  0
 40 41  1  0
 41 42  2  0
 42 43  1  0
 43 44  2  0
 44 45  1  0
 45 46  2  0
 25 47  1  0
 47 48  1  0
  7  2  1  0
 13  9  1  0
 21 16  1  0
 48 22  1  0
 32 27  1  0
 38 34  1  0
 46 41  1  0
M  END
>  <Binding energies>  (69) 
[-11.22]

>  <Ligand effiencies>  (69) 
[-0.23375]

>  <Interactions>  (69) 
["V-B:PRO:540:CB:9857, H-B:ALA:541:N:9863, V-A:ASP:366:CG:3212, V-B:TYR:539:CD2:9846, V-B:PRO:540:CA:9855, V-B:TYR:539:CE2:9848, V-B:PRO:540:N:9856, V-B:ASP:366:CG:8184, V-B:ALA:541:CB:9864, V-A:ARG:545:CZ:4926, V-A:GLY:454:CA:4048, V-B:GLU:543:CG:9879, V-B:GLU:543:CD:9880, V-A:LEU:475:CD1:4257, V-A:ARG:545:CG:4922, V-A:GLU:543:CD:4908, V-B:MET:535:CE:9807, V-A:HIS:456:CE1:4069, V-A:ARG:545:CD:4923, V-A:LEU:363:CD1:3188, V-A:LEU:363:CA:3184, V-A:ASN:362:C:3171, V-A:PRO:540:CA:4883, V-A:PRO:540:CB:4885, V-A:ASP:366:CB:3211, V-A:GLY:453:C:4041, V-A:ILE:369:CD1:3238, V-B:ASP:366:CB:8183, V-A:ASN:362:CB:3175"]

$$$$
RR14_Rahimova_2017
     RDKit          3D

 39 43  0  0  0  0  0  0  0  0999 V2000
  129.4900  128.1180   70.3180 C   0  0  0  0  0  0  0  0  0  0  0  0
  130.1250  128.4070   69.0770 O   0  0  0  0  0  0  0  0  0  0  0  0
  130.2500  127.4030   68.1350 C   0  0  0  0  0  0  0  0  0  0  0  0
  131.5120  127.2410   67.5620 C   0  0  0  0  0  0  0  0  0  0  0  0
  131.7280  126.2720   66.5870 C   0  0  0  0  0  0  0  0  0  0  0  0
  130.6740  125.4560   66.1690 C   0  0  0  0  0  0  0  0  0  0  0  0
  130.8900  124.4390   65.0550 C   0  0  0  0  0  0  0  0  0  0  0  0
  132.0140  124.7700   64.1790 N   0  0  0  0  0  0  0  0  0  0  0  0
  133.2560  124.3860   64.4980 N   0  0  0  0  0  0  0  0  0  0  0  0
  134.0490  124.8860   63.4840 N   0  0  0  0  0  0  0  0  0  0  0  0
  133.2680  125.5770   62.5630 N   0  0  0  0  0  0  0  0  0  0  0  0
  132.0370  125.4990   63.0100 C   0  0  0  0  0  0  0  0  0  0  0  0
  130.8210  126.1300   62.3460 C   0  0  0  0  0  0  0  0  0  0  0  0
  129.6270  125.2720   62.4250 N   0  0  0  0  0  0  0  0  0  0  0  0
  128.4170  126.0430   62.7380 C   0  0  0  0  0  0  0  0  0  0  0  0
  127.7940  126.7330   61.5050 C   0  0  0  0  0  0  0  0  0  0  0  0
  126.5530  126.0040   60.9480 C   0  0  0  0  0  0  0  0  0  0  0  0
  126.8600  125.1120   59.8240 N   0  0  0  0  0  0  0  0  0  0  0  0
  127.3110  125.8900   58.6640 C   0  0  0  0  0  0  0  0  0  0  0  0
  127.5930  124.9850   57.4460 C   0  0  0  0  0  0  0  0  0  0  0  0
  126.4490  124.1900   57.1520 O   0  0  0  0  0  0  0  0  0  0  0  0
  126.0810  123.3520   58.2410 C   0  0  0  0  0  0  0  0  0  0  0  0
  125.7510  124.2080   59.4820 C   0  0  0  0  0  0  0  0  0  0  0  0
  129.4540  124.5290   61.1690 C   0  0  0  0  0  0  0  0  0  0  0  0
  130.0430  123.1200   61.1360 C   0  0  0  0  0  0  0  0  0  0  0  0
  131.3810  122.9190   61.2170 C   0  0  0  0  0  0  0  0  0  0  0  0
  131.9780  121.5700   61.1480 C   0  0  0  0  0  0  0  0  0  0  0  0
  133.3580  121.3230   61.2490 C   0  0  0  0  0  0  0  0  0  0  0  0
  134.3590  122.4550   61.4430 C   0  0  0  0  0  0  0  0  0  0  0  0
  133.8200  120.0070   61.1730 C   0  0  0  0  0  0  0  0  0  0  0  0
  132.9300  118.9490   61.0000 C   0  0  0  0  0  0  0  0  0  0  0  0
  131.5560  119.1830   60.9000 C   0  0  0  0  0  0  0  0  0  0  0  0
  130.6080  118.0050   60.7130 C   0  0  0  0  0  0  0  0  0  0  0  0
  131.0800  120.5010   60.9750 C   0  0  0  0  0  0  0  0  0  0  0  0
  129.7020  120.7870   60.8770 N   0  0  0  0  0  0  0  0  0  0  0  0
  129.1100  122.0060   60.9350 C   0  0  0  0  0  0  0  0  0  0  0  0
  127.8900  122.1130   60.8190 O   0  0  0  0  0  0  0  0  0  0  0  0
  129.4150  125.5900   66.7580 C   0  0  0  0  0  0  0  0  0  0  0  0
  129.2010  126.5610   67.7320 C   0  0  0  0  0  0  0  0  0  0  0  0
  1  2  1  0
  2  3  1  0
  3  4  2  0
  4  5  1  0
  5  6  2  0
  6  7  1  0
  7  8  1  0
  8  9  1  0
  9 10  2  0
 10 11  1  0
 11 12  2  0
 12 13  1  0
 13 14  1  0
 14 15  1  0
 15 16  1  0
 16 17  1  0
 17 18  1  0
 18 19  1  0
 19 20  1  0
 20 21  1  0
 21 22  1  0
 22 23  1  0
 14 24  1  0
 24 25  1  0
 25 26  2  0
 26 27  1  0
 27 28  2  0
 28 29  1  0
 28 30  1  0
 30 31  2  0
 31 32  1  0
 32 33  1  0
 32 34  2  0
 34 35  1  0
 35 36  1  0
 36 37  2  0
  6 38  1  0
 38 39  2  0
 39  3  1  0
 12  8  1  0
 23 18  1  0
 36 25  1  0
 34 27  1  0
M  END
>  <Binding energies>  (70) 
[-9.96]

>  <Ligand effiencies>  (70) 
[-0.24900000000000003]

>  <Interactions>  (70) 
["V-B:PRO:540:CB:9857, V-A:ILE:369:CG2:3236, H-B:ALA:541:N:9863, V-B:TYR:539:CD2:9846, V-A:SER:385:C:3404, V-B:PRO:540:CA:9855, V-B:TYR:539:C:9839, V-B:ASP:366:CG:8184, V-B:ALA:541:CB:9864, V-A:ARG:545:CZ:4926, V-B:GLU:543:CG:9879, V-B:GLU:543:CD:9880, V-A:LEU:475:CD1:4257, V-A:GLU:543:CB:4906, V-A:ARG:545:CG:4922, V-A:GLU:543:CD:4908, H-A:GLY:454:N:4049, V-B:MET:535:CE:9807, V-B:GLU:543:CB:9878, V-A:HIS:456:CE1:4069, H-B:TYR:531:OH:9767, H-A:ARG:545:NH1:4927, H-A:ARG:545:NH2:4928, V-B:HIS:456:CE1:9041, V-A:TYR:484:CZ:4346, V-A:PRO:482:CG:4326, H-A:TYR:484:OH:4347, V-A:ILE:369:CD1:3238, V-B:PRO:540:C:9853, H-B:TYR:539:O:9840, V-A:PRO:482:CB:4325"]

$$$$
RR15_Rahimova_2017
     RDKit          3D

 45 49  0  0  0  0  0  0  0  0999 V2000
  130.2510  126.6770   75.8600 C   0  0  0  0  0  0  0  0  0  0  0  0
  129.6400  127.6440   75.0120 O   0  0  0  0  0  0  0  0  0  0  0  0
  129.4570  127.3550   73.6700 C   0  0  0  0  0  0  0  0  0  0  0  0
  129.1670  126.0710   73.1840 C   0  0  0  0  0  0  0  0  0  0  0  0
  128.9960  125.8480   71.8200 C   0  0  0  0  0  0  0  0  0  0  0  0
  129.1130  126.8980   70.9030 C   0  0  0  0  0  0  0  0  0  0  0  0
  128.9360  126.6560   69.4290 C   0  0  0  0  0  0  0  0  0  0  0  0
  127.7610  126.3820   68.8800 N   0  0  0  0  0  0  0  0  0  0  0  0
  127.9980  126.2180   67.5310 N   0  0  0  0  0  0  0  0  0  0  0  0
  129.3050  126.4550   67.4110 N   0  0  0  0  0  0  0  0  0  0  0  0
  130.0210  126.2290   66.1570 C   0  0  0  0  0  0  0  0  0  0  0  0
  130.0770  124.7510   65.6980 C   0  0  0  0  0  0  0  0  0  0  0  0
  129.5380  123.8990   66.4090 O   0  0  0  0  0  0  0  0  0  0  0  0
  130.6870  124.4310   64.5160 N   0  0  0  0  0  0  0  0  0  0  0  0
  130.9810  123.0290   64.1580 C   0  0  0  0  0  0  0  0  0  0  0  0
  129.8920  122.3740   63.2800 C   0  0  0  0  0  0  0  0  0  0  0  0
  130.3890  121.8480   61.9130 C   0  0  0  0  0  0  0  0  0  0  0  0
  131.1910  120.6250   62.0080 N   0  0  0  0  0  0  0  0  0  0  0  0
  130.4550  119.4090   61.6320 C   0  0  0  0  0  0  0  0  0  0  0  0
  131.3670  118.1630   61.6660 C   0  0  0  0  0  0  0  0  0  0  0  0
  132.5150  118.3720   60.8500 O   0  0  0  0  0  0  0  0  0  0  0  0
  133.2870  119.4900   61.2770 C   0  0  0  0  0  0  0  0  0  0  0  0
  132.4280  120.7720   61.2290 C   0  0  0  0  0  0  0  0  0  0  0  0
  130.9280  125.4200   63.4210 C   0  0  2  0  0  0  0  0  0  0  0  0
  129.6240  125.9840   62.7750 C   0  0  0  0  0  0  0  0  0  0  0  0
  129.0530  125.3820   61.8650 O   0  0  0  0  0  0  0  0  0  0  0  0
  129.1600  127.1300   63.3050 N   0  0  0  0  0  0  0  0  0  0  0  0
  127.9110  127.7860   62.9350 C   0  0  0  0  0  0  0  0  0  0  0  0
  127.0580  128.1000   64.1790 C   0  0  2  0  0  0  0  0  0  0  0  0
  126.4360  129.5070   64.2140 C   0  0  0  0  0  0  0  0  0  0  0  0
  127.3240  130.2900   65.1500 C   0  0  0  0  0  0  0  0  0  0  0  0
  127.7400  129.2150   66.1380 C   0  0  0  0  0  0  0  0  0  0  0  0
  127.9600  128.0900   65.2940 O   0  0  0  0  0  0  0  0  0  0  0  0
  132.0200  124.9260   62.4790 C   0  0  0  0  0  0  0  0  0  0  0  0
  133.3060  124.7410   63.0010 C   0  0  0  0  0  0  0  0  0  0  0  0
  134.3430  124.2930   62.1880 C   0  0  0  0  0  0  0  0  0  0  0  0
  134.1000  124.0230   60.8440 C   0  0  0  0  0  0  0  0  0  0  0  0
  135.1070  123.5860   60.0550 F   0  0  0  0  0  0  0  0  0  0  0  0
  132.8280  124.1990   60.3080 C   0  0  0  0  0  0  0  0  0  0  0  0
  131.7910  124.6490   61.1220 C   0  0  0  0  0  0  0  0  0  0  0  0
  129.9360  126.6910   68.5680 N   0  0  0  0  0  0  0  0  0  0  0  0
  129.4010  128.1790   71.3920 C   0  0  0  0  0  0  0  0  0  0  0  0
  129.5720  128.4210   72.7650 C   0  0  0  0  0  0  0  0  0  0  0  0
  129.8540  129.6680   73.2960 O   0  0  0  0  0  0  0  0  0  0  0  0
  129.0850  130.7940   72.8910 C   0  0  0  0  0  0  0  0  0  0  0  0
  1  2  1  0
  2  3  1  0
  3  4  2  0
  4  5  1  0
  5  6  2  0
  6  7  1  0
  7  8  1  0
  8  9  2  0
  9 10  1  0
 10 11  1  0
 11 12  1  0
 12 13  2  0
 12 14  1  0
 14 15  1  0
 15 16  1  0
 16 17  1  0
 17 18  1  0
 18 19  1  0
 19 20  1  0
 20 21  1  0
 21 22  1  0
 22 23  1  0
 24 14  1  1
 24 25  1  0
 25 26  2  0
 25 27  1  0
 27 28  1  0
 29 28  1  6
 29 30  1  0
 30 31  1  0
 31 32  1  0
 32 33  1  0
 24 34  1  0
 34 35  2  0
 35 36  1  0
 36 37  2  0
 37 38  1  0
 37 39  1  0
 39 40  2  0
 10 41  1  0
  6 42  1  0
 42 43  2  0
 43 44  1  0
 44 45  1  0
 43  3  1  0
 41  7  2  0
 23 18  1  0
 33 29  1  0
 40 34  1  0
M  END
>  <Binding energies>  (71) 
[-8.47]

>  <Ligand effiencies>  (71) 
[-0.1841304347826087]

>  <Interactions>  (71) 
["V-A:ILE:369:CG2:3236, V-A:ASP:366:CG:3212, V-B:ALA:541:CB:9864, V-A:ARG:545:CZ:4926, V-B:GLU:543:CG:9879, V-B:GLU:543:CD:9880, V-A:LEU:475:CD1:4257, V-A:GLU:543:CD:4908, V-A:TYR:484:CE2:4345, H-A:GLU:543:OE2:4910, H-A:GLU:543:OE1:4909, V-B:GLU:543:CB:9878, V-A:HIS:456:CE1:4069, V-B:HIS:456:CE1:9041, V-A:TYR:484:CZ:4346, V-A:PRO:482:CG:4326, H-A:HIS:383:NE2:3393, H-A:SER:385:OG:3409, H-A:TYR:484:OH:4347, V-A:ASP:366:CB:3211, V-A:GLY:453:CA:4043, V-A:GLY:453:C:4041, V-A:ILE:369:CD1:3238, V-A:GLU:543:CG:4907, V-B:HIS:456:CD2:9039, H-A:LYS:547:NZ:4951, V-A:PRO:482:CB:4325, V-A:ASP:366:CA:3209, V-A:ILE:369:CB:3235, V-A:ILE:369:CG1:3237"]

$$$$
RR17_Rahimova_2017
     RDKit          3D

 38 41  0  0  0  0  0  0  0  0999 V2000
  125.6930  122.3900   56.6400 C   0  0  0  0  0  0  0  0  0  0  0  0
  126.6780  123.0600   57.6020 C   0  0  0  0  0  0  0  0  0  0  0  0
  127.8280  122.2290   57.7320 O   0  0  0  0  0  0  0  0  0  0  0  0
  128.9940  122.7620   58.2510 C   0  0  0  0  0  0  0  0  0  0  0  0
  129.5960  122.0500   59.2870 C   0  0  0  0  0  0  0  0  0  0  0  0
  130.7710  122.5090   59.8740 C   0  0  0  0  0  0  0  0  0  0  0  0
  131.3710  123.6980   59.4330 C   0  0  0  0  0  0  0  0  0  0  0  0
  132.6400  124.1670   60.0840 C   0  0  0  0  0  0  0  0  0  0  0  0
  133.7500  123.9890   59.5740 O   0  0  0  0  0  0  0  0  0  0  0  0
  132.5060  124.8810   61.4480 C   0  0  0  0  0  0  0  0  0  0  0  0
  133.4830  124.0580   62.7550 S   0  0  0  0  0  0  0  0  0  0  0  0
  132.7270  124.7650   64.1920 C   0  0  0  0  0  0  0  0  0  0  0  0
  133.3630  125.3820   65.1600 N   0  0  0  0  0  0  0  0  0  0  0  0
  132.4200  125.7950   66.0930 N   0  0  0  0  0  0  0  0  0  0  0  0
  131.2470  125.4150   65.6510 C   0  0  0  0  0  0  0  0  0  0  0  0
  129.9290  125.6770   66.3640 C   0  0  0  0  0  0  0  0  0  0  0  0
  129.9060  126.9260   67.1210 N   0  0  0  0  0  0  0  0  0  0  0  0
  129.6650  126.9960   68.5050 C   0  0  0  0  0  0  0  0  0  0  0  0
  129.0150  125.9140   69.0990 C   0  0  0  0  0  0  0  0  0  0  0  0
  128.7410  125.9200   70.4640 C   0  0  0  0  0  0  0  0  0  0  0  0
  129.1190  127.0100   71.2530 C   0  0  0  0  0  0  0  0  0  0  0  0
  128.8050  127.0040   72.7490 C   0  0  0  0  0  0  0  0  0  0  0  0
  128.4070  128.2010   73.1870 F   0  0  0  0  0  0  0  0  0  0  0  0
  127.8380  126.1260   73.0180 F   0  0  0  0  0  0  0  0  0  0  0  0
  129.9000  126.6540   73.4230 F   0  0  0  0  0  0  0  0  0  0  0  0
  129.7780  128.0930   70.6610 C   0  0  0  0  0  0  0  0  0  0  0  0
  130.0520  128.0850   69.2970 C   0  0  0  0  0  0  0  0  0  0  0  0
  131.3710  124.7440   64.4520 N   0  0  0  0  0  0  0  0  0  0  0  0
  130.3490  124.1950   63.6640 C   0  0  0  0  0  0  0  0  0  0  0  0
  129.4130  125.0400   63.0660 C   0  0  0  0  0  0  0  0  0  0  0  0
  128.3970  124.4950   62.2870 C   0  0  0  0  0  0  0  0  0  0  0  0
  128.3130  123.1050   62.1030 C   0  0  0  0  0  0  0  0  0  0  0  0
  127.3410  122.4770   61.3480 O   0  0  0  0  0  0  0  0  0  0  0  0
  126.0450  123.0600   61.2600 C   0  0  0  0  0  0  0  0  0  0  0  0
  129.2570  122.2750   62.7110 C   0  0  0  0  0  0  0  0  0  0  0  0
  130.2770  122.8130   63.4910 C   0  0  0  0  0  0  0  0  0  0  0  0
  130.7650  124.4120   58.3900 C   0  0  0  0  0  0  0  0  0  0  0  0
  129.5890  123.9500   57.8040 C   0  0  0  0  0  0  0  0  0  0  0  0
  1  2  1  0
  2  3  1  0
  3  4  1  0
  4  5  2  0
  5  6  1  0
  6  7  2  0
  7  8  1  0
  8  9  2  0
  8 10  1  0
 10 11  1  0
 11 12  1  0
 12 13  2  0
 13 14  1  0
 14 15  2  0
 15 16  1  0
 16 17  1  0
 17 18  1  0
 18 19  2  0
 19 20  1  0
 20 21  2  0
 21 22  1  0
 22 23  1  0
 22 24  1  0
 22 25  1  0
 21 26  1  0
 26 27  2  0
 15 28  1  0
 28 29  1  0
 29 30  2  0
 30 31  1  0
 31 32  2  0
 32 33  1  0
 33 34  1  0
 32 35  1  0
 35 36  2  0
  7 37  1  0
 37 38  2  0
 38  4  1  0
 28 12  1  0
 36 29  1  0
 27 18  1  0
M  END
>  <Binding energies>  (72) 
[-8.21]

>  <Ligand effiencies>  (72) 
[-0.21051282051282053]

>  <Interactions>  (72) 
["V-B:PRO:540:CB:9857, H-B:ALA:541:N:9863, V-A:ASP:366:CG:3212, V-B:TYR:539:CD2:9846, V-B:PRO:540:CA:9855, V-B:TYR:539:C:9839, V-B:TYR:539:CE2:9848, V-B:TYR:539:CZ:9849, V-B:PRO:540:N:9856, V-B:LEU:363:CD1:8160, V-B:ALA:541:CB:9864, V-A:ARG:545:CZ:4926, V-B:GLU:543:CG:9879, V-B:GLU:543:CD:9880, V-A:GLU:543:CB:4906, V-A:GLU:543:CD:4908, H-A:ARG:545:NE:4924, H-A:GLY:454:N:4049, V-B:PRO:540:CD:9859, V-B:MET:535:CE:9807, H-A:GLU:543:OE1:4909, V-B:GLU:543:CB:9878, V-A:HIS:456:CE1:4069, H-A:ARG:545:NH2:4928, H-A:TYR:484:OH:4347, V-B:HIS:456:CD2:9039, V-B:PRO:540:C:9853, V-B:GLU:543:C:9874, V-A:GLU:543:C:4902, V-B:ALA:541:CA:9862, V-B:GLY:544:C:9884"]

$$$$
RR19_Rahimova_2017
     RDKit          3D

 46 51  0  0  0  0  0  0  0  0999 V2000
  128.6680  127.5880   59.0670 O   0  0  0  0  0  0  0  0  0  0  0  0
  129.6180  127.9230   59.7810 C   0  0  0  0  0  0  0  0  0  0  0  0
  130.6320  127.1170   60.1880 N   0  0  0  0  0  0  0  0  0  0  0  0
  131.0390  125.8620   59.8100 C   0  0  0  0  0  0  0  0  0  0  0  0
  130.4760  125.0080   58.4610 S   0  0  0  0  0  0  0  0  0  0  0  0
  131.9790  125.4160   60.7060 N   0  0  0  0  0  0  0  0  0  0  0  0
  132.7930  124.3310   60.7290 C   0  0  0  0  0  0  0  0  0  0  0  0
  132.9960  123.5500   59.7960 O   0  0  0  0  0  0  0  0  0  0  0  0
  133.4870  124.0940   62.0930 C   0  0  2  0  0  0  0  0  0  0  0  0
  133.9490  122.6300   62.3460 C   0  0  0  0  0  0  0  0  0  0  0  0
  133.0480  121.5560   61.7560 C   0  0  0  0  0  0  0  0  0  0  0  0
  133.5680  120.5680   60.8930 C   0  0  0  0  0  0  0  0  0  0  0  0
  132.7470  119.5500   60.4280 C   0  0  0  0  0  0  0  0  0  0  0  0
  131.4160  119.4870   60.8230 C   0  0  0  0  0  0  0  0  0  0  0  0
  130.8980  120.4350   61.6960 C   0  0  0  0  0  0  0  0  0  0  0  0
  131.7030  121.4600   62.1750 C   0  0  0  0  0  0  0  0  0  0  0  0
  132.6580  124.6070   63.2180 N   0  0  0  0  0  0  0  0  0  0  0  0
  131.2970  124.5200   63.1930 C   0  0  0  0  0  0  0  0  0  0  0  0
  130.5950  124.0630   62.2900 O   0  0  0  0  0  0  0  0  0  0  0  0
  130.8400  125.0860   64.4860 C   0  0  0  0  0  0  0  0  0  0  0  0
  129.5570  125.2570   65.0070 C   0  0  0  0  0  0  0  0  0  0  0  0
  129.4200  125.8220   66.2790 C   0  0  0  0  0  0  0  0  0  0  0  0
  130.5550  126.2030   67.0090 C   0  0  0  0  0  0  0  0  0  0  0  0
  131.8330  126.0210   66.4700 C   0  0  0  0  0  0  0  0  0  0  0  0
  131.9480  125.4570   65.1980 C   0  0  0  0  0  0  0  0  0  0  0  0
  133.1440  125.1380   64.3800 C   0  0  0  0  0  0  0  0  0  0  0  0
  134.3240  125.3070   64.6910 O   0  0  0  0  0  0  0  0  0  0  0  0
  129.7080  129.3830   60.3000 C   0  0  2  0  0  0  0  0  0  0  0  0
  131.1430  129.9830   60.2490 C   0  0  0  0  0  0  0  0  0  0  0  0
  131.4620  130.7060   58.9530 C   0  0  0  0  0  0  0  0  0  0  0  0
  132.6110  130.3570   58.2110 C   0  0  0  0  0  0  0  0  0  0  0  0
  132.8470  130.9490   56.9760 C   0  0  0  0  0  0  0  0  0  0  0  0
  131.9420  131.8630   56.4540 C   0  0  0  0  0  0  0  0  0  0  0  0
  130.7860  132.1870   57.1540 C   0  0  0  0  0  0  0  0  0  0  0  0
  130.5330  131.6080   58.3910 C   0  0  0  0  0  0  0  0  0  0  0  0
  129.0850  129.5720   61.6410 N   0  0  0  0  0  0  0  0  0  0  0  0
  128.5950  128.5230   62.3590 C   0  0  0  0  0  0  0  0  0  0  0  0
  128.5740  127.3370   62.0270 O   0  0  0  0  0  0  0  0  0  0  0  0
  128.0920  129.1130   63.6240 C   0  0  0  0  0  0  0  0  0  0  0  0
  127.4810  128.5190   64.7300 C   0  0  0  0  0  0  0  0  0  0  0  0
  127.1060  129.3330   65.8050 C   0  0  0  0  0  0  0  0  0  0  0  0
  127.3450  130.7130   65.7630 C   0  0  0  0  0  0  0  0  0  0  0  0
  127.9610  131.2890   64.6460 C   0  0  0  0  0  0  0  0  0  0  0  0
  128.3250  130.4600   63.5840 C   0  0  0  0  0  0  0  0  0  0  0  0
  128.9840  130.7700   62.2920 C   0  0  0  0  0  0  0  0  0  0  0  0
  129.3600  131.8720   61.8910 O   0  0  0  0  0  0  0  0  0  0  0  0
  1  2  2  0
  2  3  1  0
  3  4  1  0
  4  5  2  0
  4  6  1  0
  6  7  1  0
  7  8  2  0
  7  9  1  0
  9 10  1  1
 10 11  1  0
 11 12  2  0
 12 13  1  0
 13 14  2  0
 14 15  1  0
 15 16  2  0
  9 17  1  0
 17 18  1  0
 18 19  2  0
 18 20  1  0
 20 21  2  0
 21 22  1  0
 22 23  2  0
 23 24  1  0
 24 25  2  0
 25 26  1  0
 26 27  2  0
  2 28  1  0
 28 29  1  1
 29 30  1  0
 30 31  2  0
 31 32  1  0
 32 33  2  0
 33 34  1  0
 34 35  2  0
 28 36  1  0
 36 37  1  0
 37 38  2  0
 37 39  1  0
 39 40  2  0
 40 41  1  0
 41 42  2  0
 42 43  1  0
 43 44  2  0
 44 45  1  0
 45 46  2  0
 16 11  1  0
 26 17  1  0
 35 30  1  0
 45 36  1  0
 25 20  1  0
 44 39  1  0
M  END
>  <Binding energies>  (73) 
[-11.63]

>  <Ligand effiencies>  (73) 
[-0.24229166666666668]

>  <Interactions>  (73) 
["V-A:ILE:369:CG2:3236, V-A:ASP:366:CG:3212, V-B:TYR:539:CD2:9846, V-B:ALA:541:CB:9864, V-A:ARG:545:CZ:4926, V-A:GLY:454:CA:4048, V-B:GLU:543:CG:9879, V-B:GLU:543:CD:9880, V-A:LEU:475:CD1:4257, V-A:GLU:543:CD:4908, H-A:ARG:545:NE:4924, H-A:GLY:454:N:4049, V-B:GLU:543:CB:9878, V-A:HIS:456:CE1:4069, H-A:ARG:545:NH1:4927, H-A:ARG:545:NH2:4928, V-A:LEU:363:CD1:3188, V-A:PRO:540:CA:4883, V-A:PRO:540:CB:4885, H-A:ASP:366:OD2:3214, V-A:PRO:540:N:4884, V-A:ASP:366:CB:3211, V-A:TYR:539:C:4867, V-A:ILE:369:CD1:3238, H-A:ASP:366:OD1:3213, V-A:GLU:543:CG:4907, V-B:TYR:484:CE2:9317, V-B:TYR:484:CZ:9318, V-A:PRO:540:CD:4887, H-A:ALA:541:N:4891, V-A:ALA:541:CB:4892"]

$$$$
RR1_Rahimova_2017
     RDKit          3D

 41 44  0  0  0  0  0  0  0  0999 V2000
  133.6240  125.4630   65.8850 C   0  0  0  0  0  0  0  0  0  0  0  0
  134.2340  125.1130   64.6470 O   0  0  0  0  0  0  0  0  0  0  0  0
  133.4390  124.9270   63.5330 C   0  0  0  0  0  0  0  0  0  0  0  0
  133.9120  124.4800   62.2890 C   0  0  0  0  0  0  0  0  0  0  0  0
  133.0360  124.3290   61.2190 C   0  0  0  0  0  0  0  0  0  0  0  0
  131.6780  124.6130   61.3710 C   0  0  0  0  0  0  0  0  0  0  0  0
  130.8810  124.4730   60.2190 N   0  0  0  0  0  0  0  0  0  0  0  0
  130.1150  125.3910   59.5920 C   0  0  0  0  0  0  0  0  0  0  0  0
  129.9300  126.5410   59.9920 O   0  0  0  0  0  0  0  0  0  0  0  0
  129.4530  124.8960   58.2970 C   0  0  0  0  0  0  0  0  0  0  0  0
  128.0190  123.7870   58.5240 S   0  0  0  0  0  0  0  0  0  0  0  0
  128.7620  122.6620   59.6580 C   0  0  0  0  0  0  0  0  0  0  0  0
  129.8120  121.9290   59.3860 N   0  0  0  0  0  0  0  0  0  0  0  0
  130.0290  121.2550   60.5110 C   0  0  0  0  0  0  0  0  0  0  0  0
  131.1660  120.2850   60.6600 C   0  0  0  0  0  0  0  0  0  0  0  0
  132.4750  120.7210   60.9200 C   0  0  0  0  0  0  0  0  0  0  0  0
  133.5120  119.7960   61.0500 C   0  0  0  0  0  0  0  0  0  0  0  0
  133.2140  118.4410   60.9170 C   0  0  0  0  0  0  0  0  0  0  0  0
  131.9620  117.9840   60.6650 N   0  0  0  0  0  0  0  0  0  0  0  0
  130.9670  118.9000   60.5430 C   0  0  0  0  0  0  0  0  0  0  0  0
  129.1800  121.5010   61.4910 N   0  0  0  0  0  0  0  0  0  0  0  0
  128.3620  122.4050   60.9440 N   0  0  0  0  0  0  0  0  0  0  0  0
  127.2620  122.9780   61.7200 C   0  0  0  0  0  0  0  0  0  0  0  0
  127.0580  124.4920   61.5390 C   0  0  0  0  0  0  0  0  0  0  0  0
  126.0550  124.9320   60.9660 O   0  0  0  0  0  0  0  0  0  0  0  0
  128.0410  125.2620   62.0430 N   0  0  0  0  0  0  0  0  0  0  0  0
  127.8570  126.6370   62.0490 N   0  0  0  0  0  0  0  0  0  0  0  0
  128.4710  127.3520   63.0170 C   0  0  0  0  0  0  0  0  0  0  0  0
  129.2650  126.8720   63.8330 O   0  0  0  0  0  0  0  0  0  0  0  0
  128.1500  128.8320   63.0430 C   0  0  0  0  0  0  0  0  0  0  0  0
  127.0340  129.2930   63.7500 C   0  0  0  0  0  0  0  0  0  0  0  0
  126.7140  130.6460   63.7770 C   0  0  0  0  0  0  0  0  0  0  0  0
  127.5000  131.5840   63.0880 C   0  0  0  0  0  0  0  0  0  0  0  0
  127.2300  132.9410   63.0630 O   0  0  0  0  0  0  0  0  0  0  0  0
  126.7480  133.5370   61.8640 C   0  0  0  0  0  0  0  0  0  0  0  0
  128.6180  131.1420   62.3680 C   0  0  0  0  0  0  0  0  0  0  0  0
  129.3490  132.1040   61.6910 O   0  0  0  0  0  0  0  0  0  0  0  0
  129.8370  131.8250   60.3830 C   0  0  0  0  0  0  0  0  0  0  0  0
  128.9350  129.7720   62.3550 C   0  0  0  0  0  0  0  0  0  0  0  0
  131.2010  125.0590   62.6140 C   0  0  0  0  0  0  0  0  0  0  0  0
  132.0800  125.2080   63.6820 C   0  0  0  0  0  0  0  0  0  0  0  0
  1  2  1  0
  2  3  1  0
  3  4  2  0
  4  5  1  0
  5  6  2  0
  6  7  1  0
  7  8  1  0
  8  9  2  0
  8 10  1  0
 10 11  1  0
 11 12  1  0
 12 13  2  0
 13 14  1  0
 14 15  1  0
 15 16  2  0
 16 17  1  0
 17 18  2  0
 18 19  1  0
 19 20  2  0
 14 21  2  0
 21 22  1  0
 22 23  1  0
 23 24  1  0
 24 25  2  0
 24 26  1  0
 26 27  1  0
 27 28  1  0
 28 29  2  0
 28 30  1  0
 30 31  2  0
 31 32  1  0
 32 33  2  0
 33 34  1  0
 34 35  1  0
 33 36  1  0
 36 37  1  0
 37 38  1  0
 36 39  2  0
  6 40  1  0
 40 41  2  0
 41  3  1  0
 22 12  1  0
 39 30  1  0
 20 15  1  0
M  END
>  <Binding energies>  (74) 
[-7.24]

>  <Ligand effiencies>  (74) 
[-0.16454545454545455]

>  <Interactions>  (74) 
["V-A:ILE:369:CG2:3236, H-B:ALA:541:N:9863, V-A:ASP:366:CG:3212, V-B:TYR:539:CD2:9846, V-A:SER:385:CB:3408, V-A:SER:385:CA:3406, V-B:PRO:540:CA:9855, V-B:TYR:539:CE2:9848, V-A:ARG:545:CZ:4926, V-B:GLU:543:CD:9880, V-A:LEU:475:CD1:4257, V-A:ARG:545:CG:4922, V-A:GLU:543:CD:4908, H-A:ARG:545:NE:4924, H-A:GLY:454:N:4049, H-A:ARG:545:NH1:4927, H-A:ARG:545:NH2:4928, H-A:HIS:383:NE2:3393, H-A:SER:385:OG:3409, H-B:GLU:543:OE2:9882, V-A:ARG:545:CD:4923, H-A:TYR:484:OH:4347, V-A:PRO:540:CA:4883, V-B:PRO:540:C:9853, V-A:PRO:540:C:4881, H-A:ALA:541:N:4891, V-A:ALA:541:CB:4892, H-B:ASP:366:OD1:8185, H-B:ARG:545:NH2:9900, V-A:HIS:383:CD2:3391, V-B:LEU:475:CD1:9229"]

$$$$
RR22_Rahimova_2017
     RDKit          3D

 31 36  0  0  0  0  0  0  0  0999 V2000
  126.1770  122.8870   61.1130 O   0  0  0  0  0  0  0  0  0  0  0  0
  127.3580  122.8620   61.4510 C   0  0  0  0  0  0  0  0  0  0  0  0
  128.3490  122.0090   60.9970 N   0  0  0  0  0  0  0  0  0  0  0  0
  129.6980  122.1540   61.4520 C   0  0  1  0  0  0  0  0  0  0  0  0
  130.0510  120.8760   61.9900 O   0  0  0  0  0  0  0  0  0  0  0  0
  131.1320  120.1950   61.4280 C   0  0  0  0  0  0  0  0  0  0  0  0
  131.2220  118.8320   61.7080 C   0  0  0  0  0  0  0  0  0  0  0  0
  132.2970  118.0920   61.2150 C   0  0  0  0  0  0  0  0  0  0  0  0
  133.2820  118.7170   60.4510 C   0  0  0  0  0  0  0  0  0  0  0  0
  133.1930  120.0820   60.1710 C   0  0  0  0  0  0  0  0  0  0  0  0
  132.1080  120.8310   60.6380 C   0  0  0  0  0  0  0  0  0  0  0  0
  131.9410  122.3190   60.4270 C   0  0  1  0  0  0  0  0  0  0  0  0
  132.4470  123.0270   59.1860 C   0  0  0  0  0  0  0  0  0  0  0  0
  131.4230  124.1630   59.0970 C   0  0  0  0  0  0  0  0  0  0  0  0
  131.6530  125.3840   58.3010 C   0  0  0  0  0  0  0  0  0  0  0  0
  132.4480  125.3430   57.1460 C   0  0  0  0  0  0  0  0  0  0  0  0
  132.6600  126.4980   56.3970 C   0  0  0  0  0  0  0  0  0  0  0  0
  132.0810  127.6980   56.7980 C   0  0  0  0  0  0  0  0  0  0  0  0
  131.2890  127.7560   57.9420 C   0  0  0  0  0  0  0  0  0  0  0  0
  131.0740  126.6020   58.6910 C   0  0  0  0  0  0  0  0  0  0  0  0
  130.3700  123.8890   59.7720 N   0  0  0  0  0  0  0  0  0  0  0  0
  130.5430  122.6150   60.3400 N   0  0  0  0  0  0  0  0  0  0  0  0
  129.6640  123.1340   62.6140 C   0  0  0  0  0  0  0  0  0  0  0  0
  130.6760  123.2570   63.5050 C   0  0  0  0  0  0  0  0  0  0  0  0
  130.7800  124.1740   64.6570 C   0  0  0  0  0  0  0  0  0  0  0  0
  131.7880  125.1400   64.7800 C   0  0  0  0  0  0  0  0  0  0  0  0
  131.8240  125.9720   65.9000 C   0  0  0  0  0  0  0  0  0  0  0  0
  130.8450  125.8110   66.8800 C   0  0  0  0  0  0  0  0  0  0  0  0
  129.8630  124.8800   66.7930 N   0  0  0  0  0  0  0  0  0  0  0  0
  129.8450  124.0800   65.6950 C   0  0  0  0  0  0  0  0  0  0  0  0
  128.1100  123.9790   62.6740 S   0  0  0  0  0  0  0  0  0  0  0  0
  1  2  2  0
  2  3  1  0
  4  3  1  6
  4  5  1  0
  5  6  1  0
  6  7  2  0
  7  8  1  0
  8  9  2  0
  9 10  1  0
 10 11  2  0
 11 12  1  0
 12 13  1  6
 13 14  1  0
 14 15  1  0
 15 16  2  0
 16 17  1  0
 17 18  2  0
 18 19  1  0
 19 20  2  0
 14 21  2  0
 21 22  1  0
  4 23  1  0
 23 24  2  0
 24 25  1  0
 25 26  2  0
 26 27  1  0
 27 28  2  0
 28 29  1  0
 29 30  2  0
 23 31  1  0
 31  2  1  0
 22  4  1  0
 30 25  1  0
 11  6  1  0
 22 12  1  0
 20 15  1  0
M  END
>  <Binding energies>  (75) 
[-8.15]

>  <Ligand effiencies>  (75) 
[-0.2546875]

>  <Interactions>  (75) 
["V-A:ILE:369:CG2:3236, H-B:ALA:541:N:9863, V-A:ASP:366:CG:3212, V-B:TYR:539:CD2:9846, V-A:SER:385:CA:3406, V-B:PRO:540:CA:9855, V-B:TYR:539:CE2:9848, V-B:ALA:541:CB:9864, V-B:GLU:543:CG:9879, V-B:GLU:543:CD:9880, V-A:LEU:475:CD1:4257, V-A:TYR:484:CE2:4345, V-B:GLU:543:CB:9878, V-A:HIS:456:CE1:4069, V-A:TYR:484:CZ:4346, V-A:PRO:482:CG:4326, H-A:TYR:484:OH:4347, V-A:ASP:366:CB:3211, V-B:PRO:540:C:9853, H-B:TYR:539:O:9840, V-A:PRO:482:CB:4325, V-A:ASP:366:C:3207, V-A:ASP:366:CA:3209, V-A:HIS:383:CD2:3391, V-A:TYR:531:CZ:4794, V-A:TYR:531:CE1:4792"]

$$$$
RR24_Rahimova_2017
     RDKit          3D

 43 49  0  0  0  0  0  0  0  0999 V2000
  134.3590  124.3420   60.8280 C   0  0  0  0  0  0  0  0  0  0  0  0
  133.2140  124.0460   61.8070 C   0  0  2  0  0  0  0  0  0  0  0  0
  133.5580  124.4120   63.2810 C   0  0  0  0  0  0  0  0  0  0  0  0
  134.4950  125.1630   63.5700 O   0  0  0  0  0  0  0  0  0  0  0  0
  132.7340  123.7950   64.1780 O   0  0  0  0  0  0  0  0  0  0  0  0
  131.7340  124.5160   64.7910 C   0  0  0  0  0  0  0  0  0  0  0  0
  130.4010  124.2330   64.4860 C   0  0  0  0  0  0  0  0  0  0  0  0
  129.3810  124.9490   65.1060 C   0  0  0  0  0  0  0  0  0  0  0  0
  129.6880  125.9430   66.0390 C   0  0  0  0  0  0  0  0  0  0  0  0
  128.5610  126.7420   66.7040 C   0  0  1  0  0  0  0  0  0  0  0  0
  128.7910  126.9090   68.2250 C   0  0  0  0  0  0  0  0  0  0  0  0
  128.7330  128.1030   68.8430 C   0  0  0  0  0  0  0  0  0  0  0  0
  128.4660  129.2670   68.1650 N   0  0  0  0  0  0  0  0  0  0  0  0
  128.2440  129.2680   66.8080 C   0  0  0  0  0  0  0  0  0  0  0  0
  127.9850  130.4970   66.2920 N   0  0  0  0  0  0  0  0  0  0  0  0
  127.8180  130.7050   64.9570 C   0  0  0  0  0  0  0  0  0  0  0  0
  127.9040  131.8510   64.5110 O   0  0  0  0  0  0  0  0  0  0  0  0
  127.7280  129.5410   64.2100 N   0  0  0  0  0  0  0  0  0  0  0  0
  127.4550  129.7090   62.7670 C   0  0  0  0  0  0  0  0  0  0  0  0
  127.9740  128.2460   64.6320 C   0  0  0  0  0  0  0  0  0  0  0  0
  127.9250  127.2560   63.8950 O   0  0  0  0  0  0  0  0  0  0  0  0
  128.2800  128.1330   66.0620 C   0  0  0  0  0  0  0  0  0  0  0  0
  128.9890  127.9610   70.2670 C   0  0  0  0  0  0  0  0  0  0  0  0
  129.0460  128.8760   71.3190 C   0  0  0  0  0  0  0  0  0  0  0  0
  129.3220  128.4160   72.6090 C   0  0  0  0  0  0  0  0  0  0  0  0
  129.5360  127.0530   72.8390 C   0  0  0  0  0  0  0  0  0  0  0  0
  129.4780  126.1420   71.7810 C   0  0  0  0  0  0  0  0  0  0  0  0
  129.2030  126.6080   70.4940 C   0  0  0  0  0  0  0  0  0  0  0  0
  129.0820  125.8780   69.2150 C   0  0  0  0  0  0  0  0  0  0  0  0
  129.1920  124.6750   68.9820 O   0  0  0  0  0  0  0  0  0  0  0  0
  131.0240  126.2120   66.3560 C   0  0  0  0  0  0  0  0  0  0  0  0
  132.0450  125.4950   65.7380 C   0  0  0  0  0  0  0  0  0  0  0  0
  132.7080  122.6490   61.6720 N   0  0  0  0  0  0  0  0  0  0  0  0
  131.3750  122.3790   61.5880 C   0  0  0  0  0  0  0  0  0  0  0  0
  130.4440  123.1870   61.6180 O   0  0  0  0  0  0  0  0  0  0  0  0
  131.2780  120.9040   61.4540 C   0  0  0  0  0  0  0  0  0  0  0  0
  130.1670  120.0680   61.3330 C   0  0  0  0  0  0  0  0  0  0  0  0
  130.3760  118.6890   61.2170 C   0  0  0  0  0  0  0  0  0  0  0  0
  131.6760  118.1690   61.2220 C   0  0  0  0  0  0  0  0  0  0  0  0
  132.7780  119.0230   61.3440 C   0  0  0  0  0  0  0  0  0  0  0  0
  132.5490  120.3950   61.4600 C   0  0  0  0  0  0  0  0  0  0  0  0
  133.4940  121.5310   61.5980 C   0  0  0  0  0  0  0  0  0  0  0  0
  134.7240  121.4780   61.6330 O   0  0  0  0  0  0  0  0  0  0  0  0
  2  1  1  6
  2  3  1  0
  3  4  2  0
  3  5  1  0
  5  6  1  0
  6  7  2  0
  7  8  1  0
  8  9  2  0
 10  9  1  6
 10 11  1  0
 11 12  2  0
 12 13  1  0
 13 14  1  0
 14 15  1  0
 15 16  1  0
 16 17  2  0
 16 18  1  0
 18 19  1  0
 18 20  1  0
 20 21  2  0
 20 22  1  0
 12 23  1  0
 23 24  2  0
 24 25  1  0
 25 26  2  0
 26 27  1  0
 27 28  2  0
 28 29  1  0
 29 30  2  0
  9 31  1  0
 31 32  2  0
  2 33  1  0
 33 34  1  0
 34 35  2  0
 34 36  1  0
 36 37  2  0
 37 38  1  0
 38 39  2  0
 39 40  1  0
 40 41  2  0
 41 42  1  0
 42 43  2  0
 32  6  1  0
 42 33  1  0
 22 10  1  0
 28 23  1  0
 41 36  1  0
 29 11  1  0
 22 14  2  0
M  END
>  <Binding energies>  (76) 
[-9.2]

>  <Ligand effiencies>  (76) 
[-0.20444444444444443]

>  <Interactions>  (76) 
["V-A:ILE:369:CG2:3236, V-A:ASP:366:CG:3212, V-B:ALA:541:CB:9864, V-A:ARG:545:CZ:4926, V-B:GLU:543:CG:9879, V-B:GLU:543:CD:9880, V-A:LEU:475:CD1:4257, V-A:GLU:543:CB:4906, H-A:GLU:543:O:4903, V-A:GLU:543:CD:4908, H-A:ARG:545:NE:4924, H-A:GLY:454:N:4049, V-B:GLU:543:CB:9878, V-A:HIS:456:CE1:4069, H-A:ARG:545:NH1:4927, H-A:ARG:545:NH2:4928, V-B:HIS:456:CE1:9041, V-A:TYR:484:CZ:4346, V-A:PRO:482:CG:4326, H-A:TYR:484:OH:4347, V-A:ASP:366:CB:3211, V-A:ILE:369:CD1:3238, V-A:GLU:543:CG:4907, V-B:TYR:484:CE2:9317, V-B:TYR:484:CZ:9318, V-B:HIS:456:CD2:9039, V-B:GLU:543:C:9874, V-A:HIS:456:CD2:4067, V-A:GLU:543:C:4902, V-A:GLU:543:CA:4904, V-A:PRO:482:CB:4325, V-A:ASP:366:CA:3209, H-B:TYR:484:OH:9319"]

$$$$
RR25_Rahimova_2017
     RDKit          3D

 39 44  0  0  0  0  0  0  0  0999 V2000
  134.5160  125.4530   65.3250 O   0  0  0  0  0  0  0  0  0  0  0  0
  133.2880  125.5250   65.3770 C   0  0  0  0  0  0  0  0  0  0  0  0
  132.7500  125.8550   66.5960 O   0  0  0  0  0  0  0  0  0  0  0  0
  131.4200  126.2090   66.7260 C   0  0  0  0  0  0  0  0  0  0  0  0
  131.0920  127.0310   67.8030 C   0  0  0  0  0  0  0  0  0  0  0  0
  129.7680  127.4190   67.9990 C   0  0  0  0  0  0  0  0  0  0  0  0
  128.7560  126.9910   67.1280 C   0  0  0  0  0  0  0  0  0  0  0  0
  127.3490  127.4120   67.3340 N   0  0  0  0  0  0  0  0  0  0  0  0
  126.9920  128.5040   66.8980 O   0  0  0  0  0  0  0  0  0  0  0  0
  126.5910  126.6560   67.9340 O   0  0  0  0  0  0  0  0  0  0  0  0
  129.1060  126.1530   66.0560 C   0  0  0  0  0  0  0  0  0  0  0  0
  130.4270  125.7470   65.8500 C   0  0  0  0  0  0  0  0  0  0  0  0
  130.8570  124.8530   64.7010 C   0  0  0  0  0  0  0  0  0  0  0  0
  132.2780  125.2630   64.2210 C   0  0  2  0  0  0  0  0  0  0  0  0
  132.7930  124.3040   63.1090 C   0  0  0  0  0  0  0  0  0  0  0  0
  133.4950  123.3620   63.4880 O   0  0  0  0  0  0  0  0  0  0  0  0
  132.3910  124.4170   61.8070 N   0  0  0  0  0  0  0  0  0  0  0  0
  131.8260  125.6630   61.2490 C   0  0  0  0  0  0  0  0  0  0  0  0
  130.7170  125.3030   60.2390 C   0  0  0  0  0  0  0  0  0  0  0  0
  131.2110  124.3900   59.2040 N   0  0  0  0  0  0  0  0  0  0  0  0
  130.1970  124.1510   58.1680 C   0  0  0  0  0  0  0  0  0  0  0  0
  130.3690  125.0740   56.9320 C   0  0  0  0  0  0  0  0  0  0  0  0
  130.3830  126.5410   57.2060 N   0  0  0  0  0  0  0  0  0  0  0  0
  131.6130  127.1510   57.0810 C   0  0  0  0  0  0  0  0  0  0  0  0
  132.6490  126.5370   56.8000 O   0  0  0  0  0  0  0  0  0  0  0  0
  131.5990  128.6520   57.2990 C   0  0  0  0  0  0  0  0  0  0  0  0
  132.7900  129.3780   57.1700 C   0  0  0  0  0  0  0  0  0  0  0  0
  132.8120  130.7590   57.3550 C   0  0  0  0  0  0  0  0  0  0  0  0
  131.6480  131.4580   57.6690 C   0  0  0  0  0  0  0  0  0  0  0  0
  130.4200  130.7670   57.8090 C   0  0  0  0  0  0  0  0  0  0  0  0
  129.2020  131.4140   58.1250 C   0  0  0  0  0  0  0  0  0  0  0  0
  128.0270  130.6740   58.2450 C   0  0  0  0  0  0  0  0  0  0  0  0
  128.0290  129.2930   58.0590 C   0  0  0  0  0  0  0  0  0  0  0  0
  129.2110  128.6100   57.7450 C   0  0  0  0  0  0  0  0  0  0  0  0
  130.4110  129.3570   57.6200 C   0  0  0  0  0  0  0  0  0  0  0  0
  129.1710  127.1070   57.5420 C   0  0  0  0  0  0  0  0  0  0  0  0
  128.1250  126.4590   57.6540 O   0  0  0  0  0  0  0  0  0  0  0  0
  131.6610  123.1400   59.8190 C   0  0  0  0  0  0  0  0  0  0  0  0
  132.8040  123.3810   60.8330 C   0  0  0  0  0  0  0  0  0  0  0  0
  1  2  2  0
  2  3  1  0
  3  4  1  0
  4  5  2  0
  5  6  1  0
  6  7  2  0
  7  8  1  0
  8  9  2  0
  8 10  1  0
  7 11  1  0
 11 12  2  0
 12 13  1  0
 13 14  1  0
 14 15  1  6
 15 16  2  0
 15 17  1  0
 17 18  1  0
 18 19  1  0
 19 20  1  0
 20 21  1  0
 21 22  1  0
 22 23  1  0
 23 24  1  0
 24 25  2  0
 24 26  1  0
 26 27  2  0
 27 28  1  0
 28 29  2  0
 29 30  1  0
 30 31  2  0
 31 32  1  0
 32 33  2  0
 33 34  1  0
 34 35  2  0
 34 36  1  0
 36 37  2  0
 20 38  1  0
 38 39  1  0
 14  2  1  0
 39 17  1  0
 12  4  1  0
 36 23  1  0
 35 26  1  0
 35 30  1  0
M  CHG  2   8   1  10  -1
M  END
>  <Binding energies>  (77) 
[-9.23]

>  <Ligand effiencies>  (77) 
[-0.23666666666666666]

>  <Interactions>  (77) 
["V-A:ASP:366:CG:3212, V-B:TYR:539:CE2:9848, V-B:TYR:539:CZ:9849, V-A:ARG:545:CZ:4926, V-B:GLU:543:CG:9879, V-B:GLU:543:CD:9880, V-A:GLU:543:CB:4906, H-A:ARG:545:NE:4924, H-A:GLY:454:N:4049, V-B:GLU:543:CB:9878, V-A:HIS:456:CE1:4069, H-B:TYR:531:OH:9767, H-A:ARG:545:NH1:4927, H-A:ARG:545:NH2:4928, V-B:HIS:456:CE1:9041, V-A:ARG:545:CD:4923, H-A:TYR:484:OH:4347, V-A:LEU:363:CD1:3188, V-A:PRO:540:CA:4883, V-A:PRO:540:CB:4885, V-A:PRO:540:N:4884, V-A:TYR:539:CD1:4873, V-A:ASP:366:CB:3211, V-A:TYR:539:CE1:4875, H-A:TYR:531:OH:4795, V-A:TYR:531:CZ:4794"]

$$$$
RR27_Rahimova_2017
     RDKit          3D

 39 44  0  0  0  0  0  0  0  0999 V2000
  128.4630  121.9200   62.0120 O   0  0  0  0  0  0  0  0  0  0  0  0
  129.1010  122.5840   61.1900 C   0  0  0  0  0  0  0  0  0  0  0  0
  130.6330  122.3380   61.0720 C   0  0  0  0  0  0  0  0  0  0  0  0
  131.0040  120.8440   61.0200 C   0  0  0  0  0  0  0  0  0  0  0  0
  130.2090  119.8620   61.6310 C   0  0  0  0  0  0  0  0  0  0  0  0
  130.5720  118.5210   61.5630 C   0  0  0  0  0  0  0  0  0  0  0  0
  131.7310  118.1540   60.8840 C   0  0  0  0  0  0  0  0  0  0  0  0
  132.5300  119.1170   60.2750 C   0  0  0  0  0  0  0  0  0  0  0  0
  132.1670  120.4580   60.3440 C   0  0  0  0  0  0  0  0  0  0  0  0
  131.4260  123.1680   62.1000 C   0  0  0  0  0  0  0  0  0  0  0  0
  130.8350  123.6420   63.2790 C   0  0  0  0  0  0  0  0  0  0  0  0
  131.5770  124.3990   64.1820 C   0  0  0  0  0  0  0  0  0  0  0  0
  132.9100  124.6900   63.9060 C   0  0  0  0  0  0  0  0  0  0  0  0
  133.5080  124.2350   62.7340 C   0  0  0  0  0  0  0  0  0  0  0  0
  132.7650  123.4800   61.8320 C   0  0  0  0  0  0  0  0  0  0  0  0
  128.4780  123.4030   60.2950 N   0  0  0  0  0  0  0  0  0  0  0  0
  129.1880  124.3970   59.4760 C   0  0  0  0  0  0  0  0  0  0  0  0
  129.2720  125.6920   60.3150 C   0  0  0  0  0  0  0  0  0  0  0  0
  127.8740  126.1840   60.8060 C   0  0  0  0  0  0  0  0  0  0  0  0
  127.9110  127.4070   61.7410 C   0  0  0  0  0  0  0  0  0  0  0  0
  127.4630  127.2120   63.0150 N   0  0  0  0  0  0  0  0  0  0  0  0
  127.5000  128.2550   63.8900 C   0  0  0  0  0  0  0  0  0  0  0  0
  127.0830  128.1810   65.1930 O   0  0  0  0  0  0  0  0  0  0  0  0
  127.9980  129.4940   63.4430 C   0  0  0  0  0  0  0  0  0  0  0  0
  128.1760  130.7080   64.0400 N   0  0  0  0  0  0  0  0  0  0  0  0
  128.7040  131.5600   63.0890 N   0  0  0  0  0  0  0  0  0  0  0  0
  128.8560  130.8820   61.9320 N   0  0  0  0  0  0  0  0  0  0  0  0
  129.3760  131.5520   60.7430 C   0  0  0  0  0  0  0  0  0  0  0  0
  130.8640  131.3270   60.5140 C   0  0  0  0  0  0  0  0  0  0  0  0
  131.7700  131.4840   61.5680 C   0  0  0  0  0  0  0  0  0  0  0  0
  133.1330  131.2660   61.3610 C   0  0  0  0  0  0  0  0  0  0  0  0
  133.5970  130.8870   60.1020 C   0  0  0  0  0  0  0  0  0  0  0  0
  132.6970  130.7190   59.0480 C   0  0  0  0  0  0  0  0  0  0  0  0
  133.2660  130.2230   57.4950 Cl  0  0  0  0  0  0  0  0  0  0  0  0
  131.3350  130.9440   59.2530 C   0  0  0  0  0  0  0  0  0  0  0  0
  128.4220  129.5770   62.0990 C   0  0  0  0  0  0  0  0  0  0  0  0
  128.3890  128.5730   61.2190 N   0  0  0  0  0  0  0  0  0  0  0  0
  127.0040  125.0120   61.3570 C   0  0  0  0  0  0  0  0  0  0  0  0
  127.0570  123.7430   60.4680 C   0  0  0  0  0  0  0  0  0  0  0  0
  1  2  2  0
  2  3  1  0
  3  4  1  0
  4  5  2  0
  5  6  1  0
  6  7  2  0
  7  8  1  0
  8  9  2  0
  3 10  1  0
 10 11  2  0
 11 12  1  0
 12 13  2  0
 13 14  1  0
 14 15  2  0
  2 16  1  0
 16 17  1  0
 17 18  1  0
 18 19  1  0
 19 20  1  0
 20 21  2  0
 21 22  1  0
 22 23  1  0
 22 24  2  0
 24 25  1  0
 25 26  2  0
 26 27  1  0
 27 28  1  0
 28 29  1  0
 29 30  2  0
 30 31  1  0
 31 32  2  0
 32 33  1  0
 33 34  1  0
 33 35  2  0
 27 36  1  0
 36 37  2  0
 19 38  1  0
 38 39  1  0
  9  4  1  0
 15 10  1  0
 39 16  1  0
 37 20  1  0
 36 24  1  0
 35 29  1  0
M  END
>  <Binding energies>  (78) 
[-10.12]

>  <Ligand effiencies>  (78) 
[-0.253]

>  <Interactions>  (78) 
["H-B:ALA:541:N:9863, V-A:ASP:366:CG:3212, V-B:TYR:539:CD2:9846, V-B:PRO:540:CA:9855, V-B:TYR:539:CE2:9848, V-B:ALA:541:CB:9864, V-A:ARG:545:CZ:4926, V-B:GLU:543:CD:9880, V-A:LEU:475:CD1:4257, V-A:GLU:543:CD:4908, V-A:PRO:482:CG:4326, H-B:GLU:543:OE2:9882, V-A:LEU:363:CD1:3188, V-A:LEU:363:CA:3184, V-A:ASN:362:C:3171, V-A:PRO:540:CA:4883, V-A:PRO:540:CB:4885, V-A:ASP:366:CB:3211, V-A:PRO:540:C:4881, H-B:ARG:545:NH2:9900, V-B:ALA:541:CA:9862, V-A:PRO:482:CB:4325, V-A:ASN:362:CB:3175"]

$$$$
RR28_Rahimova_2017
     RDKit          3D

 46 49  0  0  0  0  0  0  0  0999 V2000
  134.7150  122.0370   62.3870 C   0  0  0  0  0  0  0  0  0  0  0  0
  133.7230  123.1940   62.4030 C   0  0  0  0  0  0  0  0  0  0  0  0
  134.0690  124.2840   62.8560 O   0  0  0  0  0  0  0  0  0  0  0  0
  132.4970  122.9370   61.9030 N   0  0  0  0  0  0  0  0  0  0  0  0
  131.3410  123.8550   61.7970 C   0  0  0  0  0  0  0  0  0  0  0  0
  131.0580  124.4460   63.2080 C   0  0  0  0  0  0  0  0  0  0  0  0
  131.7180  125.6180   63.6080 C   0  0  0  0  0  0  0  0  0  0  0  0
  131.4930  126.1730   64.8640 C   0  0  0  0  0  0  0  0  0  0  0  0
  130.6020  125.5670   65.7510 C   0  0  0  0  0  0  0  0  0  0  0  0
  130.3710  126.1880   67.1280 C   0  0  0  0  0  0  0  0  0  0  0  0
  131.4390  126.8570   67.5680 F   0  0  0  0  0  0  0  0  0  0  0  0
  129.3430  127.0350   67.0870 F   0  0  0  0  0  0  0  0  0  0  0  0
  130.0960  125.2210   68.0050 F   0  0  0  0  0  0  0  0  0  0  0  0
  129.9400  124.3980   65.3660 C   0  0  0  0  0  0  0  0  0  0  0  0
  130.1660  123.8440   64.1090 C   0  0  0  0  0  0  0  0  0  0  0  0
  130.1080  123.1160   61.1630 C   0  0  0  0  0  0  0  0  0  0  0  0
  130.3360  122.6970   59.6890 C   0  0  0  0  0  0  0  0  0  0  0  0
  130.6290  123.9330   58.9450 N   0  0  0  0  0  0  0  0  0  0  0  0
  129.6290  124.6110   58.3180 C   0  0  0  0  0  0  0  0  0  0  0  0
  128.4940  124.1430   58.2030 O   0  0  0  0  0  0  0  0  0  0  0  0
  129.9670  125.9320   57.5860 C   0  0  0  0  0  0  0  0  0  0  0  0
  128.8050  126.5790   56.7830 C   0  0  0  0  0  0  0  0  0  0  0  0
  128.3700  127.9810   57.2720 C   0  0  0  0  0  0  0  0  0  0  0  0
  128.3690  128.9040   56.4530 O   0  0  0  0  0  0  0  0  0  0  0  0
  127.8760  128.1340   58.5330 N   0  0  0  0  0  0  0  0  0  0  0  0
  128.1390  127.1870   59.6230 C   0  0  0  0  0  0  0  0  0  0  0  0
  129.4870  127.6020   60.2530 C   0  0  0  0  0  0  0  0  0  0  0  0
  129.5430  129.0840   60.7650 C   0  0  0  0  0  0  0  0  0  0  0  0
  130.9550  129.4750   60.9630 N   0  0  0  0  0  0  0  0  0  0  0  0
  131.4530  130.7080   61.1850 C   0  0  0  0  0  0  0  0  0  0  0  0
  132.9680  130.8080   61.3340 C   0  0  0  0  0  0  0  0  0  0  0  0
  130.7650  131.7240   61.2690 O   0  0  0  0  0  0  0  0  0  0  0  0
  128.8420  129.1230   62.1620 C   0  0  0  0  0  0  0  0  0  0  0  0
  128.4100  130.3170   62.7630 C   0  0  0  0  0  0  0  0  0  0  0  0
  127.7890  130.3080   64.0090 C   0  0  0  0  0  0  0  0  0  0  0  0
  127.5860  129.1050   64.6880 C   0  0  0  0  0  0  0  0  0  0  0  0
  126.9030  129.0780   66.0550 C   0  0  0  0  0  0  0  0  0  0  0  0
  126.9570  127.8540   66.5840 F   0  0  0  0  0  0  0  0  0  0  0  0
  127.5280  129.9240   66.8730 F   0  0  0  0  0  0  0  0  0  0  0  0
  125.6200  129.4380   65.9820 F   0  0  0  0  0  0  0  0  0  0  0  0
  128.0180  127.9110   64.1070 C   0  0  0  0  0  0  0  0  0  0  0  0
  128.6380  127.9230   62.8620 C   0  0  0  0  0  0  0  0  0  0  0  0
  128.8560  130.0230   59.6990 C   0  0  0  0  0  0  0  0  0  0  0  0
  127.5600  129.4740   59.0430 C   0  0  0  0  0  0  0  0  0  0  0  0
  131.8880  124.5730   59.3520 C   0  0  0  0  0  0  0  0  0  0  0  0
  131.7130  125.0220   60.8260 C   0  0  0  0  0  0  0  0  0  0  0  0
  1  2  1  0
  2  3  2  0
  2  4  1  0
  4  5  1  0
  5  6  1  0
  6  7  2  0
  7  8  1  0
  8  9  2  0
  9 10  1  0
 10 11  1  0
 10 12  1  0
 10 13  1  0
  9 14  1  0
 14 15  2  0
  5 16  1  0
 16 17  1  0
 17 18  1  0
 18 19  1  0
 19 20  2  0
 19 21  1  0
 21 22  1  0
 22 23  1  0
 23 24  2  0
 23 25  1  0
 25 26  1  0
 26 27  1  0
 27 28  1  0
 28 29  1  0
 29 30  1  0
 30 31  1  0
 30 32  2  0
 28 33  1  0
 33 34  2  0
 34 35  1  0
 35 36  2  0
 36 37  1  0
 37 38  1  0
 37 39  1  0
 37 40  1  0
 36 41  1  0
 41 42  2  0
 28 43  1  0
 43 44  1  0
 18 45  1  0
 45 46  1  0
 46  5  1  0
 15  6  1  0
 44 25  1  0
 42 33  1  0
M  END
>  <Binding energies>  (79) 
[-7.35]

>  <Ligand effiencies>  (79) 
[-0.15312499999999998]

>  <Interactions>  (79) 
["V-A:ASP:366:CG:3212, V-B:TYR:539:CD2:9846, V-B:TYR:539:CE2:9848, V-A:ARG:545:CZ:4926, V-A:GLY:454:CA:4048, V-B:GLU:543:CG:9879, V-B:GLU:543:CD:9880, V-A:GLU:543:CB:4906, V-A:GLU:543:CD:4908, V-A:TYR:484:CE2:4345, H-A:GLU:543:OE2:4910, H-A:GLY:454:N:4049, V-B:GLU:543:CB:9878, V-A:HIS:456:CE1:4069, H-B:TYR:531:OH:9767, V-B:HIS:456:CE1:9041, V-A:TYR:484:CZ:4346, V-A:PRO:540:CB:4885, H-A:ASP:366:OD2:3214, V-A:GLY:453:C:4041, V-A:ILE:369:CD1:3238, V-A:GLU:543:CG:4907, V-B:TYR:484:CE2:9317, V-B:TYR:484:CZ:9318, H-A:ALA:541:N:4891, V-A:ASN:362:CB:3175"]

$$$$
RR29_Rahimova_2017
     RDKit          3D

 18 19  0  0  0  0  0  0  0  0999 V2000
  133.1970  124.9960   63.1310 C   0  0  0  0  0  0  0  0  0  0  0  0
  132.1840  124.6650   64.2160 C   0  0  0  0  0  0  0  0  0  0  0  0
  131.4510  123.3270   63.9690 C   0  0  0  0  0  0  0  0  0  0  0  0
  131.0840  123.1430   62.4820 C   0  0  0  0  0  0  0  0  0  0  0  0
  131.4690  121.7680   61.9590 C   0  0  0  0  0  0  0  0  0  0  0  0
  132.8190  121.4700   61.6870 C   0  0  0  0  0  0  0  0  0  0  0  0
  133.1950  120.2090   61.2060 C   0  0  0  0  0  0  0  0  0  0  0  0
  132.1880  119.2740   60.9970 C   0  0  0  0  0  0  0  0  0  0  0  0
  130.8770  119.5580   61.2560 C   0  0  0  0  0  0  0  0  0  0  0  0
  130.4750  120.7960   61.7440 C   0  0  0  0  0  0  0  0  0  0  0  0
  130.1190  118.4590   60.9970 O   0  0  0  0  0  0  0  0  0  0  0  0
  130.9770  117.5490   60.3620 C   0  0  0  0  0  0  0  0  0  0  0  0
  132.2940  117.9880   60.5670 O   0  0  0  0  0  0  0  0  0  0  0  0
  132.0300  125.4900   65.1850 N   0  0  0  0  0  0  0  0  0  0  0  0
  131.0540  125.2350   66.1230 N   0  0  0  0  0  0  0  0  0  0  0  0
  129.8070  125.7320   66.0650 C   0  0  0  0  0  0  0  0  0  0  0  0
  129.3450  126.5170   65.0910 N   0  0  0  0  0  0  0  0  0  0  0  0
  128.9730  125.4210   67.0460 N   0  0  0  0  0  0  0  0  0  0  0  0
  1  2  1  0
  2  3  1  0
  3  4  1  0
  4  5  1  0
  5  6  2  0
  6  7  1  0
  7  8  2  0
  8  9  1  0
  9 10  2  0
  9 11  1  0
 11 12  1  0
 12 13  1  0
  2 14  2  0
 14 15  1  0
 15 16  1  0
 16 17  1  0
 16 18  2  0
 10  5  1  0
 13  8  1  0
M  CHG  1  18   1
M  END
>  <Binding energies>  (80) 
[-7.24]

>  <Ligand effiencies>  (80) 
[-0.31478260869565217]

>  <Interactions>  (80) 
["V-A:ILE:369:CG2:3236, V-B:TYR:539:CD2:9846, V-B:ALA:541:CB:9864, V-A:ARG:545:CZ:4926, V-B:GLU:543:CG:9879, V-B:GLU:543:CD:9880, V-A:LEU:475:CD1:4257, V-A:GLU:543:CD:4908, V-A:TYR:484:CE2:4345, H-A:GLU:543:OE2:4910, H-A:GLU:543:OE1:4909, V-B:GLU:543:CB:9878, V-A:TYR:484:CZ:4346, V-A:PRO:482:CG:4326, H-A:HIS:383:NE2:3393, H-A:SER:385:OG:3409, H-B:GLU:543:OE2:9882, H-A:TYR:484:OH:4347, V-B:GLU:543:CA:9876, V-A:HIS:383:CE1:3392, H-A:HIS:456:NE2:4070, H-B:GLU:543:O:9875"]

$$$$
RR30_Rahimova_2017
     RDKit          3D

 18 19  0  0  0  0  0  0  0  0999 V2000
  126.4880  123.2170   58.6060 C   0  0  0  0  0  0  0  0  0  0  0  0
  126.2690  123.3650   60.1190 C   0  0  0  0  0  0  0  0  0  0  0  0
  127.4040  122.7700   60.9230 C   0  0  0  0  0  0  0  0  0  0  0  0
  127.6160  122.8570   62.2120 N   0  0  0  0  0  0  0  0  0  0  0  0
  128.7910  122.1500   62.4550 N   0  0  0  0  0  0  0  0  0  0  0  0
  129.1920  121.7040   61.2910 C   0  0  0  0  0  0  0  0  0  0  0  0
  130.6180  120.7240   60.9480 S   0  0  0  0  0  0  0  0  0  0  0  0
  131.6820  121.9820   60.1720 C   0  0  0  0  0  0  0  0  0  0  0  0
  132.4830  122.7800   61.2040 C   0  0  0  0  0  0  0  0  0  0  0  0
  133.7020  122.8930   61.0640 O   0  0  0  0  0  0  0  0  0  0  0  0
  131.7740  123.2850   62.2390 N   0  0  0  0  0  0  0  0  0  0  0  0
  132.2760  124.0350   63.2930 C   0  0  0  0  0  0  0  0  0  0  0  0
  133.5320  124.2800   63.5910 N   0  0  0  0  0  0  0  0  0  0  0  0
  133.6600  125.0730   64.7240 N   0  0  0  0  0  0  0  0  0  0  0  0
  132.5080  125.4110   65.2570 C   0  0  0  0  0  0  0  0  0  0  0  0
  132.3880  126.2660   66.4970 C   0  0  0  0  0  0  0  0  0  0  0  0
  131.1430  124.7670   64.3850 S   0  0  0  0  0  0  0  0  0  0  0  0
  128.3600  122.0550   60.2780 O   0  0  0  0  0  0  0  0  0  0  0  0
  1  2  1  0
  2  3  1  0
  3  4  2  0
  4  5  1  0
  5  6  2  0
  6  7  1  0
  7  8  1  0
  8  9  1  0
  9 10  2  0
  9 11  1  0
 11 12  1  0
 12 13  2  0
 13 14  1  0
 14 15  2  0
 15 16  1  0
 15 17  1  0
  6 18  1  0
 18  3  1  0
 17 12  1  0
M  END
>  <Binding energies>  (81) 
[-5.75]

>  <Ligand effiencies>  (81) 
[-0.3026315789473684]

>  <Interactions>  (81) 
["V-B:PRO:540:CB:9857, H-B:ALA:541:N:9863, V-B:TYR:539:CD2:9846, V-B:PRO:540:CA:9855, V-B:TYR:539:CE2:9848, V-B:ALA:541:CB:9864, V-A:ARG:545:CZ:4926, V-A:ARG:545:CG:4922, H-A:ARG:545:NE:4924, H-A:GLY:454:N:4049, V-A:HIS:456:CE1:4069, H-A:ARG:545:NH2:4928, V-A:ARG:545:CD:4923, H-A:TYR:484:OH:4347, V-B:PRO:540:C:9853"]

$$$$
RR31_Rahimova_2017
     RDKit          3D

 18 19  0  0  0  0  0  0  0  0999 V2000
  133.1760  119.4740   60.1620 C   0  0  0  0  0  0  0  0  0  0  0  0
  132.8760  120.5510   61.1960 C   0  0  0  0  0  0  0  0  0  0  0  0
  133.9050  121.3910   61.6230 C   0  0  0  0  0  0  0  0  0  0  0  0
  133.6620  122.3880   62.5650 C   0  0  0  0  0  0  0  0  0  0  0  0
  132.3800  122.5820   63.1030 C   0  0  0  0  0  0  0  0  0  0  0  0
  132.1220  123.5710   64.0550 N   0  0  0  0  0  0  0  0  0  0  0  0
  133.0230  124.7230   64.2490 C   0  0  0  0  0  0  0  0  0  0  0  0
  132.8130  125.4710   65.5870 C   0  0  0  0  0  0  0  0  0  0  0  0
  131.4210  125.9070   65.7290 N   0  0  0  0  0  0  0  0  0  0  0  0
  131.1980  126.6510   66.9730 C   0  0  0  0  0  0  0  0  0  0  0  0
  129.9640  126.1590   67.7550 C   0  0  0  0  0  0  0  0  0  0  0  0
  128.6960  126.9530   67.4020 C   0  0  0  0  0  0  0  0  0  0  0  0
  128.7170  127.3420   65.9200 N   0  0  0  0  0  0  0  0  0  0  0  0
  130.5830  124.7090   65.7140 C   0  0  0  0  0  0  0  0  0  0  0  0
  130.7320  123.9510   64.3750 C   0  0  0  0  0  0  0  0  0  0  0  0
  131.3560  121.7250   62.6710 C   0  0  0  0  0  0  0  0  0  0  0  0
  131.5870  120.7190   61.7260 C   0  0  0  0  0  0  0  0  0  0  0  0
  130.4330  119.8200   61.3020 C   0  0  0  0  0  0  0  0  0  0  0  0
  1  2  1  0
  2  3  2  0
  3  4  1  0
  4  5  2  0
  5  6  1  0
  6  7  1  0
  7  8  1  0
  8  9  1  0
  9 10  1  0
 10 11  1  0
 11 12  1  0
 12 13  1  0
  9 14  1  0
 14 15  1  0
  5 16  1  0
 16 17  2  0
 17 18  1  0
 17  2  1  0
 15  6  1  0
M  CHG  1  13   1
M  END
>  <Binding energies>  (82) 
[-6.89]

>  <Ligand effiencies>  (82) 
[-0.3280952380952381]

>  <Interactions>  (82) 
["V-A:ILE:369:CG2:3236, V-B:TYR:539:CD2:9846, V-B:ALA:541:CB:9864, V-A:ARG:545:CZ:4926, V-A:GLY:454:CA:4048, V-B:GLU:543:CD:9880, V-A:LEU:475:CD1:4257, V-A:GLU:543:CD:4908, V-A:TYR:484:CE2:4345, H-A:GLU:543:OE1:4909, V-B:GLU:543:CB:9878, V-A:HIS:456:CE1:4069, V-A:TYR:484:CZ:4346, H-B:GLU:543:OE2:9882, H-A:TYR:484:OH:4347, V-A:ILE:369:CD1:3238"]

$$$$
RR32_Rahimova_2017
     RDKit          3D

 18 20  0  0  0  0  0  0  0  0999 V2000
  126.5990  124.4820   61.5890 C   0  0  0  0  0  0  0  0  0  0  0  0
  127.4140  123.6130   60.6370 C   0  0  0  0  0  0  0  0  0  0  0  0
  128.6490  123.1340   61.0740 C   0  0  0  0  0  0  0  0  0  0  0  0
  129.4190  122.3350   60.2330 C   0  0  0  0  0  0  0  0  0  0  0  0
  130.6440  121.8620   60.6700 N   0  0  0  0  0  0  0  0  0  0  0  0
  130.8990  120.4170   60.5300 C   0  0  0  0  0  0  0  0  0  0  0  0
  132.2110  119.9590   61.2090 C   0  0  0  0  0  0  0  0  0  0  0  0
  133.3500  120.6900   60.6530 N   0  0  0  0  0  0  0  0  0  0  0  0
  134.5910  120.2360   61.2700 C   0  0  0  0  0  0  0  0  0  0  0  0
  133.1440  122.1130   60.9150 C   0  0  0  0  0  0  0  0  0  0  0  0
  131.8440  122.6020   60.2350 C   0  0  0  0  0  0  0  0  0  0  0  0
  129.0210  121.9950   58.9800 N   0  0  0  0  0  0  0  0  0  0  0  0
  127.8220  122.4500   58.5240 C   0  0  0  0  0  0  0  0  0  0  0  0
  127.4330  122.0810   57.2130 C   0  0  0  0  0  0  0  0  0  0  0  0
  126.2190  122.5160   56.6940 C   0  0  0  0  0  0  0  0  0  0  0  0
  125.3740  123.3160   57.4540 C   0  0  0  0  0  0  0  0  0  0  0  0
  125.7260  123.6970   58.7450 C   0  0  0  0  0  0  0  0  0  0  0  0
  126.9610  123.2750   59.3180 C   0  0  0  0  0  0  0  0  0  0  0  0
  1  2  1  0
  2  3  2  0
  3  4  1  0
  4  5  1  0
  5  6  1  0
  6  7  1  0
  7  8  1  0
  8  9  1  0
  8 10  1  0
 10 11  1  0
  4 12  2  0
 12 13  1  0
 13 14  2  0
 14 15  1  0
 15 16  2  0
 16 17  1  0
 17 18  2  0
 18  2  1  0
 11  5  1  0
 18 13  1  0
M  END
>  <Binding energies>  (83) 
[-5.79]

>  <Ligand effiencies>  (83) 
[-0.32166666666666666]

>  <Interactions>  (83) 
["V-B:PRO:540:CB:9857, V-A:ILE:369:CG2:3236, V-B:TYR:539:CD2:9846, V-A:SER:385:C:3404, V-A:SER:385:CA:3406, V-B:PRO:540:CA:9855, V-B:TYR:539:C:9839, V-B:TYR:539:CE2:9848, V-B:PRO:540:N:9856, V-B:LEU:363:CD1:8160, V-B:GLU:543:CD:9880, V-A:LEU:475:CD1:4257, V-B:MET:535:CE:9807, V-B:TYR:539:CA:9841, V-A:ILE:369:CD1:3238, V-B:TYR:531:CE2:9765"]

$$$$
RR5_Rahimova_2017
     RDKit          3D

 45 50  0  0  0  0  0  0  0  0999 V2000
  128.1340  122.4190   61.7560 O   0  0  0  0  0  0  0  0  0  0  0  0
  129.0910  122.8500   62.3970 C   0  0  0  0  0  0  0  0  0  0  0  0
  128.8640  123.4390   63.8030 C   0  0  0  0  0  0  0  0  0  0  0  0
  130.0780  124.2720   64.3500 C   0  0  2  0  0  0  0  0  0  0  0  0
  129.9520  124.7080   65.7550 N   0  0  0  0  0  0  0  0  0  0  0  0
  130.8580  125.5910   66.3270 C   0  0  0  0  0  0  0  0  0  0  0  0
  131.8080  126.1390   65.7630 O   0  0  0  0  0  0  0  0  0  0  0  0
  130.5380  125.7460   67.6230 O   0  0  0  0  0  0  0  0  0  0  0  0
  129.4110  125.0880   68.1940 C   0  0  0  0  0  0  0  0  0  0  0  0
  128.4490  126.1080   68.8420 C   0  0  0  0  0  0  0  0  0  0  0  0
  128.8820  126.5610   70.2240 C   0  0  0  0  0  0  0  0  0  0  0  0
  129.1190  125.8030   71.3750 C   0  0  0  0  0  0  0  0  0  0  0  0
  129.5380  126.4330   72.5480 C   0  0  0  0  0  0  0  0  0  0  0  0
  129.7180  127.8170   72.5750 C   0  0  0  0  0  0  0  0  0  0  0  0
  129.4790  128.5770   71.4280 C   0  0  0  0  0  0  0  0  0  0  0  0
  129.0600  127.9450   70.2560 C   0  0  0  0  0  0  0  0  0  0  0  0
  128.7330  128.4870   68.9280 C   0  0  0  0  0  0  0  0  0  0  0  0
  128.7350  129.7970   68.4440 C   0  0  0  0  0  0  0  0  0  0  0  0
  128.3540  130.0460   67.1250 C   0  0  0  0  0  0  0  0  0  0  0  0
  127.9740  128.9890   66.2930 C   0  0  0  0  0  0  0  0  0  0  0  0
  127.9770  127.6820   66.7800 C   0  0  0  0  0  0  0  0  0  0  0  0
  128.3610  127.4280   68.0990 C   0  0  0  0  0  0  0  0  0  0  0  0
  130.3540  125.5000   63.4460 C   0  0  0  0  0  0  0  0  0  0  0  0
  131.0280  125.4780   62.4360 O   0  0  0  0  0  0  0  0  0  0  0  0
  129.7090  126.5940   63.9480 O   0  0  0  0  0  0  0  0  0  0  0  0
  130.3750  122.8260   61.9770 N   0  0  0  0  0  0  0  0  0  0  0  0
  131.0370  122.3560   60.7230 C   0  0  0  0  0  0  0  0  0  0  0  0
  130.0910  122.9350   59.6170 C   0  0  0  0  0  0  0  0  0  0  0  0
  129.1720  122.1180   58.9370 C   0  0  0  0  0  0  0  0  0  0  0  0
  128.3350  122.6450   57.9570 C   0  0  0  0  0  0  0  0  0  0  0  0
  128.4100  123.9950   57.6330 C   0  0  0  0  0  0  0  0  0  0  0  0
  129.3090  124.8270   58.2910 C   0  0  0  0  0  0  0  0  0  0  0  0
  130.1380  124.3020   59.2780 C   0  0  0  0  0  0  0  0  0  0  0  0
  132.4680  122.9910   60.6840 C   0  0  0  0  0  0  0  0  0  0  0  0
  133.0860  123.3420   59.4730 C   0  0  0  0  0  0  0  0  0  0  0  0
  134.3680  123.8870   59.4610 C   0  0  0  0  0  0  0  0  0  0  0  0
  135.0480  124.0860   60.6580 C   0  0  0  0  0  0  0  0  0  0  0  0
  134.4540  123.7490   61.8700 C   0  0  0  0  0  0  0  0  0  0  0  0
  133.1710  123.2130   61.8810 C   0  0  0  0  0  0  0  0  0  0  0  0
  131.0180  120.7910   60.7810 C   0  0  0  0  0  0  0  0  0  0  0  0
  132.0440  120.0320   60.1880 C   0  0  0  0  0  0  0  0  0  0  0  0
  132.0280  118.6410   60.2290 C   0  0  0  0  0  0  0  0  0  0  0  0
  130.9870  117.9810   60.8720 C   0  0  0  0  0  0  0  0  0  0  0  0
  129.9670  118.7040   61.4800 C   0  0  0  0  0  0  0  0  0  0  0  0
  129.9860  120.0950   61.4360 C   0  0  0  0  0  0  0  0  0  0  0  0
  1  2  2  0
  2  3  1  0
  4  3  1  6
  4  5  1  0
  5  6  1  0
  6  7  2  0
  6  8  1  0
  8  9  1  0
  9 10  1  0
 10 11  1  0
 11 12  2  0
 12 13  1  0
 13 14  2  0
 14 15  1  0
 15 16  2  0
 16 17  1  0
 17 18  2  0
 18 19  1  0
 19 20  2  0
 20 21  1  0
 21 22  2  0
  4 23  1  0
 23 24  2  0
 23 25  1  0
  2 26  1  0
 26 27  1  0
 27 28  1  0
 28 29  2  0
 29 30  1  0
 30 31  2  0
 31 32  1  0
 32 33  2  0
 27 34  1  0
 34 35  2  0
 35 36  1  0
 36 37  2  0
 37 38  1  0
 38 39  2  0
 27 40  1  0
 40 41  2  0
 41 42  1  0
 42 43  2  0
 43 44  1  0
 44 45  2  0
 22 10  1  0
 33 28  1  0
 39 34  1  0
 45 40  1  0
 16 11  1  0
 22 17  1  0
M  END
>  <Binding energies>  (84) 
[-10.28]

>  <Ligand effiencies>  (84) 
[-0.21416666666666664]

>  <Interactions>  (84) 
["V-A:ILE:369:CG2:3236, H-B:ALA:541:N:9863, V-A:ASP:366:CG:3212, V-B:TYR:539:CD2:9846, V-B:PRO:540:CA:9855, V-B:TYR:539:C:9839, V-B:TYR:539:CE2:9848, V-B:TYR:539:CZ:9849, V-B:ALA:541:CB:9864, V-B:GLU:543:CG:9879, V-B:GLU:543:CD:9880, V-A:GLU:543:CB:4906, V-A:GLU:543:CD:4908, V-A:TYR:484:CE2:4345, H-A:GLU:543:OE2:4910, V-B:MET:535:CE:9807, H-A:GLU:543:OE1:4909, V-B:GLU:543:CB:9878, V-A:HIS:456:CE1:4069, V-B:HIS:456:CE1:9041, V-A:TYR:484:CZ:4346, V-A:PRO:482:CG:4326, H-B:GLU:543:OE2:9882, H-A:TYR:484:OH:4347, V-A:ASP:366:CB:3211, V-A:GLY:453:C:4041, V-A:ILE:369:CD1:3238, V-A:GLU:543:CG:4907, V-B:TYR:484:CE2:9317, V-B:TYR:484:CZ:9318, V-B:HIS:456:CD2:9039, V-B:PRO:540:C:9853, V-B:GLU:543:C:9874, V-A:HIS:456:CD2:4067, V-B:GLU:543:CA:9876, V-A:GLU:543:C:4902, V-A:GLU:543:CA:4904, V-B:ALA:541:CA:9862, V-A:PRO:482:CB:4325, V-A:ASP:366:C:3207, V-A:ASP:366:CA:3209, V-A:ILE:369:CB:3235, V-B:TYR:484:CD2:9315, V-A:ILE:369:CG1:3237"]

$$$$
