1a_Ghoteimi_2023
     RDKit          3D

 40 43  0  0  0  0  0  0  0  0999 V2000
  132.1240  118.3810   59.0630 C   0  0  0  0  0  0  0  0  0  0  0  0
  133.1240  119.4920   58.7290 C   0  0  0  0  0  0  0  0  0  0  0  0
  133.7930  119.8980   59.9170 O   0  0  0  0  0  0  0  0  0  0  0  0
  133.4940  121.0750   60.5230 C   0  0  0  0  0  0  0  0  0  0  0  0
  134.3370  121.7920   61.0720 O   0  0  0  0  0  0  0  0  0  0  0  0
  132.0340  121.4220   60.4560 C   0  0  0  0  0  0  0  0  0  0  0  0
  131.0460  120.5750   60.9790 C   0  0  0  0  0  0  0  0  0  0  0  0
  129.7000  120.9220   60.8990 C   0  0  0  0  0  0  0  0  0  0  0  0
  129.3170  122.1300   60.2970 C   0  0  0  0  0  0  0  0  0  0  0  0
  127.9900  122.5770   60.1580 N   0  0  0  0  0  0  0  0  0  0  0  0
  127.3120  122.9440   59.0480 C   0  0  0  0  0  0  0  0  0  0  0  0
  127.7570  122.9360   57.9010 O   0  0  0  0  0  0  0  0  0  0  0  0
  125.8690  123.3940   59.2790 C   0  0  0  0  0  0  0  0  0  0  0  0
  125.7120  124.4060   60.7790 S   0  0  0  0  0  0  0  0  0  0  0  0
  127.1810  125.4040   60.8600 C   0  0  0  0  0  0  0  0  0  0  0  0
  127.1390  126.5070   60.0740 N   0  0  0  0  0  0  0  0  0  0  0  0
  128.1990  127.3580   60.0490 C   0  0  0  0  0  0  0  0  0  0  0  0
  128.0680  128.5680   59.1690 C   0  0  0  0  0  0  0  0  0  0  0  0
  129.0200  129.6000   59.2020 C   0  0  0  0  0  0  0  0  0  0  0  0
  128.8960  130.7200   58.3850 C   0  0  0  0  0  0  0  0  0  0  0  0
  127.8180  130.8460   57.5120 C   0  0  0  0  0  0  0  0  0  0  0  0
  127.7780  131.9890   56.7370 O   0  0  0  0  0  0  0  0  0  0  0  0
  128.9920  132.6680   56.4380 C   0  0  0  0  0  0  0  0  0  0  0  0
  126.8570  129.8260   57.4710 C   0  0  0  0  0  0  0  0  0  0  0  0
  126.9840  128.7080   58.2890 C   0  0  0  0  0  0  0  0  0  0  0  0
  129.3350  127.1040   60.8260 C   0  0  0  0  0  0  0  0  0  0  0  0
  129.4110  125.9570   61.6280 C   0  0  0  0  0  0  0  0  0  0  0  0
  130.6670  125.7350   62.4060 C   0  0  0  0  0  0  0  0  0  0  0  0
  130.6750  125.8440   63.8000 C   0  0  0  0  0  0  0  0  0  0  0  0
  131.8470  125.6210   64.5190 C   0  0  0  0  0  0  0  0  0  0  0  0
  133.0280  125.2780   63.8620 C   0  0  0  0  0  0  0  0  0  0  0  0
  134.1390  125.0750   64.6570 O   0  0  0  0  0  0  0  0  0  0  0  0
  133.9870  125.0620   66.0720 C   0  0  0  0  0  0  0  0  0  0  0  0
  133.0210  125.1600   62.4640 C   0  0  0  0  0  0  0  0  0  0  0  0
  131.8490  125.3850   61.7460 C   0  0  0  0  0  0  0  0  0  0  0  0
  128.3020  125.0780   61.6530 C   0  0  0  0  0  0  0  0  0  0  0  0
  128.3160  123.8700   62.4840 C   0  0  0  0  0  0  0  0  0  0  0  0
  128.3290  122.9160   63.1400 N   0  0  0  0  0  0  0  0  0  0  0  0
  130.2980  122.9720   59.7730 C   0  0  0  0  0  0  0  0  0  0  0  0
  131.6440  122.6240   59.8530 C   0  0  0  0  0  0  0  0  0  0  0  0
  1  2  1  0
  2  3  1  0
  3  4  1  0
  4  5  2  0
  4  6  1  0
  6  7  2  0
  7  8  1  0
  8  9  2  0
  9 10  1  0
 10 11  1  0
 11 12  2  0
 11 13  1  0
 13 14  1  0
 14 15  1  0
 15 16  2  0
 16 17  1  0
 17 18  1  0
 18 19  2  0
 19 20  1  0
 20 21  2  0
 21 22  1  0
 22 23  1  0
 21 24  1  0
 24 25  2  0
 17 26  2  0
 26 27  1  0
 27 28  1  0
 28 29  2  0
 29 30  1  0
 30 31  2  0
 31 32  1  0
 32 33  1  0
 31 34  1  0
 34 35  2  0
 27 36  2  0
 36 37  1  0
 37 38  3  0
  9 39  1  0
 39 40  2  0
 40  6  1  0
 36 15  1  0
 25 18  1  0
 35 28  1  0
M  END
>  <Binding energies>  (1) 
[-5.49]

>  <Ligand effiencies>  (1) 
[-0.13390243902439025]

>  <Interactions>  (1) 
["V-A:LEU:475:CD2:4259, V-A:GLU:543:CD:4908, V-B:GLU:543:CD:9880, V-A:ILE:369:CG2:3237, V-B:TYR:539:CD2:9846, V-A:GLY:454:CA:4049, H-A:TYR:484:OH:4348, V-B:TYR:539:CE2:9848, V-A:ILE:369:CD1:3239, V-A:TYR:484:CZ:4347, V-B:PRO:540:CA:9855, V-B:GLU:543:CG:9879, V-A:ARG:545:CZ:4926, V-A:PRO:540:N:4884, H-A:ARG:545:NH2:4928, V-B:TYR:539:C:9839, H-A:ARG:545:NE:4924, V-A:TYR:484:CE2:4346, V-A:HIS:456:CE1:4070, H-A:ARG:545:NH1:4927, V-A:TYR:539:C:4867, V-B:TYR:539:CG:9844, H-A:GLY:454:N:4050, V-A:ARG:545:CG:4922, V-A:TYR:539:CD1:4873, V-A:ARG:545:CD:4923, V-B:PRO:540:N:9856, V-A:TYR:539:CG:4872, V-A:TYR:539:CE1:4875, V-A:SER:385:CB:3409, V-B:TYR:539:CB:9843, V-B:PRO:540:CB:9857, H-B:ARG:545:NH2:9900, V-A:LEU:373:CD1:3280, V-A:TYR:539:CA:4869, V-A:SER:385:C:3405, H-B:TYR:539:O:9840, V-A:SER:385:CA:3407, V-A:ILE:455:C:4052, V-A:TYR:539:CD2:4874"]

$$$$
1b_Ghoteimi_2023
     RDKit          3D

 34 37  0  0  0  0  0  0  0  0999 V2000
  132.5840  120.1770   60.1330 C   0  0  0  0  0  0  0  0  0  0  0  0
  133.3420  121.3800   60.0700 O   0  0  0  0  0  0  0  0  0  0  0  0
  132.6840  122.5820   59.8950 C   0  0  0  0  0  0  0  0  0  0  0  0
  131.4500  122.7170   60.5290 C   0  0  0  0  0  0  0  0  0  0  0  0
  130.7150  123.8930   60.4080 C   0  0  0  0  0  0  0  0  0  0  0  0
  131.1930  124.9720   59.6500 C   0  0  0  0  0  0  0  0  0  0  0  0
  130.3950  126.2390   59.5200 C   0  0  0  0  0  0  0  0  0  0  0  0
  129.5330  126.7020   60.5200 C   0  0  0  0  0  0  0  0  0  0  0  0
  128.8140  127.8920   60.3500 C   0  0  0  0  0  0  0  0  0  0  0  0
  127.9080  128.3220   61.4570 C   0  0  0  0  0  0  0  0  0  0  0  0
  128.3570  128.3110   62.7800 C   0  0  0  0  0  0  0  0  0  0  0  0
  127.5140  128.7030   63.8160 C   0  0  0  0  0  0  0  0  0  0  0  0
  126.2050  129.1090   63.5510 C   0  0  0  0  0  0  0  0  0  0  0  0
  125.4410  129.4800   64.6400 O   0  0  0  0  0  0  0  0  0  0  0  0
  125.6630  128.8420   65.8930 C   0  0  0  0  0  0  0  0  0  0  0  0
  125.7480  129.1140   62.2250 C   0  0  0  0  0  0  0  0  0  0  0  0
  126.5940  128.7210   61.1910 C   0  0  0  0  0  0  0  0  0  0  0  0
  128.9910  128.6210   59.1490 C   0  0  0  0  0  0  0  0  0  0  0  0
  128.3360  129.9200   58.9630 C   0  0  0  0  0  0  0  0  0  0  0  0
  127.8190  130.9450   58.8170 N   0  0  0  0  0  0  0  0  0  0  0  0
  129.8600  128.0880   58.1710 C   0  0  0  0  0  0  0  0  0  0  0  0
  130.1970  128.8600   56.6020 S   0  0  0  0  0  0  0  0  0  0  0  0
  131.5110  130.1000   56.8570 C   0  0  0  0  0  0  0  0  0  0  0  0
  131.3490  130.9700   58.1120 C   0  0  0  0  0  0  0  0  0  0  0  0
  130.8250  132.0840   58.0430 O   0  0  0  0  0  0  0  0  0  0  0  0
  131.8220  130.4120   59.2490 N   0  0  0  0  0  0  0  0  0  0  0  0
  131.8100  130.9630   60.5250 C   0  0  0  0  0  0  0  0  0  0  0  0
  132.8420  130.7790   61.4440 C   0  0  0  0  0  0  0  0  0  0  0  0
  132.4510  131.4750   62.5650 C   0  0  0  0  0  0  0  0  0  0  0  0
  131.2470  132.0510   62.3310 O   0  0  0  0  0  0  0  0  0  0  0  0
  130.8510  131.7200   61.0350 N   0  0  0  0  0  0  0  0  0  0  0  0
  130.5540  126.9410   58.3670 N   0  0  0  0  0  0  0  0  0  0  0  0
  132.4360  124.8250   59.0140 C   0  0  0  0  0  0  0  0  0  0  0  0
  133.1740  123.6510   59.1320 C   0  0  0  0  0  0  0  0  0  0  0  0
  1  2  1  0
  2  3  1  0
  3  4  2  0
  4  5  1  0
  5  6  2  0
  6  7  1  0
  7  8  2  0
  8  9  1  0
  9 10  1  0
 10 11  2  0
 11 12  1  0
 12 13  2  0
 13 14  1  0
 14 15  1  0
 13 16  1  0
 16 17  2  0
  9 18  2  0
 18 19  1  0
 19 20  3  0
 18 21  1  0
 21 22  1  0
 22 23  1  0
 23 24  1  0
 24 25  2  0
 24 26  1  0
 26 27  1  0
 27 28  1  0
 28 29  2  0
 29 30  1  0
 30 31  1  0
 21 32  2  0
  6 33  1  0
 33 34  2  0
 34  3  1  0
 32  7  1  0
 17 10  1  0
 31 27  2  0
M  END
>  <Binding energies>  (2) 
[-5.94]

>  <Ligand effiencies>  (2) 
[-0.16971428571428573]

>  <Interactions>  (2) 
["H-A:TYR:531:OH:4795, V-A:GLU:543:CG:4907, H-A:ASP:366:OD1:3214, V-A:LEU:475:CD2:4259, V-A:GLU:543:CD:4908, H-A:ALA:541:N:4891, V-A:ASP:366:CB:3212, V-A:ILE:369:CG2:3237, V-A:PRO:540:CA:4883, V-A:ILE:369:CB:3236, V-A:PRO:540:CB:4885, V-B:TYR:539:CD2:9846, H-B:TYR:484:OH:9320, V-A:ASN:362:CB:3176, V-B:HIS:456:CE1:9042, V-B:TYR:539:CE2:9848, V-A:ASP:366:CG:3213, V-A:ALA:541:CA:4890, V-A:SER:385:CB:3409, V-B:ARG:545:CZ:9898, V-A:ASN:362:CG:3177, V-B:ARG:545:CD:9895, V-A:ALA:541:C:4888"]

$$$$
1c_Ghoteimi_2023
     RDKit          3D

 34 37  0  0  0  0  0  0  0  0999 V2000
  130.3600  116.9140   60.7430 C   0  0  0  0  0  0  0  0  0  0  0  0
  131.3170  117.8960   60.3620 O   0  0  0  0  0  0  0  0  0  0  0  0
  131.0380  119.2320   60.5820 C   0  0  0  0  0  0  0  0  0  0  0  0
  129.8660  119.5200   61.2770 C   0  0  0  0  0  0  0  0  0  0  0  0
  129.5050  120.8380   61.5410 C   0  0  0  0  0  0  0  0  0  0  0  0
  130.3050  121.9090   61.1140 C   0  0  0  0  0  0  0  0  0  0  0  0
  129.9160  123.3330   61.3920 C   0  0  0  0  0  0  0  0  0  0  0  0
  129.2060  124.1150   60.4750 C   0  0  0  0  0  0  0  0  0  0  0  0
  128.8420  125.4300   60.7900 C   0  0  0  0  0  0  0  0  0  0  0  0
  128.0270  126.1840   59.7920 C   0  0  0  0  0  0  0  0  0  0  0  0
  128.4400  126.2750   58.4600 C   0  0  0  0  0  0  0  0  0  0  0  0
  127.6900  126.9960   57.5360 C   0  0  0  0  0  0  0  0  0  0  0  0
  126.5180  127.6440   57.9260 C   0  0  0  0  0  0  0  0  0  0  0  0
  125.8380  128.3360   56.9420 O   0  0  0  0  0  0  0  0  0  0  0  0
  125.6880  129.7470   57.0620 C   0  0  0  0  0  0  0  0  0  0  0  0
  126.1040  127.5600   59.2640 C   0  0  0  0  0  0  0  0  0  0  0  0
  126.8560  126.8380   60.1870 C   0  0  0  0  0  0  0  0  0  0  0  0
  129.2360  125.9560   62.0430 C   0  0  0  0  0  0  0  0  0  0  0  0
  128.9150  127.3380   62.4190 C   0  0  0  0  0  0  0  0  0  0  0  0
  128.6610  128.4270   62.7140 N   0  0  0  0  0  0  0  0  0  0  0  0
  129.9350  125.1080   62.9260 C   0  0  0  0  0  0  0  0  0  0  0  0
  130.3420  125.5790   64.5930 S   0  0  0  0  0  0  0  0  0  0  0  0
  132.1440  125.8500   64.5740 C   0  0  0  0  0  0  0  0  0  0  0  0
  132.8130  125.2050   63.3550 C   0  0  0  0  0  0  0  0  0  0  0  0
  133.5940  124.2650   63.5150 O   0  0  0  0  0  0  0  0  0  0  0  0
  132.4430  125.7140   62.1590 N   0  0  0  0  0  0  0  0  0  0  0  0
  132.7760  125.2170   60.9090 C   0  0  0  0  0  0  0  0  0  0  0  0
  133.6520  124.2790   60.6190 N   0  0  0  0  0  0  0  0  0  0  0  0
  133.6820  124.0280   59.3240 C   0  0  0  0  0  0  0  0  0  0  0  0
  132.8110  124.7720   58.5340 C   0  0  0  0  0  0  0  0  0  0  0  0
  131.9110  125.8590   59.5490 S   0  0  0  0  0  0  0  0  0  0  0  0
  130.2570  123.8300   62.6100 N   0  0  0  0  0  0  0  0  0  0  0  0
  131.4860  121.6070   60.4200 C   0  0  0  0  0  0  0  0  0  0  0  0
  131.8500  120.2910   60.1540 C   0  0  0  0  0  0  0  0  0  0  0  0
  1  2  1  0
  2  3  1  0
  3  4  2  0
  4  5  1  0
  5  6  2  0
  6  7  1  0
  7  8  2  0
  8  9  1  0
  9 10  1  0
 10 11  2  0
 11 12  1  0
 12 13  2  0
 13 14  1  0
 14 15  1  0
 13 16  1  0
 16 17  2  0
  9 18  2  0
 18 19  1  0
 19 20  3  0
 18 21  1  0
 21 22  1  0
 22 23  1  0
 23 24  1  0
 24 25  2  0
 24 26  1  0
 26 27  1  0
 27 28  2  0
 28 29  1  0
 29 30  2  0
 30 31  1  0
 21 32  2  0
  6 33  1  0
 33 34  2  0
 34  3  1  0
 32  7  1  0
 17 10  1  0
 31 27  1  0
M  END
>  <Binding energies>  (3) 
[-5.78]

>  <Ligand effiencies>  (3) 
[-0.16514285714285715]

>  <Interactions>  (3) 
["V-A:ASP:366:CA:3210, H-B:TYR:531:OH:9767, H-A:ASP:366:OD1:3214, V-A:LEU:475:CD2:4259, V-A:GLU:543:CD:4908, V-A:ASP:366:CB:3212, V-B:GLU:543:CD:9880, V-A:ILE:369:CG2:3237, V-A:ILE:369:CB:3236, V-B:TYR:539:CD2:9846, H-A:TYR:484:OH:4348, V-B:TYR:539:CE2:9848, V-A:ILE:369:CD1:3239, V-A:TYR:484:CZ:4347, V-B:ASP:366:CB:8184, H-A:GLU:543:OE2:4910, V-B:ASP:366:CG:8185, V-B:ALA:541:CB:9864, V-A:ARG:545:CZ:4926, V-A:ASP:366:CG:3213, V-B:TYR:539:C:9839, V-A:TYR:484:CE2:4346, H-A:GLY:454:N:4050, V-A:LEU:475:CD1:4258, V-A:PRO:482:CB:4326, H-A:GLU:543:OE1:4909, V-A:PRO:482:CG:4327, H-A:SER:385:OG:3410"]

$$$$
1d_Ghoteimi_2023
     RDKit          3D

 30 32  0  0  0  0  0  0  0  0999 V2000
  128.4360  123.8610   56.6960 C   0  0  0  0  0  0  0  0  0  0  0  0
  127.7780  122.6510   57.0380 O   0  0  0  0  0  0  0  0  0  0  0  0
  126.4320  122.6010   57.1140 C   0  0  0  0  0  0  0  0  0  0  0  0
  125.6930  121.8490   56.4760 O   0  0  0  0  0  0  0  0  0  0  0  0
  125.8700  123.6140   58.1080 C   0  0  0  0  0  0  0  0  0  0  0  0
  126.5790  123.2320   59.7380 S   0  0  0  0  0  0  0  0  0  0  0  0
  127.8450  124.4420   60.0510 C   0  0  0  0  0  0  0  0  0  0  0  0
  127.6990  125.5830   59.3360 N   0  0  0  0  0  0  0  0  0  0  0  0
  128.5990  126.5900   59.4750 C   0  0  0  0  0  0  0  0  0  0  0  0
  128.3610  127.8220   58.6510 C   0  0  0  0  0  0  0  0  0  0  0  0
  129.2300  128.9230   58.7190 C   0  0  0  0  0  0  0  0  0  0  0  0
  129.0040  130.0660   57.9590 C   0  0  0  0  0  0  0  0  0  0  0  0
  127.9030  130.1480   57.1100 C   0  0  0  0  0  0  0  0  0  0  0  0
  127.7560  131.3230   56.3980 O   0  0  0  0  0  0  0  0  0  0  0  0
  128.8060  132.2840   56.4210 C   0  0  0  0  0  0  0  0  0  0  0  0
  127.0250  129.0580   57.0320 C   0  0  0  0  0  0  0  0  0  0  0  0
  127.2550  127.9150   57.7930 C   0  0  0  0  0  0  0  0  0  0  0  0
  129.6750  126.4660   60.3610 C   0  0  0  0  0  0  0  0  0  0  0  0
  129.8600  125.2920   61.1010 C   0  0  0  0  0  0  0  0  0  0  0  0
  131.0350  125.2240   62.0230 C   0  0  0  0  0  0  0  0  0  0  0  0
  130.9270  125.6900   63.3360 C   0  0  0  0  0  0  0  0  0  0  0  0
  132.0170  125.6290   64.2000 C   0  0  0  0  0  0  0  0  0  0  0  0
  133.2330  125.0990   63.7710 C   0  0  0  0  0  0  0  0  0  0  0  0
  134.2620  125.0860   64.6940 O   0  0  0  0  0  0  0  0  0  0  0  0
  133.9500  125.0640   66.0820 C   0  0  0  0  0  0  0  0  0  0  0  0
  133.3430  124.6190   62.4570 C   0  0  0  0  0  0  0  0  0  0  0  0
  132.2510  124.6790   61.5960 C   0  0  0  0  0  0  0  0  0  0  0  0
  128.9320  124.2340   60.9310 C   0  0  0  0  0  0  0  0  0  0  0  0
  129.1340  122.9460   61.6010 C   0  0  0  0  0  0  0  0  0  0  0  0
  129.2940  121.9300   62.1300 N   0  0  0  0  0  0  0  0  0  0  0  0
  1  2  1  0
  2  3  1  0
  3  4  2  0
  3  5  1  0
  5  6  1  0
  6  7  1  0
  7  8  2  0
  8  9  1  0
  9 10  1  0
 10 11  2  0
 11 12  1  0
 12 13  2  0
 13 14  1  0
 14 15  1  0
 13 16  1  0
 16 17  2  0
  9 18  2  0
 18 19  1  0
 19 20  1  0
 20 21  2  0
 21 22  1  0
 22 23  2  0
 23 24  1  0
 24 25  1  0
 23 26  1  0
 26 27  2  0
 19 28  2  0
 28 29  1  0
 29 30  3  0
 28  7  1  0
 17 10  1  0
 27 20  1  0
M  END
>  <Binding energies>  (4) 
[-6.38]

>  <Ligand effiencies>  (4) 
[-0.21266666666666667]

>  <Interactions>  (4) 
["V-B:MET:535:CE:9807, V-B:TYR:539:CE1:9847, V-A:GLU:543:CD:4908, V-B:TYR:539:CZ:9849, V-A:GLY:454:CA:4049, H-A:TYR:484:OH:4348, V-B:TYR:539:CE2:9848, V-A:TYR:484:CZ:4347, V-B:PRO:540:CA:9855, V-A:ARG:545:CZ:4926, H-A:ARG:545:NH2:4928, V-B:TYR:539:C:9839, H-A:ARG:545:NE:4924, V-A:TYR:484:CE2:4346, V-A:HIS:456:CE1:4070, H-A:ARG:545:NH1:4927, V-A:TYR:539:C:4867, H-A:GLY:454:N:4050, V-A:ARG:545:CG:4922, V-A:TYR:539:CD1:4873, V-A:ARG:545:CD:4923, V-B:PRO:540:N:9856, V-A:TYR:539:CG:4872, H-B:TYR:539:N:9842, V-A:TYR:539:CE1:4875, V-B:PRO:540:CB:9857, V-B:PRO:540:CD:9859, V-A:ILE:455:C:4052, V-A:TYR:539:CD2:4874"]

$$$$
1j_Grossjean_2025
     RDKit          3D

 20 21  0  0  0  0  0  0  0  0999 V2000
  133.2450  125.2340   65.1810 C   0  0  0  0  0  0  0  0  0  0  0  0
  132.7140  125.1040   63.7650 C   0  0  0  0  0  0  0  0  0  0  0  0
  131.7250  125.9540   63.2770 C   0  0  0  0  0  0  0  0  0  0  0  0
  131.2830  125.7960   61.9600 C   0  0  0  0  0  0  0  0  0  0  0  0
  130.2100  126.7520   61.4410 C   0  0  0  0  0  0  0  0  0  0  0  0
  131.8440  124.7740   61.1610 C   0  0  0  0  0  0  0  0  0  0  0  0
  131.4340  124.6240   59.7620 C   0  0  0  0  0  0  0  0  0  0  0  0
  131.1080  124.5090   58.6570 N   0  0  0  0  0  0  0  0  0  0  0  0
  132.8240  123.9400   61.7480 C   0  0  0  0  0  0  0  0  0  0  0  0
  133.6320  122.6050   60.8910 S   0  0  0  0  0  0  0  0  0  0  0  0
  132.3930  121.3110   60.5890 C   0  0  0  0  0  0  0  0  0  0  0  0
  131.0430  121.6500   61.2260 C   0  0  0  0  0  0  0  0  0  0  0  0
  130.8360  121.3450   62.4010 O   0  0  0  0  0  0  0  0  0  0  0  0
  130.1600  122.2780   60.4200 N   0  0  0  0  0  0  0  0  0  0  0  0
  128.8750  122.6820   60.7550 C   0  0  0  0  0  0  0  0  0  0  0  0
  128.3550  122.8050   61.9570 N   0  0  0  0  0  0  0  0  0  0  0  0
  127.1040  123.2150   61.9030 C   0  0  0  0  0  0  0  0  0  0  0  0
  126.5820  123.4360   60.6320 C   0  0  0  0  0  0  0  0  0  0  0  0
  127.8070  123.0850   59.4500 S   0  0  0  0  0  0  0  0  0  0  0  0
  133.2620  124.1150   63.0200 N   0  0  0  0  0  0  0  0  0  0  0  0
  1  2  1  0
  2  3  2  0
  3  4  1  0
  4  5  1  0
  4  6  2  0
  6  7  1  0
  7  8  3  0
  6  9  1  0
  9 10  1  0
 10 11  1  0
 11 12  1  0
 12 13  2  0
 12 14  1  0
 14 15  1  0
 15 16  2  0
 16 17  1  0
 17 18  2  0
 18 19  1  0
  9 20  2  0
 20  2  1  0
 19 15  1  0
M  END
>  <Binding energies>  (5) 
[-5.83]

>  <Ligand effiencies>  (5) 
[-0.2776190476190476]

>  <Interactions>  (5) 
["V-A:LEU:475:CD2:4259, V-A:GLU:543:CD:4908, H-B:TYR:539:OH:9850, V-B:GLU:543:CD:9880, V-A:ILE:369:CG2:3237, V-B:TYR:539:CD2:9846, H-A:TYR:484:OH:4348, V-B:TYR:539:CE2:9848, V-A:TYR:484:CZ:4347, V-B:PRO:540:CA:9855, V-B:GLU:543:CG:9879, V-A:ARG:545:CZ:4926, V-B:TYR:539:C:9839, V-A:TYR:484:CE2:4346, H-A:GLY:454:N:4050, V-A:ARG:545:CD:4923, V-B:PRO:540:N:9856, V-B:PRO:540:CB:9857"]

$$$$
1o_Grossjean_2025
     RDKit          3D

 26 27  0  0  0  0  0  0  0  0999 V2000
  133.6210  123.9180   60.5100 C   0  0  0  0  0  0  0  0  0  0  0  0
  132.9440  123.8090   61.7540 O   0  0  0  0  0  0  0  0  0  0  0  0
  132.8380  124.8750   62.5890 C   0  0  0  0  0  0  0  0  0  0  0  0
  133.6220  125.0910   63.5190 O   0  0  0  0  0  0  0  0  0  0  0  0
  131.6760  125.7690   62.2660 C   0  0  0  0  0  0  0  0  0  0  0  0
  131.6880  126.6330   61.1610 C   0  0  0  0  0  0  0  0  0  0  0  0
  130.5910  127.4470   60.8890 C   0  0  0  0  0  0  0  0  0  0  0  0
  129.4670  127.4210   61.7150 C   0  0  0  0  0  0  0  0  0  0  0  0
  128.4130  128.2780   61.3420 N   0  0  0  0  0  0  0  0  0  0  0  0
  128.1710  129.5580   61.7000 C   0  0  0  0  0  0  0  0  0  0  0  0
  128.8980  130.2430   62.4200 O   0  0  0  0  0  0  0  0  0  0  0  0
  126.8930  130.1770   61.1160 C   0  0  0  0  0  0  0  0  0  0  0  0
  127.1680  131.2250   60.0190 C   0  0  0  0  0  0  0  0  0  0  0  0
  128.3630  132.5050   60.5040 S   0  0  0  0  0  0  0  0  0  0  0  0
  129.9910  131.9710   60.0150 C   0  0  0  0  0  0  0  0  0  0  0  0
  130.8290  131.7650   61.0630 N   0  0  0  0  0  0  0  0  0  0  0  0
  132.0930  131.3480   60.8140 C   0  0  0  0  0  0  0  0  0  0  0  0
  132.9660  131.1250   62.0350 C   0  0  0  0  0  0  0  0  0  0  0  0
  132.5730  131.1340   59.5240 C   0  0  0  0  0  0  0  0  0  0  0  0
  131.7260  131.3690   58.4360 C   0  0  0  0  0  0  0  0  0  0  0  0
  132.2810  131.1410   57.0300 C   0  0  0  0  0  0  0  0  0  0  0  0
  130.4030  131.8080   58.6710 C   0  0  0  0  0  0  0  0  0  0  0  0
  129.5210  132.1150   57.5420 C   0  0  0  0  0  0  0  0  0  0  0  0
  128.8260  132.3570   56.6490 N   0  0  0  0  0  0  0  0  0  0  0  0
  129.4460  126.5550   62.8190 C   0  0  0  0  0  0  0  0  0  0  0  0
  130.5430  125.7410   63.0890 C   0  0  0  0  0  0  0  0  0  0  0  0
  1  2  1  0
  2  3  1  0
  3  4  2  0
  3  5  1  0
  5  6  2  0
  6  7  1  0
  7  8  2  0
  8  9  1  0
  9 10  1  0
 10 11  2  0
 10 12  1  0
 12 13  1  0
 13 14  1  0
 14 15  1  0
 15 16  2  0
 16 17  1  0
 17 18  1  0
 17 19  2  0
 19 20  1  0
 20 21  1  0
 20 22  2  0
 22 23  1  0
 23 24  3  0
  8 25  1  0
 25 26  2  0
 26  5  1  0
 22 15  1  0
M  END
>  <Binding energies>  (6) 
[-6.07]

>  <Ligand effiencies>  (6) 
[-0.22481481481481483]

>  <Interactions>  (6) 
["V-A:GLU:543:CG:4907, V-A:GLU:543:CD:4908, H-A:ALA:541:N:4891, V-B:GLU:543:CD:9880, V-A:ILE:369:CG2:3237, V-A:PRO:540:CA:4883, V-A:PRO:540:CB:4885, V-A:ASN:362:CB:3176, H-A:TYR:484:OH:4348, V-A:ILE:369:CD1:3239, V-A:LEU:363:CD1:3189, V-A:ARG:545:CZ:4926, V-A:ASP:366:CG:3213, V-A:PRO:540:N:4884, H-A:ARG:545:NH2:4928, H-A:ARG:545:NE:4924, H-A:ARG:545:NH1:4927, V-A:TYR:539:C:4867, H-A:GLY:454:N:4050, V-A:PRO:540:C:4881, V-A:ASN:362:CG:3177"]

$$$$
1p_Grossjean_2025
     RDKit          3D

 21 22  0  0  0  0  0  0  0  0999 V2000
  134.0340  125.1150   65.4810 C   0  0  0  0  0  0  0  0  0  0  0  0
  133.1320  125.1750   64.2630 C   0  0  0  0  0  0  0  0  0  0  0  0
  131.8990  125.8250   64.3010 C   0  0  0  0  0  0  0  0  0  0  0  0
  131.1020  125.8380   63.1510 C   0  0  0  0  0  0  0  0  0  0  0  0
  129.7490  126.5430   63.2200 C   0  0  0  0  0  0  0  0  0  0  0  0
  131.5680  125.2000   61.9800 C   0  0  0  0  0  0  0  0  0  0  0  0
  130.7330  125.1580   60.7790 C   0  0  0  0  0  0  0  0  0  0  0  0
  130.0710  125.1260   59.8300 N   0  0  0  0  0  0  0  0  0  0  0  0
  132.8420  124.5850   62.0260 C   0  0  0  0  0  0  0  0  0  0  0  0
  133.5820  123.7490   60.6410 S   0  0  0  0  0  0  0  0  0  0  0  0
  132.3880  122.5000   60.0810 C   0  0  0  0  0  0  0  0  0  0  0  0
  132.0160  121.4670   61.1630 C   0  0  0  0  0  0  0  0  0  0  0  0
  130.5660  121.5890   61.6550 C   0  0  0  0  0  0  0  0  0  0  0  0
  130.2100  120.9650   62.6560 O   0  0  0  0  0  0  0  0  0  0  0  0
  129.7710  122.4100   60.9330 N   0  0  0  0  0  0  0  0  0  0  0  0
  128.4310  122.6970   61.1600 C   0  0  0  0  0  0  0  0  0  0  0  0
  127.6320  123.3800   60.2430 C   0  0  0  0  0  0  0  0  0  0  0  0
  126.3920  123.4570   60.8360 C   0  0  0  0  0  0  0  0  0  0  0  0
  126.4430  122.8550   62.0480 O   0  0  0  0  0  0  0  0  0  0  0  0
  127.7400  122.3770   62.2420 N   0  0  0  0  0  0  0  0  0  0  0  0
  133.5990  124.5600   63.1520 N   0  0  0  0  0  0  0  0  0  0  0  0
  1  2  1  0
  2  3  2  0
  3  4  1  0
  4  5  1  0
  4  6  2  0
  6  7  1  0
  7  8  3  0
  6  9  1  0
  9 10  1  0
 10 11  1  0
 11 12  1  0
 12 13  1  0
 13 14  2  0
 13 15  1  0
 15 16  1  0
 16 17  1  0
 17 18  2  0
 18 19  1  0
 19 20  1  0
  9 21  2  0
 21  2  1  0
 20 16  2  0
M  END
>  <Binding energies>  (7) 
[-6.44]

>  <Ligand effiencies>  (7) 
[-0.2927272727272727]

>  <Interactions>  (7) 
["V-A:LEU:475:CD2:4259, V-A:GLU:543:CD:4908, V-B:GLU:543:CD:9880, V-A:ILE:369:CG2:3237, V-B:TYR:539:CD2:9846, V-A:GLY:454:CA:4049, H-A:TYR:484:OH:4348, V-B:TYR:539:CE2:9848, V-A:TYR:484:CZ:4347, V-B:PRO:540:CA:9855, V-A:ARG:545:CZ:4926, H-B:ALA:541:N:9863, H-A:ARG:545:NH2:4928, V-A:TYR:484:CE2:4346, H-A:GLY:454:N:4050, V-A:ARG:545:CG:4922, V-A:ARG:545:CD:4923, V-A:GLY:453:C:4042, V-A:GLY:453:CA:4044, V-B:PRO:540:CB:9857"]

$$$$
2a_Ghoteimi_2023
     RDKit          3D

 48 53  0  0  0  0  0  0  0  0999 V2000
  130.1690  123.9140   60.5530 C   0  0  0  0  0  0  0  0  0  0  0  0
  131.4580  124.0700   59.7410 C   0  0  0  0  0  0  0  0  0  0  0  0
  131.9450  125.3990   59.8800 O   0  0  0  0  0  0  0  0  0  0  0  0
  131.7500  126.3240   58.9050 C   0  0  0  0  0  0  0  0  0  0  0  0
  132.0600  126.1420   57.7240 O   0  0  0  0  0  0  0  0  0  0  0  0
  131.1150  127.5890   59.4070 C   0  0  0  0  0  0  0  0  0  0  0  0
  130.8630  127.8030   60.7710 C   0  0  0  0  0  0  0  0  0  0  0  0
  130.2740  128.9870   61.2020 C   0  0  0  0  0  0  0  0  0  0  0  0
  129.9280  129.9820   60.2860 C   0  0  0  0  0  0  0  0  0  0  0  0
  129.3350  131.1370   60.8320 N   0  0  0  0  0  0  0  0  0  0  0  0
  128.7870  132.2040   60.2120 C   0  0  0  0  0  0  0  0  0  0  0  0
  128.7570  132.3770   58.9920 O   0  0  0  0  0  0  0  0  0  0  0  0
  128.2080  133.2750   61.1450 C   0  0  0  0  0  0  0  0  0  0  0  0
  126.8350  132.6980   62.1950 S   0  0  0  0  0  0  0  0  0  0  0  0
  127.1300  130.9650   62.4600 C   0  0  0  0  0  0  0  0  0  0  0  0
  127.5130  130.6610   63.7230 N   0  0  0  0  0  0  0  0  0  0  0  0
  127.7770  129.3710   64.0470 C   0  0  0  0  0  0  0  0  0  0  0  0
  128.2040  129.1120   65.4570 C   0  0  0  0  0  0  0  0  0  0  0  0
  128.1240  130.1110   66.4340 C   0  0  0  0  0  0  0  0  0  0  0  0
  128.5330  129.8680   67.7420 C   0  0  0  0  0  0  0  0  0  0  0  0
  129.0320  128.6150   68.1240 C   0  0  0  0  0  0  0  0  0  0  0  0
  129.4680  128.3940   69.4350 N   0  0  0  0  0  0  0  0  0  0  0  0
  130.8980  128.4730   69.7950 C   0  0  0  0  0  0  0  0  0  0  0  0
  131.1550  128.5630   71.3140 C   0  0  0  0  0  0  0  0  0  0  0  0
  130.5220  127.4820   71.9790 O   0  0  0  0  0  0  0  0  0  0  0  0
  129.1190  127.4980   71.7760 C   0  0  0  0  0  0  0  0  0  0  0  0
  128.7980  127.3760   70.2710 C   0  0  0  0  0  0  0  0  0  0  0  0
  129.1210  127.6200   67.1370 C   0  0  0  0  0  0  0  0  0  0  0  0
  128.7090  127.8620   65.8310 C   0  0  0  0  0  0  0  0  0  0  0  0
  127.6480  128.3470   63.1050 C   0  0  0  0  0  0  0  0  0  0  0  0
  127.2530  128.6370   61.7920 C   0  0  0  0  0  0  0  0  0  0  0  0
  127.1410  127.4960   60.8330 C   0  0  0  0  0  0  0  0  0  0  0  0
  126.3820  127.6300   59.6670 C   0  0  0  0  0  0  0  0  0  0  0  0
  126.2550  126.5660   58.7790 C   0  0  0  0  0  0  0  0  0  0  0  0
  126.8860  125.3380   59.0270 C   0  0  0  0  0  0  0  0  0  0  0  0
  126.7560  124.2520   58.1570 N   0  0  0  0  0  0  0  0  0  0  0  0
  125.6040  123.3400   58.3050 C   0  0  0  0  0  0  0  0  0  0  0  0
  125.3730  122.4440   57.0690 C   0  0  0  0  0  0  0  0  0  0  0  0
  126.5550  121.7180   56.7680 O   0  0  0  0  0  0  0  0  0  0  0  0
  127.6440  122.5830   56.4840 C   0  0  0  0  0  0  0  0  0  0  0  0
  127.9320  123.4860   57.7010 C   0  0  0  0  0  0  0  0  0  0  0  0
  127.6360  125.2090   60.2050 C   0  0  0  0  0  0  0  0  0  0  0  0
  127.7610  126.2710   61.0950 C   0  0  0  0  0  0  0  0  0  0  0  0
  126.9790  129.9850   61.4540 C   0  0  0  0  0  0  0  0  0  0  0  0
  126.5070  130.3430   60.1120 C   0  0  0  0  0  0  0  0  0  0  0  0
  126.1370  130.6240   59.0520 N   0  0  0  0  0  0  0  0  0  0  0  0
  130.1690  129.7720   58.9210 C   0  0  0  0  0  0  0  0  0  0  0  0
  130.7600  128.5870   58.4900 C   0  0  0  0  0  0  0  0  0  0  0  0
  1  2  1  0
  2  3  1  0
  3  4  1  0
  4  5  2  0
  4  6  1  0
  6  7  2  0
  7  8  1  0
  8  9  2  0
  9 10  1  0
 10 11  1  0
 11 12  2  0
 11 13  1  0
 13 14  1  0
 14 15  1  0
 15 16  2  0
 16 17  1  0
 17 18  1  0
 18 19  2  0
 19 20  1  0
 20 21  2  0
 21 22  1  0
 22 23  1  0
 23 24  1  0
 24 25  1  0
 25 26  1  0
 26 27  1  0
 21 28  1  0
 28 29  2  0
 17 30  2  0
 30 31  1  0
 31 32  1  0
 32 33  2  0
 33 34  1  0
 34 35  2  0
 35 36  1  0
 36 37  1  0
 37 38  1  0
 38 39  1  0
 39 40  1  0
 40 41  1  0
 35 42  1  0
 42 43  2  0
 31 44  2  0
 44 45  1  0
 45 46  3  0
  9 47  1  0
 47 48  2  0
 48  6  1  0
 44 15  1  0
 29 18  1  0
 43 32  1  0
 27 22  1  0
 41 36  1  0
M  END
>  <Binding energies>  (8) 
[-2.06]

>  <Ligand effiencies>  (8) 
[-0.04204081632653062]

>  <Interactions>  (8) 
["V-A:GLU:543:CG:4907, V-B:TYR:539:CE1:9847, V-A:GLU:543:CD:4908, H-B:TYR:539:OH:9850, V-A:ASP:366:CB:3212, V-B:GLU:543:CD:9880, V-B:TYR:539:CZ:9849, V-B:TYR:484:CZ:9319, V-A:GLU:543:CB:4906, V-B:TYR:539:CD2:9846, H-B:TYR:484:OH:9320, V-B:HIS:456:CE1:9042, V-B:TYR:539:CE2:9848, V-B:PRO:540:CA:9855, V-B:ASP:366:CG:8185, V-A:ASP:366:CG:3213, V-B:TYR:539:C:9839, V-A:HIS:456:CE1:4070, V-B:TYR:539:CG:9844, V-B:PRO:540:N:9856, H-B:TYR:539:N:9842, V-A:ALA:541:CB:4892, H-A:GLU:543:OE1:4909, V-B:PRO:540:CB:9857, V-A:GLY:544:CA:4914, V-A:HIS:456:CD2:4068, V-B:HIS:456:CD2:9040, V-A:GLY:544:C:4912, V-A:GLU:543:C:4902, V-B:TYR:539:CD1:9845, V-B:PRO:540:CD:9859, V-B:TYR:484:CE2:9318, V-A:GLU:543:CA:4904, V-B:PRO:540:CG:9858"]

$$$$
2aa_Ghoteimi_2023
     RDKit          3D

 48 53  0  0  0  0  0  0  0  0999 V2000
  132.3040  129.2370   57.2040 C   0  0  0  0  0  0  0  0  0  0  0  0
  133.1560  130.5080   57.2800 C   0  0  0  0  0  0  0  0  0  0  0  0
  133.8940  130.5090   58.4950 O   0  0  0  0  0  0  0  0  0  0  0  0
  133.6990  131.4700   59.4350 C   0  0  0  0  0  0  0  0  0  0  0  0
  134.5920  132.2290   59.8260 O   0  0  0  0  0  0  0  0  0  0  0  0
  132.2860  131.5270   59.9400 C   0  0  0  0  0  0  0  0  0  0  0  0
  131.1890  131.5840   59.0670 C   0  0  0  0  0  0  0  0  0  0  0  0
  129.8910  131.6320   59.5660 C   0  0  0  0  0  0  0  0  0  0  0  0
  129.6620  131.6340   60.9430 C   0  0  0  0  0  0  0  0  0  0  0  0
  128.3110  131.6820   61.3380 N   0  0  0  0  0  0  0  0  0  0  0  0
  127.4510  132.7230   61.3540 C   0  0  0  0  0  0  0  0  0  0  0  0
  127.7150  133.8660   60.9760 O   0  0  0  0  0  0  0  0  0  0  0  0
  126.0470  132.3840   61.8710 C   0  0  0  0  0  0  0  0  0  0  0  0
  126.1400  131.8330   63.1890 O   0  0  0  0  0  0  0  0  0  0  0  0
  126.4910  130.5010   63.3640 C   0  0  0  0  0  0  0  0  0  0  0  0
  126.9410  130.1130   64.5910 N   0  0  0  0  0  0  0  0  0  0  0  0
  127.2890  128.8190   64.7970 C   0  0  0  0  0  0  0  0  0  0  0  0
  127.7790  128.4680   66.1660 C   0  0  0  0  0  0  0  0  0  0  0  0
  127.0020  127.6830   67.0240 C   0  0  0  0  0  0  0  0  0  0  0  0
  127.4560  127.3480   68.2970 C   0  0  0  0  0  0  0  0  0  0  0  0
  128.7130  127.7740   68.7550 C   0  0  0  0  0  0  0  0  0  0  0  0
  129.1790  127.4570   70.0360 N   0  0  0  0  0  0  0  0  0  0  0  0
  130.2340  128.2570   70.6910 C   0  0  0  0  0  0  0  0  0  0  0  0
  130.8650  127.5680   71.9190 C   0  0  0  0  0  0  0  0  0  0  0  0
  129.8550  127.2060   72.8460 O   0  0  0  0  0  0  0  0  0  0  0  0
  128.9240  126.3010   72.2720 C   0  0  0  0  0  0  0  0  0  0  0  0
  128.2350  126.9530   71.0540 C   0  0  0  0  0  0  0  0  0  0  0  0
  129.4790  128.5780   67.8990 C   0  0  0  0  0  0  0  0  0  0  0  0
  129.0230  128.9160   66.6280 C   0  0  0  0  0  0  0  0  0  0  0  0
  127.2090  127.8760   63.7680 C   0  0  0  0  0  0  0  0  0  0  0  0
  126.7600  128.2500   62.4950 C   0  0  0  0  0  0  0  0  0  0  0  0
  126.7200  127.2040   61.4280 C   0  0  0  0  0  0  0  0  0  0  0  0
  127.3480  125.9720   61.6250 C   0  0  0  0  0  0  0  0  0  0  0  0
  127.3330  125.0000   60.6280 C   0  0  0  0  0  0  0  0  0  0  0  0
  126.6990  125.2390   59.3980 C   0  0  0  0  0  0  0  0  0  0  0  0
  126.6680  124.2780   58.3840 N   0  0  0  0  0  0  0  0  0  0  0  0
  125.5530  123.3170   58.2700 C   0  0  0  0  0  0  0  0  0  0  0  0
  125.5100  122.5850   56.9120 C   0  0  0  0  0  0  0  0  0  0  0  0
  126.7540  121.9480   56.6650 O   0  0  0  0  0  0  0  0  0  0  0  0
  127.8210  122.8830   56.6260 C   0  0  0  0  0  0  0  0  0  0  0  0
  127.9260  123.6220   57.9760 C   0  0  0  0  0  0  0  0  0  0  0  0
  126.0660  126.4760   59.2130 C   0  0  0  0  0  0  0  0  0  0  0  0
  126.0810  127.4470   60.2090 C   0  0  0  0  0  0  0  0  0  0  0  0
  126.3770  129.5970   62.2930 C   0  0  0  0  0  0  0  0  0  0  0  0
  125.8490  130.0670   61.0110 C   0  0  0  0  0  0  0  0  0  0  0  0
  125.4310  130.4380   59.9970 N   0  0  0  0  0  0  0  0  0  0  0  0
  130.7530  131.5710   61.8220 C   0  0  0  0  0  0  0  0  0  0  0  0
  132.0510  131.5190   61.3200 C   0  0  0  0  0  0  0  0  0  0  0  0
  1  2  1  0
  2  3  1  0
  3  4  1  0
  4  5  2  0
  4  6  1  0
  6  7  2  0
  7  8  1  0
  8  9  2  0
  9 10  1  0
 10 11  1  0
 11 12  2  0
 11 13  1  0
 13 14  1  0
 14 15  1  0
 15 16  2  0
 16 17  1  0
 17 18  1  0
 18 19  2  0
 19 20  1  0
 20 21  2  0
 21 22  1  0
 22 23  1  0
 23 24  1  0
 24 25  1  0
 25 26  1  0
 26 27  1  0
 21 28  1  0
 28 29  2  0
 17 30  2  0
 30 31  1  0
 31 32  1  0
 32 33  2  0
 33 34  1  0
 34 35  2  0
 35 36  1  0
 36 37  1  0
 37 38  1  0
 38 39  1  0
 39 40  1  0
 40 41  1  0
 35 42  1  0
 42 43  2  0
 31 44  2  0
 44 45  1  0
 45 46  3  0
  9 47  1  0
 47 48  2  0
 48  6  1  0
 44 15  1  0
 29 18  1  0
 43 32  1  0
 27 22  1  0
 41 36  1  0
M  END
>  <Binding energies>  (9) 
[-4.99]

>  <Ligand effiencies>  (9) 
[-0.10183673469387755]

>  <Interactions>  (9) 
["V-A:GLU:543:CG:4907, V-B:TYR:539:CE1:9847, V-A:GLU:543:CD:4908, V-A:ASP:366:CB:3212, H-A:LEU:363:N:3186, V-B:GLU:543:CD:9880, V-B:TYR:539:CZ:9849, V-A:GLU:543:CB:4906, V-A:PRO:540:CA:4883, V-A:PRO:540:CB:4885, V-B:TYR:539:CD2:9846, H-B:TYR:484:OH:9320, V-B:HIS:456:CE1:9042, V-B:TYR:539:CE2:9848, V-B:PRO:540:CA:9855, V-A:ASN:362:C:3172, V-B:ASP:366:CB:8184, V-A:LEU:363:CD1:3189, V-B:ASP:366:CG:8185, V-A:LEU:363:CA:3185, V-A:ASP:366:CG:3213, V-A:HIS:456:CE1:4070, V-B:TYR:539:CG:9844, V-A:ALA:541:CA:4890, V-A:PRO:540:C:4881, V-B:PRO:540:N:9856, H-B:TYR:539:N:9842, V-A:ALA:541:CB:4892, V-B:PRO:540:CB:9857, V-B:GLU:543:CB:9878, V-A:GLY:544:CA:4914, V-A:HIS:456:CD2:4068, H-B:LYS:547:NZ:9923, V-B:HIS:456:CD2:9040, V-A:GLY:544:C:4912, V-A:GLU:543:C:4902, V-B:LEU:475:CD2:9231, V-B:TYR:539:CD1:9845, V-B:PRO:540:CD:9859, V-A:HIS:456:CG:4066, V-A:GLU:543:CA:4904"]

$$$$
2b_Ghoteimi_2023
     RDKit          3D

 42 47  0  0  0  0  0  0  0  0999 V2000
  126.6540  130.9180   59.2650 N   0  0  0  0  0  0  0  0  0  0  0  0
  126.9370  130.5960   60.3410 C   0  0  0  0  0  0  0  0  0  0  0  0
  127.2960  130.1830   61.7000 C   0  0  0  0  0  0  0  0  0  0  0  0
  127.4610  128.8110   62.0160 C   0  0  0  0  0  0  0  0  0  0  0  0
  127.2910  127.7050   61.0270 C   0  0  0  0  0  0  0  0  0  0  0  0
  128.1230  126.5850   61.0750 C   0  0  0  0  0  0  0  0  0  0  0  0
  127.9700  125.5510   60.1550 C   0  0  0  0  0  0  0  0  0  0  0  0
  126.9920  125.6190   59.1500 C   0  0  0  0  0  0  0  0  0  0  0  0
  126.8100  124.5900   58.2240 N   0  0  0  0  0  0  0  0  0  0  0  0
  127.8660  123.5690   58.0680 C   0  0  0  0  0  0  0  0  0  0  0  0
  127.7220  122.7320   56.7800 C   0  0  0  0  0  0  0  0  0  0  0  0
  126.4300  122.1460   56.7190 O   0  0  0  0  0  0  0  0  0  0  0  0
  125.4070  123.1290   56.7220 C   0  0  0  0  0  0  0  0  0  0  0  0
  125.4880  123.9680   58.0140 C   0  0  0  0  0  0  0  0  0  0  0  0
  126.1640  126.7490   59.1090 C   0  0  0  0  0  0  0  0  0  0  0  0
  126.3140  127.7810   60.0310 C   0  0  0  0  0  0  0  0  0  0  0  0
  127.8090  128.4650   63.3280 C   0  0  0  0  0  0  0  0  0  0  0  0
  128.0180  129.4580   64.2890 C   0  0  0  0  0  0  0  0  0  0  0  0
  128.4200  129.1440   65.6950 C   0  0  0  0  0  0  0  0  0  0  0  0
  128.3540  130.1230   66.6930 C   0  0  0  0  0  0  0  0  0  0  0  0
  128.7110  129.8330   68.0070 C   0  0  0  0  0  0  0  0  0  0  0  0
  129.1610  128.5540   68.3710 C   0  0  0  0  0  0  0  0  0  0  0  0
  129.4950  128.2390   69.6930 N   0  0  0  0  0  0  0  0  0  0  0  0
  128.8660  127.0770   70.3540 C   0  0  0  0  0  0  0  0  0  0  0  0
  129.0200  127.0820   71.8900 C   0  0  0  0  0  0  0  0  0  0  0  0
  130.3910  127.1870   72.2410 O   0  0  0  0  0  0  0  0  0  0  0  0
  130.9640  128.3870   71.7470 C   0  0  0  0  0  0  0  0  0  0  0  0
  130.8660  128.4240   70.2070 C   0  0  0  0  0  0  0  0  0  0  0  0
  129.2200  127.5740   67.3700 C   0  0  0  0  0  0  0  0  0  0  0  0
  128.8600  127.8640   66.0570 C   0  0  0  0  0  0  0  0  0  0  0  0
  127.8610  130.7720   63.9840 N   0  0  0  0  0  0  0  0  0  0  0  0
  127.4930  131.1290   62.7320 C   0  0  0  0  0  0  0  0  0  0  0  0
  127.3290  132.8870   62.5110 S   0  0  0  0  0  0  0  0  0  0  0  0
  128.0400  133.3060   60.8910 C   0  0  0  0  0  0  0  0  0  0  0  0
  129.3690  132.5900   60.6440 C   0  0  0  0  0  0  0  0  0  0  0  0
  130.0900  132.3080   61.6030 O   0  0  0  0  0  0  0  0  0  0  0  0
  129.6530  132.3220   59.3510 N   0  0  0  0  0  0  0  0  0  0  0  0
  130.7770  131.6770   58.8530 C   0  0  0  0  0  0  0  0  0  0  0  0
  130.9660  131.4210   57.4950 C   0  0  0  0  0  0  0  0  0  0  0  0
  132.1800  130.7780   57.4190 C   0  0  0  0  0  0  0  0  0  0  0  0
  132.6950  130.6550   58.6650 O   0  0  0  0  0  0  0  0  0  0  0  0
  131.7960  131.2310   59.5660 N   0  0  0  0  0  0  0  0  0  0  0  0
  1  2  3  0
  2  3  1  0
  3  4  2  0
  4  5  1  0
  5  6  2  0
  6  7  1  0
  7  8  2  0
  8  9  1  0
  9 10  1  0
 10 11  1  0
 11 12  1  0
 12 13  1  0
 13 14  1  0
  8 15  1  0
 15 16  2  0
  4 17  1  0
 17 18  2  0
 18 19  1  0
 19 20  2  0
 20 21  1  0
 21 22  2  0
 22 23  1  0
 23 24  1  0
 24 25  1  0
 25 26  1  0
 26 27  1  0
 27 28  1  0
 22 29  1  0
 29 30  2  0
 18 31  1  0
 31 32  2  0
 32 33  1  0
 33 34  1  0
 34 35  1  0
 35 36  2  0
 35 37  1  0
 37 38  1  0
 38 39  1  0
 39 40  2  0
 40 41  1  0
 41 42  1  0
 32  3  1  0
 42 38  2  0
 16  5  1  0
 30 19  1  0
 14  9  1  0
 28 23  1  0
M  END
>  <Binding energies>  (10) 
[-6.18]

>  <Ligand effiencies>  (10) 
[-0.14372093023255814]

>  <Interactions>  (10) 
["V-A:GLU:543:CG:4907, V-B:TYR:539:CE1:9847, V-A:GLU:543:CD:4908, H-A:ALA:541:N:4891, V-B:GLU:543:CD:9880, V-B:TYR:539:CZ:9849, V-B:TYR:484:CZ:9319, V-A:GLU:543:CB:4906, V-A:PRO:540:CA:4883, V-A:PRO:540:CB:4885, V-B:TYR:539:CD2:9846, H-B:TYR:484:OH:9320, V-B:HIS:456:CE1:9042, V-B:TYR:539:CE2:9848, V-B:ASP:366:CB:8184, V-B:ASP:366:CG:8185, V-A:PRO:540:N:4884, V-B:TYR:539:C:9839, V-A:HIS:456:CE1:4070, V-A:TYR:539:C:4867, V-B:TYR:539:CG:9844, V-A:PRO:540:C:4881, H-B:TYR:539:N:9842, V-A:ALA:541:CB:4892, V-B:PRO:540:CB:9857, H-A:TYR:539:O:4868, V-A:GLY:544:CA:4914, V-A:HIS:456:CD2:4068, V-B:HIS:456:CD2:9040, V-A:GLY:544:C:4912, V-A:GLU:543:C:4902, V-B:TYR:539:CD1:9845, V-B:TYR:484:CE2:9318, V-A:GLU:543:CA:4904"]

$$$$
2c_Ghoteimi_2023
     RDKit          3D

 42 47  0  0  0  0  0  0  0  0999 V2000
  126.9890  130.8460   59.1830 N   0  0  0  0  0  0  0  0  0  0  0  0
  127.2400  130.5150   60.2630 C   0  0  0  0  0  0  0  0  0  0  0  0
  127.5600  130.0900   61.6290 C   0  0  0  0  0  0  0  0  0  0  0  0
  127.6550  128.7140   61.9530 C   0  0  0  0  0  0  0  0  0  0  0  0
  127.4440  127.6110   60.9680 C   0  0  0  0  0  0  0  0  0  0  0  0
  128.0040  127.6920   59.6920 C   0  0  0  0  0  0  0  0  0  0  0  0
  127.8150  126.6660   58.7700 C   0  0  0  0  0  0  0  0  0  0  0  0
  127.0480  125.5360   59.0930 C   0  0  0  0  0  0  0  0  0  0  0  0
  126.8620  124.4860   58.1910 N   0  0  0  0  0  0  0  0  0  0  0  0
  127.8830  123.4240   58.0980 C   0  0  0  0  0  0  0  0  0  0  0  0
  127.7540  122.5630   56.8240 C   0  0  0  0  0  0  0  0  0  0  0  0
  126.4460  122.0170   56.7370 O   0  0  0  0  0  0  0  0  0  0  0  0
  125.4560  123.0330   56.6810 C   0  0  0  0  0  0  0  0  0  0  0  0
  125.5260  123.9070   57.9500 C   0  0  0  0  0  0  0  0  0  0  0  0
  126.4860  125.4660   60.3760 C   0  0  0  0  0  0  0  0  0  0  0  0
  126.6770  126.4910   61.2980 C   0  0  0  0  0  0  0  0  0  0  0  0
  127.9670  128.3590   63.2720 C   0  0  0  0  0  0  0  0  0  0  0  0
  128.2030  129.3460   64.2340 C   0  0  0  0  0  0  0  0  0  0  0  0
  128.5550  129.0200   65.6500 C   0  0  0  0  0  0  0  0  0  0  0  0
  128.3490  129.9530   66.6700 C   0  0  0  0  0  0  0  0  0  0  0  0
  128.6700  129.6530   67.9920 C   0  0  0  0  0  0  0  0  0  0  0  0
  129.2210  128.4100   68.3400 C   0  0  0  0  0  0  0  0  0  0  0  0
  129.5250  128.0830   69.6660 N   0  0  0  0  0  0  0  0  0  0  0  0
  128.8070  126.9790   70.3350 C   0  0  0  0  0  0  0  0  0  0  0  0
  128.9590  126.9820   71.8710 C   0  0  0  0  0  0  0  0  0  0  0  0
  130.3320  126.9770   72.2230 O   0  0  0  0  0  0  0  0  0  0  0  0
  131.0020  128.1230   71.7210 C   0  0  0  0  0  0  0  0  0  0  0  0
  130.9080  128.1580   70.1810 C   0  0  0  0  0  0  0  0  0  0  0  0
  129.4130  127.4720   67.3150 C   0  0  0  0  0  0  0  0  0  0  0  0
  129.0910  127.7730   65.9940 C   0  0  0  0  0  0  0  0  0  0  0  0
  128.1130  130.6640   63.9210 N   0  0  0  0  0  0  0  0  0  0  0  0
  127.7820  131.0320   62.6600 C   0  0  0  0  0  0  0  0  0  0  0  0
  127.6990  132.7940   62.4300 S   0  0  0  0  0  0  0  0  0  0  0  0
  128.4840  133.1740   60.8350 C   0  0  0  0  0  0  0  0  0  0  0  0
  129.6960  132.2820   60.5650 C   0  0  0  0  0  0  0  0  0  0  0  0
  130.4400  131.9740   61.4970 O   0  0  0  0  0  0  0  0  0  0  0  0
  129.8600  131.8950   59.2810 N   0  0  0  0  0  0  0  0  0  0  0  0
  130.8640  131.0770   58.7830 C   0  0  0  0  0  0  0  0  0  0  0  0
  132.1300  131.3760   58.5940 N   0  0  0  0  0  0  0  0  0  0  0  0
  132.8030  130.3520   58.1090 C   0  0  0  0  0  0  0  0  0  0  0  0
  132.0770  129.1850   57.8940 C   0  0  0  0  0  0  0  0  0  0  0  0
  130.4230  129.4550   58.3560 S   0  0  0  0  0  0  0  0  0  0  0  0
  1  2  3  0
  2  3  1  0
  3  4  2  0
  4  5  1  0
  5  6  2  0
  6  7  1  0
  7  8  2  0
  8  9  1  0
  9 10  1  0
 10 11  1  0
 11 12  1  0
 12 13  1  0
 13 14  1  0
  8 15  1  0
 15 16  2  0
  4 17  1  0
 17 18  2  0
 18 19  1  0
 19 20  2  0
 20 21  1  0
 21 22  2  0
 22 23  1  0
 23 24  1  0
 24 25  1  0
 25 26  1  0
 26 27  1  0
 27 28  1  0
 22 29  1  0
 29 30  2  0
 18 31  1  0
 31 32  2  0
 32 33  1  0
 33 34  1  0
 34 35  1  0
 35 36  2  0
 35 37  1  0
 37 38  1  0
 38 39  2  0
 39 40  1  0
 40 41  2  0
 41 42  1  0
 32  3  1  0
 42 38  1  0
 16  5  1  0
 30 19  1  0
 14  9  1  0
 28 23  1  0
M  END
>  <Binding energies>  (11) 
[-6.56]

>  <Ligand effiencies>  (11) 
[-0.1525581395348837]

>  <Interactions>  (11) 
["V-A:GLU:543:CG:4907, V-B:TYR:539:CE1:9847, V-A:GLU:543:CD:4908, H-A:ALA:541:N:4891, V-A:ASP:366:CB:3212, V-B:GLU:543:CD:9880, V-B:TYR:539:CZ:9849, V-B:TYR:484:CZ:9319, V-A:GLU:543:CB:4906, V-A:PRO:540:CA:4883, V-A:PRO:540:CB:4885, V-B:TYR:539:CD2:9846, H-B:TYR:484:OH:9320, V-B:HIS:456:CE1:9042, V-B:TYR:539:CE2:9848, V-B:ASP:366:CG:8185, V-A:ASP:366:CG:3213, V-B:TYR:539:C:9839, V-A:HIS:456:CE1:4070, V-B:TYR:539:CG:9844, V-A:PRO:540:C:4881, V-B:PRO:540:N:9856, H-B:TYR:539:N:9842, V-A:ALA:541:CB:4892, V-B:PRO:540:CB:9857, H-A:TYR:539:O:4868, V-A:GLY:544:CA:4914, V-A:HIS:456:CD2:4068, V-B:HIS:456:CD2:9040, V-A:GLY:544:C:4912, V-A:GLU:543:C:4902, V-B:TYR:539:CD1:9845, V-B:PRO:540:CD:9859, V-B:TYR:539:CA:9841, V-B:TYR:484:CE2:9318, V-A:HIS:456:CG:4066, V-A:GLU:543:CA:4904"]

$$$$
2j_Grossjean_2025
     RDKit          3D

 23 24  0  0  0  0  0  0  0  0999 V2000
  133.3180  125.1770   65.2260 C   0  0  0  0  0  0  0  0  0  0  0  0
  132.7390  125.0980   63.8260 C   0  0  0  0  0  0  0  0  0  0  0  0
  131.7390  125.9690   63.4000 C   0  0  0  0  0  0  0  0  0  0  0  0
  131.2370  125.8600   62.0950 C   0  0  0  0  0  0  0  0  0  0  0  0
  130.1320  126.8320   61.6400 C   0  0  0  0  0  0  0  0  0  0  0  0
  129.2460  126.1910   60.8780 F   0  0  0  0  0  0  0  0  0  0  0  0
  129.5030  127.3380   62.7020 F   0  0  0  0  0  0  0  0  0  0  0  0
  130.6070  127.8570   60.9290 F   0  0  0  0  0  0  0  0  0  0  0  0
  131.7700  124.8560   61.2470 C   0  0  0  0  0  0  0  0  0  0  0  0
  131.2830  124.6950   59.8740 C   0  0  0  0  0  0  0  0  0  0  0  0
  130.8990  124.5700   58.7890 N   0  0  0  0  0  0  0  0  0  0  0  0
  132.7840  124.0130   61.7630 C   0  0  0  0  0  0  0  0  0  0  0  0
  133.5290  122.7160   60.7850 S   0  0  0  0  0  0  0  0  0  0  0  0
  132.3590  121.3170   60.6990 C   0  0  0  0  0  0  0  0  0  0  0  0
  130.9610  121.6090   61.2640 C   0  0  0  0  0  0  0  0  0  0  0  0
  130.6540  121.2480   62.4020 O   0  0  0  0  0  0  0  0  0  0  0  0
  130.1340  122.2620   60.4180 N   0  0  0  0  0  0  0  0  0  0  0  0
  128.8250  122.6490   60.6720 C   0  0  0  0  0  0  0  0  0  0  0  0
  128.2520  122.8420   61.8400 N   0  0  0  0  0  0  0  0  0  0  0  0
  126.9920  123.2090   61.7090 C   0  0  0  0  0  0  0  0  0  0  0  0
  126.5160  123.3210   60.4060 C   0  0  0  0  0  0  0  0  0  0  0  0
  127.7980  122.9220   59.3010 S   0  0  0  0  0  0  0  0  0  0  0  0
  133.2570  124.1370   63.0290 N   0  0  0  0  0  0  0  0  0  0  0  0
  1  2  1  0
  2  3  2  0
  3  4  1  0
  4  5  1  0
  5  6  1  0
  5  7  1  0
  5  8  1  0
  4  9  2  0
  9 10  1  0
 10 11  3  0
  9 12  1  0
 12 13  1  0
 13 14  1  0
 14 15  1  0
 15 16  2  0
 15 17  1  0
 17 18  1  0
 18 19  2  0
 19 20  1  0
 20 21  2  0
 21 22  1  0
 12 23  2  0
 23  2  1  0
 22 18  1  0
M  END
>  <Binding energies>  (12) 
[-5.42]

>  <Ligand effiencies>  (12) 
[-0.22583333333333333]

>  <Interactions>  (12) 
["V-A:LEU:475:CD2:4259, V-A:GLU:543:CD:4908, V-B:GLU:543:CD:9880, V-B:TYR:539:CD2:9846, H-A:TYR:484:OH:4348, V-B:TYR:539:CE2:9848, V-A:TYR:484:CZ:4347, V-B:PRO:540:CA:9855, V-A:ARG:545:CZ:4926, V-B:TYR:539:C:9839, V-A:TYR:484:CE2:4346, H-A:GLY:454:N:4050, V-A:ARG:545:CD:4923, V-B:PRO:540:N:9856, V-B:PRO:540:CB:9857"]

$$$$
3ab_Grossjean_2025
     RDKit          3D

 33 35  0  0  0  0  0  0  0  0999 V2000
  131.7800  121.7150   61.6000 C   0  0  0  0  0  0  0  0  0  0  0  0
  130.6570  121.3200   62.3760 O   0  0  0  0  0  0  0  0  0  0  0  0
  129.4910  120.9590   61.7830 C   0  0  0  0  0  0  0  0  0  0  0  0
  129.1270  119.7870   61.6530 O   0  0  0  0  0  0  0  0  0  0  0  0
  128.6820  122.1300   61.3030 C   0  0  0  0  0  0  0  0  0  0  0  0
  127.6370  122.6740   62.0650 C   0  0  0  0  0  0  0  0  0  0  0  0
  126.9050  123.7610   61.5960 C   0  0  0  0  0  0  0  0  0  0  0  0
  127.2070  124.3260   60.3470 C   0  0  0  0  0  0  0  0  0  0  0  0
  126.5390  125.4270   59.7780 N   0  0  0  0  0  0  0  0  0  0  0  0
  126.6820  125.9920   58.5600 C   0  0  0  0  0  0  0  0  0  0  0  0
  127.4760  125.6290   57.6920 O   0  0  0  0  0  0  0  0  0  0  0  0
  125.7620  127.1810   58.2770 C   0  0  0  0  0  0  0  0  0  0  0  0
  126.6600  128.5830   57.5470 S   0  0  0  0  0  0  0  0  0  0  0  0
  128.0870  128.8920   58.5660 C   0  0  0  0  0  0  0  0  0  0  0  0
  128.9240  127.8320   58.6620 N   0  0  0  0  0  0  0  0  0  0  0  0
  130.0570  127.9300   59.4040 C   0  0  0  0  0  0  0  0  0  0  0  0
  130.9320  126.7120   59.4560 C   0  0  0  0  0  0  0  0  0  0  0  0
  131.4000  126.1130   58.2760 C   0  0  0  0  0  0  0  0  0  0  0  0
  132.2130  124.9830   58.3190 C   0  0  0  0  0  0  0  0  0  0  0  0
  132.5680  124.4340   59.5470 C   0  0  0  0  0  0  0  0  0  0  0  0
  132.1140  125.0060   60.7310 C   0  0  0  0  0  0  0  0  0  0  0  0
  131.3020  126.1350   60.6830 C   0  0  0  0  0  0  0  0  0  0  0  0
  130.3630  129.1090   60.0920 C   0  0  0  0  0  0  0  0  0  0  0  0
  129.5020  130.2140   60.0240 C   0  0  0  0  0  0  0  0  0  0  0  0
  129.8730  131.4930   60.8010 C   0  0  0  0  0  0  0  0  0  0  0  0
  131.1120  131.4570   61.2950 F   0  0  0  0  0  0  0  0  0  0  0  0
  129.7930  132.5570   60.0010 F   0  0  0  0  0  0  0  0  0  0  0  0
  129.0360  131.6600   61.8270 F   0  0  0  0  0  0  0  0  0  0  0  0
  128.3230  130.1080   59.2460 C   0  0  0  0  0  0  0  0  0  0  0  0
  127.3620  131.2120   59.1870 C   0  0  0  0  0  0  0  0  0  0  0  0
  126.6040  132.0860   59.1430 N   0  0  0  0  0  0  0  0  0  0  0  0
  128.2500  123.7920   59.5900 C   0  0  0  0  0  0  0  0  0  0  0  0
  128.9800  122.7040   60.0610 C   0  0  0  0  0  0  0  0  0  0  0  0
  1  2  1  0
  2  3  1  0
  3  4  2  0
  3  5  1  0
  5  6  2  0
  6  7  1  0
  7  8  2  0
  8  9  1  0
  9 10  1  0
 10 11  2  0
 10 12  1  0
 12 13  1  0
 13 14  1  0
 14 15  2  0
 15 16  1  0
 16 17  1  0
 17 18  2  0
 18 19  1  0
 19 20  2  0
 20 21  1  0
 21 22  2  0
 16 23  2  0
 23 24  1  0
 24 25  1  0
 25 26  1  0
 25 27  1  0
 25 28  1  0
 24 29  2  0
 29 30  1  0
 30 31  3  0
  8 32  1  0
 32 33  2  0
 33  5  1  0
 29 14  1  0
 22 17  1  0
M  END
>  <Binding energies>  (13) 
[-5.37]

>  <Ligand effiencies>  (13) 
[-0.15794117647058825]

>  <Interactions>  (13) 
["H-B:TYR:531:OH:9767, V-A:LEU:475:CD2:4259, V-A:ASP:366:CB:3212, V-B:GLU:543:CD:9880, V-B:TYR:539:CZ:9849, V-A:PRO:540:CA:4883, V-B:TYR:539:CD2:9846, H-A:TYR:484:OH:4348, V-B:TYR:539:CE2:9848, V-B:PRO:540:CA:9855, V-B:GLU:543:CG:9879, V-B:ASP:366:CB:8184, V-B:ASP:366:CG:8185, V-B:ALA:541:CB:9864, H-B:ALA:541:N:9863, V-A:ASP:366:CG:3213, V-A:PRO:540:N:4884, V-A:TYR:539:C:4867, V-B:PRO:540:C:9853, V-A:PRO:540:C:4881, V-A:ALA:541:CB:4892, H-B:ASP:366:OD2:8187"]

$$$$
3ac_Grossjean_2025
     RDKit          3D

 31 33  0  0  0  0  0  0  0  0999 V2000
  131.0750  127.4060   72.8980 C   0  0  0  0  0  0  0  0  0  0  0  0
  129.7110  127.2890   72.5060 O   0  0  0  0  0  0  0  0  0  0  0  0
  129.3870  127.3400   71.1640 C   0  0  0  0  0  0  0  0  0  0  0  0
  130.1670  128.1780   70.3670 C   0  0  0  0  0  0  0  0  0  0  0  0
  129.9180  128.2910   69.0030 C   0  0  0  0  0  0  0  0  0  0  0  0
  128.8760  127.5720   68.4150 C   0  0  0  0  0  0  0  0  0  0  0  0
  128.7160  127.7350   67.0260 N   0  0  0  0  0  0  0  0  0  0  0  0
  128.1090  128.7360   66.3520 C   0  0  0  0  0  0  0  0  0  0  0  0
  127.6100  129.7390   66.8630 O   0  0  0  0  0  0  0  0  0  0  0  0
  128.0640  128.5730   64.8320 C   0  0  0  0  0  0  0  0  0  0  0  0
  126.3600  128.4850   64.2000 S   0  0  0  0  0  0  0  0  0  0  0  0
  126.4060  128.5550   62.4190 C   0  0  0  0  0  0  0  0  0  0  0  0
  126.4580  127.3330   61.8390 N   0  0  0  0  0  0  0  0  0  0  0  0
  126.4920  127.2270   60.4850 C   0  0  0  0  0  0  0  0  0  0  0  0
  126.5550  125.8380   59.9230 C   0  0  0  0  0  0  0  0  0  0  0  0
  126.6660  124.7240   60.7710 C   0  0  0  0  0  0  0  0  0  0  0  0
  126.7200  123.4320   60.2550 C   0  0  0  0  0  0  0  0  0  0  0  0
  126.6660  123.2360   58.8790 C   0  0  0  0  0  0  0  0  0  0  0  0
  126.5630  124.3210   58.0170 C   0  0  0  0  0  0  0  0  0  0  0  0
  126.5090  125.6120   58.5370 C   0  0  0  0  0  0  0  0  0  0  0  0
  126.4910  128.3690   59.6780 C   0  0  0  0  0  0  0  0  0  0  0  0
  126.4610  129.6470   60.2540 C   0  0  0  0  0  0  0  0  0  0  0  0
  126.4680  130.8780   59.3270 C   0  0  0  0  0  0  0  0  0  0  0  0
  127.5300  131.6640   59.5170 F   0  0  0  0  0  0  0  0  0  0  0  0
  126.4820  130.4940   58.0490 F   0  0  0  0  0  0  0  0  0  0  0  0
  125.3770  131.6140   59.5440 F   0  0  0  0  0  0  0  0  0  0  0  0
  126.4320  129.7530   61.6670 C   0  0  0  0  0  0  0  0  0  0  0  0
  126.4770  131.0640   62.3160 C   0  0  0  0  0  0  0  0  0  0  0  0
  126.5140  132.1020   62.8280 N   0  0  0  0  0  0  0  0  0  0  0  0
  128.0920  126.7200   69.2080 C   0  0  0  0  0  0  0  0  0  0  0  0
  128.3440  126.6090   70.5730 C   0  0  0  0  0  0  0  0  0  0  0  0
  1  2  1  0
  2  3  1  0
  3  4  2  0
  4  5  1  0
  5  6  2  0
  6  7  1  0
  7  8  1  0
  8  9  2  0
  8 10  1  0
 10 11  1  0
 11 12  1  0
 12 13  2  0
 13 14  1  0
 14 15  1  0
 15 16  2  0
 16 17  1  0
 17 18  2  0
 18 19  1  0
 19 20  2  0
 14 21  2  0
 21 22  1  0
 22 23  1  0
 23 24  1  0
 23 25  1  0
 23 26  1  0
 22 27  2  0
 27 28  1  0
 28 29  3  0
  6 30  1  0
 30 31  2  0
 31  3  1  0
 27 12  1  0
 20 15  1  0
M  END
>  <Binding energies>  (14) 
[-6.0]

>  <Ligand effiencies>  (14) 
[-0.1875]

>  <Interactions>  (14) 
["V-A:GLU:543:CG:4907, V-A:GLU:543:CD:4908, V-B:GLU:543:CD:9880, V-A:GLU:543:CB:4906, H-B:TYR:484:OH:9320, V-B:HIS:456:CE1:9042, V-B:PRO:540:CA:9855, H-A:GLU:543:OE2:4910, V-B:ASP:366:CG:8185, V-A:HIS:456:CE1:4070, V-B:PRO:540:N:9856, V-A:TYR:539:CE1:4875, H-B:GLU:543:OE2:9882, V-B:PRO:540:CB:9857, H-B:ARG:545:NH2:9900, V-B:GLU:543:CB:9878, V-A:HIS:456:CD2:4068, H-B:LYS:547:NZ:9923, V-B:HIS:456:CD2:9040, V-A:GLY:544:C:4912, V-A:GLU:543:C:4902, V-A:HIS:456:CG:4066"]

$$$$
3af_Grossjean_2025
     RDKit          3D

 29 31  0  0  0  0  0  0  0  0999 V2000
  127.3000  132.8100   63.4360 N   0  0  0  0  0  0  0  0  0  0  0  0
  127.2150  131.8030   62.8720 C   0  0  0  0  0  0  0  0  0  0  0  0
  127.1080  130.5290   62.1560 C   0  0  0  0  0  0  0  0  0  0  0  0
  127.2190  130.4820   60.7450 C   0  0  0  0  0  0  0  0  0  0  0  0
  127.5050  131.7320   59.8900 C   0  0  0  0  0  0  0  0  0  0  0  0
  126.5770  132.6810   60.0330 F   0  0  0  0  0  0  0  0  0  0  0  0
  128.6790  132.2620   60.2370 F   0  0  0  0  0  0  0  0  0  0  0  0
  127.5420  131.4050   58.5980 F   0  0  0  0  0  0  0  0  0  0  0  0
  127.0540  129.2460   60.1000 C   0  0  0  0  0  0  0  0  0  0  0  0
  126.7840  128.0920   60.8420 C   0  0  0  0  0  0  0  0  0  0  0  0
  126.5810  126.7510   60.2030 C   0  0  0  0  0  0  0  0  0  0  0  0
  126.3930  126.6380   58.8160 C   0  0  0  0  0  0  0  0  0  0  0  0
  126.2070  125.3950   58.2170 C   0  0  0  0  0  0  0  0  0  0  0  0
  126.2060  124.2450   58.9990 C   0  0  0  0  0  0  0  0  0  0  0  0
  126.3930  124.3290   60.3750 C   0  0  0  0  0  0  0  0  0  0  0  0
  126.5800  125.5740   60.9700 C   0  0  0  0  0  0  0  0  0  0  0  0
  126.6750  128.1430   62.1940 N   0  0  0  0  0  0  0  0  0  0  0  0
  126.8520  129.3200   62.8410 C   0  0  0  0  0  0  0  0  0  0  0  0
  126.6850  129.1850   64.6100 S   0  0  0  0  0  0  0  0  0  0  0  0
  128.2340  128.4980   65.2700 C   0  0  0  0  0  0  0  0  0  0  0  0
  128.3560  128.7170   66.7770 C   0  0  0  0  0  0  0  0  0  0  0  0
  128.1860  129.8470   67.2340 O   0  0  0  0  0  0  0  0  0  0  0  0
  128.6570  127.6150   67.4990 N   0  0  0  0  0  0  0  0  0  0  0  0
  128.8460  127.4760   68.8880 C   0  0  0  0  0  0  0  0  0  0  0  0
  129.8300  128.1280   69.6530 C   0  0  0  0  0  0  0  0  0  0  0  0
  129.9050  127.8940   71.0270 C   0  0  0  0  0  0  0  0  0  0  0  0
  128.9930  127.0110   71.6060 C   0  0  0  0  0  0  0  0  0  0  0  0
  128.0350  126.3700   70.8910 N   0  0  0  0  0  0  0  0  0  0  0  0
  127.9750  126.6080   69.5560 C   0  0  0  0  0  0  0  0  0  0  0  0
  1  2  3  0
  2  3  1  0
  3  4  2  0
  4  5  1  0
  5  6  1  0
  5  7  1  0
  5  8  1  0
  4  9  1  0
  9 10  2  0
 10 11  1  0
 11 12  2  0
 12 13  1  0
 13 14  2  0
 14 15  1  0
 15 16  2  0
 10 17  1  0
 17 18  2  0
 18 19  1  0
 19 20  1  0
 20 21  1  0
 21 22  2  0
 21 23  1  0
 23 24  1  0
 24 25  2  0
 25 26  1  0
 26 27  2  0
 27 28  1  0
 28 29  2  0
 18  3  1  0
 29 24  1  0
 16 11  1  0
M  END
>  <Binding energies>  (15) 
[-5.55]

>  <Ligand effiencies>  (15) 
[-0.185]

>  <Interactions>  (15) 
["V-A:GLU:543:CG:4907, V-A:GLU:543:CD:4908, V-B:GLU:543:CD:9880, V-A:GLU:543:CB:4906, H-B:TYR:484:OH:9320, V-B:HIS:456:CE1:9042, H-A:GLU:543:OE2:4910, V-B:ASP:366:CG:8185, V-A:HIS:456:CE1:4070, V-A:TYR:539:CD1:4873, V-A:TYR:539:CE1:4875, H-B:GLU:543:OE2:9882, H-B:ARG:545:NH2:9900, V-B:GLU:543:CB:9878, V-B:GLU:543:C:9874, V-A:HIS:456:CD2:4068, H-B:LYS:547:NZ:9923, V-B:HIS:456:CD2:9040, V-A:GLU:543:C:4902"]

$$$$
3ag_Grossjean_2025
     RDKit          3D

 30 32  0  0  0  0  0  0  0  0999 V2000
  128.3440  126.6330   62.3530 N   0  0  0  0  0  0  0  0  0  0  0  0
  128.7460  125.5680   62.1440 C   0  0  0  0  0  0  0  0  0  0  0  0
  129.2600  124.2210   61.8810 C   0  0  0  0  0  0  0  0  0  0  0  0
  130.6540  123.9740   61.8320 C   0  0  0  0  0  0  0  0  0  0  0  0
  131.7030  125.0700   62.1050 C   0  0  0  0  0  0  0  0  0  0  0  0
  131.6790  125.5050   63.3660 F   0  0  0  0  0  0  0  0  0  0  0  0
  132.9260  124.5960   61.8650 F   0  0  0  0  0  0  0  0  0  0  0  0
  131.4840  126.1230   61.3160 F   0  0  0  0  0  0  0  0  0  0  0  0
  131.0950  122.6780   61.5230 C   0  0  0  0  0  0  0  0  0  0  0  0
  130.1720  121.6610   61.2580 C   0  0  0  0  0  0  0  0  0  0  0  0
  130.5880  120.2620   60.9210 C   0  0  0  0  0  0  0  0  0  0  0  0
  129.8570  119.1620   61.3980 C   0  0  0  0  0  0  0  0  0  0  0  0
  130.2370  117.8590   61.0880 C   0  0  0  0  0  0  0  0  0  0  0  0
  131.3580  117.6370   60.2940 C   0  0  0  0  0  0  0  0  0  0  0  0
  132.1010  118.7100   59.8110 C   0  0  0  0  0  0  0  0  0  0  0  0
  131.7190  120.0100   60.1240 C   0  0  0  0  0  0  0  0  0  0  0  0
  128.8360  121.8980   61.3180 N   0  0  0  0  0  0  0  0  0  0  0  0
  128.3870  123.1370   61.6340 C   0  0  0  0  0  0  0  0  0  0  0  0
  126.6130  123.2630   61.6690 S   0  0  0  0  0  0  0  0  0  0  0  0
  126.0860  123.9490   60.0710 C   0  0  0  0  0  0  0  0  0  0  0  0
  127.0710  123.6200   58.9480 C   0  0  0  0  0  0  0  0  0  0  0  0
  127.4490  122.4590   58.7830 O   0  0  0  0  0  0  0  0  0  0  0  0
  127.4710  124.6500   58.1820 N   0  0  0  0  0  0  0  0  0  0  0  0
  128.3760  124.5560   57.0370 C   0  0  0  0  0  0  0  0  0  0  0  0
  129.8200  124.9300   57.3540 C   0  0  0  0  0  0  0  0  0  0  0  0
  130.4560  124.3670   58.4630 C   0  0  0  0  0  0  0  0  0  0  0  0
  131.7840  124.6830   58.7390 C   0  0  0  0  0  0  0  0  0  0  0  0
  132.4740  125.5540   57.8980 C   0  0  0  0  0  0  0  0  0  0  0  0
  131.8510  126.1070   56.7820 C   0  0  0  0  0  0  0  0  0  0  0  0
  130.5240  125.7910   56.5050 C   0  0  0  0  0  0  0  0  0  0  0  0
  1  2  3  0
  2  3  1  0
  3  4  2  0
  4  5  1  0
  5  6  1  0
  5  7  1  0
  5  8  1  0
  4  9  1  0
  9 10  2  0
 10 11  1  0
 11 12  2  0
 12 13  1  0
 13 14  2  0
 14 15  1  0
 15 16  2  0
 10 17  1  0
 17 18  2  0
 18 19  1  0
 19 20  1  0
 20 21  1  0
 21 22  2  0
 21 23  1  0
 23 24  1  0
 24 25  1  0
 25 26  2  0
 26 27  1  0
 27 28  2  0
 28 29  1  0
 29 30  2  0
 18  3  1  0
 30 25  1  0
 16 11  1  0
M  END
>  <Binding energies>  (16) 
[-6.23]

>  <Ligand effiencies>  (16) 
[-0.2009677419354839]

>  <Interactions>  (16) 
["V-B:MET:535:CE:9807, V-A:ASP:366:CA:3210, H-B:TYR:531:OH:9767, V-A:LEU:475:CD2:4259, V-A:GLU:543:CD:4908, V-A:ASP:366:CB:3212, V-B:GLU:543:CD:9880, V-B:TYR:539:CZ:9849, V-B:TYR:539:CD2:9846, V-B:TYR:539:CE2:9848, V-B:PRO:540:CA:9855, V-B:ALA:541:CB:9864, V-A:ARG:545:CZ:4926, H-B:ALA:541:N:9863, V-A:ASP:366:CG:3213, V-B:TYR:539:C:9839, V-A:LEU:475:CD1:4258, V-A:PRO:482:CB:4326, V-A:SER:385:CB:3409, V-A:LEU:475:CG:4257, V-B:PRO:540:CB:9857, V-A:PRO:482:CG:4327"]

$$$$
3bc_Grossjean_2025
     RDKit          3D

 28 30  0  0  0  0  0  0  0  0999 V2000
  131.0770  127.5580   73.1310 C   0  0  0  0  0  0  0  0  0  0  0  0
  129.7420  127.2290   72.7630 O   0  0  0  0  0  0  0  0  0  0  0  0
  129.3760  127.2950   71.4310 C   0  0  0  0  0  0  0  0  0  0  0  0
  130.1360  128.1360   70.6180 C   0  0  0  0  0  0  0  0  0  0  0  0
  129.8420  128.2680   69.2630 C   0  0  0  0  0  0  0  0  0  0  0  0
  128.7750  127.5630   68.7040 C   0  0  0  0  0  0  0  0  0  0  0  0
  128.5630  127.7500   67.3250 N   0  0  0  0  0  0  0  0  0  0  0  0
  128.2480  128.8800   66.6570 C   0  0  0  0  0  0  0  0  0  0  0  0
  128.1270  129.9920   67.1760 O   0  0  0  0  0  0  0  0  0  0  0  0
  128.0800  128.7040   65.1410 C   0  0  0  0  0  0  0  0  0  0  0  0
  126.3600  128.4870   64.5710 S   0  0  0  0  0  0  0  0  0  0  0  0
  126.3930  128.3020   62.8020 C   0  0  0  0  0  0  0  0  0  0  0  0
  126.6790  127.0420   62.3920 N   0  0  0  0  0  0  0  0  0  0  0  0
  126.7340  126.7590   61.0640 C   0  0  0  0  0  0  0  0  0  0  0  0
  127.0780  125.3470   60.6930 C   0  0  0  0  0  0  0  0  0  0  0  0
  127.5590  124.4490   61.6570 C   0  0  0  0  0  0  0  0  0  0  0  0
  127.8800  123.1370   61.3200 C   0  0  0  0  0  0  0  0  0  0  0  0
  127.7250  122.7050   60.0070 C   0  0  0  0  0  0  0  0  0  0  0  0
  127.2520  123.5750   59.0310 C   0  0  0  0  0  0  0  0  0  0  0  0
  126.9340  124.8870   59.3720 C   0  0  0  0  0  0  0  0  0  0  0  0
  126.4990  127.7520   60.1070 C   0  0  0  0  0  0  0  0  0  0  0  0
  126.1790  129.0520   60.5150 C   0  0  0  0  0  0  0  0  0  0  0  0
  125.9130  130.1010   59.4360 C   0  0  0  0  0  0  0  0  0  0  0  0
  126.1110  129.3470   61.8940 C   0  0  0  0  0  0  0  0  0  0  0  0
  125.7300  130.6870   62.3430 C   0  0  0  0  0  0  0  0  0  0  0  0
  125.4300  131.7480   62.6960 N   0  0  0  0  0  0  0  0  0  0  0  0
  128.0140  126.7050   69.5120 C   0  0  0  0  0  0  0  0  0  0  0  0
  128.3110  126.5760   70.8660 C   0  0  0  0  0  0  0  0  0  0  0  0
  1  2  1  0
  2  3  1  0
  3  4  2  0
  4  5  1  0
  5  6  2  0
  6  7  1  0
  7  8  1  0
  8  9  2  0
  8 10  1  0
 10 11  1  0
 11 12  1  0
 12 13  2  0
 13 14  1  0
 14 15  1  0
 15 16  2  0
 16 17  1  0
 17 18  2  0
 18 19  1  0
 19 20  2  0
 14 21  2  0
 21 22  1  0
 22 23  1  0
 22 24  2  0
 24 25  1  0
 25 26  3  0
  6 27  1  0
 27 28  2  0
 28  3  1  0
 24 12  1  0
 20 15  1  0
M  END
>  <Binding energies>  (17) 
[-6.62]

>  <Ligand effiencies>  (17) 
[-0.22827586206896552]

>  <Interactions>  (17) 
["V-A:GLU:543:CG:4907, V-A:GLU:543:CD:4908, V-B:GLU:543:CD:9880, V-A:GLU:543:CB:4906, H-B:TYR:484:OH:9320, V-B:HIS:456:CE1:9042, V-B:PRO:540:CA:9855, H-A:GLU:543:OE2:4910, V-B:ASP:366:CG:8185, V-B:TYR:539:C:9839, V-A:HIS:456:CE1:4070, V-B:PRO:540:N:9856, H-B:GLU:543:OE2:9882, H-B:ARG:545:NH2:9900, V-B:GLU:543:CB:9878, V-A:HIS:456:CD2:4068, H-B:LYS:547:NZ:9923, V-B:HIS:456:CD2:9040, V-A:GLY:544:C:4912, V-B:ARG:545:CZ:9898, V-A:GLU:543:C:4902, V-A:HIS:456:CG:4066"]

$$$$
3bd_Grossjean_2025
     RDKit          3D

 26 28  0  0  0  0  0  0  0  0999 V2000
  130.2280  125.6160   64.1280 C   0  0  0  0  0  0  0  0  0  0  0  0
  130.5100  125.0280   62.7470 C   0  0  0  0  0  0  0  0  0  0  0  0
  129.4270  124.8040   61.8900 C   0  0  0  0  0  0  0  0  0  0  0  0
  129.6430  124.2620   60.6170 C   0  0  0  0  0  0  0  0  0  0  0  0
  128.5290  124.0010   59.6480 C   0  0  0  0  0  0  0  0  0  0  0  0
  128.7030  123.1090   58.5770 C   0  0  0  0  0  0  0  0  0  0  0  0
  127.6740  122.8640   57.6730 C   0  0  0  0  0  0  0  0  0  0  0  0
  126.4510  123.5100   57.8260 C   0  0  0  0  0  0  0  0  0  0  0  0
  126.2530  124.4000   58.8760 C   0  0  0  0  0  0  0  0  0  0  0  0
  127.2850  124.6430   59.7780 C   0  0  0  0  0  0  0  0  0  0  0  0
  130.8990  123.9610   60.1940 N   0  0  0  0  0  0  0  0  0  0  0  0
  131.9610  124.1710   61.0120 C   0  0  0  0  0  0  0  0  0  0  0  0
  133.5540  123.7240   60.3430 S   0  0  0  0  0  0  0  0  0  0  0  0
  133.9210  122.0180   60.8530 C   0  0  0  0  0  0  0  0  0  0  0  0
  132.6960  121.1090   60.7370 C   0  0  0  0  0  0  0  0  0  0  0  0
  131.6270  121.4810   61.2220 O   0  0  0  0  0  0  0  0  0  0  0  0
  132.8980  119.9320   60.1060 N   0  0  0  0  0  0  0  0  0  0  0  0
  131.9730  118.9100   59.8220 C   0  0  0  0  0  0  0  0  0  0  0  0
  130.8950  118.7940   60.7040 C   0  0  0  0  0  0  0  0  0  0  0  0
  129.9330  117.8050   60.5100 C   0  0  0  0  0  0  0  0  0  0  0  0
  130.0550  116.9250   59.4380 C   0  0  0  0  0  0  0  0  0  0  0  0
  131.1320  117.0220   58.5600 C   0  0  0  0  0  0  0  0  0  0  0  0
  132.0940  118.0100   58.7510 C   0  0  0  0  0  0  0  0  0  0  0  0
  131.8130  124.7060   62.3100 C   0  0  0  0  0  0  0  0  0  0  0  0
  132.9690  124.9300   63.1840 C   0  0  0  0  0  0  0  0  0  0  0  0
  133.8800  125.1080   63.8750 N   0  0  0  0  0  0  0  0  0  0  0  0
  1  2  1  0
  2  3  2  0
  3  4  1  0
  4  5  1  0
  5  6  2  0
  6  7  1  0
  7  8  2  0
  8  9  1  0
  9 10  2  0
  4 11  2  0
 11 12  1  0
 12 13  1  0
 13 14  1  0
 14 15  1  0
 15 16  2  0
 15 17  1  0
 17 18  1  0
 18 19  2  0
 19 20  1  0
 20 21  2  0
 21 22  1  0
 22 23  2  0
 12 24  2  0
 24 25  1  0
 25 26  3  0
 24  2  1  0
 10  5  1  0
 23 18  1  0
M  END
>  <Binding energies>  (18) 
[-7.83]

>  <Ligand effiencies>  (18) 
[-0.29]

>  <Interactions>  (18) 
["V-A:LEU:475:CD2:4259, V-A:GLU:543:CD:4908, V-B:GLU:543:CD:9880, V-B:TYR:539:CZ:9849, V-A:ILE:369:CG2:3237, V-B:TYR:539:CD2:9846, H-A:TYR:484:OH:4348, V-B:TYR:539:CE2:9848, V-A:ILE:369:CD1:3239, V-A:TYR:484:CZ:4347, V-B:PRO:540:CA:9855, V-A:ARG:545:CZ:4926, H-A:ARG:545:NH2:4928, V-B:TYR:539:C:9839, H-A:ARG:545:NE:4924, H-A:ARG:545:NH1:4927, V-B:TYR:539:CG:9844, H-A:GLY:454:N:4050, V-B:PRO:540:N:9856, V-A:PRO:482:CB:4326, V-A:SER:385:CB:3409, V-B:TYR:539:CB:9843, V-A:LEU:475:CG:4257, V-A:PRO:482:CG:4327, V-A:HIS:383:CE1:3394, V-A:LEU:373:CD1:3280, V-A:SER:385:C:3405, V-A:SER:385:CA:3407, V-B:TYR:539:CA:9841, V-A:ILE:369:CG1:3238, H-A:SER:385:O:3406, H-A:SER:385:OG:3410"]

$$$$
3be_Grossjean_2025
     RDKit          3D

 27 29  0  0  0  0  0  0  0  0999 V2000
  131.5020  117.2720   59.9820 C   0  0  0  0  0  0  0  0  0  0  0  0
  131.4730  118.7760   60.1740 C   0  0  0  0  0  0  0  0  0  0  0  0
  132.6200  119.5560   60.0120 C   0  0  0  0  0  0  0  0  0  0  0  0
  132.5200  120.9340   60.2080 C   0  0  0  0  0  0  0  0  0  0  0  0
  131.2870  121.4930   60.5560 C   0  0  0  0  0  0  0  0  0  0  0  0
  130.1760  120.6540   60.6990 C   0  0  0  0  0  0  0  0  0  0  0  0
  128.9670  121.2760   61.0610 N   0  0  0  0  0  0  0  0  0  0  0  0
  128.6710  121.9570   62.1900 C   0  0  0  0  0  0  0  0  0  0  0  0
  129.4560  122.1400   63.1230 O   0  0  0  0  0  0  0  0  0  0  0  0
  127.2410  122.5170   62.2470 C   0  0  0  0  0  0  0  0  0  0  0  0
  126.6970  123.4110   60.7520 S   0  0  0  0  0  0  0  0  0  0  0  0
  128.1470  123.9760   59.8880 C   0  0  0  0  0  0  0  0  0  0  0  0
  129.2250  124.1490   60.6910 N   0  0  0  0  0  0  0  0  0  0  0  0
  130.4030  124.5750   60.1630 C   0  0  0  0  0  0  0  0  0  0  0  0
  131.5430  124.7530   61.1210 C   0  0  0  0  0  0  0  0  0  0  0  0
  131.3290  125.3030   62.3960 C   0  0  0  0  0  0  0  0  0  0  0  0
  132.3820  125.4740   63.2890 C   0  0  0  0  0  0  0  0  0  0  0  0
  133.6690  125.0970   62.9190 C   0  0  0  0  0  0  0  0  0  0  0  0
  133.9080  124.5520   61.6630 C   0  0  0  0  0  0  0  0  0  0  0  0
  132.8520  124.3840   60.7710 C   0  0  0  0  0  0  0  0  0  0  0  0
  130.5190  124.8430   58.7950 C   0  0  0  0  0  0  0  0  0  0  0  0
  129.4230  124.6470   57.9480 C   0  0  0  0  0  0  0  0  0  0  0  0
  129.6020  124.9360   56.4590 C   0  0  0  0  0  0  0  0  0  0  0  0
  128.2030  124.1910   58.4920 C   0  0  0  0  0  0  0  0  0  0  0  0
  127.0590  123.9270   57.6160 C   0  0  0  0  0  0  0  0  0  0  0  0
  126.1570  123.7190   56.9220 N   0  0  0  0  0  0  0  0  0  0  0  0
  130.2690  119.3050   60.5120 N   0  0  0  0  0  0  0  0  0  0  0  0
  1  2  1  0
  2  3  2  0
  3  4  1  0
  4  5  2  0
  5  6  1  0
  6  7  1  0
  7  8  1  0
  8  9  2  0
  8 10  1  0
 10 11  1  0
 11 12  1  0
 12 13  2  0
 13 14  1  0
 14 15  1  0
 15 16  2  0
 16 17  1  0
 17 18  2  0
 18 19  1  0
 19 20  2  0
 14 21  2  0
 21 22  1  0
 22 23  1  0
 22 24  2  0
 24 25  1  0
 25 26  3  0
  6 27  2  0
 27  2  1  0
 24 12  1  0
 20 15  1  0
M  END
>  <Binding energies>  (19) 
[-7.26]

>  <Ligand effiencies>  (19) 
[-0.2592857142857143]

>  <Interactions>  (19) 
["V-B:MET:535:CE:9807, H-B:TYR:531:OH:9767, V-A:LEU:475:CD2:4259, V-B:GLU:543:CD:9880, V-B:TYR:539:CZ:9849, V-A:ILE:369:CG2:3237, V-B:TYR:539:CD2:9846, H-A:TYR:484:OH:4348, V-B:TYR:539:CE2:9848, V-A:ILE:369:CD1:3239, V-B:PRO:540:CA:9855, V-B:GLU:543:CG:9879, V-B:ALA:541:CB:9864, V-A:ARG:545:CZ:4926, V-A:ASP:366:CG:3213, V-B:TYR:539:C:9839, V-B:PRO:540:C:9853, V-A:GLY:453:CA:4044, V-B:ALA:541:CA:9862, V-A:SER:385:CB:3409, H-B:TYR:539:O:9840, V-A:SER:385:CA:3407"]

$$$$
3bf_Grossjean_2025
     RDKit          3D

 26 28  0  0  0  0  0  0  0  0999 V2000
  133.2370  123.2540   60.1370 C   0  0  0  0  0  0  0  0  0  0  0  0
  131.8710  123.7820   60.5710 C   0  0  0  0  0  0  0  0  0  0  0  0
  130.7660  123.4910   59.7660 C   0  0  0  0  0  0  0  0  0  0  0  0
  129.4940  123.9440   60.1340 C   0  0  0  0  0  0  0  0  0  0  0  0
  128.2660  123.6470   59.3270 C   0  0  0  0  0  0  0  0  0  0  0  0
  126.9870  123.8770   59.8570 C   0  0  0  0  0  0  0  0  0  0  0  0
  125.8420  123.6040   59.1140 C   0  0  0  0  0  0  0  0  0  0  0  0
  125.9620  123.0940   57.8250 C   0  0  0  0  0  0  0  0  0  0  0  0
  127.2170  122.8550   57.2770 C   0  0  0  0  0  0  0  0  0  0  0  0
  128.3600  123.1290   58.0240 C   0  0  0  0  0  0  0  0  0  0  0  0
  129.3130  124.6670   61.2710 N   0  0  0  0  0  0  0  0  0  0  0  0
  130.3790  124.9790   62.0490 C   0  0  0  0  0  0  0  0  0  0  0  0
  129.9550  125.9350   63.4890 S   0  0  0  0  0  0  0  0  0  0  0  0
  128.7990  127.2500   62.9750 C   0  0  0  0  0  0  0  0  0  0  0  0
  128.9770  127.7480   61.5330 C   0  0  0  0  0  0  0  0  0  0  0  0
  128.0050  127.8730   60.7860 O   0  0  0  0  0  0  0  0  0  0  0  0
  130.2500  128.0490   61.1940 N   0  0  0  0  0  0  0  0  0  0  0  0
  130.7500  128.5140   59.9640 C   0  0  0  0  0  0  0  0  0  0  0  0
  131.0110  127.5560   58.9780 C   0  0  0  0  0  0  0  0  0  0  0  0
  131.4960  127.9540   57.7310 C   0  0  0  0  0  0  0  0  0  0  0  0
  131.7020  129.3150   57.5000 C   0  0  0  0  0  0  0  0  0  0  0  0
  131.4470  130.2670   58.4330 N   0  0  0  0  0  0  0  0  0  0  0  0
  130.9760  129.8630   59.6420 C   0  0  0  0  0  0  0  0  0  0  0  0
  131.6870  124.5390   61.7480 C   0  0  0  0  0  0  0  0  0  0  0  0
  132.8240  124.8130   62.6320 C   0  0  0  0  0  0  0  0  0  0  0  0
  133.7230  125.0300   63.3290 N   0  0  0  0  0  0  0  0  0  0  0  0
  1  2  1  0
  2  3  2  0
  3  4  1  0
  4  5  1  0
  5  6  2  0
  6  7  1  0
  7  8  2  0
  8  9  1  0
  9 10  2  0
  4 11  2  0
 11 12  1  0
 12 13  1  0
 13 14  1  0
 14 15  1  0
 15 16  2  0
 15 17  1  0
 17 18  1  0
 18 19  2  0
 19 20  1  0
 20 21  2  0
 21 22  1  0
 22 23  2  0
 12 24  2  0
 24 25  1  0
 25 26  3  0
 24  2  1  0
 10  5  1  0
 23 18  1  0
M  END
>  <Binding energies>  (20) 
[-6.28]

>  <Ligand effiencies>  (20) 
[-0.2325925925925926]

>  <Interactions>  (20) 
["H-A:ASP:366:OD1:3214, V-A:GLU:543:CD:4908, V-A:ASP:366:CB:3212, V-B:GLU:543:CD:9880, V-B:TYR:539:CZ:9849, V-A:ILE:369:CG2:3237, V-B:TYR:539:CD2:9846, H-A:TYR:484:OH:4348, V-B:TYR:539:CE2:9848, V-A:ILE:369:CD1:3239, V-B:PRO:540:CA:9855, H-A:GLU:543:OE2:4910, V-A:ARG:545:CZ:4926, V-A:ASP:366:CG:3213, H-A:ARG:545:NH2:4928, V-B:TYR:539:C:9839, H-A:ARG:545:NE:4924, H-A:ARG:545:NH1:4927, V-B:TYR:539:CG:9844, H-A:GLY:454:N:4050, V-B:PRO:540:N:9856, H-A:GLU:543:OE1:4909, V-B:PRO:540:CB:9857, V-B:PRO:540:CD:9859"]

$$$$
3bg_Grossjean_2025
     RDKit          3D

 27 29  0  0  0  0  0  0  0  0999 V2000
  128.6950  123.9550   62.6500 C   0  0  0  0  0  0  0  0  0  0  0  0
  129.9060  123.2690   62.0210 C   0  0  0  0  0  0  0  0  0  0  0  0
  129.8010  121.9160   61.6870 C   0  0  0  0  0  0  0  0  0  0  0  0
  130.8860  121.2500   61.1010 C   0  0  0  0  0  0  0  0  0  0  0  0
  130.8340  119.7990   60.7080 C   0  0  0  0  0  0  0  0  0  0  0  0
  131.7410  119.2700   59.7750 C   0  0  0  0  0  0  0  0  0  0  0  0
  131.7090  117.9240   59.4210 C   0  0  0  0  0  0  0  0  0  0  0  0
  130.7620  117.0820   59.9950 C   0  0  0  0  0  0  0  0  0  0  0  0
  129.8450  117.5810   60.9120 C   0  0  0  0  0  0  0  0  0  0  0  0
  129.8800  118.9280   61.2610 C   0  0  0  0  0  0  0  0  0  0  0  0
  132.0420  121.9150   60.8360 N   0  0  0  0  0  0  0  0  0  0  0  0
  132.1600  123.2300   61.1510 C   0  0  0  0  0  0  0  0  0  0  0  0
  133.7160  123.9930   60.7190 S   0  0  0  0  0  0  0  0  0  0  0  0
  133.8180  124.0940   58.9020 C   0  0  0  0  0  0  0  0  0  0  0  0
  132.6550  124.8960   58.3100 C   0  0  0  0  0  0  0  0  0  0  0  0
  132.8840  125.8930   57.6250 O   0  0  0  0  0  0  0  0  0  0  0  0
  131.4180  124.4610   58.6030 N   0  0  0  0  0  0  0  0  0  0  0  0
  130.1740  125.1700   58.3000 C   0  0  0  0  0  0  0  0  0  0  0  0
  129.0360  124.2070   57.9830 C   0  0  0  0  0  0  0  0  0  0  0  0
  128.5180  123.3800   58.9870 C   0  0  0  0  0  0  0  0  0  0  0  0
  127.4860  122.4940   58.6950 C   0  0  0  0  0  0  0  0  0  0  0  0
  126.9640  122.4440   57.4030 C   0  0  0  0  0  0  0  0  0  0  0  0
  127.4610  123.2780   56.4040 C   0  0  0  0  0  0  0  0  0  0  0  0
  128.4940  124.1640   56.6960 C   0  0  0  0  0  0  0  0  0  0  0  0
  131.1120  123.9530   61.7580 C   0  0  0  0  0  0  0  0  0  0  0  0
  131.2500  125.3730   62.0900 C   0  0  0  0  0  0  0  0  0  0  0  0
  131.3580  126.4950   62.3520 N   0  0  0  0  0  0  0  0  0  0  0  0
  1  2  1  0
  2  3  2  0
  3  4  1  0
  4  5  1  0
  5  6  2  0
  6  7  1  0
  7  8  2  0
  8  9  1  0
  9 10  2  0
  4 11  2  0
 11 12  1  0
 12 13  1  0
 13 14  1  0
 14 15  1  0
 15 16  2  0
 15 17  1  0
 17 18  1  0
 18 19  1  0
 19 20  2  0
 20 21  1  0
 21 22  2  0
 22 23  1  0
 23 24  2  0
 12 25  2  0
 25 26  1  0
 26 27  3  0
 25  2  1  0
 10  5  1  0
 24 19  1  0
M  END
>  <Binding energies>  (21) 
[-7.19]

>  <Ligand effiencies>  (21) 
[-0.2567857142857143]

>  <Interactions>  (21) 
["V-B:MET:535:CE:9807, V-A:ASP:366:CA:3210, V-B:TYR:539:CE1:9847, V-A:LEU:475:CD2:4259, H-B:TYR:539:OH:9850, V-A:ASP:366:CB:3212, V-B:GLU:543:CD:9880, V-B:TYR:539:CZ:9849, V-A:ILE:369:CG2:3237, V-A:ILE:369:CB:3236, V-B:TYR:539:CD2:9846, V-B:TYR:539:CE2:9848, V-A:ILE:369:CD1:3239, V-B:PRO:540:CA:9855, V-B:GLU:543:CG:9879, V-B:ALA:541:CB:9864, V-A:ASP:366:CG:3213, H-A:ARG:545:NH2:4928, V-B:TYR:539:C:9839, V-B:TYR:539:CG:9844, V-B:PRO:540:N:9856, V-A:LEU:475:CD1:4258, V-A:PRO:482:CB:4326, V-A:SER:385:CB:3409, V-B:TYR:539:CB:9843, V-B:PRO:540:CB:9857, V-A:PRO:482:CG:4327, V-B:PRO:540:CD:9859, V-B:TYR:539:CA:9841"]

$$$$
3ca_Grossjean_2025
     RDKit          3D

 31 33  0  0  0  0  0  0  0  0999 V2000
  131.9350  126.9900   73.5920 C   0  0  0  0  0  0  0  0  0  0  0  0
  130.9300  125.9250   74.0390 C   0  0  0  0  0  0  0  0  0  0  0  0
  129.8500  125.8750   73.1150 O   0  0  0  0  0  0  0  0  0  0  0  0
  129.1530  126.9940   72.7910 C   0  0  0  0  0  0  0  0  0  0  0  0
  128.6360  127.7400   73.6290 O   0  0  0  0  0  0  0  0  0  0  0  0
  129.0760  127.2380   71.3110 C   0  0  0  0  0  0  0  0  0  0  0  0
  128.0930  126.5830   70.5590 C   0  0  0  0  0  0  0  0  0  0  0  0
  127.9970  126.7890   69.1860 C   0  0  0  0  0  0  0  0  0  0  0  0
  128.8850  127.6470   68.5350 C   0  0  0  0  0  0  0  0  0  0  0  0
  128.6990  127.7840   67.1460 N   0  0  0  0  0  0  0  0  0  0  0  0
  128.3420  128.8700   66.4280 C   0  0  0  0  0  0  0  0  0  0  0  0
  128.1260  129.9900   66.8900 O   0  0  0  0  0  0  0  0  0  0  0  0
  128.2310  128.6480   64.9160 C   0  0  0  0  0  0  0  0  0  0  0  0
  127.9990  130.1930   63.9770 S   0  0  0  0  0  0  0  0  0  0  0  0
  128.0920  129.8590   62.2230 C   0  0  0  0  0  0  0  0  0  0  0  0
  127.1770  128.9790   61.7440 N   0  0  0  0  0  0  0  0  0  0  0  0
  127.1750  128.6950   60.4230 C   0  0  0  0  0  0  0  0  0  0  0  0
  126.1120  127.7180   59.9620 C   0  0  0  0  0  0  0  0  0  0  0  0
  128.0870  129.2580   59.5340 C   0  0  0  0  0  0  0  0  0  0  0  0
  129.0530  130.1550   60.0080 C   0  0  0  0  0  0  0  0  0  0  0  0
  130.0190  130.7230   59.0200 C   0  0  0  0  0  0  0  0  0  0  0  0
  131.3590  130.3160   59.0330 C   0  0  0  0  0  0  0  0  0  0  0  0
  132.2690  130.8470   58.1220 C   0  0  0  0  0  0  0  0  0  0  0  0
  131.8410  131.7940   57.1940 C   0  0  0  0  0  0  0  0  0  0  0  0
  130.5140  132.2140   57.1720 C   0  0  0  0  0  0  0  0  0  0  0  0
  129.6070  131.6810   58.0850 C   0  0  0  0  0  0  0  0  0  0  0  0
  129.0550  130.4750   61.3890 C   0  0  0  0  0  0  0  0  0  0  0  0
  130.0090  131.4460   61.9340 C   0  0  0  0  0  0  0  0  0  0  0  0
  130.7630  132.2130   62.3630 N   0  0  0  0  0  0  0  0  0  0  0  0
  129.8690  128.3140   69.2820 C   0  0  0  0  0  0  0  0  0  0  0  0
  129.9610  128.1080   70.6560 C   0  0  0  0  0  0  0  0  0  0  0  0
  1  2  1  0
  2  3  1  0
  3  4  1  0
  4  5  2  0
  4  6  1  0
  6  7  2  0
  7  8  1  0
  8  9  2  0
  9 10  1  0
 10 11  1  0
 11 12  2  0
 11 13  1  0
 13 14  1  0
 14 15  1  0
 15 16  2  0
 16 17  1  0
 17 18  1  0
 17 19  2  0
 19 20  1  0
 20 21  1  0
 21 22  2  0
 22 23  1  0
 23 24  2  0
 24 25  1  0
 25 26  2  0
 20 27  2  0
 27 28  1  0
 28 29  3  0
  9 30  1  0
 30 31  2  0
 31  6  1  0
 27 15  1  0
 26 21  1  0
M  END
>  <Binding energies>  (22) 
[-7.58]

>  <Ligand effiencies>  (22) 
[-0.236875]

>  <Interactions>  (22) 
["V-A:GLU:543:CG:4907, V-A:GLU:543:CD:4908, H-A:ALA:541:N:4891, V-B:GLU:543:CD:9880, V-A:GLU:543:CB:4906, V-A:PRO:540:CA:4883, V-A:PRO:540:CB:4885, H-B:TYR:484:OH:9320, V-B:HIS:456:CE1:9042, V-B:ASP:366:CB:8184, H-A:GLU:543:OE2:4910, V-B:ASP:366:CG:8185, V-A:PRO:540:N:4884, V-A:HIS:456:CE1:4070, V-A:TYR:539:C:4867, V-A:ALA:541:CB:4892, H-B:GLU:543:OE2:9882, V-B:GLU:543:CB:9878, V-A:HIS:456:CD2:4068, H-B:LYS:547:NZ:9923, V-B:HIS:456:CD2:9040, V-A:HIS:456:CB:4065, V-A:GLU:543:C:4902, V-A:HIS:456:CG:4066"]

$$$$
3ce_Grossjean_2025
     RDKit          3D

 27 29  0  0  0  0  0  0  0  0999 V2000
  126.2030  123.5320   58.4130 C   0  0  0  0  0  0  0  0  0  0  0  0
  127.0270  123.2530   59.6550 C   0  0  0  0  0  0  0  0  0  0  0  0
  126.4710  123.3340   60.9350 C   0  0  0  0  0  0  0  0  0  0  0  0
  127.2860  123.0550   62.0320 C   0  0  0  0  0  0  0  0  0  0  0  0
  128.6230  122.7060   61.8270 C   0  0  0  0  0  0  0  0  0  0  0  0
  129.1190  122.6550   60.5200 C   0  0  0  0  0  0  0  0  0  0  0  0
  130.4660  122.2800   60.3730 N   0  0  0  0  0  0  0  0  0  0  0  0
  131.2600  121.6500   61.2680 C   0  0  0  0  0  0  0  0  0  0  0  0
  130.9100  121.2880   62.3920 O   0  0  0  0  0  0  0  0  0  0  0  0
  132.6910  121.3780   60.8060 C   0  0  0  0  0  0  0  0  0  0  0  0
  133.6300  122.9150   60.5620 S   0  0  0  0  0  0  0  0  0  0  0  0
  132.8460  124.1300   61.5970 C   0  0  0  0  0  0  0  0  0  0  0  0
  133.3530  124.1930   62.8530 N   0  0  0  0  0  0  0  0  0  0  0  0
  132.8360  125.0990   63.7140 C   0  0  0  0  0  0  0  0  0  0  0  0
  133.4570  125.1250   65.0970 C   0  0  0  0  0  0  0  0  0  0  0  0
  131.7960  125.9560   63.3650 C   0  0  0  0  0  0  0  0  0  0  0  0
  131.2410  125.8880   62.0800 C   0  0  0  0  0  0  0  0  0  0  0  0
  130.1110  126.8100   61.7610 C   0  0  0  0  0  0  0  0  0  0  0  0
  128.8500  126.6020   62.3320 C   0  0  0  0  0  0  0  0  0  0  0  0
  127.7890  127.4540   62.0340 C   0  0  0  0  0  0  0  0  0  0  0  0
  127.9840  128.5170   61.1560 C   0  0  0  0  0  0  0  0  0  0  0  0
  129.2290  128.7320   60.5720 C   0  0  0  0  0  0  0  0  0  0  0  0
  130.2880  127.8790   60.8720 C   0  0  0  0  0  0  0  0  0  0  0  0
  131.7800  124.9520   61.1620 C   0  0  0  0  0  0  0  0  0  0  0  0
  131.2510  124.8450   59.7980 C   0  0  0  0  0  0  0  0  0  0  0  0
  130.8320  124.7620   58.7230 N   0  0  0  0  0  0  0  0  0  0  0  0
  128.3250  122.9190   59.4410 N   0  0  0  0  0  0  0  0  0  0  0  0
  1  2  1  0
  2  3  2  0
  3  4  1  0
  4  5  2  0
  5  6  1  0
  6  7  1  0
  7  8  1  0
  8  9  2  0
  8 10  1  0
 10 11  1  0
 11 12  1  0
 12 13  2  0
 13 14  1  0
 14 15  1  0
 14 16  2  0
 16 17  1  0
 17 18  1  0
 18 19  2  0
 19 20  1  0
 20 21  2  0
 21 22  1  0
 22 23  2  0
 17 24  2  0
 24 25  1  0
 25 26  3  0
  6 27  2  0
 27  2  1  0
 24 12  1  0
 23 18  1  0
M  END
>  <Binding energies>  (23) 
[-7.02]

>  <Ligand effiencies>  (23) 
[-0.2507142857142857]

>  <Interactions>  (23) 
["V-A:LEU:475:CD2:4259, V-A:GLU:543:CD:4908, V-B:GLU:543:CD:9880, V-A:ILE:369:CG2:3237, V-B:TYR:539:CD2:9846, V-A:GLY:454:CA:4049, H-A:TYR:484:OH:4348, V-B:TYR:539:CE2:9848, V-A:TYR:484:CZ:4347, V-B:PRO:540:CA:9855, V-B:GLU:543:CG:9879, V-B:ALA:541:CB:9864, V-A:ARG:545:CZ:4926, V-A:TYR:484:CE2:4346, H-A:GLY:454:N:4050, V-A:ARG:545:CD:4923, V-B:PRO:540:N:9856, V-B:PRO:540:CB:9857"]

$$$$
3cj_Grossjean_2025
     RDKit          3D

 25 27  0  0  0  0  0  0  0  0999 V2000
  132.0010  126.4200   56.4340 C   0  0  0  0  0  0  0  0  0  0  0  0
  131.2430  125.6460   57.4960 C   0  0  0  0  0  0  0  0  0  0  0  0
  129.9490  125.1810   57.2730 C   0  0  0  0  0  0  0  0  0  0  0  0
  129.2950  124.4500   58.2740 C   0  0  0  0  0  0  0  0  0  0  0  0
  127.9350  123.9160   57.9680 C   0  0  0  0  0  0  0  0  0  0  0  0
  127.7830  122.6600   57.3700 C   0  0  0  0  0  0  0  0  0  0  0  0
  126.5150  122.1680   57.0730 C   0  0  0  0  0  0  0  0  0  0  0  0
  125.3920  122.9360   57.3690 C   0  0  0  0  0  0  0  0  0  0  0  0
  125.5280  124.1910   57.9550 C   0  0  0  0  0  0  0  0  0  0  0  0
  126.7970  124.6810   58.2520 C   0  0  0  0  0  0  0  0  0  0  0  0
  129.9670  124.2370   59.5030 C   0  0  0  0  0  0  0  0  0  0  0  0
  129.3240  123.5050   60.5990 C   0  0  0  0  0  0  0  0  0  0  0  0
  128.8160  122.9260   61.4630 N   0  0  0  0  0  0  0  0  0  0  0  0
  131.2800  124.7410   59.6400 C   0  0  0  0  0  0  0  0  0  0  0  0
  132.2850  124.4290   61.0760 S   0  0  0  0  0  0  0  0  0  0  0  0
  133.1720  122.8840   60.6990 C   0  0  0  0  0  0  0  0  0  0  0  0
  132.3280  121.6480   61.0270 C   0  0  0  0  0  0  0  0  0  0  0  0
  131.5930  121.6590   62.0170 O   0  0  0  0  0  0  0  0  0  0  0  0
  132.4370  120.6240   60.1520 N   0  0  0  0  0  0  0  0  0  0  0  0
  131.6890  119.4580   60.1460 C   0  0  0  0  0  0  0  0  0  0  0  0
  131.9430  118.3380   59.5050 N   0  0  0  0  0  0  0  0  0  0  0  0
  131.0290  117.4210   59.7530 C   0  0  0  0  0  0  0  0  0  0  0  0
  130.0000  117.7930   60.6140 C   0  0  0  0  0  0  0  0  0  0  0  0
  130.2530  119.4370   61.1210 S   0  0  0  0  0  0  0  0  0  0  0  0
  131.9090  125.4240   58.6500 N   0  0  0  0  0  0  0  0  0  0  0  0
  1  2  1  0
  2  3  2  0
  3  4  1  0
  4  5  1  0
  5  6  2  0
  6  7  1  0
  7  8  2  0
  8  9  1  0
  9 10  2  0
  4 11  2  0
 11 12  1  0
 12 13  3  0
 11 14  1  0
 14 15  1  0
 15 16  1  0
 16 17  1  0
 17 18  2  0
 17 19  1  0
 19 20  1  0
 20 21  2  0
 21 22  1  0
 22 23  2  0
 23 24  1  0
 14 25  2  0
 25  2  1  0
 10  5  1  0
 24 20  1  0
M  END
>  <Binding energies>  (24) 
[-6.66]

>  <Ligand effiencies>  (24) 
[-0.2561538461538462]

>  <Interactions>  (24) 
["V-B:TYR:539:CE1:9847, V-A:LEU:475:CD2:4259, V-A:ASP:366:CB:3212, V-B:TYR:539:CZ:9849, V-A:ILE:369:CG2:3237, V-B:TYR:539:CD2:9846, H-A:TYR:484:OH:4348, V-B:TYR:539:CE2:9848, V-A:ILE:369:CD1:3239, V-B:PRO:540:CA:9855, V-B:TYR:539:C:9839, V-B:TYR:539:CG:9844, V-B:PRO:540:N:9856, V-A:LEU:475:CD1:4258, V-A:PRO:482:CB:4326, V-A:SER:385:CB:3409, V-B:TYR:539:CB:9843, V-B:PRO:540:CB:9857, V-A:PRO:482:CG:4327, V-B:TYR:539:CD1:9845, V-B:PRO:540:CD:9859, V-B:TYR:539:CA:9841, H-A:SER:385:O:3406, H-A:SER:385:OG:3410"]

$$$$
4ba_Grossjean_2025
     RDKit          3D

 28 30  0  0  0  0  0  0  0  0999 V2000
  131.5170  127.2840   73.4940 C   0  0  0  0  0  0  0  0  0  0  0  0
  130.6150  127.9620   72.4460 C   0  0  0  0  0  0  0  0  0  0  0  0
  129.5190  127.0590   71.8440 C   0  0  0  0  0  0  0  0  0  0  0  0
  129.0080  126.1780   72.5390 O   0  0  0  0  0  0  0  0  0  0  0  0
  129.1180  127.3050   70.4180 C   0  0  0  0  0  0  0  0  0  0  0  0
  129.8230  128.2460   69.6580 C   0  0  0  0  0  0  0  0  0  0  0  0
  129.4720  128.4950   68.3340 C   0  0  0  0  0  0  0  0  0  0  0  0
  128.4120  127.8060   67.7420 C   0  0  0  0  0  0  0  0  0  0  0  0
  128.1370  128.1410   66.4020 N   0  0  0  0  0  0  0  0  0  0  0  0
  127.0960  128.8280   65.8710 C   0  0  0  0  0  0  0  0  0  0  0  0
  126.1450  129.2580   66.5260 O   0  0  0  0  0  0  0  0  0  0  0  0
  127.1490  129.0210   64.4210 C   0  0  0  0  0  0  0  0  0  0  0  0
  126.5180  127.7820   63.3380 S   0  0  0  0  0  0  0  0  0  0  0  0
  126.9860  128.7060   61.9310 C   0  0  0  0  0  0  0  0  0  0  0  0
  126.7580  128.2560   60.6980 N   0  0  0  0  0  0  0  0  0  0  0  0
  127.1660  129.0590   59.6880 C   0  0  0  0  0  0  0  0  0  0  0  0
  126.9060  128.5230   58.2920 C   0  0  0  0  0  0  0  0  0  0  0  0
  127.7850  130.2910   59.8800 C   0  0  0  0  0  0  0  0  0  0  0  0
  128.0270  130.7710   61.1780 C   0  0  0  0  0  0  0  0  0  0  0  0
  128.7090  132.1330   61.3390 C   0  0  0  0  0  0  0  0  0  0  0  0
  129.8710  132.0620   61.9920 F   0  0  0  0  0  0  0  0  0  0  0  0
  128.9570  132.6610   60.1400 F   0  0  0  0  0  0  0  0  0  0  0  0
  127.9150  132.9560   62.0260 F   0  0  0  0  0  0  0  0  0  0  0  0
  127.6140  129.9450   62.2660 C   0  0  0  0  0  0  0  0  0  0  0  0
  127.7020  130.0920   63.6980 C   0  0  0  0  0  0  0  0  0  0  0  0
  128.2740  131.1860   64.2960 N   0  0  0  0  0  0  0  0  0  0  0  0
  127.6970  126.8660   68.4980 C   0  0  0  0  0  0  0  0  0  0  0  0
  128.0490  126.6190   69.8230 C   0  0  0  0  0  0  0  0  0  0  0  0
  1  2  1  0
  2  3  1  0
  3  4  2  0
  3  5  1  0
  5  6  2  0
  6  7  1  0
  7  8  2  0
  8  9  1  0
  9 10  1  0
 10 11  2  0
 10 12  1  0
 12 13  1  0
 13 14  1  0
 14 15  2  0
 15 16  1  0
 16 17  1  0
 16 18  2  0
 18 19  1  0
 19 20  1  0
 20 21  1  0
 20 22  1  0
 20 23  1  0
 19 24  2  0
 24 25  1  0
 25 26  1  0
  8 27  1  0
 27 28  2  0
 28  5  1  0
 25 12  2  0
 24 14  1  0
M  END
>  <Binding energies>  (25) 
[-5.56]

>  <Ligand effiencies>  (25) 
[-0.17935483870967742]

>  <Interactions>  (25) 
["V-A:GLU:543:CG:4907, V-A:GLU:543:CD:4908, V-B:GLU:543:CD:9880, V-B:TYR:484:CZ:9319, V-A:GLU:543:CB:4906, V-A:PRO:540:CA:4883, H-B:TYR:484:OH:9320, V-B:HIS:456:CE1:9042, H-A:GLU:543:OE2:4910, V-A:HIS:456:CE1:4070, V-A:TYR:539:C:4867, V-A:ALA:541:CA:4890, V-A:PRO:540:C:4881, V-A:ALA:541:CB:4892, H-B:GLU:543:OE2:9882, H-A:GLU:543:OE1:4909, V-B:GLU:543:CB:9878, V-A:HIS:456:CD2:4068, H-B:LYS:547:NZ:9923, V-B:HIS:456:CD2:9040, V-A:GLY:544:C:4912, V-B:ARG:545:CZ:9898, V-A:GLU:543:C:4902, V-B:LEU:475:CD2:9231, V-B:TYR:484:CE2:9318, V-A:HIS:456:CG:4066, V-A:GLU:543:CA:4904"]

$$$$
4bb_Grossjean_2025
     RDKit          3D

 27 29  0  0  0  0  0  0  0  0999 V2000
  130.3070  128.0250   72.6200 C   0  0  0  0  0  0  0  0  0  0  0  0
  129.4780  126.9820   71.8680 C   0  0  0  0  0  0  0  0  0  0  0  0
  129.1460  125.9600   72.4710 O   0  0  0  0  0  0  0  0  0  0  0  0
  129.1230  127.2530   70.4360 C   0  0  0  0  0  0  0  0  0  0  0  0
  129.8610  128.1980   69.7130 C   0  0  0  0  0  0  0  0  0  0  0  0
  129.5520  128.4700   68.3830 C   0  0  0  0  0  0  0  0  0  0  0  0
  128.5070  127.7970   67.7490 C   0  0  0  0  0  0  0  0  0  0  0  0
  128.2790  128.1500   66.4040 N   0  0  0  0  0  0  0  0  0  0  0  0
  127.2380  128.8120   65.8420 C   0  0  0  0  0  0  0  0  0  0  0  0
  126.2530  129.2080   66.4640 O   0  0  0  0  0  0  0  0  0  0  0  0
  127.3360  129.0140   64.3930 C   0  0  0  0  0  0  0  0  0  0  0  0
  126.8050  127.7520   63.2840 S   0  0  0  0  0  0  0  0  0  0  0  0
  127.2720  128.7080   61.8970 C   0  0  0  0  0  0  0  0  0  0  0  0
  127.1030  128.2600   60.6550 N   0  0  0  0  0  0  0  0  0  0  0  0
  127.5040  129.0900   59.6640 C   0  0  0  0  0  0  0  0  0  0  0  0
  127.3010  128.5610   58.2560 C   0  0  0  0  0  0  0  0  0  0  0  0
  128.0660  130.3450   59.8850 C   0  0  0  0  0  0  0  0  0  0  0  0
  128.2460  130.8220   61.1920 C   0  0  0  0  0  0  0  0  0  0  0  0
  128.8680  132.2100   61.3850 C   0  0  0  0  0  0  0  0  0  0  0  0
  130.0240  132.1750   62.0530 F   0  0  0  0  0  0  0  0  0  0  0  0
  129.1090  132.7650   60.1970 F   0  0  0  0  0  0  0  0  0  0  0  0
  128.0330  132.9880   62.0730 F   0  0  0  0  0  0  0  0  0  0  0  0
  127.8340  129.9710   62.2610 C   0  0  0  0  0  0  0  0  0  0  0  0
  127.8610  130.1140   63.6950 C   0  0  0  0  0  0  0  0  0  0  0  0
  128.3510  131.2330   64.3190 N   0  0  0  0  0  0  0  0  0  0  0  0
  127.7580  126.8530   68.4700 C   0  0  0  0  0  0  0  0  0  0  0  0
  128.0680  126.5850   69.8000 C   0  0  0  0  0  0  0  0  0  0  0  0
  1  2  1  0
  2  3  2  0
  2  4  1  0
  4  5  2  0
  5  6  1  0
  6  7  2  0
  7  8  1  0
  8  9  1  0
  9 10  2  0
  9 11  1  0
 11 12  1  0
 12 13  1  0
 13 14  2  0
 14 15  1  0
 15 16  1  0
 15 17  2  0
 17 18  1  0
 18 19  1  0
 19 20  1  0
 19 21  1  0
 19 22  1  0
 18 23  2  0
 23 24  1  0
 24 25  1  0
  7 26  1  0
 26 27  2  0
 27  4  1  0
 24 11  2  0
 23 13  1  0
M  END
>  <Binding energies>  (26) 
[-5.43]

>  <Ligand effiencies>  (26) 
[-0.181]

>  <Interactions>  (26) 
["V-A:GLU:543:CG:4907, V-A:GLU:543:CD:4908, V-B:GLU:543:CD:9880, V-B:TYR:484:CZ:9319, V-A:GLU:543:CB:4906, V-A:PRO:540:CA:4883, H-B:TYR:484:OH:9320, V-B:HIS:456:CE1:9042, H-A:GLU:543:OE2:4910, V-A:HIS:456:CE1:4070, V-A:TYR:539:C:4867, V-A:ALA:541:CA:4890, V-A:PRO:540:C:4881, V-A:ALA:541:CB:4892, H-B:GLU:543:OE2:9882, H-A:GLU:543:OE1:4909, V-B:GLU:543:CB:9878, V-B:GLU:543:C:9874, V-A:HIS:456:CD2:4068, H-B:LYS:547:NZ:9923, V-B:HIS:456:CD2:9040, V-B:ARG:545:CZ:9898, V-A:GLU:543:C:4902, V-B:LEU:475:CD2:9231, V-B:TYR:484:CE2:9318, V-A:GLU:543:CA:4904"]

$$$$
4bd_Grossjean_2025
     RDKit          3D

 24 26  0  0  0  0  0  0  0  0999 V2000
  130.2490  120.4030   61.1050 C   0  0  0  0  0  0  0  0  0  0  0  0
  130.3150  121.8930   61.3900 C   0  0  0  0  0  0  0  0  0  0  0  0
  131.5300  122.5220   61.6460 C   0  0  0  0  0  0  0  0  0  0  0  0
  131.5760  123.9000   61.9100 C   0  0  0  0  0  0  0  0  0  0  0  0
  132.9370  124.5470   62.1900 C   0  0  0  0  0  0  0  0  0  0  0  0
  133.9500  123.6800   62.1290 F   0  0  0  0  0  0  0  0  0  0  0  0
  133.1750  125.5040   61.2940 F   0  0  0  0  0  0  0  0  0  0  0  0
  132.9410  125.0770   63.4130 F   0  0  0  0  0  0  0  0  0  0  0  0
  130.3380  124.6080   61.9000 C   0  0  0  0  0  0  0  0  0  0  0  0
  129.9970  125.9920   62.1200 C   0  0  0  0  0  0  0  0  0  0  0  0
  130.9370  126.9500   62.4000 N   0  0  0  0  0  0  0  0  0  0  0  0
  128.6220  126.2680   62.0220 C   0  0  0  0  0  0  0  0  0  0  0  0
  127.9330  127.5490   62.2020 C   0  0  0  0  0  0  0  0  0  0  0  0
  126.7160  127.5860   62.3920 O   0  0  0  0  0  0  0  0  0  0  0  0
  128.7260  128.6480   62.1560 N   0  0  0  0  0  0  0  0  0  0  0  0
  128.3770  130.0080   62.2490 C   0  0  0  0  0  0  0  0  0  0  0  0
  129.0350  130.8710   61.3680 C   0  0  0  0  0  0  0  0  0  0  0  0
  128.7510  132.2330   61.3760 C   0  0  0  0  0  0  0  0  0  0  0  0
  127.8010  132.7350   62.2610 C   0  0  0  0  0  0  0  0  0  0  0  0
  127.1280  131.8840   63.1340 C   0  0  0  0  0  0  0  0  0  0  0  0
  127.4090  130.5200   63.1300 C   0  0  0  0  0  0  0  0  0  0  0  0
  127.7060  124.8110   61.6450 S   0  0  0  0  0  0  0  0  0  0  0  0
  129.1620  123.8440   61.6240 C   0  0  0  0  0  0  0  0  0  0  0  0
  129.1250  122.5370   61.3730 N   0  0  0  0  0  0  0  0  0  0  0  0
  1  2  1  0
  2  3  2  0
  3  4  1  0
  4  5  1  0
  5  6  1  0
  5  7  1  0
  5  8  1  0
  4  9  2  0
  9 10  1  0
 10 11  1  0
 10 12  2  0
 12 13  1  0
 13 14  2  0
 13 15  1  0
 15 16  1  0
 16 17  2  0
 17 18  1  0
 18 19  2  0
 19 20  1  0
 20 21  2  0
 12 22  1  0
 22 23  1  0
 23 24  2  0
 24  2  1  0
 23  9  1  0
 21 16  1  0
M  END
>  <Binding energies>  (27) 
[-4.92]

>  <Ligand effiencies>  (27) 
[-0.18222222222222223]

>  <Interactions>  (27) 
["H-A:ASP:366:OD1:3214, V-A:LEU:475:CD2:4259, V-A:GLU:543:CD:4908, V-B:GLU:543:CD:9880, V-B:TYR:539:CD2:9846, V-A:GLY:454:CA:4049, V-A:ILE:369:CD1:3239, H-A:GLU:543:OE2:4910, V-A:ARG:545:CZ:4926, V-A:ASP:366:CG:3213, V-A:GLY:453:C:4042, V-A:ALA:541:CB:4892, V-A:GLY:453:CA:4044, H-A:GLU:543:OE1:4909, H-B:ARG:545:NH2:9900, V-B:LEU:475:CD2:9231"]

$$$$
4be_Grossjean_2025
     RDKit          3D

 25 27  0  0  0  0  0  0  0  0999 V2000
  129.1000  132.9080   60.4480 C   0  0  0  0  0  0  0  0  0  0  0  0
  128.6750  131.9180   61.5150 C   0  0  0  0  0  0  0  0  0  0  0  0
  127.9850  132.3270   62.6590 C   0  0  0  0  0  0  0  0  0  0  0  0
  127.6280  131.3620   63.6000 C   0  0  0  0  0  0  0  0  0  0  0  0
  127.9660  130.0250   63.3790 C   0  0  0  0  0  0  0  0  0  0  0  0
  128.6530  129.6820   62.2090 C   0  0  0  0  0  0  0  0  0  0  0  0
  128.9700  128.3210   62.0490 N   0  0  0  0  0  0  0  0  0  0  0  0
  128.1350  127.2540   61.9830 C   0  0  0  0  0  0  0  0  0  0  0  0
  126.9070  127.3380   62.0520 O   0  0  0  0  0  0  0  0  0  0  0  0
  128.7900  125.9500   61.8420 C   0  0  0  0  0  0  0  0  0  0  0  0
  127.8220  124.4900   61.6470 S   0  0  0  0  0  0  0  0  0  0  0  0
  129.2560  123.4920   61.5940 C   0  0  0  0  0  0  0  0  0  0  0  0
  129.1770  122.1710   61.4450 N   0  0  0  0  0  0  0  0  0  0  0  0
  130.3550  121.5050   61.4180 C   0  0  0  0  0  0  0  0  0  0  0  0
  130.2450  120.0010   61.2500 C   0  0  0  0  0  0  0  0  0  0  0  0
  131.5970  122.1250   61.5320 C   0  0  0  0  0  0  0  0  0  0  0  0
  131.6860  123.5170   61.6880 C   0  0  0  0  0  0  0  0  0  0  0  0
  133.0750  124.1530   61.8060 C   0  0  0  0  0  0  0  0  0  0  0  0
  133.3170  125.0580   60.8540 F   0  0  0  0  0  0  0  0  0  0  0  0
  133.1890  124.7730   62.9810 F   0  0  0  0  0  0  0  0  0  0  0  0
  134.0130  123.2120   61.7120 F   0  0  0  0  0  0  0  0  0  0  0  0
  130.4620  124.2480   61.7260 C   0  0  0  0  0  0  0  0  0  0  0  0
  130.1600  125.6510   61.8770 C   0  0  0  0  0  0  0  0  0  0  0  0
  131.1330  126.6050   62.0330 N   0  0  0  0  0  0  0  0  0  0  0  0
  129.0100  130.6220   61.2860 N   0  0  0  0  0  0  0  0  0  0  0  0
  1  2  1  0
  2  3  2  0
  3  4  1  0
  4  5  2  0
  5  6  1  0
  6  7  1  0
  7  8  1  0
  8  9  2  0
  8 10  1  0
 10 11  1  0
 11 12  1  0
 12 13  2  0
 13 14  1  0
 14 15  1  0
 14 16  2  0
 16 17  1  0
 17 18  1  0
 18 19  1  0
 18 20  1  0
 18 21  1  0
 17 22  2  0
 22 23  1  0
 23 24  1  0
  6 25  2  0
 25  2  1  0
 23 10  2  0
 22 12  1  0
M  END
>  <Binding energies>  (28) 
[-5.05]

>  <Ligand effiencies>  (28) 
[-0.18035714285714285]

>  <Interactions>  (28) 
["V-A:GLU:543:CG:4907, H-A:ASP:366:OD1:3214, V-A:LEU:475:CD2:4259, V-A:GLU:543:CD:4908, V-A:ASP:366:CB:3212, V-B:GLU:543:CD:9880, V-B:TYR:484:CZ:9319, V-A:PRO:540:CA:4883, V-B:TYR:539:CD2:9846, V-A:GLY:454:CA:4049, V-A:ILE:369:CD1:3239, H-A:GLU:543:OE2:4910, V-B:ALA:541:CB:9864, V-A:ARG:545:CZ:4926, V-A:ASP:366:CG:3213, V-A:TYR:539:C:4867, V-A:PRO:540:C:4881, V-A:GLY:453:C:4042, V-A:ALA:541:CB:4892, H-A:GLU:543:OE1:4909, H-A:ASP:366:OD2:3215, H-B:ARG:545:NH2:9900"]

$$$$
4bg_Grossjean_2025
     RDKit          3D

 25 27  0  0  0  0  0  0  0  0999 V2000
  130.4280  120.4780   60.9090 C   0  0  0  0  0  0  0  0  0  0  0  0
  130.3260  121.9470   61.2750 C   0  0  0  0  0  0  0  0  0  0  0  0
  131.4550  122.6760   61.6370 C   0  0  0  0  0  0  0  0  0  0  0  0
  131.3460  124.0340   61.9780 C   0  0  0  0  0  0  0  0  0  0  0  0
  132.6160  124.7960   62.3700 C   0  0  0  0  0  0  0  0  0  0  0  0
  132.5300  125.3710   63.5710 F   0  0  0  0  0  0  0  0  0  0  0  0
  133.6520  123.9570   62.4030 F   0  0  0  0  0  0  0  0  0  0  0  0
  132.8580  125.7590   61.4820 F   0  0  0  0  0  0  0  0  0  0  0  0
  130.0430  124.6140   61.9340 C   0  0  0  0  0  0  0  0  0  0  0  0
  129.5490  125.9400   62.2160 C   0  0  0  0  0  0  0  0  0  0  0  0
  130.3630  126.9640   62.6310 N   0  0  0  0  0  0  0  0  0  0  0  0
  128.1680  126.0890   62.0190 C   0  0  0  0  0  0  0  0  0  0  0  0
  127.3380  127.2740   62.2370 C   0  0  0  0  0  0  0  0  0  0  0  0
  126.7610  127.8350   61.3040 O   0  0  0  0  0  0  0  0  0  0  0  0
  127.2170  127.6830   63.5170 N   0  0  0  0  0  0  0  0  0  0  0  0
  126.4540  128.8470   63.9680 C   0  0  0  0  0  0  0  0  0  0  0  0
  126.9440  130.1630   63.3770 C   0  0  0  0  0  0  0  0  0  0  0  0
  126.0240  131.1280   62.9560 C   0  0  0  0  0  0  0  0  0  0  0  0
  126.4750  132.3450   62.4530 C   0  0  0  0  0  0  0  0  0  0  0  0
  127.8430  132.6010   62.3850 C   0  0  0  0  0  0  0  0  0  0  0  0
  128.7650  131.6500   62.8190 C   0  0  0  0  0  0  0  0  0  0  0  0
  128.3140  130.4320   63.3210 C   0  0  0  0  0  0  0  0  0  0  0  0
  127.4240  124.5740   61.5130 S   0  0  0  0  0  0  0  0  0  0  0  0
  128.9690  123.7580   61.5400 C   0  0  0  0  0  0  0  0  0  0  0  0
  129.0790  122.4690   61.2190 N   0  0  0  0  0  0  0  0  0  0  0  0
  1  2  1  0
  2  3  2  0
  3  4  1  0
  4  5  1  0
  5  6  1  0
  5  7  1  0
  5  8  1  0
  4  9  2  0
  9 10  1  0
 10 11  1  0
 10 12  2  0
 12 13  1  0
 13 14  2  0
 13 15  1  0
 15 16  1  0
 16 17  1  0
 17 18  2  0
 18 19  1  0
 19 20  2  0
 20 21  1  0
 21 22  2  0
 12 23  1  0
 23 24  1  0
 24 25  2  0
 25  2  1  0
 24  9  1  0
 22 17  1  0
M  END
>  <Binding energies>  (29) 
[-5.3]

>  <Ligand effiencies>  (29) 
[-0.18928571428571428]

>  <Interactions>  (29) 
["V-A:GLU:543:CG:4907, V-A:LEU:475:CD2:4259, V-A:GLU:543:CD:4908, V-B:GLU:543:CD:9880, V-B:TYR:539:CD2:9846, V-A:GLY:454:CA:4049, H-A:GLU:543:OE2:4910, V-A:ARG:545:CZ:4926, V-A:ASP:366:CG:3213, V-A:GLY:453:C:4042, V-A:ALA:541:CB:4892, H-B:GLU:543:OE2:9882, H-B:GLU:543:OE1:9881, H-A:GLU:543:OE1:4909, V-B:LEU:475:CD2:9231"]

$$$$
4ca_Grossjean_2025
     RDKit          3D

 34 37  0  0  0  0  0  0  0  0999 V2000
  131.0360  127.2070   73.1270 C   0  0  0  0  0  0  0  0  0  0  0  0
  129.9130  128.2330   72.9480 C   0  0  0  0  0  0  0  0  0  0  0  0
  128.7160  127.5620   72.5750 O   0  0  0  0  0  0  0  0  0  0  0  0
  128.7270  126.5720   71.6440 C   0  0  0  0  0  0  0  0  0  0  0  0
  128.7190  125.3710   71.9310 O   0  0  0  0  0  0  0  0  0  0  0  0
  128.7450  127.0850   70.2340 C   0  0  0  0  0  0  0  0  0  0  0  0
  127.7640  126.6480   69.3340 C   0  0  0  0  0  0  0  0  0  0  0  0
  127.7520  127.1090   68.0210 C   0  0  0  0  0  0  0  0  0  0  0  0
  128.7230  128.0080   67.5780 C   0  0  0  0  0  0  0  0  0  0  0  0
  128.6110  128.4150   66.2340 N   0  0  0  0  0  0  0  0  0  0  0  0
  127.6360  129.1260   65.6150 C   0  0  0  0  0  0  0  0  0  0  0  0
  126.6540  129.5960   66.1890 O   0  0  0  0  0  0  0  0  0  0  0  0
  127.8280  129.3310   64.1780 C   0  0  0  0  0  0  0  0  0  0  0  0
  128.7130  130.7390   63.5950 S   0  0  0  0  0  0  0  0  0  0  0  0
  128.5300  130.2220   61.9350 C   0  0  0  0  0  0  0  0  0  0  0  0
  129.0350  130.9310   60.9280 N   0  0  0  0  0  0  0  0  0  0  0  0
  128.8550  130.4430   59.6740 C   0  0  0  0  0  0  0  0  0  0  0  0
  129.4440  131.2600   58.5600 C   0  0  0  0  0  0  0  0  0  0  0  0
  128.6260  132.0530   57.7400 C   0  0  0  0  0  0  0  0  0  0  0  0
  129.1660  132.8090   56.7020 C   0  0  0  0  0  0  0  0  0  0  0  0
  130.5360  132.7810   56.4680 C   0  0  0  0  0  0  0  0  0  0  0  0
  131.3700  132.0020   57.2640 C   0  0  0  0  0  0  0  0  0  0  0  0
  130.8260  131.2480   58.3000 C   0  0  0  0  0  0  0  0  0  0  0  0
  128.1500  129.2580   59.4350 C   0  0  0  0  0  0  0  0  0  0  0  0
  127.6100  128.5060   60.4900 C   0  0  0  0  0  0  0  0  0  0  0  0
  126.8530  127.2150   60.1570 C   0  0  0  0  0  0  0  0  0  0  0  0
  127.5950  126.1180   60.3120 F   0  0  0  0  0  0  0  0  0  0  0  0
  125.7920  127.0960   60.9560 F   0  0  0  0  0  0  0  0  0  0  0  0
  126.4470  127.2450   58.8880 F   0  0  0  0  0  0  0  0  0  0  0  0
  127.8080  129.0000   61.8110 C   0  0  0  0  0  0  0  0  0  0  0  0
  127.4210  128.5110   63.1120 C   0  0  0  0  0  0  0  0  0  0  0  0
  126.7150  127.3490   63.2870 N   0  0  0  0  0  0  0  0  0  0  0  0
  129.7060  128.4550   68.4720 C   0  0  0  0  0  0  0  0  0  0  0  0
  129.7150  127.9950   69.7870 C   0  0  0  0  0  0  0  0  0  0  0  0
  1  2  1  0
  2  3  1  0
  3  4  1  0
  4  5  2  0
  4  6  1  0
  6  7  2  0
  7  8  1  0
  8  9  2  0
  9 10  1  0
 10 11  1  0
 11 12  2  0
 11 13  1  0
 13 14  1  0
 14 15  1  0
 15 16  2  0
 16 17  1  0
 17 18  1  0
 18 19  2  0
 19 20  1  0
 20 21  2  0
 21 22  1  0
 22 23  2  0
 17 24  2  0
 24 25  1  0
 25 26  1  0
 26 27  1  0
 26 28  1  0
 26 29  1  0
 25 30  2  0
 30 31  1  0
 31 32  1  0
  9 33  1  0
 33 34  2  0
 34  6  1  0
 31 13  2  0
 30 15  1  0
 23 18  1  0
M  END
>  <Binding energies>  (30) 
[-5.89]

>  <Ligand effiencies>  (30) 
[-0.15918918918918917]

>  <Interactions>  (30) 
["V-A:GLU:543:CG:4907, V-A:GLU:543:CD:4908, V-B:GLU:543:CD:9880, V-A:GLU:543:CB:4906, V-A:PRO:540:CA:4883, V-A:PRO:540:CB:4885, H-B:TYR:484:OH:9320, V-B:HIS:456:CE1:9042, H-A:GLU:543:OE2:4910, V-B:ASP:366:CG:8185, V-A:PRO:540:N:4884, V-A:HIS:456:CE1:4070, V-A:TYR:539:C:4867, V-A:TYR:539:CD1:4873, V-A:TYR:539:CG:4872, H-B:GLU:543:OE2:9882, H-B:GLU:543:OE1:9881, H-A:GLU:543:OE1:4909, V-B:GLU:543:CB:9878, V-A:PRO:540:CD:4887, V-B:GLU:543:C:9874, V-A:HIS:456:CD2:4068, H-B:LYS:547:NZ:9923, V-B:HIS:456:CD2:9040, V-B:ARG:545:CZ:9898, V-A:GLU:543:C:4902, V-A:TYR:539:CA:4869, V-A:HIS:456:CG:4066, V-A:GLU:543:CA:4904, V-A:TYR:539:CD2:4874"]

$$$$
4cb_Grossjean_2025
     RDKit          3D

 33 36  0  0  0  0  0  0  0  0999 V2000
  130.7620  128.2190   72.7050 C   0  0  0  0  0  0  0  0  0  0  0  0
  129.3960  128.0010   72.3800 O   0  0  0  0  0  0  0  0  0  0  0  0
  129.0170  126.9300   71.6370 C   0  0  0  0  0  0  0  0  0  0  0  0
  128.8260  125.8060   72.1100 O   0  0  0  0  0  0  0  0  0  0  0  0
  128.8510  127.2480   70.1780 C   0  0  0  0  0  0  0  0  0  0  0  0
  129.6650  128.2280   69.5950 C   0  0  0  0  0  0  0  0  0  0  0  0
  129.5410  128.5400   68.2440 C   0  0  0  0  0  0  0  0  0  0  0  0
  128.5980  127.8860   67.4510 C   0  0  0  0  0  0  0  0  0  0  0  0
  128.5680  128.2690   66.0960 N   0  0  0  0  0  0  0  0  0  0  0  0
  127.6150  128.9320   65.3970 C   0  0  0  0  0  0  0  0  0  0  0  0
  126.5750  129.3720   65.8910 O   0  0  0  0  0  0  0  0  0  0  0  0
  127.9030  129.1250   63.9740 C   0  0  0  0  0  0  0  0  0  0  0  0
  128.7080  130.5920   63.4220 S   0  0  0  0  0  0  0  0  0  0  0  0
  128.7020  130.0290   61.7680 C   0  0  0  0  0  0  0  0  0  0  0  0
  129.2210  130.7580   60.7830 N   0  0  0  0  0  0  0  0  0  0  0  0
  129.1800  130.2320   59.5310 C   0  0  0  0  0  0  0  0  0  0  0  0
  129.7780  131.0760   58.4430 C   0  0  0  0  0  0  0  0  0  0  0  0
  129.0110  132.0550   57.7910 C   0  0  0  0  0  0  0  0  0  0  0  0
  129.5590  132.8390   56.7780 C   0  0  0  0  0  0  0  0  0  0  0  0
  130.8850  132.6530   56.4020 C   0  0  0  0  0  0  0  0  0  0  0  0
  131.6660  131.6870   57.0290 C   0  0  0  0  0  0  0  0  0  0  0  0
  131.1140  130.9060   58.0400 C   0  0  0  0  0  0  0  0  0  0  0  0
  128.5990  128.9860   59.2720 C   0  0  0  0  0  0  0  0  0  0  0  0
  128.0460  128.2110   60.3030 C   0  0  0  0  0  0  0  0  0  0  0  0
  127.4260  126.8530   59.9490 C   0  0  0  0  0  0  0  0  0  0  0  0
  126.1840  126.7080   60.4160 F   0  0  0  0  0  0  0  0  0  0  0  0
  127.3730  126.7140   58.6240 F   0  0  0  0  0  0  0  0  0  0  0  0
  128.1640  125.8710   60.4660 F   0  0  0  0  0  0  0  0  0  0  0  0
  128.0980  128.7460   61.6220 C   0  0  0  0  0  0  0  0  0  0  0  0
  127.6540  128.2500   62.9030 C   0  0  0  0  0  0  0  0  0  0  0  0
  127.0430  127.0320   63.0540 N   0  0  0  0  0  0  0  0  0  0  0  0
  127.7810  126.9010   68.0260 C   0  0  0  0  0  0  0  0  0  0  0  0
  127.9070  126.5890   69.3760 C   0  0  0  0  0  0  0  0  0  0  0  0
  1  2  1  0
  2  3  1  0
  3  4  2  0
  3  5  1  0
  5  6  2  0
  6  7  1  0
  7  8  2  0
  8  9  1  0
  9 10  1  0
 10 11  2  0
 10 12  1  0
 12 13  1  0
 13 14  1  0
 14 15  2  0
 15 16  1  0
 16 17  1  0
 17 18  2  0
 18 19  1  0
 19 20  2  0
 20 21  1  0
 21 22  2  0
 16 23  2  0
 23 24  1  0
 24 25  1  0
 25 26  1  0
 25 27  1  0
 25 28  1  0
 24 29  2  0
 29 30  1  0
 30 31  1  0
  8 32  1  0
 32 33  2  0
 33  5  1  0
 30 12  2  0
 29 14  1  0
 22 17  1  0
M  END
>  <Binding energies>  (31) 
[-5.41]

>  <Ligand effiencies>  (31) 
[-0.1502777777777778]

>  <Interactions>  (31) 
["V-A:GLU:543:CG:4907, V-A:GLU:543:CD:4908, V-B:GLU:543:CD:9880, V-A:GLU:543:CB:4906, V-A:PRO:540:CA:4883, V-A:PRO:540:CB:4885, H-B:TYR:484:OH:9320, V-B:HIS:456:CE1:9042, H-A:GLU:543:OE2:4910, V-B:ASP:366:CG:8185, V-A:PRO:540:N:4884, V-A:HIS:456:CE1:4070, V-A:TYR:539:C:4867, V-A:TYR:539:CD1:4873, V-A:TYR:539:CG:4872, H-B:GLU:543:OE2:9882, H-B:GLU:543:OE1:9881, H-A:GLU:543:OE1:4909, V-B:GLU:543:CB:9878, V-A:PRO:540:CD:4887, V-B:GLU:543:C:9874, V-A:HIS:456:CD2:4068, H-B:LYS:547:NZ:9923, V-A:LYS:547:CE:4950, V-B:HIS:456:CD2:9040, V-A:GLY:544:C:4912, V-A:GLU:543:C:4902, V-A:TYR:539:CA:4869, V-A:GLU:543:CA:4904"]

$$$$
4cc_Grossjean_2025
     RDKit          3D

 31 34  0  0  0  0  0  0  0  0999 V2000
  126.3650  134.0910   60.9860 C   0  0  0  0  0  0  0  0  0  0  0  0
  126.7970  133.5570   62.2330 O   0  0  0  0  0  0  0  0  0  0  0  0
  127.2750  132.2620   62.2830 C   0  0  0  0  0  0  0  0  0  0  0  0
  127.1160  131.4950   61.1290 C   0  0  0  0  0  0  0  0  0  0  0  0
  127.5680  130.1790   61.0840 C   0  0  0  0  0  0  0  0  0  0  0  0
  128.1790  129.6070   62.2020 C   0  0  0  0  0  0  0  0  0  0  0  0
  128.6180  128.2780   62.0580 N   0  0  0  0  0  0  0  0  0  0  0  0
  127.9100  127.1270   62.1530 C   0  0  0  0  0  0  0  0  0  0  0  0
  126.6950  127.0800   62.3550 O   0  0  0  0  0  0  0  0  0  0  0  0
  128.6880  125.8940   61.9960 C   0  0  0  0  0  0  0  0  0  0  0  0
  127.8860  124.3880   61.5530 S   0  0  0  0  0  0  0  0  0  0  0  0
  129.4040  123.5220   61.5730 C   0  0  0  0  0  0  0  0  0  0  0  0
  129.4660  122.2220   61.2940 N   0  0  0  0  0  0  0  0  0  0  0  0
  130.6910  121.6370   61.3250 C   0  0  0  0  0  0  0  0  0  0  0  0
  130.7290  120.1710   61.0090 C   0  0  0  0  0  0  0  0  0  0  0  0
  129.8050  119.2860   61.5890 C   0  0  0  0  0  0  0  0  0  0  0  0
  129.8360  117.9240   61.3020 C   0  0  0  0  0  0  0  0  0  0  0  0
  130.7950  117.4250   60.4270 C   0  0  0  0  0  0  0  0  0  0  0  0
  131.7240  118.2780   59.8410 C   0  0  0  0  0  0  0  0  0  0  0  0
  131.6900  119.6390   60.1320 C   0  0  0  0  0  0  0  0  0  0  0  0
  131.8450  122.3560   61.6530 C   0  0  0  0  0  0  0  0  0  0  0  0
  131.7910  123.7270   61.9510 C   0  0  0  0  0  0  0  0  0  0  0  0
  133.0950  124.4540   62.2960 C   0  0  0  0  0  0  0  0  0  0  0  0
  133.2480  125.6030   61.6320 F   0  0  0  0  0  0  0  0  0  0  0  0
  133.1210  124.7410   63.5970 F   0  0  0  0  0  0  0  0  0  0  0  0
  134.1370  123.6790   61.9960 F   0  0  0  0  0  0  0  0  0  0  0  0
  130.5120  124.3530   61.9120 C   0  0  0  0  0  0  0  0  0  0  0  0
  130.0700  125.7050   62.1530 C   0  0  0  0  0  0  0  0  0  0  0  0
  130.9320  126.7140   62.5020 N   0  0  0  0  0  0  0  0  0  0  0  0
  128.3550  130.3770   63.3620 C   0  0  0  0  0  0  0  0  0  0  0  0
  127.9020  131.6920   63.4020 C   0  0  0  0  0  0  0  0  0  0  0  0
  1  2  1  0
  2  3  1  0
  3  4  2  0
  4  5  1  0
  5  6  2  0
  6  7  1  0
  7  8  1  0
  8  9  2  0
  8 10  1  0
 10 11  1  0
 11 12  1  0
 12 13  2  0
 13 14  1  0
 14 15  1  0
 15 16  2  0
 16 17  1  0
 17 18  2  0
 18 19  1  0
 19 20  2  0
 14 21  2  0
 21 22  1  0
 22 23  1  0
 23 24  1  0
 23 25  1  0
 23 26  1  0
 22 27  2  0
 27 28  1  0
 28 29  1  0
  6 30  1  0
 30 31  2  0
 31  3  1  0
 28 10  2  0
 27 12  1  0
 20 15  1  0
M  END
>  <Binding energies>  (32) 
[-6.31]

>  <Ligand effiencies>  (32) 
[-0.18558823529411764]

>  <Interactions>  (32) 
["V-A:GLU:543:CG:4907, H-A:ASP:366:OD1:3214, V-A:LEU:475:CD2:4259, V-A:GLU:543:CD:4908, V-B:GLU:543:CD:9880, V-B:TYR:539:CD2:9846, V-A:GLY:454:CA:4049, V-B:TYR:539:CE2:9848, V-A:ILE:369:CD1:3239, V-A:TYR:484:CZ:4347, H-A:GLU:543:OE2:4910, V-B:ALA:541:CB:9864, V-A:ARG:545:CZ:4926, V-A:ASP:366:CG:3213, V-A:TYR:539:CD1:4873, V-A:GLY:453:C:4042, V-A:ALA:541:CB:4892, V-A:GLY:453:CA:4044, V-A:LEU:475:CD1:4258, V-A:PRO:482:CB:4326, V-A:SER:385:CB:3409, V-A:LEU:475:CG:4257, H-A:GLU:543:OE1:4909, V-A:PRO:482:CG:4327, H-B:ARG:545:NH2:9900, V-B:LEU:475:CD2:9231"]

$$$$
4ce_Grossjean_2025
     RDKit          3D

 30 33  0  0  0  0  0  0  0  0999 V2000
  127.9540  132.8950   59.9820 C   0  0  0  0  0  0  0  0  0  0  0  0
  127.9700  132.0240   61.2240 C   0  0  0  0  0  0  0  0  0  0  0  0
  127.5550  132.5140   62.4660 C   0  0  0  0  0  0  0  0  0  0  0  0
  127.5890  131.6530   63.5630 C   0  0  0  0  0  0  0  0  0  0  0  0
  128.0290  130.3390   63.3960 C   0  0  0  0  0  0  0  0  0  0  0  0
  128.4350  129.9140   62.1260 C   0  0  0  0  0  0  0  0  0  0  0  0
  128.8450  128.5730   62.0160 N   0  0  0  0  0  0  0  0  0  0  0  0
  128.0790  127.4550   61.9400 C   0  0  0  0  0  0  0  0  0  0  0  0
  126.8470  127.4680   61.9400 O   0  0  0  0  0  0  0  0  0  0  0  0
  128.8170  126.1920   61.8530 C   0  0  0  0  0  0  0  0  0  0  0  0
  127.9750  124.7020   61.4340 S   0  0  0  0  0  0  0  0  0  0  0  0
  129.4640  123.7900   61.5030 C   0  0  0  0  0  0  0  0  0  0  0  0
  129.4890  122.4830   61.2540 N   0  0  0  0  0  0  0  0  0  0  0  0
  130.6970  121.8620   61.3170 C   0  0  0  0  0  0  0  0  0  0  0  0
  130.6910  120.3910   61.0260 C   0  0  0  0  0  0  0  0  0  0  0  0
  129.7420  119.5450   61.6230 C   0  0  0  0  0  0  0  0  0  0  0  0
  129.7350  118.1770   61.3630 C   0  0  0  0  0  0  0  0  0  0  0  0
  130.6800  117.6350   60.4980 C   0  0  0  0  0  0  0  0  0  0  0  0
  131.6320  118.4490   59.8950 C   0  0  0  0  0  0  0  0  0  0  0  0
  131.6370  119.8160   60.1590 C   0  0  0  0  0  0  0  0  0  0  0  0
  131.8670  122.5520   61.6490 C   0  0  0  0  0  0  0  0  0  0  0  0
  131.8510  123.9300   61.9190 C   0  0  0  0  0  0  0  0  0  0  0  0
  133.1700  124.6230   62.2750 C   0  0  0  0  0  0  0  0  0  0  0  0
  134.2450  123.9220   61.9100 F   0  0  0  0  0  0  0  0  0  0  0  0
  133.2370  125.8050   61.6610 F   0  0  0  0  0  0  0  0  0  0  0  0
  133.2410  124.8070   63.5930 F   0  0  0  0  0  0  0  0  0  0  0  0
  130.5930  124.5940   61.8410 C   0  0  0  0  0  0  0  0  0  0  0  0
  130.1910  125.9650   62.0370 C   0  0  0  0  0  0  0  0  0  0  0  0
  131.0770  126.9570   62.3720 N   0  0  0  0  0  0  0  0  0  0  0  0
  128.4010  130.7480   61.0460 N   0  0  0  0  0  0  0  0  0  0  0  0
  1  2  1  0
  2  3  2  0
  3  4  1  0
  4  5  2  0
  5  6  1  0
  6  7  1  0
  7  8  1  0
  8  9  2  0
  8 10  1  0
 10 11  1  0
 11 12  1  0
 12 13  2  0
 13 14  1  0
 14 15  1  0
 15 16  2  0
 16 17  1  0
 17 18  2  0
 18 19  1  0
 19 20  2  0
 14 21  2  0
 21 22  1  0
 22 23  1  0
 23 24  1  0
 23 25  1  0
 23 26  1  0
 22 27  2  0
 27 28  1  0
 28 29  1  0
  6 30  2  0
 30  2  1  0
 28 10  2  0
 27 12  1  0
 20 15  1  0
M  END
>  <Binding energies>  (33) 
[-6.94]

>  <Ligand effiencies>  (33) 
[-0.21030303030303032]

>  <Interactions>  (33) 
["V-A:GLU:543:CG:4907, H-A:ASP:366:OD1:3214, V-A:LEU:475:CD2:4259, V-A:GLU:543:CD:4908, V-B:GLU:543:CD:9880, V-B:TYR:484:CZ:9319, V-B:TYR:539:CD2:9846, V-A:GLY:454:CA:4049, V-B:TYR:539:CE2:9848, V-A:ILE:369:CD1:3239, V-A:TYR:484:CZ:4347, H-A:GLU:543:OE2:4910, V-B:ALA:541:CB:9864, V-A:ARG:545:CZ:4926, V-A:ASP:366:CG:3213, V-B:TYR:539:C:9839, V-A:TYR:539:CD1:4873, V-A:GLY:453:C:4042, V-A:ALA:541:CB:4892, V-A:GLY:453:CA:4044, V-A:LEU:475:CD1:4258, V-A:PRO:482:CB:4326, V-A:SER:385:CB:3409, V-A:LEU:475:CG:4257, H-A:GLU:543:OE1:4909, V-A:PRO:482:CG:4327, H-B:ARG:545:NH2:9900, V-B:LEU:475:CD2:9231"]

$$$$
4cf_Grossjean_2025
     RDKit          3D

 29 32  0  0  0  0  0  0  0  0999 V2000
  131.0100  126.9030   62.4030 N   0  0  0  0  0  0  0  0  0  0  0  0
  130.1350  125.8960   62.0830 C   0  0  0  0  0  0  0  0  0  0  0  0
  128.7500  126.0910   61.9590 C   0  0  0  0  0  0  0  0  0  0  0  0
  127.9780  127.3200   62.1660 C   0  0  0  0  0  0  0  0  0  0  0  0
  126.7480  127.2840   62.2300 O   0  0  0  0  0  0  0  0  0  0  0  0
  128.7110  128.4520   62.2890 N   0  0  0  0  0  0  0  0  0  0  0  0
  128.2850  129.7860   62.4440 C   0  0  0  0  0  0  0  0  0  0  0  0
  127.0730  130.1920   63.0340 C   0  0  0  0  0  0  0  0  0  0  0  0
  126.7650  131.5520   63.1110 C   0  0  0  0  0  0  0  0  0  0  0  0
  127.6760  132.4740   62.5950 C   0  0  0  0  0  0  0  0  0  0  0  0
  128.8470  132.1090   62.0160 N   0  0  0  0  0  0  0  0  0  0  0  0
  129.1320  130.7820   61.9460 C   0  0  0  0  0  0  0  0  0  0  0  0
  127.9320  124.5900   61.5340 S   0  0  0  0  0  0  0  0  0  0  0  0
  129.4450  123.7130   61.5330 C   0  0  0  0  0  0  0  0  0  0  0  0
  129.4920  122.4100   61.2670 N   0  0  0  0  0  0  0  0  0  0  0  0
  130.7130  121.8130   61.3070 C   0  0  0  0  0  0  0  0  0  0  0  0
  130.7350  120.3420   61.0100 C   0  0  0  0  0  0  0  0  0  0  0  0
  131.6930  119.8000   60.1390 C   0  0  0  0  0  0  0  0  0  0  0  0
  131.7210  118.4360   59.8580 C   0  0  0  0  0  0  0  0  0  0  0  0
  130.7880  117.5920   60.4500 C   0  0  0  0  0  0  0  0  0  0  0  0
  129.8290  118.1010   61.3200 C   0  0  0  0  0  0  0  0  0  0  0  0
  129.8060  119.4650   61.5980 C   0  0  0  0  0  0  0  0  0  0  0  0
  131.8790  122.5310   61.5890 C   0  0  0  0  0  0  0  0  0  0  0  0
  131.8390  123.9060   61.8670 C   0  0  0  0  0  0  0  0  0  0  0  0
  133.1550  124.6310   62.1740 C   0  0  0  0  0  0  0  0  0  0  0  0
  133.2800  124.9690   63.4590 F   0  0  0  0  0  0  0  0  0  0  0  0
  134.1850  123.8430   61.8670 F   0  0  0  0  0  0  0  0  0  0  0  0
  133.2300  125.7530   61.4580 F   0  0  0  0  0  0  0  0  0  0  0  0
  130.5630  124.5400   61.8460 C   0  0  0  0  0  0  0  0  0  0  0  0
  1  2  1  0
  2  3  2  0
  3  4  1  0
  4  5  2  0
  4  6  1  0
  6  7  1  0
  7  8  2  0
  8  9  1  0
  9 10  2  0
 10 11  1  0
 11 12  2  0
  3 13  1  0
 13 14  1  0
 14 15  2  0
 15 16  1  0
 16 17  1  0
 17 18  2  0
 18 19  1  0
 19 20  2  0
 20 21  1  0
 21 22  2  0
 16 23  2  0
 23 24  1  0
 24 25  1  0
 25 26  1  0
 25 27  1  0
 25 28  1  0
 24 29  2  0
 29  2  1  0
 12  7  1  0
 29 14  1  0
 22 17  1  0
M  END
>  <Binding energies>  (34) 
[-6.68]

>  <Ligand effiencies>  (34) 
[-0.20875]

>  <Interactions>  (34) 
["V-A:GLU:543:CG:4907, H-A:ASP:366:OD1:3214, V-A:LEU:475:CD2:4259, V-A:GLU:543:CD:4908, V-B:GLU:543:CD:9880, V-B:TYR:539:CD2:9846, V-A:GLY:454:CA:4049, V-B:TYR:539:CE2:9848, V-A:ILE:369:CD1:3239, H-A:GLU:543:OE2:4910, V-B:ALA:541:CB:9864, V-A:ARG:545:CZ:4926, V-A:ASP:366:CG:3213, V-A:GLY:453:C:4042, V-A:ALA:541:CB:4892, V-A:GLY:453:CA:4044, V-A:LEU:475:CD1:4258, V-A:PRO:482:CB:4326, V-A:SER:385:CB:3409, V-A:LEU:475:CG:4257, H-A:GLU:543:OE1:4909, V-A:PRO:482:CG:4327, H-B:ARG:545:NH2:9900, V-B:LEU:475:CD2:9231"]

$$$$
4ci_Grossjean_2025
     RDKit          3D

 28 31  0  0  0  0  0  0  0  0999 V2000
  130.9770  126.7460   61.7380 N   0  0  0  0  0  0  0  0  0  0  0  0
  130.1050  125.6960   61.6230 C   0  0  0  0  0  0  0  0  0  0  0  0
  128.7090  125.8460   61.6640 C   0  0  0  0  0  0  0  0  0  0  0  0
  127.9280  127.0770   61.8160 C   0  0  0  0  0  0  0  0  0  0  0  0
  127.7660  127.8410   60.8610 O   0  0  0  0  0  0  0  0  0  0  0  0
  127.4260  127.3010   63.0560 N   0  0  0  0  0  0  0  0  0  0  0  0
  126.6600  128.3810   63.4760 C   0  0  0  0  0  0  0  0  0  0  0  0
  126.5150  129.5500   62.7300 C   0  0  0  0  0  0  0  0  0  0  0  0
  125.6940  130.3560   63.4830 C   0  0  0  0  0  0  0  0  0  0  0  0
  125.3600  129.7060   64.6230 O   0  0  0  0  0  0  0  0  0  0  0  0
  125.9790  128.4550   64.6070 N   0  0  0  0  0  0  0  0  0  0  0  0
  127.8950  124.2950   61.4760 S   0  0  0  0  0  0  0  0  0  0  0  0
  129.4240  123.4570   61.3540 C   0  0  0  0  0  0  0  0  0  0  0  0
  129.4820  122.1380   61.1860 N   0  0  0  0  0  0  0  0  0  0  0  0
  130.7150  121.5750   61.0980 C   0  0  0  0  0  0  0  0  0  0  0  0
  130.7490  120.0850   60.9140 C   0  0  0  0  0  0  0  0  0  0  0  0
  129.8250  119.2570   61.5730 C   0  0  0  0  0  0  0  0  0  0  0  0
  129.8500  117.8740   61.4060 C   0  0  0  0  0  0  0  0  0  0  0  0
  130.8050  117.2980   60.5750 C   0  0  0  0  0  0  0  0  0  0  0  0
  131.7340  118.0920   59.9140 C   0  0  0  0  0  0  0  0  0  0  0  0
  131.7060  119.4740   60.0850 C   0  0  0  0  0  0  0  0  0  0  0  0
  131.8830  122.3390   61.1970 C   0  0  0  0  0  0  0  0  0  0  0  0
  131.8340  123.7310   61.3730 C   0  0  0  0  0  0  0  0  0  0  0  0
  133.1530  124.5050   61.4730 C   0  0  0  0  0  0  0  0  0  0  0  0
  133.1970  125.3340   62.5180 F   0  0  0  0  0  0  0  0  0  0  0  0
  134.1670  123.6500   61.5990 F   0  0  0  0  0  0  0  0  0  0  0  0
  133.3300  125.2390   60.3730 F   0  0  0  0  0  0  0  0  0  0  0  0
  130.5450  124.3320   61.4540 C   0  0  0  0  0  0  0  0  0  0  0  0
  1  2  1  0
  2  3  2  0
  3  4  1  0
  4  5  2  0
  4  6  1  0
  6  7  1  0
  7  8  1  0
  8  9  2  0
  9 10  1  0
 10 11  1  0
  3 12  1  0
 12 13  1  0
 13 14  2  0
 14 15  1  0
 15 16  1  0
 16 17  2  0
 17 18  1  0
 18 19  2  0
 19 20  1  0
 20 21  2  0
 15 22  2  0
 22 23  1  0
 23 24  1  0
 24 25  1  0
 24 26  1  0
 24 27  1  0
 23 28  2  0
 28  2  1  0
 11  7  2  0
 28 13  1  0
 21 16  1  0
M  END
>  <Binding energies>  (35) 
[-6.46]

>  <Ligand effiencies>  (35) 
[-0.20838709677419354]

>  <Interactions>  (35) 
["V-A:ASP:366:CA:3210, H-A:ASP:366:OD1:3214, V-A:LEU:475:CD2:4259, V-A:GLU:543:CD:4908, V-A:ASP:366:CB:3212, V-B:GLU:543:CD:9880, V-B:TYR:539:CD2:9846, H-B:TYR:484:OH:9320, V-A:GLY:454:CA:4049, V-B:TYR:539:CE2:9848, V-A:ILE:369:CD1:3239, H-A:GLU:543:OE2:4910, V-B:ALA:541:CB:9864, V-A:ARG:545:CZ:4926, V-A:ASP:366:CG:3213, V-A:GLY:453:C:4042, V-A:LEU:475:CD1:4258, V-A:PRO:482:CB:4326, V-A:SER:385:CB:3409, H-B:GLU:543:OE2:9882, H-B:GLU:543:OE1:9881, V-A:LEU:475:CG:4257, H-A:GLU:543:OE1:4909, H-A:ASP:366:OD2:3215, V-A:PRO:482:CG:4327, H-B:ARG:545:NH2:9900, H-B:ARG:545:NE:9896"]

$$$$
8a_Ghoteimi_2023
     RDKit          3D

 40 44  0  0  0  0  0  0  0  0999 V2000
  132.2470  127.4630   74.4810 C   0  0  0  0  0  0  0  0  0  0  0  0
  131.0730  127.3640   75.4590 C   0  0  0  0  0  0  0  0  0  0  0  0
  130.1550  128.4200   75.2040 O   0  0  0  0  0  0  0  0  0  0  0  0
  128.9800  128.1880   74.5620 C   0  0  0  0  0  0  0  0  0  0  0  0
  127.8960  128.0870   75.1440 O   0  0  0  0  0  0  0  0  0  0  0  0
  129.1320  128.0600   73.0740 C   0  0  0  0  0  0  0  0  0  0  0  0
  128.4220  127.0600   72.3980 C   0  0  0  0  0  0  0  0  0  0  0  0
  128.5430  126.9150   71.0180 C   0  0  0  0  0  0  0  0  0  0  0  0
  129.3760  127.7640   70.2870 C   0  0  0  0  0  0  0  0  0  0  0  0
  129.4230  127.5200   68.9000 N   0  0  0  0  0  0  0  0  0  0  0  0
  129.0140  128.2890   67.8600 C   0  0  0  0  0  0  0  0  0  0  0  0
  128.4980  129.4000   67.9800 O   0  0  0  0  0  0  0  0  0  0  0  0
  129.2330  127.7100   66.5310 C   0  0  0  0  0  0  0  0  0  0  0  0
  130.2490  126.2810   66.3380 S   0  0  0  0  0  0  0  0  0  0  0  0
  130.0000  126.2810   64.6070 C   0  0  0  0  0  0  0  0  0  0  0  0
  130.5780  125.3760   63.8170 N   0  0  0  0  0  0  0  0  0  0  0  0
  130.3230  125.4690   62.4850 C   0  0  0  0  0  0  0  0  0  0  0  0
  130.9970  124.4560   61.6160 C   0  0  0  0  0  0  0  0  0  0  0  0
  130.4390  123.1850   61.4190 C   0  0  0  0  0  0  0  0  0  0  0  0
  131.0780  122.2430   60.6170 C   0  0  0  0  0  0  0  0  0  0  0  0
  132.2850  122.5470   59.9920 C   0  0  0  0  0  0  0  0  0  0  0  0
  132.8480  121.5490   59.2170 O   0  0  0  0  0  0  0  0  0  0  0  0
  132.9700  120.2380   59.7580 C   0  0  0  0  0  0  0  0  0  0  0  0
  132.8490  123.8170   60.1770 C   0  0  0  0  0  0  0  0  0  0  0  0
  132.2090  124.7570   60.9820 C   0  0  0  0  0  0  0  0  0  0  0  0
  129.4910  126.4550   61.9510 C   0  0  0  0  0  0  0  0  0  0  0  0
  128.8690  127.3960   62.7790 C   0  0  0  0  0  0  0  0  0  0  0  0
  127.9680  128.4030   62.1630 C   0  0  0  0  0  0  0  0  0  0  0  0
  128.4820  129.6180   61.7040 C   0  0  0  0  0  0  0  0  0  0  0  0
  127.6440  130.5570   61.1070 C   0  0  0  0  0  0  0  0  0  0  0  0
  126.2820  130.2960   60.9530 C   0  0  0  0  0  0  0  0  0  0  0  0
  125.5290  131.2840   60.3500 O   0  0  0  0  0  0  0  0  0  0  0  0
  125.8920  132.6460   60.5390 C   0  0  0  0  0  0  0  0  0  0  0  0
  125.7660  129.0720   61.4060 C   0  0  0  0  0  0  0  0  0  0  0  0
  126.6060  128.1340   62.0020 C   0  0  0  0  0  0  0  0  0  0  0  0
  129.1390  127.3320   64.1750 C   0  0  0  0  0  0  0  0  0  0  0  0
  128.7310  128.1450   65.2940 C   0  0  0  0  0  0  0  0  0  0  0  0
  127.9350  129.2530   65.1490 N   0  0  0  0  0  0  0  0  0  0  0  0
  130.0880  128.7710   70.9560 C   0  0  0  0  0  0  0  0  0  0  0  0
  129.9650  128.9150   72.3350 C   0  0  0  0  0  0  0  0  0  0  0  0
  1  2  1  0
  2  3  1  0
  3  4  1  0
  4  5  2  0
  4  6  1  0
  6  7  2  0
  7  8  1  0
  8  9  2  0
  9 10  1  0
 10 11  1  0
 11 12  2  0
 11 13  1  0
 13 14  1  0
 14 15  1  0
 15 16  2  0
 16 17  1  0
 17 18  1  0
 18 19  2  0
 19 20  1  0
 20 21  2  0
 21 22  1  0
 22 23  1  0
 21 24  1  0
 24 25  2  0
 17 26  2  0
 26 27  1  0
 27 28  1  0
 28 29  2  0
 29 30  1  0
 30 31  2  0
 31 32  1  0
 32 33  1  0
 31 34  1  0
 34 35  2  0
 27 36  2  0
 36 37  1  0
 37 38  1  0
  9 39  1  0
 39 40  2  0
 40  6  1  0
 37 13  2  0
 36 15  1  0
 25 18  1  0
 35 28  1  0
M  END
>  <Binding energies>  (36) 
[-2.96]

>  <Ligand effiencies>  (36) 
[-0.06883720930232558]

>  <Interactions>  (36) 
["V-A:GLU:543:CG:4907, V-A:LEU:475:CD2:4259, V-A:GLU:543:CD:4908, V-B:GLU:543:CD:9880, V-A:ILE:369:CG2:3237, V-A:GLU:543:CB:4906, V-B:TYR:539:CD2:9846, H-B:TYR:484:OH:9320, V-B:HIS:456:CE1:9042, H-A:TYR:484:OH:4348, V-B:TYR:539:CE2:9848, V-B:ASP:366:CG:8185, V-A:TYR:484:CE2:4346, V-A:HIS:456:CE1:4070, V-A:SER:385:CB:3409, V-A:GLY:544:CA:4914, V-A:HIS:456:CD2:4068, H-B:LYS:547:NZ:9923, V-A:LYS:547:CE:4950, V-B:HIS:456:CD2:9040, V-A:LYS:547:CD:4949, H-A:LYS:547:NZ:4951, V-A:GLY:544:C:4912, V-A:GLU:543:C:4902, H-A:HIS:456:NE2:4071"]

$$$$
8c_Ghoteimi_2023
     RDKit          3D

 34 38  0  0  0  0  0  0  0  0999 V2000
  130.7820  127.3560   72.8310 C   0  0  0  0  0  0  0  0  0  0  0  0
  129.5580  127.7590   72.2280 O   0  0  0  0  0  0  0  0  0  0  0  0
  129.4260  127.6800   70.8540 C   0  0  0  0  0  0  0  0  0  0  0  0
  130.2700  128.4930   70.0990 C   0  0  0  0  0  0  0  0  0  0  0  0
  130.2050  128.4810   68.7090 C   0  0  0  0  0  0  0  0  0  0  0  0
  129.2940  127.6550   68.0370 C   0  0  0  0  0  0  0  0  0  0  0  0
  129.2170  127.6400   66.5430 C   0  0  0  0  0  0  0  0  0  0  0  0
  128.4670  128.5840   65.8340 C   0  0  0  0  0  0  0  0  0  0  0  0
  128.4140  128.5500   64.4360 C   0  0  0  0  0  0  0  0  0  0  0  0
  127.6040  129.5580   63.7160 C   0  0  0  0  0  0  0  0  0  0  0  0
  128.0710  130.8680   63.5780 C   0  0  0  0  0  0  0  0  0  0  0  0
  127.3130  131.8120   62.8930 C   0  0  0  0  0  0  0  0  0  0  0  0
  126.0790  131.4650   62.3390 C   0  0  0  0  0  0  0  0  0  0  0  0
  125.3980  132.4670   61.6750 O   0  0  0  0  0  0  0  0  0  0  0  0
  125.9870  133.0630   60.5250 C   0  0  0  0  0  0  0  0  0  0  0  0
  125.6100  130.1500   62.4830 C   0  0  0  0  0  0  0  0  0  0  0  0
  126.3700  129.2060   63.1680 C   0  0  0  0  0  0  0  0  0  0  0  0
  129.1470  127.5350   63.7650 C   0  0  0  0  0  0  0  0  0  0  0  0
  129.3160  127.2130   62.3720 C   0  0  0  0  0  0  0  0  0  0  0  0
  128.7160  127.9360   61.3720 N   0  0  0  0  0  0  0  0  0  0  0  0
  130.1450  126.1030   62.1410 C   0  0  0  0  0  0  0  0  0  0  0  0
  130.5340  125.5060   60.8620 C   0  0  0  0  0  0  0  0  0  0  0  0
  129.7840  124.7200   60.2790 O   0  0  0  0  0  0  0  0  0  0  0  0
  131.7500  125.8780   60.3930 N   0  0  0  0  0  0  0  0  0  0  0  0
  132.3520  125.4650   59.2130 C   0  0  0  0  0  0  0  0  0  0  0  0
  132.1180  125.8960   57.9920 N   0  0  0  0  0  0  0  0  0  0  0  0
  132.8770  125.2810   57.1070 C   0  0  0  0  0  0  0  0  0  0  0  0
  133.7530  124.3230   57.6070 C   0  0  0  0  0  0  0  0  0  0  0  0
  133.5630  124.2290   59.3330 S   0  0  0  0  0  0  0  0  0  0  0  0
  130.7420  125.4280   63.6580 S   0  0  0  0  0  0  0  0  0  0  0  0
  129.8790  126.6310   64.5880 C   0  0  0  0  0  0  0  0  0  0  0  0
  129.9290  126.6620   65.9200 N   0  0  0  0  0  0  0  0  0  0  0  0
  128.4510  126.8380   68.8020 C   0  0  0  0  0  0  0  0  0  0  0  0
  128.5120  126.8480   70.1930 C   0  0  0  0  0  0  0  0  0  0  0  0
  1  2  1  0
  2  3  1  0
  3  4  2  0
  4  5  1  0
  5  6  2  0
  6  7  1  0
  7  8  2  0
  8  9  1  0
  9 10  1  0
 10 11  2  0
 11 12  1  0
 12 13  2  0
 13 14  1  0
 14 15  1  0
 13 16  1  0
 16 17  2  0
  9 18  2  0
 18 19  1  0
 19 20  1  0
 19 21  2  0
 21 22  1  0
 22 23  2  0
 22 24  1  0
 24 25  1  0
 25 26  2  0
 26 27  1  0
 27 28  2  0
 28 29  1  0
 21 30  1  0
 30 31  1  0
 31 32  2  0
  6 33  1  0
 33 34  2  0
 34  3  1  0
 32  7  1  0
 17 10  1  0
 31 18  1  0
 29 25  1  0
M  END
>  <Binding energies>  (37) 
[-2.47]

>  <Ligand effiencies>  (37) 
[-0.06675675675675677]

>  <Interactions>  (37) 
["V-A:ASP:366:C:3208, V-A:GLU:543:CG:4907, V-A:ASP:366:CA:3210, H-A:ASP:366:OD1:3214, V-A:GLU:543:CD:4908, H-B:TYR:539:OH:9850, V-A:ASP:366:CB:3212, V-B:GLU:543:CD:9880, V-B:TYR:539:CZ:9849, V-A:ILE:369:CG2:3237, V-A:GLU:543:CB:4906, V-A:ILE:369:CB:3236, V-B:HIS:456:CE1:9042, V-B:TYR:539:CE2:9848, V-A:ILE:369:CD1:3239, V-A:TYR:484:CZ:4347, V-A:ASP:366:CG:3213, V-A:HIS:456:CE1:4070, V-A:TYR:539:CD1:4873, V-A:TYR:539:CE1:4875, H-A:GLU:543:OE1:4909, H-A:ASP:366:OD2:3215, V-B:GLU:543:CB:9878, V-A:GLY:544:CA:4914, V-A:HIS:456:CD2:4068, V-B:HIS:456:CD2:9040, V-A:GLY:544:C:4912, V-A:GLU:543:C:4902, V-A:HIS:456:CG:4066, V-A:GLU:543:CA:4904"]

$$$$
8d_Ghoteimi_2023
     RDKit          3D

 30 33  0  0  0  0  0  0  0  0999 V2000
  130.4980  131.3850   56.8050 C   0  0  0  0  0  0  0  0  0  0  0  0
  130.7690  130.5880   57.9490 O   0  0  0  0  0  0  0  0  0  0  0  0
  131.6490  129.5550   57.8860 C   0  0  0  0  0  0  0  0  0  0  0  0
  132.7250  129.6010   57.2860 O   0  0  0  0  0  0  0  0  0  0  0  0
  131.1820  128.3550   58.6150 C   0  0  0  0  0  0  0  0  0  0  0  0
  131.8490  126.7700   58.2200 S   0  0  0  0  0  0  0  0  0  0  0  0
  130.8450  126.0030   59.4290 C   0  0  0  0  0  0  0  0  0  0  0  0
  130.8830  124.6880   59.6440 N   0  0  0  0  0  0  0  0  0  0  0  0
  130.0620  124.1950   60.6100 C   0  0  0  0  0  0  0  0  0  0  0  0
  130.1210  122.7160   60.8280 C   0  0  0  0  0  0  0  0  0  0  0  0
  129.0680  122.0320   61.4510 C   0  0  0  0  0  0  0  0  0  0  0  0
  129.1280  120.6570   61.6530 C   0  0  0  0  0  0  0  0  0  0  0  0
  130.2420  119.9280   61.2370 C   0  0  0  0  0  0  0  0  0  0  0  0
  130.2150  118.5680   61.4770 O   0  0  0  0  0  0  0  0  0  0  0  0
  130.3820  117.6670   60.3870 C   0  0  0  0  0  0  0  0  0  0  0  0
  131.3010  120.6010   60.6110 C   0  0  0  0  0  0  0  0  0  0  0  0
  131.2360  121.9770   60.4110 C   0  0  0  0  0  0  0  0  0  0  0  0
  129.2030  125.0130   61.3490 C   0  0  0  0  0  0  0  0  0  0  0  0
  129.1650  126.3930   61.1250 C   0  0  0  0  0  0  0  0  0  0  0  0
  128.2500  127.2350   61.9300 C   0  0  0  0  0  0  0  0  0  0  0  0
  128.6280  127.6630   63.2040 C   0  0  0  0  0  0  0  0  0  0  0  0
  127.7650  128.4470   63.9640 C   0  0  0  0  0  0  0  0  0  0  0  0
  126.5170  128.8180   63.4630 C   0  0  0  0  0  0  0  0  0  0  0  0
  125.7270  129.5950   64.2880 O   0  0  0  0  0  0  0  0  0  0  0  0
  125.3900  129.1130   65.5830 C   0  0  0  0  0  0  0  0  0  0  0  0
  126.1400  128.3890   62.1790 C   0  0  0  0  0  0  0  0  0  0  0  0
  127.0040  127.6050   61.4210 C   0  0  0  0  0  0  0  0  0  0  0  0
  130.0160  126.9300   60.1230 C   0  0  0  0  0  0  0  0  0  0  0  0
  130.2300  128.2660   59.6370 C   0  0  0  0  0  0  0  0  0  0  0  0
  129.5510  129.3500   60.1330 N   0  0  0  0  0  0  0  0  0  0  0  0
  1  2  1  0
  2  3  1  0
  3  4  2  0
  3  5  1  0
  5  6  1  0
  6  7  1  0
  7  8  2  0
  8  9  1  0
  9 10  1  0
 10 11  2  0
 11 12  1  0
 12 13  2  0
 13 14  1  0
 14 15  1  0
 13 16  1  0
 16 17  2  0
  9 18  2  0
 18 19  1  0
 19 20  1  0
 20 21  2  0
 21 22  1  0
 22 23  2  0
 23 24  1  0
 24 25  1  0
 23 26  1  0
 26 27  2  0
 19 28  2  0
 28 29  1  0
 29 30  1  0
 29  5  2  0
 28  7  1  0
 17 10  1  0
 27 20  1  0
M  END
>  <Binding energies>  (38) 
[-3.9]

>  <Ligand effiencies>  (38) 
[-0.121875]

>  <Interactions>  (38) 
["H-A:TYR:531:OH:4795, V-A:LEU:475:CD2:4259, V-A:GLU:543:CD:4908, V-A:ASP:366:CB:3212, V-B:GLU:543:CD:9880, V-B:TYR:484:CZ:9319, V-B:TYR:539:CD2:9846, H-B:TYR:484:OH:9320, V-B:TYR:539:CE2:9848, V-B:PRO:540:CA:9855, V-B:ALA:541:CB:9864, V-A:ASP:366:CG:3213, V-B:TYR:539:C:9839, V-B:PRO:540:C:9853, V-B:ALA:541:CA:9862, V-A:PRO:482:CB:4326, V-B:TYR:539:CB:9843, H-A:GLU:543:OE1:4909, V-A:PRO:482:CG:4327, V-B:ARG:545:CZ:9898, V-B:ARG:545:CD:9895"]

$$$$
9a_Ghoteimi_2023
     RDKit          3D

 48 54  0  0  0  0  0  0  0  0999 V2000
  130.8880  118.6080   62.5640 C   0  0  0  0  0  0  0  0  0  0  0  0
  130.9160  117.1820   62.0040 C   0  0  0  0  0  0  0  0  0  0  0  0
  130.7970  117.2270   60.5870 O   0  0  0  0  0  0  0  0  0  0  0  0
  130.0790  118.2030   59.9750 C   0  0  0  0  0  0  0  0  0  0  0  0
  129.4760  118.0380   58.9090 O   0  0  0  0  0  0  0  0  0  0  0  0
  130.0950  119.5070   60.7180 C   0  0  0  0  0  0  0  0  0  0  0  0
  129.3370  119.6380   61.8890 C   0  0  0  0  0  0  0  0  0  0  0  0
  129.3300  120.8350   62.5990 C   0  0  0  0  0  0  0  0  0  0  0  0
  130.0810  121.9240   62.1570 C   0  0  0  0  0  0  0  0  0  0  0  0
  129.9980  123.0820   62.9540 N   0  0  0  0  0  0  0  0  0  0  0  0
  130.9710  123.9210   63.3900 C   0  0  0  0  0  0  0  0  0  0  0  0
  132.1670  123.7860   63.1320 O   0  0  0  0  0  0  0  0  0  0  0  0
  130.5070  125.0450   64.2090 C   0  0  0  0  0  0  0  0  0  0  0  0
  130.6680  124.9930   65.9650 S   0  0  0  0  0  0  0  0  0  0  0  0
  129.9530  126.5800   66.1230 C   0  0  0  0  0  0  0  0  0  0  0  0
  129.8020  127.1630   67.3120 N   0  0  0  0  0  0  0  0  0  0  0  0
  129.2450  128.4030   67.3240 C   0  0  0  0  0  0  0  0  0  0  0  0
  129.0960  129.0420   68.6670 C   0  0  0  0  0  0  0  0  0  0  0  0
  129.2580  130.4240   68.8190 C   0  0  0  0  0  0  0  0  0  0  0  0
  129.1200  131.0280   70.0660 C   0  0  0  0  0  0  0  0  0  0  0  0
  128.8000  130.2730   71.2060 C   0  0  0  0  0  0  0  0  0  0  0  0
  128.6760  130.8630   72.4680 N   0  0  0  0  0  0  0  0  0  0  0  0
  129.0670  132.2670   72.7060 C   0  0  0  0  0  0  0  0  0  0  0  0
  129.2060  132.6310   74.1990 C   0  0  0  0  0  0  0  0  0  0  0  0
  128.0110  132.3120   74.8910 O   0  0  0  0  0  0  0  0  0  0  0  0
  127.7150  130.9270   74.8050 C   0  0  0  0  0  0  0  0  0  0  0  0
  127.5270  130.5180   73.3300 C   0  0  0  0  0  0  0  0  0  0  0  0
  128.6520  128.8870   71.0500 C   0  0  0  0  0  0  0  0  0  0  0  0
  128.7940  128.2840   69.8040 C   0  0  0  0  0  0  0  0  0  0  0  0
  128.8180  129.0410   66.1570 C   0  0  0  0  0  0  0  0  0  0  0  0
  128.9560  128.4230   64.9090 C   0  0  0  0  0  0  0  0  0  0  0  0
  128.4520  129.1300   63.7040 C   0  0  0  0  0  0  0  0  0  0  0  0
  128.2900  128.4490   62.4950 C   0  0  0  0  0  0  0  0  0  0  0  0
  127.8050  129.1090   61.3710 C   0  0  0  0  0  0  0  0  0  0  0  0
  127.4510  130.4670   61.4290 C   0  0  0  0  0  0  0  0  0  0  0  0
  126.9720  131.1540   60.3110 N   0  0  0  0  0  0  0  0  0  0  0  0
  126.7350  132.6080   60.4070 C   0  0  0  0  0  0  0  0  0  0  0  0
  126.5820  133.2930   59.0320 C   0  0  0  0  0  0  0  0  0  0  0  0
  125.5530  132.6610   58.2860 O   0  0  0  0  0  0  0  0  0  0  0  0
  125.8360  131.2890   58.0600 C   0  0  0  0  0  0  0  0  0  0  0  0
  125.9710  130.5500   59.4090 C   0  0  0  0  0  0  0  0  0  0  0  0
  127.6140  131.1400   62.6480 C   0  0  0  0  0  0  0  0  0  0  0  0
  128.1040  130.4800   63.7720 C   0  0  0  0  0  0  0  0  0  0  0  0
  129.5700  127.1390   64.8690 C   0  0  0  0  0  0  0  0  0  0  0  0
  129.9210  126.2490   63.7890 C   0  0  0  0  0  0  0  0  0  0  0  0
  129.7110  126.5680   62.4720 N   0  0  0  0  0  0  0  0  0  0  0  0
  130.8470  121.8020   60.9870 C   0  0  0  0  0  0  0  0  0  0  0  0
  130.8520  120.6040   60.2770 C   0  0  0  0  0  0  0  0  0  0  0  0
  1  2  1  0
  2  3  1  0
  3  4  1  0
  4  5  2  0
  4  6  1  0
  6  7  2  0
  7  8  1  0
  8  9  2  0
  9 10  1  0
 10 11  1  0
 11 12  2  0
 11 13  1  0
 13 14  1  0
 14 15  1  0
 15 16  2  0
 16 17  1  0
 17 18  1  0
 18 19  2  0
 19 20  1  0
 20 21  2  0
 21 22  1  0
 22 23  1  0
 23 24  1  0
 24 25  1  0
 25 26  1  0
 26 27  1  0
 21 28  1  0
 28 29  2  0
 17 30  2  0
 30 31  1  0
 31 32  1  0
 32 33  2  0
 33 34  1  0
 34 35  2  0
 35 36  1  0
 36 37  1  0
 37 38  1  0
 38 39  1  0
 39 40  1  0
 40 41  1  0
 35 42  1  0
 42 43  2  0
 31 44  2  0
 44 45  1  0
 45 46  1  0
  9 47  1  0
 47 48  2  0
 48  6  1  0
 45 13  2  0
 44 15  1  0
 29 18  1  0
 43 32  1  0
 27 22  1  0
 41 36  1  0
M  END
>  <Binding energies>  (39) 
[1680.0]

>  <Ligand effiencies>  (39) 
[32.94117647058823]

>  <Interactions>  (39) 
["V-A:GLU:543:CG:4907, V-A:LEU:475:CD2:4259, V-A:GLU:543:CD:4908, V-B:GLU:543:CD:9880, V-A:GLU:543:CB:4906, V-B:TYR:539:CD2:9846, V-B:HIS:456:CE1:9042, H-A:TYR:484:OH:4348, V-B:TYR:539:CE2:9848, V-A:TYR:484:CZ:4347, V-B:GLU:543:CG:9879, V-B:ALA:541:CB:9864, V-B:TYR:539:C:9839, V-A:TYR:484:CE2:4346, V-A:HIS:456:CE1:4070, V-B:TYR:539:CG:9844, V-B:PRO:540:C:9853, V-A:TYR:539:CD1:4873, V-A:TYR:539:CG:4872, V-A:TYR:539:CE1:4875, V-A:TYR:484:CE1:4345, V-A:LEU:475:CD1:4258, V-B:ALA:541:CA:9862, V-A:PRO:482:CB:4326, H-B:GLU:543:OE2:9882, V-B:TYR:539:CB:9843, H-B:GLU:543:OE1:9881, V-A:LEU:475:CG:4257, H-A:GLU:543:OE1:4909, V-A:PRO:482:CG:4327, V-A:GLY:544:CA:4914, V-A:LYS:547:CE:4950, V-B:HIS:456:CD2:9040, H-A:LYS:547:NZ:4951, V-A:GLU:543:C:4902, V-B:TYR:539:CA:9841, V-B:TYR:484:CE2:9318, V-A:TYR:539:CZ:4877, V-A:GLU:543:CA:4904, H-A:TYR:539:OH:4878, V-B:HIS:456:CG:9038, V-B:HIS:456:CB:9037, V-A:TYR:484:CD2:4344, V-B:TYR:484:CG:9314, V-B:TYR:484:CD2:9316, V-B:TYR:484:CB:9313, V-A:LEU:475:CB:4256"]

$$$$
9b_Ghoteimi_2023
     RDKit          3D

 42 48  0  0  0  0  0  0  0  0999 V2000
  129.0180  127.6870   61.6210 N   0  0  0  0  0  0  0  0  0  0  0  0
  128.5330  128.3390   62.7260 C   0  0  0  0  0  0  0  0  0  0  0  0
  127.6790  129.4510   62.6550 C   0  0  0  0  0  0  0  0  0  0  0  0
  127.1300  130.1070   61.4660 C   0  0  0  0  0  0  0  0  0  0  0  0
  125.9220  130.3410   61.3780 O   0  0  0  0  0  0  0  0  0  0  0  0
  128.0320  130.4170   60.5020 N   0  0  0  0  0  0  0  0  0  0  0  0
  127.7880  131.0270   59.2780 C   0  0  0  0  0  0  0  0  0  0  0  0
  128.7110  131.8570   58.6440 C   0  0  0  0  0  0  0  0  0  0  0  0
  128.0980  132.2480   57.4760 C   0  0  0  0  0  0  0  0  0  0  0  0
  126.8690  131.6810   57.4110 O   0  0  0  0  0  0  0  0  0  0  0  0
  126.6850  130.9100   58.5580 N   0  0  0  0  0  0  0  0  0  0  0  0
  127.2810  130.0520   64.2640 S   0  0  0  0  0  0  0  0  0  0  0  0
  128.2710  128.8260   65.0180 C   0  0  0  0  0  0  0  0  0  0  0  0
  128.4170  128.7610   66.3400 N   0  0  0  0  0  0  0  0  0  0  0  0
  129.2230  127.7810   66.8250 C   0  0  0  0  0  0  0  0  0  0  0  0
  129.3860  127.7430   68.3100 C   0  0  0  0  0  0  0  0  0  0  0  0
  128.5400  126.9660   69.1110 C   0  0  0  0  0  0  0  0  0  0  0  0
  128.6870  126.9460   70.4940 C   0  0  0  0  0  0  0  0  0  0  0  0
  129.6750  127.7140   71.1300 C   0  0  0  0  0  0  0  0  0  0  0  0
  129.8360  127.7020   72.5200 N   0  0  0  0  0  0  0  0  0  0  0  0
  128.9350  128.4660   73.4060 C   0  0  0  0  0  0  0  0  0  0  0  0
  129.0370  128.0680   74.8920 C   0  0  0  0  0  0  0  0  0  0  0  0
  130.3820  128.1680   75.3300 O   0  0  0  0  0  0  0  0  0  0  0  0
  131.2330  127.3050   74.5940 C   0  0  0  0  0  0  0  0  0  0  0  0
  131.1980  127.6750   73.0950 C   0  0  0  0  0  0  0  0  0  0  0  0
  130.5310  128.4750   70.3210 C   0  0  0  0  0  0  0  0  0  0  0  0
  130.3870  128.4910   68.9370 C   0  0  0  0  0  0  0  0  0  0  0  0
  129.8580  126.8560   65.9910 C   0  0  0  0  0  0  0  0  0  0  0  0
  129.6910  126.9080   64.6020 C   0  0  0  0  0  0  0  0  0  0  0  0
  130.3630  125.8840   63.7620 C   0  0  0  0  0  0  0  0  0  0  0  0
  131.7560  125.8330   63.6930 C   0  0  0  0  0  0  0  0  0  0  0  0
  132.3890  124.8620   62.9230 C   0  0  0  0  0  0  0  0  0  0  0  0
  131.6460  123.9170   62.1990 C   0  0  0  0  0  0  0  0  0  0  0  0
  132.2600  122.9240   61.4310 N   0  0  0  0  0  0  0  0  0  0  0  0
  133.6790  122.5970   61.6760 C   0  0  0  0  0  0  0  0  0  0  0  0
  134.3260  121.7980   60.5240 C   0  0  0  0  0  0  0  0  0  0  0  0
  133.5760  120.6200   60.2690 O   0  0  0  0  0  0  0  0  0  0  0  0
  132.2370  120.9180   59.9010 C   0  0  0  0  0  0  0  0  0  0  0  0
  131.5380  121.6990   61.0340 C   0  0  0  0  0  0  0  0  0  0  0  0
  130.2470  123.9670   62.2910 C   0  0  0  0  0  0  0  0  0  0  0  0
  129.6140  124.9380   63.0620 C   0  0  0  0  0  0  0  0  0  0  0  0
  128.8780  127.9490   64.0710 C   0  0  0  0  0  0  0  0  0  0  0  0
  1  2  1  0
  2  3  2  0
  3  4  1  0
  4  5  2  0
  4  6  1  0
  6  7  1  0
  7  8  1  0
  8  9  2  0
  9 10  1  0
 10 11  1  0
  3 12  1  0
 12 13  1  0
 13 14  2  0
 14 15  1  0
 15 16  1  0
 16 17  2  0
 17 18  1  0
 18 19  2  0
 19 20  1  0
 20 21  1  0
 21 22  1  0
 22 23  1  0
 23 24  1  0
 24 25  1  0
 19 26  1  0
 26 27  2  0
 15 28  2  0
 28 29  1  0
 29 30  1  0
 30 31  2  0
 31 32  1  0
 32 33  2  0
 33 34  1  0
 34 35  1  0
 35 36  1  0
 36 37  1  0
 37 38  1  0
 38 39  1  0
 33 40  1  0
 40 41  2  0
 29 42  2  0
 42  2  1  0
 11  7  2  0
 42 13  1  0
 27 16  1  0
 41 30  1  0
 25 20  1  0
 39 34  1  0
M  END
>  <Binding energies>  (40) 
[-2.02]

>  <Ligand effiencies>  (40) 
[-0.04488888888888889]

>  <Interactions>  (40) 
["V-A:GLU:543:CG:4907, V-A:LEU:475:CD2:4259, V-A:GLU:543:CD:4908, V-B:GLU:543:CD:9880, V-A:ILE:369:CG2:3237, V-B:TYR:484:CZ:9319, V-A:GLU:543:CB:4906, V-A:ILE:369:CB:3236, V-B:TYR:539:CD2:9846, V-B:HIS:456:CE1:9042, V-A:GLY:454:CA:4049, V-B:TYR:539:CE2:9848, V-A:ILE:369:CD1:3239, V-A:ARG:545:CZ:4926, V-A:HIS:456:CE1:4070, V-A:TYR:539:C:4867, V-A:TYR:539:CD1:4873, V-A:TYR:539:CG:4872, V-A:TYR:539:CE1:4875, H-A:GLU:543:OE1:4909, V-A:GLY:544:CA:4914, V-A:HIS:456:CD2:4068, V-A:LYS:547:CE:4950, V-B:HIS:456:CD2:9040, H-A:LYS:547:NZ:4951, V-A:GLY:544:C:4912, V-A:GLU:543:C:4902, V-A:SER:385:C:3405, V-A:TYR:539:CZ:4877, V-A:ILE:369:CG1:3238, V-A:HIS:456:CG:4066, V-A:GLU:543:CA:4904"]

$$$$
9c_Ghoteimi_2023
     RDKit          3D

 42 48  0  0  0  0  0  0  0  0999 V2000
  128.9360  127.6590   61.6210 N   0  0  0  0  0  0  0  0  0  0  0  0
  128.4600  128.3070   62.7320 C   0  0  0  0  0  0  0  0  0  0  0  0
  127.5890  129.4060   62.6720 C   0  0  0  0  0  0  0  0  0  0  0  0
  127.0140  130.0530   61.4890 C   0  0  0  0  0  0  0  0  0  0  0  0
  125.8730  130.5190   61.5170 O   0  0  0  0  0  0  0  0  0  0  0  0
  127.8160  130.0860   60.3970 N   0  0  0  0  0  0  0  0  0  0  0  0
  127.5110  130.6220   59.1530 C   0  0  0  0  0  0  0  0  0  0  0  0
  126.4400  130.4050   58.4200 N   0  0  0  0  0  0  0  0  0  0  0  0
  126.4840  131.0790   57.2870 C   0  0  0  0  0  0  0  0  0  0  0  0
  127.6140  131.8660   57.0820 C   0  0  0  0  0  0  0  0  0  0  0  0
  128.6690  131.7080   58.4550 S   0  0  0  0  0  0  0  0  0  0  0  0
  127.2070  130.0050   64.2860 S   0  0  0  0  0  0  0  0  0  0  0  0
  128.2280  128.7960   65.0270 C   0  0  0  0  0  0  0  0  0  0  0  0
  128.3940  128.7350   66.3470 N   0  0  0  0  0  0  0  0  0  0  0  0
  129.2220  127.7680   66.8200 C   0  0  0  0  0  0  0  0  0  0  0  0
  129.4070  127.7360   68.3030 C   0  0  0  0  0  0  0  0  0  0  0  0
  128.5590  126.9830   69.1230 C   0  0  0  0  0  0  0  0  0  0  0  0
  128.7290  126.9640   70.5040 C   0  0  0  0  0  0  0  0  0  0  0  0
  129.7480  127.7100   71.1180 C   0  0  0  0  0  0  0  0  0  0  0  0
  129.9370  127.6960   72.5050 N   0  0  0  0  0  0  0  0  0  0  0  0
  129.0360  128.4370   73.4110 C   0  0  0  0  0  0  0  0  0  0  0  0
  129.1730  128.0330   74.8940 C   0  0  0  0  0  0  0  0  0  0  0  0
  130.5250  128.1600   75.3070 O   0  0  0  0  0  0  0  0  0  0  0  0
  131.3790  127.3190   74.5500 C   0  0  0  0  0  0  0  0  0  0  0  0
  131.3090  127.6960   73.0550 C   0  0  0  0  0  0  0  0  0  0  0  0
  130.6060  128.4480   70.2900 C   0  0  0  0  0  0  0  0  0  0  0  0
  130.4370  128.4630   68.9090 C   0  0  0  0  0  0  0  0  0  0  0  0
  129.8570  126.8510   65.9790 C   0  0  0  0  0  0  0  0  0  0  0  0
  129.6680  126.8970   64.5930 C   0  0  0  0  0  0  0  0  0  0  0  0
  130.3390  125.8810   63.7450 C   0  0  0  0  0  0  0  0  0  0  0  0
  131.7310  125.8630   63.6350 C   0  0  0  0  0  0  0  0  0  0  0  0
  132.3650  124.9010   62.8540 C   0  0  0  0  0  0  0  0  0  0  0  0
  131.6240  123.9330   62.1590 C   0  0  0  0  0  0  0  0  0  0  0  0
  132.2400  122.9510   61.3780 N   0  0  0  0  0  0  0  0  0  0  0  0
  133.6370  122.5700   61.6700 C   0  0  0  0  0  0  0  0  0  0  0  0
  134.3080  121.7880   60.5200 C   0  0  0  0  0  0  0  0  0  0  0  0
  133.5330  120.6440   60.1930 O   0  0  0  0  0  0  0  0  0  0  0  0
  132.2230  120.9990   59.7780 C   0  0  0  0  0  0  0  0  0  0  0  0
  131.4990  121.7650   60.9060 C   0  0  0  0  0  0  0  0  0  0  0  0
  130.2280  123.9480   62.2940 C   0  0  0  0  0  0  0  0  0  0  0  0
  129.5930  124.9100   63.0750 C   0  0  0  0  0  0  0  0  0  0  0  0
  128.8320  127.9250   64.0710 C   0  0  0  0  0  0  0  0  0  0  0  0
  1  2  1  0
  2  3  2  0
  3  4  1  0
  4  5  2  0
  4  6  1  0
  6  7  1  0
  7  8  2  0
  8  9  1  0
  9 10  2  0
 10 11  1  0
  3 12  1  0
 12 13  1  0
 13 14  2  0
 14 15  1  0
 15 16  1  0
 16 17  2  0
 17 18  1  0
 18 19  2  0
 19 20  1  0
 20 21  1  0
 21 22  1  0
 22 23  1  0
 23 24  1  0
 24 25  1  0
 19 26  1  0
 26 27  2  0
 15 28  2  0
 28 29  1  0
 29 30  1  0
 30 31  2  0
 31 32  1  0
 32 33  2  0
 33 34  1  0
 34 35  1  0
 35 36  1  0
 36 37  1  0
 37 38  1  0
 38 39  1  0
 33 40  1  0
 40 41  2  0
 29 42  2  0
 42  2  1  0
 11  7  1  0
 42 13  1  0
 27 16  1  0
 41 30  1  0
 25 20  1  0
 39 34  1  0
M  END
>  <Binding energies>  (41) 
[-2.1]

>  <Ligand effiencies>  (41) 
[-0.04666666666666667]

>  <Interactions>  (41) 
["V-A:GLU:543:CG:4907, V-A:LEU:475:CD2:4259, V-A:GLU:543:CD:4908, V-B:GLU:543:CD:9880, V-A:ILE:369:CG2:3237, V-B:TYR:484:CZ:9319, V-A:GLU:543:CB:4906, V-A:ILE:369:CB:3236, V-B:TYR:539:CD2:9846, V-B:HIS:456:CE1:9042, V-A:GLY:454:CA:4049, V-B:TYR:539:CE2:9848, V-A:ILE:369:CD1:3239, V-A:TYR:484:CZ:4347, V-A:ARG:545:CZ:4926, V-A:HIS:456:CE1:4070, V-A:TYR:539:CD1:4873, V-A:TYR:539:CG:4872, V-A:TYR:539:CE1:4875, H-A:GLU:543:OE1:4909, V-A:GLY:544:CA:4914, V-A:HIS:456:CD2:4068, V-A:LYS:547:CE:4950, V-B:HIS:456:CD2:9040, H-A:LYS:547:NZ:4951, V-A:GLY:544:C:4912, V-A:GLU:543:C:4902, V-A:SER:385:C:3405, V-A:TYR:539:CZ:4877, V-A:ILE:369:CG1:3238, V-A:HIS:456:CG:4066, V-A:GLU:543:CA:4904"]

$$$$
RR11_Rahimova_2017
     RDKit          3D

 33 38  0  0  0  0  0  0  0  0999 V2000
  131.4930  127.1210   72.6670 N   0  0  0  0  0  0  0  0  0  0  0  0
  130.7570  127.4100   71.5200 C   0  0  0  0  0  0  0  0  0  0  0  0
  131.3440  128.1310   70.4820 C   0  0  0  0  0  0  0  0  0  0  0  0
  130.6080  128.4170   69.3360 C   0  0  0  0  0  0  0  0  0  0  0  0
  129.2810  127.9850   69.2150 C   0  0  0  0  0  0  0  0  0  0  0  0
  128.4910  128.2890   67.9770 C   0  0  0  0  0  0  0  0  0  0  0  0
  128.8140  129.2130   67.0970 N   0  0  0  0  0  0  0  0  0  0  0  0
  127.8450  129.1470   66.1310 C   0  0  0  0  0  0  0  0  0  0  0  0
  127.7090  129.9050   64.9600 C   0  0  0  0  0  0  0  0  0  0  0  0
  126.6280  129.6330   64.1130 C   0  0  0  0  0  0  0  0  0  0  0  0
  126.4520  130.4440   62.8360 C   0  0  0  0  0  0  0  0  0  0  0  0
  127.4110  130.0260   61.7300 C   0  0  0  0  0  0  0  0  0  0  0  0
  127.6300  130.8850   60.6470 C   0  0  0  0  0  0  0  0  0  0  0  0
  128.5070  130.5510   59.6130 C   0  0  0  0  0  0  0  0  0  0  0  0
  129.1780  129.3220   59.6870 C   0  0  0  0  0  0  0  0  0  0  0  0
  130.0720  128.7670   58.8100 N   0  0  0  0  0  0  0  0  0  0  0  0
  130.4010  127.6070   59.3370 C   0  0  0  0  0  0  0  0  0  0  0  0
  131.3540  126.6300   58.7110 C   0  0  0  0  0  0  0  0  0  0  0  0
  131.7390  126.7720   57.3710 C   0  0  0  0  0  0  0  0  0  0  0  0
  132.6150  125.8600   56.7870 C   0  0  0  0  0  0  0  0  0  0  0  0
  133.1130  124.7990   57.5400 C   0  0  0  0  0  0  0  0  0  0  0  0
  133.9860  123.8820   56.9550 N   0  0  0  0  0  0  0  0  0  0  0  0
  132.7420  124.6480   58.8740 C   0  0  0  0  0  0  0  0  0  0  0  0
  131.8660  125.5600   59.4560 C   0  0  0  0  0  0  0  0  0  0  0  0
  129.7590  127.3840   60.5360 N   0  0  0  0  0  0  0  0  0  0  0  0
  128.9560  128.4700   60.7950 C   0  0  0  0  0  0  0  0  0  0  0  0
  128.0840  128.8010   61.8350 C   0  0  0  0  0  0  0  0  0  0  0  0
  125.6930  128.6460   64.4440 C   0  0  0  0  0  0  0  0  0  0  0  0
  125.7970  127.8780   65.6060 C   0  0  0  0  0  0  0  0  0  0  0  0
  126.8900  128.1480   66.4340 C   0  0  0  0  0  0  0  0  0  0  0  0
  127.3360  127.6230   67.6240 N   0  0  0  0  0  0  0  0  0  0  0  0
  128.7030  127.2620   70.2670 C   0  0  0  0  0  0  0  0  0  0  0  0
  129.4370  126.9740   71.4150 C   0  0  0  0  0  0  0  0  0  0  0  0
  1  2  1  0
  2  3  2  0
  3  4  1  0
  4  5  2  0
  5  6  1  0
  6  7  2  0
  7  8  1  0
  8  9  2  0
  9 10  1  0
 10 11  1  0
 11 12  1  0
 12 13  2  0
 13 14  1  0
 14 15  2  0
 15 16  1  0
 16 17  2  0
 17 18  1  0
 18 19  2  0
 19 20  1  0
 20 21  2  0
 21 22  1  0
 21 23  1  0
 23 24  2  0
 17 25  1  0
 25 26  1  0
 26 27  2  0
 10 28  2  0
 28 29  1  0
 29 30  2  0
 30 31  1  0
  5 32  1  0
 32 33  2  0
 33  2  1  0
 31  6  1  0
 30  8  1  0
 27 12  1  0
 26 15  1  0
 24 18  1  0
M  END
>  <Binding energies>  (42) 
[-4.78]

>  <Ligand effiencies>  (42) 
[-0.12256410256410256]

>  <Interactions>  (42) 
["V-A:ASP:366:C:3208, V-A:GLU:543:CG:4907, V-A:ASP:366:CA:3210, V-A:GLU:543:CD:4908, H-B:TYR:539:OH:9850, V-A:ASP:366:CB:3212, V-B:GLU:543:CD:9880, V-B:TYR:539:CZ:9849, V-A:ILE:369:CG2:3237, V-B:TYR:484:CZ:9319, V-A:GLU:543:CB:4906, V-A:ILE:369:CB:3236, V-B:HIS:456:CE1:9042, V-B:TYR:539:CE2:9848, V-A:ASP:366:CG:3213, V-A:HIS:456:CE1:4070, H-B:GLU:543:OE2:9882, V-B:GLU:543:CB:9878, V-B:ARG:545:CG:9894, V-A:GLY:544:CA:4914, V-A:HIS:456:CD2:4068, V-B:HIS:456:CD2:9040, V-A:GLY:544:C:4912, V-A:HIS:456:CB:4065, V-B:ARG:545:CZ:9898, V-A:GLU:543:C:4902, V-A:ARG:545:CA:4919, V-A:HIS:456:CG:4066, V-B:ARG:545:CD:9895, H-A:ASP:366:O:3209, H-A:HIS:456:NE2:4071, H-A:GLY:544:O:4913, H-B:HIS:456:NE2:9043, V-A:ASN:370:CB:3245, V-A:ILE:369:CA:3234, V-A:ILE:369:C:3232, V-A:ASN:370:CA:3243"]

$$$$
RR16_Rahimova_2017
     RDKit          3D

 44 49  0  0  0  0  0  0  0  0999 V2000
  132.0570  127.4050   70.7160 O   0  0  0  0  0  0  0  0  0  0  0  0
  130.7530  127.9010   71.1680 S   0  0  0  0  0  0  0  0  0  0  0  0
  130.6320  129.2030   71.8330 O   0  0  0  0  0  0  0  0  0  0  0  0
  130.0570  126.6760   72.2310 N   0  0  0  0  0  0  0  0  0  0  0  0
  129.9810  126.8930   73.6950 C   0  0  0  0  0  0  0  0  0  0  0  0
  130.1840  125.5380   74.4220 C   0  0  0  0  0  0  0  0  0  0  0  0
  131.4100  124.6960   74.0180 C   0  0  0  0  0  0  0  0  0  0  0  0
  132.7060  125.0900   74.7470 C   0  0  0  0  0  0  0  0  0  0  0  0
  133.0910  126.5770   74.6600 C   0  0  0  0  0  0  0  0  0  0  0  0
  132.0390  127.6080   75.1160 C   0  0  0  0  0  0  0  0  0  0  0  0
  130.9760  128.0140   74.0770 C   0  0  0  0  0  0  0  0  0  0  0  0
  129.6780  127.9110   69.7380 C   0  0  0  0  0  0  0  0  0  0  0  0
  129.9330  128.7760   68.6710 C   0  0  0  0  0  0  0  0  0  0  0  0
  129.0230  128.8620   67.6220 C   0  0  0  0  0  0  0  0  0  0  0  0
  127.8640  128.0830   67.6430 C   0  0  0  0  0  0  0  0  0  0  0  0
  126.6240  128.2940   66.3660 S   0  0  0  0  0  0  0  0  0  0  0  0
  125.8220  129.4710   66.7240 O   0  0  0  0  0  0  0  0  0  0  0  0
  125.9790  126.9910   66.1610 O   0  0  0  0  0  0  0  0  0  0  0  0
  127.5620  128.6810   64.9110 N   0  0  0  0  0  0  0  0  0  0  0  0
  127.4150  127.7000   63.8050 C   0  0  0  0  0  0  0  0  0  0  0  0
  128.4860  127.9420   62.7220 C   0  0  0  0  0  0  0  0  0  0  0  0
  128.4860  129.4110   62.2320 C   0  0  0  0  0  0  0  0  0  0  0  0
  129.5740  129.6840   61.1900 C   0  0  0  0  0  0  0  0  0  0  0  0
  130.3680  130.8340   61.2970 C   0  0  0  0  0  0  0  0  0  0  0  0
  131.3760  131.1180   60.3750 C   0  0  0  0  0  0  0  0  0  0  0  0
  132.1450  132.2470   60.4990 O   0  0  0  0  0  0  0  0  0  0  0  0
  131.5840  130.2140   59.3220 C   0  0  0  0  0  0  0  0  0  0  0  0
  132.4900  130.2200   58.3010 N   0  0  0  0  0  0  0  0  0  0  0  0
  132.2850  129.0780   57.5580 N   0  0  0  0  0  0  0  0  0  0  0  0
  131.2430  128.4070   58.0880 N   0  0  0  0  0  0  0  0  0  0  0  0
  130.8570  127.1100   57.5490 C   0  0  0  0  0  0  0  0  0  0  0  0
  131.7700  125.9850   58.0150 C   0  0  0  0  0  0  0  0  0  0  0  0
  132.6630  125.3890   57.1180 C   0  0  0  0  0  0  0  0  0  0  0  0
  133.5170  124.3730   57.5480 C   0  0  0  0  0  0  0  0  0  0  0  0
  133.4850  123.9480   58.8770 C   0  0  0  0  0  0  0  0  0  0  0  0
  132.5980  124.5400   59.7770 C   0  0  0  0  0  0  0  0  0  0  0  0
  132.5630  124.0250   61.4230 Cl  0  0  0  0  0  0  0  0  0  0  0  0
  131.7400  125.5550   59.3460 C   0  0  0  0  0  0  0  0  0  0  0  0
  130.7730  129.0600   59.2160 C   0  0  0  0  0  0  0  0  0  0  0  0
  129.7600  128.7760   60.1370 C   0  0  0  0  0  0  0  0  0  0  0  0
  128.5120  130.4240   63.4060 C   0  0  0  0  0  0  0  0  0  0  0  0
  127.4470  130.0970   64.4720 C   0  0  0  0  0  0  0  0  0  0  0  0
  127.6320  127.1880   68.6900 C   0  0  0  0  0  0  0  0  0  0  0  0
  128.5390  127.1050   69.7400 C   0  0  0  0  0  0  0  0  0  0  0  0
  1  2  2  0
  2  3  2  0
  2  4  1  0
  4  5  1  0
  5  6  1  0
  6  7  1  0
  7  8  1  0
  8  9  1  0
  9 10  1  0
 10 11  1  0
  2 12  1  0
 12 13  2  0
 13 14  1  0
 14 15  2  0
 15 16  1  0
 16 17  2  0
 16 18  2  0
 16 19  1  0
 19 20  1  0
 20 21  1  0
 21 22  1  0
 22 23  1  0
 23 24  2  0
 24 25  1  0
 25 26  1  0
 25 27  2  0
 27 28  1  0
 28 29  2  0
 29 30  1  0
 30 31  1  0
 31 32  1  0
 32 33  2  0
 33 34  1  0
 34 35  2  0
 35 36  1  0
 36 37  1  0
 36 38  2  0
 30 39  1  0
 39 40  2  0
 22 41  1  0
 41 42  1  0
 15 43  1  0
 43 44  2  0
 11  5  1  0
 44 12  1  0
 42 19  1  0
 40 23  1  0
 39 27  1  0
 38 32  1  0
M  END
>  <Binding energies>  (43) 
[-2.87]

>  <Ligand effiencies>  (43) 
[-0.05979166666666667]

>  <Interactions>  (43) 
["H-A:TYR:531:OH:4795, V-A:ASP:366:C:3208, V-A:GLU:543:CG:4907, V-A:ASP:366:CA:3210, H-A:ASP:366:OD1:3214, V-A:GLU:543:CD:4908, H-A:ALA:541:N:4891, V-A:ASP:366:CB:3212, V-B:GLU:543:CD:9880, V-B:TYR:539:CZ:9849, V-A:ILE:369:CG2:3237, V-B:TYR:484:CZ:9319, V-A:GLU:543:CB:4906, V-A:PRO:540:CA:4883, V-A:ILE:369:CB:3236, V-A:PRO:540:CB:4885, H-B:TYR:484:OH:9320, V-B:HIS:456:CE1:9042, V-B:TYR:539:CE2:9848, V-A:ILE:369:CD1:3239, V-A:ASP:366:CG:3213, V-A:HIS:456:CE1:4070, H-B:ARG:545:NH2:9900, V-B:GLU:543:CB:9878, V-A:GLY:544:CA:4914, V-A:HIS:456:CD2:4068, H-B:LYS:547:NZ:9923, V-A:LYS:547:CE:4950, V-B:HIS:456:CD2:9040, V-A:LYS:547:CD:4949, H-A:LYS:547:NZ:4951, V-A:GLY:544:C:4912, V-A:HIS:456:CB:4065, H-B:ARG:545:NE:9896, V-A:GLU:543:C:4902, V-A:HIS:456:CG:4066, H-A:HIS:456:ND1:4067, V-A:VAL:458:CG2:4087, V-A:GLU:543:CA:4904, V-B:LYS:547:CE:9922, H-B:HIS:456:ND1:9039, H-B:GLU:543:O:9875, H-A:HIS:456:NE2:4071, H-A:ARG:545:N:4920"]

$$$$
RR18_Rahimova_2017
     RDKit          3D

 36 41  0  0  0  0  0  0  0  0999 V2000
  127.2920  122.7940   58.1150 C   0  0  0  0  0  0  0  0  0  0  0  0
  127.8400  123.5630   59.2910 C   0  0  0  0  0  0  0  0  0  0  0  0
  127.3080  123.9940   60.4960 C   0  0  0  0  0  0  0  0  0  0  0  0
  128.3280  124.6650   61.1690 C   0  0  0  0  0  0  0  0  0  0  0  0
  129.4460  124.6190   60.3530 C   0  0  0  0  0  0  0  0  0  0  0  0
  130.8750  125.1410   60.4850 C   0  0  1  0  0  0  0  0  0  0  0  0
  131.8990  124.1830   59.8060 C   0  0  0  0  0  0  0  0  0  0  0  0
  132.1050  122.8350   60.3250 C   0  0  0  0  0  0  0  0  0  0  0  0
  133.1600  122.5020   60.8690 O   0  0  0  0  0  0  0  0  0  0  0  0
  131.0430  122.0120   60.1690 N   0  0  0  0  0  0  0  0  0  0  0  0
  130.8800  120.6550   60.5220 C   0  0  0  0  0  0  0  0  0  0  0  0
  131.7280  119.6290   60.0670 C   0  0  0  0  0  0  0  0  0  0  0  0
  131.5080  118.3060   60.4470 C   0  0  0  0  0  0  0  0  0  0  0  0
  130.4380  117.9870   61.2780 C   0  0  0  0  0  0  0  0  0  0  0  0
  129.5830  118.9910   61.7270 C   0  0  0  0  0  0  0  0  0  0  0  0
  129.7920  120.3230   61.3550 C   0  0  0  0  0  0  0  0  0  0  0  0
  128.8240  121.3840   61.8690 C   0  0  0  0  0  0  0  0  0  0  0  0
  132.5130  124.5950   58.6660 C   0  0  0  0  0  0  0  0  0  0  0  0
  132.3930  125.8390   58.1250 N   0  0  0  0  0  0  0  0  0  0  0  0
  131.7240  126.7370   58.7490 C   0  0  0  0  0  0  0  0  0  0  0  0
  131.6090  128.4100   58.2580 S   0  0  0  0  0  0  0  0  0  0  0  0
  130.5850  128.8100   59.6720 C   0  0  0  0  0  0  0  0  0  0  0  0
  130.0580  130.0410   59.9970 C   0  0  0  0  0  0  0  0  0  0  0  0
  130.3840  131.2250   59.1890 C   0  0  0  0  0  0  0  0  0  0  0  0
  131.0790  131.3270   58.1780 O   0  0  0  0  0  0  0  0  0  0  0  0
  129.7860  132.2750   59.7600 N   0  0  0  0  0  0  0  0  0  0  0  0
  129.0530  131.9370   60.8570 C   0  0  0  0  0  0  0  0  0  0  0  0
  128.2980  132.7790   61.6730 C   0  0  0  0  0  0  0  0  0  0  0  0
  127.5900  132.2270   62.7370 C   0  0  0  0  0  0  0  0  0  0  0  0
  127.6410  130.8520   62.9590 C   0  0  0  0  0  0  0  0  0  0  0  0
  128.4060  130.0290   62.1280 C   0  0  0  0  0  0  0  0  0  0  0  0
  129.1470  130.5720   61.0620 C   0  0  0  0  0  0  0  0  0  0  0  0
  130.4040  127.5890   60.4590 C   0  0  0  0  0  0  0  0  0  0  0  0
  129.8040  127.4900   61.5240 O   0  0  0  0  0  0  0  0  0  0  0  0
  131.0130  126.5160   59.8850 N   0  0  0  0  0  0  0  0  0  0  0  0
  129.1410  123.9470   59.2110 O   0  0  0  0  0  0  0  0  0  0  0  0
  1  2  1  0
  2  3  2  0
  3  4  1  0
  4  5  2  0
  6  5  1  6
  6  7  1  0
  7  8  1  0
  8  9  2  0
  8 10  1  0
 10 11  1  0
 11 12  2  0
 12 13  1  0
 13 14  2  0
 14 15  1  0
 15 16  2  0
 16 17  1  0
  7 18  2  0
 18 19  1  0
 19 20  2  0
 20 21  1  0
 21 22  1  0
 22 23  2  0
 23 24  1  0
 24 25  2  0
 24 26  1  0
 26 27  1  0
 27 28  2  0
 28 29  1  0
 29 30  2  0
 30 31  1  0
 31 32  2  0
 22 33  1  0
 33 34  2  0
 33 35  1  0
  5 36  1  0
 36  2  1  0
 35  6  1  0
 16 11  1  0
 35 20  1  0
 32 23  1  0
 32 27  1  0
M  END
>  <Binding energies>  (44) 
[-7.94]

>  <Ligand effiencies>  (44) 
[-0.20894736842105263]

>  <Interactions>  (44) 
["V-A:LEU:475:CD2:4259, V-A:GLU:543:CD:4908, V-A:ASP:366:CB:3212, V-A:PRO:540:CA:4883, V-B:TYR:539:CD2:9846, V-B:TYR:539:CE2:9848, V-B:PRO:540:CA:9855, V-B:ALA:541:CB:9864, V-A:ASP:366:CG:3213, V-A:PRO:540:N:4884, V-B:TYR:539:C:9839, V-A:TYR:539:C:4867, V-B:PRO:540:C:9853, V-A:PRO:540:C:4881, V-B:PRO:540:N:9856, V-A:ALA:541:CB:4892, V-A:LEU:475:CD1:4258, V-B:ALA:541:CA:9862, V-A:PRO:482:CB:4326, V-A:SER:385:CB:3409, V-A:LEU:475:CG:4257, V-A:PRO:482:CG:4327, H-A:TYR:539:O:4868, H-B:TYR:539:O:9840"]

$$$$
RR20_Rahimova_2017
     RDKit          3D

 38 43  0  0  0  0  0  0  0  0999 V2000
  132.0190  116.9060   58.2890 C   0  0  0  0  0  0  0  0  0  0  0  0
  131.4620  117.8620   59.3280 C   0  0  0  0  0  0  0  0  0  0  0  0
  132.0960  119.0840   59.5580 C   0  0  0  0  0  0  0  0  0  0  0  0
  131.5830  119.9660   60.5050 C   0  0  0  0  0  0  0  0  0  0  0  0
  130.4390  119.6290   61.2380 C   0  0  0  0  0  0  0  0  0  0  0  0
  129.8850  120.6110   62.2470 C   0  0  0  0  0  0  0  0  0  0  0  0
  129.9950  120.3250   63.4420 O   0  0  0  0  0  0  0  0  0  0  0  0
  129.3050  121.7660   61.8080 N   0  0  0  0  0  0  0  0  0  0  0  0
  128.1990  122.4020   62.5420 C   0  0  0  0  0  0  0  0  0  0  0  0
  127.9280  123.7250   61.8450 C   0  0  0  0  0  0  0  0  0  0  0  0
  129.1500  123.9130   60.9990 C   0  0  0  0  0  0  0  0  0  0  0  0
  129.5050  124.9990   60.1970 C   0  0  0  0  0  0  0  0  0  0  0  0
  130.6150  124.9240   59.3460 C   0  0  0  0  0  0  0  0  0  0  0  0
  131.0040  126.0960   58.4890 C   0  0  0  0  0  0  0  0  0  0  0  0
  130.2630  127.1920   58.5490 N   0  0  0  0  0  0  0  0  0  0  0  0
  130.7040  128.1530   57.7780 C   0  0  0  0  0  0  0  0  0  0  0  0
  130.1730  129.4230   57.6070 N   0  0  0  0  0  0  0  0  0  0  0  0
  130.8560  130.5630   57.3410 C   0  0  0  0  0  0  0  0  0  0  0  0
  132.0790  130.6140   57.1910 O   0  0  0  0  0  0  0  0  0  0  0  0
  130.0510  131.8750   57.1910 C   0  0  0  0  0  0  0  0  0  0  0  0
  129.2930  132.2270   58.4060 N   0  0  0  0  0  0  0  0  0  0  0  0
  127.8530  131.9630   58.2660 C   0  0  0  0  0  0  0  0  0  0  0  0
  127.0790  132.5910   59.4480 C   0  0  0  0  0  0  0  0  0  0  0  0
  127.7270  132.3090   60.8030 C   0  0  0  0  0  0  0  0  0  0  0  0
  127.0400  132.5590   61.9960 C   0  0  0  0  0  0  0  0  0  0  0  0
  127.6440  132.3390   63.2320 C   0  0  0  0  0  0  0  0  0  0  0  0
  128.9490  131.8590   63.2880 C   0  0  0  0  0  0  0  0  0  0  0  0
  129.6410  131.5970   62.1070 C   0  0  0  0  0  0  0  0  0  0  0  0
  129.0460  131.8160   60.8600 C   0  0  0  0  0  0  0  0  0  0  0  0
  129.7850  131.4730   59.5650 C   0  0  0  0  0  0  0  0  0  0  0  0
  132.1150  127.7540   56.8790 S   0  0  0  0  0  0  0  0  0  0  0  0
  132.0970  126.1610   57.5990 C   0  0  0  0  0  0  0  0  0  0  0  0
  133.1330  125.1310   57.2060 C   0  0  0  0  0  0  0  0  0  0  0  0
  131.3240  123.7150   59.2760 C   0  0  0  0  0  0  0  0  0  0  0  0
  130.9590  122.6220   60.0610 C   0  0  0  0  0  0  0  0  0  0  0  0
  129.9000  122.7380   60.9710 C   0  0  0  0  0  0  0  0  0  0  0  0
  129.7910  118.4140   60.9810 C   0  0  0  0  0  0  0  0  0  0  0  0
  130.3040  117.5310   60.0340 C   0  0  0  0  0  0  0  0  0  0  0  0
  1  2  1  0
  2  3  2  0
  3  4  1  0
  4  5  2  0
  5  6  1  0
  6  7  2  0
  6  8  1  0
  8  9  1  0
  9 10  1  0
 10 11  1  0
 11 12  2  0
 12 13  1  0
 13 14  1  0
 14 15  1  0
 15 16  2  0
 16 17  1  0
 17 18  1  0
 18 19  2  0
 18 20  1  0
 20 21  1  0
 21 22  1  0
 22 23  1  0
 23 24  1  0
 24 25  2  0
 25 26  1  0
 26 27  2  0
 27 28  1  0
 28 29  2  0
 29 30  1  0
 16 31  1  0
 31 32  1  0
 32 33  1  0
 13 34  2  0
 34 35  1  0
 35 36  2  0
  5 37  1  0
 37 38  2  0
 38  2  1  0
 36  8  1  0
 36 11  1  0
 32 14  2  0
 30 21  1  0
 29 24  1  0
M  END
>  <Binding energies>  (45) 
[-7.98]

>  <Ligand effiencies>  (45) 
[-0.20461538461538462]

>  <Interactions>  (45) 
["H-A:TYR:531:OH:4795, V-A:ASP:366:C:3208, V-A:GLU:543:CG:4907, V-A:ASP:366:CA:3210, V-A:LEU:475:CD2:4259, V-A:GLU:543:CD:4908, V-A:ASP:366:CB:3212, V-B:GLU:543:CD:9880, V-B:TYR:539:CZ:9849, V-A:PRO:540:CA:4883, V-B:TYR:539:CD2:9846, H-A:TYR:484:OH:4348, V-B:TYR:539:CE2:9848, V-A:TYR:531:CZ:4794, V-B:GLU:543:CG:9879, V-B:ALA:541:CB:9864, V-A:ASP:366:CG:3213, V-A:PRO:540:N:4884, V-B:TYR:539:C:9839, V-A:TYR:539:C:4867, V-B:TYR:539:CG:9844, V-A:TYR:539:CD1:4873, V-A:TYR:539:CE1:4875, V-A:TYR:484:CE1:4345, V-A:ALA:541:CB:4892, V-A:LEU:475:CD1:4258, V-B:ALA:541:CA:9862, V-A:PRO:482:CB:4326, V-A:SER:385:CB:3409, V-B:TYR:539:CB:9843, V-A:LEU:475:CG:4257, V-A:PRO:482:CG:4327, V-A:HIS:383:CE1:3394, V-A:LEU:373:CD2:3281, V-A:LEU:373:CD1:3280, V-B:LEU:475:CD2:9231"]

$$$$
RR21_Rahimova_2017
     RDKit          3D

 40 45  0  0  0  0  0  0  0  0999 V2000
  128.7950  122.2100   62.4630 C   0  0  0  0  0  0  0  0  0  0  0  0
  128.5430  123.0900   61.3720 O   0  0  0  0  0  0  0  0  0  0  0  0
  128.0810  124.3670   61.6280 C   0  0  0  0  0  0  0  0  0  0  0  0
  126.8610  124.8760   61.1520 C   0  0  0  0  0  0  0  0  0  0  0  0
  126.4660  126.1780   61.4580 C   0  0  0  0  0  0  0  0  0  0  0  0
  127.2760  127.0020   62.2490 C   0  0  0  0  0  0  0  0  0  0  0  0
  126.8480  128.3990   62.5810 C   0  0  0  0  0  0  0  0  0  0  0  0
  126.8050  129.3140   61.6330 N   0  0  0  0  0  0  0  0  0  0  0  0
  126.3920  130.4510   62.2130 N   0  0  0  0  0  0  0  0  0  0  0  0
  126.2150  131.6440   61.4650 C   0  0  0  0  0  0  0  0  0  0  0  0
  126.7090  132.8690   61.9400 C   0  0  0  0  0  0  0  0  0  0  0  0
  126.5340  134.0320   61.1940 C   0  0  0  0  0  0  0  0  0  0  0  0
  125.8650  133.9750   59.9730 C   0  0  0  0  0  0  0  0  0  0  0  0
  125.3680  132.7660   59.4920 C   0  0  0  0  0  0  0  0  0  0  0  0
  125.5410  131.6020   60.2360 C   0  0  0  0  0  0  0  0  0  0  0  0
  126.1540  130.2420   63.5480 C   0  0  0  0  0  0  0  0  0  0  0  0
  126.4530  128.9180   63.8350 C   0  0  0  0  0  0  0  0  0  0  0  0
  126.3150  128.2200   65.1040 C   0  0  0  0  0  0  0  0  0  0  0  0
  127.1690  128.2110   66.1520 C   0  0  0  0  0  0  0  0  0  0  0  0
  128.7320  129.0460   66.2940 S   0  0  0  0  0  0  0  0  0  0  0  0
  128.9100  128.4080   67.9220 C   0  0  0  0  0  0  0  0  0  0  0  0
  129.8830  128.6130   68.7550 N   0  0  0  0  0  0  0  0  0  0  0  0
  129.8980  128.0420   70.0580 C   0  0  0  0  0  0  0  0  0  0  0  0
  130.7700  128.2030   70.9110 O   0  0  0  0  0  0  0  0  0  0  0  0
  128.7030  127.1780   70.3570 C   0  0  0  0  0  0  0  0  0  0  0  0
  128.6200  126.4920   71.7260 C   0  0  0  0  0  0  0  0  0  0  0  0
  127.9230  127.3200   72.8040 C   0  0  0  0  0  0  0  0  0  0  0  0
  126.5270  127.3370   72.8790 C   0  0  0  0  0  0  0  0  0  0  0  0
  125.8930  128.0790   73.8730 C   0  0  0  0  0  0  0  0  0  0  0  0
  126.6510  128.8030   74.7940 C   0  0  0  0  0  0  0  0  0  0  0  0
  125.9550  129.6000   75.8820 C   0  0  0  0  0  0  0  0  0  0  0  0
  128.0470  128.7770   74.7280 C   0  0  0  0  0  0  0  0  0  0  0  0
  128.6810  128.0370   73.7350 C   0  0  0  0  0  0  0  0  0  0  0  0
  127.7430  126.9790   69.5140 N   0  0  0  0  0  0  0  0  0  0  0  0
  127.8500  127.6120   68.2700 N   0  0  0  0  0  0  0  0  0  0  0  0
  126.8620  127.4510   67.3560 C   0  0  0  0  0  0  0  0  0  0  0  0
  125.8480  126.7630   67.5280 O   0  0  0  0  0  0  0  0  0  0  0  0
  128.4940  126.4980   62.7170 C   0  0  0  0  0  0  0  0  0  0  0  0
  128.8910  125.1960   62.4120 C   0  0  0  0  0  0  0  0  0  0  0  0
  130.0750  124.7390   62.8820 F   0  0  0  0  0  0  0  0  0  0  0  0
  1  2  1  0
  2  3  1  0
  3  4  2  0
  4  5  1  0
  5  6  2  0
  6  7  1  0
  7  8  2  0
  8  9  1  0
  9 10  1  0
 10 11  2  0
 11 12  1  0
 12 13  2  0
 13 14  1  0
 14 15  2  0
  9 16  1  0
 16 17  2  0
 17 18  1  0
 18 19  2  0
 19 20  1  0
 20 21  1  0
 21 22  2  0
 22 23  1  0
 23 24  2  0
 23 25  1  0
 25 26  1  0
 26 27  1  0
 27 28  2  0
 28 29  1  0
 29 30  2  0
 30 31  1  0
 30 32  1  0
 32 33  2  0
 25 34  2  0
 34 35  1  0
 35 36  1  0
 36 37  2  0
  6 38  1  0
 38 39  2  0
 39 40  1  0
 39  3  1  0
 17  7  1  0
 36 19  1  0
 15 10  1  0
 35 21  1  0
 33 27  1  0
M  END
>  <Binding energies>  (46) 
[-4.17]

>  <Ligand effiencies>  (46) 
[-0.10425]

>  <Interactions>  (46) 
["V-A:GLU:543:CG:4907, V-A:GLU:543:CD:4908, V-B:GLU:543:CD:9880, V-A:GLU:543:CB:4906, V-B:HIS:456:CE1:9042, V-A:TYR:484:CZ:4347, V-B:ASP:366:CG:8185, V-B:ALA:541:CB:9864, V-A:HIS:456:CE1:4070, V-A:TYR:539:CD1:4873, V-A:TYR:539:CE1:4875, V-A:TYR:484:CE1:4345, V-B:GLU:543:CB:9878, V-B:ARG:545:CG:9894, V-A:HIS:456:CD2:4068, V-B:HIS:456:CD2:9040, H-B:ARG:545:NE:9896, V-B:ARG:545:CZ:9898, V-B:LEU:475:CD2:9231, V-A:GLU:543:CA:4904, V-B:GLY:544:C:9884, V-B:HIS:456:CG:9038, V-B:HIS:456:CB:9037, V-B:VAL:458:CG2:9059"]

$$$$
RR23_Rahimova_2017
     RDKit          3D

 39 44  0  0  0  0  0  0  0  0999 V2000
  134.0260  131.0530   57.9470 C   0  0  0  0  0  0  0  0  0  0  0  0
  132.5160  131.1100   57.8020 C   0  0  0  0  0  0  0  0  0  0  0  0
  131.6980  130.8190   58.8940 C   0  0  0  0  0  0  0  0  0  0  0  0
  130.3130  130.8810   58.7620 C   0  0  0  0  0  0  0  0  0  0  0  0
  129.7350  131.2240   57.5340 C   0  0  0  0  0  0  0  0  0  0  0  0
  128.2300  131.3060   57.4180 C   0  0  0  0  0  0  0  0  0  0  0  0
  127.7630  132.0680   56.5670 O   0  0  0  0  0  0  0  0  0  0  0  0
  127.4510  130.5350   58.2340 N   0  0  0  0  0  0  0  0  0  0  0  0
  126.2450  131.0750   58.8820 C   0  0  0  0  0  0  0  0  0  0  0  0
  125.5720  129.9020   59.5780 C   0  0  0  0  0  0  0  0  0  0  0  0
  126.2450  128.7160   58.9570 C   0  0  0  0  0  0  0  0  0  0  0  0
  125.9780  127.3590   59.1410 C   0  0  0  0  0  0  0  0  0  0  0  0
  126.8290  126.3880   58.5910 C   0  0  0  0  0  0  0  0  0  0  0  0
  126.5720  124.8840   58.7690 C   0  0  2  0  0  0  0  0  0  0  0  0
  127.2230  124.3540   59.9470 N   0  0  0  0  0  0  0  0  0  0  0  0
  127.5820  123.1440   59.7870 C   0  0  0  0  0  0  0  0  0  0  0  0
  128.2400  122.3400   60.6660 N   0  0  0  0  0  0  0  0  0  0  0  0
  128.7900  122.6710   61.8590 C   0  0  0  0  0  0  0  0  0  0  0  0
  128.7500  123.7870   62.3820 O   0  0  0  0  0  0  0  0  0  0  0  0
  129.5230  121.5330   62.5880 C   0  0  0  0  0  0  0  0  0  0  0  0
  130.3040  120.7500   61.6040 N   0  0  0  0  0  0  0  0  0  0  0  0
  131.4280  121.3860   61.0930 N   0  0  0  0  0  0  0  0  0  0  0  0
  132.1940  120.8080   60.2230 N   0  0  0  0  0  0  0  0  0  0  0  0
  131.8950  119.5170   59.7830 C   0  0  0  0  0  0  0  0  0  0  0  0
  132.7410  118.9240   58.8430 C   0  0  0  0  0  0  0  0  0  0  0  0
  132.4690  117.6340   58.3830 C   0  0  0  0  0  0  0  0  0  0  0  0
  131.3550  116.9390   58.8600 C   0  0  0  0  0  0  0  0  0  0  0  0
  130.5080  117.5310   59.7990 C   0  0  0  0  0  0  0  0  0  0  0  0
  130.7820  118.8230   60.2610 C   0  0  0  0  0  0  0  0  0  0  0  0
  129.8760  119.4830   61.2740 C   0  0  0  0  0  0  0  0  0  0  0  0
  128.8650  118.9490   61.7410 O   0  0  0  0  0  0  0  0  0  0  0  0
  127.2000  122.3870   58.2130 S   0  0  0  0  0  0  0  0  0  0  0  0
  126.9140  124.0280   57.5270 C   0  0  2  0  0  0  0  0  0  0  0  0
  128.1520  124.4550   56.7110 C   0  0  0  0  0  0  0  0  0  0  0  0
  127.9720  126.8050   57.9000 C   0  0  0  0  0  0  0  0  0  0  0  0
  128.2520  128.1620   57.7340 C   0  0  0  0  0  0  0  0  0  0  0  0
  127.3550  129.1250   58.2160 C   0  0  0  0  0  0  0  0  0  0  0  0
  130.5630  131.5420   56.4500 C   0  0  0  0  0  0  0  0  0  0  0  0
  131.9480  131.4810   56.5820 C   0  0  0  0  0  0  0  0  0  0  0  0
  1  2  1  0
  2  3  2  0
  3  4  1  0
  4  5  2  0
  5  6  1  0
  6  7  2  0
  6  8  1  0
  8  9  1  0
  9 10  1  0
 10 11  1  0
 11 12  2  0
 12 13  1  0
 14 13  1  6
 14 15  1  0
 15 16  2  0
 16 17  1  0
 17 18  1  0
 18 19  2  0
 18 20  1  0
 20 21  1  0
 21 22  1  0
 22 23  2  0
 23 24  1  0
 24 25  2  0
 25 26  1  0
 26 27  2  0
 27 28  1  0
 28 29  2  0
 29 30  1  0
 30 31  2  0
 16 32  1  0
 32 33  1  0
 33 34  1  1
 13 35  2  0
 35 36  1  0
 36 37  2  0
  5 38  1  0
 38 39  2  0
 39  2  1  0
 37  8  1  0
 37 11  1  0
 33 14  1  0
 30 21  1  0
 29 24  1  0
M  END
>  <Binding energies>  (47) 
[-9.04]

>  <Ligand effiencies>  (47) 
[-0.22599999999999998]

>  <Interactions>  (47) 
["V-B:MET:535:CE:9807, V-A:LEU:475:CD2:4259, V-A:ASP:366:CB:3212, V-B:TYR:539:CZ:9849, V-A:ILE:369:CG2:3237, V-A:PRO:540:CA:4883, V-A:PRO:540:CB:4885, V-B:TYR:539:CD2:9846, H-A:TYR:484:OH:4348, V-B:TYR:539:CE2:9848, V-A:TYR:484:CZ:4347, V-B:PRO:540:CA:9855, V-B:ASP:366:CB:8184, V-A:LEU:363:CD1:3189, V-B:ASP:366:CG:8185, V-B:ALA:541:CB:9864, H-B:ALA:541:N:9863, V-A:LEU:363:CA:3185, V-A:ASP:366:CG:3213, V-B:TYR:539:C:9839, V-A:LEU:363:CB:3187, V-B:TYR:539:CG:9844, V-A:TYR:539:CE1:4875, V-A:TYR:484:CE1:4345, V-A:LEU:475:CD1:4258, V-A:SER:385:CB:3409, V-B:TYR:539:CB:9843, V-A:HIS:383:CE1:3394, V-A:LEU:373:CD2:3281, V-A:LEU:373:CD1:3280, H-B:TYR:539:O:9840, V-A:SER:385:CA:3407, V-A:LEU:373:CG:3279"]

$$$$
RR26_Rahimova_2017
     RDKit          3D

 38 44  0  0  0  0  0  0  0  0999 V2000
  127.6800  127.4060   72.7750 C   0  0  0  0  0  0  0  0  0  0  0  0
  129.2030  127.3540   72.7810 C   0  0  0  0  0  0  0  0  0  0  0  0
  129.8540  127.1510   74.0020 C   0  0  0  0  0  0  0  0  0  0  0  0
  131.2430  127.0550   74.0610 C   0  0  0  0  0  0  0  0  0  0  0  0
  131.9940  127.1540   72.8940 C   0  0  0  0  0  0  0  0  0  0  0  0
  131.3570  127.3550   71.6710 C   0  0  0  0  0  0  0  0  0  0  0  0
  129.9600  127.4630   71.5940 C   0  0  0  0  0  0  0  0  0  0  0  0
  129.3550  127.6950   70.2390 C   0  0  0  0  0  0  0  0  0  0  0  0
  129.9160  128.4960   69.3370 N   0  0  0  0  0  0  0  0  0  0  0  0
  129.0870  128.3950   68.3340 C   0  0  0  0  0  0  0  0  0  0  0  0
  128.9770  129.0650   66.7480 S   0  0  0  0  0  0  0  0  0  0  0  0
  127.4560  128.1310   66.4840 C   0  0  0  0  0  0  0  0  0  0  0  0
  126.6750  128.1160   65.3810 C   0  0  0  0  0  0  0  0  0  0  0  0
  126.8690  128.8400   64.1350 C   0  0  0  0  0  0  0  0  0  0  0  0
  126.4920  130.1390   63.8320 C   0  0  0  0  0  0  0  0  0  0  0  0
  126.9160  130.4150   62.5570 N   0  0  0  0  0  0  0  0  0  0  0  0
  126.7620  131.6190   61.8220 C   0  0  0  0  0  0  0  0  0  0  0  0
  127.6600  132.6830   61.9900 C   0  0  0  0  0  0  0  0  0  0  0  0
  127.4950  133.8600   61.2640 C   0  0  0  0  0  0  0  0  0  0  0  0
  126.4360  133.9760   60.3680 C   0  0  0  0  0  0  0  0  0  0  0  0
  125.5390  132.9260   60.1890 C   0  0  0  0  0  0  0  0  0  0  0  0
  125.6990  131.7490   60.9150 C   0  0  0  0  0  0  0  0  0  0  0  0
  127.5700  129.3610   62.0460 N   0  0  0  0  0  0  0  0  0  0  0  0
  127.5460  128.4190   62.9680 C   0  0  0  0  0  0  0  0  0  0  0  0
  128.1920  127.0950   62.6990 C   0  0  0  0  0  0  0  0  0  0  0  0
  129.4220  126.7710   63.2920 C   0  0  0  0  0  0  0  0  0  0  0  0
  130.0340  125.5410   63.0450 C   0  0  0  0  0  0  0  0  0  0  0  0
  129.4180  124.6230   62.1980 C   0  0  0  0  0  0  0  0  0  0  0  0
  128.1800  124.9270   61.6130 C   0  0  0  0  0  0  0  0  0  0  0  0
  127.5740  126.1580   61.8570 C   0  0  0  0  0  0  0  0  0  0  0  0
  127.5550  124.0660   60.7330 O   0  0  0  0  0  0  0  0  0  0  0  0
  128.0170  122.7130   60.8090 C   0  0  0  0  0  0  0  0  0  0  0  0
  129.5630  122.6710   60.8800 C   0  0  0  0  0  0  0  0  0  0  0  0
  130.0340  123.4000   62.0180 O   0  0  0  0  0  0  0  0  0  0  0  0
  127.0860  127.3330   67.6490 C   0  0  0  0  0  0  0  0  0  0  0  0
  126.1140  126.5920   67.8070 O   0  0  0  0  0  0  0  0  0  0  0  0
  128.0730  127.5590   68.6210 N   0  0  0  0  0  0  0  0  0  0  0  0
  128.2390  127.0910   69.8610 N   0  0  0  0  0  0  0  0  0  0  0  0
  1  2  1  0
  2  3  2  0
  3  4  1  0
  4  5  2  0
  5  6  1  0
  6  7  2  0
  7  8  1  0
  8  9  1  0
  9 10  2  0
 10 11  1  0
 11 12  1  0
 12 13  2  0
 13 14  1  0
 14 15  2  0
 15 16  1  0
 16 17  1  0
 17 18  2  0
 18 19  1  0
 19 20  2  0
 20 21  1  0
 21 22  2  0
 16 23  1  0
 23 24  2  0
 24 25  1  0
 25 26  2  0
 26 27  1  0
 27 28  2  0
 28 29  1  0
 29 30  2  0
 29 31  1  0
 31 32  1  0
 32 33  1  0
 33 34  1  0
 12 35  1  0
 35 36  2  0
 35 37  1  0
 37 38  1  0
  7  2  1  0
 38  8  2  0
 37 10  1  0
 24 14  1  0
 30 25  1  0
 22 17  1  0
 34 28  1  0
M  END
>  <Binding energies>  (48) 
[-4.44]

>  <Ligand effiencies>  (48) 
[-0.1168421052631579]

>  <Interactions>  (48) 
["V-A:GLU:543:CG:4907, V-A:GLU:543:CD:4908, V-B:GLU:543:CD:9880, V-A:GLU:543:CB:4906, V-B:HIS:456:CE1:9042, H-A:TYR:484:OH:4348, V-B:PRO:540:CA:9855, V-A:HIS:456:CE1:4070, V-A:TYR:539:CD1:4873, V-A:TYR:539:CE1:4875, V-A:ALA:541:CB:4892, V-B:GLU:543:CB:9878, V-B:ARG:545:CG:9894, V-A:HIS:456:CD2:4068, V-B:HIS:456:CD2:9040, V-A:GLY:544:C:4912, V-A:HIS:456:CB:4065, H-B:ARG:545:NE:9896, V-B:LEU:475:CD2:9231, V-A:HIS:456:CG:4066, V-A:GLU:543:CA:4904, V-B:HIS:456:CG:9038"]

$$$$
RR2_Rahimova_2017
     RDKit          3D

 46 50  0  0  0  0  0  0  0  0999 V2000
  128.5980  126.9710   71.5600 C   0  0  0  0  0  0  0  0  0  0  0  0
  128.2120  126.2250   70.4110 O   0  0  0  0  0  0  0  0  0  0  0  0
  128.1080  126.8700   69.1930 C   0  0  0  0  0  0  0  0  0  0  0  0
  129.1380  127.6130   68.6000 C   0  0  0  0  0  0  0  0  0  0  0  0
  128.9400  128.2320   67.3690 C   0  0  0  0  0  0  0  0  0  0  0  0
  127.7110  128.1250   66.7030 C   0  0  0  0  0  0  0  0  0  0  0  0
  127.5190  128.8140   65.3660 C   0  0  0  0  0  0  0  0  0  0  0  0
  127.3050  128.1480   64.3470 O   0  0  0  0  0  0  0  0  0  0  0  0
  127.6140  130.1640   65.3790 N   0  0  0  0  0  0  0  0  0  0  0  0
  127.5380  130.8390   64.1660 N   0  0  0  0  0  0  0  0  0  0  0  0
  126.3750  130.8010   63.4860 C   0  0  0  0  0  0  0  0  0  0  0  0
  125.4200  130.0680   63.7620 O   0  0  0  0  0  0  0  0  0  0  0  0
  126.2670  131.7740   62.3040 C   0  0  0  0  0  0  0  0  0  0  0  0
  125.9470  130.9890   60.6820 S   0  0  0  0  0  0  0  0  0  0  0  0
  126.5000  129.3410   61.0030 C   0  0  0  0  0  0  0  0  0  0  0  0
  125.6800  128.3400   61.2030 N   0  0  0  0  0  0  0  0  0  0  0  0
  126.4490  127.2230   61.4950 N   0  0  0  0  0  0  0  0  0  0  0  0
  127.7090  127.5840   61.4310 C   0  0  0  0  0  0  0  0  0  0  0  0
  128.8470  126.6440   61.6690 C   0  0  0  0  0  0  0  0  0  0  0  0
  128.5930  125.2870   61.8830 C   0  0  0  0  0  0  0  0  0  0  0  0
  129.6450  124.4060   62.1140 C   0  0  0  0  0  0  0  0  0  0  0  0
  130.9640  124.8710   62.1150 C   0  0  0  0  0  0  0  0  0  0  0  0
  132.0630  124.0310   62.3520 N   0  0  0  0  0  0  0  0  0  0  0  0
  133.0030  123.2120   61.0840 S   0  0  0  0  0  0  0  0  0  0  0  0
  134.3220  122.9440   61.6690 O   0  0  0  0  0  0  0  0  0  0  0  0
  132.8730  123.9900   59.8470 O   0  0  0  0  0  0  0  0  0  0  0  0
  132.2050  121.6240   60.8610 C   0  0  0  0  0  0  0  0  0  0  0  0
  132.8490  120.5960   60.1690 C   0  0  0  0  0  0  0  0  0  0  0  0
  132.2050  119.3740   59.9930 C   0  0  0  0  0  0  0  0  0  0  0  0
  130.9230  119.1790   60.5130 C   0  0  0  0  0  0  0  0  0  0  0  0
  130.2170  117.8510   60.3070 C   0  0  0  0  0  0  0  0  0  0  0  0
  130.2810  120.2100   61.2010 C   0  0  0  0  0  0  0  0  0  0  0  0
  130.9220  121.4330   61.3760 C   0  0  0  0  0  0  0  0  0  0  0  0
  131.2170  126.2260   61.8980 C   0  0  0  0  0  0  0  0  0  0  0  0
  130.1650  127.1100   61.6740 C   0  0  0  0  0  0  0  0  0  0  0  0
  127.8140  128.9300   61.1240 N   0  0  0  0  0  0  0  0  0  0  0  0
  128.9810  129.7140   61.0060 C   0  0  0  0  0  0  0  0  0  0  0  0
  129.2510  130.7080   61.9480 C   0  0  0  0  0  0  0  0  0  0  0  0
  130.4060  131.4740   61.8290 C   0  0  0  0  0  0  0  0  0  0  0  0
  131.2960  131.2600   60.7750 C   0  0  0  0  0  0  0  0  0  0  0  0
  132.4140  132.0710   60.7400 O   0  0  0  0  0  0  0  0  0  0  0  0
  133.6920  131.4840   60.5140 C   0  0  0  0  0  0  0  0  0  0  0  0
  131.0160  130.2570   59.8320 C   0  0  0  0  0  0  0  0  0  0  0  0
  129.8640  129.4870   59.9480 C   0  0  0  0  0  0  0  0  0  0  0  0
  126.6870  127.3740   67.3000 C   0  0  0  0  0  0  0  0  0  0  0  0
  126.8870  126.7560   68.5300 C   0  0  0  0  0  0  0  0  0  0  0  0
  1  2  1  0
  2  3  1  0
  3  4  2  0
  4  5  1  0
  5  6  2  0
  6  7  1  0
  7  8  2  0
  7  9  1  0
  9 10  1  0
 10 11  1  0
 11 12  2  0
 11 13  1  0
 13 14  1  0
 14 15  1  0
 15 16  2  0
 16 17  1  0
 17 18  2  0
 18 19  1  0
 19 20  2  0
 20 21  1  0
 21 22  2  0
 22 23  1  0
 23 24  1  0
 24 25  2  0
 24 26  2  0
 24 27  1  0
 27 28  2  0
 28 29  1  0
 29 30  2  0
 30 31  1  0
 30 32  1  0
 32 33  2  0
 22 34  1  0
 34 35  2  0
 18 36  1  0
 36 37  1  0
 37 38  2  0
 38 39  1  0
 39 40  2  0
 40 41  1  0
 41 42  1  0
 40 43  1  0
 43 44  2  0
  6 45  1  0
 45 46  2  0
 46  3  1  0
 36 15  1  0
 44 37  1  0
 35 19  1  0
 33 27  1  0
M  END
>  <Binding energies>  (49) 
[-7.7]

>  <Ligand effiencies>  (49) 
[-0.15714285714285714]

>  <Interactions>  (49) 
["V-A:GLU:543:CG:4907, V-A:LEU:475:CD2:4259, V-A:GLU:543:CD:4908, H-A:ALA:541:N:4891, V-B:GLU:543:CD:9880, V-A:ILE:369:CG2:3237, V-B:TYR:484:CZ:9319, V-A:GLU:543:CB:4906, V-A:PRO:540:CA:4883, V-A:PRO:540:CB:4885, V-B:TYR:539:CD2:9846, H-B:TYR:484:OH:9320, V-A:ASN:362:CB:3176, V-B:HIS:456:CE1:9042, H-A:TYR:484:OH:4348, V-B:TYR:539:CE2:9848, V-A:TYR:484:CZ:4347, V-A:ASN:362:C:3172, V-A:LEU:363:CA:3185, V-A:ASP:366:CG:3213, V-B:TYR:539:C:9839, V-A:HIS:456:CE1:4070, H-A:GLY:454:N:4050, V-A:ALA:541:CB:4892, V-A:PRO:482:CB:4326, V-A:SER:385:CB:3409, V-B:TYR:539:CB:9843, V-A:PRO:482:CG:4327, H-B:ARG:545:NH2:9900, V-B:GLU:543:CB:9878, V-B:ARG:545:CG:9894, V-A:HIS:456:CD2:4068, V-B:HIS:456:CD2:9040, V-B:TYR:484:CE2:9318"]

$$$$
RR33_Rahimova_2017
     RDKit          3D

 18 19  0  0  0  0  0  0  0  0999 V2000
  133.9690  124.3460   65.7860 C   0  0  0  0  0  0  0  0  0  0  0  0
  133.4070  125.3790   64.8050 C   0  0  0  0  0  0  0  0  0  0  0  0
  133.5850  124.8930   63.4770 O   0  0  0  0  0  0  0  0  0  0  0  0
  132.4820  124.7370   62.6590 C   0  0  0  0  0  0  0  0  0  0  0  0
  132.4930  123.6350   61.8050 C   0  0  0  0  0  0  0  0  0  0  0  0
  131.4270  123.3980   60.9420 C   0  0  0  0  0  0  0  0  0  0  0  0
  130.3290  124.2630   60.9210 C   0  0  0  0  0  0  0  0  0  0  0  0
  129.1840  124.0070   59.9940 C   0  0  0  0  0  0  0  0  0  0  0  0
  129.2320  123.8140   58.6940 N   0  0  0  0  0  0  0  0  0  0  0  0
  127.9750  123.6300   58.3220 C   0  0  0  0  0  0  0  0  0  0  0  0
  127.6250  123.3620   56.8740 C   0  0  0  0  0  0  0  0  0  0  0  0
  126.8750  122.1210   56.7490 N   0  0  0  0  0  0  0  0  0  0  0  0
  125.4880  122.3920   56.4110 C   0  0  0  0  0  0  0  0  0  0  0  0
  127.1430  123.7170   59.4300 C   0  0  0  0  0  0  0  0  0  0  0  0
  125.6570  123.5990   59.6680 C   0  0  0  0  0  0  0  0  0  0  0  0
  127.9270  123.9610   60.5050 O   0  0  0  0  0  0  0  0  0  0  0  0
  130.3120  125.3670   61.7800 C   0  0  0  0  0  0  0  0  0  0  0  0
  131.3790  125.6050   62.6430 C   0  0  0  0  0  0  0  0  0  0  0  0
  1  2  1  0
  2  3  1  0
  3  4  1  0
  4  5  2  0
  5  6  1  0
  6  7  2  0
  7  8  1  0
  8  9  2  0
  9 10  1  0
 10 11  1  0
 11 12  1  0
 12 13  1  0
 10 14  2  0
 14 15  1  0
 14 16  1  0
  7 17  1  0
 17 18  2  0
 18  4  1  0
 16  8  1  0
M  END
>  <Binding energies>  (50) 
[-4.75]

>  <Ligand effiencies>  (50) 
[-0.25]

>  <Interactions>  (50) 
["V-B:MET:535:CE:9807, V-B:TYR:539:CZ:9849, V-A:GLY:454:CA:4049, H-A:TYR:484:OH:4348, V-B:TYR:539:CE2:9848, V-A:TYR:484:CZ:4347, V-B:PRO:540:CA:9855, V-A:ARG:545:CZ:4926, H-A:ARG:545:NH2:4928, H-A:ARG:545:NE:4924, V-A:TYR:484:CE2:4346, H-A:GLY:454:N:4050, V-A:ARG:545:CD:4923, V-B:PRO:540:N:9856, H-B:TYR:539:N:9842, V-A:GLY:453:C:4042, V-B:PRO:540:CB:9857, H-B:TYR:539:O:9840, V-B:PRO:540:CD:9859, V-A:ILE:455:C:4052, V-A:GLY:454:C:4047, V-B:ILE:538:CA:9832, V-B:ILE:538:CG2:9835, V-B:ILE:538:CD1:9837"]

$$$$
RR3_Rahimova_2017
     RDKit          3D

 38 44  0  0  0  0  0  0  0  0999 V2000
  130.4990  119.3850   61.2590 C   0  0  0  0  0  0  0  0  0  0  0  0
  131.2990  120.3270   60.6210 C   0  0  0  0  0  0  0  0  0  0  0  0
  131.0040  121.6810   60.7470 C   0  0  0  0  0  0  0  0  0  0  0  0
  129.9090  122.1110   61.5110 C   0  0  0  0  0  0  0  0  0  0  0  0
  129.5930  123.5680   61.6470 C   0  0  0  0  0  0  0  0  0  0  0  0
  128.2970  124.0490   61.4180 C   0  0  0  0  0  0  0  0  0  0  0  0
  128.0050  125.4040   61.5410 C   0  0  0  0  0  0  0  0  0  0  0  0
  129.0070  126.3140   61.8890 C   0  0  0  0  0  0  0  0  0  0  0  0
  128.7010  127.7730   62.0170 C   0  0  0  0  0  0  0  0  0  0  0  0
  128.6060  128.5300   60.9300 N   0  0  0  0  0  0  0  0  0  0  0  0
  128.2900  129.7350   61.3390 C   0  0  0  0  0  0  0  0  0  0  0  0
  128.0830  130.8920   60.4710 C   0  0  0  0  0  0  0  0  0  0  0  0
  127.3930  132.0440   60.8070 C   0  0  0  0  0  0  0  0  0  0  0  0
  127.4030  132.9250   59.7570 N   0  0  0  0  0  0  0  0  0  0  0  0
  128.0960  132.3830   58.6980 C   0  0  0  0  0  0  0  0  0  0  0  0
  128.3710  132.8980   57.4260 C   0  0  0  0  0  0  0  0  0  0  0  0
  129.1100  132.0910   56.5620 C   0  0  0  0  0  0  0  0  0  0  0  0
  129.5560  130.8290   56.9380 C   0  0  0  0  0  0  0  0  0  0  0  0
  129.2830  130.3150   58.2040 C   0  0  0  0  0  0  0  0  0  0  0  0
  128.5410  131.0890   59.1150 C   0  0  0  0  0  0  0  0  0  0  0  0
  128.1830  129.7770   62.7020 N   0  0  0  0  0  0  0  0  0  0  0  0
  128.4660  128.5240   63.1820 C   0  0  0  0  0  0  0  0  0  0  0  0
  128.5060  128.2040   64.6400 C   0  0  0  0  0  0  0  0  0  0  0  0
  127.5570  128.7540   65.5030 C   0  0  0  0  0  0  0  0  0  0  0  0
  127.5980  128.4690   66.8640 C   0  0  0  0  0  0  0  0  0  0  0  0
  128.5850  127.6240   67.3940 C   0  0  0  0  0  0  0  0  0  0  0  0
  128.6380  127.3350   68.8610 C   0  0  0  0  0  0  0  0  0  0  0  0
  129.6510  127.8800   69.6660 C   0  0  0  0  0  0  0  0  0  0  0  0
  129.6970  127.6140   71.0330 C   0  0  0  0  0  0  0  0  0  0  0  0
  128.7290  126.8000   71.6100 C   0  0  0  0  0  0  0  0  0  0  0  0
  127.7150  126.2500   70.8320 C   0  0  0  0  0  0  0  0  0  0  0  0
  127.6720  126.5160   69.4660 C   0  0  0  0  0  0  0  0  0  0  0  0
  129.5210  127.0650   66.5140 C   0  0  0  0  0  0  0  0  0  0  0  0
  129.4830  127.3480   65.1520 C   0  0  0  0  0  0  0  0  0  0  0  0
  130.2990  125.8430   62.1310 C   0  0  0  0  0  0  0  0  0  0  0  0
  130.5880  124.4870   62.0070 C   0  0  0  0  0  0  0  0  0  0  0  0
  129.1160  121.1430   62.1450 C   0  0  0  0  0  0  0  0  0  0  0  0
  129.4080  119.7880   62.0220 C   0  0  0  0  0  0  0  0  0  0  0  0
  1  2  2  0
  2  3  1  0
  3  4  2  0
  4  5  1  0
  5  6  2  0
  6  7  1  0
  7  8  2  0
  8  9  1  0
  9 10  1  0
 10 11  2  0
 11 12  1  0
 12 13  2  0
 13 14  1  0
 14 15  1  0
 15 16  2  0
 16 17  1  0
 17 18  2  0
 18 19  1  0
 19 20  2  0
 11 21  1  0
 21 22  1  0
 22 23  1  0
 23 24  2  0
 24 25  1  0
 25 26  2  0
 26 27  1  0
 27 28  2  0
 28 29  1  0
 29 30  2  0
 30 31  1  0
 31 32  2  0
 26 33  1  0
 33 34  2  0
  8 35  1  0
 35 36  2  0
  4 37  1  0
 37 38  2  0
 38  1  1  0
 36  5  1  0
 22  9  2  0
 34 23  1  0
 20 12  1  0
 32 27  1  0
 20 15  1  0
M  END
>  <Binding energies>  (51) 
[-3.31]

>  <Ligand effiencies>  (51) 
[-0.08275]

>  <Interactions>  (51) 
["V-A:GLU:543:CG:4907, V-A:LEU:475:CD2:4259, V-A:GLU:543:CD:4908, V-B:GLU:543:CD:9880, V-A:GLU:543:CB:4906, V-B:TYR:539:CD2:9846, H-B:TYR:484:OH:9320, V-B:HIS:456:CE1:9042, V-B:TYR:539:CE2:9848, V-B:ALA:541:CB:9864, V-A:PRO:540:N:4884, V-A:HIS:456:CE1:4070, V-A:TYR:539:C:4867, V-B:PRO:540:C:9853, V-A:TYR:539:CD1:4873, V-A:TYR:539:CG:4872, V-A:TYR:539:CE1:4875, V-A:TYR:484:CE1:4345, V-A:LEU:475:CD1:4258, V-B:ALA:541:CA:9862, V-A:LEU:475:CG:4257, H-A:GLU:543:OE1:4909, H-A:TYR:539:O:4868, V-B:GLU:543:CB:9878, V-B:GLU:543:C:9874, V-A:HIS:456:CD2:4068, V-B:HIS:456:CD2:9040, V-A:TYR:539:CA:4869, V-A:TYR:539:CZ:4877, V-B:GLY:544:C:9884, V-A:TYR:539:CD2:4874"]

$$$$
RR4_Rahimova_2017
     RDKit          3D

 40 44  0  0  0  0  0  0  0  0999 V2000
  126.4830  133.8750   60.2590 C   0  0  0  0  0  0  0  0  0  0  0  0
  126.0130  132.7870   59.4710 O   0  0  0  0  0  0  0  0  0  0  0  0
  126.2910  131.4940   59.8730 C   0  0  0  0  0  0  0  0  0  0  0  0
  127.4260  131.3140   60.6610 C   0  0  0  0  0  0  0  0  0  0  0  0
  127.7830  130.0480   61.1120 C   0  0  0  0  0  0  0  0  0  0  0  0
  127.0160  128.9200   60.7860 C   0  0  0  0  0  0  0  0  0  0  0  0
  127.4050  127.5540   61.2740 C   0  0  0  0  0  0  0  0  0  0  0  0
  128.6740  127.2650   61.7870 C   0  0  0  0  0  0  0  0  0  0  0  0
  128.9870  125.9750   62.2340 C   0  0  0  0  0  0  0  0  0  0  0  0
  130.3530  125.7490   62.7960 C   0  0  0  0  0  0  0  0  0  0  0  0
  130.5440  125.7070   64.1800 C   0  0  0  0  0  0  0  0  0  0  0  0
  131.8120  125.4850   64.7120 C   0  0  0  0  0  0  0  0  0  0  0  0
  132.9090  125.2950   63.8720 C   0  0  0  0  0  0  0  0  0  0  0  0
  134.1270  125.0810   64.4890 O   0  0  0  0  0  0  0  0  0  0  0  0
  134.1930  125.0690   65.9120 C   0  0  0  0  0  0  0  0  0  0  0  0
  132.7210  125.3320   62.4830 C   0  0  0  0  0  0  0  0  0  0  0  0
  131.4520  125.5540   61.9530 C   0  0  0  0  0  0  0  0  0  0  0  0
  127.9990  124.9650   62.1270 C   0  0  0  0  0  0  0  0  0  0  0  0
  128.2740  123.5990   62.5800 C   0  0  0  0  0  0  0  0  0  0  0  0
  128.4910  122.5200   62.9380 N   0  0  0  0  0  0  0  0  0  0  0  0
  126.7480  125.3200   61.5710 C   0  0  0  0  0  0  0  0  0  0  0  0
  125.3980  124.1810   61.3490 S   0  0  0  0  0  0  0  0  0  0  0  0
  125.4540  123.5800   59.6280 C   0  0  0  0  0  0  0  0  0  0  0  0
  126.8690  123.3990   59.0620 C   0  0  0  0  0  0  0  0  0  0  0  0
  127.2130  122.3230   58.5660 O   0  0  0  0  0  0  0  0  0  0  0  0
  127.6670  124.4860   59.1730 N   0  0  0  0  0  0  0  0  0  0  0  0
  128.9920  124.6380   58.7560 C   0  0  0  0  0  0  0  0  0  0  0  0
  129.5060  125.8990   57.6680 S   0  0  0  0  0  0  0  0  0  0  0  0
  131.1510  125.3450   57.7120 C   0  0  0  0  0  0  0  0  0  0  0  0
  131.2940  124.2200   58.5390 C   0  0  0  0  0  0  0  0  0  0  0  0
  130.0730  123.8300   59.1410 C   0  0  0  0  0  0  0  0  0  0  0  0
  129.9540  122.7020   60.0600 C   0  0  0  0  0  0  0  0  0  0  0  0
  129.8600  121.8070   60.7870 N   0  0  0  0  0  0  0  0  0  0  0  0
  132.6610  123.5650   58.7730 C   0  0  0  0  0  0  0  0  0  0  0  0
  133.8010  124.5140   58.3400 C   0  0  0  0  0  0  0  0  0  0  0  0
  133.5330  125.1560   56.9680 C   0  0  0  0  0  0  0  0  0  0  0  0
  132.2830  126.0620   56.9880 C   0  0  0  0  0  0  0  0  0  0  0  0
  126.4610  126.5820   61.1770 N   0  0  0  0  0  0  0  0  0  0  0  0
  125.8720  129.1120   59.9950 C   0  0  0  0  0  0  0  0  0  0  0  0
  125.5120  130.3770   59.5410 C   0  0  0  0  0  0  0  0  0  0  0  0
  1  2  1  0
  2  3  1  0
  3  4  2  0
  4  5  1  0
  5  6  2  0
  6  7  1  0
  7  8  2  0
  8  9  1  0
  9 10  1  0
 10 11  2  0
 11 12  1  0
 12 13  2  0
 13 14  1  0
 14 15  1  0
 13 16  1  0
 16 17  2  0
  9 18  2  0
 18 19  1  0
 19 20  3  0
 18 21  1  0
 21 22  1  0
 22 23  1  0
 23 24  1  0
 24 25  2  0
 24 26  1  0
 26 27  1  0
 27 28  1  0
 28 29  1  0
 29 30  2  0
 30 31  1  0
 31 32  1  0
 32 33  3  0
 30 34  1  0
 34 35  1  0
 35 36  1  0
 36 37  1  0
 21 38  2  0
  6 39  1  0
 39 40  2  0
 40  3  1  0
 38  7  1  0
 17 10  1  0
 31 27  2  0
 37 29  1  0
M  END
>  <Binding energies>  (52) 
[-6.03]

>  <Ligand effiencies>  (52) 
[-0.14707317073170734]

>  <Interactions>  (52) 
["V-A:ASP:366:C:3208, V-A:ASP:366:CA:3210, V-A:GLU:543:CD:4908, V-A:ASP:366:CB:3212, V-B:GLU:543:CD:9880, V-B:TYR:539:CZ:9849, V-A:ILE:369:CG2:3237, V-A:ILE:369:CB:3236, V-B:TYR:539:CD2:9846, V-A:GLY:454:CA:4049, H-A:TYR:484:OH:4348, V-B:TYR:539:CE2:9848, V-A:TYR:484:CZ:4347, V-B:PRO:540:CA:9855, V-B:GLU:543:CG:9879, V-B:ASP:366:CG:8185, V-A:ARG:545:CZ:4926, V-A:ASP:366:CG:3213, H-A:ARG:545:NH2:4928, H-A:ARG:545:NE:4924, V-A:TYR:484:CE2:4346, H-A:ARG:545:NH1:4927, H-A:GLY:454:N:4050, V-A:ARG:545:CG:4922, V-A:TYR:539:CD1:4873, V-A:ARG:545:CD:4923, V-B:PRO:540:N:9856, V-A:TYR:539:CE1:4875, V-A:GLY:453:C:4042, V-A:GLY:453:CA:4044, V-B:PRO:540:CB:9857, H-B:ARG:545:NH2:9900, V-A:ILE:455:C:4052"]

$$$$
RR6_Rahimova_2017
     RDKit          3D

 38 41  0  0  0  0  0  0  0  0999 V2000
  130.5790  125.5440   65.9450 C   0  0  0  0  0  0  0  0  0  0  0  0
  131.9670  125.8390   65.8710 O   0  0  0  0  0  0  0  0  0  0  0  0
  132.7860  125.1390   65.0450 C   0  0  0  0  0  0  0  0  0  0  0  0
  133.6550  124.3600   65.4490 O   0  0  0  0  0  0  0  0  0  0  0  0
  132.5300  125.4060   63.5890 C   0  0  0  0  0  0  0  0  0  0  0  0
  131.4740  126.2230   63.1580 C   0  0  0  0  0  0  0  0  0  0  0  0
  131.2580  126.4450   61.8000 C   0  0  0  0  0  0  0  0  0  0  0  0
  132.0970  125.8480   60.8470 C   0  0  0  0  0  0  0  0  0  0  0  0
  131.9520  125.9820   59.4540 N   0  0  0  0  0  0  0  0  0  0  0  0
  132.3930  125.1730   58.4650 C   0  0  0  0  0  0  0  0  0  0  0  0
  133.0180  124.1250   58.6260 O   0  0  0  0  0  0  0  0  0  0  0  0
  132.1270  125.6660   57.0390 C   0  0  0  0  0  0  0  0  0  0  0  0
  130.3960  126.1590   56.7440 S   0  0  0  0  0  0  0  0  0  0  0  0
  129.5270  125.9260   58.2810 C   0  0  0  0  0  0  0  0  0  0  0  0
  129.6080  124.6700   58.7820 N   0  0  0  0  0  0  0  0  0  0  0  0
  129.0100  124.3770   59.9650 C   0  0  0  0  0  0  0  0  0  0  0  0
  129.2000  122.9810   60.4800 C   0  0  0  0  0  0  0  0  0  0  0  0
  128.1750  122.3220   61.1770 C   0  0  0  0  0  0  0  0  0  0  0  0
  128.3550  121.0320   61.6670 C   0  0  0  0  0  0  0  0  0  0  0  0
  129.5660  120.3710   61.4640 C   0  0  0  0  0  0  0  0  0  0  0  0
  129.7620  118.9680   62.0080 C   0  0  0  0  0  0  0  0  0  0  0  0
  130.5960  121.0060   60.7730 C   0  0  0  0  0  0  0  0  0  0  0  0
  130.4100  122.2960   60.2850 C   0  0  0  0  0  0  0  0  0  0  0  0
  128.2980  125.3540   60.6670 C   0  0  0  0  0  0  0  0  0  0  0  0
  128.1950  126.6600   60.1670 C   0  0  0  0  0  0  0  0  0  0  0  0
  127.4360  127.6580   60.9770 C   0  0  0  0  0  0  0  0  0  0  0  0
  127.9620  128.1310   62.1840 C   0  0  0  0  0  0  0  0  0  0  0  0
  127.2680  129.0730   62.9380 C   0  0  0  0  0  0  0  0  0  0  0  0
  126.0400  129.5660   62.4990 C   0  0  0  0  0  0  0  0  0  0  0  0
  125.4240  130.4990   63.3100 O   0  0  0  0  0  0  0  0  0  0  0  0
  125.5640  131.8830   63.0050 C   0  0  0  0  0  0  0  0  0  0  0  0
  125.5100  129.0990   61.2860 C   0  0  0  0  0  0  0  0  0  0  0  0
  126.2070  128.1570   60.5350 C   0  0  0  0  0  0  0  0  0  0  0  0
  128.8230  126.9590   58.9320 C   0  0  0  0  0  0  0  0  0  0  0  0
  128.7300  128.2960   58.3380 C   0  0  0  0  0  0  0  0  0  0  0  0
  128.6590  129.3520   57.8700 N   0  0  0  0  0  0  0  0  0  0  0  0
  133.1580  125.0490   61.2730 C   0  0  0  0  0  0  0  0  0  0  0  0
  133.3710  124.8260   62.6310 C   0  0  0  0  0  0  0  0  0  0  0  0
  1  2  1  0
  2  3  1  0
  3  4  2  0
  3  5  1  0
  5  6  2  0
  6  7  1  0
  7  8  2  0
  8  9  1  0
  9 10  1  0
 10 11  2  0
 10 12  1  0
 12 13  1  0
 13 14  1  0
 14 15  2  0
 15 16  1  0
 16 17  1  0
 17 18  2  0
 18 19  1  0
 19 20  2  0
 20 21  1  0
 20 22  1  0
 22 23  2  0
 16 24  2  0
 24 25  1  0
 25 26  1  0
 26 27  2  0
 27 28  1  0
 28 29  2  0
 29 30  1  0
 30 31  1  0
 29 32  1  0
 32 33  2  0
 25 34  2  0
 34 35  1  0
 35 36  3  0
  8 37  1  0
 37 38  2  0
 38  5  1  0
 34 14  1  0
 23 17  1  0
 33 26  1  0
M  END
>  <Binding energies>  (53) 
[-5.64]

>  <Ligand effiencies>  (53) 
[-0.14461538461538462]

>  <Interactions>  (53) 
["H-A:ASP:366:OD1:3214, V-A:LEU:475:CD2:4259, V-A:GLU:543:CD:4908, H-B:TYR:539:OH:9850, V-A:ASP:366:CB:3212, V-B:GLU:543:CD:9880, V-B:TYR:539:CZ:9849, V-B:TYR:539:CD2:9846, H-B:TYR:484:OH:9320, H-A:TYR:484:OH:4348, V-B:TYR:539:CE2:9848, V-A:TYR:484:CZ:4347, V-B:PRO:540:CA:9855, V-B:ASP:366:CG:8185, V-B:ALA:541:CB:9864, V-A:ARG:545:CZ:4926, V-A:ASP:366:CG:3213, V-B:TYR:539:C:9839, H-A:ARG:545:NE:4924, V-A:TYR:484:CE2:4346, V-A:HIS:456:CE1:4070, H-A:GLY:454:N:4050, V-B:PRO:540:C:9853, H-A:ILE:455:N:4055, V-A:LEU:475:CD1:4258, V-B:ALA:541:CA:9862, V-A:PRO:482:CB:4326, V-A:LEU:475:CG:4257, V-B:LEU:475:CD2:9231"]

$$$$
RR7_Rahimova_2017
     RDKit          3D

 47 53  0  0  0  0  0  0  0  0999 V2000
  132.4130  125.5100   65.7060 C   0  0  0  0  0  0  0  0  0  0  0  0
  131.0660  125.4680   65.2450 O   0  0  0  0  0  0  0  0  0  0  0  0
  130.8160  125.5550   63.8890 C   0  0  0  0  0  0  0  0  0  0  0  0
  129.6050  125.0290   63.4430 C   0  0  0  0  0  0  0  0  0  0  0  0
  129.2630  125.0770   62.0960 C   0  0  0  0  0  0  0  0  0  0  0  0
  130.1350  125.6440   61.1550 C   0  0  0  0  0  0  0  0  0  0  0  0
  129.7650  125.7410   59.6420 C   0  0  0  0  0  0  0  0  0  0  0  0
  129.3150  127.0970   59.4190 O   0  0  0  0  0  0  0  0  0  0  0  0
  128.7820  127.4750   58.1460 C   0  0  0  0  0  0  0  0  0  0  0  0
  127.3350  127.9590   58.3340 C   0  0  1  0  0  0  0  0  0  0  0  0
  126.9740  127.6680   59.6810 O   0  0  0  0  0  0  0  0  0  0  0  0
  126.6060  128.8200   60.3850 C   0  0  1  0  0  0  0  0  0  0  0  0
  126.9890  128.6970   61.7780 N   0  0  0  0  0  0  0  0  0  0  0  0
  126.8860  127.5850   62.5960 C   0  0  0  0  0  0  0  0  0  0  0  0
  127.2650  127.7630   63.8370 N   0  0  0  0  0  0  0  0  0  0  0  0
  127.6060  129.0880   63.8870 C   0  0  0  0  0  0  0  0  0  0  0  0
  128.0760  129.9020   64.9360 C   0  0  0  0  0  0  0  0  0  0  0  0
  128.2730  129.3220   66.2030 N   0  0  0  0  0  0  0  0  0  0  0  0
  128.9300  128.1830   66.5270 C   0  0  0  0  0  0  0  0  0  0  0  0
  129.4670  127.4350   65.7070 O   0  0  0  0  0  0  0  0  0  0  0  0
  128.9510  127.8350   68.0000 C   0  0  0  0  0  0  0  0  0  0  0  0
  128.0360  126.8980   68.5050 C   0  0  0  0  0  0  0  0  0  0  0  0
  128.0410  126.5590   69.8550 C   0  0  0  0  0  0  0  0  0  0  0  0
  128.9650  127.1500   70.7110 C   0  0  0  0  0  0  0  0  0  0  0  0
  129.8840  128.0790   70.2300 C   0  0  0  0  0  0  0  0  0  0  0  0
  129.8780  128.4200   68.8790 C   0  0  0  0  0  0  0  0  0  0  0  0
  128.3220  131.2250   64.6960 N   0  0  0  0  0  0  0  0  0  0  0  0
  128.0970  131.6940   63.4400 C   0  0  0  0  0  0  0  0  0  0  0  0
  127.6500  131.0000   62.3590 N   0  0  0  0  0  0  0  0  0  0  0  0
  127.4240  129.7060   62.6230 C   0  0  0  0  0  0  0  0  0  0  0  0
  127.2640  129.9740   59.6370 C   0  0  0  0  0  0  0  0  0  0  0  0
  127.1360  129.4770   58.2070 C   0  0  2  0  0  0  0  0  0  0  0  0
  125.8830  129.8130   57.6370 O   0  0  0  0  0  0  0  0  0  0  0  0
  130.9900  125.5120   58.7180 C   0  0  0  0  0  0  0  0  0  0  0  0
  131.9340  124.5190   59.0260 C   0  0  0  0  0  0  0  0  0  0  0  0
  133.0430  124.3150   58.2120 C   0  0  0  0  0  0  0  0  0  0  0  0
  133.2230  125.1040   57.0800 C   0  0  0  0  0  0  0  0  0  0  0  0
  132.3000  126.0940   56.7560 C   0  0  0  0  0  0  0  0  0  0  0  0
  131.1910  126.2990   57.5710 C   0  0  0  0  0  0  0  0  0  0  0  0
  128.6770  124.7460   59.1470 C   0  0  0  0  0  0  0  0  0  0  0  0
  127.4010  124.7400   59.7320 C   0  0  0  0  0  0  0  0  0  0  0  0
  126.4240  123.8470   59.3030 C   0  0  0  0  0  0  0  0  0  0  0  0
  126.7160  122.9420   58.2860 C   0  0  0  0  0  0  0  0  0  0  0  0
  127.9790  122.9220   57.7010 C   0  0  0  0  0  0  0  0  0  0  0  0
  128.9540  123.8160   58.1320 C   0  0  0  0  0  0  0  0  0  0  0  0
  131.3470  126.1850   61.6100 C   0  0  0  0  0  0  0  0  0  0  0  0
  131.6880  126.1380   62.9590 C   0  0  0  0  0  0  0  0  0  0  0  0
  1  2  1  0
  2  3  1  0
  3  4  2  0
  4  5  1  0
  5  6  2  0
  6  7  1  0
  7  8  1  0
  8  9  1  0
 10  9  1  1
 10 11  1  0
 11 12  1  0
 12 13  1  1
 13 14  1  0
 14 15  2  0
 15 16  1  0
 16 17  2  0
 17 18  1  0
 18 19  1  0
 19 20  2  0
 19 21  1  0
 21 22  2  0
 22 23  1  0
 23 24  2  0
 24 25  1  0
 25 26  2  0
 17 27  1  0
 27 28  2  0
 28 29  1  0
 29 30  2  0
 12 31  1  0
 31 32  1  0
 32 33  1  1
  7 34  1  0
 34 35  2  0
 35 36  1  0
 36 37  2  0
 37 38  1  0
 38 39  2  0
  7 40  1  0
 40 41  2  0
 41 42  1  0
 42 43  2  0
 43 44  1  0
 44 45  2  0
  6 46  1  0
 46 47  2  0
 47  3  1  0
 32 10  1  0
 39 34  1  0
 45 40  1  0
 30 13  1  0
 30 16  1  0
 26 21  1  0
M  END
>  <Binding energies>  (54) 
[-5.5]

>  <Ligand effiencies>  (54) 
[-0.11224489795918367]

>  <Interactions>  (54) 
["V-A:ASP:366:C:3208, V-A:GLU:543:CG:4907, V-A:ASP:366:CA:3210, V-A:GLU:543:CD:4908, V-A:ASP:366:CB:3212, V-B:GLU:543:CD:9880, V-B:TYR:539:CZ:9849, V-A:ILE:369:CG2:3237, V-B:TYR:484:CZ:9319, V-A:GLU:543:CB:4906, V-B:TYR:539:CD2:9846, H-B:TYR:484:OH:9320, V-B:HIS:456:CE1:9042, H-A:TYR:484:OH:4348, V-B:TYR:539:CE2:9848, V-A:TYR:484:CZ:4347, V-B:PRO:540:CA:9855, V-B:GLU:543:CG:9879, V-A:ARG:545:CZ:4926, V-B:TYR:539:C:9839, V-A:TYR:484:CE2:4346, V-A:HIS:456:CE1:4070, V-B:TYR:539:CG:9844, V-A:ARG:545:CG:4922, V-A:ARG:545:CD:4923, V-B:PRO:540:N:9856, V-A:ALA:541:CB:4892, V-B:PRO:540:CB:9857, H-B:ARG:545:NH2:9900, V-B:GLU:543:CB:9878, V-B:GLU:543:C:9874, V-A:HIS:456:CD2:4068, V-B:HIS:456:CD2:9040, V-A:GLU:543:C:4902, V-A:GLU:543:CA:4904, H-B:HIS:456:NE2:9043"]

$$$$
RR8_A_Rahimova_2017
     RDKit          3D

 42 46  0  0  0  0  0  0  0  0999 V2000
  127.2060  131.1010   58.5200 O   0  0  0  0  0  0  0  0  0  0  0  0
  127.6510  130.5270   59.5200 C   0  0  0  0  0  0  0  0  0  0  0  0
  126.9670  129.5850   60.2400 O   0  0  0  0  0  0  0  0  0  0  0  0
  127.5690  128.3310   60.4040 C   0  0  1  0  0  0  0  0  0  0  0  0
  128.1710  128.2090   61.6600 O   0  0  0  0  0  0  0  0  0  0  0  0
  128.0050  126.9010   62.2020 C   0  0  2  0  0  0  0  0  0  0  0  0
  129.3940  126.3280   62.5340 C   0  0  0  0  0  0  0  0  0  0  0  0
  130.0550  125.9970   61.3200 O   0  0  0  0  0  0  0  0  0  0  0  0
  131.4540  126.2450   61.3380 C   0  0  0  0  0  0  0  0  0  0  0  0
  132.2120  124.9410   61.1390 C   0  0  0  0  0  0  0  0  0  0  0  0
  132.8760  124.3490   62.2160 C   0  0  0  0  0  0  0  0  0  0  0  0
  133.5650  123.1520   62.0380 C   0  0  0  0  0  0  0  0  0  0  0  0
  133.5850  122.5470   60.7830 C   0  0  0  0  0  0  0  0  0  0  0  0
  132.9210  123.1270   59.7040 C   0  0  0  0  0  0  0  0  0  0  0  0
  132.2310  124.3240   59.8830 C   0  0  0  0  0  0  0  0  0  0  0  0
  127.2240  126.1520   61.1150 C   0  0  1  0  0  0  0  0  0  0  0  0
  126.2400  125.2640   61.6420 O   0  0  0  0  0  0  0  0  0  0  0  0
  126.1430  123.9990   60.9980 C   0  0  0  0  0  0  0  0  0  0  0  0
  127.4490  123.2330   61.1590 C   0  0  0  0  0  0  0  0  0  0  0  0
  128.1960  122.8910   60.0270 C   0  0  0  0  0  0  0  0  0  0  0  0
  129.3860  122.1820   60.1660 C   0  0  0  0  0  0  0  0  0  0  0  0
  129.8260  121.8130   61.4360 C   0  0  0  0  0  0  0  0  0  0  0  0
  129.0840  122.1430   62.5680 C   0  0  0  0  0  0  0  0  0  0  0  0
  127.8930  122.8510   62.4300 C   0  0  0  0  0  0  0  0  0  0  0  0
  126.4870  127.2610   60.3870 C   0  0  2  0  0  0  0  0  0  0  0  0
  126.1170  126.8420   59.0760 O   0  0  0  0  0  0  0  0  0  0  0  0
  127.1890  126.4280   58.2350 C   0  0  0  0  0  0  0  0  0  0  0  0
  126.9160  125.0320   57.6960 C   0  0  0  0  0  0  0  0  0  0  0  0
  125.6690  124.4310   57.8980 C   0  0  0  0  0  0  0  0  0  0  0  0
  125.4210  123.1570   57.3940 C   0  0  0  0  0  0  0  0  0  0  0  0
  126.4170  122.4890   56.6860 C   0  0  0  0  0  0  0  0  0  0  0  0
  127.6590  123.0830   56.4750 C   0  0  0  0  0  0  0  0  0  0  0  0
  127.9090  124.3580   56.9790 C   0  0  0  0  0  0  0  0  0  0  0  0
  129.0240  130.7900   60.0680 C   0  0  0  0  0  0  0  0  0  0  0  0
  129.2210  131.3090   61.3580 C   0  0  0  0  0  0  0  0  0  0  0  0
  130.5060  131.5430   61.8380 C   0  0  0  0  0  0  0  0  0  0  0  0
  131.6270  131.2680   61.0430 C   0  0  0  0  0  0  0  0  0  0  0  0
  132.9960  131.5160   61.5560 N   0  0  0  0  0  0  0  0  0  0  0  0
  133.1960  131.4340   62.7640 O   0  0  0  0  0  0  0  0  0  0  0  0
  133.8830  131.7940   60.7540 O   0  0  0  0  0  0  0  0  0  0  0  0
  131.4290  130.7530   59.7550 C   0  0  0  0  0  0  0  0  0  0  0  0
  130.1450  130.5180   59.2740 C   0  0  0  0  0  0  0  0  0  0  0  0
  1  2  2  0
  2  3  1  0
  4  3  1  1
  4  5  1  0
  5  6  1  0
  6  7  1  6
  7  8  1  0
  8  9  1  0
  9 10  1  0
 10 11  2  0
 11 12  1  0
 12 13  2  0
 13 14  1  0
 14 15  2  0
  6 16  1  0
 16 17  1  1
 17 18  1  0
 18 19  1  0
 19 20  2  0
 20 21  1  0
 21 22  2  0
 22 23  1  0
 23 24  2  0
 16 25  1  0
 25 26  1  6
 26 27  1  0
 27 28  1  0
 28 29  2  0
 29 30  1  0
 30 31  2  0
 31 32  1  0
 32 33  2  0
  2 34  1  0
 34 35  2  0
 35 36  1  0
 36 37  2  0
 37 38  1  0
 38 39  2  0
 38 40  1  0
 37 41  1  0
 41 42  2  0
 25  4  1  0
 33 28  1  0
 42 34  1  0
 15 10  1  0
 24 19  1  0
M  CHG  2  38   1  40  -1
M  END
>  <Binding energies>  (55) 
[-8.28]

>  <Ligand effiencies>  (55) 
[-0.19714285714285712]

>  <Interactions>  (55) 
["V-B:MET:535:CE:9807, V-A:GLU:543:CG:4907, H-B:TYR:531:OH:9767, V-B:TYR:539:CE1:9847, V-A:GLU:543:CD:4908, H-A:LEU:363:N:3186, V-B:GLU:543:CD:9880, V-B:TYR:539:CZ:9849, V-A:ILE:369:CG2:3237, V-A:PRO:540:CA:4883, V-A:PRO:540:CB:4885, V-B:TYR:539:CD2:9846, V-A:ASN:362:CB:3176, V-A:GLY:454:CA:4049, V-B:TYR:539:CE2:9848, V-A:ILE:369:CD1:3239, V-A:TYR:484:CZ:4347, V-B:PRO:540:CA:9855, V-B:GLU:543:CG:9879, V-B:ASP:366:CG:8185, V-B:ALA:541:CB:9864, V-A:ASP:366:CG:3213, H-A:ARG:545:NH2:4928, V-B:TYR:539:C:9839, V-B:TYR:539:CG:9844, V-A:ALA:541:CA:4890, V-B:PRO:540:N:9856, V-A:TYR:484:CE1:4345, V-A:ALA:541:CB:4892, V-B:PRO:540:CB:9857, H-B:ARG:545:NH2:9900, V-B:TYR:539:CD1:9845, V-B:PRO:540:CD:9859, H-A:ASN:362:ND2:3179"]

$$$$
RR8_B_Rahimova_2017
     RDKit          3D

 42 46  0  0  0  0  0  0  0  0999 V2000
  128.9040  125.4000   58.4790 O   0  0  0  0  0  0  0  0  0  0  0  0
  130.0410  125.6550   58.8880 C   0  0  0  0  0  0  0  0  0  0  0  0
  130.5930  126.9060   58.9080 O   0  0  0  0  0  0  0  0  0  0  0  0
  130.8030  127.5190   60.1560 C   0  0  2  0  0  0  0  0  0  0  0  0
  130.5170  126.6530   61.2180 O   0  0  0  0  0  0  0  0  0  0  0  0
  129.1610  126.7770   61.6420 C   0  0  2  0  0  0  0  0  0  0  0  0
  128.4590  125.4120   61.5270 C   0  0  0  0  0  0  0  0  0  0  0  0
  127.0980  125.6140   61.1710 O   0  0  0  0  0  0  0  0  0  0  0  0
  126.3360  124.4260   61.0200 C   0  0  0  0  0  0  0  0  0  0  0  0
  126.5060  123.8980   59.6030 C   0  0  0  0  0  0  0  0  0  0  0  0
  125.6690  124.3620   58.5850 C   0  0  0  0  0  0  0  0  0  0  0  0
  125.8030  123.8660   57.2910 C   0  0  0  0  0  0  0  0  0  0  0  0
  126.7760  122.9060   57.0190 C   0  0  0  0  0  0  0  0  0  0  0  0
  127.6190  122.4440   58.0280 C   0  0  0  0  0  0  0  0  0  0  0  0
  127.4820  122.9380   59.3230 C   0  0  0  0  0  0  0  0  0  0  0  0
  128.5870  127.8900   60.7580 C   0  0  1  0  0  0  0  0  0  0  0  0
  127.6490  128.6700   61.5050 O   0  0  0  0  0  0  0  0  0  0  0  0
  128.1680  129.4530   62.5830 C   0  0  0  0  0  0  0  0  0  0  0  0
  127.4250  129.2000   63.8910 C   0  0  0  0  0  0  0  0  0  0  0  0
  126.0820  128.8100   63.8710 C   0  0  0  0  0  0  0  0  0  0  0  0
  125.4160  128.5490   65.0650 C   0  0  0  0  0  0  0  0  0  0  0  0
  126.0930  128.6820   66.2760 C   0  0  0  0  0  0  0  0  0  0  0  0
  127.4290  129.0740   66.3040 C   0  0  0  0  0  0  0  0  0  0  0  0
  128.0970  129.3330   65.1090 C   0  0  0  0  0  0  0  0  0  0  0  0
  129.8200  128.6760   60.3270 C   0  0  2  0  0  0  0  0  0  0  0  0
  129.5580  129.3910   59.1220 O   0  0  0  0  0  0  0  0  0  0  0  0
  129.7940  130.7900   59.1750 C   0  0  0  0  0  0  0  0  0  0  0  0
  131.2390  131.0130   59.5850 C   0  0  0  0  0  0  0  0  0  0  0  0
  131.5560  131.3320   60.9090 C   0  0  0  0  0  0  0  0  0  0  0  0
  132.8820  131.5530   61.2700 C   0  0  0  0  0  0  0  0  0  0  0  0
  133.8860  131.4560   60.3090 C   0  0  0  0  0  0  0  0  0  0  0  0
  133.5770  131.1370   58.9870 C   0  0  0  0  0  0  0  0  0  0  0  0
  132.2520  130.9150   58.6260 C   0  0  0  0  0  0  0  0  0  0  0  0
  130.9880  124.6030   59.3900 C   0  0  0  0  0  0  0  0  0  0  0  0
  132.3730  124.6980   59.1890 C   0  0  0  0  0  0  0  0  0  0  0  0
  133.2250  123.7050   59.6570 C   0  0  0  0  0  0  0  0  0  0  0  0
  132.7160  122.5860   60.3270 C   0  0  0  0  0  0  0  0  0  0  0  0
  133.6250  121.5130   60.8030 N   0  0  0  0  0  0  0  0  0  0  0  0
  134.3390  121.7360   61.7770 O   0  0  0  0  0  0  0  0  0  0  0  0
  133.6280  120.4380   60.2080 O   0  0  0  0  0  0  0  0  0  0  0  0
  131.3330  122.4930   60.5330 C   0  0  0  0  0  0  0  0  0  0  0  0
  130.4800  123.4900   60.0720 C   0  0  0  0  0  0  0  0  0  0  0  0
  1  2  2  0
  2  3  1  0
  4  3  1  6
  4  5  1  0
  5  6  1  0
  6  7  1  6
  7  8  1  0
  8  9  1  0
  9 10  1  0
 10 11  2  0
 11 12  1  0
 12 13  2  0
 13 14  1  0
 14 15  2  0
  6 16  1  0
 16 17  1  1
 17 18  1  0
 18 19  1  0
 19 20  2  0
 20 21  1  0
 21 22  2  0
 22 23  1  0
 23 24  2  0
 16 25  1  0
 25 26  1  6
 26 27  1  0
 27 28  1  0
 28 29  2  0
 29 30  1  0
 30 31  2  0
 31 32  1  0
 32 33  2  0
  2 34  1  0
 34 35  2  0
 35 36  1  0
 36 37  2  0
 37 38  1  0
 38 39  2  0
 38 40  1  0
 37 41  1  0
 41 42  2  0
 25  4  1  0
 33 28  1  0
 42 34  1  0
 15 10  1  0
 24 19  1  0
M  CHG  2  38   1  40  -1
M  END
>  <Binding energies>  (56) 
[-7.45]

>  <Ligand effiencies>  (56) 
[-0.1773809523809524]

>  <Interactions>  (56) 
["V-A:GLU:543:CG:4907, V-A:LEU:475:CD2:4259, V-A:GLU:543:CD:4908, V-A:ASP:366:CB:3212, V-B:GLU:543:CD:9880, V-A:ILE:369:CG2:3237, V-B:TYR:484:CZ:9319, V-A:GLU:543:CB:4906, V-A:PRO:540:CA:4883, V-A:PRO:540:CB:4885, V-B:TYR:539:CD2:9846, V-A:ASN:362:CB:3176, V-B:HIS:456:CE1:9042, V-B:TYR:539:CE2:9848, V-A:ILE:369:CD1:3239, V-B:PRO:540:CA:9855, V-A:ASN:362:C:3172, V-A:LEU:363:CA:3185, V-A:ASP:366:CG:3213, V-B:TYR:539:C:9839, V-B:TYR:539:CG:9844, H-A:GLY:454:N:4050, V-B:PRO:540:N:9856, V-B:PRO:540:CB:9857, V-B:ARG:545:CZ:9898, V-B:TYR:539:CA:9841, V-A:ASN:362:CA:3174, V-B:ARG:545:CD:9895"]

$$$$
RR9_Rahimova_2017
     RDKit          3D

 36 40  0  0  0  0  0  0  0  0999 V2000
  127.6220  132.9660   59.7600 C   0  0  0  0  0  0  0  0  0  0  0  0
  128.3180  133.0830   61.1190 C   0  0  0  0  0  0  0  0  0  0  0  0
  129.6300  132.5390   61.0100 O   0  0  0  0  0  0  0  0  0  0  0  0
  129.7950  131.1670   60.9840 C   0  0  0  0  0  0  0  0  0  0  0  0
  131.0110  130.6950   60.4950 C   0  0  0  0  0  0  0  0  0  0  0  0
  131.2660  129.3290   60.4300 C   0  0  0  0  0  0  0  0  0  0  0  0
  130.3090  128.3940   60.8530 C   0  0  0  0  0  0  0  0  0  0  0  0
  130.5770  126.9200   60.7810 C   0  0  0  0  0  0  0  0  0  0  0  0
  129.5330  125.9820   60.7820 C   0  0  0  0  0  0  0  0  0  0  0  0
  129.7890  124.6010   60.7010 C   0  0  0  0  0  0  0  0  0  0  0  0
  128.6250  123.6520   60.6040 C   0  0  0  0  0  0  0  0  0  0  0  0
  128.6560  122.7080   59.8150 O   0  0  0  0  0  0  0  0  0  0  0  0
  127.5770  123.9280   61.4050 N   0  0  0  0  0  0  0  0  0  0  0  0
  126.2850  123.2340   61.3990 C   0  0  0  0  0  0  0  0  0  0  0  0
  125.3640  123.6790   60.2390 C   0  0  0  0  0  0  0  0  0  0  0  0
  126.0630  123.8320   58.8930 C   0  0  0  0  0  0  0  0  0  0  0  0
  126.1210  122.7520   58.0050 C   0  0  0  0  0  0  0  0  0  0  0  0
  126.7300  122.9060   56.7630 C   0  0  0  0  0  0  0  0  0  0  0  0
  127.2840  124.1350   56.4130 C   0  0  0  0  0  0  0  0  0  0  0  0
  127.2340  125.2140   57.2950 C   0  0  0  0  0  0  0  0  0  0  0  0
  126.6240  125.0610   58.5370 C   0  0  0  0  0  0  0  0  0  0  0  0
  131.1520  124.2170   60.6530 C   0  0  0  0  0  0  0  0  0  0  0  0
  131.9390  123.0080   60.6050 C   0  0  0  0  0  0  0  0  0  0  0  0
  131.4960  121.5840   60.6720 C   0  0  0  0  0  0  0  0  0  0  0  0
  130.3240  121.2430   61.3540 C   0  0  0  0  0  0  0  0  0  0  0  0
  129.9200  119.9120   61.4280 C   0  0  0  0  0  0  0  0  0  0  0  0
  130.6850  118.9170   60.8170 C   0  0  0  0  0  0  0  0  0  0  0  0
  130.2560  117.4650   60.9140 C   0  0  0  0  0  0  0  0  0  0  0  0
  131.8570  119.2530   60.1370 C   0  0  0  0  0  0  0  0  0  0  0  0
  132.2570  120.5840   60.0610 C   0  0  0  0  0  0  0  0  0  0  0  0
  133.2190  123.2940   60.5120 N   0  0  0  0  0  0  0  0  0  0  0  0
  133.3470  124.6300   60.5530 N   0  0  0  0  0  0  0  0  0  0  0  0
  132.1230  125.2470   60.6500 C   0  0  0  0  0  0  0  0  0  0  0  0
  131.8890  126.5570   60.7160 N   0  0  0  0  0  0  0  0  0  0  0  0
  129.0870  128.8770   61.3420 C   0  0  0  0  0  0  0  0  0  0  0  0
  128.8300  130.2450   61.4100 C   0  0  0  0  0  0  0  0  0  0  0  0
  1  2  1  0
  2  3  1  0
  3  4  1  0
  4  5  2  0
  5  6  1  0
  6  7  2  0
  7  8  1  0
  8  9  2  0
  9 10  1  0
 10 11  1  0
 11 12  2  0
 11 13  1  0
 13 14  1  0
 14 15  1  0
 15 16  1  0
 16 17  2  0
 17 18  1  0
 18 19  2  0
 19 20  1  0
 20 21  2  0
 10 22  2  0
 22 23  1  0
 23 24  1  0
 24 25  2  0
 25 26  1  0
 26 27  2  0
 27 28  1  0
 27 29  1  0
 29 30  2  0
 23 31  2  0
 31 32  1  0
 32 33  1  0
 33 34  2  0
  7 35  1  0
 35 36  2  0
 36  4  1  0
 34  8  1  0
 21 16  1  0
 33 22  1  0
 30 24  1  0
M  END
>  <Binding energies>  (57) 
[-8.02]

>  <Ligand effiencies>  (57) 
[-0.21105263157894735]

>  <Interactions>  (57) 
["V-B:MET:535:CE:9807, H-A:ASP:366:OD1:3214, V-A:LEU:475:CD2:4259, H-A:ALA:541:N:4891, V-B:GLU:543:CD:9880, V-A:ILE:369:CG2:3237, V-B:TYR:539:CD2:9846, V-B:TYR:539:CE2:9848, V-A:ILE:369:CD1:3239, V-B:PRO:540:CA:9855, V-B:ALA:541:CB:9864, V-A:ASP:366:CG:3213, H-A:ARG:545:NH2:4928, V-B:TYR:539:C:9839, V-B:PRO:540:C:9853, V-A:TYR:539:CD1:4873, V-B:PRO:540:N:9856, V-A:TYR:539:CE1:4875, V-A:ALA:541:CB:4892, V-A:LEU:475:CD1:4258, V-A:PRO:482:CB:4326, V-A:SER:385:CB:3409, H-B:GLU:543:OE2:9882, H-B:GLU:543:OE1:9881, V-A:LEU:475:CG:4257, H-A:ASP:366:OD2:3215, V-B:PRO:540:CB:9857, V-A:PRO:482:CG:4327, V-B:PRO:540:CD:9859"]

$$$$
