1a_Grossjean_2025
     RDKit          3D

 26 27  0  0  0  0  0  0  0  0999 V2000
  133.2670  126.9680   74.3450 C   0  0  0  0  0  0  0  0  0  0  0  0
  131.8610  126.5210   73.9360 C   0  0  0  0  0  0  0  0  0  0  0  0
  131.2260  127.5630   73.2050 O   0  0  0  0  0  0  0  0  0  0  0  0
  129.9050  127.4970   72.8960 C   0  0  0  0  0  0  0  0  0  0  0  0
  129.0170  127.3310   73.7370 O   0  0  0  0  0  0  0  0  0  0  0  0
  129.6330  127.6290   71.4250 C   0  0  0  0  0  0  0  0  0  0  0  0
  128.6310  126.8420   70.8410 C   0  0  0  0  0  0  0  0  0  0  0  0
  128.3580  126.9390   69.4800 C   0  0  0  0  0  0  0  0  0  0  0  0
  129.0800  127.8200   68.6740 C   0  0  0  0  0  0  0  0  0  0  0  0
  128.7220  127.8340   67.3120 N   0  0  0  0  0  0  0  0  0  0  0  0
  128.2780  128.8490   66.5410 C   0  0  0  0  0  0  0  0  0  0  0  0
  128.1000  130.0080   66.9170 O   0  0  0  0  0  0  0  0  0  0  0  0
  127.9830  128.4860   65.0840 C   0  0  0  0  0  0  0  0  0  0  0  0
  126.4120  129.1940   64.5060 S   0  0  0  0  0  0  0  0  0  0  0  0
  126.7010  129.8910   62.8950 C   0  0  0  0  0  0  0  0  0  0  0  0
  126.0260  129.2650   61.8980 N   0  0  0  0  0  0  0  0  0  0  0  0
  126.1780  129.7120   60.6290 C   0  0  0  0  0  0  0  0  0  0  0  0
  125.4040  128.9550   59.5660 C   0  0  0  0  0  0  0  0  0  0  0  0
  126.9910  130.7960   60.3060 C   0  0  0  0  0  0  0  0  0  0  0  0
  127.6740  131.4620   61.3290 C   0  0  0  0  0  0  0  0  0  0  0  0
  128.5470  132.6580   60.9530 C   0  0  0  0  0  0  0  0  0  0  0  0
  127.5280  131.0150   62.6630 C   0  0  0  0  0  0  0  0  0  0  0  0
  128.1950  131.7270   63.7560 C   0  0  0  0  0  0  0  0  0  0  0  0
  128.7230  132.2910   64.6180 N   0  0  0  0  0  0  0  0  0  0  0  0
  130.0790  128.6180   69.2510 C   0  0  0  0  0  0  0  0  0  0  0  0
  130.3520  128.5200   70.6130 C   0  0  0  0  0  0  0  0  0  0  0  0
  1  2  1  0
  2  3  1  0
  3  4  1  0
  4  5  2  0
  4  6  1  0
  6  7  2  0
  7  8  1  0
  8  9  2  0
  9 10  1  0
 10 11  1  0
 11 12  2  0
 11 13  1  0
 13 14  1  0
 14 15  1  0
 15 16  2  0
 16 17  1  0
 17 18  1  0
 17 19  2  0
 19 20  1  0
 20 21  1  0
 20 22  2  0
 22 23  1  0
 23 24  3  0
  9 25  1  0
 25 26  2  0
 26  6  1  0
 22 15  1  0
M  END
>  <Binding energies>  (1) 
[-6.29]

>  <Ligand effiencies>  (1) 
[-0.23296296296296296]

>  <Interactions>  (1) 
["V-A:GLU:543:CG:4907, V-A:GLU:543:CD:4908, V-B:GLU:543:CD:9880, V-B:TYR:484:CZ:9319, V-A:GLU:543:CB:4906, H-B:TYR:484:OH:9320, V-B:HIS:456:CE1:9042, V-B:ASP:366:CB:8184, H-A:GLU:543:OE2:4910, V-B:ASP:366:CG:8185, V-A:HIS:456:CE1:4070, V-A:ALA:541:CB:4892, H-B:GLU:543:OE2:9882, V-A:GLY:544:CA:4914, V-A:HIS:456:CD2:4068, H-B:LYS:547:NZ:9923, V-B:HIS:456:CD2:9040, V-A:GLY:544:C:4912, V-A:HIS:456:CB:4065, V-A:GLU:543:C:4902, V-B:TYR:484:CE2:9318, V-A:HIS:456:CG:4066, V-A:VAL:458:CG2:4087, V-A:GLU:543:CA:4904"]

$$$$
1aa_Ghoteimi_2023
     RDKit          3D

 40 43  0  0  0  0  0  0  0  0999 V2000
  127.8040  126.9570   72.0620 C   0  0  0  0  0  0  0  0  0  0  0  0
  129.2170  127.1970   72.6030 C   0  0  0  0  0  0  0  0  0  0  0  0
  129.8350  128.2450   71.8660 O   0  0  0  0  0  0  0  0  0  0  0  0
  130.4580  127.9980   70.6860 C   0  0  0  0  0  0  0  0  0  0  0  0
  131.6590  127.7250   70.5940 O   0  0  0  0  0  0  0  0  0  0  0  0
  129.5420  128.0900   69.4990 C   0  0  0  0  0  0  0  0  0  0  0  0
  129.5260  129.2140   68.6590 C   0  0  0  0  0  0  0  0  0  0  0  0
  128.6660  129.2710   67.5650 C   0  0  0  0  0  0  0  0  0  0  0  0
  127.8050  128.1980   67.2900 C   0  0  0  0  0  0  0  0  0  0  0  0
  126.8950  128.1440   66.2180 N   0  0  0  0  0  0  0  0  0  0  0  0
  126.9760  128.6680   64.9720 C   0  0  0  0  0  0  0  0  0  0  0  0
  127.9300  129.3170   64.5430 O   0  0  0  0  0  0  0  0  0  0  0  0
  125.7870  128.4270   64.0290 C   0  0  0  0  0  0  0  0  0  0  0  0
  126.1220  128.8150   62.6900 O   0  0  0  0  0  0  0  0  0  0  0  0
  127.2270  128.2660   62.0560 C   0  0  0  0  0  0  0  0  0  0  0  0
  127.3690  126.9120   62.0760 N   0  0  0  0  0  0  0  0  0  0  0  0
  128.4460  126.3370   61.4780 C   0  0  0  0  0  0  0  0  0  0  0  0
  128.5280  124.8380   61.5430 C   0  0  0  0  0  0  0  0  0  0  0  0
  127.3920  124.0430   61.3340 C   0  0  0  0  0  0  0  0  0  0  0  0
  127.4660  122.6540   61.3960 C   0  0  0  0  0  0  0  0  0  0  0  0
  128.6760  122.0180   61.6660 C   0  0  0  0  0  0  0  0  0  0  0  0
  128.6530  120.6370   61.7080 O   0  0  0  0  0  0  0  0  0  0  0  0
  129.8810  119.9200   61.6280 C   0  0  0  0  0  0  0  0  0  0  0  0
  129.8210  122.7990   61.8720 C   0  0  0  0  0  0  0  0  0  0  0  0
  129.7440  124.1870   61.8090 C   0  0  0  0  0  0  0  0  0  0  0  0
  129.4010  127.1210   60.8220 C   0  0  0  0  0  0  0  0  0  0  0  0
  129.2720  128.5160   60.7760 C   0  0  0  0  0  0  0  0  0  0  0  0
  130.3200  129.2960   60.0520 C   0  0  0  0  0  0  0  0  0  0  0  0
  130.6660  128.9590   58.7400 C   0  0  0  0  0  0  0  0  0  0  0  0
  131.6340  129.6870   58.0540 C   0  0  0  0  0  0  0  0  0  0  0  0
  132.2710  130.7690   58.6620 C   0  0  0  0  0  0  0  0  0  0  0  0
  133.2180  131.4320   57.9060 O   0  0  0  0  0  0  0  0  0  0  0  0
  134.0020  130.6970   56.9740 C   0  0  0  0  0  0  0  0  0  0  0  0
  131.9210  131.1160   59.9760 C   0  0  0  0  0  0  0  0  0  0  0  0
  130.9530  130.3860   60.6600 C   0  0  0  0  0  0  0  0  0  0  0  0
  128.1580  129.1040   61.4190 C   0  0  0  0  0  0  0  0  0  0  0  0
  127.9620  130.5540   61.4630 C   0  0  0  0  0  0  0  0  0  0  0  0
  127.8060  131.7000   61.4980 N   0  0  0  0  0  0  0  0  0  0  0  0
  127.8170  127.0800   68.1250 C   0  0  0  0  0  0  0  0  0  0  0  0
  128.6760  127.0250   69.2180 C   0  0  0  0  0  0  0  0  0  0  0  0
  1  2  1  0
  2  3  1  0
  3  4  1  0
  4  5  2  0
  4  6  1  0
  6  7  2  0
  7  8  1  0
  8  9  2  0
  9 10  1  0
 10 11  1  0
 11 12  2  0
 11 13  1  0
 13 14  1  0
 14 15  1  0
 15 16  2  0
 16 17  1  0
 17 18  1  0
 18 19  2  0
 19 20  1  0
 20 21  2  0
 21 22  1  0
 22 23  1  0
 21 24  1  0
 24 25  2  0
 17 26  2  0
 26 27  1  0
 27 28  1  0
 28 29  2  0
 29 30  1  0
 30 31  2  0
 31 32  1  0
 32 33  1  0
 31 34  1  0
 34 35  2  0
 27 36  2  0
 36 37  1  0
 37 38  3  0
  9 39  1  0
 39 40  2  0
 40  6  1  0
 36 15  1  0
 25 18  1  0
 35 28  1  0
M  END
>  <Binding energies>  (2) 
[-4.28]

>  <Ligand effiencies>  (2) 
[-0.10439024390243903]

>  <Interactions>  (2) 
["V-A:GLU:543:CG:4907, V-A:LEU:475:CD2:4259, V-A:GLU:543:CD:4908, V-A:ASP:366:CB:3212, V-B:GLU:543:CD:9880, V-A:GLU:543:CB:4906, V-A:PRO:540:CA:4883, V-A:PRO:540:CB:4885, H-B:TYR:484:OH:9320, V-B:HIS:456:CE1:9042, V-A:TYR:531:CZ:4794, V-B:PRO:540:CA:9855, V-A:LEU:363:CD1:3189, V-B:ALA:541:CB:9864, H-B:ALA:541:N:9863, V-A:LEU:363:CA:3185, V-A:ASP:366:CG:3213, V-A:HIS:456:CE1:4070, V-A:LEU:363:CB:3187, V-B:PRO:540:C:9853, V-A:LEU:475:CD1:4258, H-B:GLU:543:OE2:9882, H-B:GLU:543:OE1:9881, H-B:ARG:545:NH2:9900, V-B:GLU:543:CB:9878, V-A:HIS:456:CD2:4068, V-B:HIS:456:CD2:9040, V-A:GLY:544:C:4912, V-B:ARG:545:CZ:9898, V-A:GLU:543:C:4902, V-A:HIS:456:CG:4066, H-A:HIS:456:ND1:4067, V-A:GLU:543:CA:4904, V-B:GLY:544:C:9884, V-A:LEU:363:CG:3188, H-A:ARG:545:N:4920"]

$$$$
1b_Grossjean_2025
     RDKit          3D

 25 26  0  0  0  0  0  0  0  0999 V2000
  130.8120  125.5900   74.2500 C   0  0  0  0  0  0  0  0  0  0  0  0
  129.8460  126.0610   73.3200 O   0  0  0  0  0  0  0  0  0  0  0  0
  129.8800  127.3400   72.8660 C   0  0  0  0  0  0  0  0  0  0  0  0
  130.1420  128.3110   73.5840 O   0  0  0  0  0  0  0  0  0  0  0  0
  129.5750  127.4590   71.4000 C   0  0  0  0  0  0  0  0  0  0  0  0
  128.5240  126.7490   70.8010 C   0  0  0  0  0  0  0  0  0  0  0  0
  128.2690  126.8800   69.4390 C   0  0  0  0  0  0  0  0  0  0  0  0
  129.0530  127.7190   68.6490 C   0  0  0  0  0  0  0  0  0  0  0  0
  128.7050  127.7730   67.2860 N   0  0  0  0  0  0  0  0  0  0  0  0
  128.2790  128.8130   66.5370 C   0  0  0  0  0  0  0  0  0  0  0  0
  128.1160  129.9650   66.9380 O   0  0  0  0  0  0  0  0  0  0  0  0
  127.9960  128.4910   65.0690 C   0  0  0  0  0  0  0  0  0  0  0  0
  126.4020  129.1650   64.5120 S   0  0  0  0  0  0  0  0  0  0  0  0
  126.6650  129.8970   62.9110 C   0  0  0  0  0  0  0  0  0  0  0  0
  126.0530  129.2330   61.9000 N   0  0  0  0  0  0  0  0  0  0  0  0
  126.1860  129.7040   60.6380 C   0  0  0  0  0  0  0  0  0  0  0  0
  125.4620  128.9190   59.5600 C   0  0  0  0  0  0  0  0  0  0  0  0
  126.9360  130.8390   60.3350 C   0  0  0  0  0  0  0  0  0  0  0  0
  127.5880  131.5180   61.3680 C   0  0  0  0  0  0  0  0  0  0  0  0
  128.4180  132.7500   61.0090 C   0  0  0  0  0  0  0  0  0  0  0  0
  127.4640  131.0440   62.6940 C   0  0  0  0  0  0  0  0  0  0  0  0
  128.1750  131.7130   63.7860 C   0  0  0  0  0  0  0  0  0  0  0  0
  128.7370  132.2440   64.6470 N   0  0  0  0  0  0  0  0  0  0  0  0
  130.1070  128.4330   69.2410 C   0  0  0  0  0  0  0  0  0  0  0  0
  130.3610  128.3020   70.6030 C   0  0  0  0  0  0  0  0  0  0  0  0
  1  2  1  0
  2  3  1  0
  3  4  2  0
  3  5  1  0
  5  6  2  0
  6  7  1  0
  7  8  2  0
  8  9  1  0
  9 10  1  0
 10 11  2  0
 10 12  1  0
 12 13  1  0
 13 14  1  0
 14 15  2  0
 15 16  1  0
 16 17  1  0
 16 18  2  0
 18 19  1  0
 19 20  1  0
 19 21  2  0
 21 22  1  0
 22 23  3  0
  8 24  1  0
 24 25  2  0
 25  5  1  0
 21 14  1  0
M  END
>  <Binding energies>  (3) 
[-6.25]

>  <Ligand effiencies>  (3) 
[-0.2403846153846154]

>  <Interactions>  (3) 
["V-A:GLU:543:CG:4907, V-A:GLU:543:CD:4908, V-B:GLU:543:CD:9880, V-B:TYR:484:CZ:9319, V-A:GLU:543:CB:4906, H-B:TYR:484:OH:9320, V-B:HIS:456:CE1:9042, V-B:ASP:366:CB:8184, H-A:GLU:543:OE2:4910, V-B:ASP:366:CG:8185, V-A:HIS:456:CE1:4070, V-A:ALA:541:CB:4892, H-B:GLU:543:OE2:9882, V-A:GLY:544:CA:4914, V-A:HIS:456:CD2:4068, H-B:LYS:547:NZ:9923, V-B:HIS:456:CD2:9040, H-A:LYS:547:NZ:4951, V-A:GLY:544:C:4912, V-A:HIS:456:CB:4065, V-A:GLU:543:C:4902, V-B:TYR:484:CE2:9318, V-A:HIS:456:CG:4066, V-B:LYS:547:CE:9922"]

$$$$
1c_Grossjean_2025
     RDKit          3D

 23 24  0  0  0  0  0  0  0  0999 V2000
  127.9450  126.5600   70.6560 C   0  0  0  0  0  0  0  0  0  0  0  0
  127.7290  126.0700   69.3370 O   0  0  0  0  0  0  0  0  0  0  0  0
  127.6190  126.9700   68.2940 C   0  0  0  0  0  0  0  0  0  0  0  0
  128.7790  127.6630   67.9450 C   0  0  0  0  0  0  0  0  0  0  0  0
  128.7690  128.5890   66.9070 C   0  0  0  0  0  0  0  0  0  0  0  0
  127.5860  128.8310   66.1940 C   0  0  0  0  0  0  0  0  0  0  0  0
  127.4620  129.7530   65.1360 N   0  0  0  0  0  0  0  0  0  0  0  0
  127.1860  129.5300   63.8330 C   0  0  0  0  0  0  0  0  0  0  0  0
  126.9670  128.4290   63.3280 O   0  0  0  0  0  0  0  0  0  0  0  0
  127.1440  130.7780   62.9490 C   0  0  0  0  0  0  0  0  0  0  0  0
  128.6100  131.8250   63.1860 S   0  0  0  0  0  0  0  0  0  0  0  0
  129.6080  131.7360   61.7130 C   0  0  0  0  0  0  0  0  0  0  0  0
  130.9250  131.5280   61.9650 N   0  0  0  0  0  0  0  0  0  0  0  0
  131.7830  131.4430   60.9220 C   0  0  0  0  0  0  0  0  0  0  0  0
  133.2370  131.1980   61.2820 C   0  0  0  0  0  0  0  0  0  0  0  0
  131.3710  131.5710   59.5980 C   0  0  0  0  0  0  0  0  0  0  0  0
  130.0200  131.8110   59.3270 C   0  0  0  0  0  0  0  0  0  0  0  0
  129.5950  131.9650   57.8680 C   0  0  0  0  0  0  0  0  0  0  0  0
  129.1050  131.9060   60.4010 C   0  0  0  0  0  0  0  0  0  0  0  0
  127.6960  132.2100   60.1400 C   0  0  0  0  0  0  0  0  0  0  0  0
  126.5840  132.4510   59.9330 N   0  0  0  0  0  0  0  0  0  0  0  0
  126.4210  128.1490   66.5480 C   0  0  0  0  0  0  0  0  0  0  0  0
  126.4340  127.2230   67.5870 C   0  0  0  0  0  0  0  0  0  0  0  0
  1  2  1  0
  2  3  1  0
  3  4  2  0
  4  5  1  0
  5  6  2  0
  6  7  1  0
  7  8  1  0
  8  9  2  0
  8 10  1  0
 10 11  1  0
 11 12  1  0
 12 13  2  0
 13 14  1  0
 14 15  1  0
 14 16  2  0
 16 17  1  0
 17 18  1  0
 17 19  2  0
 19 20  1  0
 20 21  3  0
  6 22  1  0
 22 23  2  0
 23  3  1  0
 19 12  1  0
M  END
>  <Binding energies>  (4) 
[-5.89]

>  <Ligand effiencies>  (4) 
[-0.24541666666666664]

>  <Interactions>  (4) 
["V-A:GLU:543:CG:4907, V-A:GLU:543:CD:4908, H-A:ALA:541:N:4891, V-B:GLU:543:CD:9880, V-B:TYR:484:CZ:9319, V-A:GLU:543:CB:4906, V-A:PRO:540:CA:4883, V-A:PRO:540:CB:4885, H-B:TYR:484:OH:9320, V-A:ASN:362:CB:3176, V-B:HIS:456:CE1:9042, V-A:PRO:540:N:4884, V-A:HIS:456:CE1:4070, V-A:TYR:539:C:4867, V-A:ALA:541:CB:4892, H-B:ARG:545:NH2:9900, V-B:GLU:543:CB:9878, V-B:ARG:545:CG:9894, V-A:HIS:456:CD2:4068, V-B:HIS:456:CD2:9040, V-B:GLY:544:C:9884"]

$$$$
1d_Grossjean_2025
     RDKit          3D

 21 22  0  0  0  0  0  0  0  0999 V2000
  134.0230  124.9300   65.9640 C   0  0  0  0  0  0  0  0  0  0  0  0
  133.2240  125.0980   64.6860 C   0  0  0  0  0  0  0  0  0  0  0  0
  131.9230  125.5980   64.6990 C   0  0  0  0  0  0  0  0  0  0  0  0
  131.2370  125.7420   63.4890 C   0  0  0  0  0  0  0  0  0  0  0  0
  129.8190  126.3070   63.5270 C   0  0  0  0  0  0  0  0  0  0  0  0
  131.8760  125.3680   62.2840 C   0  0  0  0  0  0  0  0  0  0  0  0
  131.1960  125.5540   61.0010 C   0  0  0  0  0  0  0  0  0  0  0  0
  130.6550  125.7030   59.9880 N   0  0  0  0  0  0  0  0  0  0  0  0
  133.1890  124.8460   62.3670 C   0  0  0  0  0  0  0  0  0  0  0  0
  134.1390  124.3260   60.9560 S   0  0  0  0  0  0  0  0  0  0  0  0
  133.0330  123.3610   59.8830 C   0  0  0  0  0  0  0  0  0  0  0  0
  132.8890  121.9130   60.3570 C   0  0  0  0  0  0  0  0  0  0  0  0
  133.8630  121.3430   60.8480 O   0  0  0  0  0  0  0  0  0  0  0  0
  131.6580  121.3770   60.2120 N   0  0  0  0  0  0  0  0  0  0  0  0
  131.1950  120.0860   60.5240 C   0  0  0  0  0  0  0  0  0  0  0  0
  130.0700  120.0290   61.3510 C   0  0  0  0  0  0  0  0  0  0  0  0
  129.5260  118.8010   61.7170 C   0  0  0  0  0  0  0  0  0  0  0  0
  130.1040  117.6240   61.2480 C   0  0  0  0  0  0  0  0  0  0  0  0
  131.2200  117.6660   60.4150 C   0  0  0  0  0  0  0  0  0  0  0  0
  131.7670  118.8930   60.0490 C   0  0  0  0  0  0  0  0  0  0  0  0
  133.8530  124.7310   63.5460 N   0  0  0  0  0  0  0  0  0  0  0  0
  1  2  1  0
  2  3  2  0
  3  4  1  0
  4  5  1  0
  4  6  2  0
  6  7  1  0
  7  8  3  0
  6  9  1  0
  9 10  1  0
 10 11  1  0
 11 12  1  0
 12 13  2  0
 12 14  1  0
 14 15  1  0
 15 16  2  0
 16 17  1  0
 17 18  2  0
 18 19  1  0
 19 20  2  0
  9 21  2  0
 21  2  1  0
 20 15  1  0
M  END
>  <Binding energies>  (5) 
[-6.75]

>  <Ligand effiencies>  (5) 
[-0.3068181818181818]

>  <Interactions>  (5) 
["V-A:LEU:475:CD2:4259, V-A:GLU:543:CD:4908, V-B:GLU:543:CD:9880, V-A:ILE:369:CG2:3237, V-B:TYR:539:CD2:9846, V-A:GLY:454:CA:4049, H-A:TYR:484:OH:4348, V-B:TYR:539:CE2:9848, V-A:ILE:369:CD1:3239, V-A:TYR:484:CZ:4347, V-B:ALA:541:CB:9864, V-A:ARG:545:CZ:4926, H-A:ARG:545:NH2:4928, V-A:TYR:484:CE2:4346, H-A:GLY:454:N:4050, V-A:ARG:545:CG:4922, V-A:ARG:545:CD:4923, V-A:GLY:453:C:4042, V-A:LEU:475:CD1:4258, V-A:PRO:482:CB:4326, V-A:SER:385:CB:3409, V-A:LEU:475:CG:4257, V-A:PRO:482:CG:4327, V-A:ILE:455:C:4052, V-A:GLY:454:C:4047"]

$$$$
1e_Grossjean_2025
     RDKit          3D

 22 23  0  0  0  0  0  0  0  0999 V2000
  130.3110  117.5750   60.3210 C   0  0  0  0  0  0  0  0  0  0  0  0
  130.9800  118.9350   60.2530 C   0  0  0  0  0  0  0  0  0  0  0  0
  132.2900  119.0830   59.7890 C   0  0  0  0  0  0  0  0  0  0  0  0
  132.8410  120.3640   59.7570 C   0  0  0  0  0  0  0  0  0  0  0  0
  132.0800  121.4550   60.1840 C   0  0  0  0  0  0  0  0  0  0  0  0
  130.7710  121.2370   60.6310 C   0  0  0  0  0  0  0  0  0  0  0  0
  130.0580  122.3710   61.0590 N   0  0  0  0  0  0  0  0  0  0  0  0
  129.3970  122.5590   62.2220 C   0  0  0  0  0  0  0  0  0  0  0  0
  129.3030  121.7250   63.1240 O   0  0  0  0  0  0  0  0  0  0  0  0
  128.7020  123.9130   62.3810 C   0  0  0  0  0  0  0  0  0  0  0  0
  129.8680  125.2990   62.2270 S   0  0  0  0  0  0  0  0  0  0  0  0
  130.8400  125.0660   60.7520 C   0  0  0  0  0  0  0  0  0  0  0  0
  130.1090  125.1260   59.6090 N   0  0  0  0  0  0  0  0  0  0  0  0
  130.7380  124.9610   58.4220 C   0  0  0  0  0  0  0  0  0  0  0  0
  129.8590  125.0500   57.1900 C   0  0  0  0  0  0  0  0  0  0  0  0
  132.1070  124.7180   58.3250 C   0  0  0  0  0  0  0  0  0  0  0  0
  132.8660  124.6290   59.4970 C   0  0  0  0  0  0  0  0  0  0  0  0
  134.3610  124.3440   59.3640 C   0  0  0  0  0  0  0  0  0  0  0  0
  132.2290  124.7950   60.7480 C   0  0  0  0  0  0  0  0  0  0  0  0
  132.9980  124.6470   61.9860 C   0  0  0  0  0  0  0  0  0  0  0  0
  133.6080  124.5290   62.9620 N   0  0  0  0  0  0  0  0  0  0  0  0
  130.2270  119.9840   60.6700 N   0  0  0  0  0  0  0  0  0  0  0  0
  1  2  1  0
  2  3  2  0
  3  4  1  0
  4  5  2  0
  5  6  1  0
  6  7  1  0
  7  8  1  0
  8  9  2  0
  8 10  1  0
 10 11  1  0
 11 12  1  0
 12 13  2  0
 13 14  1  0
 14 15  1  0
 14 16  2  0
 16 17  1  0
 17 18  1  0
 17 19  2  0
 19 20  1  0
 20 21  3  0
  6 22  2  0
 22  2  1  0
 19 12  1  0
M  END
>  <Binding energies>  (6) 
[-6.17]

>  <Ligand effiencies>  (6) 
[-0.2682608695652174]

>  <Interactions>  (6) 
["V-A:ASP:366:CA:3210, V-A:LEU:475:CD2:4259, V-A:ASP:366:CB:3212, V-B:GLU:543:CD:9880, V-B:TYR:539:CZ:9849, V-A:ILE:369:CG2:3237, V-A:ILE:369:CB:3236, V-B:TYR:539:CD2:9846, H-A:TYR:484:OH:4348, V-B:TYR:539:CE2:9848, V-A:ILE:369:CD1:3239, V-B:GLU:543:CG:9879, V-B:ALA:541:CB:9864, V-A:ASP:366:CG:3213, H-A:ARG:545:NH2:4928, H-A:GLY:454:N:4050, V-A:TYR:484:CE1:4345, V-A:PRO:482:CB:4326, V-A:SER:385:CB:3409, V-B:TYR:539:CB:9843, V-A:PRO:482:CG:4327, V-A:ILE:369:CG1:3238"]

$$$$
1f_Grossjean_2025
     RDKit          3D

 21 22  0  0  0  0  0  0  0  0999 V2000
  127.7360  122.5190   62.3750 C   0  0  0  0  0  0  0  0  0  0  0  0
  128.9370  121.8720   61.7110 C   0  0  0  0  0  0  0  0  0  0  0  0
  129.0990  120.4890   61.6840 C   0  0  0  0  0  0  0  0  0  0  0  0
  130.2330  119.9510   61.0680 C   0  0  0  0  0  0  0  0  0  0  0  0
  130.3990  118.4320   61.0680 C   0  0  0  0  0  0  0  0  0  0  0  0
  131.1810  120.8210   60.4800 C   0  0  0  0  0  0  0  0  0  0  0  0
  132.4020  120.2780   59.8800 C   0  0  0  0  0  0  0  0  0  0  0  0
  133.3660  119.8480   59.4050 N   0  0  0  0  0  0  0  0  0  0  0  0
  130.9200  122.2100   60.5300 C   0  0  0  0  0  0  0  0  0  0  0  0
  131.9960  123.4550   59.8460 S   0  0  0  0  0  0  0  0  0  0  0  0
  131.0200  124.9750   59.5770 C   0  0  0  0  0  0  0  0  0  0  0  0
  129.8800  124.8390   58.5570 C   0  0  0  0  0  0  0  0  0  0  0  0
  129.8610  125.5400   57.5440 O   0  0  0  0  0  0  0  0  0  0  0  0
  128.9350  123.9330   58.8880 N   0  0  0  0  0  0  0  0  0  0  0  0
  127.7720  123.5520   58.1930 C   0  0  0  0  0  0  0  0  0  0  0  0
  126.4810  124.0690   58.4090 C   0  0  0  0  0  0  0  0  0  0  0  0
  125.4120  123.6020   57.6400 C   0  0  0  0  0  0  0  0  0  0  0  0
  125.6600  122.6300   56.6710 C   0  0  0  0  0  0  0  0  0  0  0  0
  126.8950  122.1190   56.4390 N   0  0  0  0  0  0  0  0  0  0  0  0
  127.9240  122.5840   57.1940 C   0  0  0  0  0  0  0  0  0  0  0  0
  129.8290  122.7230   61.1520 N   0  0  0  0  0  0  0  0  0  0  0  0
  1  2  1  0
  2  3  2  0
  3  4  1  0
  4  5  1  0
  4  6  2  0
  6  7  1  0
  7  8  3  0
  6  9  1  0
  9 10  1  0
 10 11  1  0
 11 12  1  0
 12 13  2  0
 12 14  1  0
 14 15  1  0
 15 16  2  0
 16 17  1  0
 17 18  2  0
 18 19  1  0
 19 20  2  0
  9 21  2  0
 21  2  1  0
 20 15  1  0
M  END
>  <Binding energies>  (7) 
[-6.28]

>  <Ligand effiencies>  (7) 
[-0.28545454545454546]

>  <Interactions>  (7) 
["V-B:TYR:539:CE1:9847, V-A:LEU:475:CD2:4259, H-B:TYR:539:OH:9850, V-B:GLU:543:CD:9880, V-B:TYR:539:CZ:9849, V-A:ILE:369:CG2:3237, V-B:TYR:539:CD2:9846, V-B:TYR:539:CE2:9848, V-B:PRO:540:CA:9855, V-B:GLU:543:CG:9879, V-B:ALA:541:CB:9864, V-B:TYR:539:C:9839, V-B:TYR:539:CG:9844, V-B:PRO:540:C:9853, V-B:PRO:540:N:9856, H-B:TYR:539:N:9842, V-A:LEU:475:CD1:4258, V-B:ALA:541:CA:9862, V-A:PRO:482:CB:4326, V-A:SER:385:CB:3409, V-A:LEU:475:CG:4257, V-B:PRO:540:CB:9857, V-B:TYR:539:CD1:9845, V-B:PRO:540:CD:9859, V-B:TYR:539:CA:9841"]

$$$$
1g_Grossjean_2025
     RDKit          3D

 22 23  0  0  0  0  0  0  0  0999 V2000
  133.6950  125.1070   65.6370 C   0  0  0  0  0  0  0  0  0  0  0  0
  132.9340  125.1950   64.3280 C   0  0  0  0  0  0  0  0  0  0  0  0
  131.6240  125.6680   64.2760 C   0  0  0  0  0  0  0  0  0  0  0  0
  130.9670  125.7120   63.0420 C   0  0  0  0  0  0  0  0  0  0  0  0
  129.5260  126.2200   63.0120 C   0  0  0  0  0  0  0  0  0  0  0  0
  131.6480  125.2850   61.8800 C   0  0  0  0  0  0  0  0  0  0  0  0
  130.9620  125.2730   60.5850 C   0  0  0  0  0  0  0  0  0  0  0  0
  130.4170  125.2640   59.5640 N   0  0  0  0  0  0  0  0  0  0  0  0
  132.9840  124.8450   62.0230 C   0  0  0  0  0  0  0  0  0  0  0  0
  133.9900  124.2830   60.6670 S   0  0  0  0  0  0  0  0  0  0  0  0
  133.6740  122.5050   60.4600 C   0  0  0  0  0  0  0  0  0  0  0  0
  132.5390  122.0160   61.3620 C   0  0  0  0  0  0  0  0  0  0  0  0
  132.6780  122.0230   62.5860 O   0  0  0  0  0  0  0  0  0  0  0  0
  131.4260  121.5900   60.7410 N   0  0  0  0  0  0  0  0  0  0  0  0
  130.2040  121.1370   61.4050 C   0  0  0  0  0  0  0  0  0  0  0  0
  128.9880  122.0230   61.1550 C   0  0  0  0  0  0  0  0  0  0  0  0
  128.6910  122.4510   59.8570 C   0  0  0  0  0  0  0  0  0  0  0  0
  127.5810  123.2590   59.6280 C   0  0  0  0  0  0  0  0  0  0  0  0
  126.7680  123.6330   60.6960 C   0  0  0  0  0  0  0  0  0  0  0  0
  127.0560  123.2070   61.9910 C   0  0  0  0  0  0  0  0  0  0  0  0
  128.1670  122.4000   62.2210 C   0  0  0  0  0  0  0  0  0  0  0  0
  133.6070  124.7840   63.2270 N   0  0  0  0  0  0  0  0  0  0  0  0
  1  2  1  0
  2  3  2  0
  3  4  1  0
  4  5  1  0
  4  6  2  0
  6  7  1  0
  7  8  3  0
  6  9  1  0
  9 10  1  0
 10 11  1  0
 11 12  1  0
 12 13  2  0
 12 14  1  0
 14 15  1  0
 15 16  1  0
 16 17  2  0
 17 18  1  0
 18 19  2  0
 19 20  1  0
 20 21  2  0
  9 22  2  0
 22  2  1  0
 21 16  1  0
M  END
>  <Binding energies>  (8) 
[-6.3]

>  <Ligand effiencies>  (8) 
[-0.27391304347826084]

>  <Interactions>  (8) 
["V-A:LEU:475:CD2:4259, V-A:GLU:543:CD:4908, V-B:GLU:543:CD:9880, V-A:ILE:369:CG2:3237, V-A:ILE:369:CB:3236, V-B:TYR:539:CD2:9846, V-A:GLY:454:CA:4049, H-A:TYR:484:OH:4348, V-B:TYR:539:CE2:9848, V-A:ILE:369:CD1:3239, V-A:TYR:484:CZ:4347, V-B:PRO:540:CA:9855, V-B:GLU:543:CG:9879, V-B:ALA:541:CB:9864, V-A:ARG:545:CZ:4926, H-A:ARG:545:NH2:4928, V-B:TYR:539:C:9839, V-A:TYR:484:CE2:4346, H-A:GLY:454:N:4050, V-A:ARG:545:CG:4922, V-A:ARG:545:CD:4923"]

$$$$
1h_Grossjean_2025
     RDKit          3D

 28 29  0  0  0  0  0  0  0  0999 V2000
  126.5620  126.2880   61.3640 C   0  0  0  0  0  0  0  0  0  0  0  0
  126.3220  124.8930   61.5110 O   0  0  0  0  0  0  0  0  0  0  0  0
  127.2290  123.9900   60.9870 C   0  0  0  0  0  0  0  0  0  0  0  0
  128.1350  123.2490   61.7630 C   0  0  0  0  0  0  0  0  0  0  0  0
  129.0320  122.3640   61.1640 C   0  0  0  0  0  0  0  0  0  0  0  0
  129.9950  121.5480   62.0200 C   0  0  0  0  0  0  0  0  0  0  0  0
  131.4050  121.8740   61.8050 N   0  0  0  0  0  0  0  0  0  0  0  0
  132.2110  121.2810   60.9060 C   0  0  0  0  0  0  0  0  0  0  0  0
  131.8390  120.3990   60.1320 O   0  0  0  0  0  0  0  0  0  0  0  0
  133.6650  121.7520   60.8800 C   0  0  0  0  0  0  0  0  0  0  0  0
  133.8010  123.5200   60.4750 S   0  0  0  0  0  0  0  0  0  0  0  0
  132.9310  124.4440   61.7310 C   0  0  0  0  0  0  0  0  0  0  0  0
  133.5000  124.4420   62.9650 N   0  0  0  0  0  0  0  0  0  0  0  0
  132.8950  125.1270   63.9630 C   0  0  0  0  0  0  0  0  0  0  0  0
  133.5920  125.0810   65.3100 C   0  0  0  0  0  0  0  0  0  0  0  0
  131.7090  125.8340   63.7790 C   0  0  0  0  0  0  0  0  0  0  0  0
  131.1120  125.8420   62.5140 C   0  0  0  0  0  0  0  0  0  0  0  0
  129.8130  126.6240   62.3330 C   0  0  0  0  0  0  0  0  0  0  0  0
  131.7280  125.1330   61.4560 C   0  0  0  0  0  0  0  0  0  0  0  0
  131.1230  125.1220   60.1210 C   0  0  0  0  0  0  0  0  0  0  0  0
  130.6460  125.1120   59.0670 N   0  0  0  0  0  0  0  0  0  0  0  0
  129.0040  122.1860   59.7800 C   0  0  0  0  0  0  0  0  0  0  0  0
  128.1050  122.9100   58.9800 C   0  0  0  0  0  0  0  0  0  0  0  0
  128.0230  122.7870   57.6050 O   0  0  0  0  0  0  0  0  0  0  0  0
  126.7710  122.4730   57.0040 C   0  0  0  0  0  0  0  0  0  0  0  0
  127.2300  123.8170   59.5950 C   0  0  0  0  0  0  0  0  0  0  0  0
  126.3410  124.5280   58.8260 O   0  0  0  0  0  0  0  0  0  0  0  0
  126.9200  125.6300   58.1420 C   0  0  0  0  0  0  0  0  0  0  0  0
  1  2  1  0
  2  3  1  0
  3  4  2  0
  4  5  1  0
  5  6  1  0
  6  7  1  0
  7  8  1  0
  8  9  2  0
  8 10  1  0
 10 11  1  0
 11 12  1  0
 12 13  2  0
 13 14  1  0
 14 15  1  0
 14 16  2  0
 16 17  1  0
 17 18  1  0
 17 19  2  0
 19 20  1  0
 20 21  3  0
  5 22  2  0
 22 23  1  0
 23 24  1  0
 24 25  1  0
 23 26  2  0
 26 27  1  0
 27 28  1  0
 26  3  1  0
 19 12  1  0
M  END
>  <Binding energies>  (9) 
[-5.81]

>  <Ligand effiencies>  (9) 
[-0.2003448275862069]

>  <Interactions>  (9) 
["V-A:LEU:475:CD2:4259, V-A:GLU:543:CD:4908, V-B:GLU:543:CD:9880, V-A:ILE:369:CG2:3237, V-B:TYR:539:CD2:9846, V-A:GLY:454:CA:4049, H-A:TYR:484:OH:4348, V-B:TYR:539:CE2:9848, V-A:ILE:369:CD1:3239, V-A:TYR:484:CZ:4347, V-B:PRO:540:CA:9855, V-B:ASP:366:CG:8185, V-B:ALA:541:CB:9864, V-A:ARG:545:CZ:4926, V-B:TYR:539:C:9839, V-A:TYR:484:CE2:4346, H-A:GLY:454:N:4050, V-A:ARG:545:CG:4922, V-A:ARG:545:CD:4923, V-B:PRO:540:N:9856, V-A:TYR:484:CE1:4345, H-B:ARG:545:NH2:9900, V-B:PRO:540:CD:9859, V-B:TYR:539:CA:9841"]

$$$$
1i_Grossjean_2025
     RDKit          3D

 20 21  0  0  0  0  0  0  0  0999 V2000
  130.6870  118.5780   60.3480 C   0  0  0  0  0  0  0  0  0  0  0  0
  130.8910  120.0340   60.7190 C   0  0  0  0  0  0  0  0  0  0  0  0
  131.9900  120.7570   60.2610 C   0  0  0  0  0  0  0  0  0  0  0  0
  132.1210  122.1010   60.6280 C   0  0  0  0  0  0  0  0  0  0  0  0
  133.3260  122.8770   60.1000 C   0  0  0  0  0  0  0  0  0  0  0  0
  131.1390  122.6900   61.4580 C   0  0  0  0  0  0  0  0  0  0  0  0
  131.2300  124.1080   61.8130 C   0  0  0  0  0  0  0  0  0  0  0  0
  131.3030  125.2300   62.0900 N   0  0  0  0  0  0  0  0  0  0  0  0
  130.0700  121.8730   61.8960 C   0  0  0  0  0  0  0  0  0  0  0  0
  128.7510  122.4480   62.9420 S   0  0  0  0  0  0  0  0  0  0  0  0
  127.9160  123.8120   62.0770 C   0  0  0  0  0  0  0  0  0  0  0  0
  127.0130  123.3100   60.9470 C   0  0  0  0  0  0  0  0  0  0  0  0
  125.8850  122.8940   61.2160 O   0  0  0  0  0  0  0  0  0  0  0  0
  127.5450  123.3700   59.7070 N   0  0  0  0  0  0  0  0  0  0  0  0
  126.9480  122.9780   58.5170 C   0  0  0  0  0  0  0  0  0  0  0  0
  125.6390  123.3130   58.1750 C   0  0  0  0  0  0  0  0  0  0  0  0
  125.4340  122.7430   56.9400 C   0  0  0  0  0  0  0  0  0  0  0  0
  126.5610  122.0970   56.5580 O   0  0  0  0  0  0  0  0  0  0  0  0
  127.5140  122.2510   57.5670 N   0  0  0  0  0  0  0  0  0  0  0  0
  129.9410  120.5760   61.5180 N   0  0  0  0  0  0  0  0  0  0  0  0
  1  2  1  0
  2  3  2  0
  3  4  1  0
  4  5  1  0
  4  6  2  0
  6  7  1  0
  7  8  3  0
  6  9  1  0
  9 10  1  0
 10 11  1  0
 11 12  1  0
 12 13  2  0
 12 14  1  0
 14 15  1  0
 15 16  1  0
 16 17  2  0
 17 18  1  0
 18 19  1  0
  9 20  2  0
 20  2  1  0
 19 15  2  0
M  END
>  <Binding energies>  (10) 
[-6.69]

>  <Ligand effiencies>  (10) 
[-0.3185714285714286]

>  <Interactions>  (10) 
["V-A:LEU:475:CD2:4259, V-B:GLU:543:CD:9880, V-A:ILE:369:CG2:3237, V-B:TYR:539:CD2:9846, H-A:TYR:484:OH:4348, V-B:TYR:539:CE2:9848, V-A:ILE:369:CD1:3239, V-B:PRO:540:CA:9855, V-B:GLU:543:CG:9879, H-B:ALA:541:N:9863, V-B:TYR:539:C:9839, V-B:PRO:540:N:9856, H-B:TYR:539:N:9842, V-B:TYR:539:CB:9843, V-B:PRO:540:CB:9857, V-B:PRO:540:CD:9859"]

$$$$
1k_Grossjean_2025
     RDKit          3D

 25 25  0  0  0  0  0  0  0  0999 V2000
  133.0570  131.5050   61.3650 C   0  0  0  0  0  0  0  0  0  0  0  0
  131.7000  131.8480   61.5920 O   0  0  0  0  0  0  0  0  0  0  0  0
  130.7830  131.0590   60.8440 C   0  0  0  0  0  0  0  0  0  0  0  0
  131.4040  130.7010   59.4870 C   0  0  0  0  0  0  0  0  0  0  0  0
  130.7880  129.5230   58.9820 O   0  0  0  0  0  0  0  0  0  0  0  0
  130.0690  128.7880   59.9640 C   0  0  0  0  0  0  0  0  0  0  0  0
  130.9420  127.6360   60.4790 C   0  0  0  0  0  0  0  0  0  0  0  0
  130.1100  126.5740   60.9260 O   0  0  0  0  0  0  0  0  0  0  0  0
  129.8550  126.5980   62.3250 C   0  0  0  0  0  0  0  0  0  0  0  0
  131.1180  126.1590   63.0880 C   0  0  0  0  0  0  0  0  0  0  0  0
  132.0670  125.3930   62.2790 N   0  0  0  0  0  0  0  0  0  0  0  0
  133.2510  124.9230   62.7090 C   0  0  0  0  0  0  0  0  0  0  0  0
  133.6630  125.0900   63.8590 O   0  0  0  0  0  0  0  0  0  0  0  0
  134.0790  124.1560   61.6660 C   0  0  0  0  0  0  0  0  0  0  0  0
  133.2290  122.7570   60.8560 S   0  0  0  0  0  0  0  0  0  0  0  0
  131.7000  123.3370   60.1350 C   0  0  0  0  0  0  0  0  0  0  0  0
  131.8220  124.2740   59.1600 N   0  0  0  0  0  0  0  0  0  0  0  0
  130.7030  124.7630   58.5780 C   0  0  0  0  0  0  0  0  0  0  0  0
  130.9220  125.8120   57.5050 C   0  0  0  0  0  0  0  0  0  0  0  0
  129.4250  124.3380   58.9330 C   0  0  0  0  0  0  0  0  0  0  0  0
  129.2850  123.3680   59.9310 C   0  0  0  0  0  0  0  0  0  0  0  0
  127.8750  122.9150   60.3050 C   0  0  0  0  0  0  0  0  0  0  0  0
  130.4410  122.8470   60.5540 C   0  0  0  0  0  0  0  0  0  0  0  0
  130.3240  121.8320   61.6050 C   0  0  0  0  0  0  0  0  0  0  0  0
  130.2310  121.0310   62.4350 N   0  0  0  0  0  0  0  0  0  0  0  0
  1  2  1  0
  2  3  1  0
  3  4  1  0
  4  5  1  0
  5  6  1  0
  6  7  1  0
  7  8  1  0
  8  9  1  0
  9 10  1  0
 10 11  1  0
 11 12  1  0
 12 13  2  0
 12 14  1  0
 14 15  1  0
 15 16  1  0
 16 17  2  0
 17 18  1  0
 18 19  1  0
 18 20  2  0
 20 21  1  0
 21 22  1  0
 21 23  2  0
 23 24  1  0
 24 25  3  0
 23 16  1  0
M  END
>  <Binding energies>  (11) 
[-5.0]

>  <Ligand effiencies>  (11) 
[-0.19230769230769232]

>  <Interactions>  (11) 
["V-A:LEU:475:CD2:4259, V-A:GLU:543:CD:4908, H-A:ALA:541:N:4891, V-B:TYR:539:CZ:9849, V-A:PRO:540:CB:4885, V-B:TYR:539:CD2:9846, V-A:ASN:362:CB:3176, H-A:TYR:484:OH:4348, V-B:TYR:539:CE2:9848, V-A:ILE:369:CD1:3239, V-B:PRO:540:CA:9855, V-A:ARG:545:CZ:4926, V-A:ASP:366:CG:3213, H-A:ARG:545:NH2:4928, H-A:ARG:545:NE:4924, H-A:ARG:545:NH1:4927, H-A:GLY:454:N:4050, V-A:GLY:453:C:4042, V-A:GLY:453:CA:4044"]

$$$$
1l_Grossjean_2025
     RDKit          3D

 17 17  0  0  0  0  0  0  0  0999 V2000
  133.6100  125.0970   66.5060 C   0  0  0  0  0  0  0  0  0  0  0  0
  133.9920  125.2340   65.1450 O   0  0  0  0  0  0  0  0  0  0  0  0
  132.8650  125.4680   64.3570 N   0  0  0  0  0  0  0  0  0  0  0  0
  132.8750  125.0730   63.0690 C   0  0  0  0  0  0  0  0  0  0  0  0
  133.7250  124.3150   62.5930 O   0  0  0  0  0  0  0  0  0  0  0  0
  131.7290  125.6240   62.2100 C   0  0  0  0  0  0  0  0  0  0  0  0
  131.4450  124.7370   60.6400 S   0  0  0  0  0  0  0  0  0  0  0  0
  130.3520  123.3640   60.9670 C   0  0  0  0  0  0  0  0  0  0  0  0
  129.0570  123.6890   61.2200 N   0  0  0  0  0  0  0  0  0  0  0  0
  128.1730  122.6960   61.4780 C   0  0  0  0  0  0  0  0  0  0  0  0
  126.7480  123.1380   61.7500 C   0  0  0  0  0  0  0  0  0  0  0  0
  128.5360  121.3520   61.4930 C   0  0  0  0  0  0  0  0  0  0  0  0
  129.8660  121.0050   61.2320 C   0  0  0  0  0  0  0  0  0  0  0  0
  130.2420  119.5240   61.2530 C   0  0  0  0  0  0  0  0  0  0  0  0
  130.8050  122.0250   60.9620 C   0  0  0  0  0  0  0  0  0  0  0  0
  132.2060  121.6900   60.6860 C   0  0  0  0  0  0  0  0  0  0  0  0
  133.3100  121.4240   60.4680 N   0  0  0  0  0  0  0  0  0  0  0  0
  1  2  1  0
  2  3  1  0
  3  4  1  0
  4  5  2  0
  4  6  1  0
  6  7  1  0
  7  8  1  0
  8  9  2  0
  9 10  1  0
 10 11  1  0
 10 12  2  0
 12 13  1  0
 13 14  1  0
 13 15  2  0
 15 16  1  0
 16 17  3  0
 15  8  1  0
M  END
>  <Binding energies>  (12) 
[-6.26]

>  <Ligand effiencies>  (12) 
[-0.34777777777777774]

>  <Interactions>  (12) 
["V-A:LEU:475:CD2:4259, V-B:GLU:543:CD:9880, V-B:TYR:539:CD2:9846, H-A:TYR:484:OH:4348, V-B:TYR:539:CE2:9848, V-A:TYR:484:CZ:4347, V-B:PRO:540:CA:9855, H-A:GLU:543:OE2:4910, V-B:ALA:541:CB:9864, V-A:ARG:545:CZ:4926, V-B:TYR:539:C:9839, H-A:ARG:545:NE:4924, V-A:TYR:484:CE2:4346, V-A:HIS:456:CE1:4070, H-A:GLY:454:N:4050, V-B:PRO:540:C:9853, V-A:ARG:545:CG:4922, V-A:ARG:545:CD:4923, V-A:LEU:475:CD1:4258, V-B:ALA:541:CA:9862, H-A:GLU:543:OE1:4909, V-A:ILE:455:C:4052"]

$$$$
1m_Grossjean_2025
     RDKit          3D

 20 20  0  0  0  0  0  0  0  0999 V2000
  133.3200  125.3750   65.9740 C   0  0  0  0  0  0  0  0  0  0  0  0
  133.9640  125.1440   64.7290 O   0  0  0  0  0  0  0  0  0  0  0  0
  133.2450  125.0450   63.5920 C   0  0  0  0  0  0  0  0  0  0  0  0
  133.5660  124.3930   62.5940 O   0  0  0  0  0  0  0  0  0  0  0  0
  131.9320  125.8500   63.6820 C   0  0  0  0  0  0  0  0  0  0  0  0
  130.7770  125.1200   63.1350 N   0  0  0  0  0  0  0  0  0  0  0  0
  129.7570  125.6670   62.4470 C   0  0  0  0  0  0  0  0  0  0  0  0
  129.6750  126.8740   62.2120 O   0  0  0  0  0  0  0  0  0  0  0  0
  128.6790  124.6840   61.9720 C   0  0  0  0  0  0  0  0  0  0  0  0
  128.8460  124.1500   60.2340 S   0  0  0  0  0  0  0  0  0  0  0  0
  130.5710  123.8480   59.9150 C   0  0  0  0  0  0  0  0  0  0  0  0
  131.0790  124.6100   58.9130 N   0  0  0  0  0  0  0  0  0  0  0  0
  132.3850  124.4690   58.5860 C   0  0  0  0  0  0  0  0  0  0  0  0
  132.8860  125.3670   57.4710 C   0  0  0  0  0  0  0  0  0  0  0  0
  133.2280  123.5650   59.2290 C   0  0  0  0  0  0  0  0  0  0  0  0
  132.7090  122.7560   60.2450 C   0  0  0  0  0  0  0  0  0  0  0  0
  133.6470  121.7610   60.9240 C   0  0  0  0  0  0  0  0  0  0  0  0
  131.3470  122.8840   60.6030 C   0  0  0  0  0  0  0  0  0  0  0  0
  130.7710  122.0120   61.6300 C   0  0  0  0  0  0  0  0  0  0  0  0
  130.3160  121.3240   62.4410 N   0  0  0  0  0  0  0  0  0  0  0  0
  1  2  1  0
  2  3  1  0
  3  4  2  0
  3  5  1  0
  5  6  1  0
  6  7  1  0
  7  8  2  0
  7  9  1  0
  9 10  1  0
 10 11  1  0
 11 12  2  0
 12 13  1  0
 13 14  1  0
 13 15  2  0
 15 16  1  0
 16 17  1  0
 16 18  2  0
 18 19  1  0
 19 20  3  0
 18 11  1  0
M  END
>  <Binding energies>  (13) 
[-5.64]

>  <Ligand effiencies>  (13) 
[-0.26857142857142857]

>  <Interactions>  (13) 
["V-A:ASP:366:C:3208, V-A:ASP:366:CA:3210, V-A:LEU:475:CD2:4259, V-A:GLU:543:CD:4908, V-A:ASP:366:CB:3212, V-B:GLU:543:CD:9880, V-B:TYR:539:CZ:9849, V-A:ILE:369:CG2:3237, V-A:ILE:369:CB:3236, H-A:TYR:484:OH:4348, V-B:TYR:539:CE2:9848, V-A:ILE:369:CD1:3239, V-A:TYR:484:CZ:4347, V-A:ARG:545:CZ:4926, V-A:ASP:366:CG:3213, H-A:ARG:545:NH2:4928, H-A:ARG:545:NE:4924, V-A:TYR:484:CE2:4346, V-A:HIS:456:CE1:4070, H-A:ARG:545:NH1:4927, H-A:GLY:454:N:4050, V-A:ARG:545:CG:4922, V-A:ARG:545:CD:4923"]

$$$$
1n_Grossjean_2025
     RDKit          3D

 27 28  0  0  0  0  0  0  0  0999 V2000
  132.8760  131.4910   60.5060 C   0  0  0  0  0  0  0  0  0  0  0  0
  132.4960  131.4530   61.9890 C   0  0  0  0  0  0  0  0  0  0  0  0
  131.1380  131.8470   62.1400 O   0  0  0  0  0  0  0  0  0  0  0  0
  130.2310  131.6280   61.1530 C   0  0  0  0  0  0  0  0  0  0  0  0
  130.0100  132.4310   60.2420 O   0  0  0  0  0  0  0  0  0  0  0  0
  129.5320  130.3030   61.2720 C   0  0  0  0  0  0  0  0  0  0  0  0
  128.4200  130.1240   62.1090 C   0  0  0  0  0  0  0  0  0  0  0  0
  127.7970  128.8820   62.1990 C   0  0  0  0  0  0  0  0  0  0  0  0
  128.2750  127.7960   61.4650 C   0  0  0  0  0  0  0  0  0  0  0  0
  127.5740  126.5860   61.6360 N   0  0  0  0  0  0  0  0  0  0  0  0
  127.0400  125.7590   60.7110 C   0  0  0  0  0  0  0  0  0  0  0  0
  127.0850  125.9280   59.4920 O   0  0  0  0  0  0  0  0  0  0  0  0
  126.3310  124.5160   61.2630 C   0  0  0  0  0  0  0  0  0  0  0  0
  127.2350  123.2640   61.2880 C   0  0  0  0  0  0  0  0  0  0  0  0
  127.9920  122.8500   59.6880 S   0  0  0  0  0  0  0  0  0  0  0  0
  129.6380  123.5280   59.6790 C   0  0  0  0  0  0  0  0  0  0  0  0
  129.8530  124.4170   58.6770 N   0  0  0  0  0  0  0  0  0  0  0  0
  131.0660  125.0100   58.5820 C   0  0  0  0  0  0  0  0  0  0  0  0
  131.2300  126.0000   57.4450 C   0  0  0  0  0  0  0  0  0  0  0  0
  132.1070  124.7390   59.4680 C   0  0  0  0  0  0  0  0  0  0  0  0
  131.9020  123.8080   60.4930 C   0  0  0  0  0  0  0  0  0  0  0  0
  133.0610  123.5170   61.4440 C   0  0  0  0  0  0  0  0  0  0  0  0
  130.6440  123.1730   60.6080 C   0  0  0  0  0  0  0  0  0  0  0  0
  130.4240  122.1580   61.6400 C   0  0  0  0  0  0  0  0  0  0  0  0
  130.2520  121.3550   62.4560 N   0  0  0  0  0  0  0  0  0  0  0  0
  129.3800  127.9700   60.6190 C   0  0  0  0  0  0  0  0  0  0  0  0
  129.9990  129.2140   60.5270 C   0  0  0  0  0  0  0  0  0  0  0  0
  1  2  1  0
  2  3  1  0
  3  4  1  0
  4  5  2  0
  4  6  1  0
  6  7  2  0
  7  8  1  0
  8  9  2  0
  9 10  1  0
 10 11  1  0
 11 12  2  0
 11 13  1  0
 13 14  1  0
 14 15  1  0
 15 16  1  0
 16 17  2  0
 17 18  1  0
 18 19  1  0
 18 20  2  0
 20 21  1  0
 21 22  1  0
 21 23  2  0
 23 24  1  0
 24 25  3  0
  9 26  1  0
 26 27  2  0
 27  6  1  0
 23 16  1  0
M  END
>  <Binding energies>  (14) 
[-6.12]

>  <Ligand effiencies>  (14) 
[-0.21857142857142858]

>  <Interactions>  (14) 
["V-A:GLU:543:CG:4907, V-A:GLU:543:CD:4908, H-A:ALA:541:N:4891, V-B:GLU:543:CD:9880, V-A:PRO:540:CA:4883, V-A:PRO:540:CB:4885, V-B:TYR:539:CD2:9846, V-A:ASN:362:CB:3176, H-A:TYR:484:OH:4348, V-B:TYR:539:CE2:9848, V-B:PRO:540:CA:9855, V-A:ASP:366:CG:3213, V-A:ALA:541:CB:4892, H-B:GLU:543:OE2:9882, H-B:GLU:543:OE1:9881, V-A:ALA:541:C:4888"]

$$$$
1q_Grossjean_2025
     RDKit          3D

 21 21  0  0  0  0  0  0  0  0999 V2000
  126.1450  124.3320   59.8400 C   0  0  0  0  0  0  0  0  0  0  0  0
  126.8410  123.2220   60.3900 O   0  0  0  0  0  0  0  0  0  0  0  0
  126.7720  122.9560   61.7180 C   0  0  0  0  0  0  0  0  0  0  0  0
  125.7340  122.8730   62.3780 O   0  0  0  0  0  0  0  0  0  0  0  0
  128.1470  122.7860   62.3970 C   0  0  0  0  0  0  0  0  0  0  0  0
  129.2320  122.5260   61.4400 N   0  0  0  0  0  0  0  0  0  0  0  0
  130.3050  121.7410   61.6570 C   0  0  0  0  0  0  0  0  0  0  0  0
  130.4950  121.1370   62.7140 O   0  0  0  0  0  0  0  0  0  0  0  0
  131.2960  121.6190   60.4900 C   0  0  0  0  0  0  0  0  0  0  0  0
  132.7780  121.6200   60.9150 C   0  0  0  0  0  0  0  0  0  0  0  0
  133.5420  123.2690   60.8830 S   0  0  0  0  0  0  0  0  0  0  0  0
  132.8010  124.2630   62.1620 C   0  0  0  0  0  0  0  0  0  0  0  0
  133.5660  124.3610   63.2790 N   0  0  0  0  0  0  0  0  0  0  0  0
  133.1060  125.0890   64.3230 C   0  0  0  0  0  0  0  0  0  0  0  0
  134.0090  125.1380   65.5420 C   0  0  0  0  0  0  0  0  0  0  0  0
  131.8820  125.7540   64.2950 C   0  0  0  0  0  0  0  0  0  0  0  0
  131.0970  125.6820   63.1400 C   0  0  0  0  0  0  0  0  0  0  0  0
  129.7670  126.4340   63.1270 C   0  0  0  0  0  0  0  0  0  0  0  0
  131.5570  124.9290   62.0360 C   0  0  0  0  0  0  0  0  0  0  0  0
  130.7760  124.8880   60.7980 C   0  0  0  0  0  0  0  0  0  0  0  0
  130.1550  124.8590   59.8220 N   0  0  0  0  0  0  0  0  0  0  0  0
  1  2  1  0
  2  3  1  0
  3  4  2  0
  3  5  1  0
  5  6  1  0
  6  7  1  0
  7  8  2  0
  7  9  1  0
  9 10  1  0
 10 11  1  0
 11 12  1  0
 12 13  2  0
 13 14  1  0
 14 15  1  0
 14 16  2  0
 16 17  1  0
 17 18  1  0
 17 19  2  0
 19 20  1  0
 20 21  3  0
 19 12  1  0
M  END
>  <Binding energies>  (15) 
[-6.02]

>  <Ligand effiencies>  (15) 
[-0.2736363636363636]

>  <Interactions>  (15) 
["V-A:LEU:475:CD2:4259, V-A:GLU:543:CD:4908, V-B:GLU:543:CD:9880, V-A:ILE:369:CG2:3237, V-B:TYR:539:CD2:9846, V-A:GLY:454:CA:4049, H-A:TYR:484:OH:4348, V-B:TYR:539:CE2:9848, V-A:TYR:484:CZ:4347, V-B:PRO:540:CA:9855, V-B:GLU:543:CG:9879, V-B:ALA:541:CB:9864, V-A:ARG:545:CZ:4926, H-B:ALA:541:N:9863, V-A:TYR:484:CE2:4346, H-A:GLY:454:N:4050, V-B:PRO:540:C:9853, V-A:ARG:545:CG:4922, V-A:ARG:545:CD:4923, V-A:GLY:453:C:4042, V-A:GLY:453:CA:4044, V-B:PRO:540:CB:9857"]

$$$$
2a_Grossjean_2025
     RDKit          3D

 29 30  0  0  0  0  0  0  0  0999 V2000
  132.7360  126.4030   74.3730 C   0  0  0  0  0  0  0  0  0  0  0  0
  131.7970  127.3340   73.6000 C   0  0  0  0  0  0  0  0  0  0  0  0
  130.6430  126.6080   73.1940 O   0  0  0  0  0  0  0  0  0  0  0  0
  129.4900  127.2480   72.8720 C   0  0  0  0  0  0  0  0  0  0  0  0
  128.7060  127.7020   73.7110 O   0  0  0  0  0  0  0  0  0  0  0  0
  129.2750  127.3680   71.3900 C   0  0  0  0  0  0  0  0  0  0  0  0
  130.0530  128.2220   70.5950 C   0  0  0  0  0  0  0  0  0  0  0  0
  129.8270  128.3120   69.2250 C   0  0  0  0  0  0  0  0  0  0  0  0
  128.8180  127.5590   68.6230 C   0  0  0  0  0  0  0  0  0  0  0  0
  128.6700  127.7390   67.2350 N   0  0  0  0  0  0  0  0  0  0  0  0
  128.3470  128.8460   66.5330 C   0  0  0  0  0  0  0  0  0  0  0  0
  128.0860  129.9480   67.0170 O   0  0  0  0  0  0  0  0  0  0  0  0
  128.3080  128.6760   65.0110 C   0  0  0  0  0  0  0  0  0  0  0  0
  128.1800  130.2570   64.1100 S   0  0  0  0  0  0  0  0  0  0  0  0
  128.1900  129.9500   62.3470 C   0  0  0  0  0  0  0  0  0  0  0  0
  127.2330  129.1020   61.8920 N   0  0  0  0  0  0  0  0  0  0  0  0
  127.1890  128.8150   60.5720 C   0  0  0  0  0  0  0  0  0  0  0  0
  126.1090  127.8390   60.1430 C   0  0  0  0  0  0  0  0  0  0  0  0
  128.0820  129.3610   59.6540 C   0  0  0  0  0  0  0  0  0  0  0  0
  129.0750  130.2470   60.1010 C   0  0  0  0  0  0  0  0  0  0  0  0
  130.0550  130.8430   59.0730 C   0  0  0  0  0  0  0  0  0  0  0  0
  129.9670  132.1730   59.0750 F   0  0  0  0  0  0  0  0  0  0  0  0
  131.3050  130.4900   59.3780 F   0  0  0  0  0  0  0  0  0  0  0  0
  129.8120  130.4260   57.8280 F   0  0  0  0  0  0  0  0  0  0  0  0
  129.1340  130.5540   61.4850 C   0  0  0  0  0  0  0  0  0  0  0  0
  130.1530  131.4700   62.0070 C   0  0  0  0  0  0  0  0  0  0  0  0
  130.9570  132.1940   62.4190 N   0  0  0  0  0  0  0  0  0  0  0  0
  128.0410  126.6960   69.4100 C   0  0  0  0  0  0  0  0  0  0  0  0
  128.2720  126.6050   70.7800 C   0  0  0  0  0  0  0  0  0  0  0  0
  1  2  1  0
  2  3  1  0
  3  4  1  0
  4  5  2  0
  4  6  1  0
  6  7  2  0
  7  8  1  0
  8  9  2  0
  9 10  1  0
 10 11  1  0
 11 12  2  0
 11 13  1  0
 13 14  1  0
 14 15  1  0
 15 16  2  0
 16 17  1  0
 17 18  1  0
 17 19  2  0
 19 20  1  0
 20 21  1  0
 21 22  1  0
 21 23  1  0
 21 24  1  0
 20 25  2  0
 25 26  1  0
 26 27  3  0
  9 28  1  0
 28 29  2  0
 29  6  1  0
 25 15  1  0
M  END
>  <Binding energies>  (16) 
[-5.8]

>  <Ligand effiencies>  (16) 
[-0.19333333333333333]

>  <Interactions>  (16) 
["V-A:GLU:543:CG:4907, V-A:GLU:543:CD:4908, H-A:ALA:541:N:4891, V-B:GLU:543:CD:9880, V-A:GLU:543:CB:4906, V-A:PRO:540:CA:4883, V-A:PRO:540:CB:4885, H-B:TYR:484:OH:9320, V-B:HIS:456:CE1:9042, H-A:GLU:543:OE2:4910, V-B:ASP:366:CG:8185, V-A:PRO:540:N:4884, V-A:HIS:456:CE1:4070, V-A:TYR:539:C:4867, V-A:ALA:541:CB:4892, H-B:GLU:543:OE2:9882, V-B:GLU:543:CB:9878, V-A:HIS:456:CD2:4068, H-B:LYS:547:NZ:9923, V-B:HIS:456:CD2:9040, V-A:GLY:544:C:4912, V-A:HIS:456:CB:4065, V-A:GLU:543:C:4902, V-A:HIS:456:CG:4066"]

$$$$
2b_Grossjean_2025
     RDKit          3D

 28 29  0  0  0  0  0  0  0  0999 V2000
  130.8470  125.6550   74.2420 C   0  0  0  0  0  0  0  0  0  0  0  0
  129.8670  126.1060   73.3180 O   0  0  0  0  0  0  0  0  0  0  0  0
  129.8620  127.3880   72.8720 C   0  0  0  0  0  0  0  0  0  0  0  0
  130.0520  128.3640   73.6060 O   0  0  0  0  0  0  0  0  0  0  0  0
  129.6010  127.5030   71.3980 C   0  0  0  0  0  0  0  0  0  0  0  0
  128.5550  126.8080   70.7740 C   0  0  0  0  0  0  0  0  0  0  0  0
  128.3410  126.9350   69.4040 C   0  0  0  0  0  0  0  0  0  0  0  0
  129.1590  127.7610   68.6340 C   0  0  0  0  0  0  0  0  0  0  0  0
  128.8570  127.8110   67.2590 N   0  0  0  0  0  0  0  0  0  0  0  0
  128.2640  128.7900   66.5420 C   0  0  0  0  0  0  0  0  0  0  0  0
  127.8400  129.8520   67.0000 O   0  0  0  0  0  0  0  0  0  0  0  0
  128.1130  128.5020   65.0450 C   0  0  0  0  0  0  0  0  0  0  0  0
  126.5520  129.1340   64.3480 S   0  0  0  0  0  0  0  0  0  0  0  0
  126.8350  129.7850   62.7070 C   0  0  0  0  0  0  0  0  0  0  0  0
  126.2440  129.1040   61.6930 N   0  0  0  0  0  0  0  0  0  0  0  0
  126.4200  129.5380   60.4250 C   0  0  0  0  0  0  0  0  0  0  0  0
  125.7380  128.7150   59.3490 C   0  0  0  0  0  0  0  0  0  0  0  0
  127.1790  130.6630   60.1140 C   0  0  0  0  0  0  0  0  0  0  0  0
  127.7930  131.3870   61.1470 C   0  0  0  0  0  0  0  0  0  0  0  0
  128.6250  132.6320   60.7870 C   0  0  0  0  0  0  0  0  0  0  0  0
  128.0800  133.7190   61.3350 F   0  0  0  0  0  0  0  0  0  0  0  0
  129.8720  132.4980   61.2430 F   0  0  0  0  0  0  0  0  0  0  0  0
  128.7010  132.8400   59.4710 F   0  0  0  0  0  0  0  0  0  0  0  0
  127.6220  130.9390   62.4830 C   0  0  0  0  0  0  0  0  0  0  0  0
  128.2470  131.6530   63.6010 C   0  0  0  0  0  0  0  0  0  0  0  0
  128.7390  132.2180   64.4830 N   0  0  0  0  0  0  0  0  0  0  0  0
  130.2110  128.4540   69.2490 C   0  0  0  0  0  0  0  0  0  0  0  0
  130.4260  128.3240   70.6180 C   0  0  0  0  0  0  0  0  0  0  0  0
  1  2  1  0
  2  3  1  0
  3  4  2  0
  3  5  1  0
  5  6  2  0
  6  7  1  0
  7  8  2  0
  8  9  1  0
  9 10  1  0
 10 11  2  0
 10 12  1  0
 12 13  1  0
 13 14  1  0
 14 15  2  0
 15 16  1  0
 16 17  1  0
 16 18  2  0
 18 19  1  0
 19 20  1  0
 20 21  1  0
 20 22  1  0
 20 23  1  0
 19 24  2  0
 24 25  1  0
 25 26  3  0
  8 27  1  0
 27 28  2  0
 28  5  1  0
 24 14  1  0
M  END
>  <Binding energies>  (17) 
[-6.01]

>  <Ligand effiencies>  (17) 
[-0.2072413793103448]

>  <Interactions>  (17) 
["V-A:GLU:543:CG:4907, V-A:GLU:543:CD:4908, V-B:GLU:543:CD:9880, V-A:GLU:543:CB:4906, V-A:PRO:540:CA:4883, H-B:TYR:484:OH:9320, V-B:HIS:456:CE1:9042, V-B:ASP:366:CB:8184, H-A:GLU:543:OE2:4910, V-B:ASP:366:CG:8185, V-A:PRO:540:N:4884, V-A:HIS:456:CE1:4070, V-A:TYR:539:C:4867, V-A:ALA:541:CA:4890, V-A:TYR:539:CD1:4873, V-A:PRO:540:C:4881, V-A:ALA:541:CB:4892, H-B:GLU:543:OE2:9882, V-A:GLY:544:CA:4914, V-A:HIS:456:CD2:4068, H-B:LYS:547:NZ:9923, V-B:HIS:456:CD2:9040, H-A:LYS:547:NZ:4951, V-A:GLY:544:C:4912, V-A:HIS:456:CB:4065, V-A:GLU:543:C:4902, V-A:HIS:456:CG:4066, V-B:LYS:547:CE:9922"]

$$$$
2c_Grossjean_2025
     RDKit          3D

 26 27  0  0  0  0  0  0  0  0999 V2000
  131.1220  127.3220   73.2410 C   0  0  0  0  0  0  0  0  0  0  0  0
  129.7660  127.2320   72.8140 O   0  0  0  0  0  0  0  0  0  0  0  0
  129.4730  127.3510   71.4700 C   0  0  0  0  0  0  0  0  0  0  0  0
  128.3820  126.6180   71.0030 C   0  0  0  0  0  0  0  0  0  0  0  0
  128.0100  126.6720   69.6620 C   0  0  0  0  0  0  0  0  0  0  0  0
  128.7430  127.4620   68.7640 C   0  0  0  0  0  0  0  0  0  0  0  0
  128.4330  127.5940   67.3980 N   0  0  0  0  0  0  0  0  0  0  0  0
  128.2550  128.7230   66.6800 C   0  0  0  0  0  0  0  0  0  0  0  0
  128.2870  129.8630   67.1470 O   0  0  0  0  0  0  0  0  0  0  0  0
  127.9590  128.5020   65.1890 C   0  0  0  0  0  0  0  0  0  0  0  0
  126.4130  129.2570   64.5750 S   0  0  0  0  0  0  0  0  0  0  0  0
  126.6760  129.8920   62.9240 C   0  0  0  0  0  0  0  0  0  0  0  0
  126.0270  129.2310   61.9300 N   0  0  0  0  0  0  0  0  0  0  0  0
  126.1870  129.6500   60.6550 C   0  0  0  0  0  0  0  0  0  0  0  0
  125.4440  128.8510   59.6020 C   0  0  0  0  0  0  0  0  0  0  0  0
  126.9860  130.7400   60.3170 C   0  0  0  0  0  0  0  0  0  0  0  0
  127.6590  131.4420   61.3270 C   0  0  0  0  0  0  0  0  0  0  0  0
  128.5360  132.6470   60.9370 C   0  0  0  0  0  0  0  0  0  0  0  0
  128.0410  133.7640   61.4720 F   0  0  0  0  0  0  0  0  0  0  0  0
  129.7810  132.4690   61.3800 F   0  0  0  0  0  0  0  0  0  0  0  0
  128.6030  132.8300   59.6160 F   0  0  0  0  0  0  0  0  0  0  0  0
  127.5040  131.0100   62.6690 C   0  0  0  0  0  0  0  0  0  0  0  0
  128.1860  131.7050   63.7660 C   0  0  0  0  0  0  0  0  0  0  0  0
  128.7250  132.2540   64.6310 N   0  0  0  0  0  0  0  0  0  0  0  0
  129.8260  128.2090   69.2290 C   0  0  0  0  0  0  0  0  0  0  0  0
  130.1940  128.1530   70.5700 C   0  0  0  0  0  0  0  0  0  0  0  0
  1  2  1  0
  2  3  1  0
  3  4  2  0
  4  5  1  0
  5  6  2  0
  6  7  1  0
  7  8  1  0
  8  9  2  0
  8 10  1  0
 10 11  1  0
 11 12  1  0
 12 13  2  0
 13 14  1  0
 14 15  1  0
 14 16  2  0
 16 17  1  0
 17 18  1  0
 18 19  1  0
 18 20  1  0
 18 21  1  0
 17 22  2  0
 22 23  1  0
 23 24  3  0
  6 25  1  0
 25 26  2  0
 26  3  1  0
 22 12  1  0
M  END
>  <Binding energies>  (18) 
[-5.48]

>  <Ligand effiencies>  (18) 
[-0.20296296296296298]

>  <Interactions>  (18) 
["V-A:GLU:543:CG:4907, V-A:GLU:543:CD:4908, V-B:GLU:543:CD:9880, V-B:TYR:484:CZ:9319, V-A:GLU:543:CB:4906, V-A:PRO:540:CA:4883, H-B:TYR:484:OH:9320, V-B:HIS:456:CE1:9042, V-B:ASP:366:CB:8184, V-B:ASP:366:CG:8185, V-A:HIS:456:CE1:4070, V-A:TYR:539:C:4867, V-A:ALA:541:CA:4890, V-A:PRO:540:C:4881, V-A:ALA:541:CB:4892, H-B:GLU:543:OE2:9882, V-B:GLU:543:CB:9878, V-A:HIS:456:CD2:4068, H-B:LYS:547:NZ:9923, V-B:HIS:456:CD2:9040, V-A:GLY:544:C:4912, V-A:GLU:543:C:4902, V-B:LEU:475:CD2:9231, V-B:TYR:484:CE2:9318, V-A:HIS:456:CG:4066"]

$$$$
2d_Ghoteimi_2023
     RDKit          3D

 38 42  0  0  0  0  0  0  0  0999 V2000
  131.4160  131.0450   61.1910 C   0  0  0  0  0  0  0  0  0  0  0  0
  130.3570  131.8490   61.6900 O   0  0  0  0  0  0  0  0  0  0  0  0
  129.1640  131.2980   61.9960 C   0  0  0  0  0  0  0  0  0  0  0  0
  128.4200  130.7130   61.2040 O   0  0  0  0  0  0  0  0  0  0  0  0
  128.8320  131.4790   63.4850 C   0  0  0  0  0  0  0  0  0  0  0  0
  127.6180  130.2370   64.0470 S   0  0  0  0  0  0  0  0  0  0  0  0
  128.5050  128.7860   64.5760 C   0  0  0  0  0  0  0  0  0  0  0  0
  128.6830  128.7270   65.9190 N   0  0  0  0  0  0  0  0  0  0  0  0
  129.3500  127.6770   66.4620 C   0  0  0  0  0  0  0  0  0  0  0  0
  129.5220  127.6900   67.9460 C   0  0  0  0  0  0  0  0  0  0  0  0
  128.6400  126.9840   68.7720 C   0  0  0  0  0  0  0  0  0  0  0  0
  128.7950  126.9910   70.1560 C   0  0  0  0  0  0  0  0  0  0  0  0
  129.8450  127.6970   70.7630 C   0  0  0  0  0  0  0  0  0  0  0  0
  130.0040  127.7290   72.1540 N   0  0  0  0  0  0  0  0  0  0  0  0
  131.3410  127.6900   72.7790 C   0  0  0  0  0  0  0  0  0  0  0  0
  131.3090  127.3590   74.2860 C   0  0  0  0  0  0  0  0  0  0  0  0
  130.4610  128.2730   74.9630 O   0  0  0  0  0  0  0  0  0  0  0  0
  129.1300  128.2090   74.4770 C   0  0  0  0  0  0  0  0  0  0  0  0
  129.0970  128.5580   72.9740 C   0  0  0  0  0  0  0  0  0  0  0  0
  130.7180  128.4140   69.9330 C   0  0  0  0  0  0  0  0  0  0  0  0
  130.5620  128.4080   68.5500 C   0  0  0  0  0  0  0  0  0  0  0  0
  129.8540  126.6510   65.6590 C   0  0  0  0  0  0  0  0  0  0  0  0
  129.6550  126.6700   64.2730 C   0  0  0  0  0  0  0  0  0  0  0  0
  130.1980  125.5260   63.4820 C   0  0  0  0  0  0  0  0  0  0  0  0
  131.5530  125.4790   63.1530 C   0  0  0  0  0  0  0  0  0  0  0  0
  132.0720  124.4110   62.4260 C   0  0  0  0  0  0  0  0  0  0  0  0
  131.2450  123.3570   62.0040 C   0  0  0  0  0  0  0  0  0  0  0  0
  131.7460  122.2690   61.2850 N   0  0  0  0  0  0  0  0  0  0  0  0
  131.0360  120.9750   61.2540 C   0  0  0  0  0  0  0  0  0  0  0  0
  131.5340  120.0270   60.1420 C   0  0  0  0  0  0  0  0  0  0  0  0
  132.9350  119.8340   60.2590 O   0  0  0  0  0  0  0  0  0  0  0  0
  133.6430  121.0590   60.1440 C   0  0  0  0  0  0  0  0  0  0  0  0
  133.2020  122.0320   61.2590 C   0  0  0  0  0  0  0  0  0  0  0  0
  129.8880  123.4030   62.3540 C   0  0  0  0  0  0  0  0  0  0  0  0
  129.3710  124.4720   63.0820 C   0  0  0  0  0  0  0  0  0  0  0  0
  128.9550  127.7650   63.7070 C   0  0  0  0  0  0  0  0  0  0  0  0
  128.7050  127.8220   62.2640 C   0  0  0  0  0  0  0  0  0  0  0  0
  128.5090  127.8620   61.1230 N   0  0  0  0  0  0  0  0  0  0  0  0
  1  2  1  0
  2  3  1  0
  3  4  2  0
  3  5  1  0
  5  6  1  0
  6  7  1  0
  7  8  2  0
  8  9  1  0
  9 10  1  0
 10 11  2  0
 11 12  1  0
 12 13  2  0
 13 14  1  0
 14 15  1  0
 15 16  1  0
 16 17  1  0
 17 18  1  0
 18 19  1  0
 13 20  1  0
 20 21  2  0
  9 22  2  0
 22 23  1  0
 23 24  1  0
 24 25  2  0
 25 26  1  0
 26 27  2  0
 27 28  1  0
 28 29  1  0
 29 30  1  0
 30 31  1  0
 31 32  1  0
 32 33  1  0
 27 34  1  0
 34 35  2  0
 23 36  2  0
 36 37  1  0
 37 38  3  0
 36  7  1  0
 21 10  1  0
 35 24  1  0
 19 14  1  0
 33 28  1  0
M  END
>  <Binding energies>  (19) 
[-2.05]

>  <Ligand effiencies>  (19) 
[-0.053947368421052626]

>  <Interactions>  (19) 
["V-A:GLU:543:CG:4907, V-A:LEU:475:CD2:4259, V-A:GLU:543:CD:4908, H-A:ALA:541:N:4891, V-B:GLU:543:CD:9880, V-A:ILE:369:CG2:3237, V-A:GLU:543:CB:4906, V-A:ILE:369:CB:3236, V-B:TYR:539:CD2:9846, H-B:TYR:484:OH:9320, V-B:HIS:456:CE1:9042, V-B:TYR:539:CE2:9848, V-A:ILE:369:CD1:3239, V-A:TYR:484:CZ:4347, V-B:GLU:543:CG:9879, V-A:HIS:456:CE1:4070, V-A:ALA:541:CB:4892, V-A:SER:385:CB:3409, V-B:GLU:543:CB:9878, V-A:GLY:544:CA:4914, V-A:HIS:456:CD2:4068, V-B:HIS:456:CD2:9040, H-A:LYS:547:NZ:4951, V-A:GLY:544:C:4912, V-A:GLU:543:C:4902, V-A:SER:385:C:3405, V-A:HIS:456:CG:4066, V-A:GLU:543:CA:4904"]

$$$$
2d_Grossjean_2025
     RDKit          3D

 24 25  0  0  0  0  0  0  0  0999 V2000
  127.3270  122.5210   56.4980 C   0  0  0  0  0  0  0  0  0  0  0  0
  127.9690  123.1460   57.7220 C   0  0  0  0  0  0  0  0  0  0  0  0
  129.0860  123.9710   57.6190 C   0  0  0  0  0  0  0  0  0  0  0  0
  129.6400  124.5290   58.7810 C   0  0  0  0  0  0  0  0  0  0  0  0
  130.8710  125.4480   58.6470 C   0  0  0  0  0  0  0  0  0  0  0  0
  130.5930  126.6560   59.1370 F   0  0  0  0  0  0  0  0  0  0  0  0
  131.9010  124.9340   59.3220 F   0  0  0  0  0  0  0  0  0  0  0  0
  131.2610  125.6070   57.3810 F   0  0  0  0  0  0  0  0  0  0  0  0
  129.0430  124.2250   60.0310 C   0  0  0  0  0  0  0  0  0  0  0  0
  129.5560  124.8200   61.2680 C   0  0  0  0  0  0  0  0  0  0  0  0
  129.9600  125.2910   62.2450 N   0  0  0  0  0  0  0  0  0  0  0  0
  127.9260  123.3580   60.0410 C   0  0  0  0  0  0  0  0  0  0  0  0
  127.0750  122.8470   61.5220 S   0  0  0  0  0  0  0  0  0  0  0  0
  128.3110  122.4720   62.8080 C   0  0  0  0  0  0  0  0  0  0  0  0
  129.4600  121.5960   62.2980 C   0  0  0  0  0  0  0  0  0  0  0  0
  130.6160  122.0110   62.3920 O   0  0  0  0  0  0  0  0  0  0  0  0
  129.0960  120.4210   61.7430 N   0  0  0  0  0  0  0  0  0  0  0  0
  129.9050  119.4090   61.1940 C   0  0  0  0  0  0  0  0  0  0  0  0
  131.0450  119.8390   60.5100 C   0  0  0  0  0  0  0  0  0  0  0  0
  131.9050  118.9130   59.9270 C   0  0  0  0  0  0  0  0  0  0  0  0
  131.6200  117.5530   60.0200 C   0  0  0  0  0  0  0  0  0  0  0  0
  130.4800  117.1120   60.6880 C   0  0  0  0  0  0  0  0  0  0  0  0
  129.6190  118.0360   61.2730 C   0  0  0  0  0  0  0  0  0  0  0  0
  127.3900  122.8440   58.9070 N   0  0  0  0  0  0  0  0  0  0  0  0
  1  2  1  0
  2  3  2  0
  3  4  1  0
  4  5  1  0
  5  6  1  0
  5  7  1  0
  5  8  1  0
  4  9  2  0
  9 10  1  0
 10 11  3  0
  9 12  1  0
 12 13  1  0
 13 14  1  0
 14 15  1  0
 15 16  2  0
 15 17  1  0
 17 18  1  0
 18 19  2  0
 19 20  1  0
 20 21  2  0
 21 22  1  0
 22 23  2  0
 12 24  2  0
 24  2  1  0
 23 18  1  0
M  END
>  <Binding energies>  (20) 
[-5.91]

>  <Ligand effiencies>  (20) 
[-0.2364]

>  <Interactions>  (20) 
["V-B:TYR:539:CE1:9847, V-A:LEU:475:CD2:4259, V-B:GLU:543:CD:9880, V-B:TYR:539:CZ:9849, V-B:TYR:539:CD2:9846, H-A:TYR:484:OH:4348, V-B:TYR:539:CE2:9848, V-A:TYR:484:CZ:4347, V-B:PRO:540:CA:9855, V-B:GLU:543:CG:9879, V-B:ALA:541:CB:9864, H-B:ALA:541:N:9863, V-A:ASP:366:CG:3213, V-B:TYR:539:C:9839, V-B:TYR:539:CG:9844, V-B:PRO:540:C:9853, V-B:PRO:540:N:9856, V-A:TYR:484:CE1:4345, V-A:LEU:475:CD1:4258, V-B:ALA:541:CA:9862, V-A:PRO:482:CB:4326, V-A:SER:385:CB:3409, V-A:PRO:482:CG:4327, H-B:TYR:539:O:9840, V-B:TYR:539:CD1:9845, V-B:TYR:539:CA:9841, H-B:PRO:540:O:9854"]

$$$$
2e_Grossjean_2025
     RDKit          3D

 25 26  0  0  0  0  0  0  0  0999 V2000
  126.2350  123.4150   58.3580 C   0  0  0  0  0  0  0  0  0  0  0  0
  127.0660  123.1960   59.6080 C   0  0  0  0  0  0  0  0  0  0  0  0
  126.5180  123.3380   60.8860 C   0  0  0  0  0  0  0  0  0  0  0  0
  127.3400  123.1090   61.9900 C   0  0  0  0  0  0  0  0  0  0  0  0
  128.6750  122.7490   61.7940 C   0  0  0  0  0  0  0  0  0  0  0  0
  129.1620  122.6340   60.4870 C   0  0  0  0  0  0  0  0  0  0  0  0
  130.5000  122.2270   60.3470 N   0  0  0  0  0  0  0  0  0  0  0  0
  131.3040  121.6680   61.2790 C   0  0  0  0  0  0  0  0  0  0  0  0
  130.9520  121.3530   62.4170 O   0  0  0  0  0  0  0  0  0  0  0  0
  132.7660  121.4690   60.8660 C   0  0  0  0  0  0  0  0  0  0  0  0
  133.6100  123.0530   60.5540 S   0  0  0  0  0  0  0  0  0  0  0  0
  132.8330  124.2280   61.6410 C   0  0  0  0  0  0  0  0  0  0  0  0
  133.3500  124.2670   62.8940 N   0  0  0  0  0  0  0  0  0  0  0  0
  132.7890  125.1010   63.7980 C   0  0  0  0  0  0  0  0  0  0  0  0
  133.4170  125.0950   65.1790 C   0  0  0  0  0  0  0  0  0  0  0  0
  131.6990  125.9150   63.4960 C   0  0  0  0  0  0  0  0  0  0  0  0
  131.1460  125.8790   62.2070 C   0  0  0  0  0  0  0  0  0  0  0  0
  129.9280  126.7680   61.8950 C   0  0  0  0  0  0  0  0  0  0  0  0
  129.4250  127.2690   63.0240 F   0  0  0  0  0  0  0  0  0  0  0  0
  130.2900  127.7750   61.1000 F   0  0  0  0  0  0  0  0  0  0  0  0
  128.9480  126.1020   61.2800 F   0  0  0  0  0  0  0  0  0  0  0  0
  131.7260  125.0140   61.2470 C   0  0  0  0  0  0  0  0  0  0  0  0
  131.1760  124.9090   59.8910 C   0  0  0  0  0  0  0  0  0  0  0  0
  130.7410  124.8260   58.8220 N   0  0  0  0  0  0  0  0  0  0  0  0
  128.3620  122.8480   59.4020 N   0  0  0  0  0  0  0  0  0  0  0  0
  1  2  1  0
  2  3  2  0
  3  4  1  0
  4  5  2  0
  5  6  1  0
  6  7  1  0
  7  8  1  0
  8  9  2  0
  8 10  1  0
 10 11  1  0
 11 12  1  0
 12 13  2  0
 13 14  1  0
 14 15  1  0
 14 16  2  0
 16 17  1  0
 17 18  1  0
 18 19  1  0
 18 20  1  0
 18 21  1  0
 17 22  2  0
 22 23  1  0
 23 24  3  0
  6 25  2  0
 25  2  1  0
 22 12  1  0
M  END
>  <Binding energies>  (21) 
[-6.26]

>  <Ligand effiencies>  (21) 
[-0.24076923076923076]

>  <Interactions>  (21) 
["V-A:LEU:475:CD2:4259, V-A:GLU:543:CD:4908, V-B:GLU:543:CD:9880, V-A:ILE:369:CG2:3237, V-B:TYR:539:CD2:9846, V-A:GLY:454:CA:4049, H-A:TYR:484:OH:4348, V-B:TYR:539:CE2:9848, V-A:TYR:484:CZ:4347, V-B:PRO:540:CA:9855, V-B:GLU:543:CG:9879, V-A:ARG:545:CZ:4926, V-A:TYR:484:CE2:4346, H-A:GLY:454:N:4050, V-A:ARG:545:CD:4923, V-B:PRO:540:N:9856, V-B:PRO:540:CB:9857"]

$$$$
2f_Grossjean_2025
     RDKit          3D

 24 25  0  0  0  0  0  0  0  0999 V2000
  133.3850  125.2280   64.9620 C   0  0  0  0  0  0  0  0  0  0  0  0
  132.7700  125.1070   63.5800 C   0  0  0  0  0  0  0  0  0  0  0  0
  131.7970  125.9980   63.1340 C   0  0  0  0  0  0  0  0  0  0  0  0
  131.2530  125.8400   61.8500 C   0  0  0  0  0  0  0  0  0  0  0  0
  130.1690  126.8280   61.3800 C   0  0  0  0  0  0  0  0  0  0  0  0
  130.7080  127.7580   60.5880 F   0  0  0  0  0  0  0  0  0  0  0  0
  129.2240  126.1780   60.7000 F   0  0  0  0  0  0  0  0  0  0  0  0
  129.5730  127.4630   62.3910 F   0  0  0  0  0  0  0  0  0  0  0  0
  131.7220  124.7730   61.0410 C   0  0  0  0  0  0  0  0  0  0  0  0
  131.1450  124.5320   59.7170 C   0  0  0  0  0  0  0  0  0  0  0  0
  130.6890  124.3430   58.6700 N   0  0  0  0  0  0  0  0  0  0  0  0
  132.7320  123.9330   61.5680 C   0  0  0  0  0  0  0  0  0  0  0  0
  133.4450  122.5560   60.6910 S   0  0  0  0  0  0  0  0  0  0  0  0
  132.1620  121.2690   60.5190 C   0  0  0  0  0  0  0  0  0  0  0  0
  130.8260  121.5860   61.2070 C   0  0  0  0  0  0  0  0  0  0  0  0
  130.6460  121.2960   62.3910 O   0  0  0  0  0  0  0  0  0  0  0  0
  129.9080  122.1690   60.4070 N   0  0  0  0  0  0  0  0  0  0  0  0
  128.6020  122.5980   60.7090 C   0  0  0  0  0  0  0  0  0  0  0  0
  127.7410  123.2760   59.8260 C   0  0  0  0  0  0  0  0  0  0  0  0
  126.4620  123.6410   60.2520 C   0  0  0  0  0  0  0  0  0  0  0  0
  126.0730  123.3140   61.5510 C   0  0  0  0  0  0  0  0  0  0  0  0
  126.8800  122.6540   62.4180 N   0  0  0  0  0  0  0  0  0  0  0  0
  128.1200  122.3050   61.9890 C   0  0  0  0  0  0  0  0  0  0  0  0
  133.2300  124.0880   62.8200 N   0  0  0  0  0  0  0  0  0  0  0  0
  1  2  1  0
  2  3  2  0
  3  4  1  0
  4  5  1  0
  5  6  1  0
  5  7  1  0
  5  8  1  0
  4  9  2  0
  9 10  1  0
 10 11  3  0
  9 12  1  0
 12 13  1  0
 13 14  1  0
 14 15  1  0
 15 16  2  0
 15 17  1  0
 17 18  1  0
 18 19  2  0
 19 20  1  0
 20 21  2  0
 21 22  1  0
 22 23  2  0
 12 24  2  0
 24  2  1  0
 23 18  1  0
M  END
>  <Binding energies>  (22) 
[-5.99]

>  <Ligand effiencies>  (22) 
[-0.2396]

>  <Interactions>  (22) 
["V-A:LEU:475:CD2:4259, V-A:GLU:543:CD:4908, H-B:TYR:539:OH:9850, V-B:TYR:539:CD2:9846, H-A:TYR:484:OH:4348, V-B:TYR:539:CE2:9848, V-A:TYR:484:CZ:4347, V-B:PRO:540:CA:9855, V-B:ALA:541:CB:9864, V-A:ARG:545:CZ:4926, H-B:ALA:541:N:9863, V-A:TYR:484:CE2:4346, H-A:GLY:454:N:4050, V-B:PRO:540:C:9853, V-A:ARG:545:CD:4923, V-B:PRO:540:CB:9857, H-B:TYR:539:O:9840"]

$$$$
2g_Grossjean_2025
     RDKit          3D

 25 26  0  0  0  0  0  0  0  0999 V2000
  133.2880  125.1910   64.9180 C   0  0  0  0  0  0  0  0  0  0  0  0
  132.6830  125.0850   63.5310 C   0  0  0  0  0  0  0  0  0  0  0  0
  131.7060  125.9740   63.0910 C   0  0  0  0  0  0  0  0  0  0  0  0
  131.1720  125.8300   61.8020 C   0  0  0  0  0  0  0  0  0  0  0  0
  130.0850  126.8180   61.3360 C   0  0  0  0  0  0  0  0  0  0  0  0
  129.1440  126.1760   60.6420 F   0  0  0  0  0  0  0  0  0  0  0  0
  129.5200  127.4000   62.3940 F   0  0  0  0  0  0  0  0  0  0  0  0
  130.5680  127.7850   60.5530 F   0  0  0  0  0  0  0  0  0  0  0  0
  131.6560  124.7790   60.9810 C   0  0  0  0  0  0  0  0  0  0  0  0
  131.0920  124.5490   59.6480 C   0  0  0  0  0  0  0  0  0  0  0  0
  130.6460  124.3690   58.5950 N   0  0  0  0  0  0  0  0  0  0  0  0
  132.6730  123.9420   61.5010 C   0  0  0  0  0  0  0  0  0  0  0  0
  133.4090  122.5960   60.6000 S   0  0  0  0  0  0  0  0  0  0  0  0
  132.1780  121.2510   60.5210 C   0  0  0  0  0  0  0  0  0  0  0  0
  130.8280  121.5780   61.1750 C   0  0  0  0  0  0  0  0  0  0  0  0
  130.6080  121.3180   62.3590 O   0  0  0  0  0  0  0  0  0  0  0  0
  129.9180  122.1520   60.3660 N   0  0  0  0  0  0  0  0  0  0  0  0
  128.5700  122.5620   60.7610 C   0  0  0  0  0  0  0  0  0  0  0  0
  127.6360  122.8590   59.5920 C   0  0  0  0  0  0  0  0  0  0  0  0
  126.4590  123.5820   59.8080 C   0  0  0  0  0  0  0  0  0  0  0  0
  125.6240  123.8870   58.7360 C   0  0  0  0  0  0  0  0  0  0  0  0
  125.9720  123.4770   57.4510 C   0  0  0  0  0  0  0  0  0  0  0  0
  127.1500  122.7660   57.2280 C   0  0  0  0  0  0  0  0  0  0  0  0
  127.9860  122.4620   58.2990 C   0  0  0  0  0  0  0  0  0  0  0  0
  133.1610  124.0830   62.7590 N   0  0  0  0  0  0  0  0  0  0  0  0
  1  2  1  0
  2  3  2  0
  3  4  1  0
  4  5  1  0
  5  6  1  0
  5  7  1  0
  5  8  1  0
  4  9  2  0
  9 10  1  0
 10 11  3  0
  9 12  1  0
 12 13  1  0
 13 14  1  0
 14 15  1  0
 15 16  2  0
 15 17  1  0
 17 18  1  0
 18 19  1  0
 19 20  2  0
 20 21  1  0
 21 22  2  0
 22 23  1  0
 23 24  2  0
 12 25  2  0
 25  2  1  0
 24 19  1  0
M  END
>  <Binding energies>  (23) 
[-6.41]

>  <Ligand effiencies>  (23) 
[-0.24653846153846154]

>  <Interactions>  (23) 
["V-A:LEU:475:CD2:4259, V-A:GLU:543:CD:4908, H-B:TYR:539:OH:9850, V-B:TYR:539:CD2:9846, H-A:TYR:484:OH:4348, V-B:TYR:539:CE2:9848, V-A:TYR:484:CZ:4347, V-B:PRO:540:CA:9855, V-A:ARG:545:CZ:4926, V-B:TYR:539:C:9839, V-A:TYR:484:CE2:4346, V-B:TYR:539:CG:9844, H-A:GLY:454:N:4050, V-A:ARG:545:CD:4923, V-B:PRO:540:N:9856, V-B:PRO:540:CB:9857, H-B:TYR:539:O:9840"]

$$$$
2h_Grossjean_2025
     RDKit          3D

 31 32  0  0  0  0  0  0  0  0999 V2000
  126.1650  126.2480   61.2960 C   0  0  0  0  0  0  0  0  0  0  0  0
  125.9010  124.8650   61.5090 O   0  0  0  0  0  0  0  0  0  0  0  0
  126.9260  123.9480   61.3600 C   0  0  0  0  0  0  0  0  0  0  0  0
  127.4560  123.1860   62.4130 C   0  0  0  0  0  0  0  0  0  0  0  0
  128.4840  122.2750   62.1840 C   0  0  0  0  0  0  0  0  0  0  0  0
  129.0050  122.1040   60.9010 C   0  0  0  0  0  0  0  0  0  0  0  0
  130.1190  121.0830   60.6700 C   0  0  0  0  0  0  0  0  0  0  0  0
  131.4330  121.5350   61.1290 N   0  0  0  0  0  0  0  0  0  0  0  0
  132.5910  121.3190   60.4800 C   0  0  0  0  0  0  0  0  0  0  0  0
  132.6760  120.6380   59.4570 O   0  0  0  0  0  0  0  0  0  0  0  0
  133.8280  121.9910   61.0940 C   0  0  0  0  0  0  0  0  0  0  0  0
  133.9750  123.7790   60.7680 S   0  0  0  0  0  0  0  0  0  0  0  0
  133.0170  124.6100   62.0170 C   0  0  0  0  0  0  0  0  0  0  0  0
  133.5880  124.5880   63.2470 N   0  0  0  0  0  0  0  0  0  0  0  0
  132.9360  125.1740   64.2750 C   0  0  0  0  0  0  0  0  0  0  0  0
  133.6300  125.1050   65.6220 C   0  0  0  0  0  0  0  0  0  0  0  0
  131.7030  125.8050   64.1220 C   0  0  0  0  0  0  0  0  0  0  0  0
  131.1060  125.8550   62.8530 C   0  0  0  0  0  0  0  0  0  0  0  0
  129.7460  126.5640   62.7010 C   0  0  0  0  0  0  0  0  0  0  0  0
  128.8090  125.6820   62.3510 F   0  0  0  0  0  0  0  0  0  0  0  0
  129.3410  127.1510   63.8300 F   0  0  0  0  0  0  0  0  0  0  0  0
  129.8230  127.5090   61.7630 F   0  0  0  0  0  0  0  0  0  0  0  0
  131.7820  125.2510   61.7620 C   0  0  0  0  0  0  0  0  0  0  0  0
  131.2290  125.3270   60.4070 C   0  0  0  0  0  0  0  0  0  0  0  0
  130.7930  125.3910   59.3380 N   0  0  0  0  0  0  0  0  0  0  0  0
  128.5020  122.8750   59.8420 C   0  0  0  0  0  0  0  0  0  0  0  0
  129.0130  122.7140   58.5760 O   0  0  0  0  0  0  0  0  0  0  0  0
  128.0330  122.4620   57.5760 C   0  0  0  0  0  0  0  0  0  0  0  0
  127.4520  123.7800   60.0720 C   0  0  0  0  0  0  0  0  0  0  0  0
  126.9440  124.5240   59.0340 O   0  0  0  0  0  0  0  0  0  0  0  0
  125.6100  124.1880   58.6770 C   0  0  0  0  0  0  0  0  0  0  0  0
  1  2  1  0
  2  3  1  0
  3  4  2  0
  4  5  1  0
  5  6  2  0
  6  7  1  0
  7  8  1  0
  8  9  1  0
  9 10  2  0
  9 11  1  0
 11 12  1  0
 12 13  1  0
 13 14  2  0
 14 15  1  0
 15 16  1  0
 15 17  2  0
 17 18  1  0
 18 19  1  0
 19 20  1  0
 19 21  1  0
 19 22  1  0
 18 23  2  0
 23 24  1  0
 24 25  3  0
  6 26  1  0
 26 27  1  0
 27 28  1  0
 26 29  2  0
 29 30  1  0
 30 31  1  0
 29  3  1  0
 23 13  1  0
M  END
>  <Binding energies>  (24) 
[-5.03]

>  <Ligand effiencies>  (24) 
[-0.1571875]

>  <Interactions>  (24) 
["V-B:TYR:539:CE1:9847, V-A:LEU:475:CD2:4259, V-A:GLU:543:CD:4908, V-B:GLU:543:CD:9880, V-B:TYR:539:CZ:9849, V-A:ILE:369:CG2:3237, V-B:TYR:539:CD2:9846, V-A:GLY:454:CA:4049, H-A:TYR:484:OH:4348, V-B:TYR:539:CE2:9848, V-A:ILE:369:CD1:3239, V-A:TYR:484:CZ:4347, V-B:PRO:540:CA:9855, V-B:GLU:543:CG:9879, V-B:ASP:366:CG:8185, V-B:ALA:541:CB:9864, V-A:ARG:545:CZ:4926, H-A:ARG:545:NH2:4928, V-B:TYR:539:C:9839, V-A:TYR:484:CE2:4346, V-B:TYR:539:CG:9844, H-A:GLY:454:N:4050, V-A:ARG:545:CG:4922, V-A:ARG:545:CD:4923, V-B:PRO:540:N:9856, V-B:PRO:540:CB:9857, H-B:ARG:545:NH2:9900, V-B:TYR:539:CD1:9845, V-B:TYR:539:CA:9841"]

$$$$
2i_Grossjean_2025
     RDKit          3D

 23 24  0  0  0  0  0  0  0  0999 V2000
  131.6370  126.1050   60.8170 C   0  0  0  0  0  0  0  0  0  0  0  0
  130.3580  125.3240   61.0560 C   0  0  0  0  0  0  0  0  0  0  0  0
  130.3560  123.9340   61.1370 C   0  0  0  0  0  0  0  0  0  0  0  0
  129.1470  123.2580   61.3620 C   0  0  0  0  0  0  0  0  0  0  0  0
  129.1630  121.7200   61.4480 C   0  0  0  0  0  0  0  0  0  0  0  0
  130.0570  121.2240   60.5900 F   0  0  0  0  0  0  0  0  0  0  0  0
  129.4880  121.3340   62.6820 F   0  0  0  0  0  0  0  0  0  0  0  0
  127.9810  121.1740   61.1560 F   0  0  0  0  0  0  0  0  0  0  0  0
  127.9600  124.0210   61.4990 C   0  0  0  0  0  0  0  0  0  0  0  0
  126.6700  123.3660   61.7360 C   0  0  0  0  0  0  0  0  0  0  0  0
  125.6510  122.8500   61.9240 N   0  0  0  0  0  0  0  0  0  0  0  0
  128.0530  125.4290   61.4000 C   0  0  0  0  0  0  0  0  0  0  0  0
  126.6250  126.4900   61.5490 S   0  0  0  0  0  0  0  0  0  0  0  0
  126.2020  127.1030   59.8900 C   0  0  0  0  0  0  0  0  0  0  0  0
  126.6770  126.1590   58.7840 C   0  0  0  0  0  0  0  0  0  0  0  0
  127.4850  126.5710   57.9500 O   0  0  0  0  0  0  0  0  0  0  0  0
  126.1360  124.9210   58.7960 N   0  0  0  0  0  0  0  0  0  0  0  0
  126.3910  123.8990   57.8960 C   0  0  0  0  0  0  0  0  0  0  0  0
  127.5830  123.5390   57.2510 C   0  0  0  0  0  0  0  0  0  0  0  0
  127.2480  122.4510   56.4790 C   0  0  0  0  0  0  0  0  0  0  0  0
  125.9350  122.1690   56.6560 O   0  0  0  0  0  0  0  0  0  0  0  0
  125.4080  123.0920   57.5610 N   0  0  0  0  0  0  0  0  0  0  0  0
  129.2340  126.0630   61.1840 N   0  0  0  0  0  0  0  0  0  0  0  0
  1  2  1  0
  2  3  2  0
  3  4  1  0
  4  5  1  0
  5  6  1  0
  5  7  1  0
  5  8  1  0
  4  9  2  0
  9 10  1  0
 10 11  3  0
  9 12  1  0
 12 13  1  0
 13 14  1  0
 14 15  1  0
 15 16  2  0
 15 17  1  0
 17 18  1  0
 18 19  1  0
 19 20  2  0
 20 21  1  0
 21 22  1  0
 12 23  2  0
 23  2  1  0
 22 18  2  0
M  END
>  <Binding energies>  (25) 
[-5.46]

>  <Ligand effiencies>  (25) 
[-0.2275]

>  <Interactions>  (25) 
["H-B:TYR:531:OH:9767, V-B:TYR:539:CE1:9847, V-A:LEU:475:CD2:4259, V-B:GLU:543:CD:9880, V-B:TYR:539:CZ:9849, V-B:TYR:539:CD2:9846, V-B:TYR:539:CE2:9848, V-A:TYR:484:CZ:4347, V-B:PRO:540:CA:9855, V-B:ASP:366:CG:8185, V-B:ALA:541:CB:9864, H-B:ALA:541:N:9863, V-A:ASP:366:CG:3213, V-B:TYR:539:C:9839, V-B:TYR:539:CG:9844, V-B:PRO:540:C:9853, V-B:PRO:540:N:9856, H-B:TYR:539:N:9842, V-A:TYR:484:CE1:4345, V-B:ALA:541:CA:9862, H-B:ASP:366:OD2:8187, H-B:ARG:545:NH2:9900, V-B:TYR:539:CD1:9845, V-B:TYR:539:CA:9841"]

$$$$
2k_Grossjean_2025
     RDKit          3D

 28 28  0  0  0  0  0  0  0  0999 V2000
  133.1910  121.0830   60.5170 C   0  0  0  0  0  0  0  0  0  0  0  0
  131.8580  120.6540   60.2830 O   0  0  0  0  0  0  0  0  0  0  0  0
  130.8810  121.6210   60.6460 C   0  0  0  0  0  0  0  0  0  0  0  0
  129.8310  120.9780   61.5620 C   0  0  0  0  0  0  0  0  0  0  0  0
  129.7470  121.7250   62.7660 O   0  0  0  0  0  0  0  0  0  0  0  0
  128.7250  122.7150   62.7700 C   0  0  0  0  0  0  0  0  0  0  0  0
  127.7840  122.4440   61.5890 C   0  0  0  0  0  0  0  0  0  0  0  0
  126.4710  122.8030   61.9880 O   0  0  0  0  0  0  0  0  0  0  0  0
  125.9430  123.9610   61.3600 C   0  0  0  0  0  0  0  0  0  0  0  0
  125.8240  123.7000   59.8470 C   0  0  0  0  0  0  0  0  0  0  0  0
  127.0790  123.9320   59.1270 N   0  0  0  0  0  0  0  0  0  0  0  0
  127.5240  123.2140   58.0780 C   0  0  0  0  0  0  0  0  0  0  0  0
  126.8950  122.2780   57.5810 O   0  0  0  0  0  0  0  0  0  0  0  0
  128.9020  123.6160   57.5320 C   0  0  0  0  0  0  0  0  0  0  0  0
  129.4280  125.3230   57.9170 S   0  0  0  0  0  0  0  0  0  0  0  0
  129.9820  125.4040   59.6150 C   0  0  0  0  0  0  0  0  0  0  0  0
  129.0910  125.9210   60.5000 N   0  0  0  0  0  0  0  0  0  0  0  0
  129.4450  126.0170   61.8010 C   0  0  0  0  0  0  0  0  0  0  0  0
  128.4010  126.6140   62.7240 C   0  0  0  0  0  0  0  0  0  0  0  0
  130.6840  125.5960   62.2760 C   0  0  0  0  0  0  0  0  0  0  0  0
  131.6170  125.0510   61.3800 C   0  0  0  0  0  0  0  0  0  0  0  0
  132.9810  124.5850   61.9240 C   0  0  0  0  0  0  0  0  0  0  0  0
  133.9620  124.7030   61.0270 F   0  0  0  0  0  0  0  0  0  0  0  0
  133.3220  125.3140   62.9880 F   0  0  0  0  0  0  0  0  0  0  0  0
  132.9160  123.3020   62.2810 F   0  0  0  0  0  0  0  0  0  0  0  0
  131.2620  124.9520   60.0110 C   0  0  0  0  0  0  0  0  0  0  0  0
  132.2000  124.3940   59.0310 C   0  0  0  0  0  0  0  0  0  0  0  0
  132.9400  123.9530   58.2570 N   0  0  0  0  0  0  0  0  0  0  0  0
  1  2  1  0
  2  3  1  0
  3  4  1  0
  4  5  1  0
  5  6  1  0
  6  7  1  0
  7  8  1  0
  8  9  1  0
  9 10  1  0
 10 11  1  0
 11 12  1  0
 12 13  2  0
 12 14  1  0
 14 15  1  0
 15 16  1  0
 16 17  2  0
 17 18  1  0
 18 19  1  0
 18 20  2  0
 20 21  1  0
 21 22  1  0
 22 23  1  0
 22 24  1  0
 22 25  1  0
 21 26  2  0
 26 27  1  0
 27 28  3  0
 26 16  1  0
M  END
>  <Binding energies>  (26) 
[-4.29]

>  <Ligand effiencies>  (26) 
[-0.14793103448275863]

>  <Interactions>  (26) 
["V-B:TYR:539:CE1:9847, V-A:LEU:475:CD2:4259, H-B:TYR:539:OH:9850, V-B:GLU:543:CD:9880, V-B:TYR:539:CZ:9849, V-A:ILE:369:CG2:3237, V-B:TYR:539:CD2:9846, V-A:GLY:454:CA:4049, H-A:TYR:484:OH:4348, V-B:TYR:539:CE2:9848, V-A:ILE:369:CD1:3239, V-A:TYR:484:CZ:4347, V-B:PRO:540:CA:9855, V-B:GLU:543:CG:9879, V-B:ALA:541:CB:9864, V-A:ARG:545:CZ:4926, H-B:ALA:541:N:9863, V-A:ASP:366:CG:3213, V-B:TYR:539:C:9839, V-B:PRO:540:C:9853, V-B:PRO:540:N:9856, H-B:TYR:539:N:9842, V-A:TYR:484:CE1:4345, V-A:SER:385:CB:3409, V-B:PRO:540:CB:9857"]

$$$$
3aa_Grossjean_2025
     RDKit          3D

 34 36  0  0  0  0  0  0  0  0999 V2000
  133.4560  126.9980   74.0060 C   0  0  0  0  0  0  0  0  0  0  0  0
  131.9790  126.6040   73.9060 C   0  0  0  0  0  0  0  0  0  0  0  0
  131.2660  127.6120   73.2000 O   0  0  0  0  0  0  0  0  0  0  0  0
  129.9480  127.4630   72.9120 C   0  0  0  0  0  0  0  0  0  0  0  0
  129.0820  127.2680   73.7700 O   0  0  0  0  0  0  0  0  0  0  0  0
  129.6480  127.5420   71.4420 C   0  0  0  0  0  0  0  0  0  0  0  0
  128.6260  126.7860   70.8500 C   0  0  0  0  0  0  0  0  0  0  0  0
  128.3710  126.8870   69.4840 C   0  0  0  0  0  0  0  0  0  0  0  0
  129.1270  127.7470   68.6860 C   0  0  0  0  0  0  0  0  0  0  0  0
  128.7860  127.7770   67.3190 N   0  0  0  0  0  0  0  0  0  0  0  0
  128.3160  128.7990   66.5710 C   0  0  0  0  0  0  0  0  0  0  0  0
  128.0720  129.9330   66.9840 O   0  0  0  0  0  0  0  0  0  0  0  0
  128.0680  128.4770   65.0970 C   0  0  0  0  0  0  0  0  0  0  0  0
  126.4350  129.0570   64.5450 S   0  0  0  0  0  0  0  0  0  0  0  0
  126.4570  129.0570   62.7660 C   0  0  0  0  0  0  0  0  0  0  0  0
  126.4830  127.8170   62.2230 N   0  0  0  0  0  0  0  0  0  0  0  0
  126.5030  127.6730   60.8730 C   0  0  0  0  0  0  0  0  0  0  0  0
  126.5170  126.2690   60.3490 C   0  0  0  0  0  0  0  0  0  0  0  0
  126.5540  125.1770   61.2310 C   0  0  0  0  0  0  0  0  0  0  0  0
  126.5650  123.8690   60.7520 C   0  0  0  0  0  0  0  0  0  0  0  0
  126.5410  123.6360   59.3820 C   0  0  0  0  0  0  0  0  0  0  0  0
  126.5020  124.7000   58.4870 C   0  0  0  0  0  0  0  0  0  0  0  0
  126.4880  126.0060   58.9690 C   0  0  0  0  0  0  0  0  0  0  0  0
  126.4900  128.7900   60.0310 C   0  0  0  0  0  0  0  0  0  0  0  0
  126.4800  130.0850   60.5700 C   0  0  0  0  0  0  0  0  0  0  0  0
  126.4770  131.2900   59.6110 C   0  0  0  0  0  0  0  0  0  0  0  0
  125.7070  132.2920   60.0400 F   0  0  0  0  0  0  0  0  0  0  0  0
  127.7130  131.7700   59.4700 F   0  0  0  0  0  0  0  0  0  0  0  0
  126.0210  130.9160   58.4140 F   0  0  0  0  0  0  0  0  0  0  0  0
  126.4760  130.2300   61.9790 C   0  0  0  0  0  0  0  0  0  0  0  0
  126.5240  131.5580   62.5980 C   0  0  0  0  0  0  0  0  0  0  0  0
  126.5630  132.6070   63.0870 N   0  0  0  0  0  0  0  0  0  0  0  0
  130.1600  128.4960   69.2690 C   0  0  0  0  0  0  0  0  0  0  0  0
  130.4140  128.3920   70.6330 C   0  0  0  0  0  0  0  0  0  0  0  0
  1  2  1  0
  2  3  1  0
  3  4  1  0
  4  5  2  0
  4  6  1  0
  6  7  2  0
  7  8  1  0
  8  9  2  0
  9 10  1  0
 10 11  1  0
 11 12  2  0
 11 13  1  0
 13 14  1  0
 14 15  1  0
 15 16  2  0
 16 17  1  0
 17 18  1  0
 18 19  2  0
 19 20  1  0
 20 21  2  0
 21 22  1  0
 22 23  2  0
 17 24  2  0
 24 25  1  0
 25 26  1  0
 26 27  1  0
 26 28  1  0
 26 29  1  0
 25 30  2  0
 30 31  1  0
 31 32  3  0
  9 33  1  0
 33 34  2  0
 34  6  1  0
 30 15  1  0
 23 18  1  0
M  END
>  <Binding energies>  (27) 
[-6.92]

>  <Ligand effiencies>  (27) 
[-0.1977142857142857]

>  <Interactions>  (27) 
["V-A:GLU:543:CG:4907, V-A:GLU:543:CD:4908, V-B:GLU:543:CD:9880, V-A:GLU:543:CB:4906, H-B:TYR:484:OH:9320, V-B:HIS:456:CE1:9042, V-B:PRO:540:CA:9855, H-A:GLU:543:OE2:4910, V-B:ASP:366:CG:8185, V-A:HIS:456:CE1:4070, V-A:TYR:539:CE1:4875, H-B:GLU:543:OE2:9882, V-B:PRO:540:CB:9857, H-B:ARG:545:NH2:9900, V-A:GLY:544:CA:4914, V-A:HIS:456:CD2:4068, H-B:LYS:547:NZ:9923, V-B:HIS:456:CD2:9040, V-A:GLY:544:C:4912, V-A:HIS:456:CB:4065, V-A:GLU:543:C:4902, V-A:HIS:456:CG:4066, V-A:GLU:543:CA:4904"]

$$$$
3ad_Grossjean_2025
     RDKit          3D

 29 31  0  0  0  0  0  0  0  0999 V2000
  133.6760  125.0250   63.3470 N   0  0  0  0  0  0  0  0  0  0  0  0
  132.7810  124.7300   62.6750 C   0  0  0  0  0  0  0  0  0  0  0  0
  131.6500  124.3540   61.8210 C   0  0  0  0  0  0  0  0  0  0  0  0
  131.8550  123.6150   60.6310 C   0  0  0  0  0  0  0  0  0  0  0  0
  133.2460  123.1260   60.1850 C   0  0  0  0  0  0  0  0  0  0  0  0
  134.0360  122.8030   61.2100 F   0  0  0  0  0  0  0  0  0  0  0  0
  133.1210  122.0420   59.4160 F   0  0  0  0  0  0  0  0  0  0  0  0
  133.8660  124.0800   59.4890 F   0  0  0  0  0  0  0  0  0  0  0  0
  130.7440  123.3210   59.8250 C   0  0  0  0  0  0  0  0  0  0  0  0
  129.4670  123.7560   60.1950 C   0  0  0  0  0  0  0  0  0  0  0  0
  128.2490  123.4830   59.3640 C   0  0  0  0  0  0  0  0  0  0  0  0
  126.9720  123.8430   59.8230 C   0  0  0  0  0  0  0  0  0  0  0  0
  125.8370  123.5930   59.0560 C   0  0  0  0  0  0  0  0  0  0  0  0
  125.9650  122.9780   57.8140 C   0  0  0  0  0  0  0  0  0  0  0  0
  127.2190  122.6140   57.3360 C   0  0  0  0  0  0  0  0  0  0  0  0
  128.3520  122.8660   58.1060 C   0  0  0  0  0  0  0  0  0  0  0  0
  129.2770  124.4690   61.3330 N   0  0  0  0  0  0  0  0  0  0  0  0
  130.3300  124.7470   62.1380 C   0  0  0  0  0  0  0  0  0  0  0  0
  129.8930  125.6780   63.5900 S   0  0  0  0  0  0  0  0  0  0  0  0
  129.1710  127.2490   63.0270 C   0  0  0  0  0  0  0  0  0  0  0  0
  129.2790  127.4230   61.5100 C   0  0  0  0  0  0  0  0  0  0  0  0
  128.2670  127.2980   60.8200 O   0  0  0  0  0  0  0  0  0  0  0  0
  130.5140  127.7080   61.0460 N   0  0  0  0  0  0  0  0  0  0  0  0
  130.9500  127.9400   59.7280 C   0  0  0  0  0  0  0  0  0  0  0  0
  130.9930  129.2800   59.3310 C   0  0  0  0  0  0  0  0  0  0  0  0
  131.4060  129.6200   58.0460 C   0  0  0  0  0  0  0  0  0  0  0  0
  131.7730  128.6180   57.1520 C   0  0  0  0  0  0  0  0  0  0  0  0
  131.7290  127.2790   57.5310 C   0  0  0  0  0  0  0  0  0  0  0  0
  131.3160  126.9350   58.8160 C   0  0  0  0  0  0  0  0  0  0  0  0
  1  2  3  0
  2  3  1  0
  3  4  2  0
  4  5  1  0
  5  6  1  0
  5  7  1  0
  5  8  1  0
  4  9  1  0
  9 10  2  0
 10 11  1  0
 11 12  2  0
 12 13  1  0
 13 14  2  0
 14 15  1  0
 15 16  2  0
 10 17  1  0
 17 18  2  0
 18 19  1  0
 19 20  1  0
 20 21  1  0
 21 22  2  0
 21 23  1  0
 23 24  1  0
 24 25  2  0
 25 26  1  0
 26 27  2  0
 27 28  1  0
 28 29  2  0
 18  3  1  0
 29 24  1  0
 16 11  1  0
M  END
>  <Binding energies>  (28) 
[-6.18]

>  <Ligand effiencies>  (28) 
[-0.206]

>  <Interactions>  (28) 
["V-A:ASP:366:CA:3210, H-A:ASP:366:OD1:3214, V-A:GLU:543:CD:4908, V-A:ASP:366:CB:3212, V-B:GLU:543:CD:9880, V-B:TYR:539:CZ:9849, V-A:ILE:369:CG2:3237, V-A:ILE:369:CB:3236, V-B:TYR:539:CD2:9846, V-A:GLY:454:CA:4049, H-A:TYR:484:OH:4348, V-B:TYR:539:CE2:9848, V-A:ILE:369:CD1:3239, V-B:PRO:540:CA:9855, H-A:GLU:543:OE2:4910, V-A:ARG:545:CZ:4926, V-A:ASP:366:CG:3213, H-A:ARG:545:NH2:4928, V-B:TYR:539:C:9839, H-A:ARG:545:NE:4924, H-A:ARG:545:NH1:4927, V-B:TYR:539:CG:9844, H-A:GLY:454:N:4050, V-B:PRO:540:N:9856, H-A:GLU:543:OE1:4909, V-B:PRO:540:CB:9857, V-B:PRO:540:CD:9859"]

$$$$
3ai_Grossjean_2025
     RDKit          3D

 28 30  0  0  0  0  0  0  0  0999 V2000
  131.3780  126.7650   61.4060 N   0  0  0  0  0  0  0  0  0  0  0  0
  131.3540  125.6160   61.2760 C   0  0  0  0  0  0  0  0  0  0  0  0
  131.3250  124.1590   61.1110 C   0  0  0  0  0  0  0  0  0  0  0  0
  132.2960  123.5010   60.3170 C   0  0  0  0  0  0  0  0  0  0  0  0
  133.4520  124.2500   59.6270 C   0  0  0  0  0  0  0  0  0  0  0  0
  134.5200  124.3940   60.4140 F   0  0  0  0  0  0  0  0  0  0  0  0
  133.8410  123.5830   58.5390 F   0  0  0  0  0  0  0  0  0  0  0  0
  133.0570  125.4720   59.2660 F   0  0  0  0  0  0  0  0  0  0  0  0
  132.1970  122.1120   60.1520 C   0  0  0  0  0  0  0  0  0  0  0  0
  131.1570  121.3990   60.7570 C   0  0  0  0  0  0  0  0  0  0  0  0
  130.9960  119.9170   60.6050 C   0  0  0  0  0  0  0  0  0  0  0  0
  131.8690  119.1820   59.7870 C   0  0  0  0  0  0  0  0  0  0  0  0
  131.7290  117.8040   59.6440 C   0  0  0  0  0  0  0  0  0  0  0  0
  130.7110  117.1400   60.3220 C   0  0  0  0  0  0  0  0  0  0  0  0
  129.8340  117.8450   61.1400 C   0  0  0  0  0  0  0  0  0  0  0  0
  129.9780  119.2220   61.2800 C   0  0  0  0  0  0  0  0  0  0  0  0
  130.2230  122.0350   61.5100 N   0  0  0  0  0  0  0  0  0  0  0  0
  130.3110  123.3730   61.7050 C   0  0  0  0  0  0  0  0  0  0  0  0
  129.0150  124.0270   62.7350 S   0  0  0  0  0  0  0  0  0  0  0  0
  127.6180  122.8530   62.6890 C   0  0  0  0  0  0  0  0  0  0  0  0
  126.8150  122.8510   61.3800 C   0  0  0  0  0  0  0  0  0  0  0  0
  125.5820  122.8550   61.3970 O   0  0  0  0  0  0  0  0  0  0  0  0
  127.5680  122.8430   60.2570 N   0  0  0  0  0  0  0  0  0  0  0  0
  127.1180  122.8450   58.9430 C   0  0  0  0  0  0  0  0  0  0  0  0
  126.0040  123.5690   58.5200 C   0  0  0  0  0  0  0  0  0  0  0  0
  125.8950  123.3050   57.1740 C   0  0  0  0  0  0  0  0  0  0  0  0
  126.8920  122.4670   56.8050 O   0  0  0  0  0  0  0  0  0  0  0  0
  127.6610  122.1820   57.9350 N   0  0  0  0  0  0  0  0  0  0  0  0
  1  2  3  0
  2  3  1  0
  3  4  2  0
  4  5  1  0
  5  6  1  0
  5  7  1  0
  5  8  1  0
  4  9  1  0
  9 10  2  0
 10 11  1  0
 11 12  2  0
 12 13  1  0
 13 14  2  0
 14 15  1  0
 15 16  2  0
 10 17  1  0
 17 18  2  0
 18 19  1  0
 19 20  1  0
 20 21  1  0
 21 22  2  0
 21 23  1  0
 23 24  1  0
 24 25  1  0
 25 26  2  0
 26 27  1  0
 27 28  1  0
 18  3  1  0
 28 24  2  0
 16 11  1  0
M  END
>  <Binding energies>  (29) 
[-7.6]

>  <Ligand effiencies>  (29) 
[-0.26206896551724135]

>  <Interactions>  (29) 
["V-A:ASP:366:CA:3210, V-A:LEU:475:CD2:4259, V-A:ASP:366:CB:3212, V-B:GLU:543:CD:9880, V-A:ILE:369:CG2:3237, V-A:ILE:369:CB:3236, V-B:TYR:539:CD2:9846, H-A:TYR:484:OH:4348, V-B:TYR:539:CE2:9848, V-A:ILE:369:CD1:3239, V-B:PRO:540:CA:9855, V-B:GLU:543:CG:9879, V-B:ALA:541:CB:9864, H-B:ALA:541:N:9863, V-A:ASP:366:CG:3213, H-A:ARG:545:NH2:4928, V-B:TYR:539:C:9839, V-B:TYR:539:CG:9844, V-B:PRO:540:C:9853, V-B:PRO:540:N:9856, H-B:TYR:539:N:9842, V-A:LEU:475:CD1:4258, V-A:PRO:482:CB:4326, V-A:SER:385:CB:3409, V-B:TYR:539:CB:9843, V-B:PRO:540:CB:9857, V-A:PRO:482:CG:4327, H-B:TYR:539:O:9840, V-A:ILE:369:CG1:3238"]

$$$$
3aj_Grossjean_2025
     RDKit          3D

 28 30  0  0  0  0  0  0  0  0999 V2000
  128.2780  126.8390   62.0490 N   0  0  0  0  0  0  0  0  0  0  0  0
  128.6410  125.7480   61.9190 C   0  0  0  0  0  0  0  0  0  0  0  0
  129.1030  124.3670   61.7550 C   0  0  0  0  0  0  0  0  0  0  0  0
  130.4780  124.0460   61.8610 C   0  0  0  0  0  0  0  0  0  0  0  0
  131.5540  125.0980   62.1930 C   0  0  0  0  0  0  0  0  0  0  0  0
  131.4230  125.6020   63.4230 F   0  0  0  0  0  0  0  0  0  0  0  0
  132.7680  124.5510   62.1100 F   0  0  0  0  0  0  0  0  0  0  0  0
  131.4780  126.1160   61.3350 F   0  0  0  0  0  0  0  0  0  0  0  0
  130.8740  122.7160   61.6480 C   0  0  0  0  0  0  0  0  0  0  0  0
  129.9260  121.7370   61.3340 C   0  0  0  0  0  0  0  0  0  0  0  0
  130.2960  120.3060   61.0880 C   0  0  0  0  0  0  0  0  0  0  0  0
  131.4100  119.9800   60.3000 C   0  0  0  0  0  0  0  0  0  0  0  0
  131.7620  118.6520   60.0700 C   0  0  0  0  0  0  0  0  0  0  0  0
  131.0000  117.6300   60.6280 C   0  0  0  0  0  0  0  0  0  0  0  0
  129.8920  117.9270   61.4140 C   0  0  0  0  0  0  0  0  0  0  0  0
  129.5450  119.2560   61.6420 C   0  0  0  0  0  0  0  0  0  0  0  0
  128.6100  122.0510   61.2260 N   0  0  0  0  0  0  0  0  0  0  0  0
  128.2000  123.3220   61.4500 C   0  0  0  0  0  0  0  0  0  0  0  0
  126.4410  123.5400   61.2860 S   0  0  0  0  0  0  0  0  0  0  0  0
  126.0450  123.5720   59.5050 C   0  0  0  0  0  0  0  0  0  0  0  0
  127.2590  123.7000   58.5720 C   0  0  0  0  0  0  0  0  0  0  0  0
  127.5050  122.8310   57.7330 O   0  0  0  0  0  0  0  0  0  0  0  0
  127.9960  124.8180   58.7570 N   0  0  0  0  0  0  0  0  0  0  0  0
  129.1340  125.1860   58.0510 C   0  0  0  0  0  0  0  0  0  0  0  0
  129.2040  125.8920   56.9430 N   0  0  0  0  0  0  0  0  0  0  0  0
  130.4520  126.0570   56.5500 C   0  0  0  0  0  0  0  0  0  0  0  0
  131.4310  125.4730   57.3500 C   0  0  0  0  0  0  0  0  0  0  0  0
  130.6630  124.6680   58.6850 S   0  0  0  0  0  0  0  0  0  0  0  0
  1  2  3  0
  2  3  1  0
  3  4  2  0
  4  5  1  0
  5  6  1  0
  5  7  1  0
  5  8  1  0
  4  9  1  0
  9 10  2  0
 10 11  1  0
 11 12  2  0
 12 13  1  0
 13 14  2  0
 14 15  1  0
 15 16  2  0
 10 17  1  0
 17 18  2  0
 18 19  1  0
 19 20  1  0
 20 21  1  0
 21 22  2  0
 21 23  1  0
 23 24  1  0
 24 25  2  0
 25 26  1  0
 26 27  2  0
 27 28  1  0
 18  3  1  0
 28 24  1  0
 16 11  1  0
M  END
>  <Binding energies>  (30) 
[-5.52]

>  <Ligand effiencies>  (30) 
[-0.19034482758620688]

>  <Interactions>  (30) 
["V-B:MET:535:CE:9807, V-A:LEU:475:CD2:4259, V-A:GLU:543:CD:4908, V-B:GLU:543:CD:9880, V-B:TYR:539:CZ:9849, V-B:TYR:539:CD2:9846, V-B:TYR:539:CE2:9848, V-B:PRO:540:CA:9855, V-B:ALA:541:CB:9864, V-A:ASP:366:CG:3213, V-B:TYR:539:C:9839, V-B:PRO:540:C:9853, V-A:LEU:475:CD1:4258, V-A:PRO:482:CB:4326, V-A:SER:385:CB:3409, V-A:LEU:475:CG:4257, V-B:PRO:540:CB:9857, V-A:PRO:482:CG:4327"]

$$$$
3ak_Grossjean_2025
     RDKit          3D

 33 34  0  0  0  0  0  0  0  0999 V2000
  134.3450  124.3940   61.7230 C   0  0  0  0  0  0  0  0  0  0  0  0
  134.0720  123.0150   61.5320 O   0  0  0  0  0  0  0  0  0  0  0  0
  133.3860  122.7370   60.3190 C   0  0  0  0  0  0  0  0  0  0  0  0
  133.5670  123.9200   59.3600 C   0  0  0  0  0  0  0  0  0  0  0  0
  132.4360  123.9950   58.4990 O   0  0  0  0  0  0  0  0  0  0  0  0
  132.1910  125.2720   57.9150 C   0  0  0  0  0  0  0  0  0  0  0  0
  130.9010  125.9460   58.4170 C   0  0  0  0  0  0  0  0  0  0  0  0
  129.8880  124.9610   58.5690 O   0  0  0  0  0  0  0  0  0  0  0  0
  129.3770  124.4650   57.3380 C   0  0  0  0  0  0  0  0  0  0  0  0
  128.5240  123.2080   57.5850 C   0  0  0  0  0  0  0  0  0  0  0  0
  127.5440  123.3670   58.6620 N   0  0  0  0  0  0  0  0  0  0  0  0
  126.6030  124.3270   58.7380 C   0  0  0  0  0  0  0  0  0  0  0  0
  126.4560  125.1870   57.8690 O   0  0  0  0  0  0  0  0  0  0  0  0
  125.6700  124.3540   59.9610 C   0  0  0  0  0  0  0  0  0  0  0  0
  126.0790  123.2070   61.3280 S   0  0  0  0  0  0  0  0  0  0  0  0
  127.8560  123.1120   61.4830 C   0  0  0  0  0  0  0  0  0  0  0  0
  128.4000  121.8900   61.2600 N   0  0  0  0  0  0  0  0  0  0  0  0
  129.7420  121.7160   61.3610 C   0  0  0  0  0  0  0  0  0  0  0  0
  130.2580  120.3330   61.0980 C   0  0  0  0  0  0  0  0  0  0  0  0
  129.6090  119.2110   61.6360 C   0  0  0  0  0  0  0  0  0  0  0  0
  130.0810  117.9240   61.3920 C   0  0  0  0  0  0  0  0  0  0  0  0
  131.2110  117.7410   60.6020 C   0  0  0  0  0  0  0  0  0  0  0  0
  131.8710  118.8360   60.0540 C   0  0  0  0  0  0  0  0  0  0  0  0
  131.3960  120.1210   60.2990 C   0  0  0  0  0  0  0  0  0  0  0  0
  130.5830  122.7890   61.6780 C   0  0  0  0  0  0  0  0  0  0  0  0
  130.0460  124.0640   61.9110 C   0  0  0  0  0  0  0  0  0  0  0  0
  131.0030  125.2210   62.2600 C   0  0  0  0  0  0  0  0  0  0  0  0
  131.4740  125.7760   61.1430 F   0  0  0  0  0  0  0  0  0  0  0  0
  130.3580  126.1510   62.9660 F   0  0  0  0  0  0  0  0  0  0  0  0
  132.0520  124.8250   62.9840 F   0  0  0  0  0  0  0  0  0  0  0  0
  128.6440  124.2360   61.8140 C   0  0  0  0  0  0  0  0  0  0  0  0
  128.0280  125.5460   62.0480 C   0  0  0  0  0  0  0  0  0  0  0  0
  127.5400  126.5800   62.2340 N   0  0  0  0  0  0  0  0  0  0  0  0
  1  2  1  0
  2  3  1  0
  3  4  1  0
  4  5  1  0
  5  6  1  0
  6  7  1  0
  7  8  1  0
  8  9  1  0
  9 10  1  0
 10 11  1  0
 11 12  1  0
 12 13  2  0
 12 14  1  0
 14 15  1  0
 15 16  1  0
 16 17  2  0
 17 18  1  0
 18 19  1  0
 19 20  2  0
 20 21  1  0
 21 22  2  0
 22 23  1  0
 23 24  2  0
 18 25  2  0
 25 26  1  0
 26 27  1  0
 27 28  1  0
 27 29  1  0
 27 30  1  0
 26 31  2  0
 31 32  1  0
 32 33  3  0
 31 16  1  0
 24 19  1  0
M  END
>  <Binding energies>  (31) 
[-4.02]

>  <Ligand effiencies>  (31) 
[-0.11823529411764705]

>  <Interactions>  (31) 
["V-A:ASP:366:CA:3210, H-B:TYR:531:OH:9767, V-B:TYR:539:CE1:9847, V-A:LEU:475:CD2:4259, V-A:GLU:543:CD:4908, H-B:TYR:539:OH:9850, V-A:ASP:366:CB:3212, V-B:GLU:543:CD:9880, V-B:TYR:539:CZ:9849, V-A:ILE:369:CG2:3237, V-A:ILE:369:CB:3236, V-B:TYR:539:CD2:9846, V-B:TYR:539:CE2:9848, V-A:ILE:369:CD1:3239, V-A:TYR:484:CZ:4347, V-B:PRO:540:CA:9855, V-B:ASP:366:CG:8185, V-B:ALA:541:CB:9864, H-B:ALA:541:N:9863, V-A:ASP:366:CG:3213, V-B:TYR:539:C:9839, V-B:TYR:539:CG:9844, H-A:GLY:454:N:4050, V-A:GLY:453:C:4042, V-A:GLY:453:CA:4044, V-A:LEU:475:CD1:4258, V-A:PRO:482:CB:4326, V-A:SER:385:CB:3409, V-A:LEU:475:CG:4257, V-B:PRO:540:CB:9857, V-A:PRO:482:CG:4327, H-B:TYR:539:O:9840"]

$$$$
3bk_Grossjean_2025
     RDKit          3D

 30 31  0  0  0  0  0  0  0  0999 V2000
  132.4310  131.3880   60.7030 C   0  0  0  0  0  0  0  0  0  0  0  0
  131.5000  131.6570   61.7400 O   0  0  0  0  0  0  0  0  0  0  0  0
  130.1600  131.7710   61.2820 C   0  0  0  0  0  0  0  0  0  0  0  0
  129.5060  130.3830   61.2500 C   0  0  0  0  0  0  0  0  0  0  0  0
  129.7560  129.7730   59.9920 O   0  0  0  0  0  0  0  0  0  0  0  0
  130.5440  128.5920   60.0720 C   0  0  0  0  0  0  0  0  0  0  0  0
  130.4260  127.8140   58.7550 C   0  0  0  0  0  0  0  0  0  0  0  0
  130.4480  126.4200   59.0270 O   0  0  0  0  0  0  0  0  0  0  0  0
  130.7660  125.6180   57.8970 C   0  0  0  0  0  0  0  0  0  0  0  0
  131.9630  124.7160   58.2320 C   0  0  0  0  0  0  0  0  0  0  0  0
  132.2890  124.7290   59.6590 N   0  0  0  0  0  0  0  0  0  0  0  0
  133.3740  124.1660   60.2180 C   0  0  0  0  0  0  0  0  0  0  0  0
  134.2460  123.5770   59.5760 O   0  0  0  0  0  0  0  0  0  0  0  0
  133.5120  124.3080   61.7350 C   0  0  0  0  0  0  0  0  0  0  0  0
  131.9910  124.9550   62.5000 S   0  0  0  0  0  0  0  0  0  0  0  0
  130.6120  123.9380   62.0000 C   0  0  0  0  0  0  0  0  0  0  0  0
  130.8960  122.6350   61.7470 N   0  0  0  0  0  0  0  0  0  0  0  0
  129.9080  121.7870   61.3580 C   0  0  0  0  0  0  0  0  0  0  0  0
  130.3040  120.3610   61.1200 C   0  0  0  0  0  0  0  0  0  0  0  0
  129.5780  119.3080   61.7000 C   0  0  0  0  0  0  0  0  0  0  0  0
  129.9450  117.9820   61.4870 C   0  0  0  0  0  0  0  0  0  0  0  0
  131.0450  117.6890   60.6890 C   0  0  0  0  0  0  0  0  0  0  0  0
  131.7790  118.7130   60.0990 C   0  0  0  0  0  0  0  0  0  0  0  0
  131.4080  120.0380   60.3130 C   0  0  0  0  0  0  0  0  0  0  0  0
  128.5900  122.2370   61.2160 C   0  0  0  0  0  0  0  0  0  0  0  0
  128.2800  123.5770   61.4710 C   0  0  0  0  0  0  0  0  0  0  0  0
  126.8290  124.0270   61.3040 C   0  0  0  0  0  0  0  0  0  0  0  0
  129.3060  124.4580   61.8720 C   0  0  0  0  0  0  0  0  0  0  0  0
  129.0100  125.8670   62.1480 C   0  0  0  0  0  0  0  0  0  0  0  0
  128.7760  126.9800   62.3650 N   0  0  0  0  0  0  0  0  0  0  0  0
  1  2  1  0
  2  3  1  0
  3  4  1  0
  4  5  1  0
  5  6  1  0
  6  7  1  0
  7  8  1  0
  8  9  1  0
  9 10  1  0
 10 11  1  0
 11 12  1  0
 12 13  2  0
 12 14  1  0
 14 15  1  0
 15 16  1  0
 16 17  2  0
 17 18  1  0
 18 19  1  0
 19 20  2  0
 20 21  1  0
 21 22  2  0
 22 23  1  0
 23 24  2  0
 18 25  2  0
 25 26  1  0
 26 27  1  0
 26 28  2  0
 28 29  1  0
 29 30  3  0
 28 16  1  0
 24 19  1  0
M  END
>  <Binding energies>  (32) 
[-4.97]

>  <Ligand effiencies>  (32) 
[-0.16032258064516128]

>  <Interactions>  (32) 
["V-A:LEU:475:CD2:4259, H-A:ALA:541:N:4891, V-B:GLU:543:CD:9880, V-B:TYR:539:CZ:9849, V-A:PRO:540:CA:4883, V-A:PRO:540:CB:4885, V-B:TYR:539:CD2:9846, H-A:TYR:484:OH:4348, V-B:TYR:539:CE2:9848, V-A:ILE:369:CD1:3239, V-B:PRO:540:CA:9855, V-B:ALA:541:CB:9864, V-A:ASP:366:CG:3213, H-A:ARG:545:NH2:4928, V-A:ALA:541:CB:4892, V-A:LEU:475:CD1:4258, V-A:PRO:482:CB:4326, V-A:SER:385:CB:3409, V-A:LEU:475:CG:4257, V-A:PRO:482:CG:4327"]

$$$$
3cb_Grossjean_2025
     RDKit          3D

 30 32  0  0  0  0  0  0  0  0999 V2000
  130.8720  125.5350   74.1800 C   0  0  0  0  0  0  0  0  0  0  0  0
  129.8490  125.9130   73.2710 O   0  0  0  0  0  0  0  0  0  0  0  0
  129.7140  127.2020   72.8650 C   0  0  0  0  0  0  0  0  0  0  0  0
  129.8080  128.1680   73.6280 O   0  0  0  0  0  0  0  0  0  0  0  0
  129.4370  127.3360   71.3950 C   0  0  0  0  0  0  0  0  0  0  0  0
  130.1980  128.1750   70.5680 C   0  0  0  0  0  0  0  0  0  0  0  0
  129.9160  128.2740   69.2090 C   0  0  0  0  0  0  0  0  0  0  0  0
  128.8680  127.5440   68.6480 C   0  0  0  0  0  0  0  0  0  0  0  0
  128.6730  127.7170   67.2630 N   0  0  0  0  0  0  0  0  0  0  0  0
  128.4160  128.8390   66.5560 C   0  0  0  0  0  0  0  0  0  0  0  0
  128.3200  129.9690   67.0370 O   0  0  0  0  0  0  0  0  0  0  0  0
  128.2590  128.6180   65.0440 C   0  0  0  0  0  0  0  0  0  0  0  0
  127.9650  130.1340   64.0700 S   0  0  0  0  0  0  0  0  0  0  0  0
  128.1610  129.7220   62.3490 C   0  0  0  0  0  0  0  0  0  0  0  0
  127.3720  128.6960   61.9460 N   0  0  0  0  0  0  0  0  0  0  0  0
  127.4360  128.2970   60.6570 C   0  0  0  0  0  0  0  0  0  0  0  0
  126.5170  127.1520   60.2740 C   0  0  0  0  0  0  0  0  0  0  0  0
  128.2850  128.8930   59.7280 C   0  0  0  0  0  0  0  0  0  0  0  0
  129.1210  129.9440   60.1260 C   0  0  0  0  0  0  0  0  0  0  0  0
  130.0180  130.5470   59.0930 C   0  0  0  0  0  0  0  0  0  0  0  0
  129.5410  131.5590   58.2510 C   0  0  0  0  0  0  0  0  0  0  0  0
  130.3720  132.1350   57.2930 C   0  0  0  0  0  0  0  0  0  0  0  0
  131.6900  131.7020   57.1760 C   0  0  0  0  0  0  0  0  0  0  0  0
  132.1830  130.7030   58.0100 C   0  0  0  0  0  0  0  0  0  0  0  0
  131.3500  130.1310   58.9680 C   0  0  0  0  0  0  0  0  0  0  0  0
  129.0750  130.3670   61.4800 C   0  0  0  0  0  0  0  0  0  0  0  0
  129.9940  131.3980   61.9720 C   0  0  0  0  0  0  0  0  0  0  0  0
  130.7180  132.2120   62.3610 N   0  0  0  0  0  0  0  0  0  0  0  0
  128.1040  126.6980   69.4670 C   0  0  0  0  0  0  0  0  0  0  0  0
  128.3880  126.6000   70.8270 C   0  0  0  0  0  0  0  0  0  0  0  0
  1  2  1  0
  2  3  1  0
  3  4  2  0
  3  5  1  0
  5  6  2  0
  6  7  1  0
  7  8  2  0
  8  9  1  0
  9 10  1  0
 10 11  2  0
 10 12  1  0
 12 13  1  0
 13 14  1  0
 14 15  2  0
 15 16  1  0
 16 17  1  0
 16 18  2  0
 18 19  1  0
 19 20  1  0
 20 21  2  0
 21 22  1  0
 22 23  2  0
 23 24  1  0
 24 25  2  0
 19 26  2  0
 26 27  1  0
 27 28  3  0
  8 29  1  0
 29 30  2  0
 30  5  1  0
 26 14  1  0
 25 20  1  0
M  END
>  <Binding energies>  (33) 
[-7.43]

>  <Ligand effiencies>  (33) 
[-0.2396774193548387]

>  <Interactions>  (33) 
["V-A:GLU:543:CG:4907, V-A:GLU:543:CD:4908, H-A:ALA:541:N:4891, V-B:GLU:543:CD:9880, V-A:GLU:543:CB:4906, V-A:PRO:540:CA:4883, V-A:PRO:540:CB:4885, H-B:TYR:484:OH:9320, V-B:HIS:456:CE1:9042, H-A:GLU:543:OE2:4910, V-B:ASP:366:CG:8185, V-A:PRO:540:N:4884, V-A:HIS:456:CE1:4070, V-A:TYR:539:C:4867, V-A:ALA:541:CB:4892, H-B:GLU:543:OE2:9882, V-B:GLU:543:CB:9878, V-A:HIS:456:CD2:4068, H-B:LYS:547:NZ:9923, V-B:HIS:456:CD2:9040, H-A:LYS:547:NZ:4951, V-A:GLY:544:C:4912, V-A:HIS:456:CB:4065, V-A:GLU:543:C:4902, V-A:HIS:456:CG:4066, V-B:LYS:547:CE:9922"]

$$$$
3ch_Grossjean_2025
     RDKit          3D

 32 34  0  0  0  0  0  0  0  0999 V2000
  133.5860  125.0430   65.7120 C   0  0  0  0  0  0  0  0  0  0  0  0
  133.8840  124.8650   64.3310 O   0  0  0  0  0  0  0  0  0  0  0  0
  132.8940  125.0710   63.3870 C   0  0  0  0  0  0  0  0  0  0  0  0
  131.7570  125.8660   63.6020 C   0  0  0  0  0  0  0  0  0  0  0  0
  130.7980  126.0360   62.5930 C   0  0  0  0  0  0  0  0  0  0  0  0
  129.6310  126.8160   62.7130 N   0  0  0  0  0  0  0  0  0  0  0  0
  128.4170  126.6440   62.1470 C   0  0  0  0  0  0  0  0  0  0  0  0
  128.1030  125.7190   61.3980 O   0  0  0  0  0  0  0  0  0  0  0  0
  127.3610  127.6830   62.5230 C   0  0  0  0  0  0  0  0  0  0  0  0
  126.8090  128.6520   61.0890 S   0  0  0  0  0  0  0  0  0  0  0  0
  127.9130  130.0430   60.9780 C   0  0  0  0  0  0  0  0  0  0  0  0
  127.3920  131.1990   61.4590 N   0  0  0  0  0  0  0  0  0  0  0  0
  128.1500  132.3180   61.4140 C   0  0  0  0  0  0  0  0  0  0  0  0
  127.5040  133.5760   61.9620 C   0  0  0  0  0  0  0  0  0  0  0  0
  129.4410  132.3290   60.8920 C   0  0  0  0  0  0  0  0  0  0  0  0
  130.0010  131.1430   60.3970 C   0  0  0  0  0  0  0  0  0  0  0  0
  131.3860  131.2050   59.8380 C   0  0  0  0  0  0  0  0  0  0  0  0
  131.6000  131.0180   58.4670 C   0  0  0  0  0  0  0  0  0  0  0  0
  132.8880  131.0660   57.9400 C   0  0  0  0  0  0  0  0  0  0  0  0
  133.9700  131.2980   58.7860 C   0  0  0  0  0  0  0  0  0  0  0  0
  133.7750  131.4790   60.1520 C   0  0  0  0  0  0  0  0  0  0  0  0
  132.4850  131.4290   60.6750 C   0  0  0  0  0  0  0  0  0  0  0  0
  129.2250  129.9570   60.4560 C   0  0  0  0  0  0  0  0  0  0  0  0
  129.7930  128.6710   60.0400 C   0  0  0  0  0  0  0  0  0  0  0  0
  130.2400  127.6550   59.7110 N   0  0  0  0  0  0  0  0  0  0  0  0
  130.9750  125.3870   61.3700 C   0  0  0  0  0  0  0  0  0  0  0  0
  132.1020  124.5860   61.1320 C   0  0  0  0  0  0  0  0  0  0  0  0
  132.3410  123.9220   59.9410 O   0  0  0  0  0  0  0  0  0  0  0  0
  133.1820  124.5220   58.9620 C   0  0  0  0  0  0  0  0  0  0  0  0
  133.0530  124.4340   62.1490 C   0  0  0  0  0  0  0  0  0  0  0  0
  134.1700  123.6650   61.9230 O   0  0  0  0  0  0  0  0  0  0  0  0
  133.8930  122.2870   61.7120 C   0  0  0  0  0  0  0  0  0  0  0  0
  1  2  1  0
  2  3  1  0
  3  4  2  0
  4  5  1  0
  5  6  1  0
  6  7  1  0
  7  8  2  0
  7  9  1  0
  9 10  1  0
 10 11  1  0
 11 12  2  0
 12 13  1  0
 13 14  1  0
 13 15  2  0
 15 16  1  0
 16 17  1  0
 17 18  2  0
 18 19  1  0
 19 20  2  0
 20 21  1  0
 21 22  2  0
 16 23  2  0
 23 24  1  0
 24 25  3  0
  5 26  2  0
 26 27  1  0
 27 28  1  0
 28 29  1  0
 27 30  2  0
 30 31  1  0
 31 32  1  0
 30  3  1  0
 23 11  1  0
 22 17  1  0
M  END
>  <Binding energies>  (34) 
[-6.63]

>  <Ligand effiencies>  (34) 
[-0.2009090909090909]

>  <Interactions>  (34) 
["V-A:ASP:366:CA:3210, V-A:LEU:475:CD2:4259, V-A:GLU:543:CD:4908, V-A:ASP:366:CB:3212, V-B:GLU:543:CD:9880, V-A:ILE:369:CG2:3237, V-A:PRO:540:CA:4883, V-A:PRO:540:CB:4885, V-A:ASN:362:CB:3176, V-A:GLY:454:CA:4049, H-A:TYR:484:OH:4348, V-B:TYR:539:CE2:9848, V-A:ILE:369:CD1:3239, V-A:TYR:484:CZ:4347, V-A:ASN:362:C:3172, H-A:GLU:543:OE2:4910, V-A:LEU:363:CD1:3189, V-A:ARG:545:CZ:4926, V-A:LEU:363:CA:3185, V-A:ASP:366:CG:3213, H-A:ARG:545:NH2:4928, H-A:ARG:545:NE:4924, V-A:TYR:484:CE2:4346, V-A:LEU:363:CB:3187, H-A:GLY:454:N:4050, V-A:ARG:545:CG:4922, V-A:PRO:540:C:4881, V-A:ARG:545:CD:4923, V-A:ALA:541:CB:4892, H-B:GLU:543:OE2:9882, H-A:GLU:543:OE1:4909, V-B:LEU:475:CD2:9231"]

$$$$
3ci_Grossjean_2025
     RDKit          3D

 25 27  0  0  0  0  0  0  0  0999 V2000
  133.9380  123.8330   59.7300 C   0  0  0  0  0  0  0  0  0  0  0  0
  132.5790  123.2980   60.1420 C   0  0  0  0  0  0  0  0  0  0  0  0
  132.3220  121.9320   60.2160 C   0  0  0  0  0  0  0  0  0  0  0  0
  131.0550  121.4870   60.6170 C   0  0  0  0  0  0  0  0  0  0  0  0
  130.8300  120.0120   60.6980 C   0  0  0  0  0  0  0  0  0  0  0  0
  129.8630  119.4810   61.5610 C   0  0  0  0  0  0  0  0  0  0  0  0
  129.6630  118.1050   61.6380 C   0  0  0  0  0  0  0  0  0  0  0  0
  130.4360  117.2520   60.8570 C   0  0  0  0  0  0  0  0  0  0  0  0
  131.4090  117.7630   60.0010 C   0  0  0  0  0  0  0  0  0  0  0  0
  131.6060  119.1390   59.9250 C   0  0  0  0  0  0  0  0  0  0  0  0
  130.0660  122.4560   60.9250 C   0  0  0  0  0  0  0  0  0  0  0  0
  128.7100  122.0490   61.3090 C   0  0  0  0  0  0  0  0  0  0  0  0
  127.6400  121.7270   61.6120 N   0  0  0  0  0  0  0  0  0  0  0  0
  130.4130  123.8250   60.8270 C   0  0  0  0  0  0  0  0  0  0  0  0
  129.2520  125.1290   61.2120 S   0  0  0  0  0  0  0  0  0  0  0  0
  130.1450  126.5470   61.9290 C   0  0  0  0  0  0  0  0  0  0  0  0
  131.4800  126.1600   62.5760 C   0  0  0  0  0  0  0  0  0  0  0  0
  132.5010  126.1450   61.8850 O   0  0  0  0  0  0  0  0  0  0  0  0
  131.4270  125.8440   63.8880 N   0  0  0  0  0  0  0  0  0  0  0  0
  132.4860  125.4900   64.7120 C   0  0  0  0  0  0  0  0  0  0  0  0
  132.4430  125.6100   66.1000 C   0  0  0  0  0  0  0  0  0  0  0  0
  133.6710  125.1650   66.5370 C   0  0  0  0  0  0  0  0  0  0  0  0
  134.4130  124.7940   65.4650 O   0  0  0  0  0  0  0  0  0  0  0  0
  133.6520  125.0060   64.3150 N   0  0  0  0  0  0  0  0  0  0  0  0
  131.6470  124.2320   60.4350 N   0  0  0  0  0  0  0  0  0  0  0  0
  1  2  1  0
  2  3  2  0
  3  4  1  0
  4  5  1  0
  5  6  2  0
  6  7  1  0
  7  8  2  0
  8  9  1  0
  9 10  2  0
  4 11  2  0
 11 12  1  0
 12 13  3  0
 11 14  1  0
 14 15  1  0
 15 16  1  0
 16 17  1  0
 17 18  2  0
 17 19  1  0
 19 20  1  0
 20 21  1  0
 21 22  2  0
 22 23  1  0
 23 24  1  0
 14 25  2  0
 25  2  1  0
 10  5  1  0
 24 20  2  0
M  END
>  <Binding energies>  (35) 
[-7.4]

>  <Ligand effiencies>  (35) 
[-0.2846153846153846]

>  <Interactions>  (35) 
["V-A:ASP:366:CA:3210, V-A:LEU:475:CD2:4259, V-A:GLU:543:CD:4908, V-A:ILE:369:CG2:3237, V-A:ILE:369:CB:3236, V-B:TYR:539:CD2:9846, H-A:TYR:484:OH:4348, V-B:TYR:539:CE2:9848, V-A:ILE:369:CD1:3239, V-A:TYR:484:CZ:4347, V-B:PRO:540:CA:9855, H-A:GLU:543:OE2:4910, V-B:ALA:541:CB:9864, V-A:ARG:545:CZ:4926, H-B:ALA:541:N:9863, V-A:ASP:366:CG:3213, H-A:ARG:545:NH2:4928, H-A:ARG:545:NE:4924, V-A:TYR:484:CE2:4346, V-A:HIS:456:CE1:4070, V-B:TYR:539:CG:9844, H-A:GLY:454:N:4050, V-A:ARG:545:CG:4922, V-A:ARG:545:CD:4923, H-A:ILE:455:N:4055, V-A:LEU:475:CD1:4258, V-A:PRO:482:CB:4326, V-A:SER:385:CB:3409, H-B:GLU:543:OE2:9882, V-A:LEU:475:CG:4257, H-A:GLU:543:OE1:4909, V-A:PRO:482:CG:4327, V-A:ILE:369:CG1:3238, V-A:ILE:455:C:4052"]

$$$$
3ck_Grossjean_2025
     RDKit          3D

 30 31  0  0  0  0  0  0  0  0999 V2000
  132.8490  131.1400   61.5760 C   0  0  0  0  0  0  0  0  0  0  0  0
  131.6200  131.8470   61.6450 O   0  0  0  0  0  0  0  0  0  0  0  0
  130.5650  131.2180   60.9310 C   0  0  0  0  0  0  0  0  0  0  0  0
  131.1480  130.2100   59.9330 C   0  0  0  0  0  0  0  0  0  0  0  0
  130.0970  129.4150   59.3980 O   0  0  0  0  0  0  0  0  0  0  0  0
  129.5920  128.4430   60.3030 C   0  0  0  0  0  0  0  0  0  0  0  0
  130.6520  127.3560   60.5150 C   0  0  0  0  0  0  0  0  0  0  0  0
  130.0750  126.3100   61.2820 O   0  0  0  0  0  0  0  0  0  0  0  0
  129.9270  126.5970   62.6650 C   0  0  0  0  0  0  0  0  0  0  0  0
  131.0020  125.8380   63.4660 C   0  0  0  0  0  0  0  0  0  0  0  0
  132.0770  125.2870   62.6370 N   0  0  0  0  0  0  0  0  0  0  0  0
  133.3100  124.9600   63.0660 C   0  0  0  0  0  0  0  0  0  0  0  0
  133.6670  125.0680   64.2400 O   0  0  0  0  0  0  0  0  0  0  0  0
  134.2660  124.4270   61.9870 C   0  0  0  0  0  0  0  0  0  0  0  0
  133.5990  123.0840   60.9430 S   0  0  0  0  0  0  0  0  0  0  0  0
  132.3360  123.7500   59.8700 C   0  0  0  0  0  0  0  0  0  0  0  0
  132.7830  124.5220   58.8470 N   0  0  0  0  0  0  0  0  0  0  0  0
  131.8820  125.0620   57.9970 C   0  0  0  0  0  0  0  0  0  0  0  0
  132.4560  125.9140   56.8820 C   0  0  0  0  0  0  0  0  0  0  0  0
  130.5100  124.8600   58.1300 C   0  0  0  0  0  0  0  0  0  0  0  0
  130.0250  124.0710   59.1820 C   0  0  0  0  0  0  0  0  0  0  0  0
  128.5460  123.9010   59.2980 C   0  0  0  0  0  0  0  0  0  0  0  0
  127.8170  123.3400   58.2420 C   0  0  0  0  0  0  0  0  0  0  0  0
  126.4360  123.1870   58.3400 C   0  0  0  0  0  0  0  0  0  0  0  0
  125.7770  123.6000   59.4940 C   0  0  0  0  0  0  0  0  0  0  0  0
  126.4870  124.1680   60.5500 C   0  0  0  0  0  0  0  0  0  0  0  0
  127.8670  124.3190   60.4490 C   0  0  0  0  0  0  0  0  0  0  0  0
  130.9610  123.4880   60.0740 C   0  0  0  0  0  0  0  0  0  0  0  0
  130.5130  122.6190   61.1690 C   0  0  0  0  0  0  0  0  0  0  0  0
  130.1600  121.9340   62.0320 N   0  0  0  0  0  0  0  0  0  0  0  0
  1  2  1  0
  2  3  1  0
  3  4  1  0
  4  5  1  0
  5  6  1  0
  6  7  1  0
  7  8  1  0
  8  9  1  0
  9 10  1  0
 10 11  1  0
 11 12  1  0
 12 13  2  0
 12 14  1  0
 14 15  1  0
 15 16  1  0
 16 17  2  0
 17 18  1  0
 18 19  1  0
 18 20  2  0
 20 21  1  0
 21 22  1  0
 22 23  2  0
 23 24  1  0
 24 25  2  0
 25 26  1  0
 26 27  2  0
 21 28  2  0
 28 29  1  0
 29 30  3  0
 28 16  1  0
 27 22  1  0
M  END
>  <Binding energies>  (36) 
[-6.36]

>  <Ligand effiencies>  (36) 
[-0.20516129032258065]

>  <Interactions>  (36) 
["V-A:ASP:366:C:3208, V-A:ASP:366:CA:3210, V-A:GLU:543:CD:4908, H-A:ALA:541:N:4891, V-A:ASP:366:CB:3212, V-B:TYR:539:CZ:9849, V-A:ASN:362:CB:3176, H-A:TYR:484:OH:4348, V-B:TYR:539:CE2:9848, V-A:ILE:369:CD1:3239, V-B:PRO:540:CA:9855, V-A:ARG:545:CZ:4926, H-A:ARG:545:NH2:4928, V-B:TYR:539:C:9839, H-A:ARG:545:NE:4924, H-A:GLY:454:N:4050, V-B:PRO:540:N:9856, V-A:GLY:453:C:4042, V-A:GLY:453:CA:4044, V-B:PRO:540:CB:9857"]

$$$$
4aa_Grossjean_2025
     RDKit          3D

 26 28  0  0  0  0  0  0  0  0999 V2000
  131.4130  117.2020   58.7740 C   0  0  0  0  0  0  0  0  0  0  0  0
  131.3120  117.6310   60.2410 C   0  0  0  0  0  0  0  0  0  0  0  0
  130.9120  118.9940   60.3090 O   0  0  0  0  0  0  0  0  0  0  0  0
  130.0710  119.4300   61.2810 C   0  0  0  0  0  0  0  0  0  0  0  0
  129.4420  118.6730   62.0280 O   0  0  0  0  0  0  0  0  0  0  0  0
  129.9760  120.9260   61.3560 C   0  0  0  0  0  0  0  0  0  0  0  0
  128.7130  121.5310   61.4040 C   0  0  0  0  0  0  0  0  0  0  0  0
  128.5920  122.9160   61.4690 C   0  0  0  0  0  0  0  0  0  0  0  0
  129.7290  123.7250   61.4960 C   0  0  0  0  0  0  0  0  0  0  0  0
  129.4920  125.1120   61.5530 N   0  0  0  0  0  0  0  0  0  0  0  0
  130.3240  126.1510   61.3040 C   0  0  0  0  0  0  0  0  0  0  0  0
  131.5140  126.0300   61.0090 O   0  0  0  0  0  0  0  0  0  0  0  0
  129.7210  127.4790   61.4330 C   0  0  0  0  0  0  0  0  0  0  0  0
  130.3360  128.8330   60.4800 S   0  0  0  0  0  0  0  0  0  0  0  0
  129.1930  129.9320   61.2170 C   0  0  0  0  0  0  0  0  0  0  0  0
  129.1450  131.2240   60.8900 N   0  0  0  0  0  0  0  0  0  0  0  0
  128.2150  131.9670   61.5390 C   0  0  0  0  0  0  0  0  0  0  0  0
  128.1800  133.4360   61.1560 C   0  0  0  0  0  0  0  0  0  0  0  0
  127.3400  131.4540   62.4930 C   0  0  0  0  0  0  0  0  0  0  0  0
  127.3920  130.0970   62.8330 C   0  0  0  0  0  0  0  0  0  0  0  0
  126.4160  129.5830   63.8800 C   0  0  0  0  0  0  0  0  0  0  0  0
  128.3570  129.2860   62.1770 C   0  0  0  0  0  0  0  0  0  0  0  0
  128.6830  127.8890   62.2840 C   0  0  0  0  0  0  0  0  0  0  0  0
  128.0220  127.0470   63.1440 N   0  0  0  0  0  0  0  0  0  0  0  0
  130.9980  123.1300   61.4430 C   0  0  0  0  0  0  0  0  0  0  0  0
  131.1170  121.7440   61.3740 C   0  0  0  0  0  0  0  0  0  0  0  0
  1  2  1  0
  2  3  1  0
  3  4  1  0
  4  5  2  0
  4  6  1  0
  6  7  2  0
  7  8  1  0
  8  9  2  0
  9 10  1  0
 10 11  1  0
 11 12  2  0
 11 13  1  0
 13 14  1  0
 14 15  1  0
 15 16  2  0
 16 17  1  0
 17 18  1  0
 17 19  2  0
 19 20  1  0
 20 21  1  0
 20 22  2  0
 22 23  1  0
 23 24  1  0
  9 25  1  0
 25 26  2  0
 26  6  1  0
 23 13  2  0
 22 15  1  0
M  END
>  <Binding energies>  (37) 
[-5.64]

>  <Ligand effiencies>  (37) 
[-0.19448275862068964]

>  <Interactions>  (37) 
["V-A:LEU:475:CD2:4259, V-A:GLU:543:CD:4908, V-B:GLU:543:CD:9880, V-B:TYR:539:CD2:9846, V-B:PRO:540:CA:9855, V-B:ALA:541:CB:9864, H-A:ARG:545:NH2:4928, V-B:TYR:539:C:9839, V-B:TYR:539:CG:9844, V-B:PRO:540:C:9853, V-A:ALA:541:CB:4892, V-A:LEU:475:CD1:4258, V-A:SER:385:CB:3409, H-B:GLU:543:OE2:9882, V-B:TYR:539:CB:9843, H-B:GLU:543:OE1:9881, V-A:LEU:373:CD1:3280"]

$$$$
4ab_Grossjean_2025
     RDKit          3D

 25 27  0  0  0  0  0  0  0  0999 V2000
  130.8920  127.5480   72.7540 C   0  0  0  0  0  0  0  0  0  0  0  0
  129.5010  127.5120   72.4680 O   0  0  0  0  0  0  0  0  0  0  0  0
  128.9730  126.5360   71.6870 C   0  0  0  0  0  0  0  0  0  0  0  0
  128.7530  125.3880   72.0870 O   0  0  0  0  0  0  0  0  0  0  0  0
  128.6880  126.9890   70.2830 C   0  0  0  0  0  0  0  0  0  0  0  0
  129.5420  127.9210   69.6800 C   0  0  0  0  0  0  0  0  0  0  0  0
  129.3040  128.3620   68.3810 C   0  0  0  0  0  0  0  0  0  0  0  0
  128.2160  127.8750   67.6570 C   0  0  0  0  0  0  0  0  0  0  0  0
  128.0670  128.3930   66.3570 N   0  0  0  0  0  0  0  0  0  0  0  0
  128.1580  129.6700   65.9100 C   0  0  0  0  0  0  0  0  0  0  0  0
  128.3610  130.6450   66.6340 O   0  0  0  0  0  0  0  0  0  0  0  0
  127.9710  129.8410   64.4680 C   0  0  0  0  0  0  0  0  0  0  0  0
  128.4700  131.3380   63.6760 S   0  0  0  0  0  0  0  0  0  0  0  0
  127.8960  130.7660   62.1260 C   0  0  0  0  0  0  0  0  0  0  0  0
  127.9940  131.5050   61.0210 N   0  0  0  0  0  0  0  0  0  0  0  0
  127.5090  130.9460   59.8850 C   0  0  0  0  0  0  0  0  0  0  0  0
  127.6250  131.8050   58.6400 C   0  0  0  0  0  0  0  0  0  0  0  0
  126.9380  129.6760   59.8300 C   0  0  0  0  0  0  0  0  0  0  0  0
  126.8370  128.9030   60.9920 C   0  0  0  0  0  0  0  0  0  0  0  0
  126.2040  127.5240   60.8810 C   0  0  0  0  0  0  0  0  0  0  0  0
  127.3310  129.4580   62.2040 C   0  0  0  0  0  0  0  0  0  0  0  0
  127.3800  128.9570   63.5510 C   0  0  0  0  0  0  0  0  0  0  0  0
  126.8920  127.7200   63.8900 N   0  0  0  0  0  0  0  0  0  0  0  0
  127.3530  126.9440   68.2540 C   0  0  0  0  0  0  0  0  0  0  0  0
  127.5910  126.5070   69.5550 C   0  0  0  0  0  0  0  0  0  0  0  0
  1  2  1  0
  2  3  1  0
  3  4  2  0
  3  5  1  0
  5  6  2  0
  6  7  1  0
  7  8  2  0
  8  9  1  0
  9 10  1  0
 10 11  2  0
 10 12  1  0
 12 13  1  0
 13 14  1  0
 14 15  2  0
 15 16  1  0
 16 17  1  0
 16 18  2  0
 18 19  1  0
 19 20  1  0
 19 21  2  0
 21 22  1  0
 22 23  1  0
  8 24  1  0
 24 25  2  0
 25  5  1  0
 22 12  2  0
 21 14  1  0
M  END
>  <Binding energies>  (38) 
[-5.48]

>  <Ligand effiencies>  (38) 
[-0.19571428571428573]

>  <Interactions>  (38) 
["V-A:GLU:543:CG:4907, V-A:GLU:543:CD:4908, V-B:GLU:543:CD:9880, V-B:TYR:484:CZ:9319, V-A:GLU:543:CB:4906, H-B:TYR:484:OH:9320, V-B:HIS:456:CE1:9042, V-B:ASP:366:CG:8185, V-A:HIS:456:CE1:4070, V-A:TYR:539:CD1:4873, V-A:TYR:539:CE1:4875, V-A:ALA:541:CB:4892, H-B:GLU:543:OE2:9882, H-B:GLU:543:OE1:9881, V-B:GLU:543:CB:9878, V-B:GLU:543:C:9874, V-A:HIS:456:CD2:4068, H-B:LYS:547:NZ:9923, V-B:HIS:456:CD2:9040, V-A:GLY:544:C:4912, V-B:ARG:545:CZ:9898, V-A:GLU:543:C:4902, V-B:TYR:484:CE2:9318, V-A:HIS:456:CG:4066"]

$$$$
4ac_Grossjean_2025
     RDKit          3D

 23 25  0  0  0  0  0  0  0  0999 V2000
  130.2130  127.5030   72.8040 C   0  0  0  0  0  0  0  0  0  0  0  0
  129.2620  126.7780   72.0310 O   0  0  0  0  0  0  0  0  0  0  0  0
  129.0570  127.1300   70.7120 C   0  0  0  0  0  0  0  0  0  0  0  0
  129.9020  128.1090   70.1900 C   0  0  0  0  0  0  0  0  0  0  0  0
  129.7700  128.5290   68.8690 C   0  0  0  0  0  0  0  0  0  0  0  0
  128.7940  127.9650   68.0470 C   0  0  0  0  0  0  0  0  0  0  0  0
  128.7270  128.4600   66.7310 N   0  0  0  0  0  0  0  0  0  0  0  0
  127.6670  128.9700   66.0600 C   0  0  0  0  0  0  0  0  0  0  0  0
  126.5280  129.0470   66.5270 O   0  0  0  0  0  0  0  0  0  0  0  0
  127.9490  129.4350   64.7000 C   0  0  0  0  0  0  0  0  0  0  0  0
  128.3530  131.1260   64.4010 S   0  0  0  0  0  0  0  0  0  0  0  0
  128.5150  130.8340   62.6840 C   0  0  0  0  0  0  0  0  0  0  0  0
  128.8370  131.8050   61.8300 N   0  0  0  0  0  0  0  0  0  0  0  0
  128.9290  131.4450   60.5270 C   0  0  0  0  0  0  0  0  0  0  0  0
  129.2980  132.5650   59.5710 C   0  0  0  0  0  0  0  0  0  0  0  0
  128.7060  130.1500   60.0620 C   0  0  0  0  0  0  0  0  0  0  0  0
  128.3670  129.1330   60.9620 C   0  0  0  0  0  0  0  0  0  0  0  0
  128.1340  127.7360   60.4070 C   0  0  0  0  0  0  0  0  0  0  0  0
  128.2640  129.4720   62.3380 C   0  0  0  0  0  0  0  0  0  0  0  0
  127.9460  128.6960   63.5060 C   0  0  0  0  0  0  0  0  0  0  0  0
  127.6650  127.3550   63.4390 N   0  0  0  0  0  0  0  0  0  0  0  0
  127.9320  126.9890   68.5670 C   0  0  0  0  0  0  0  0  0  0  0  0
  128.0660  126.5720   69.8890 C   0  0  0  0  0  0  0  0  0  0  0  0
  1  2  1  0
  2  3  1  0
  3  4  2  0
  4  5  1  0
  5  6  2  0
  6  7  1  0
  7  8  1  0
  8  9  2  0
  8 10  1  0
 10 11  1  0
 11 12  1  0
 12 13  2  0
 13 14  1  0
 14 15  1  0
 14 16  2  0
 16 17  1  0
 17 18  1  0
 17 19  2  0
 19 20  1  0
 20 21  1  0
  6 22  1  0
 22 23  2  0
 23  3  1  0
 20 10  2  0
 19 12  1  0
M  END
>  <Binding energies>  (39) 
[-5.17]

>  <Ligand effiencies>  (39) 
[-0.19884615384615384]

>  <Interactions>  (39) 
["V-A:GLU:543:CG:4907, V-A:GLU:543:CD:4908, V-B:GLU:543:CD:9880, V-B:TYR:484:CZ:9319, V-A:GLU:543:CB:4906, V-A:PRO:540:CA:4883, H-B:TYR:484:OH:9320, V-B:HIS:456:CE1:9042, H-A:GLU:543:OE2:4910, V-A:PRO:540:N:4884, V-A:HIS:456:CE1:4070, V-A:TYR:539:C:4867, V-A:PRO:540:C:4881, H-B:GLU:543:OE2:9882, H-B:GLU:543:OE1:9881, H-A:GLU:543:OE1:4909, V-B:GLU:543:CB:9878, V-B:GLU:543:C:9874, V-A:HIS:456:CD2:4068, H-B:LYS:547:NZ:9923, V-B:HIS:456:CD2:9040, V-A:GLU:543:C:4902, V-B:TYR:484:CE2:9318, V-A:GLU:543:CA:4904"]

$$$$
4ad_Grossjean_2025
     RDKit          3D

 21 23  0  0  0  0  0  0  0  0999 V2000
  133.4070  121.0880   60.8480 C   0  0  0  0  0  0  0  0  0  0  0  0
  132.9830  122.5450   60.8330 C   0  0  0  0  0  0  0  0  0  0  0  0
  132.9950  123.3080   61.9980 C   0  0  0  0  0  0  0  0  0  0  0  0
  132.5970  124.6500   61.9600 C   0  0  0  0  0  0  0  0  0  0  0  0
  132.6250  125.4420   63.2580 C   0  0  0  0  0  0  0  0  0  0  0  0
  132.1890  125.1860   60.7090 C   0  0  0  0  0  0  0  0  0  0  0  0
  131.7310  126.4910   60.3150 C   0  0  0  0  0  0  0  0  0  0  0  0
  131.6170  127.5260   61.2090 N   0  0  0  0  0  0  0  0  0  0  0  0
  131.4180  126.5990   58.9510 C   0  0  0  0  0  0  0  0  0  0  0  0
  130.9140  127.7640   58.2210 C   0  0  0  0  0  0  0  0  0  0  0  0
  129.8650  127.6950   57.5770 O   0  0  0  0  0  0  0  0  0  0  0  0
  131.6700  128.8850   58.3220 N   0  0  0  0  0  0  0  0  0  0  0  0
  131.4890  130.1440   57.7180 C   0  0  0  0  0  0  0  0  0  0  0  0
  132.6010  130.6650   57.0490 C   0  0  0  0  0  0  0  0  0  0  0  0
  132.5200  131.9000   56.4100 C   0  0  0  0  0  0  0  0  0  0  0  0
  131.3240  132.6110   56.4320 C   0  0  0  0  0  0  0  0  0  0  0  0
  130.2050  132.0960   57.0820 C   0  0  0  0  0  0  0  0  0  0  0  0
  130.2830  130.8620   57.7230 C   0  0  0  0  0  0  0  0  0  0  0  0
  131.6930  125.0710   58.1120 S   0  0  0  0  0  0  0  0  0  0  0  0
  132.2200  124.2990   59.5900 C   0  0  0  0  0  0  0  0  0  0  0  0
  132.6000  123.0210   59.6230 N   0  0  0  0  0  0  0  0  0  0  0  0
  1  2  1  0
  2  3  2  0
  3  4  1  0
  4  5  1  0
  4  6  2  0
  6  7  1  0
  7  8  1  0
  7  9  2  0
  9 10  1  0
 10 11  2  0
 10 12  1  0
 12 13  1  0
 13 14  2  0
 14 15  1  0
 15 16  2  0
 16 17  1  0
 17 18  2  0
  9 19  1  0
 19 20  1  0
 20 21  2  0
 21  2  1  0
 20  6  1  0
 18 13  1  0
M  END
>  <Binding energies>  (40) 
[-6.44]

>  <Ligand effiencies>  (40) 
[-0.26833333333333337]

>  <Interactions>  (40) 
["H-A:ASP:366:OD1:3214, V-A:LEU:475:CD2:4259, V-A:GLU:543:CD:4908, V-A:ASP:366:CB:3212, V-B:TYR:539:CZ:9849, V-A:ILE:369:CG2:3237, V-A:PRO:540:CA:4883, V-A:PRO:540:CB:4885, V-A:GLY:454:CA:4049, V-B:TYR:539:CE2:9848, H-A:GLU:543:OE2:4910, V-A:LEU:363:CD1:3189, V-A:ARG:545:CZ:4926, V-A:ASP:366:CG:3213, V-A:PRO:540:N:4884, V-A:TYR:539:C:4867, V-A:SER:385:CB:3409, H-A:GLU:543:OE1:4909, H-A:ASP:366:OD2:3215, V-A:PRO:540:CD:4887, V-A:SER:385:C:3405"]

$$$$
4ae_Grossjean_2025
     RDKit          3D

 22 24  0  0  0  0  0  0  0  0999 V2000
  128.7180  132.5870   57.1510 C   0  0  0  0  0  0  0  0  0  0  0  0
  130.0990  131.9630   57.0880 C   0  0  0  0  0  0  0  0  0  0  0  0
  131.1570  132.5960   56.4310 C   0  0  0  0  0  0  0  0  0  0  0  0
  132.3990  131.9590   56.4070 C   0  0  0  0  0  0  0  0  0  0  0  0
  132.5500  130.7190   57.0310 C   0  0  0  0  0  0  0  0  0  0  0  0
  131.4500  130.1450   57.6780 C   0  0  0  0  0  0  0  0  0  0  0  0
  131.6580  128.8870   58.2700 N   0  0  0  0  0  0  0  0  0  0  0  0
  130.8660  127.7870   58.2250 C   0  0  0  0  0  0  0  0  0  0  0  0
  129.7880  127.7410   57.6300 O   0  0  0  0  0  0  0  0  0  0  0  0
  131.3730  126.6190   58.9500 C   0  0  0  0  0  0  0  0  0  0  0  0
  131.6010  125.0820   58.1140 S   0  0  0  0  0  0  0  0  0  0  0  0
  132.1370  124.3060   59.5860 C   0  0  0  0  0  0  0  0  0  0  0  0
  132.4860  123.0200   59.6190 N   0  0  0  0  0  0  0  0  0  0  0  0
  132.8780  122.5400   60.8230 C   0  0  0  0  0  0  0  0  0  0  0  0
  133.2640  121.0720   60.8400 C   0  0  0  0  0  0  0  0  0  0  0  0
  132.9310  123.3090   61.9850 C   0  0  0  0  0  0  0  0  0  0  0  0
  132.5650  124.6590   61.9460 C   0  0  0  0  0  0  0  0  0  0  0  0
  132.6360  125.4560   63.2400 C   0  0  0  0  0  0  0  0  0  0  0  0
  132.1460  125.1980   60.7000 C   0  0  0  0  0  0  0  0  0  0  0  0
  131.7080  126.5120   60.3100 C   0  0  0  0  0  0  0  0  0  0  0  0
  131.6290  127.5530   61.1990 N   0  0  0  0  0  0  0  0  0  0  0  0
  130.2310  130.7590   57.7000 N   0  0  0  0  0  0  0  0  0  0  0  0
  1  2  1  0
  2  3  2  0
  3  4  1  0
  4  5  2  0
  5  6  1  0
  6  7  1  0
  7  8  1  0
  8  9  2  0
  8 10  1  0
 10 11  1  0
 11 12  1  0
 12 13  2  0
 13 14  1  0
 14 15  1  0
 14 16  2  0
 16 17  1  0
 17 18  1  0
 17 19  2  0
 19 20  1  0
 20 21  1  0
  6 22  2  0
 22  2  1  0
 20 10  2  0
 19 12  1  0
M  END
>  <Binding energies>  (41) 
[-6.6]

>  <Ligand effiencies>  (41) 
[-0.264]

>  <Interactions>  (41) 
["H-A:ASP:366:OD1:3214, V-A:LEU:475:CD2:4259, V-A:GLU:543:CD:4908, V-A:ASP:366:CB:3212, V-B:TYR:539:CZ:9849, V-A:ILE:369:CG2:3237, V-A:PRO:540:CA:4883, V-A:PRO:540:CB:4885, V-A:GLY:454:CA:4049, V-B:TYR:539:CE2:9848, H-A:GLU:543:OE2:4910, V-A:LEU:363:CD1:3189, V-A:ARG:545:CZ:4926, V-A:ASP:366:CG:3213, V-A:PRO:540:N:4884, V-A:TYR:539:C:4867, V-A:TYR:539:CD1:4873, V-A:TYR:539:CG:4872, V-A:TYR:539:CE1:4875, V-A:SER:385:CB:3409, H-A:GLU:543:OE1:4909, H-A:ASP:366:OD2:3215, V-A:PRO:540:CD:4887"]

$$$$
4af_Grossjean_2025
     RDKit          3D

 21 23  0  0  0  0  0  0  0  0999 V2000
  133.2140  121.0920   60.8690 C   0  0  0  0  0  0  0  0  0  0  0  0
  132.8230  122.5580   60.8410 C   0  0  0  0  0  0  0  0  0  0  0  0
  132.8550  123.3310   62.0000 C   0  0  0  0  0  0  0  0  0  0  0  0
  132.4870  124.6810   61.9520 C   0  0  0  0  0  0  0  0  0  0  0  0
  132.5370  125.4830   63.2430 C   0  0  0  0  0  0  0  0  0  0  0  0
  132.0870  125.2150   60.6970 C   0  0  0  0  0  0  0  0  0  0  0  0
  131.6540  126.5260   60.2950 C   0  0  0  0  0  0  0  0  0  0  0  0
  131.5590  127.5690   61.1820 N   0  0  0  0  0  0  0  0  0  0  0  0
  131.3450  126.6310   58.9300 C   0  0  0  0  0  0  0  0  0  0  0  0
  130.8500  127.7970   58.1940 C   0  0  0  0  0  0  0  0  0  0  0  0
  129.7930  127.7390   57.5650 O   0  0  0  0  0  0  0  0  0  0  0  0
  131.6230  128.9070   58.2800 N   0  0  0  0  0  0  0  0  0  0  0  0
  131.4590  130.1620   57.6630 C   0  0  0  0  0  0  0  0  0  0  0  0
  132.4590  130.8640   56.9650 C   0  0  0  0  0  0  0  0  0  0  0  0
  132.1680  132.1130   56.4140 C   0  0  0  0  0  0  0  0  0  0  0  0
  130.8830  132.6340   56.5760 C   0  0  0  0  0  0  0  0  0  0  0  0
  129.9050  131.9800   57.2510 N   0  0  0  0  0  0  0  0  0  0  0  0
  130.2020  130.7670   57.7820 C   0  0  0  0  0  0  0  0  0  0  0  0
  131.5830  125.0900   58.1020 S   0  0  0  0  0  0  0  0  0  0  0  0
  132.0970  124.3190   59.5860 C   0  0  0  0  0  0  0  0  0  0  0  0
  132.4480  123.0330   59.6280 N   0  0  0  0  0  0  0  0  0  0  0  0
  1  2  1  0
  2  3  2  0
  3  4  1  0
  4  5  1  0
  4  6  2  0
  6  7  1  0
  7  8  1  0
  7  9  2  0
  9 10  1  0
 10 11  2  0
 10 12  1  0
 12 13  1  0
 13 14  2  0
 14 15  1  0
 15 16  2  0
 16 17  1  0
 17 18  2  0
  9 19  1  0
 19 20  1  0
 20 21  2  0
 21  2  1  0
 20  6  1  0
 18 13  1  0
M  END
>  <Binding energies>  (42) 
[-6.03]

>  <Ligand effiencies>  (42) 
[-0.25125000000000003]

>  <Interactions>  (42) 
["H-A:ASP:366:OD1:3214, V-A:LEU:475:CD2:4259, V-A:GLU:543:CD:4908, V-A:ASP:366:CB:3212, V-B:TYR:539:CZ:9849, V-A:ILE:369:CG2:3237, V-A:PRO:540:CA:4883, V-A:PRO:540:CB:4885, V-B:TYR:539:CE2:9848, H-A:GLU:543:OE2:4910, V-A:LEU:363:CD1:3189, V-A:ARG:545:CZ:4926, V-A:ASP:366:CG:3213, V-A:PRO:540:N:4884, V-A:TYR:539:C:4867, H-A:GLU:543:OE1:4909, H-A:ASP:366:OD2:3215, V-A:PRO:540:CD:4887"]

$$$$
4ag_Grossjean_2025
     RDKit          3D

 22 24  0  0  0  0  0  0  0  0999 V2000
  133.5520  121.3830   60.7930 C   0  0  0  0  0  0  0  0  0  0  0  0
  133.0520  122.8160   60.8000 C   0  0  0  0  0  0  0  0  0  0  0  0
  132.8470  123.4970   61.9990 C   0  0  0  0  0  0  0  0  0  0  0  0
  132.3870  124.8180   61.9830 C   0  0  0  0  0  0  0  0  0  0  0  0
  132.1790  125.5200   63.3170 C   0  0  0  0  0  0  0  0  0  0  0  0
  132.1430  125.4210   60.7200 C   0  0  0  0  0  0  0  0  0  0  0  0
  131.6780  126.7280   60.3430 C   0  0  0  0  0  0  0  0  0  0  0  0
  131.3690  127.6920   61.2700 N   0  0  0  0  0  0  0  0  0  0  0  0
  131.5700  126.9160   58.9580 C   0  0  0  0  0  0  0  0  0  0  0  0
  131.1440  128.1140   58.2340 C   0  0  0  0  0  0  0  0  0  0  0  0
  130.2960  128.0560   57.3400 O   0  0  0  0  0  0  0  0  0  0  0  0
  131.7450  129.2690   58.5900 N   0  0  0  0  0  0  0  0  0  0  0  0
  131.4560  130.5840   58.0210 C   0  0  0  0  0  0  0  0  0  0  0  0
  130.3980  131.3710   58.7850 C   0  0  0  0  0  0  0  0  0  0  0  0
  129.2880  131.8830   58.1070 C   0  0  0  0  0  0  0  0  0  0  0  0
  128.3060  132.5810   58.8070 C   0  0  0  0  0  0  0  0  0  0  0  0
  128.4320  132.7540   60.1840 C   0  0  0  0  0  0  0  0  0  0  0  0
  129.5280  132.2330   60.8680 C   0  0  0  0  0  0  0  0  0  0  0  0
  130.5090  131.5350   60.1690 C   0  0  0  0  0  0  0  0  0  0  0  0
  132.0580  125.4690   58.0750 S   0  0  0  0  0  0  0  0  0  0  0  0
  132.3930  124.6180   59.5670 C   0  0  0  0  0  0  0  0  0  0  0  0
  132.8330  123.3580   59.5780 N   0  0  0  0  0  0  0  0  0  0  0  0
  1  2  1  0
  2  3  2  0
  3  4  1  0
  4  5  1  0
  4  6  2  0
  6  7  1  0
  7  8  1  0
  7  9  2  0
  9 10  1  0
 10 11  2  0
 10 12  1  0
 12 13  1  0
 13 14  1  0
 14 15  2  0
 15 16  1  0
 16 17  2  0
 17 18  1  0
 18 19  2  0
  9 20  1  0
 20 21  1  0
 21 22  2  0
 22  2  1  0
 21  6  1  0
 19 14  1  0
M  END
>  <Binding energies>  (43) 
[-6.15]

>  <Ligand effiencies>  (43) 
[-0.24600000000000002]

>  <Interactions>  (43) 
["H-A:ASP:366:OD1:3214, V-A:LEU:475:CD2:4259, V-A:GLU:543:CD:4908, V-A:ASP:366:CB:3212, V-A:ILE:369:CG2:3237, V-A:PRO:540:CA:4883, V-A:ILE:369:CD1:3239, H-A:GLU:543:OE2:4910, V-A:ARG:545:CZ:4926, V-A:ASP:366:CG:3213, V-A:TYR:539:C:4867, V-A:TYR:539:CD1:4873, V-A:PRO:540:C:4881, V-A:TYR:539:CE1:4875, V-A:ALA:541:CB:4892, H-A:GLU:543:OE1:4909, V-A:SER:385:C:3405"]

$$$$
4ah_Grossjean_2025
     RDKit          3D

 28 30  0  0  0  0  0  0  0  0999 V2000
  132.8750  131.2300   61.7150 C   0  0  0  0  0  0  0  0  0  0  0  0
  131.6610  131.8320   61.2810 O   0  0  0  0  0  0  0  0  0  0  0  0
  131.0790  131.4130   60.0970 C   0  0  0  0  0  0  0  0  0  0  0  0
  131.5820  130.3710   59.3040 C   0  0  0  0  0  0  0  0  0  0  0  0
  130.9440  130.0020   58.1190 C   0  0  0  0  0  0  0  0  0  0  0  0
  131.4780  128.8370   57.2940 C   0  0  0  0  0  0  0  0  0  0  0  0
  131.3460  127.5400   57.9580 N   0  0  0  0  0  0  0  0  0  0  0  0
  131.8690  126.3780   57.5150 C   0  0  0  0  0  0  0  0  0  0  0  0
  132.4930  126.2910   56.4560 O   0  0  0  0  0  0  0  0  0  0  0  0
  131.6160  125.2020   58.3470 C   0  0  0  0  0  0  0  0  0  0  0  0
  129.9630  124.6470   58.6170 S   0  0  0  0  0  0  0  0  0  0  0  0
  130.5200  123.3540   59.6550 C   0  0  0  0  0  0  0  0  0  0  0  0
  129.6770  122.4940   60.2260 N   0  0  0  0  0  0  0  0  0  0  0  0
  130.2370  121.5380   61.0060 C   0  0  0  0  0  0  0  0  0  0  0  0
  129.2590  120.5720   61.6480 C   0  0  0  0  0  0  0  0  0  0  0  0
  131.6080  121.4230   61.2250 C   0  0  0  0  0  0  0  0  0  0  0  0
  132.4920  122.3280   60.6270 C   0  0  0  0  0  0  0  0  0  0  0  0
  133.9790  122.1620   60.8970 C   0  0  0  0  0  0  0  0  0  0  0  0
  131.9400  123.3470   59.8030 C   0  0  0  0  0  0  0  0  0  0  0  0
  132.5390  124.4200   59.0550 C   0  0  0  0  0  0  0  0  0  0  0  0
  133.8940  124.6370   59.0400 N   0  0  0  0  0  0  0  0  0  0  0  0
  129.7750  130.6600   57.7340 C   0  0  0  0  0  0  0  0  0  0  0  0
  129.2520  131.7100   58.5050 C   0  0  0  0  0  0  0  0  0  0  0  0
  128.1080  132.4150   58.1750 O   0  0  0  0  0  0  0  0  0  0  0  0
  126.8380  131.9070   58.5700 C   0  0  0  0  0  0  0  0  0  0  0  0
  129.9180  132.0810   59.6820 C   0  0  0  0  0  0  0  0  0  0  0  0
  129.4070  133.0950   60.4560 O   0  0  0  0  0  0  0  0  0  0  0  0
  128.5350  132.6520   61.4870 C   0  0  0  0  0  0  0  0  0  0  0  0
  1  2  1  0
  2  3  1  0
  3  4  2  0
  4  5  1  0
  5  6  1  0
  6  7  1  0
  7  8  1  0
  8  9  2  0
  8 10  1  0
 10 11  1  0
 11 12  1  0
 12 13  2  0
 13 14  1  0
 14 15  1  0
 14 16  2  0
 16 17  1  0
 17 18  1  0
 17 19  2  0
 19 20  1  0
 20 21  1  0
  5 22  2  0
 22 23  1  0
 23 24  1  0
 24 25  1  0
 23 26  2  0
 26 27  1  0
 27 28  1  0
 26  3  1  0
 20 10  2  0
 19 12  1  0
M  END
>  <Binding energies>  (44) 
[-5.69]

>  <Ligand effiencies>  (44) 
[-0.1835483870967742]

>  <Interactions>  (44) 
["H-A:TYR:531:OH:4795, V-A:ASP:366:C:3208, V-A:ASP:366:CA:3210, H-A:ASP:366:OD1:3214, V-A:LEU:475:CD2:4259, V-A:GLU:543:CD:4908, H-A:ALA:541:N:4891, H-B:TYR:539:OH:9850, V-A:ASP:366:CB:3212, V-B:TYR:539:CZ:9849, V-A:ILE:369:CG2:3237, V-A:PRO:540:CA:4883, V-A:ILE:369:CB:3236, V-A:PRO:540:CB:4885, V-B:TYR:539:CD2:9846, V-A:ASN:362:CB:3176, V-B:TYR:539:CE2:9848, V-A:ILE:369:CD1:3239, V-B:ALA:541:CB:9864, V-A:ASP:366:CG:3213, V-A:PRO:540:N:4884, V-B:PRO:540:C:9853, V-A:TYR:539:CD1:4873, V-A:PRO:540:C:4881, V-A:TYR:539:CE1:4875, V-A:ALA:541:CB:4892, H-A:ASP:366:OD2:3215, V-A:ILE:369:CG1:3238, H-A:ASP:366:O:3209"]

$$$$
4ai_Grossjean_2025
     RDKit          3D

 20 22  0  0  0  0  0  0  0  0999 V2000
  133.5660  121.4460   60.8250 C   0  0  0  0  0  0  0  0  0  0  0  0
  133.0530  122.8740   60.8150 C   0  0  0  0  0  0  0  0  0  0  0  0
  132.8450  123.5690   62.0050 C   0  0  0  0  0  0  0  0  0  0  0  0
  132.3770  124.8870   61.9730 C   0  0  0  0  0  0  0  0  0  0  0  0
  132.1680  125.6050   63.2980 C   0  0  0  0  0  0  0  0  0  0  0  0
  132.1280  125.4720   60.7020 C   0  0  0  0  0  0  0  0  0  0  0  0
  131.6550  126.7720   60.3090 C   0  0  0  0  0  0  0  0  0  0  0  0
  131.3350  127.7420   61.2250 N   0  0  0  0  0  0  0  0  0  0  0  0
  131.5620  126.9490   58.9190 C   0  0  0  0  0  0  0  0  0  0  0  0
  131.1130  128.1310   58.1800 C   0  0  0  0  0  0  0  0  0  0  0  0
  130.0040  128.1530   57.6430 O   0  0  0  0  0  0  0  0  0  0  0  0
  131.9880  129.1670   58.1540 N   0  0  0  0  0  0  0  0  0  0  0  0
  131.8170  130.4010   57.5390 C   0  0  0  0  0  0  0  0  0  0  0  0
  132.8410  131.0630   56.8620 C   0  0  0  0  0  0  0  0  0  0  0  0
  132.2740  132.2330   56.4100 C   0  0  0  0  0  0  0  0  0  0  0  0
  130.9760  132.2730   56.7940 O   0  0  0  0  0  0  0  0  0  0  0  0
  130.6980  131.1060   57.5080 N   0  0  0  0  0  0  0  0  0  0  0  0
  132.0390  125.4850   58.0570 S   0  0  0  0  0  0  0  0  0  0  0  0
  132.3800  124.6540   59.5590 C   0  0  0  0  0  0  0  0  0  0  0  0
  132.8250  123.3980   59.5860 N   0  0  0  0  0  0  0  0  0  0  0  0
  1  2  1  0
  2  3  2  0
  3  4  1  0
  4  5  1  0
  4  6  2  0
  6  7  1  0
  7  8  1  0
  7  9  2  0
  9 10  1  0
 10 11  2  0
 10 12  1  0
 12 13  1  0
 13 14  1  0
 14 15  2  0
 15 16  1  0
 16 17  1  0
  9 18  1  0
 18 19  1  0
 19 20  2  0
 20  2  1  0
 19  6  1  0
 17 13  2  0
M  END
>  <Binding energies>  (45) 
[-5.79]

>  <Ligand effiencies>  (45) 
[-0.25173913043478263]

>  <Interactions>  (45) 
["H-A:ASP:366:OD1:3214, V-A:LEU:475:CD2:4259, V-A:GLU:543:CD:4908, V-A:ASP:366:CB:3212, V-A:ILE:369:CG2:3237, V-A:PRO:540:CA:4883, V-A:PRO:540:CB:4885, V-A:ILE:369:CD1:3239, H-A:GLU:543:OE2:4910, V-A:LEU:363:CD1:3189, V-A:ARG:545:CZ:4926, V-A:ASP:366:CG:3213, V-A:PRO:540:N:4884, H-A:GLU:543:OE1:4909, H-A:ASP:366:OD2:3215, V-A:PRO:540:CD:4887, V-A:PRO:540:CG:4886"]

$$$$
4aj_Grossjean_2025
     RDKit          3D

 20 22  0  0  0  0  0  0  0  0999 V2000
  133.5840  121.3900   60.8260 C   0  0  0  0  0  0  0  0  0  0  0  0
  133.0760  122.8200   60.8230 C   0  0  0  0  0  0  0  0  0  0  0  0
  132.9220  123.5290   62.0120 C   0  0  0  0  0  0  0  0  0  0  0  0
  132.4470  124.8450   61.9860 C   0  0  0  0  0  0  0  0  0  0  0  0
  132.2950  125.5760   63.3110 C   0  0  0  0  0  0  0  0  0  0  0  0
  132.1370  125.4140   60.7220 C   0  0  0  0  0  0  0  0  0  0  0  0
  131.6380  126.7070   60.3360 C   0  0  0  0  0  0  0  0  0  0  0  0
  131.3570  127.6860   61.2530 N   0  0  0  0  0  0  0  0  0  0  0  0
  131.4760  126.8650   58.9510 C   0  0  0  0  0  0  0  0  0  0  0  0
  130.9850  128.0340   58.2190 C   0  0  0  0  0  0  0  0  0  0  0  0
  129.9160  127.9910   57.6070 O   0  0  0  0  0  0  0  0  0  0  0  0
  131.7750  129.1340   58.2820 N   0  0  0  0  0  0  0  0  0  0  0  0
  131.5360  130.3680   57.6910 C   0  0  0  0  0  0  0  0  0  0  0  0
  130.4350  131.0860   57.7410 N   0  0  0  0  0  0  0  0  0  0  0  0
  130.5600  132.2130   57.0660 C   0  0  0  0  0  0  0  0  0  0  0  0
  131.7890  132.4260   56.4470 C   0  0  0  0  0  0  0  0  0  0  0  0
  132.8290  131.0710   56.7750 S   0  0  0  0  0  0  0  0  0  0  0  0
  131.9270  125.3950   58.0840 S   0  0  0  0  0  0  0  0  0  0  0  0
  132.3410  124.5840   59.5780 C   0  0  0  0  0  0  0  0  0  0  0  0
  132.7930  123.3300   59.5990 N   0  0  0  0  0  0  0  0  0  0  0  0
  1  2  1  0
  2  3  2  0
  3  4  1  0
  4  5  1  0
  4  6  2  0
  6  7  1  0
  7  8  1  0
  7  9  2  0
  9 10  1  0
 10 11  2  0
 10 12  1  0
 12 13  1  0
 13 14  2  0
 14 15  1  0
 15 16  2  0
 16 17  1  0
  9 18  1  0
 18 19  1  0
 19 20  2  0
 20  2  1  0
 19  6  1  0
 17 13  1  0
M  END
>  <Binding energies>  (46) 
[-5.9]

>  <Ligand effiencies>  (46) 
[-0.2565217391304348]

>  <Interactions>  (46) 
["H-A:ASP:366:OD1:3214, V-A:LEU:475:CD2:4259, V-A:GLU:543:CD:4908, V-A:ASP:366:CB:3212, V-A:ILE:369:CG2:3237, V-A:PRO:540:CA:4883, V-A:PRO:540:CB:4885, V-B:TYR:539:CE2:9848, V-A:ILE:369:CD1:3239, V-A:TYR:531:CZ:4794, H-A:GLU:543:OE2:4910, V-A:LEU:363:CD1:3189, V-A:ARG:545:CZ:4926, V-A:ASP:366:CG:3213, V-A:PRO:540:N:4884, V-A:TYR:539:C:4867, H-A:GLU:543:OE1:4909, V-A:PRO:540:CD:4887, V-A:PRO:540:CG:4886, V-A:SER:385:C:3405"]

$$$$
4ak_Grossjean_2025
     RDKit          3D

 25 26  0  0  0  0  0  0  0  0999 V2000
  133.9820  131.5510   60.1380 C   0  0  0  0  0  0  0  0  0  0  0  0
  133.5040  132.1990   61.3060 O   0  0  0  0  0  0  0  0  0  0  0  0
  132.5020  131.4600   61.9940 C   0  0  0  0  0  0  0  0  0  0  0  0
  131.3720  131.1010   61.0200 C   0  0  0  0  0  0  0  0  0  0  0  0
  130.4880  132.2080   60.8960 O   0  0  0  0  0  0  0  0  0  0  0  0
  129.1620  131.9340   61.3260 C   0  0  0  0  0  0  0  0  0  0  0  0
  129.2080  131.1250   62.6290 C   0  0  0  0  0  0  0  0  0  0  0  0
  127.8960  131.0250   63.1660 O   0  0  0  0  0  0  0  0  0  0  0  0
  127.7870  130.1100   64.2490 C   0  0  0  0  0  0  0  0  0  0  0  0
  126.8950  128.9280   63.8290 C   0  0  0  0  0  0  0  0  0  0  0  0
  127.6470  127.7430   63.4170 N   0  0  0  0  0  0  0  0  0  0  0  0
  128.1170  127.5100   62.1750 C   0  0  0  0  0  0  0  0  0  0  0  0
  127.9670  128.3110   61.2510 O   0  0  0  0  0  0  0  0  0  0  0  0
  128.8280  126.2480   61.9830 C   0  0  0  0  0  0  0  0  0  0  0  0
  127.9410  124.7800   61.5720 S   0  0  0  0  0  0  0  0  0  0  0  0
  129.4190  123.8460   61.5200 C   0  0  0  0  0  0  0  0  0  0  0  0
  129.4200  122.5420   61.2410 N   0  0  0  0  0  0  0  0  0  0  0  0
  130.6330  121.9360   61.2350 C   0  0  0  0  0  0  0  0  0  0  0  0
  130.6140  120.4520   60.9150 C   0  0  0  0  0  0  0  0  0  0  0  0
  131.8310  122.5970   61.4970 C   0  0  0  0  0  0  0  0  0  0  0  0
  131.8270  123.9670   61.7880 C   0  0  0  0  0  0  0  0  0  0  0  0
  133.1590  124.6430   62.0710 C   0  0  0  0  0  0  0  0  0  0  0  0
  130.5740  124.6360   61.8050 C   0  0  0  0  0  0  0  0  0  0  0  0
  130.2080  126.0030   62.0600 C   0  0  0  0  0  0  0  0  0  0  0  0
  131.1380  126.9690   62.3530 N   0  0  0  0  0  0  0  0  0  0  0  0
  1  2  1  0
  2  3  1  0
  3  4  1  0
  4  5  1  0
  5  6  1  0
  6  7  1  0
  7  8  1  0
  8  9  1  0
  9 10  1  0
 10 11  1  0
 11 12  1  0
 12 13  2  0
 12 14  1  0
 14 15  1  0
 15 16  1  0
 16 17  2  0
 17 18  1  0
 18 19  1  0
 18 20  2  0
 20 21  1  0
 21 22  1  0
 21 23  2  0
 23 24  1  0
 24 25  1  0
 24 14  2  0
 23 16  1  0
M  END
>  <Binding energies>  (47) 
[-5.23]

>  <Ligand effiencies>  (47) 
[-0.1867857142857143]

>  <Interactions>  (47) 
["V-A:GLU:543:CG:4907, H-A:ASP:366:OD1:3214, V-A:LEU:475:CD2:4259, V-A:GLU:543:CD:4908, H-A:ALA:541:N:4891, V-B:GLU:543:CD:9880, V-A:PRO:540:CA:4883, V-A:PRO:540:CB:4885, V-B:TYR:539:CD2:9846, H-B:TYR:484:OH:9320, V-A:ASN:362:CB:3176, V-A:ASN:362:C:3172, H-A:GLU:543:OE2:4910, V-A:ARG:545:CZ:4926, V-A:LEU:363:CA:3185, V-A:ASP:366:CG:3213, V-A:ALA:541:CB:4892, H-B:GLU:543:OE2:9882, H-B:GLU:543:OE1:9881, H-A:GLU:543:OE1:4909, V-A:ASN:362:CA:3174, V-A:ALA:541:C:4888"]

$$$$
4al_Grossjean_2025
     RDKit          3D

 16 17  0  0  0  0  0  0  0  0999 V2000
  126.3460  123.5530   59.2480 C   0  0  0  0  0  0  0  0  0  0  0  0
  125.5740  123.6420   60.4360 O   0  0  0  0  0  0  0  0  0  0  0  0
  126.0700  123.2100   61.6240 C   0  0  0  0  0  0  0  0  0  0  0  0
  125.3700  122.8490   62.5730 O   0  0  0  0  0  0  0  0  0  0  0  0
  127.5490  123.2150   61.6670 C   0  0  0  0  0  0  0  0  0  0  0  0
  128.4420  121.7090   61.4420 S   0  0  0  0  0  0  0  0  0  0  0  0
  129.9700  122.5400   61.6240 C   0  0  0  0  0  0  0  0  0  0  0  0
  131.1350  121.8970   61.5510 N   0  0  0  0  0  0  0  0  0  0  0  0
  132.2470  122.6580   61.7090 C   0  0  0  0  0  0  0  0  0  0  0  0
  133.5620  121.9060   61.6210 C   0  0  0  0  0  0  0  0  0  0  0  0
  132.2190  124.0320   61.9370 C   0  0  0  0  0  0  0  0  0  0  0  0
  130.9940  124.7040   62.0130 C   0  0  0  0  0  0  0  0  0  0  0  0
  131.0150  126.2040   62.2630 C   0  0  0  0  0  0  0  0  0  0  0  0
  129.8080  123.9390   61.8520 C   0  0  0  0  0  0  0  0  0  0  0  0
  128.4160  124.2950   61.8720 C   0  0  0  0  0  0  0  0  0  0  0  0
  127.9850  125.5810   62.0730 N   0  0  0  0  0  0  0  0  0  0  0  0
  1  2  1  0
  2  3  1  0
  3  4  2  0
  3  5  1  0
  5  6  1  0
  6  7  1  0
  7  8  2  0
  8  9  1  0
  9 10  1  0
  9 11  2  0
 11 12  1  0
 12 13  1  0
 12 14  2  0
 14 15  1  0
 15 16  1  0
 15  5  2  0
 14  7  1  0
M  END
>  <Binding energies>  (48) 
[-4.86]

>  <Ligand effiencies>  (48) 
[-0.27]

>  <Interactions>  (48) 
["V-A:LEU:475:CD2:4259, V-A:GLU:543:CD:4908, V-B:GLU:543:CD:9880, V-A:GLY:454:CA:4049, H-A:TYR:484:OH:4348, V-A:ILE:369:CD1:3239, V-B:PRO:540:CA:9855, V-B:ALA:541:CB:9864, H-B:ALA:541:N:9863, V-B:PRO:540:C:9853, V-B:PRO:540:N:9856, H-B:GLU:543:OE2:9882, H-B:GLU:543:OE1:9881, V-B:PRO:540:CB:9857"]

$$$$
4bc_Grossjean_2025
     RDKit          3D

 26 28  0  0  0  0  0  0  0  0999 V2000
  129.5230  126.9760   72.8150 C   0  0  0  0  0  0  0  0  0  0  0  0
  128.7720  126.3980   71.7530 O   0  0  0  0  0  0  0  0  0  0  0  0
  128.8340  126.9680   70.4960 C   0  0  0  0  0  0  0  0  0  0  0  0
  127.8930  126.5280   69.5660 C   0  0  0  0  0  0  0  0  0  0  0  0
  127.8780  127.0450   68.2730 C   0  0  0  0  0  0  0  0  0  0  0  0
  128.8040  128.0200   67.8950 C   0  0  0  0  0  0  0  0  0  0  0  0
  128.7220  128.4710   66.5650 N   0  0  0  0  0  0  0  0  0  0  0  0
  127.7460  129.1940   65.9640 C   0  0  0  0  0  0  0  0  0  0  0  0
  126.7090  129.5510   66.5250 O   0  0  0  0  0  0  0  0  0  0  0  0
  127.9910  129.5360   64.5590 C   0  0  0  0  0  0  0  0  0  0  0  0
  128.3690  131.1950   64.1030 S   0  0  0  0  0  0  0  0  0  0  0  0
  128.4940  130.7520   62.4170 C   0  0  0  0  0  0  0  0  0  0  0  0
  128.7890  131.6540   61.4810 N   0  0  0  0  0  0  0  0  0  0  0  0
  128.8560  131.1920   60.2110 C   0  0  0  0  0  0  0  0  0  0  0  0
  129.1980  132.2340   59.1620 C   0  0  0  0  0  0  0  0  0  0  0  0
  128.6380  129.8620   59.8580 C   0  0  0  0  0  0  0  0  0  0  0  0
  128.3270  128.9090   60.8400 C   0  0  0  0  0  0  0  0  0  0  0  0
  128.0920  127.4580   60.4020 C   0  0  0  0  0  0  0  0  0  0  0  0
  128.1850  127.2910   59.0810 F   0  0  0  0  0  0  0  0  0  0  0  0
  128.9990  126.6650   60.9710 F   0  0  0  0  0  0  0  0  0  0  0  0
  126.8720  127.0670   60.7690 F   0  0  0  0  0  0  0  0  0  0  0  0
  128.2500  129.3630   62.1900 C   0  0  0  0  0  0  0  0  0  0  0  0
  127.9670  128.6930   63.4370 C   0  0  0  0  0  0  0  0  0  0  0  0
  127.6990  127.3500   63.5110 N   0  0  0  0  0  0  0  0  0  0  0  0
  129.7620  128.4580   68.8210 C   0  0  0  0  0  0  0  0  0  0  0  0
  129.7740  127.9380   70.1120 C   0  0  0  0  0  0  0  0  0  0  0  0
  1  2  1  0
  2  3  1  0
  3  4  2  0
  4  5  1  0
  5  6  2  0
  6  7  1  0
  7  8  1  0
  8  9  2  0
  8 10  1  0
 10 11  1  0
 11 12  1  0
 12 13  2  0
 13 14  1  0
 14 15  1  0
 14 16  2  0
 16 17  1  0
 17 18  1  0
 18 19  1  0
 18 20  1  0
 18 21  1  0
 17 22  2  0
 22 23  1  0
 23 24  1  0
  6 25  1  0
 25 26  2  0
 26  3  1  0
 23 10  2  0
 22 12  1  0
M  END
>  <Binding energies>  (49) 
[-4.57]

>  <Ligand effiencies>  (49) 
[-0.15758620689655173]

>  <Interactions>  (49) 
["V-A:GLU:543:CG:4907, V-A:GLU:543:CD:4908, V-B:GLU:543:CD:9880, V-B:TYR:484:CZ:9319, V-A:GLU:543:CB:4906, V-A:PRO:540:CA:4883, H-B:TYR:484:OH:9320, V-B:HIS:456:CE1:9042, H-A:GLU:543:OE2:4910, V-A:PRO:540:N:4884, V-A:HIS:456:CE1:4070, V-A:TYR:539:C:4867, V-A:ALA:541:CB:4892, H-B:GLU:543:OE2:9882, H-B:GLU:543:OE1:9881, H-A:GLU:543:OE1:4909, V-B:GLU:543:CB:9878, V-B:GLU:543:C:9874, V-A:HIS:456:CD2:4068, H-B:LYS:547:NZ:9923, V-B:HIS:456:CD2:9040, V-A:GLU:543:C:4902, V-B:TYR:484:CE2:9318, V-A:GLU:543:CA:4904"]

$$$$
4bf_Grossjean_2025
     RDKit          3D

 24 26  0  0  0  0  0  0  0  0999 V2000
  129.8700  120.2670   61.6450 C   0  0  0  0  0  0  0  0  0  0  0  0
  130.1080  121.7660   61.6410 C   0  0  0  0  0  0  0  0  0  0  0  0
  131.3990  122.2870   61.6440 C   0  0  0  0  0  0  0  0  0  0  0  0
  131.6050  123.6760   61.6440 C   0  0  0  0  0  0  0  0  0  0  0  0
  133.0440  124.2030   61.6500 C   0  0  0  0  0  0  0  0  0  0  0  0
  133.3170  124.9620   62.7150 F   0  0  0  0  0  0  0  0  0  0  0  0
  133.9000  123.1820   61.6580 F   0  0  0  0  0  0  0  0  0  0  0  0
  133.2560  124.9480   60.5650 F   0  0  0  0  0  0  0  0  0  0  0  0
  130.4450  124.5080   61.6410 C   0  0  0  0  0  0  0  0  0  0  0  0
  130.2640  125.9380   61.6410 C   0  0  0  0  0  0  0  0  0  0  0  0
  131.3170  126.8170   61.6400 N   0  0  0  0  0  0  0  0  0  0  0  0
  128.9200  126.3470   61.6380 C   0  0  0  0  0  0  0  0  0  0  0  0
  128.3800  127.7100   61.6690 C   0  0  0  0  0  0  0  0  0  0  0  0
  127.1650  127.9010   61.7340 O   0  0  0  0  0  0  0  0  0  0  0  0
  129.3030  128.7020   61.6350 N   0  0  0  0  0  0  0  0  0  0  0  0
  129.1190  130.0970   61.6020 C   0  0  0  0  0  0  0  0  0  0  0  0
  127.9830  130.7800   62.0700 C   0  0  0  0  0  0  0  0  0  0  0  0
  127.9210  132.1720   61.9640 C   0  0  0  0  0  0  0  0  0  0  0  0
  128.9970  132.8460   61.3870 C   0  0  0  0  0  0  0  0  0  0  0  0
  130.1010  132.2100   60.9220 N   0  0  0  0  0  0  0  0  0  0  0  0
  130.1470  130.8570   61.0320 C   0  0  0  0  0  0  0  0  0  0  0  0
  127.8330  124.9610   61.6390 S   0  0  0  0  0  0  0  0  0  0  0  0
  129.1790  123.8460   61.6370 C   0  0  0  0  0  0  0  0  0  0  0  0
  128.9890  122.5270   61.6370 N   0  0  0  0  0  0  0  0  0  0  0  0
  1  2  1  0
  2  3  2  0
  3  4  1  0
  4  5  1  0
  5  6  1  0
  5  7  1  0
  5  8  1  0
  4  9  2  0
  9 10  1  0
 10 11  1  0
 10 12  2  0
 12 13  1  0
 13 14  2  0
 13 15  1  0
 15 16  1  0
 16 17  2  0
 17 18  1  0
 18 19  2  0
 19 20  1  0
 20 21  2  0
 12 22  1  0
 22 23  1  0
 23 24  2  0
 24  2  1  0
 23  9  1  0
 21 16  1  0
M  END
>  <Binding energies>  (50) 
[-4.9]

>  <Ligand effiencies>  (50) 
[-0.1814814814814815]

>  <Interactions>  (50) 
["H-A:ASP:366:OD1:3214, V-A:LEU:475:CD2:4259, V-A:GLU:543:CD:4908, H-A:ALA:541:N:4891, V-A:ASP:366:CB:3212, V-B:GLU:543:CD:9880, V-A:PRO:540:CA:4883, V-A:GLY:454:CA:4049, V-A:ILE:369:CD1:3239, H-A:GLU:543:OE2:4910, V-B:ALA:541:CB:9864, V-A:ARG:545:CZ:4926, V-A:ASP:366:CG:3213, V-A:ALA:541:CA:4890, V-A:PRO:540:C:4881, V-A:ALA:541:CB:4892, H-A:GLU:543:OE1:4909, H-A:ASP:366:OD2:3215"]

$$$$
4bh_Grossjean_2025
     RDKit          3D

 31 33  0  0  0  0  0  0  0  0999 V2000
  125.4400  133.3010   60.3230 C   0  0  0  0  0  0  0  0  0  0  0  0
  125.9810  132.0280   59.9900 O   0  0  0  0  0  0  0  0  0  0  0  0
  127.0730  131.5480   60.6900 C   0  0  0  0  0  0  0  0  0  0  0  0
  126.9880  130.5990   61.7200 C   0  0  0  0  0  0  0  0  0  0  0  0
  128.1330  130.1610   62.3860 C   0  0  0  0  0  0  0  0  0  0  0  0
  128.0270  129.0960   63.4700 C   0  0  0  0  0  0  0  0  0  0  0  0
  128.5850  127.8020   63.0750 N   0  0  0  0  0  0  0  0  0  0  0  0
  127.9270  126.8420   62.3930 C   0  0  0  0  0  0  0  0  0  0  0  0
  126.7450  126.9550   62.0640 O   0  0  0  0  0  0  0  0  0  0  0  0
  128.6870  125.6260   62.1000 C   0  0  0  0  0  0  0  0  0  0  0  0
  127.8430  124.1100   61.7990 S   0  0  0  0  0  0  0  0  0  0  0  0
  129.3560  123.2570   61.6060 C   0  0  0  0  0  0  0  0  0  0  0  0
  129.3890  121.9530   61.3330 N   0  0  0  0  0  0  0  0  0  0  0  0
  130.6190  121.4040   61.2040 C   0  0  0  0  0  0  0  0  0  0  0  0
  130.6330  119.9170   60.8950 C   0  0  0  0  0  0  0  0  0  0  0  0
  131.8050  122.1200   61.3370 C   0  0  0  0  0  0  0  0  0  0  0  0
  131.7770  123.4940   61.6260 C   0  0  0  0  0  0  0  0  0  0  0  0
  133.1080  124.2410   61.7600 C   0  0  0  0  0  0  0  0  0  0  0  0
  133.2110  124.9260   62.9020 F   0  0  0  0  0  0  0  0  0  0  0  0
  134.1190  123.3730   61.7240 F   0  0  0  0  0  0  0  0  0  0  0  0
  133.2400  125.1110   60.7590 F   0  0  0  0  0  0  0  0  0  0  0  0
  130.4960  124.1040   61.7710 C   0  0  0  0  0  0  0  0  0  0  0  0
  130.0790  125.4520   62.0670 C   0  0  0  0  0  0  0  0  0  0  0  0
  130.9680  126.4730   62.2870 N   0  0  0  0  0  0  0  0  0  0  0  0
  129.3820  130.6540   62.0030 C   0  0  0  0  0  0  0  0  0  0  0  0
  129.4960  131.6100   60.9820 C   0  0  0  0  0  0  0  0  0  0  0  0
  130.6980  132.1520   60.5620 O   0  0  0  0  0  0  0  0  0  0  0  0
  131.9060  131.4400   60.8040 C   0  0  0  0  0  0  0  0  0  0  0  0
  128.3320  132.0540   60.3370 C   0  0  0  0  0  0  0  0  0  0  0  0
  128.4310  132.9770   59.3230 O   0  0  0  0  0  0  0  0  0  0  0  0
  128.6660  132.4050   58.0430 C   0  0  0  0  0  0  0  0  0  0  0  0
  1  2  1  0
  2  3  1  0
  3  4  2  0
  4  5  1  0
  5  6  1  0
  6  7  1  0
  7  8  1  0
  8  9  2  0
  8 10  1  0
 10 11  1  0
 11 12  1  0
 12 13  2  0
 13 14  1  0
 14 15  1  0
 14 16  2  0
 16 17  1  0
 17 18  1  0
 18 19  1  0
 18 20  1  0
 18 21  1  0
 17 22  2  0
 22 23  1  0
 23 24  1  0
  5 25  2  0
 25 26  1  0
 26 27  1  0
 27 28  1  0
 26 29  2  0
 29 30  1  0
 30 31  1  0
 29  3  1  0
 23 10  2  0
 22 12  1  0
M  END
>  <Binding energies>  (51) 
[-4.86]

>  <Ligand effiencies>  (51) 
[-0.14294117647058824]

>  <Interactions>  (51) 
["V-A:GLU:543:CG:4907, H-A:ASP:366:OD1:3214, V-A:LEU:475:CD2:4259, V-A:GLU:543:CD:4908, H-A:ALA:541:N:4891, V-A:ASP:366:CB:3212, V-B:GLU:543:CD:9880, V-A:PRO:540:CA:4883, V-A:PRO:540:CB:4885, V-B:TYR:539:CD2:9846, V-A:GLY:454:CA:4049, V-A:ILE:369:CD1:3239, H-A:GLU:543:OE2:4910, V-A:ARG:545:CZ:4926, V-A:ASP:366:CG:3213, V-A:TYR:539:C:4867, V-A:TYR:539:CD1:4873, V-A:TYR:539:CE1:4875, V-A:GLY:453:C:4042, H-B:GLU:543:OE2:9882, H-A:GLU:543:OE1:4909, H-A:ASP:366:OD2:3215, H-B:ARG:545:NH2:9900"]

$$$$
4bi_Grossjean_2025
     RDKit          3D

 23 25  0  0  0  0  0  0  0  0999 V2000
  127.0510  128.3710   61.9420 C   0  0  0  0  0  0  0  0  0  0  0  0
  127.3130  126.9480   61.4810 C   0  0  0  0  0  0  0  0  0  0  0  0
  126.7460  126.4580   60.3080 C   0  0  0  0  0  0  0  0  0  0  0  0
  127.0010  125.1410   59.8910 C   0  0  0  0  0  0  0  0  0  0  0  0
  126.3620  124.6480   58.5890 C   0  0  0  0  0  0  0  0  0  0  0  0
  125.4960  123.6500   58.7770 F   0  0  0  0  0  0  0  0  0  0  0  0
  125.6990  125.6470   58.0060 F   0  0  0  0  0  0  0  0  0  0  0  0
  127.3080  124.2050   57.7600 F   0  0  0  0  0  0  0  0  0  0  0  0
  127.8490  124.3480   60.7200 C   0  0  0  0  0  0  0  0  0  0  0  0
  128.3220  122.9880   60.6240 C   0  0  0  0  0  0  0  0  0  0  0  0
  127.9740  122.1530   59.5930 N   0  0  0  0  0  0  0  0  0  0  0  0
  129.1740  122.6010   61.6720 C   0  0  0  0  0  0  0  0  0  0  0  0
  129.8170  121.3030   61.8940 C   0  0  0  0  0  0  0  0  0  0  0  0
  130.2170  120.9820   63.0160 O   0  0  0  0  0  0  0  0  0  0  0  0
  129.9140  120.5060   60.8010 N   0  0  0  0  0  0  0  0  0  0  0  0
  130.4620  119.2320   60.7290 C   0  0  0  0  0  0  0  0  0  0  0  0
  129.8750  118.1160   61.3230 C   0  0  0  0  0  0  0  0  0  0  0  0
  130.7150  117.0670   61.0250 C   0  0  0  0  0  0  0  0  0  0  0  0
  131.7540  117.5290   60.2880 O   0  0  0  0  0  0  0  0  0  0  0  0
  131.5820  118.9030   60.1070 N   0  0  0  0  0  0  0  0  0  0  0  0
  129.3950  123.9100   62.8300 S   0  0  0  0  0  0  0  0  0  0  0  0
  128.3660  124.9710   61.8970 C   0  0  0  0  0  0  0  0  0  0  0  0
  128.1220  126.2220   62.2870 N   0  0  0  0  0  0  0  0  0  0  0  0
  1  2  1  0
  2  3  2  0
  3  4  1  0
  4  5  1  0
  5  6  1  0
  5  7  1  0
  5  8  1  0
  4  9  2  0
  9 10  1  0
 10 11  1  0
 10 12  2  0
 12 13  1  0
 13 14  2  0
 13 15  1  0
 15 16  1  0
 16 17  1  0
 17 18  2  0
 18 19  1  0
 19 20  1  0
 12 21  1  0
 21 22  1  0
 22 23  2  0
 23  2  1  0
 22  9  1  0
 20 16  2  0
M  END
>  <Binding energies>  (52) 
[-4.82]

>  <Ligand effiencies>  (52) 
[-0.1853846153846154]

>  <Interactions>  (52) 
["V-A:LEU:475:CD2:4259, V-B:GLU:543:CD:9880, V-B:TYR:539:CD2:9846, H-A:TYR:484:OH:4348, V-A:TYR:484:CZ:4347, V-B:PRO:540:CA:9855, V-B:GLU:543:CG:9879, V-B:ASP:366:CB:8184, V-B:ASP:366:CG:8185, V-B:ALA:541:CB:9864, V-B:TYR:539:C:9839, V-B:TYR:531:CZ:9766, V-B:PRO:540:N:9856, V-A:TYR:484:CE1:4345, V-A:LEU:475:CD1:4258, V-A:PRO:482:CB:4326, V-A:LEU:475:CG:4257, V-B:PRO:540:CB:9857, V-A:PRO:482:CG:4327, H-B:TYR:539:O:9840, H-A:SER:385:OG:3410"]

$$$$
4bj_Grossjean_2025
     RDKit          3D

 23 25  0  0  0  0  0  0  0  0999 V2000
  130.6060  120.1770   60.8750 C   0  0  0  0  0  0  0  0  0  0  0  0
  130.6150  121.6390   61.2830 C   0  0  0  0  0  0  0  0  0  0  0  0
  131.8000  122.2770   61.6390 C   0  0  0  0  0  0  0  0  0  0  0  0
  131.7930  123.6280   62.0200 C   0  0  0  0  0  0  0  0  0  0  0  0
  133.1230  124.2870   62.4070 C   0  0  0  0  0  0  0  0  0  0  0  0
  133.2470  124.4780   63.7210 F   0  0  0  0  0  0  0  0  0  0  0  0
  134.1380  123.5160   62.0170 F   0  0  0  0  0  0  0  0  0  0  0  0
  133.2220  125.4780   61.8180 F   0  0  0  0  0  0  0  0  0  0  0  0
  130.5350  124.2990   62.0200 C   0  0  0  0  0  0  0  0  0  0  0  0
  130.1410  125.6490   62.3470 C   0  0  0  0  0  0  0  0  0  0  0  0
  131.0370  126.6010   62.7620 N   0  0  0  0  0  0  0  0  0  0  0  0
  128.7680  125.8980   62.1960 C   0  0  0  0  0  0  0  0  0  0  0  0
  128.0330  127.1400   62.4480 C   0  0  0  0  0  0  0  0  0  0  0  0
  126.8120  127.1280   62.6160 O   0  0  0  0  0  0  0  0  0  0  0  0
  128.7890  128.2650   62.4930 N   0  0  0  0  0  0  0  0  0  0  0  0
  128.3440  129.5600   62.7250 C   0  0  0  0  0  0  0  0  0  0  0  0
  127.3990  129.9540   63.5510 N   0  0  0  0  0  0  0  0  0  0  0  0
  127.2430  131.2620   63.5200 C   0  0  0  0  0  0  0  0  0  0  0  0
  128.0740  131.9610   62.6510 C   0  0  0  0  0  0  0  0  0  0  0  0
  129.1120  130.8330   61.8310 S   0  0  0  0  0  0  0  0  0  0  0  0
  127.9110  124.4540   61.6630 S   0  0  0  0  0  0  0  0  0  0  0  0
  129.3950  123.5310   61.6300 C   0  0  0  0  0  0  0  0  0  0  0  0
  129.4060  122.2480   61.2710 N   0  0  0  0  0  0  0  0  0  0  0  0
  1  2  1  0
  2  3  2  0
  3  4  1  0
  4  5  1  0
  5  6  1  0
  5  7  1  0
  5  8  1  0
  4  9  2  0
  9 10  1  0
 10 11  1  0
 10 12  2  0
 12 13  1  0
 13 14  2  0
 13 15  1  0
 15 16  1  0
 16 17  2  0
 17 18  1  0
 18 19  2  0
 19 20  1  0
 12 21  1  0
 21 22  1  0
 22 23  2  0
 23  2  1  0
 22  9  1  0
 20 16  1  0
M  END
>  <Binding energies>  (53) 
[-4.6]

>  <Ligand effiencies>  (53) 
[-0.1769230769230769]

>  <Interactions>  (53) 
["V-A:GLU:543:CG:4907, H-A:ASP:366:OD1:3214, V-A:LEU:475:CD2:4259, V-A:GLU:543:CD:4908, V-B:GLU:543:CD:9880, V-B:TYR:484:CZ:9319, V-B:TYR:539:CD2:9846, H-B:TYR:484:OH:9320, V-A:GLY:454:CA:4049, V-A:ILE:369:CD1:3239, V-A:TYR:484:CZ:4347, H-A:GLU:543:OE2:4910, V-A:ARG:545:CZ:4926, V-A:ASP:366:CG:3213, V-A:GLY:453:C:4042, V-A:ALA:541:CB:4892, V-A:GLY:453:CA:4044, H-A:GLU:543:OE1:4909, H-B:ARG:545:NH2:9900"]

$$$$
4bk_Grossjean_2025
     RDKit          3D

 28 29  0  0  0  0  0  0  0  0999 V2000
  132.3820  125.2110   62.9370 C   0  0  0  0  0  0  0  0  0  0  0  0
  133.6610  124.6060   62.8330 O   0  0  0  0  0  0  0  0  0  0  0  0
  133.8520  123.8930   61.6180 C   0  0  0  0  0  0  0  0  0  0  0  0
  132.6080  123.0480   61.3190 C   0  0  0  0  0  0  0  0  0  0  0  0
  132.9770  121.6780   61.2350 O   0  0  0  0  0  0  0  0  0  0  0  0
  132.7430  121.0980   59.9590 C   0  0  0  0  0  0  0  0  0  0  0  0
  132.4570  119.5990   60.1240 C   0  0  0  0  0  0  0  0  0  0  0  0
  131.0530  119.3820   60.0920 O   0  0  0  0  0  0  0  0  0  0  0  0
  130.6170  118.3130   60.9230 C   0  0  0  0  0  0  0  0  0  0  0  0
  129.5370  118.8270   61.8900 C   0  0  0  0  0  0  0  0  0  0  0  0
  129.0670  120.1780   61.5820 N   0  0  0  0  0  0  0  0  0  0  0  0
  129.6290  121.3200   62.0310 C   0  0  0  0  0  0  0  0  0  0  0  0
  130.6320  121.3250   62.7470 O   0  0  0  0  0  0  0  0  0  0  0  0
  128.9840  122.5640   61.6100 C   0  0  0  0  0  0  0  0  0  0  0  0
  128.7310  123.8650   62.7710 S   0  0  0  0  0  0  0  0  0  0  0  0
  128.0060  124.8770   61.5440 C   0  0  0  0  0  0  0  0  0  0  0  0
  127.5640  126.1020   61.8250 N   0  0  0  0  0  0  0  0  0  0  0  0
  127.0240  126.7910   60.7930 C   0  0  0  0  0  0  0  0  0  0  0  0
  126.5290  128.1850   61.1360 C   0  0  0  0  0  0  0  0  0  0  0  0
  126.9160  126.2880   59.4990 C   0  0  0  0  0  0  0  0  0  0  0  0
  127.3780  124.9980   59.1970 C   0  0  0  0  0  0  0  0  0  0  0  0
  127.2330  124.4870   57.7600 C   0  0  0  0  0  0  0  0  0  0  0  0
  128.3650  123.9730   57.2720 F   0  0  0  0  0  0  0  0  0  0  0  0
  126.3060  123.5300   57.7120 F   0  0  0  0  0  0  0  0  0  0  0  0
  126.8740  125.4880   56.9580 F   0  0  0  0  0  0  0  0  0  0  0  0
  127.9550  124.2450   60.2630 C   0  0  0  0  0  0  0  0  0  0  0  0
  128.5260  122.9230   60.3330 C   0  0  0  0  0  0  0  0  0  0  0  0
  128.6110  122.0920   59.2450 N   0  0  0  0  0  0  0  0  0  0  0  0
  1  2  1  0
  2  3  1  0
  3  4  1  0
  4  5  1  0
  5  6  1  0
  6  7  1  0
  7  8  1  0
  8  9  1  0
  9 10  1  0
 10 11  1  0
 11 12  1  0
 12 13  2  0
 12 14  1  0
 14 15  1  0
 15 16  1  0
 16 17  2  0
 17 18  1  0
 18 19  1  0
 18 20  2  0
 20 21  1  0
 21 22  1  0
 22 23  1  0
 22 24  1  0
 22 25  1  0
 21 26  2  0
 26 27  1  0
 27 28  1  0
 27 14  2  0
 26 16  1  0
M  END
>  <Binding energies>  (54) 
[-4.6]

>  <Ligand effiencies>  (54) 
[-0.14838709677419354]

>  <Interactions>  (54) 
["V-B:MET:535:CE:9807, V-A:LEU:475:CD2:4259, V-B:GLU:543:CD:9880, V-B:TYR:539:CZ:9849, V-A:ILE:369:CG2:3237, V-B:TYR:539:CD2:9846, H-A:TYR:484:OH:4348, V-B:TYR:539:CE2:9848, V-A:ILE:369:CD1:3239, V-B:PRO:540:CA:9855, V-B:GLU:543:CG:9879, V-B:ASP:366:CG:8185, V-B:ALA:541:CB:9864, V-A:ARG:545:CZ:4926, H-A:ARG:545:NH2:4928, V-B:TYR:539:C:9839, V-B:TYR:531:CZ:9766, V-B:TYR:539:CG:9844, H-A:GLY:454:N:4050, V-B:PRO:540:C:9853, V-B:PRO:540:N:9856, V-A:TYR:484:CE1:4345, V-A:LEU:475:CD1:4258, V-B:ALA:541:CA:9862, V-A:PRO:482:CB:4326, V-A:SER:385:CB:3409, V-A:LEU:475:CG:4257, V-A:PRO:482:CG:4327, H-B:TYR:539:O:9840, H-B:PRO:540:O:9854"]

$$$$
4cd_Grossjean_2025
     RDKit          3D

 29 32  0  0  0  0  0  0  0  0999 V2000
  130.9550  126.9540   62.4050 N   0  0  0  0  0  0  0  0  0  0  0  0
  130.0890  125.9410   62.0800 C   0  0  0  0  0  0  0  0  0  0  0  0
  128.7060  126.1290   61.9330 C   0  0  0  0  0  0  0  0  0  0  0  0
  127.9280  127.3610   62.1020 C   0  0  0  0  0  0  0  0  0  0  0  0
  126.6980  127.3370   62.0670 O   0  0  0  0  0  0  0  0  0  0  0  0
  128.6580  128.4850   62.3020 N   0  0  0  0  0  0  0  0  0  0  0  0
  128.2310  129.8180   62.4470 C   0  0  0  0  0  0  0  0  0  0  0  0
  129.0910  130.7960   61.9390 C   0  0  0  0  0  0  0  0  0  0  0  0
  128.7500  132.1430   62.0220 C   0  0  0  0  0  0  0  0  0  0  0  0
  127.5430  132.5140   62.6080 C   0  0  0  0  0  0  0  0  0  0  0  0
  126.6700  131.5500   63.1050 C   0  0  0  0  0  0  0  0  0  0  0  0
  127.0080  130.2010   63.0240 C   0  0  0  0  0  0  0  0  0  0  0  0
  127.9010  124.6220   61.5020 S   0  0  0  0  0  0  0  0  0  0  0  0
  129.4160  123.7520   61.5300 C   0  0  0  0  0  0  0  0  0  0  0  0
  129.4740  122.4480   61.2670 N   0  0  0  0  0  0  0  0  0  0  0  0
  130.6950  121.8560   61.3270 C   0  0  0  0  0  0  0  0  0  0  0  0
  130.7290  120.3860   61.0290 C   0  0  0  0  0  0  0  0  0  0  0  0
  131.6880  119.8520   60.1530 C   0  0  0  0  0  0  0  0  0  0  0  0
  131.7250  118.4880   59.8720 C   0  0  0  0  0  0  0  0  0  0  0  0
  130.8000  117.6370   60.4660 C   0  0  0  0  0  0  0  0  0  0  0  0
  129.8420  118.1380   61.3400 C   0  0  0  0  0  0  0  0  0  0  0  0
  129.8090  119.5010   61.6200 C   0  0  0  0  0  0  0  0  0  0  0  0
  131.8530  122.5790   61.6310 C   0  0  0  0  0  0  0  0  0  0  0  0
  131.8030  123.9550   61.9060 C   0  0  0  0  0  0  0  0  0  0  0  0
  133.1110  124.6850   62.2360 C   0  0  0  0  0  0  0  0  0  0  0  0
  133.2080  125.0310   63.5220 F   0  0  0  0  0  0  0  0  0  0  0  0
  134.1500  123.8990   61.9540 F   0  0  0  0  0  0  0  0  0  0  0  0
  133.1960  125.8040   61.5160 F   0  0  0  0  0  0  0  0  0  0  0  0
  130.5270  124.5840   61.8590 C   0  0  0  0  0  0  0  0  0  0  0  0
  1  2  1  0
  2  3  2  0
  3  4  1  0
  4  5  2  0
  4  6  1  0
  6  7  1  0
  7  8  2  0
  8  9  1  0
  9 10  2  0
 10 11  1  0
 11 12  2  0
  3 13  1  0
 13 14  1  0
 14 15  2  0
 15 16  1  0
 16 17  1  0
 17 18  2  0
 18 19  1  0
 19 20  2  0
 20 21  1  0
 21 22  2  0
 16 23  2  0
 23 24  1  0
 24 25  1  0
 25 26  1  0
 25 27  1  0
 25 28  1  0
 24 29  2  0
 29  2  1  0
 12  7  1  0
 29 14  1  0
 22 17  1  0
M  END
>  <Binding energies>  (55) 
[-6.92]

>  <Ligand effiencies>  (55) 
[-0.21625]

>  <Interactions>  (55) 
["V-A:GLU:543:CG:4907, H-A:ASP:366:OD1:3214, V-A:LEU:475:CD2:4259, V-A:GLU:543:CD:4908, V-B:GLU:543:CD:9880, V-B:TYR:539:CD2:9846, V-A:GLY:454:CA:4049, V-B:TYR:539:CE2:9848, V-A:ILE:369:CD1:3239, H-A:GLU:543:OE2:4910, V-B:ALA:541:CB:9864, V-A:ARG:545:CZ:4926, V-A:ASP:366:CG:3213, V-A:GLY:453:C:4042, V-A:ALA:541:CB:4892, V-A:GLY:453:CA:4044, V-A:LEU:475:CD1:4258, V-A:PRO:482:CB:4326, V-A:SER:385:CB:3409, V-A:LEU:475:CG:4257, H-A:GLU:543:OE1:4909, V-A:PRO:482:CG:4327, H-B:ARG:545:NH2:9900, V-B:LEU:475:CD2:9231"]

$$$$
4cg_Grossjean_2025
     RDKit          3D

 30 33  0  0  0  0  0  0  0  0999 V2000
  130.5190  126.9480   62.4290 N   0  0  0  0  0  0  0  0  0  0  0  0
  129.7070  125.8860   62.1230 C   0  0  0  0  0  0  0  0  0  0  0  0
  128.3140  125.9920   62.0110 C   0  0  0  0  0  0  0  0  0  0  0  0
  127.4770  127.1850   62.1350 C   0  0  0  0  0  0  0  0  0  0  0  0
  127.0230  127.7580   61.1420 O   0  0  0  0  0  0  0  0  0  0  0  0
  127.2700  127.6350   63.3910 N   0  0  0  0  0  0  0  0  0  0  0  0
  126.4530  128.7910   63.7530 C   0  0  0  0  0  0  0  0  0  0  0  0
  126.9950  130.1100   63.2140 C   0  0  0  0  0  0  0  0  0  0  0  0
  128.3760  130.3110   63.1310 C   0  0  0  0  0  0  0  0  0  0  0  0
  128.8760  131.5020   62.6100 C   0  0  0  0  0  0  0  0  0  0  0  0
  127.9930  132.4830   62.1650 C   0  0  0  0  0  0  0  0  0  0  0  0
  126.6160  132.2820   62.2300 C   0  0  0  0  0  0  0  0  0  0  0  0
  126.1160  131.0920   62.7490 C   0  0  0  0  0  0  0  0  0  0  0  0
  127.5830  124.4460   61.5880 S   0  0  0  0  0  0  0  0  0  0  0  0
  129.1460  123.6620   61.5870 C   0  0  0  0  0  0  0  0  0  0  0  0
  129.2720  122.3660   61.3170 N   0  0  0  0  0  0  0  0  0  0  0  0
  130.5270  121.8450   61.3350 C   0  0  0  0  0  0  0  0  0  0  0  0
  130.6350  120.3780   61.0280 C   0  0  0  0  0  0  0  0  0  0  0  0
  131.6180  119.8970   60.1480 C   0  0  0  0  0  0  0  0  0  0  0  0
  131.7220  118.5390   59.8590 C   0  0  0  0  0  0  0  0  0  0  0  0
  130.8390  117.6390   60.4470 C   0  0  0  0  0  0  0  0  0  0  0  0
  129.8540  118.0880   61.3190 C   0  0  0  0  0  0  0  0  0  0  0  0
  129.7540  119.4470   61.6050 C   0  0  0  0  0  0  0  0  0  0  0  0
  131.6460  122.6260   61.6430 C   0  0  0  0  0  0  0  0  0  0  0  0
  131.5250  123.9950   61.9310 C   0  0  0  0  0  0  0  0  0  0  0  0
  132.7920  124.7920   62.2600 C   0  0  0  0  0  0  0  0  0  0  0  0
  132.8250  125.2240   63.5220 F   0  0  0  0  0  0  0  0  0  0  0  0
  133.8670  124.0260   62.0720 F   0  0  0  0  0  0  0  0  0  0  0  0
  132.8700  125.8610   61.4710 F   0  0  0  0  0  0  0  0  0  0  0  0
  130.2140  124.5540   61.8990 C   0  0  0  0  0  0  0  0  0  0  0  0
  1  2  1  0
  2  3  2  0
  3  4  1  0
  4  5  2  0
  4  6  1  0
  6  7  1  0
  7  8  1  0
  8  9  2  0
  9 10  1  0
 10 11  2  0
 11 12  1  0
 12 13  2  0
  3 14  1  0
 14 15  1  0
 15 16  2  0
 16 17  1  0
 17 18  1  0
 18 19  2  0
 19 20  1  0
 20 21  2  0
 21 22  1  0
 22 23  2  0
 17 24  2  0
 24 25  1  0
 25 26  1  0
 26 27  1  0
 26 28  1  0
 26 29  1  0
 25 30  2  0
 30  2  1  0
 13  8  1  0
 30 15  1  0
 23 18  1  0
M  END
>  <Binding energies>  (56) 
[-7.27]

>  <Ligand effiencies>  (56) 
[-0.22030303030303028]

>  <Interactions>  (56) 
["V-A:GLU:543:CG:4907, V-A:LEU:475:CD2:4259, V-A:GLU:543:CD:4908, V-B:GLU:543:CD:9880, V-B:TYR:539:CD2:9846, V-A:GLY:454:CA:4049, V-B:TYR:539:CE2:9848, V-A:ILE:369:CD1:3239, H-A:GLU:543:OE2:4910, V-B:ALA:541:CB:9864, V-A:ARG:545:CZ:4926, V-A:ASP:366:CG:3213, V-A:GLY:453:C:4042, V-A:ALA:541:CB:4892, V-A:GLY:453:CA:4044, V-A:LEU:475:CD1:4258, V-A:PRO:482:CB:4326, V-A:SER:385:CB:3409, H-B:GLU:543:OE2:9882, H-B:GLU:543:OE1:9881, V-A:LEU:475:CG:4257, H-A:GLU:543:OE1:4909, V-A:PRO:482:CG:4327, V-B:LEU:475:CD2:9231"]

$$$$
4ch_Grossjean_2025
     RDKit          3D

 36 39  0  0  0  0  0  0  0  0999 V2000
  131.4310  131.4340   61.3480 C   0  0  0  0  0  0  0  0  0  0  0  0
  130.2320  132.1690   61.5660 O   0  0  0  0  0  0  0  0  0  0  0  0
  129.0210  131.5020   61.5840 C   0  0  0  0  0  0  0  0  0  0  0  0
  128.7340  130.4200   62.4330 C   0  0  0  0  0  0  0  0  0  0  0  0
  127.4870  129.7940   62.3980 C   0  0  0  0  0  0  0  0  0  0  0  0
  127.2030  128.6050   63.3070 C   0  0  0  0  0  0  0  0  0  0  0  0
  127.9400  127.3900   62.9540 N   0  0  0  0  0  0  0  0  0  0  0  0
  128.5920  127.1780   61.7920 C   0  0  0  0  0  0  0  0  0  0  0  0
  128.6520  128.0280   60.9010 O   0  0  0  0  0  0  0  0  0  0  0  0
  129.2620  125.8840   61.6600 C   0  0  0  0  0  0  0  0  0  0  0  0
  128.3200  124.4290   61.3520 S   0  0  0  0  0  0  0  0  0  0  0  0
  129.7660  123.4490   61.3110 C   0  0  0  0  0  0  0  0  0  0  0  0
  129.7090  122.1360   61.1040 N   0  0  0  0  0  0  0  0  0  0  0  0
  130.8860  121.4570   61.0830 C   0  0  0  0  0  0  0  0  0  0  0  0
  130.7870  119.9760   60.8540 C   0  0  0  0  0  0  0  0  0  0  0  0
  131.6810  119.3210   59.9910 C   0  0  0  0  0  0  0  0  0  0  0  0
  131.5940  117.9480   59.7730 C   0  0  0  0  0  0  0  0  0  0  0  0
  130.6080  117.2090   60.4170 C   0  0  0  0  0  0  0  0  0  0  0  0
  129.7080  117.8330   61.2740 C   0  0  0  0  0  0  0  0  0  0  0  0
  129.7970  119.2060   61.4870 C   0  0  0  0  0  0  0  0  0  0  0  0
  132.1120  122.0990   61.2870 C   0  0  0  0  0  0  0  0  0  0  0  0
  132.1840  123.4840   61.5080 C   0  0  0  0  0  0  0  0  0  0  0  0
  133.5600  124.1230   61.7240 C   0  0  0  0  0  0  0  0  0  0  0  0
  133.5860  124.9770   62.7500 F   0  0  0  0  0  0  0  0  0  0  0  0
  134.4640  123.1760   61.9700 F   0  0  0  0  0  0  0  0  0  0  0  0
  133.9190  124.8000   60.6330 F   0  0  0  0  0  0  0  0  0  0  0  0
  130.9560  124.2060   61.5190 C   0  0  0  0  0  0  0  0  0  0  0  0
  130.6370  125.6010   61.7040 C   0  0  0  0  0  0  0  0  0  0  0  0
  131.5930  126.5610   61.9150 N   0  0  0  0  0  0  0  0  0  0  0  0
  126.5190  130.2380   61.4950 C   0  0  0  0  0  0  0  0  0  0  0  0
  126.7800  131.3160   60.6330 C   0  0  0  0  0  0  0  0  0  0  0  0
  125.8680  131.8080   59.7170 O   0  0  0  0  0  0  0  0  0  0  0  0
  125.4100  130.9650   58.6650 C   0  0  0  0  0  0  0  0  0  0  0  0
  128.0320  131.9430   60.6930 C   0  0  0  0  0  0  0  0  0  0  0  0
  128.3060  132.9890   59.8450 O   0  0  0  0  0  0  0  0  0  0  0  0
  128.5320  132.5980   58.4970 C   0  0  0  0  0  0  0  0  0  0  0  0
  1  2  1  0
  2  3  1  0
  3  4  2  0
  4  5  1  0
  5  6  1  0
  6  7  1  0
  7  8  1  0
  8  9  2  0
  8 10  1  0
 10 11  1  0
 11 12  1  0
 12 13  2  0
 13 14  1  0
 14 15  1  0
 15 16  2  0
 16 17  1  0
 17 18  2  0
 18 19  1  0
 19 20  2  0
 14 21  2  0
 21 22  1  0
 22 23  1  0
 23 24  1  0
 23 25  1  0
 23 26  1  0
 22 27  2  0
 27 28  1  0
 28 29  1  0
  5 30  2  0
 30 31  1  0
 31 32  1  0
 32 33  1  0
 31 34  2  0
 34 35  1  0
 35 36  1  0
 34  3  1  0
 28 10  2  0
 27 12  1  0
 20 15  1  0
M  END
>  <Binding energies>  (57) 
[-6.64]

>  <Ligand effiencies>  (57) 
[-0.17025641025641025]

>  <Interactions>  (57) 
["V-A:GLU:543:CG:4907, V-A:ASP:366:CA:3210, H-A:ASP:366:OD1:3214, V-A:LEU:475:CD2:4259, V-A:GLU:543:CD:4908, H-A:ALA:541:N:4891, V-A:ASP:366:CB:3212, V-B:GLU:543:CD:9880, V-A:PRO:540:CA:4883, V-B:TYR:539:CD2:9846, V-A:GLY:454:CA:4049, V-B:TYR:539:CE2:9848, V-A:ILE:369:CD1:3239, H-A:GLU:543:OE2:4910, V-B:ALA:541:CB:9864, V-A:ARG:545:CZ:4926, V-A:ASP:366:CG:3213, V-A:PRO:540:N:4884, V-B:TYR:539:C:9839, V-A:TYR:539:C:4867, V-A:TYR:539:CD1:4873, V-A:TYR:539:CE1:4875, V-A:GLY:453:C:4042, V-A:ALA:541:CB:4892, V-A:GLY:453:CA:4044, V-A:LEU:475:CD1:4258, V-A:PRO:482:CB:4326, V-A:SER:385:CB:3409, H-B:GLU:543:OE2:9882, V-B:TYR:539:CB:9843, H-B:GLU:543:OE1:9881, H-A:GLU:543:OE1:4909, H-A:ASP:366:OD2:3215, V-A:PRO:482:CG:4327"]

$$$$
4cj_Grossjean_2025
     RDKit          3D

 28 31  0  0  0  0  0  0  0  0999 V2000
  131.0250  126.8740   62.4180 N   0  0  0  0  0  0  0  0  0  0  0  0
  130.1480  125.8640   62.1120 C   0  0  0  0  0  0  0  0  0  0  0  0
  128.7630  126.0600   61.9840 C   0  0  0  0  0  0  0  0  0  0  0  0
  127.9990  127.3010   62.1300 C   0  0  0  0  0  0  0  0  0  0  0  0
  126.7680  127.2970   62.0510 O   0  0  0  0  0  0  0  0  0  0  0  0
  128.7380  128.4190   62.3430 N   0  0  0  0  0  0  0  0  0  0  0  0
  128.2620  129.7120   62.5140 C   0  0  0  0  0  0  0  0  0  0  0  0
  127.1990  130.0990   63.1860 N   0  0  0  0  0  0  0  0  0  0  0  0
  127.0480  131.4080   63.1410 C   0  0  0  0  0  0  0  0  0  0  0  0
  128.0050  132.1140   62.4180 C   0  0  0  0  0  0  0  0  0  0  0  0
  129.1630  130.9920   61.7670 S   0  0  0  0  0  0  0  0  0  0  0  0
  127.9430  124.5560   61.5740 S   0  0  0  0  0  0  0  0  0  0  0  0
  129.4550  123.6790   61.5790 C   0  0  0  0  0  0  0  0  0  0  0  0
  129.5020  122.3760   61.3110 N   0  0  0  0  0  0  0  0  0  0  0  0
  130.7220  121.7810   61.3300 C   0  0  0  0  0  0  0  0  0  0  0  0
  130.7420  120.3130   61.0110 C   0  0  0  0  0  0  0  0  0  0  0  0
  129.8020  119.4410   61.5830 C   0  0  0  0  0  0  0  0  0  0  0  0
  129.8180  118.0780   61.2950 C   0  0  0  0  0  0  0  0  0  0  0  0
  130.7810  117.5670   60.4310 C   0  0  0  0  0  0  0  0  0  0  0  0
  131.7240  118.4080   59.8530 C   0  0  0  0  0  0  0  0  0  0  0  0
  131.7030  119.7700   60.1420 C   0  0  0  0  0  0  0  0  0  0  0  0
  131.8860  122.4920   61.6430 C   0  0  0  0  0  0  0  0  0  0  0  0
  131.8470  123.8650   61.9290 C   0  0  0  0  0  0  0  0  0  0  0  0
  133.1610  124.5840   62.2610 C   0  0  0  0  0  0  0  0  0  0  0  0
  133.2830  124.8810   63.5560 F   0  0  0  0  0  0  0  0  0  0  0  0
  134.1930  123.8090   61.9300 F   0  0  0  0  0  0  0  0  0  0  0  0
  133.2340  125.7280   61.5800 F   0  0  0  0  0  0  0  0  0  0  0  0
  130.5740  124.5040   61.8930 C   0  0  0  0  0  0  0  0  0  0  0  0
  1  2  1  0
  2  3  2  0
  3  4  1  0
  4  5  2  0
  4  6  1  0
  6  7  1  0
  7  8  2  0
  8  9  1  0
  9 10  2  0
 10 11  1  0
  3 12  1  0
 12 13  1  0
 13 14  2  0
 14 15  1  0
 15 16  1  0
 16 17  2  0
 17 18  1  0
 18 19  2  0
 19 20  1  0
 20 21  2  0
 15 22  2  0
 22 23  1  0
 23 24  1  0
 24 25  1  0
 24 26  1  0
 24 27  1  0
 23 28  2  0
 28  2  1  0
 11  7  1  0
 28 13  1  0
 21 16  1  0
M  END
>  <Binding energies>  (58) 
[-6.47]

>  <Ligand effiencies>  (58) 
[-0.20870967741935484]

>  <Interactions>  (58) 
["H-A:ASP:366:OD1:3214, V-A:LEU:475:CD2:4259, V-A:GLU:543:CD:4908, V-B:GLU:543:CD:9880, V-B:TYR:539:CD2:9846, H-B:TYR:484:OH:9320, V-A:GLY:454:CA:4049, V-B:TYR:539:CE2:9848, V-A:ILE:369:CD1:3239, H-A:GLU:543:OE2:4910, V-B:ALA:541:CB:9864, V-A:ARG:545:CZ:4926, V-A:ASP:366:CG:3213, V-A:GLY:453:C:4042, V-A:ALA:541:CB:4892, V-A:GLY:453:CA:4044, V-A:LEU:475:CD1:4258, V-A:PRO:482:CB:4326, V-A:SER:385:CB:3409, V-A:LEU:475:CG:4257, H-A:GLU:543:OE1:4909, V-A:PRO:482:CG:4327, H-B:ARG:545:NH2:9900"]

$$$$
4ck_Grossjean_2025
     RDKit          3D

 33 35  0  0  0  0  0  0  0  0999 V2000
  127.0410  126.2430   69.9000 C   0  0  0  0  0  0  0  0  0  0  0  0
  127.3390  126.6800   68.5830 O   0  0  0  0  0  0  0  0  0  0  0  0
  128.7320  126.7650   68.3170 C   0  0  0  0  0  0  0  0  0  0  0  0
  129.0060  128.0170   67.4740 C   0  0  0  0  0  0  0  0  0  0  0  0
  127.7680  128.6290   67.1380 O   0  0  0  0  0  0  0  0  0  0  0  0
  127.7320  129.1470   65.8150 C   0  0  0  0  0  0  0  0  0  0  0  0
  126.5800  128.4860   65.0480 C   0  0  0  0  0  0  0  0  0  0  0  0
  126.5420  129.0190   63.7310 O   0  0  0  0  0  0  0  0  0  0  0  0
  127.4700  130.0740   63.5110 C   0  0  0  0  0  0  0  0  0  0  0  0
  128.1990  129.8490   62.1770 C   0  0  0  0  0  0  0  0  0  0  0  0
  128.7270  128.4890   62.0610 N   0  0  0  0  0  0  0  0  0  0  0  0
  128.0070  127.3830   61.7820 C   0  0  0  0  0  0  0  0  0  0  0  0
  126.7950  127.4160   61.5620 O   0  0  0  0  0  0  0  0  0  0  0  0
  128.7550  126.1260   61.7420 C   0  0  0  0  0  0  0  0  0  0  0  0
  127.9400  124.6260   61.3080 S   0  0  0  0  0  0  0  0  0  0  0  0
  129.4340  123.7280   61.4360 C   0  0  0  0  0  0  0  0  0  0  0  0
  129.4800  122.4180   61.2030 N   0  0  0  0  0  0  0  0  0  0  0  0
  130.6860  121.8060   61.3280 C   0  0  0  0  0  0  0  0  0  0  0  0
  130.7070  120.3320   61.0420 C   0  0  0  0  0  0  0  0  0  0  0  0
  131.6670  119.7810   60.1770 C   0  0  0  0  0  0  0  0  0  0  0  0
  131.6900  118.4140   59.9050 C   0  0  0  0  0  0  0  0  0  0  0  0
  130.7510  117.5770   60.4970 C   0  0  0  0  0  0  0  0  0  0  0  0
  129.7920  118.0960   61.3610 C   0  0  0  0  0  0  0  0  0  0  0  0
  129.7730  119.4620   61.6310 C   0  0  0  0  0  0  0  0  0  0  0  0
  131.8420  122.5120   61.6760 C   0  0  0  0  0  0  0  0  0  0  0  0
  131.8050  123.8940   61.9240 C   0  0  0  0  0  0  0  0  0  0  0  0
  133.1090  124.6060   62.3060 C   0  0  0  0  0  0  0  0  0  0  0  0
  133.2730  125.7710   61.6770 F   0  0  0  0  0  0  0  0  0  0  0  0
  133.1200  124.8530   63.6150 F   0  0  0  0  0  0  0  0  0  0  0  0
  134.1500  123.8340   61.9950 F   0  0  0  0  0  0  0  0  0  0  0  0
  130.5450  124.5460   61.7990 C   0  0  0  0  0  0  0  0  0  0  0  0
  130.1260  125.9170   61.9610 C   0  0  0  0  0  0  0  0  0  0  0  0
  130.9930  126.9240   62.3010 N   0  0  0  0  0  0  0  0  0  0  0  0
  1  2  1  0
  2  3  1  0
  3  4  1  0
  4  5  1  0
  5  6  1  0
  6  7  1  0
  7  8  1  0
  8  9  1  0
  9 10  1  0
 10 11  1  0
 11 12  1  0
 12 13  2  0
 12 14  1  0
 14 15  1  0
 15 16  1  0
 16 17  2  0
 17 18  1  0
 18 19  1  0
 19 20  2  0
 20 21  1  0
 21 22  2  0
 22 23  1  0
 23 24  2  0
 18 25  2  0
 25 26  1  0
 26 27  1  0
 27 28  1  0
 27 29  1  0
 27 30  1  0
 26 31  2  0
 31 32  1  0
 32 33  1  0
 32 14  2  0
 31 16  1  0
 24 19  1  0
M  END
>  <Binding energies>  (59) 
[-5.7]

>  <Ligand effiencies>  (59) 
[-0.15833333333333333]

>  <Interactions>  (59) 
["V-A:GLU:543:CG:4907, H-A:ASP:366:OD1:3214, V-A:LEU:475:CD2:4259, V-A:GLU:543:CD:4908, V-B:GLU:543:CD:9880, V-B:TYR:484:CZ:9319, V-A:GLU:543:CB:4906, V-B:TYR:539:CD2:9846, H-B:TYR:484:OH:9320, V-B:HIS:456:CE1:9042, V-A:GLY:454:CA:4049, V-B:TYR:539:CE2:9848, V-A:ILE:369:CD1:3239, V-A:TYR:484:CZ:4347, H-A:GLU:543:OE2:4910, V-B:ALA:541:CB:9864, V-A:ARG:545:CZ:4926, V-A:ASP:366:CG:3213, V-A:HIS:456:CE1:4070, V-A:GLY:453:C:4042, V-A:GLY:453:CA:4044, V-A:LEU:475:CD1:4258, V-A:PRO:482:CB:4326, V-A:SER:385:CB:3409, V-A:LEU:475:CG:4257, H-A:GLU:543:OE1:4909, V-A:PRO:482:CG:4327, H-B:ARG:545:NH2:9900, V-B:GLU:543:CB:9878, V-B:GLU:543:C:9874, V-B:GLY:544:C:9884, V-B:ARG:545:CA:9891"]

$$$$
4dd_Grossjean_2025
     RDKit          3D

 26 29  0  0  0  0  0  0  0  0999 V2000
  133.2140  124.6870   62.0420 C   0  0  0  0  0  0  0  0  0  0  0  0
  131.8970  123.9700   61.7900 C   0  0  0  0  0  0  0  0  0  0  0  0
  131.9340  122.5950   61.5240 C   0  0  0  0  0  0  0  0  0  0  0  0
  130.7560  121.8770   61.2840 C   0  0  0  0  0  0  0  0  0  0  0  0
  130.7670  120.4060   60.9910 C   0  0  0  0  0  0  0  0  0  0  0  0
  129.8120  119.5500   61.5650 C   0  0  0  0  0  0  0  0  0  0  0  0
  129.8140  118.1850   61.2950 C   0  0  0  0  0  0  0  0  0  0  0  0
  130.7760  117.6520   60.4450 C   0  0  0  0  0  0  0  0  0  0  0  0
  131.7330  118.4750   59.8610 C   0  0  0  0  0  0  0  0  0  0  0  0
  131.7260  119.8410   60.1320 C   0  0  0  0  0  0  0  0  0  0  0  0
  129.5350  122.4770   61.2860 N   0  0  0  0  0  0  0  0  0  0  0  0
  129.4970  123.7840   61.5450 C   0  0  0  0  0  0  0  0  0  0  0  0
  127.9940  124.6770   61.5970 S   0  0  0  0  0  0  0  0  0  0  0  0
  128.8440  126.1770   61.9760 C   0  0  0  0  0  0  0  0  0  0  0  0
  128.0980  127.4200   62.1820 C   0  0  0  0  0  0  0  0  0  0  0  0
  126.8830  127.3960   62.3840 O   0  0  0  0  0  0  0  0  0  0  0  0
  128.8380  128.5550   62.1390 N   0  0  0  0  0  0  0  0  0  0  0  0
  128.4280  129.8960   62.2430 C   0  0  0  0  0  0  0  0  0  0  0  0
  129.0850  130.8030   61.4060 C   0  0  0  0  0  0  0  0  0  0  0  0
  128.7410  132.1520   61.4240 C   0  0  0  0  0  0  0  0  0  0  0  0
  127.7320  132.5950   62.2750 C   0  0  0  0  0  0  0  0  0  0  0  0
  127.0610  131.7010   63.1050 C   0  0  0  0  0  0  0  0  0  0  0  0
  127.4030  130.3520   63.0900 C   0  0  0  0  0  0  0  0  0  0  0  0
  130.2300  125.9680   62.0480 C   0  0  0  0  0  0  0  0  0  0  0  0
  131.1390  126.9590   62.3230 N   0  0  0  0  0  0  0  0  0  0  0  0
  130.6290  124.6060   61.8080 C   0  0  0  0  0  0  0  0  0  0  0  0
  1  2  1  0
  2  3  2  0
  3  4  1  0
  4  5  1  0
  5  6  2  0
  6  7  1  0
  7  8  2  0
  8  9  1  0
  9 10  2  0
  4 11  2  0
 11 12  1  0
 12 13  1  0
 13 14  1  0
 14 15  1  0
 15 16  2  0
 15 17  1  0
 17 18  1  0
 18 19  2  0
 19 20  1  0
 20 21  2  0
 21 22  1  0
 22 23  2  0
 14 24  2  0
 24 25  1  0
 24 26  1  0
 26  2  1  0
 10  5  1  0
 26 12  2  0
 23 18  1  0
M  END
>  <Binding energies>  (60) 
[-7.17]

>  <Ligand effiencies>  (60) 
[-0.24724137931034482]

>  <Interactions>  (60) 
["H-A:ASP:366:OD1:3214, V-A:LEU:475:CD2:4259, V-A:GLU:543:CD:4908, V-B:GLU:543:CD:9880, V-B:TYR:539:CD2:9846, V-B:TYR:539:CE2:9848, H-A:GLU:543:OE2:4910, V-B:ALA:541:CB:9864, V-A:ARG:545:CZ:4926, V-B:TYR:539:C:9839, V-A:ALA:541:CB:4892, V-A:LEU:475:CD1:4258, V-A:PRO:482:CB:4326, V-A:SER:385:CB:3409, V-A:LEU:475:CG:4257, H-A:GLU:543:OE1:4909, V-A:PRO:482:CG:4327, H-B:ARG:545:NH2:9900, V-B:LEU:475:CD2:9231"]

$$$$
4dg_Grossjean_2025
     RDKit          3D

 27 30  0  0  0  0  0  0  0  0999 V2000
  132.9710  124.7630   62.1070 C   0  0  0  0  0  0  0  0  0  0  0  0
  131.6850  123.9970   61.8360 C   0  0  0  0  0  0  0  0  0  0  0  0
  131.7780  122.6270   61.5620 C   0  0  0  0  0  0  0  0  0  0  0  0
  130.6310  121.8650   61.3040 C   0  0  0  0  0  0  0  0  0  0  0  0
  130.6990  120.3930   61.0090 C   0  0  0  0  0  0  0  0  0  0  0  0
  131.6820  119.8750   60.1490 C   0  0  0  0  0  0  0  0  0  0  0  0
  131.7470  118.5120   59.8690 C   0  0  0  0  0  0  0  0  0  0  0  0
  130.8270  117.6440   60.4470 C   0  0  0  0  0  0  0  0  0  0  0  0
  129.8400  118.1310   61.2990 C   0  0  0  0  0  0  0  0  0  0  0  0
  129.7790  119.4940   61.5750 C   0  0  0  0  0  0  0  0  0  0  0  0
  129.3860  122.4130   61.3250 N   0  0  0  0  0  0  0  0  0  0  0  0
  129.2960  123.7170   61.5840 C   0  0  0  0  0  0  0  0  0  0  0  0
  127.7580  124.5470   61.6350 S   0  0  0  0  0  0  0  0  0  0  0  0
  128.5470  126.0770   62.0140 C   0  0  0  0  0  0  0  0  0  0  0  0
  127.7540  127.2970   62.1590 C   0  0  0  0  0  0  0  0  0  0  0  0
  127.2720  127.8690   61.1800 O   0  0  0  0  0  0  0  0  0  0  0  0
  127.6200  127.7670   63.4170 N   0  0  0  0  0  0  0  0  0  0  0  0
  126.8560  128.9530   63.8010 C   0  0  0  0  0  0  0  0  0  0  0  0
  127.3390  130.2300   63.1220 C   0  0  0  0  0  0  0  0  0  0  0  0
  128.6910  130.3740   62.7960 C   0  0  0  0  0  0  0  0  0  0  0  0
  129.1300  131.5260   62.1490 C   0  0  0  0  0  0  0  0  0  0  0  0
  128.2160  132.5240   61.8190 C   0  0  0  0  0  0  0  0  0  0  0  0
  126.8640  132.3790   62.1260 C   0  0  0  0  0  0  0  0  0  0  0  0
  126.4240  131.2270   62.7730 C   0  0  0  0  0  0  0  0  0  0  0  0
  129.9410  125.9300   62.0780 C   0  0  0  0  0  0  0  0  0  0  0  0
  130.8060  126.9620   62.3420 N   0  0  0  0  0  0  0  0  0  0  0  0
  130.3940  124.5850   61.8470 C   0  0  0  0  0  0  0  0  0  0  0  0
  1  2  1  0
  2  3  2  0
  3  4  1  0
  4  5  1  0
  5  6  2  0
  6  7  1  0
  7  8  2  0
  8  9  1  0
  9 10  2  0
  4 11  2  0
 11 12  1  0
 12 13  1  0
 13 14  1  0
 14 15  1  0
 15 16  2  0
 15 17  1  0
 17 18  1  0
 18 19  1  0
 19 20  2  0
 20 21  1  0
 21 22  2  0
 22 23  1  0
 23 24  2  0
 14 25  2  0
 25 26  1  0
 25 27  1  0
 27  2  1  0
 10  5  1  0
 27 12  2  0
 24 19  1  0
M  END
>  <Binding energies>  (61) 
[-7.44]

>  <Ligand effiencies>  (61) 
[-0.24800000000000003]

>  <Interactions>  (61) 
["V-A:GLU:543:CG:4907, H-A:ASP:366:OD1:3214, V-A:LEU:475:CD2:4259, V-A:GLU:543:CD:4908, V-B:GLU:543:CD:9880, V-B:TYR:539:CD2:9846, V-B:TYR:539:CE2:9848, H-A:GLU:543:OE2:4910, V-B:ALA:541:CB:9864, V-A:ALA:541:CB:4892, V-A:LEU:475:CD1:4258, V-A:PRO:482:CB:4326, V-A:SER:385:CB:3409, H-B:GLU:543:OE2:9882, H-B:GLU:543:OE1:9881, V-A:LEU:475:CG:4257, H-A:GLU:543:OE1:4909, V-A:PRO:482:CG:4327, V-B:LEU:475:CD2:9231"]

$$$$
4dj_Grossjean_2025
     RDKit          3D

 25 28  0  0  0  0  0  0  0  0999 V2000
  132.0800  125.4570   62.9960 C   0  0  0  0  0  0  0  0  0  0  0  0
  131.5690  124.7070   61.7750 C   0  0  0  0  0  0  0  0  0  0  0  0
  131.4660  123.3130   61.8520 C   0  0  0  0  0  0  0  0  0  0  0  0
  131.0050  122.5650   60.7630 C   0  0  0  0  0  0  0  0  0  0  0  0
  130.8780  121.0690   60.8190 C   0  0  0  0  0  0  0  0  0  0  0  0
  131.7920  120.2420   60.1450 C   0  0  0  0  0  0  0  0  0  0  0  0
  131.6810  118.8550   60.1920 C   0  0  0  0  0  0  0  0  0  0  0  0
  130.6450  118.2720   60.9140 C   0  0  0  0  0  0  0  0  0  0  0  0
  129.7230  119.0650   61.5880 C   0  0  0  0  0  0  0  0  0  0  0  0
  129.8390  120.4510   61.5390 C   0  0  0  0  0  0  0  0  0  0  0  0
  130.6230  123.1530   59.5970 N   0  0  0  0  0  0  0  0  0  0  0  0
  130.7220  124.4790   59.5210 C   0  0  0  0  0  0  0  0  0  0  0  0
  130.2740  125.3630   58.0790 S   0  0  0  0  0  0  0  0  0  0  0  0
  130.6960  126.9020   58.8340 C   0  0  0  0  0  0  0  0  0  0  0  0
  130.5510  128.1540   58.0920 C   0  0  0  0  0  0  0  0  0  0  0  0
  129.5270  128.3880   57.4430 O   0  0  0  0  0  0  0  0  0  0  0  0
  131.6050  129.0040   58.1680 N   0  0  0  0  0  0  0  0  0  0  0  0
  131.7220  130.2460   57.5610 C   0  0  0  0  0  0  0  0  0  0  0  0
  130.7630  131.1060   57.2900 N   0  0  0  0  0  0  0  0  0  0  0  0
  131.2360  132.1900   56.7070 C   0  0  0  0  0  0  0  0  0  0  0  0
  132.6110  132.2260   56.4940 C   0  0  0  0  0  0  0  0  0  0  0  0
  133.3130  130.7520   57.0930 S   0  0  0  0  0  0  0  0  0  0  0  0
  131.1640  126.7100   60.1440 C   0  0  0  0  0  0  0  0  0  0  0  0
  131.5670  127.7320   60.9670 N   0  0  0  0  0  0  0  0  0  0  0  0
  131.1860  125.3340   60.5610 C   0  0  0  0  0  0  0  0  0  0  0  0
  1  2  1  0
  2  3  2  0
  3  4  1  0
  4  5  1  0
  5  6  2  0
  6  7  1  0
  7  8  2  0
  8  9  1  0
  9 10  2  0
  4 11  2  0
 11 12  1  0
 12 13  1  0
 13 14  1  0
 14 15  1  0
 15 16  2  0
 15 17  1  0
 17 18  1  0
 18 19  2  0
 19 20  1  0
 20 21  2  0
 21 22  1  0
 14 23  2  0
 23 24  1  0
 23 25  1  0
 25  2  1  0
 10  5  1  0
 25 12  2  0
 22 18  1  0
M  END
>  <Binding energies>  (62) 
[-6.75]

>  <Ligand effiencies>  (62) 
[-0.24107142857142858]

>  <Interactions>  (62) 
["H-A:ASP:366:OD1:3214, V-A:LEU:475:CD2:4259, V-A:GLU:543:CD:4908, V-A:ASP:366:CB:3212, V-A:PRO:540:CA:4883, V-A:PRO:540:CB:4885, V-B:TYR:539:CD2:9846, V-B:TYR:539:CE2:9848, H-A:GLU:543:OE2:4910, V-A:LEU:363:CD1:3189, V-B:ALA:541:CB:9864, V-A:ARG:545:CZ:4926, V-A:LEU:363:CA:3185, V-A:ASP:366:CG:3213, V-A:PRO:540:N:4884, V-A:TYR:539:C:4867, V-A:LEU:475:CD1:4258, V-A:PRO:482:CB:4326, V-A:SER:385:CB:3409, V-A:LEU:475:CG:4257, H-A:GLU:543:OE1:4909, H-A:ASP:366:OD2:3215, V-A:PRO:540:CD:4887, V-A:PRO:540:CG:4886"]

$$$$
4ea_Grossjean_2025
     RDKit          3D

 31 34  0  0  0  0  0  0  0  0999 V2000
  131.7280  117.5600   58.6890 C   0  0  0  0  0  0  0  0  0  0  0  0
  131.3130  117.6650   60.1590 C   0  0  0  0  0  0  0  0  0  0  0  0
  131.0710  119.0270   60.4850 O   0  0  0  0  0  0  0  0  0  0  0  0
  130.0720  119.3780   61.3360 C   0  0  0  0  0  0  0  0  0  0  0  0
  129.4610  118.5670   62.0380 O   0  0  0  0  0  0  0  0  0  0  0  0
  129.7870  120.8520   61.3390 C   0  0  0  0  0  0  0  0  0  0  0  0
  130.8570  121.7550   61.3420 C   0  0  0  0  0  0  0  0  0  0  0  0
  130.6260  123.1280   61.3450 C   0  0  0  0  0  0  0  0  0  0  0  0
  129.3230  123.6260   61.3440 C   0  0  0  0  0  0  0  0  0  0  0  0
  129.2100  125.0300   61.3460 N   0  0  0  0  0  0  0  0  0  0  0  0
  128.9350  125.8910   60.3350 C   0  0  0  0  0  0  0  0  0  0  0  0
  128.7260  125.5500   59.1710 O   0  0  0  0  0  0  0  0  0  0  0  0
  128.8980  127.3060   60.7140 C   0  0  0  0  0  0  0  0  0  0  0  0
  127.5130  127.9600   61.5940 S   0  0  0  0  0  0  0  0  0  0  0  0
  128.2280  129.5550   61.6310 C   0  0  0  0  0  0  0  0  0  0  0  0
  127.6150  130.5890   62.2090 N   0  0  0  0  0  0  0  0  0  0  0  0
  128.2750  131.7720   62.1690 C   0  0  0  0  0  0  0  0  0  0  0  0
  127.5600  132.9340   62.8330 C   0  0  0  0  0  0  0  0  0  0  0  0
  129.5210  131.9440   61.5710 C   0  0  0  0  0  0  0  0  0  0  0  0
  130.1610  130.8570   60.9650 C   0  0  0  0  0  0  0  0  0  0  0  0
  131.4850  131.0560   60.3330 C   0  0  0  0  0  0  0  0  0  0  0  0
  132.5990  131.3700   61.1180 C   0  0  0  0  0  0  0  0  0  0  0  0
  133.8450  131.5540   60.5250 C   0  0  0  0  0  0  0  0  0  0  0  0
  133.9760  131.4280   59.1440 C   0  0  0  0  0  0  0  0  0  0  0  0
  132.8720  131.1210   58.3520 C   0  0  0  0  0  0  0  0  0  0  0  0
  131.6270  130.9360   58.9470 C   0  0  0  0  0  0  0  0  0  0  0  0
  129.5010  129.5980   60.9850 C   0  0  0  0  0  0  0  0  0  0  0  0
  129.8590  128.3010   60.4710 C   0  0  0  0  0  0  0  0  0  0  0  0
  131.0370  128.0770   59.8070 N   0  0  0  0  0  0  0  0  0  0  0  0
  128.2440  122.7280   61.3400 C   0  0  0  0  0  0  0  0  0  0  0  0
  128.4770  121.3560   61.3370 C   0  0  0  0  0  0  0  0  0  0  0  0
  1  2  1  0
  2  3  1  0
  3  4  1  0
  4  5  2  0
  4  6  1  0
  6  7  2  0
  7  8  1  0
  8  9  2  0
  9 10  1  0
 10 11  1  0
 11 12  2  0
 11 13  1  0
 13 14  1  0
 14 15  1  0
 15 16  2  0
 16 17  1  0
 17 18  1  0
 17 19  2  0
 19 20  1  0
 20 21  1  0
 21 22  2  0
 22 23  1  0
 23 24  2  0
 24 25  1  0
 25 26  2  0
 20 27  2  0
 27 28  1  0
 28 29  1  0
  9 30  1  0
 30 31  2  0
 31  6  1  0
 28 13  2  0
 27 15  1  0
 26 21  1  0
M  END
>  <Binding energies>  (63) 
[-6.65]

>  <Ligand effiencies>  (63) 
[-0.19558823529411765]

>  <Interactions>  (63) 
["H-A:ASP:366:OD1:3214, V-A:LEU:475:CD2:4259, V-A:PRO:540:CA:4883, V-A:PRO:540:CB:4885, V-B:TYR:539:CD2:9846, V-A:ASN:362:CB:3176, V-B:PRO:540:CA:9855, V-A:ASN:362:C:3172, V-B:ALA:541:CB:9864, V-A:LEU:363:CA:3185, V-A:ASP:366:CG:3213, V-B:TYR:539:C:9839, V-A:LEU:363:CB:3187, V-B:TYR:539:CG:9844, V-B:PRO:540:C:9853, V-A:ALA:541:CB:4892, V-A:LEU:475:CD1:4258, V-B:ALA:541:CA:9862, V-A:SER:385:CB:3409, H-B:GLU:543:OE2:9882, V-B:TYR:539:CB:9843, H-B:GLU:543:OE1:9881, H-A:GLU:543:OE1:4909, V-A:LEU:373:CD1:3280, V-B:LEU:475:CD2:9231, V-A:ASN:362:CA:3174"]

$$$$
4eb_Grossjean_2025
     RDKit          3D

 30 33  0  0  0  0  0  0  0  0999 V2000
  131.2850  117.9360   59.8710 C   0  0  0  0  0  0  0  0  0  0  0  0
  131.1350  119.2820   60.2980 O   0  0  0  0  0  0  0  0  0  0  0  0
  130.1690  119.6290   61.1880 C   0  0  0  0  0  0  0  0  0  0  0  0
  129.6210  118.8240   61.9450 O   0  0  0  0  0  0  0  0  0  0  0  0
  129.8350  121.0930   61.1580 C   0  0  0  0  0  0  0  0  0  0  0  0
  130.7620  121.9960   60.6210 C   0  0  0  0  0  0  0  0  0  0  0  0
  130.4820  123.3580   60.5790 C   0  0  0  0  0  0  0  0  0  0  0  0
  129.2720  123.8470   61.0730 C   0  0  0  0  0  0  0  0  0  0  0  0
  129.0970  125.2420   60.9790 N   0  0  0  0  0  0  0  0  0  0  0  0
  129.1950  126.2050   61.9280 C   0  0  0  0  0  0  0  0  0  0  0  0
  129.4730  125.9900   63.1080 O   0  0  0  0  0  0  0  0  0  0  0  0
  128.9430  127.5710   61.4610 C   0  0  0  0  0  0  0  0  0  0  0  0
  127.3060  128.2300   61.4740 S   0  0  0  0  0  0  0  0  0  0  0  0
  127.8630  129.7540   60.8210 C   0  0  0  0  0  0  0  0  0  0  0  0
  127.0270  130.7650   60.5780 N   0  0  0  0  0  0  0  0  0  0  0  0
  127.5840  131.8910   60.0720 C   0  0  0  0  0  0  0  0  0  0  0  0
  126.6150  133.0280   59.8030 C   0  0  0  0  0  0  0  0  0  0  0  0
  128.9450  132.0310   59.8060 C   0  0  0  0  0  0  0  0  0  0  0  0
  129.8190  130.9680   60.0630 C   0  0  0  0  0  0  0  0  0  0  0  0
  131.2620  131.1310   59.7750 C   0  0  0  0  0  0  0  0  0  0  0  0
  132.1490  131.4700   60.8010 C   0  0  0  0  0  0  0  0  0  0  0  0
  133.5070  131.6220   60.5320 C   0  0  0  0  0  0  0  0  0  0  0  0
  133.9770  131.4370   59.2340 C   0  0  0  0  0  0  0  0  0  0  0  0
  133.1010  131.1020   58.2040 C   0  0  0  0  0  0  0  0  0  0  0  0
  131.7440  130.9500   58.4750 C   0  0  0  0  0  0  0  0  0  0  0  0
  129.2720  129.7680   60.5940 C   0  0  0  0  0  0  0  0  0  0  0  0
  129.8630  128.5100   60.9680 C   0  0  0  0  0  0  0  0  0  0  0  0
  131.2080  128.2670   60.8460 N   0  0  0  0  0  0  0  0  0  0  0  0
  128.3370  122.9510   61.6130 C   0  0  0  0  0  0  0  0  0  0  0  0
  128.6190  121.5890   61.6540 C   0  0  0  0  0  0  0  0  0  0  0  0
  1  2  1  0
  2  3  1  0
  3  4  2  0
  3  5  1  0
  5  6  2  0
  6  7  1  0
  7  8  2  0
  8  9  1  0
  9 10  1  0
 10 11  2  0
 10 12  1  0
 12 13  1  0
 13 14  1  0
 14 15  2  0
 15 16  1  0
 16 17  1  0
 16 18  2  0
 18 19  1  0
 19 20  1  0
 20 21  2  0
 21 22  1  0
 22 23  2  0
 23 24  1  0
 24 25  2  0
 19 26  2  0
 26 27  1  0
 27 28  1  0
  8 29  1  0
 29 30  2  0
 30  5  1  0
 27 12  2  0
 26 14  1  0
 25 20  1  0
M  END
>  <Binding energies>  (64) 
[-6.39]

>  <Ligand effiencies>  (64) 
[-0.19363636363636363]

>  <Interactions>  (64) 
["H-A:ASP:366:OD1:3214, V-A:LEU:475:CD2:4259, V-A:GLU:543:CD:4908, V-A:PRO:540:CA:4883, V-A:PRO:540:CB:4885, V-B:TYR:539:CD2:9846, V-A:ASN:362:CB:3176, V-B:TYR:539:CE2:9848, V-B:PRO:540:CA:9855, V-A:ASN:362:C:3172, H-A:GLU:543:OE2:4910, V-A:LEU:363:CD1:3189, V-B:ALA:541:CB:9864, V-A:LEU:363:CA:3185, V-A:ASP:366:CG:3213, V-A:LEU:363:CB:3187, V-B:PRO:540:C:9853, V-A:TYR:539:CD1:4873, V-A:PRO:540:C:4881, V-A:TYR:539:CE1:4875, V-A:LEU:475:CD1:4258, V-A:SER:385:CB:3409, V-B:TYR:539:CB:9843, H-A:GLU:543:OE1:4909, H-A:ASP:366:OD2:3215"]

$$$$
8b_Ghoteimi_2023
     RDKit          3D

 34 38  0  0  0  0  0  0  0  0999 V2000
  131.0040  127.8750   72.9200 C   0  0  0  0  0  0  0  0  0  0  0  0
  129.6910  127.7460   72.3860 O   0  0  0  0  0  0  0  0  0  0  0  0
  129.5240  127.6780   71.0160 C   0  0  0  0  0  0  0  0  0  0  0  0
  130.4510  128.3710   70.2400 C   0  0  0  0  0  0  0  0  0  0  0  0
  130.3620  128.3590   68.8520 C   0  0  0  0  0  0  0  0  0  0  0  0
  129.3400  127.6530   68.2010 C   0  0  0  0  0  0  0  0  0  0  0  0
  129.2380  127.6390   66.7090 C   0  0  0  0  0  0  0  0  0  0  0  0
  128.4810  128.5870   66.0130 C   0  0  0  0  0  0  0  0  0  0  0  0
  128.4030  128.5520   64.6180 C   0  0  0  0  0  0  0  0  0  0  0  0
  127.5850  129.5660   63.9120 C   0  0  0  0  0  0  0  0  0  0  0  0
  128.1750  130.7350   63.4320 C   0  0  0  0  0  0  0  0  0  0  0  0
  127.4070  131.6820   62.7600 C   0  0  0  0  0  0  0  0  0  0  0  0
  126.0410  131.4770   62.5610 C   0  0  0  0  0  0  0  0  0  0  0  0
  125.3590  132.4690   61.8830 O   0  0  0  0  0  0  0  0  0  0  0  0
  126.0870  133.3770   61.0640 C   0  0  0  0  0  0  0  0  0  0  0  0
  125.4490  130.3010   63.0490 C   0  0  0  0  0  0  0  0  0  0  0  0
  126.2180  129.3540   63.7200 C   0  0  0  0  0  0  0  0  0  0  0  0
  129.1180  127.5340   63.9330 C   0  0  0  0  0  0  0  0  0  0  0  0
  129.2630  127.2120   62.5370 C   0  0  0  0  0  0  0  0  0  0  0  0
  128.6510  127.9400   61.5490 N   0  0  0  0  0  0  0  0  0  0  0  0
  130.0810  126.0980   62.2930 C   0  0  0  0  0  0  0  0  0  0  0  0
  130.4460  125.5010   61.0070 C   0  0  0  0  0  0  0  0  0  0  0  0
  129.5760  125.1290   60.2150 O   0  0  0  0  0  0  0  0  0  0  0  0
  131.7790  125.3930   60.7720 N   0  0  0  0  0  0  0  0  0  0  0  0
  132.3990  124.8740   59.6440 C   0  0  0  0  0  0  0  0  0  0  0  0
  132.4340  125.5390   58.4190 C   0  0  0  0  0  0  0  0  0  0  0  0
  133.1260  124.7010   57.5760 C   0  0  0  0  0  0  0  0  0  0  0  0
  133.4920  123.5900   58.2570 O   0  0  0  0  0  0  0  0  0  0  0  0
  133.0270  123.7110   59.5680 N   0  0  0  0  0  0  0  0  0  0  0  0
  130.6990  125.4180   63.7990 S   0  0  0  0  0  0  0  0  0  0  0  0
  129.8590  126.6260   64.7440 C   0  0  0  0  0  0  0  0  0  0  0  0
  129.9320  126.6570   66.0740 N   0  0  0  0  0  0  0  0  0  0  0  0
  128.4120  126.9560   68.9870 C   0  0  0  0  0  0  0  0  0  0  0  0
  128.4980  126.9660   70.3770 C   0  0  0  0  0  0  0  0  0  0  0  0
  1  2  1  0
  2  3  1  0
  3  4  2  0
  4  5  1  0
  5  6  2  0
  6  7  1  0
  7  8  2  0
  8  9  1  0
  9 10  1  0
 10 11  2  0
 11 12  1  0
 12 13  2  0
 13 14  1  0
 14 15  1  0
 13 16  1  0
 16 17  2  0
  9 18  2  0
 18 19  1  0
 19 20  1  0
 19 21  2  0
 21 22  1  0
 22 23  2  0
 22 24  1  0
 24 25  1  0
 25 26  1  0
 26 27  2  0
 27 28  1  0
 28 29  1  0
 21 30  1  0
 30 31  1  0
 31 32  2  0
  6 33  1  0
 33 34  2  0
 34  3  1  0
 32  7  1  0
 17 10  1  0
 31 18  1  0
 29 25  2  0
M  END
>  <Binding energies>  (65) 
[-2.64]

>  <Ligand effiencies>  (65) 
[-0.07135135135135136]

>  <Interactions>  (65) 
["V-A:ASP:366:C:3208, V-A:GLU:543:CG:4907, V-A:ASP:366:CA:3210, H-A:ASP:366:OD1:3214, V-A:GLU:543:CD:4908, H-B:TYR:539:OH:9850, V-A:ASP:366:CB:3212, V-B:GLU:543:CD:9880, V-B:TYR:539:CZ:9849, V-A:ILE:369:CG2:3237, V-A:GLU:543:CB:4906, V-B:HIS:456:CE1:9042, V-B:TYR:539:CE2:9848, V-A:TYR:484:CZ:4347, V-A:ASP:366:CG:3213, V-A:HIS:456:CE1:4070, H-A:GLU:543:OE1:4909, H-A:ASP:366:OD2:3215, V-B:GLU:543:CB:9878, V-A:GLY:544:CA:4914, V-A:HIS:456:CD2:4068, V-A:LYS:547:CE:4950, V-B:HIS:456:CD2:9040, V-A:GLY:544:C:4912, V-A:GLU:543:C:4902, V-B:LEU:475:CD2:9231, V-A:GLU:543:CA:4904"]

$$$$
9d_Ghoteimi_2023
     RDKit          3D

 38 43  0  0  0  0  0  0  0  0999 V2000
  128.9290  132.2660   57.8470 C   0  0  0  0  0  0  0  0  0  0  0  0
  127.5640  132.5130   58.1500 O   0  0  0  0  0  0  0  0  0  0  0  0
  127.1910  132.9490   59.3820 C   0  0  0  0  0  0  0  0  0  0  0  0
  126.6910  134.0550   59.6000 O   0  0  0  0  0  0  0  0  0  0  0  0
  127.4520  131.9560   60.4480 C   0  0  0  0  0  0  0  0  0  0  0  0
  127.9030  132.5000   62.0630 S   0  0  0  0  0  0  0  0  0  0  0  0
  127.9830  130.8510   62.6390 C   0  0  0  0  0  0  0  0  0  0  0  0
  128.2710  130.5690   63.9090 N   0  0  0  0  0  0  0  0  0  0  0  0
  128.2900  129.2570   64.2600 C   0  0  0  0  0  0  0  0  0  0  0  0
  128.5910  128.9650   65.6960 C   0  0  0  0  0  0  0  0  0  0  0  0
  129.1020  127.7200   66.0750 C   0  0  0  0  0  0  0  0  0  0  0  0
  129.3820  127.4370   67.4090 C   0  0  0  0  0  0  0  0  0  0  0  0
  129.1740  128.3970   68.4130 C   0  0  0  0  0  0  0  0  0  0  0  0
  129.4340  128.1220   69.7600 N   0  0  0  0  0  0  0  0  0  0  0  0
  128.7820  126.9930   70.4540 C   0  0  0  0  0  0  0  0  0  0  0  0
  128.9100  127.0470   71.9900 C   0  0  0  0  0  0  0  0  0  0  0  0
  130.2750  127.1520   72.3600 O   0  0  0  0  0  0  0  0  0  0  0  0
  130.8660  128.3290   71.8360 C   0  0  0  0  0  0  0  0  0  0  0  0
  130.7980  128.3170   70.2940 C   0  0  0  0  0  0  0  0  0  0  0  0
  128.6470  129.6380   68.0290 C   0  0  0  0  0  0  0  0  0  0  0  0
  128.3630  129.9190   66.6950 C   0  0  0  0  0  0  0  0  0  0  0  0
  128.0560  128.2340   63.3380 C   0  0  0  0  0  0  0  0  0  0  0  0
  127.7720  128.5250   61.9980 C   0  0  0  0  0  0  0  0  0  0  0  0
  127.5580  127.3980   61.0520 C   0  0  0  0  0  0  0  0  0  0  0  0
  126.5660  126.4450   61.2910 C   0  0  0  0  0  0  0  0  0  0  0  0
  126.3570  125.4020   60.3930 C   0  0  0  0  0  0  0  0  0  0  0  0
  127.1250  125.2940   59.2230 C   0  0  0  0  0  0  0  0  0  0  0  0
  126.9410  124.2520   58.3110 N   0  0  0  0  0  0  0  0  0  0  0  0
  125.6390  123.5580   58.2670 C   0  0  0  0  0  0  0  0  0  0  0  0
  125.4390  122.7200   56.9860 C   0  0  0  0  0  0  0  0  0  0  0  0
  126.5090  121.8000   56.8340 O   0  0  0  0  0  0  0  0  0  0  0  0
  127.7610  122.4640   56.7350 C   0  0  0  0  0  0  0  0  0  0  0  0
  128.0200  123.2910   58.0120 C   0  0  0  0  0  0  0  0  0  0  0  0
  128.1190  126.2560   58.9940 C   0  0  0  0  0  0  0  0  0  0  0  0
  128.3290  127.2970   59.8930 C   0  0  0  0  0  0  0  0  0  0  0  0
  127.7050  129.8940   61.6180 C   0  0  0  0  0  0  0  0  0  0  0  0
  127.3870  130.5590   60.3810 C   0  0  0  0  0  0  0  0  0  0  0  0
  127.0280  129.8820   59.2440 N   0  0  0  0  0  0  0  0  0  0  0  0
  1  2  1  0
  2  3  1  0
  3  4  2  0
  3  5  1  0
  5  6  1  0
  6  7  1  0
  7  8  2  0
  8  9  1  0
  9 10  1  0
 10 11  2  0
 11 12  1  0
 12 13  2  0
 13 14  1  0
 14 15  1  0
 15 16  1  0
 16 17  1  0
 17 18  1  0
 18 19  1  0
 13 20  1  0
 20 21  2  0
  9 22  2  0
 22 23  1  0
 23 24  1  0
 24 25  2  0
 25 26  1  0
 26 27  2  0
 27 28  1  0
 28 29  1  0
 29 30  1  0
 30 31  1  0
 31 32  1  0
 32 33  1  0
 27 34  1  0
 34 35  2  0
 23 36  2  0
 36 37  1  0
 37 38  1  0
 37  5  2  0
 36  7  1  0
 21 10  1  0
 35 24  1  0
 19 14  1  0
 33 28  1  0
M  END
>  <Binding energies>  (66) 
[-4.38]

>  <Ligand effiencies>  (66) 
[-0.1095]

>  <Interactions>  (66) 
["V-A:GLU:543:CG:4907, V-B:TYR:539:CE1:9847, V-A:GLU:543:CD:4908, V-B:GLU:543:CD:9880, V-B:TYR:539:CZ:9849, V-B:TYR:484:CZ:9319, V-A:GLU:543:CB:4906, V-A:PRO:540:CA:4883, V-B:TYR:539:CD2:9846, H-B:TYR:484:OH:9320, V-B:HIS:456:CE1:9042, V-B:TYR:539:CE2:9848, V-B:PRO:540:CA:9855, V-B:ASP:366:CG:8185, V-A:PRO:540:N:4884, V-B:TYR:539:C:9839, V-A:HIS:456:CE1:4070, V-A:TYR:539:C:4867, V-B:TYR:539:CG:9844, V-A:TYR:539:CD1:4873, V-B:PRO:540:N:9856, H-B:TYR:539:N:9842, V-A:TYR:539:CE1:4875, V-A:ALA:541:CB:4892, V-B:PRO:540:CB:9857, V-A:GLY:544:CA:4914, V-A:HIS:456:CD2:4068, V-B:HIS:456:CD2:9040, V-A:GLY:544:C:4912, V-A:GLU:543:C:4902, V-B:TYR:539:CD1:9845, V-B:PRO:540:CD:9859, V-B:TYR:539:CA:9841, V-B:TYR:484:CE2:9318, V-A:GLU:543:CA:4904"]

$$$$
RR10_Rahimova_2017
     RDKit          3D

 34 38  0  0  0  0  0  0  0  0999 V2000
  133.6830  124.5260   58.1410 C   0  0  0  0  0  0  0  0  0  0  0  0
  133.6160  123.9470   59.5650 C   0  0  1  0  0  0  0  0  0  0  0  0
  132.7700  124.8330   60.5090 C   0  0  0  0  0  0  0  0  0  0  0  0
  132.7460  124.2510   61.9410 C   0  0  0  0  0  0  0  0  0  0  0  0
  132.1950  122.8030   61.9740 C   0  0  1  0  0  0  0  0  0  0  0  0
  130.7640  122.7830   61.6430 N   0  0  0  0  0  0  0  0  0  0  0  0
  129.8920  121.8240   62.0060 C   0  0  0  0  0  0  0  0  0  0  0  0
  130.2130  120.8490   62.6900 O   0  0  0  0  0  0  0  0  0  0  0  0
  128.4400  121.9820   61.5100 C   0  0  1  0  0  0  0  0  0  0  0  0
  127.6150  122.7560   62.5710 C   0  0  0  0  0  0  0  0  0  0  0  0
  126.1830  122.9980   62.0380 C   0  0  0  0  0  0  0  0  0  0  0  0
  126.1750  123.6510   60.6370 C   0  0  0  0  0  0  0  0  0  0  0  0
  127.0380  122.8870   59.6960 N   0  0  0  0  0  0  0  0  0  0  0  0
  126.8730  123.3630   57.9970 S   0  0  0  0  0  0  0  0  0  0  0  0
  125.4420  123.4200   57.6760 O   0  0  0  0  0  0  0  0  0  0  0  0
  127.7760  122.5210   57.2030 O   0  0  0  0  0  0  0  0  0  0  0  0
  127.4840  125.0470   57.9240 C   0  0  0  0  0  0  0  0  0  0  0  0
  126.5920  126.0880   57.6480 C   0  0  0  0  0  0  0  0  0  0  0  0
  127.0050  127.4220   57.5750 C   0  0  0  0  0  0  0  0  0  0  0  0
  128.3620  127.6680   57.7950 C   0  0  0  0  0  0  0  0  0  0  0  0
  129.1350  128.8040   57.8040 N   0  0  0  0  0  0  0  0  0  0  0  0
  130.4340  128.4330   58.0820 C   0  0  0  0  0  0  0  0  0  0  0  0
  131.5760  129.4040   58.1680 C   0  0  0  0  0  0  0  0  0  0  0  0
  132.5590  129.4340   57.1690 C   0  0  0  0  0  0  0  0  0  0  0  0
  133.6160  130.3370   57.2450 C   0  0  0  0  0  0  0  0  0  0  0  0
  133.6970  131.2150   58.3220 C   0  0  0  0  0  0  0  0  0  0  0  0
  132.7290  131.1990   59.3220 C   0  0  0  0  0  0  0  0  0  0  0  0
  131.6720  130.2960   59.2450 C   0  0  0  0  0  0  0  0  0  0  0  0
  130.5480  127.1350   58.2600 N   0  0  0  0  0  0  0  0  0  0  0  0
  129.2850  126.6340   58.0850 C   0  0  0  0  0  0  0  0  0  0  0  0
  128.8410  125.3060   58.1550 C   0  0  0  0  0  0  0  0  0  0  0  0
  128.4410  122.7450   60.1620 C   0  0  0  0  0  0  0  0  0  0  0  0
  133.0420  121.9290   61.0090 C   0  0  0  0  0  0  0  0  0  0  0  0
  133.0620  122.5030   59.5750 C   0  0  0  0  0  0  0  0  0  0  0  0
  2  1  1  6
  2  3  1  0
  3  4  1  0
  4  5  1  0
  5  6  1  6
  6  7  1  0
  7  8  2  0
  9  7  1  1
  9 10  1  0
 10 11  1  0
 11 12  1  0
 12 13  1  0
 13 14  1  0
 14 15  2  0
 14 16  2  0
 14 17  1  0
 17 18  2  0
 18 19  1  0
 19 20  2  0
 20 21  1  0
 21 22  1  0
 22 23  1  0
 23 24  2  0
 24 25  1  0
 25 26  2  0
 26 27  1  0
 27 28  2  0
 22 29  2  0
 29 30  1  0
 30 31  2  0
 13 32  1  0
  5 33  1  0
 33 34  1  0
 34  2  1  0
 32  9  1  0
 31 17  1  0
 30 20  1  0
 28 23  1  0
M  END
>  <Binding energies>  (67) 
[-8.78]

>  <Ligand effiencies>  (67) 
[-0.24388888888888888]

>  <Interactions>  (67) 
["V-A:ASP:366:C:3208, V-A:ASP:366:CA:3210, H-B:TYR:531:OH:9767, V-A:LEU:475:CD2:4259, V-A:ASP:366:CB:3212, V-B:GLU:543:CD:9880, V-A:ILE:369:CG2:3237, V-A:PRO:540:CA:4883, V-A:ILE:369:CB:3236, V-A:PRO:540:CB:4885, V-B:TYR:539:CD2:9846, H-A:TYR:484:OH:4348, V-B:TYR:539:CE2:9848, V-A:ILE:369:CD1:3239, V-A:TYR:531:CZ:4794, V-B:PRO:540:CA:9855, V-B:GLU:543:CG:9879, V-A:LEU:363:CD1:3189, V-B:ALA:541:CB:9864, V-A:LEU:363:CA:3185, V-A:ASP:366:CG:3213, V-B:TYR:531:CZ:9766, V-A:LEU:363:CB:3187, V-B:PRO:540:C:9853, V-B:PRO:540:N:9856, H-B:TYR:539:N:9842, V-A:TYR:484:CE1:4345, V-B:ALA:541:CA:9862, V-B:PRO:540:CB:9857"]

$$$$
RR12_Rahimova_2017
     RDKit          3D

 26 28  0  0  0  0  0  0  0  0999 V2000
  129.4610  124.6240   62.8990 C   0  0  0  0  0  0  0  0  0  0  0  0
  129.9080  125.2600   61.5760 C   0  0  0  0  0  0  0  0  0  0  0  0
  131.3410  125.8170   61.6410 C   0  0  0  0  0  0  0  0  0  0  0  0
  132.1500  125.2970   60.5410 N   0  0  0  0  0  0  0  0  0  0  0  0
  133.1370  124.3250   60.6060 C   0  0  0  0  0  0  0  0  0  0  0  0
  133.5820  123.6530   61.8930 C   0  0  0  0  0  0  0  0  0  0  0  0
  133.0610  122.2090   62.0130 C   0  0  0  0  0  0  0  0  0  0  0  0
  132.5970  121.6300   60.6620 C   0  0  0  0  0  0  0  0  0  0  0  0
  131.1790  121.8490   60.3820 N   0  0  0  0  0  0  0  0  0  0  0  0
  130.1810  121.6820   61.2690 C   0  0  0  0  0  0  0  0  0  0  0  0
  130.3670  121.3170   62.4330 O   0  0  0  0  0  0  0  0  0  0  0  0
  128.7710  121.9820   60.7470 C   0  0  0  0  0  0  0  0  0  0  0  0
  128.8130  122.1480   59.3290 O   0  0  0  0  0  0  0  0  0  0  0  0
  127.6900  122.6080   58.6680 C   0  0  0  0  0  0  0  0  0  0  0  0
  126.7250  123.2450   59.4530 C   0  0  0  0  0  0  0  0  0  0  0  0
  125.5610  123.7450   58.8750 C   0  0  0  0  0  0  0  0  0  0  0  0
  125.3590  123.6100   57.5050 C   0  0  0  0  0  0  0  0  0  0  0  0
  126.3090  122.9760   56.7080 C   0  0  0  0  0  0  0  0  0  0  0  0
  127.4730  122.4750   57.2860 C   0  0  0  0  0  0  0  0  0  0  0  0
  133.6690  124.0480   59.4420 N   0  0  0  0  0  0  0  0  0  0  0  0
  133.0020  124.8420   58.5520 C   0  0  0  0  0  0  0  0  0  0  0  0
  133.1630  124.9390   57.1610 C   0  0  0  0  0  0  0  0  0  0  0  0
  132.3450  125.8310   56.4660 C   0  0  0  0  0  0  0  0  0  0  0  0
  131.3930  126.6070   57.1270 C   0  0  0  0  0  0  0  0  0  0  0  0
  131.2090  126.5340   58.5090 C   0  0  0  0  0  0  0  0  0  0  0  0
  132.0310  125.6400   59.2070 C   0  0  0  0  0  0  0  0  0  0  0  0
  1  2  1  0
  2  3  1  0
  3  4  1  0
  4  5  1  0
  5  6  1  0
  6  7  1  0
  7  8  1  0
  8  9  1  0
  9 10  1  0
 10 11  2  0
 10 12  1  0
 12 13  1  0
 13 14  1  0
 14 15  2  0
 15 16  1  0
 16 17  2  0
 17 18  1  0
 18 19  2  0
  5 20  2  0
 20 21  1  0
 21 22  2  0
 22 23  1  0
 23 24  2  0
 24 25  1  0
 25 26  2  0
 26  4  1  0
 19 14  1  0
 26 21  1  0
M  END
>  <Binding energies>  (68) 
[-6.33]

>  <Ligand effiencies>  (68) 
[-0.23444444444444446]

>  <Interactions>  (68) 
["V-A:ASP:366:C:3208, V-A:ASP:366:CA:3210, V-A:LEU:475:CD2:4259, V-A:ASP:366:CB:3212, V-B:GLU:543:CD:9880, V-B:TYR:539:CZ:9849, V-A:ILE:369:CG2:3237, V-B:TYR:539:CD2:9846, V-A:GLY:454:CA:4049, H-A:TYR:484:OH:4348, V-B:TYR:539:CE2:9848, V-A:ILE:369:CD1:3239, V-B:PRO:540:CA:9855, V-A:ASP:366:CG:3213, V-B:TYR:539:C:9839, V-B:TYR:539:CG:9844, V-B:PRO:540:N:9856, V-B:PRO:540:CB:9857, V-B:TYR:539:CD1:9845, V-B:TYR:539:CA:9841"]

$$$$
RR13_Rahimova_2017
     RDKit          3D

 48 54  0  0  0  0  0  0  0  0999 V2000
  132.8760  124.6140   58.1080 Cl  0  0  0  0  0  0  0  0  0  0  0  0
  132.9180  124.6720   59.8380 C   0  0  0  0  0  0  0  0  0  0  0  0
  134.0920  124.2630   60.4740 C   0  0  0  0  0  0  0  0  0  0  0  0
  134.1820  124.2660   61.8630 C   0  0  0  0  0  0  0  0  0  0  0  0
  133.0940  124.6780   62.6280 C   0  0  0  0  0  0  0  0  0  0  0  0
  131.9190  125.0880   62.0010 C   0  0  0  0  0  0  0  0  0  0  0  0
  131.8130  125.1030   60.6000 C   0  0  0  0  0  0  0  0  0  0  0  0
  130.4910  125.5380   59.9300 C   0  0  1  0  0  0  0  0  0  0  0  0
  129.6990  124.3200   59.4300 C   0  0  0  0  0  0  0  0  0  0  0  0
  129.4580  124.0000   58.1780 N   0  0  0  0  0  0  0  0  0  0  0  0
  128.6870  122.8420   58.2220 N   0  0  0  0  0  0  0  0  0  0  0  0
  128.4520  122.4790   59.5330 N   0  0  0  0  0  0  0  0  0  0  0  0
  129.0650  123.4200   60.2600 N   0  0  0  0  0  0  0  0  0  0  0  0
  129.0640  123.3450   61.7160 C   0  0  0  0  0  0  0  0  0  0  0  0
  129.3440  121.9020   62.1760 C   0  0  0  0  0  0  0  0  0  0  0  0
  130.4780  121.2590   61.3940 C   0  0  0  0  0  0  0  0  0  0  0  0
  131.6920  121.9340   61.2430 C   0  0  0  0  0  0  0  0  0  0  0  0
  132.7270  121.3470   60.5200 C   0  0  0  0  0  0  0  0  0  0  0  0
  132.5450  120.0890   59.9500 C   0  0  0  0  0  0  0  0  0  0  0  0
  131.3370  119.4110   60.0960 C   0  0  0  0  0  0  0  0  0  0  0  0
  130.3000  119.9970   60.8190 C   0  0  0  0  0  0  0  0  0  0  0  0
  129.6700  126.4380   60.7740 N   0  0  0  0  0  0  0  0  0  0  0  0
  128.2340  126.1610   60.5810 C   0  0  0  0  0  0  0  0  0  0  0  0
  127.3770  127.0030   61.5550 C   0  0  0  0  0  0  0  0  0  0  0  0
  127.5820  128.4420   61.3160 N   0  0  0  0  0  0  0  0  0  0  0  0
  126.7170  129.2870   62.1720 C   0  0  1  0  0  0  0  0  0  0  0  0
  127.2070  129.4850   63.6240 C   0  0  0  0  0  0  0  0  0  0  0  0
  126.8800  128.4860   64.5510 C   0  0  0  0  0  0  0  0  0  0  0  0
  127.2940  128.5730   65.8800 C   0  0  0  0  0  0  0  0  0  0  0  0
  128.0410  129.6680   66.3030 C   0  0  0  0  0  0  0  0  0  0  0  0
  128.3630  130.6790   65.4020 C   0  0  0  0  0  0  0  0  0  0  0  0
  127.9490  130.6030   64.0690 C   0  0  0  0  0  0  0  0  0  0  0  0
  128.3400  131.9430   63.0440 Cl  0  0  0  0  0  0  0  0  0  0  0  0
  126.3850  130.6400   61.5410 C   0  0  0  0  0  0  0  0  0  0  0  0
  125.4400  131.4580   61.9450 N   0  0  0  0  0  0  0  0  0  0  0  0
  125.5050  132.5630   61.1030 N   0  0  0  0  0  0  0  0  0  0  0  0
  126.5240  132.4010   60.1870 N   0  0  0  0  0  0  0  0  0  0  0  0
  127.0670  131.2160   60.4900 N   0  0  0  0  0  0  0  0  0  0  0  0
  128.1800  130.6990   59.7010 C   0  0  0  0  0  0  0  0  0  0  0  0
  129.5060  131.3330   60.1610 C   0  0  0  0  0  0  0  0  0  0  0  0
  130.5970  131.2090   59.1090 C   0  0  0  0  0  0  0  0  0  0  0  0
  130.2550  131.0910   57.7590 C   0  0  0  0  0  0  0  0  0  0  0  0
  131.2540  130.9850   56.7950 C   0  0  0  0  0  0  0  0  0  0  0  0
  132.5930  130.9960   57.1850 C   0  0  0  0  0  0  0  0  0  0  0  0
  132.9400  131.1150   58.5300 C   0  0  0  0  0  0  0  0  0  0  0  0
  131.9410  131.2220   59.4940 C   0  0  0  0  0  0  0  0  0  0  0  0
  129.0160  128.7150   61.5150 C   0  0  0  0  0  0  0  0  0  0  0  0
  129.8680  127.8780   60.5320 C   0  0  0  0  0  0  0  0  0  0  0  0
  1  2  1  0
  2  3  2  0
  3  4  1  0
  4  5  2  0
  5  6  1  0
  6  7  2  0
  7  8  1  0
  8  9  1  0
  9 10  2  0
 10 11  1  0
 11 12  2  0
 12 13  1  0
 13 14  1  0
 14 15  1  0
 15 16  1  0
 16 17  2  0
 17 18  1  0
 18 19  2  0
 19 20  1  0
 20 21  2  0
  8 22  1  1
 22 23  1  0
 23 24  1  0
 24 25  1  0
 26 25  1  6
 26 27  1  0
 27 28  2  0
 28 29  1  0
 29 30  2  0
 30 31  1  0
 31 32  2  0
 32 33  1  0
 26 34  1  0
 34 35  2  0
 35 36  1  0
 36 37  2  0
 37 38  1  0
 38 39  1  0
 39 40  1  0
 40 41  1  0
 41 42  2  0
 42 43  1  0
 43 44  2  0
 44 45  1  0
 45 46  2  0
 25 47  1  0
 47 48  1  0
  7  2  1  0
 13  9  1  0
 21 16  1  0
 48 22  1  0
 32 27  1  0
 38 34  1  0
 46 41  1  0
M  END
>  <Binding energies>  (69) 
[-9.34]

>  <Ligand effiencies>  (69) 
[-0.19458333333333333]

>  <Interactions>  (69) 
["V-A:GLU:543:CG:4907, V-A:ASP:366:CA:3210, V-A:LEU:475:CD2:4259, V-A:GLU:543:CD:4908, H-B:TYR:539:OH:9850, V-A:ASP:366:CB:3212, V-B:GLU:543:CD:9880, V-B:TYR:539:CZ:9849, V-A:ILE:369:CG2:3237, V-B:TYR:484:CZ:9319, V-A:GLU:543:CB:4906, V-A:PRO:540:CA:4883, V-A:PRO:540:CB:4885, V-B:TYR:539:CD2:9846, V-B:HIS:456:CE1:9042, V-B:TYR:539:CE2:9848, V-A:ILE:369:CD1:3239, V-A:LEU:363:CD1:3189, V-B:ALA:541:CB:9864, V-A:ARG:545:CZ:4926, V-A:ASP:366:CG:3213, V-B:TYR:539:C:9839, V-B:TYR:539:CG:9844, V-A:GLY:453:C:4042, V-A:TYR:484:CE1:4345, V-A:ALA:541:CB:4892, V-A:GLY:453:CA:4044, V-A:SER:385:CB:3409, V-B:TYR:484:CE2:9318, V-A:GLU:543:CA:4904"]

$$$$
RR14_Rahimova_2017
     RDKit          3D

 39 43  0  0  0  0  0  0  0  0999 V2000
  133.5990  125.0760   65.5060 C   0  0  0  0  0  0  0  0  0  0  0  0
  134.1310  125.1310   64.1870 O   0  0  0  0  0  0  0  0  0  0  0  0
  133.2800  124.9680   63.1110 C   0  0  0  0  0  0  0  0  0  0  0  0
  133.7750  124.2370   62.0300 C   0  0  0  0  0  0  0  0  0  0  0  0
  132.9990  124.0410   60.8920 C   0  0  0  0  0  0  0  0  0  0  0  0
  131.7140  124.5840   60.8220 C   0  0  0  0  0  0  0  0  0  0  0  0
  130.8860  124.4280   59.5520 C   0  0  0  0  0  0  0  0  0  0  0  0
  131.5180  125.0200   58.3730 N   0  0  0  0  0  0  0  0  0  0  0  0
  132.7950  124.7470   58.0810 N   0  0  0  0  0  0  0  0  0  0  0  0
  133.0610  125.4850   56.9450 N   0  0  0  0  0  0  0  0  0  0  0  0
  131.9320  126.2060   56.5670 N   0  0  0  0  0  0  0  0  0  0  0  0
  131.0100  125.9120   57.4540 C   0  0  0  0  0  0  0  0  0  0  0  0
  129.5980  126.4820   57.4720 C   0  0  0  0  0  0  0  0  0  0  0  0
  128.6390  125.6330   56.7470 N   0  0  0  0  0  0  0  0  0  0  0  0
  128.7560  124.2210   57.1320 C   0  0  0  0  0  0  0  0  0  0  0  0
  127.7190  123.7850   58.1890 C   0  0  0  0  0  0  0  0  0  0  0  0
  128.0650  122.4520   58.8850 C   0  0  0  0  0  0  0  0  0  0  0  0
  128.7440  122.6290   60.1730 N   0  0  0  0  0  0  0  0  0  0  0  0
  129.7380  121.5670   60.3770 C   0  0  0  0  0  0  0  0  0  0  0  0
  130.4340  121.6940   61.7480 C   0  0  0  0  0  0  0  0  0  0  0  0
  129.4630  121.7310   62.7890 O   0  0  0  0  0  0  0  0  0  0  0  0
  128.5690  122.8290   62.6520 C   0  0  0  0  0  0  0  0  0  0  0  0
  127.8140  122.7360   61.3080 C   0  0  0  0  0  0  0  0  0  0  0  0
  127.2680  126.1150   56.9700 C   0  0  0  0  0  0  0  0  0  0  0  0
  127.1020  127.1960   58.0360 C   0  0  0  0  0  0  0  0  0  0  0  0
  127.3640  126.9380   59.3410 C   0  0  0  0  0  0  0  0  0  0  0  0
  127.1730  127.9530   60.3970 C   0  0  0  0  0  0  0  0  0  0  0  0
  127.4540  127.7260   61.7550 C   0  0  0  0  0  0  0  0  0  0  0  0
  127.9870  126.3870   62.2470 C   0  0  0  0  0  0  0  0  0  0  0  0
  127.2410  128.7560   62.6740 C   0  0  0  0  0  0  0  0  0  0  0  0
  126.7560  129.9940   62.2560 C   0  0  0  0  0  0  0  0  0  0  0  0
  126.4760  130.2310   60.9070 C   0  0  0  0  0  0  0  0  0  0  0  0
  125.9500  131.5960   60.4820 C   0  0  0  0  0  0  0  0  0  0  0  0
  126.6870  129.2030   59.9750 C   0  0  0  0  0  0  0  0  0  0  0  0
  126.4150  129.3950   58.6040 N   0  0  0  0  0  0  0  0  0  0  0  0
  126.5750  128.4940   57.6020 C   0  0  0  0  0  0  0  0  0  0  0  0
  126.2830  128.7910   56.4440 O   0  0  0  0  0  0  0  0  0  0  0  0
  131.1980  125.2910   61.9090 C   0  0  0  0  0  0  0  0  0  0  0  0
  131.9760  125.4870   63.0470 C   0  0  0  0  0  0  0  0  0  0  0  0
  1  2  1  0
  2  3  1  0
  3  4  2  0
  4  5  1  0
  5  6  2  0
  6  7  1  0
  7  8  1  0
  8  9  1  0
  9 10  2  0
 10 11  1  0
 11 12  2  0
 12 13  1  0
 13 14  1  0
 14 15  1  0
 15 16  1  0
 16 17  1  0
 17 18  1  0
 18 19  1  0
 19 20  1  0
 20 21  1  0
 21 22  1  0
 22 23  1  0
 14 24  1  0
 24 25  1  0
 25 26  2  0
 26 27  1  0
 27 28  2  0
 28 29  1  0
 28 30  1  0
 30 31  2  0
 31 32  1  0
 32 33  1  0
 32 34  2  0
 34 35  1  0
 35 36  1  0
 36 37  2  0
  6 38  1  0
 38 39  2  0
 39  3  1  0
 12  8  1  0
 23 18  1  0
 36 25  1  0
 34 27  1  0
M  END
>  <Binding energies>  (70) 
[-7.5]

>  <Ligand effiencies>  (70) 
[-0.1875]

>  <Interactions>  (70) 
["V-B:MET:535:CE:9807, H-B:TYR:531:OH:9767, V-A:LEU:475:CD2:4259, H-B:TYR:539:OH:9850, V-B:GLU:543:CD:9880, V-B:TYR:539:CZ:9849, V-B:TYR:539:CD2:9846, V-A:GLY:454:CA:4049, H-A:TYR:484:OH:4348, V-B:TYR:539:CE2:9848, V-A:ILE:369:CD1:3239, V-A:TYR:484:CZ:4347, V-B:PRO:540:CA:9855, V-B:GLU:543:CG:9879, V-B:ALA:541:CB:9864, V-A:ARG:545:CZ:4926, H-A:ARG:545:NH2:4928, V-B:TYR:539:C:9839, H-A:ARG:545:NE:4924, V-A:TYR:484:CE2:4346, H-A:ARG:545:NH1:4927, H-A:GLY:454:N:4050, V-A:ARG:545:CG:4922, V-A:ARG:545:CD:4923, V-B:PRO:540:N:9856, V-A:TYR:484:CE1:4345"]

$$$$
RR15_Rahimova_2017
     RDKit          3D

 45 49  0  0  0  0  0  0  0  0999 V2000
  128.6550  128.0830   74.6980 C   0  0  0  0  0  0  0  0  0  0  0  0
  129.0830  127.0030   73.8750 O   0  0  0  0  0  0  0  0  0  0  0  0
  129.0210  127.1290   72.4980 C   0  0  0  0  0  0  0  0  0  0  0  0
  128.0430  126.5090   71.7040 C   0  0  0  0  0  0  0  0  0  0  0  0
  128.0390  126.6750   70.3210 C   0  0  0  0  0  0  0  0  0  0  0  0
  129.0100  127.4610   69.6920 C   0  0  0  0  0  0  0  0  0  0  0  0
  129.0090  127.6350   68.1980 C   0  0  0  0  0  0  0  0  0  0  0  0
  129.7380  126.8830   67.3850 N   0  0  0  0  0  0  0  0  0  0  0  0
  129.4830  127.3420   66.1090 N   0  0  0  0  0  0  0  0  0  0  0  0
  128.5830  128.3080   66.2970 N   0  0  0  0  0  0  0  0  0  0  0  0
  128.1480  129.1840   65.2110 C   0  0  0  0  0  0  0  0  0  0  0  0
  127.3100  128.4860   64.1100 C   0  0  0  0  0  0  0  0  0  0  0  0
  126.0830  128.4720   64.2330 O   0  0  0  0  0  0  0  0  0  0  0  0
  127.9390  127.9360   63.0260 N   0  0  0  0  0  0  0  0  0  0  0  0
  128.8430  126.7780   63.1690 C   0  0  0  0  0  0  0  0  0  0  0  0
  130.1220  126.8830   62.3110 C   0  0  0  0  0  0  0  0  0  0  0  0
  131.3310  126.0800   62.8480 C   0  0  0  0  0  0  0  0  0  0  0  0
  132.2390  125.6080   61.7980 N   0  0  0  0  0  0  0  0  0  0  0  0
  132.8530  124.3050   62.0950 C   0  0  0  0  0  0  0  0  0  0  0  0
  133.7300  123.8140   60.9230 C   0  0  0  0  0  0  0  0  0  0  0  0
  132.9720  123.7900   59.7180 O   0  0  0  0  0  0  0  0  0  0  0  0
  132.4620  125.0730   59.3730 C   0  0  0  0  0  0  0  0  0  0  0  0
  131.5470  125.5970   60.5010 C   0  0  0  0  0  0  0  0  0  0  0  0
  127.6270  128.3170   61.6140 C   0  0  2  0  0  0  0  0  0  0  0  0
  127.1540  127.1260   60.7230 C   0  0  0  0  0  0  0  0  0  0  0  0
  127.1830  127.2010   59.4950 O   0  0  0  0  0  0  0  0  0  0  0  0
  126.7610  126.0240   61.3860 N   0  0  0  0  0  0  0  0  0  0  0  0
  126.3780  124.7600   60.7680 C   0  0  0  0  0  0  0  0  0  0  0  0
  127.5710  123.7890   60.6990 C   0  0  2  0  0  0  0  0  0  0  0  0
  127.3840  122.4580   61.4490 C   0  0  0  0  0  0  0  0  0  0  0  0
  128.1500  122.6380   62.7370 C   0  0  0  0  0  0  0  0  0  0  0  0
  129.2960  123.5260   62.2820 C   0  0  0  0  0  0  0  0  0  0  0  0
  128.6490  124.4320   61.3950 O   0  0  0  0  0  0  0  0  0  0  0  0
  128.7120  129.2270   61.0510 C   0  0  0  0  0  0  0  0  0  0  0  0
  128.9390  130.4550   61.6850 C   0  0  0  0  0  0  0  0  0  0  0  0
  129.9160  131.3270   61.2140 C   0  0  0  0  0  0  0  0  0  0  0  0
  130.6780  130.9760   60.1030 C   0  0  0  0  0  0  0  0  0  0  0  0
  131.6280  131.8220   59.6460 F   0  0  0  0  0  0  0  0  0  0  0  0
  130.4680  129.7590   59.4600 C   0  0  0  0  0  0  0  0  0  0  0  0
  129.4890  128.8880   59.9310 C   0  0  0  0  0  0  0  0  0  0  0  0
  128.2890  128.5520   67.5800 N   0  0  0  0  0  0  0  0  0  0  0  0
  129.9830  128.0800   70.4880 C   0  0  0  0  0  0  0  0  0  0  0  0
  129.9980  127.9250   71.8840 C   0  0  0  0  0  0  0  0  0  0  0  0
  130.9360  128.5190   72.7120 O   0  0  0  0  0  0  0  0  0  0  0  0
  131.7380  127.7060   73.5620 C   0  0  0  0  0  0  0  0  0  0  0  0
  1  2  1  0
  2  3  1  0
  3  4  2  0
  4  5  1  0
  5  6  2  0
  6  7  1  0
  7  8  1  0
  8  9  2  0
  9 10  1  0
 10 11  1  0
 11 12  1  0
 12 13  2  0
 12 14  1  0
 14 15  1  0
 15 16  1  0
 16 17  1  0
 17 18  1  0
 18 19  1  0
 19 20  1  0
 20 21  1  0
 21 22  1  0
 22 23  1  0
 24 14  1  1
 24 25  1  0
 25 26  2  0
 25 27  1  0
 27 28  1  0
 29 28  1  1
 29 30  1  0
 30 31  1  0
 31 32  1  0
 32 33  1  0
 24 34  1  0
 34 35  2  0
 35 36  1  0
 36 37  2  0
 37 38  1  0
 37 39  1  0
 39 40  2  0
 10 41  1  0
  6 42  1  0
 42 43  2  0
 43 44  1  0
 44 45  1  0
 43  3  1  0
 41  7  2  0
 23 18  1  0
 33 29  1  0
 40 34  1  0
M  END
>  <Binding energies>  (71) 
[-5.84]

>  <Ligand effiencies>  (71) 
[-0.12695652173913044]

>  <Interactions>  (71) 
["V-A:GLU:543:CG:4907, V-A:GLU:543:CD:4908, V-A:ASP:366:CB:3212, V-B:GLU:543:CD:9880, V-A:GLU:543:CB:4906, V-A:PRO:540:CA:4883, V-A:PRO:540:CB:4885, V-B:HIS:456:CE1:9042, V-A:ILE:369:CD1:3239, V-B:PRO:540:CA:9855, V-B:GLU:543:CG:9879, V-B:ALA:541:CB:9864, V-A:ASP:366:CG:3213, V-A:PRO:540:N:4884, H-A:ARG:545:NH2:4928, V-A:HIS:456:CE1:4070, V-B:PRO:540:C:9853, V-A:PRO:540:C:4881, H-B:GLU:543:OE2:9882, H-B:GLU:543:OE1:9881, H-B:ARG:545:NH2:9900, V-A:HIS:456:CD2:4068, H-B:LYS:547:NZ:9923, V-A:LYS:547:CE:4950, V-B:HIS:456:CD2:9040, H-A:LYS:547:NZ:4951, V-A:GLY:544:C:4912, H-B:ARG:545:NE:9896, V-B:GLY:544:C:9884"]

$$$$
RR17_Rahimova_2017
     RDKit          3D

 38 41  0  0  0  0  0  0  0  0999 V2000
  131.0510  125.8540   74.1910 C   0  0  0  0  0  0  0  0  0  0  0  0
  130.3880  127.2240   74.0160 C   0  0  0  0  0  0  0  0  0  0  0  0
  129.2080  127.0640   73.2340 O   0  0  0  0  0  0  0  0  0  0  0  0
  129.2580  127.3050   71.8740 C   0  0  0  0  0  0  0  0  0  0  0  0
  128.3610  126.5900   71.0820 C   0  0  0  0  0  0  0  0  0  0  0  0
  128.3390  126.7640   69.7020 C   0  0  0  0  0  0  0  0  0  0  0  0
  129.2200  127.6620   69.0820 C   0  0  0  0  0  0  0  0  0  0  0  0
  129.1720  127.8310   67.5910 C   0  0  0  0  0  0  0  0  0  0  0  0
  129.7340  127.0490   66.8190 O   0  0  0  0  0  0  0  0  0  0  0  0
  128.3930  129.0490   67.0470 C   0  0  0  0  0  0  0  0  0  0  0  0
  127.2360  128.5860   65.7080 S   0  0  0  0  0  0  0  0  0  0  0  0
  127.8270  129.6430   64.4160 C   0  0  0  0  0  0  0  0  0  0  0  0
  127.9800  130.9430   64.5080 N   0  0  0  0  0  0  0  0  0  0  0  0
  128.4690  131.4010   63.2910 N   0  0  0  0  0  0  0  0  0  0  0  0
  128.5970  130.3580   62.5100 C   0  0  0  0  0  0  0  0  0  0  0  0
  129.1170  130.4090   61.0810 C   0  0  0  0  0  0  0  0  0  0  0  0
  130.4630  129.8640   60.9230 N   0  0  0  0  0  0  0  0  0  0  0  0
  130.7690  128.7620   60.1040 C   0  0  0  0  0  0  0  0  0  0  0  0
  131.1120  127.5670   60.7370 C   0  0  0  0  0  0  0  0  0  0  0  0
  131.4300  126.4390   59.9880 C   0  0  0  0  0  0  0  0  0  0  0  0
  131.4060  126.4910   58.5910 C   0  0  0  0  0  0  0  0  0  0  0  0
  131.7640  125.2450   57.7820 C   0  0  0  0  0  0  0  0  0  0  0  0
  132.6610  125.5030   56.8270 F   0  0  0  0  0  0  0  0  0  0  0  0
  132.2720  124.3030   58.5790 F   0  0  0  0  0  0  0  0  0  0  0  0
  130.6630  124.7680   57.2030 F   0  0  0  0  0  0  0  0  0  0  0  0
  131.0540  127.6860   57.9540 C   0  0  0  0  0  0  0  0  0  0  0  0
  130.7350  128.8130   58.7050 C   0  0  0  0  0  0  0  0  0  0  0  0
  128.1950  129.2090   63.1590 N   0  0  0  0  0  0  0  0  0  0  0  0
  128.1930  127.8970   62.6620 C   0  0  0  0  0  0  0  0  0  0  0  0
  129.1090  126.9710   63.1620 C   0  0  0  0  0  0  0  0  0  0  0  0
  129.1090  125.6700   62.6670 C   0  0  0  0  0  0  0  0  0  0  0  0
  128.1940  125.2920   61.6700 C   0  0  0  0  0  0  0  0  0  0  0  0
  128.1220  124.0270   61.1210 O   0  0  0  0  0  0  0  0  0  0  0  0
  128.0450  122.8980   61.9850 C   0  0  0  0  0  0  0  0  0  0  0  0
  127.2870  126.2330   61.1800 C   0  0  0  0  0  0  0  0  0  0  0  0
  127.2800  127.5360   61.6720 C   0  0  0  0  0  0  0  0  0  0  0  0
  130.1210  128.3820   69.8800 C   0  0  0  0  0  0  0  0  0  0  0  0
  130.1410  128.2070   71.2610 C   0  0  0  0  0  0  0  0  0  0  0  0
  1  2  1  0
  2  3  1  0
  3  4  1  0
  4  5  2  0
  5  6  1  0
  6  7  2  0
  7  8  1  0
  8  9  2  0
  8 10  1  0
 10 11  1  0
 11 12  1  0
 12 13  2  0
 13 14  1  0
 14 15  2  0
 15 16  1  0
 16 17  1  0
 17 18  1  0
 18 19  2  0
 19 20  1  0
 20 21  2  0
 21 22  1  0
 22 23  1  0
 22 24  1  0
 22 25  1  0
 21 26  1  0
 26 27  2  0
 15 28  1  0
 28 29  1  0
 29 30  2  0
 30 31  1  0
 31 32  2  0
 32 33  1  0
 33 34  1  0
 32 35  1  0
 35 36  2  0
  7 37  1  0
 37 38  2  0
 38  4  1  0
 28 12  1  0
 36 29  1  0
 27 18  1  0
M  END
>  <Binding energies>  (72) 
[-5.35]

>  <Ligand effiencies>  (72) 
[-0.13717948717948716]

>  <Interactions>  (72) 
["V-A:ASP:366:C:3208, V-A:GLU:543:CG:4907, V-A:ASP:366:CA:3210, H-A:ASP:366:OD1:3214, V-A:GLU:543:CD:4908, V-A:ASP:366:CB:3212, V-B:GLU:543:CD:9880, V-B:TYR:539:CZ:9849, V-A:GLU:543:CB:4906, H-B:TYR:484:OH:9320, V-B:HIS:456:CE1:9042, V-B:TYR:539:CE2:9848, V-B:ALA:541:CB:9864, V-A:ASP:366:CG:3213, V-A:HIS:456:CE1:4070, H-A:GLU:543:OE1:4909, V-A:HIS:456:CD2:4068, H-B:LYS:547:NZ:9923, V-B:HIS:456:CD2:9040, V-A:GLY:544:C:4912, V-A:HIS:456:CB:4065, V-A:GLU:543:C:4902, V-A:HIS:456:CG:4066"]

$$$$
RR19_Rahimova_2017
     RDKit          3D

 46 51  0  0  0  0  0  0  0  0999 V2000
  127.6470  128.6030   59.0440 O   0  0  0  0  0  0  0  0  0  0  0  0
  128.6960  128.7930   59.6660 C   0  0  0  0  0  0  0  0  0  0  0  0
  129.8060  128.0140   59.6130 N   0  0  0  0  0  0  0  0  0  0  0  0
  130.1970  126.9990   58.7750 C   0  0  0  0  0  0  0  0  0  0  0  0
  129.4350  126.5670   57.3270 S   0  0  0  0  0  0  0  0  0  0  0  0
  131.3090  126.3940   59.3070 N   0  0  0  0  0  0  0  0  0  0  0  0
  132.1660  125.4540   58.8340 C   0  0  0  0  0  0  0  0  0  0  0  0
  132.2300  125.0410   57.6740 O   0  0  0  0  0  0  0  0  0  0  0  0
  133.1140  124.8690   59.9100 C   0  0  2  0  0  0  0  0  0  0  0  0
  133.5960  123.4150   59.6350 C   0  0  0  0  0  0  0  0  0  0  0  0
  132.5760  122.3280   59.9300 C   0  0  0  0  0  0  0  0  0  0  0  0
  132.9810  120.9910   60.1360 C   0  0  0  0  0  0  0  0  0  0  0  0
  132.0440  120.0270   60.4820 C   0  0  0  0  0  0  0  0  0  0  0  0
  130.7090  120.3740   60.6450 C   0  0  0  0  0  0  0  0  0  0  0  0
  130.3000  121.6910   60.4750 C   0  0  0  0  0  0  0  0  0  0  0  0
  131.2220  122.6700   60.1310 C   0  0  0  0  0  0  0  0  0  0  0  0
  132.5320  125.0030   61.2740 N   0  0  0  0  0  0  0  0  0  0  0  0
  133.3260  125.1390   62.3740 C   0  0  0  0  0  0  0  0  0  0  0  0
  134.5580  125.1430   62.4100 O   0  0  0  0  0  0  0  0  0  0  0  0
  132.3940  125.2880   63.5190 C   0  0  0  0  0  0  0  0  0  0  0  0
  132.6400  125.4540   64.8820 C   0  0  0  0  0  0  0  0  0  0  0  0
  131.5500  125.5780   65.7500 C   0  0  0  0  0  0  0  0  0  0  0  0
  130.2410  125.5350   65.2500 C   0  0  0  0  0  0  0  0  0  0  0  0
  130.0160  125.3680   63.8790 C   0  0  0  0  0  0  0  0  0  0  0  0
  131.1170  125.2460   63.0310 C   0  0  0  0  0  0  0  0  0  0  0  0
  131.1970  125.0700   61.5590 C   0  0  0  0  0  0  0  0  0  0  0  0
  130.2560  125.0090   60.7660 O   0  0  0  0  0  0  0  0  0  0  0  0
  128.8090  130.0090   60.6240 C   0  0  2  0  0  0  0  0  0  0  0  0
  130.2170  130.6700   60.6400 C   0  0  0  0  0  0  0  0  0  0  0  0
  130.7540  131.0100   59.2620 C   0  0  0  0  0  0  0  0  0  0  0  0
  129.9810  131.7860   58.3720 C   0  0  0  0  0  0  0  0  0  0  0  0
  130.5140  132.1810   57.1520 C   0  0  0  0  0  0  0  0  0  0  0  0
  131.8170  131.8400   56.8140 C   0  0  0  0  0  0  0  0  0  0  0  0
  132.6040  131.1100   57.6960 C   0  0  0  0  0  0  0  0  0  0  0  0
  132.0890  130.7040   58.9200 C   0  0  0  0  0  0  0  0  0  0  0  0
  128.3240  129.7210   62.0040 N   0  0  0  0  0  0  0  0  0  0  0  0
  128.7160  130.4710   63.0720 C   0  0  0  0  0  0  0  0  0  0  0  0
  129.4920  131.4270   63.0680 O   0  0  0  0  0  0  0  0  0  0  0  0
  128.0080  129.8920   64.2410 C   0  0  0  0  0  0  0  0  0  0  0  0
  128.0290  130.2460   65.5910 C   0  0  0  0  0  0  0  0  0  0  0  0
  127.2440  129.5130   66.4880 C   0  0  0  0  0  0  0  0  0  0  0  0
  126.4560  128.4490   66.0310 C   0  0  0  0  0  0  0  0  0  0  0  0
  126.4470  128.1110   64.6730 C   0  0  0  0  0  0  0  0  0  0  0  0
  127.2380  128.8530   63.7940 C   0  0  0  0  0  0  0  0  0  0  0  0
  127.4320  128.7390   62.3290 C   0  0  0  0  0  0  0  0  0  0  0  0
  126.9010  127.9310   61.5660 O   0  0  0  0  0  0  0  0  0  0  0  0
  1  2  2  0
  2  3  1  0
  3  4  1  0
  4  5  2  0
  4  6  1  0
  6  7  1  0
  7  8  2  0
  7  9  1  0
  9 10  1  6
 10 11  1  0
 11 12  2  0
 12 13  1  0
 13 14  2  0
 14 15  1  0
 15 16  2  0
  9 17  1  0
 17 18  1  0
 18 19  2  0
 18 20  1  0
 20 21  2  0
 21 22  1  0
 22 23  2  0
 23 24  1  0
 24 25  2  0
 25 26  1  0
 26 27  2  0
  2 28  1  0
 28 29  1  1
 29 30  1  0
 30 31  2  0
 31 32  1  0
 32 33  2  0
 33 34  1  0
 34 35  2  0
 28 36  1  0
 36 37  1  0
 37 38  2  0
 37 39  1  0
 39 40  2  0
 40 41  1  0
 41 42  2  0
 42 43  1  0
 43 44  2  0
 44 45  1  0
 45 46  2  0
 16 11  1  0
 26 17  1  0
 35 30  1  0
 45 36  1  0
 25 20  1  0
 44 39  1  0
M  END
>  <Binding energies>  (73) 
[-8.2]

>  <Ligand effiencies>  (73) 
[-0.1708333333333333]

>  <Interactions>  (73) 
["V-A:GLU:543:CG:4907, V-A:ASP:366:CA:3210, H-A:ASP:366:OD1:3214, V-A:LEU:475:CD2:4259, V-A:GLU:543:CD:4908, H-B:TYR:539:OH:9850, V-A:ASP:366:CB:3212, V-B:GLU:543:CD:9880, V-A:ILE:369:CG2:3237, V-B:TYR:484:CZ:9319, V-A:GLU:543:CB:4906, V-A:PRO:540:CA:4883, V-A:ILE:369:CB:3236, V-A:PRO:540:CB:4885, V-B:TYR:539:CD2:9846, V-B:HIS:456:CE1:9042, V-B:TYR:539:CE2:9848, V-A:ILE:369:CD1:3239, V-A:TYR:484:CZ:4347, V-B:GLU:543:CG:9879, V-A:ARG:545:CZ:4926, V-A:ASP:366:CG:3213, V-A:PRO:540:N:4884, H-A:ARG:545:NH2:4928, V-A:TYR:484:CE2:4346, V-A:HIS:456:CE1:4070, H-A:ARG:545:NH1:4927, V-A:TYR:539:C:4867, H-A:GLY:454:N:4050, V-A:ARG:545:CD:4923, V-A:SER:385:CB:3409, H-A:GLU:543:OE1:4909, V-B:ARG:545:CZ:9898, V-B:TYR:484:CE2:9318"]

$$$$
RR1_Rahimova_2017
     RDKit          3D

 41 44  0  0  0  0  0  0  0  0999 V2000
  133.9800  123.9210   56.8390 C   0  0  0  0  0  0  0  0  0  0  0  0
  133.4460  124.8510   57.7740 O   0  0  0  0  0  0  0  0  0  0  0  0
  132.1450  124.6960   58.2110 C   0  0  0  0  0  0  0  0  0  0  0  0
  131.0130  125.1120   57.4920 C   0  0  0  0  0  0  0  0  0  0  0  0
  129.7380  124.9210   58.0170 C   0  0  0  0  0  0  0  0  0  0  0  0
  129.5710  124.3080   59.2590 C   0  0  0  0  0  0  0  0  0  0  0  0
  128.2460  124.2010   59.7250 N   0  0  0  0  0  0  0  0  0  0  0  0
  127.2370  123.4330   59.2630 C   0  0  0  0  0  0  0  0  0  0  0  0
  127.3020  122.7150   58.2640 O   0  0  0  0  0  0  0  0  0  0  0  0
  125.9420  123.5130   60.0880 C   0  0  0  0  0  0  0  0  0  0  0  0
  126.1700  123.5700   61.8990 S   0  0  0  0  0  0  0  0  0  0  0  0
  127.7320  122.7590   61.9710 C   0  0  0  0  0  0  0  0  0  0  0  0
  127.9800  121.5910   61.4340 N   0  0  0  0  0  0  0  0  0  0  0  0
  129.2610  121.3770   61.7170 C   0  0  0  0  0  0  0  0  0  0  0  0
  129.9850  120.1380   61.2730 C   0  0  0  0  0  0  0  0  0  0  0  0
  129.5310  118.8560   61.6220 C   0  0  0  0  0  0  0  0  0  0  0  0
  130.2280  117.7230   61.1970 C   0  0  0  0  0  0  0  0  0  0  0  0
  131.3740  117.8990   60.4240 C   0  0  0  0  0  0  0  0  0  0  0  0
  131.8410  119.1220   60.0690 N   0  0  0  0  0  0  0  0  0  0  0  0
  131.1490  120.2110   60.4910 C   0  0  0  0  0  0  0  0  0  0  0  0
  129.8540  122.3300   62.4100 N   0  0  0  0  0  0  0  0  0  0  0  0
  128.8720  123.2200   62.5770 N   0  0  0  0  0  0  0  0  0  0  0  0
  129.1170  124.4730   63.2920 C   0  0  0  0  0  0  0  0  0  0  0  0
  129.0260  125.7430   62.4290 C   0  0  0  0  0  0  0  0  0  0  0  0
  127.9300  126.1980   62.0850 O   0  0  0  0  0  0  0  0  0  0  0  0
  130.2120  126.2870   62.0930 N   0  0  0  0  0  0  0  0  0  0  0  0
  130.2070  127.5130   61.4420 N   0  0  0  0  0  0  0  0  0  0  0  0
  129.4980  127.6160   60.2970 C   0  0  0  0  0  0  0  0  0  0  0  0
  128.7720  126.7220   59.8500 O   0  0  0  0  0  0  0  0  0  0  0  0
  129.6150  128.9400   59.5700 C   0  0  0  0  0  0  0  0  0  0  0  0
  130.8160  129.2900   58.9450 C   0  0  0  0  0  0  0  0  0  0  0  0
  130.9500  130.5060   58.2830 C   0  0  0  0  0  0  0  0  0  0  0  0
  129.8820  131.4160   58.2300 C   0  0  0  0  0  0  0  0  0  0  0  0
  129.9520  132.6460   57.6010 O   0  0  0  0  0  0  0  0  0  0  0  0
  129.0660  132.9350   56.5250 C   0  0  0  0  0  0  0  0  0  0  0  0
  128.6720  131.0870   58.8560 C   0  0  0  0  0  0  0  0  0  0  0  0
  127.6570  132.0270   58.7930 O   0  0  0  0  0  0  0  0  0  0  0  0
  127.5000  132.9660   59.8510 C   0  0  0  0  0  0  0  0  0  0  0  0
  128.5480  129.8520   59.5170 C   0  0  0  0  0  0  0  0  0  0  0  0
  130.6990  123.8900   59.9810 C   0  0  0  0  0  0  0  0  0  0  0  0
  131.9720  124.0830   59.4520 C   0  0  0  0  0  0  0  0  0  0  0  0
  1  2  1  0
  2  3  1  0
  3  4  2  0
  4  5  1  0
  5  6  2  0
  6  7  1  0
  7  8  1  0
  8  9  2  0
  8 10  1  0
 10 11  1  0
 11 12  1  0
 12 13  2  0
 13 14  1  0
 14 15  1  0
 15 16  2  0
 16 17  1  0
 17 18  2  0
 18 19  1  0
 19 20  2  0
 14 21  2  0
 21 22  1  0
 22 23  1  0
 23 24  1  0
 24 25  2  0
 24 26  1  0
 26 27  1  0
 27 28  1  0
 28 29  2  0
 28 30  1  0
 30 31  2  0
 31 32  1  0
 32 33  2  0
 33 34  1  0
 34 35  1  0
 33 36  1  0
 36 37  1  0
 37 38  1  0
 36 39  2  0
  6 40  1  0
 40 41  2  0
 41  3  1  0
 22 12  1  0
 39 30  1  0
 20 15  1  0
M  END
>  <Binding energies>  (74) 
[-5.47]

>  <Ligand effiencies>  (74) 
[-0.12431818181818181]

>  <Interactions>  (74) 
["V-A:ASP:366:C:3208, V-A:ASP:366:CA:3210, H-A:ASP:366:OD1:3214, V-A:LEU:475:CD2:4259, V-A:GLU:543:CD:4908, H-B:TYR:539:OH:9850, V-B:GLU:543:CD:9880, V-B:TYR:539:CZ:9849, V-A:ILE:369:CG2:3237, V-A:PRO:540:CA:4883, V-A:ILE:369:CB:3236, V-B:TYR:539:CD2:9846, H-A:TYR:484:OH:4348, V-B:TYR:539:CE2:9848, V-A:TYR:484:CZ:4347, V-B:PRO:540:CA:9855, V-B:GLU:543:CG:9879, H-A:GLU:543:OE2:4910, V-B:ALA:541:CB:9864, H-B:ALA:541:N:9863, V-A:PRO:540:N:4884, V-B:TYR:539:C:9839, V-A:TYR:539:C:4867, V-B:PRO:540:C:9853, V-A:TYR:539:CD1:4873, V-A:TYR:539:CG:4872, V-A:TYR:539:CE1:4875, V-A:LEU:475:CD1:4258, V-A:PRO:482:CB:4326, V-A:SER:385:CB:3409, V-A:LEU:475:CG:4257, H-A:GLU:543:OE1:4909, V-B:PRO:540:CB:9857, V-A:PRO:482:CG:4327, V-A:TYR:539:CA:4869, V-A:TYR:539:CD2:4874, V-A:ASN:370:CB:3245, V-A:ILE:369:CA:3234, V-A:ILE:369:C:3232, V-A:ASN:370:CA:3243"]

$$$$
RR22_Rahimova_2017
     RDKit          3D

 31 36  0  0  0  0  0  0  0  0999 V2000
  126.1510  128.2860   62.5480 O   0  0  0  0  0  0  0  0  0  0  0  0
  127.0230  127.6080   62.0100 C   0  0  0  0  0  0  0  0  0  0  0  0
  126.9280  126.8920   60.8290 N   0  0  0  0  0  0  0  0  0  0  0  0
  128.0650  126.1990   60.3040 C   0  0  1  0  0  0  0  0  0  0  0  0
  127.6380  124.8430   60.1490 O   0  0  0  0  0  0  0  0  0  0  0  0
  127.6760  124.2770   58.8740 C   0  0  0  0  0  0  0  0  0  0  0  0
  126.9270  123.1160   58.6860 C   0  0  0  0  0  0  0  0  0  0  0  0
  126.9470  122.4700   57.4500 C   0  0  0  0  0  0  0  0  0  0  0  0
  127.7220  122.9810   56.4080 C   0  0  0  0  0  0  0  0  0  0  0  0
  128.4720  124.1430   56.5960 C   0  0  0  0  0  0  0  0  0  0  0  0
  128.4420  124.8150   57.8220 C   0  0  0  0  0  0  0  0  0  0  0  0
  129.2500  126.0520   58.1400 C   0  0  1  0  0  0  0  0  0  0  0  0
  129.5950  127.0920   57.0930 C   0  0  0  0  0  0  0  0  0  0  0  0
  129.6570  128.3420   57.9750 C   0  0  0  0  0  0  0  0  0  0  0  0
  130.3290  129.5860   57.5490 C   0  0  0  0  0  0  0  0  0  0  0  0
  131.7290  129.6760   57.5470 C   0  0  0  0  0  0  0  0  0  0  0  0
  132.3580  130.8510   57.1440 C   0  0  0  0  0  0  0  0  0  0  0  0
  131.5920  131.9410   56.7410 C   0  0  0  0  0  0  0  0  0  0  0  0
  130.2020  131.8680   56.7370 C   0  0  0  0  0  0  0  0  0  0  0  0
  129.5720  130.6930   57.1390 C   0  0  0  0  0  0  0  0  0  0  0  0
  129.0410  128.1580   59.0810 N   0  0  0  0  0  0  0  0  0  0  0  0
  128.5110  126.8560   59.0670 N   0  0  0  0  0  0  0  0  0  0  0  0
  129.1250  126.2120   61.3960 C   0  0  0  0  0  0  0  0  0  0  0  0
  130.1890  125.3760   61.3990 C   0  0  0  0  0  0  0  0  0  0  0  0
  131.2920  125.2960   62.3760 C   0  0  0  0  0  0  0  0  0  0  0  0
  131.1530  125.6630   63.7230 C   0  0  0  0  0  0  0  0  0  0  0  0
  132.2420  125.5600   64.5900 C   0  0  0  0  0  0  0  0  0  0  0  0
  133.4550  125.0950   64.0820 C   0  0  0  0  0  0  0  0  0  0  0  0
  133.6210  124.7410   62.7830 N   0  0  0  0  0  0  0  0  0  0  0  0
  132.5500  124.8470   61.9560 C   0  0  0  0  0  0  0  0  0  0  0  0
  128.7050  127.3760   62.6610 S   0  0  0  0  0  0  0  0  0  0  0  0
  1  2  2  0
  2  3  1  0
  4  3  1  1
  4  5  1  0
  5  6  1  0
  6  7  2  0
  7  8  1  0
  8  9  2  0
  9 10  1  0
 10 11  2  0
 11 12  1  0
 12 13  1  6
 13 14  1  0
 14 15  1  0
 15 16  2  0
 16 17  1  0
 17 18  2  0
 18 19  1  0
 19 20  2  0
 14 21  2  0
 21 22  1  0
  4 23  1  0
 23 24  2  0
 24 25  1  0
 25 26  2  0
 26 27  1  0
 27 28  2  0
 28 29  1  0
 29 30  2  0
 23 31  1  0
 31  2  1  0
 22  4  1  0
 30 25  1  0
 11  6  1  0
 22 12  1  0
 20 15  1  0
M  END
>  <Binding energies>  (75) 
[-7.44]

>  <Ligand effiencies>  (75) 
[-0.2325]

>  <Interactions>  (75) 
["V-B:MET:535:CE:9807, V-B:TYR:539:CE1:9847, V-A:GLU:543:CD:4908, V-A:ASP:366:CB:3212, V-B:TYR:539:CZ:9849, V-A:PRO:540:CA:4883, V-A:PRO:540:CB:4885, V-B:TYR:539:CD2:9846, V-A:GLY:454:CA:4049, H-A:TYR:484:OH:4348, V-B:TYR:539:CE2:9848, V-A:TYR:484:CZ:4347, V-B:PRO:540:CA:9855, V-A:ARG:545:CZ:4926, V-A:PRO:540:N:4884, H-A:ARG:545:NH2:4928, V-B:TYR:539:C:9839, V-A:TYR:484:CE2:4346, V-B:TYR:539:CG:9844, H-A:GLY:454:N:4050, V-B:PRO:540:N:9856, V-B:PRO:540:CB:9857, H-B:ASP:366:OD2:8187, H-B:ARG:545:NH2:9900, V-B:TYR:539:CD1:9845, V-B:PRO:540:CD:9859, V-B:TYR:539:CA:9841"]

$$$$
RR24_Rahimova_2017
     RDKit          3D

 43 49  0  0  0  0  0  0  0  0999 V2000
  129.8510  126.9630   66.7200 C   0  0  0  0  0  0  0  0  0  0  0  0
  128.6900  127.5210   67.5550 C   0  0  2  0  0  0  0  0  0  0  0  0
  128.1680  128.8950   67.0400 C   0  0  0  0  0  0  0  0  0  0  0  0
  128.7200  129.9600   67.3380 O   0  0  0  0  0  0  0  0  0  0  0  0
  127.0480  128.7730   66.2690 O   0  0  0  0  0  0  0  0  0  0  0  0
  127.1740  128.5780   64.9130 C   0  0  0  0  0  0  0  0  0  0  0  0
  128.4490  128.5010   64.3480 C   0  0  0  0  0  0  0  0  0  0  0  0
  128.5900  128.2950   62.9790 C   0  0  0  0  0  0  0  0  0  0  0  0
  127.4580  128.1560   62.1700 C   0  0  0  0  0  0  0  0  0  0  0  0
  127.6190  127.9480   60.6600 C   0  0  1  0  0  0  0  0  0  0  0  0
  128.8040  128.7610   60.0870 C   0  0  0  0  0  0  0  0  0  0  0  0
  129.7620  128.2100   59.3190 C   0  0  0  0  0  0  0  0  0  0  0  0
  129.7570  126.8780   58.9860 N   0  0  0  0  0  0  0  0  0  0  0  0
  128.7660  126.0340   59.4280 C   0  0  0  0  0  0  0  0  0  0  0  0
  128.9020  124.7520   59.0040 N   0  0  0  0  0  0  0  0  0  0  0  0
  128.0610  123.7590   59.4040 C   0  0  0  0  0  0  0  0  0  0  0  0
  128.4030  122.5840   59.2580 O   0  0  0  0  0  0  0  0  0  0  0  0
  126.9500  124.2070   60.1010 N   0  0  0  0  0  0  0  0  0  0  0  0
  125.9570  123.1800   60.4800 C   0  0  0  0  0  0  0  0  0  0  0  0
  126.7120  125.4830   60.5820 C   0  0  0  0  0  0  0  0  0  0  0  0
  125.7190  125.8000   61.2440 O   0  0  0  0  0  0  0  0  0  0  0  0
  127.7430  126.4590   60.2160 C   0  0  0  0  0  0  0  0  0  0  0  0
  130.7450  129.2050   58.9250 C   0  0  0  0  0  0  0  0  0  0  0  0
  131.9060  129.1420   58.1530 C   0  0  0  0  0  0  0  0  0  0  0  0
  132.6560  130.3040   57.9540 C   0  0  0  0  0  0  0  0  0  0  0  0
  132.2450  131.5140   58.5220 C   0  0  0  0  0  0  0  0  0  0  0  0
  131.0810  131.5700   59.2940 C   0  0  0  0  0  0  0  0  0  0  0  0
  130.3370  130.4060   59.4910 C   0  0  0  0  0  0  0  0  0  0  0  0
  129.0870  130.1830   60.2470 C   0  0  0  0  0  0  0  0  0  0  0  0
  128.4000  130.9800   60.8840 O   0  0  0  0  0  0  0  0  0  0  0  0
  126.1830  128.2150   62.7410 C   0  0  0  0  0  0  0  0  0  0  0  0
  126.0420  128.4200   64.1110 C   0  0  0  0  0  0  0  0  0  0  0  0
  129.0080  127.5440   69.0130 N   0  0  0  0  0  0  0  0  0  0  0  0
  130.1130  128.1820   69.4920 C   0  0  0  0  0  0  0  0  0  0  0  0
  130.9670  128.7880   68.8420 O   0  0  0  0  0  0  0  0  0  0  0  0
  130.0730  127.9910   70.9630 C   0  0  0  0  0  0  0  0  0  0  0  0
  130.9450  128.4220   71.9640 C   0  0  0  0  0  0  0  0  0  0  0  0
  130.6520  128.0940   73.2930 C   0  0  0  0  0  0  0  0  0  0  0  0
  129.5050  127.3520   73.6010 C   0  0  0  0  0  0  0  0  0  0  0  0
  128.6430  126.9300   72.5830 C   0  0  0  0  0  0  0  0  0  0  0  0
  128.9530  127.2650   71.2640 C   0  0  0  0  0  0  0  0  0  0  0  0
  128.2450  126.9700   69.9930 C   0  0  0  0  0  0  0  0  0  0  0  0
  127.1930  126.3460   69.8530 O   0  0  0  0  0  0  0  0  0  0  0  0
  2  1  1  6
  2  3  1  0
  3  4  2  0
  3  5  1  0
  5  6  1  0
  6  7  2  0
  7  8  1  0
  8  9  2  0
 10  9  1  1
 10 11  1  0
 11 12  2  0
 12 13  1  0
 13 14  1  0
 14 15  1  0
 15 16  1  0
 16 17  2  0
 16 18  1  0
 18 19  1  0
 18 20  1  0
 20 21  2  0
 20 22  1  0
 12 23  1  0
 23 24  2  0
 24 25  1  0
 25 26  2  0
 26 27  1  0
 27 28  2  0
 28 29  1  0
 29 30  2  0
  9 31  1  0
 31 32  2  0
  2 33  1  0
 33 34  1  0
 34 35  2  0
 34 36  1  0
 36 37  2  0
 37 38  1  0
 38 39  2  0
 39 40  1  0
 40 41  2  0
 41 42  1  0
 42 43  2  0
 32  6  1  0
 42 33  1  0
 22 10  1  0
 28 23  1  0
 41 36  1  0
 29 11  1  0
 22 14  2  0
M  END
>  <Binding energies>  (76) 
[-5.69]

>  <Ligand effiencies>  (76) 
[-0.12644444444444444]

>  <Interactions>  (76) 
["V-A:GLU:543:CG:4907, V-A:GLU:543:CD:4908, V-A:ASP:366:CB:3212, V-B:GLU:543:CD:9880, V-A:GLU:543:CB:4906, V-A:PRO:540:CA:4883, V-A:PRO:540:CB:4885, H-B:TYR:484:OH:9320, V-B:HIS:456:CE1:9042, V-B:PRO:540:CA:9855, V-A:ASP:366:CG:3213, V-A:HIS:456:CE1:4070, V-B:PRO:540:C:9853, V-B:PRO:540:N:9856, V-B:PRO:540:CB:9857, H-B:ARG:545:NH2:9900, V-A:GLY:544:CA:4914, V-A:HIS:456:CD2:4068, H-B:ARG:545:N:9892, V-A:LYS:547:CE:4950, V-B:HIS:456:CD2:9040, V-A:GLY:544:C:4912, V-B:ARG:545:CZ:9898, V-A:GLU:543:C:4902, H-A:ARG:545:N:4920, H-A:GLY:544:N:4915"]

$$$$
RR25_Rahimova_2017
     RDKit          3D

 39 44  0  0  0  0  0  0  0  0999 V2000
  125.5760  124.0210   60.9920 O   0  0  0  0  0  0  0  0  0  0  0  0
  126.7780  124.1610   61.2210 C   0  0  0  0  0  0  0  0  0  0  0  0
  127.4750  123.0180   61.5240 O   0  0  0  0  0  0  0  0  0  0  0  0
  128.8580  123.0030   61.5550 C   0  0  0  0  0  0  0  0  0  0  0  0
  129.4770  121.7770   61.3160 C   0  0  0  0  0  0  0  0  0  0  0  0
  130.8670  121.6870   61.3410 C   0  0  0  0  0  0  0  0  0  0  0  0
  131.6560  122.8160   61.6070 C   0  0  0  0  0  0  0  0  0  0  0  0
  133.1360  122.7200   61.6240 N   0  0  0  0  0  0  0  0  0  0  0  0
  133.7750  123.5910   62.2080 O   0  0  0  0  0  0  0  0  0  0  0  0
  133.6700  121.7720   61.0550 O   0  0  0  0  0  0  0  0  0  0  0  0
  131.0120  124.0390   61.8570 C   0  0  0  0  0  0  0  0  0  0  0  0
  129.6190  124.1440   61.8440 C   0  0  0  0  0  0  0  0  0  0  0  0
  128.8770  125.4440   62.0970 C   0  0  0  0  0  0  0  0  0  0  0  0
  127.5890  125.4900   61.2270 C   0  0  2  0  0  0  0  0  0  0  0  0
  126.7510  126.7650   61.5320 C   0  0  0  0  0  0  0  0  0  0  0  0
  126.5140  126.9860   62.7230 O   0  0  0  0  0  0  0  0  0  0  0  0
  126.4040  127.6590   60.5580 N   0  0  0  0  0  0  0  0  0  0  0  0
  126.3810  127.3090   59.1220 C   0  0  0  0  0  0  0  0  0  0  0  0
  126.8610  128.5250   58.3010 C   0  0  0  0  0  0  0  0  0  0  0  0
  126.0720  129.7220   58.6080 N   0  0  0  0  0  0  0  0  0  0  0  0
  126.4370  130.8450   57.7340 C   0  0  0  0  0  0  0  0  0  0  0  0
  127.1960  131.9720   58.4860 C   0  0  0  0  0  0  0  0  0  0  0  0
  128.6450  131.7280   58.7420 N   0  0  0  0  0  0  0  0  0  0  0  0
  129.4260  131.5840   57.6150 C   0  0  0  0  0  0  0  0  0  0  0  0
  128.9690  131.6150   56.4660 O   0  0  0  0  0  0  0  0  0  0  0  0
  130.9060  131.4030   57.8910 C   0  0  0  0  0  0  0  0  0  0  0  0
  131.7960  131.2740   56.8160 C   0  0  0  0  0  0  0  0  0  0  0  0
  133.1630  131.1140   57.0330 C   0  0  0  0  0  0  0  0  0  0  0  0
  133.6850  131.0820   58.3250 C   0  0  0  0  0  0  0  0  0  0  0  0
  132.8250  131.2090   59.4420 C   0  0  0  0  0  0  0  0  0  0  0  0
  133.2870  131.1860   60.7790 C   0  0  0  0  0  0  0  0  0  0  0  0
  132.3850  131.3200   61.8330 C   0  0  0  0  0  0  0  0  0  0  0  0
  131.0220  131.4760   61.5940 C   0  0  0  0  0  0  0  0  0  0  0  0
  130.5180  131.5040   60.2870 C   0  0  0  0  0  0  0  0  0  0  0  0
  131.4300  131.3700   59.2080 C   0  0  0  0  0  0  0  0  0  0  0  0
  129.0280  131.6840   60.0670 C   0  0  0  0  0  0  0  0  0  0  0  0
  128.2360  131.7980   61.0080 O   0  0  0  0  0  0  0  0  0  0  0  0
  126.2210  130.0670   60.0230 C   0  0  0  0  0  0  0  0  0  0  0  0
  125.7350  128.9220   60.9440 C   0  0  0  0  0  0  0  0  0  0  0  0
  1  2  2  0
  2  3  1  0
  3  4  1  0
  4  5  2  0
  5  6  1  0
  6  7  2  0
  7  8  1  0
  8  9  2  0
  8 10  1  0
  7 11  1  0
 11 12  2  0
 12 13  1  0
 13 14  1  0
 14 15  1  1
 15 16  2  0
 15 17  1  0
 17 18  1  0
 18 19  1  0
 19 20  1  0
 20 21  1  0
 21 22  1  0
 22 23  1  0
 23 24  1  0
 24 25  2  0
 24 26  1  0
 26 27  2  0
 27 28  1  0
 28 29  2  0
 29 30  1  0
 30 31  2  0
 31 32  1  0
 32 33  2  0
 33 34  1  0
 34 35  2  0
 34 36  1  0
 36 37  2  0
 20 38  1  0
 38 39  1  0
 14  2  1  0
 39 17  1  0
 12  4  1  0
 36 23  1  0
 35 26  1  0
 35 30  1  0
M  CHG  2   8   1  10  -1
M  END
>  <Binding energies>  (77) 
[-8.81]

>  <Ligand effiencies>  (77) 
[-0.2258974358974359]

>  <Interactions>  (77) 
["V-A:GLU:543:CG:4907, V-A:LEU:475:CD2:4259, V-A:GLU:543:CD:4908, V-A:ASP:366:CB:3212, V-B:GLU:543:CD:9880, V-A:PRO:540:CA:4883, V-A:PRO:540:CB:4885, V-A:ASN:362:CB:3176, V-A:GLY:454:CA:4049, H-A:TYR:484:OH:4348, V-A:ASN:362:C:3172, V-A:LEU:363:CD1:3189, V-B:ASP:366:CG:8185, H-B:ALA:541:N:9863, V-A:LEU:363:CA:3185, V-A:ASP:366:CG:3213, V-A:LEU:363:CB:3187, H-A:GLY:454:N:4050, V-A:TYR:539:CD1:4873, V-A:TYR:539:CE1:4875, V-A:ALA:541:CB:4892, H-B:ARG:545:NH2:9900, V-A:TYR:539:CZ:4877"]

$$$$
RR27_Rahimova_2017
     RDKit          3D

 39 44  0  0  0  0  0  0  0  0999 V2000
  129.4670  123.0920   62.6480 O   0  0  0  0  0  0  0  0  0  0  0  0
  129.4140  123.2150   61.4210 C   0  0  0  0  0  0  0  0  0  0  0  0
  130.4540  122.4430   60.5570 C   0  0  0  0  0  0  0  0  0  0  0  0
  130.4380  120.9230   60.8060 C   0  0  0  0  0  0  0  0  0  0  0  0
  129.4920  120.3210   61.6500 C   0  0  0  0  0  0  0  0  0  0  0  0
  129.5040  118.9440   61.8520 C   0  0  0  0  0  0  0  0  0  0  0  0
  130.4620  118.1620   61.2120 C   0  0  0  0  0  0  0  0  0  0  0  0
  131.4080  118.7450   60.3740 C   0  0  0  0  0  0  0  0  0  0  0  0
  131.3960  120.1220   60.1720 C   0  0  0  0  0  0  0  0  0  0  0  0
  131.8480  123.0960   60.6200 C   0  0  0  0  0  0  0  0  0  0  0  0
  132.6080  123.1000   61.7970 C   0  0  0  0  0  0  0  0  0  0  0  0
  133.8600  123.7100   61.8220 C   0  0  0  0  0  0  0  0  0  0  0  0
  134.3530  124.3220   60.6740 C   0  0  0  0  0  0  0  0  0  0  0  0
  133.6040  124.3350   59.5000 C   0  0  0  0  0  0  0  0  0  0  0  0
  132.3530  123.7270   59.4760 C   0  0  0  0  0  0  0  0  0  0  0  0
  128.3910  123.8790   60.8120 N   0  0  0  0  0  0  0  0  0  0  0  0
  128.4090  124.2720   59.3950 C   0  0  0  0  0  0  0  0  0  0  0  0
  129.0970  125.6530   59.3220 C   0  0  0  0  0  0  0  0  0  0  0  0
  128.4200  126.7140   60.2460 C   0  0  0  0  0  0  0  0  0  0  0  0
  129.1350  128.0770   60.2960 C   0  0  0  0  0  0  0  0  0  0  0  0
  130.2450  128.2090   59.5130 N   0  0  0  0  0  0  0  0  0  0  0  0
  130.9000  129.4040   59.5010 C   0  0  0  0  0  0  0  0  0  0  0  0
  132.0200  129.6590   58.7540 O   0  0  0  0  0  0  0  0  0  0  0  0
  130.4040  130.4540   60.2980 C   0  0  0  0  0  0  0  0  0  0  0  0
  130.8000  131.7410   60.5100 N   0  0  0  0  0  0  0  0  0  0  0  0
  129.9170  132.2990   61.4150 N   0  0  0  0  0  0  0  0  0  0  0  0
  128.9910  131.3750   61.7470 N   0  0  0  0  0  0  0  0  0  0  0  0
  127.9420  131.6900   62.7130 C   0  0  0  0  0  0  0  0  0  0  0  0
  127.4180  130.4740   63.4660 C   0  0  0  0  0  0  0  0  0  0  0  0
  126.3610  129.7240   62.9420 C   0  0  0  0  0  0  0  0  0  0  0  0
  125.8880  128.6030   63.6270 C   0  0  0  0  0  0  0  0  0  0  0  0
  126.4720  128.2250   64.8350 C   0  0  0  0  0  0  0  0  0  0  0  0
  127.5340  128.9640   65.3590 C   0  0  0  0  0  0  0  0  0  0  0  0
  128.2770  128.4820   66.8410 Cl  0  0  0  0  0  0  0  0  0  0  0  0
  128.0020  130.0890   64.6780 C   0  0  0  0  0  0  0  0  0  0  0  0
  129.2540  130.1930   61.0740 C   0  0  0  0  0  0  0  0  0  0  0  0
  128.5990  129.0300   61.1110 N   0  0  0  0  0  0  0  0  0  0  0  0
  128.0950  126.1340   61.6570 C   0  0  0  0  0  0  0  0  0  0  0  0
  127.4760  124.7140   61.6050 C   0  0  0  0  0  0  0  0  0  0  0  0
  1  2  2  0
  2  3  1  0
  3  4  1  0
  4  5  2  0
  5  6  1  0
  6  7  2  0
  7  8  1  0
  8  9  2  0
  3 10  1  0
 10 11  2  0
 11 12  1  0
 12 13  2  0
 13 14  1  0
 14 15  2  0
  2 16  1  0
 16 17  1  0
 17 18  1  0
 18 19  1  0
 19 20  1  0
 20 21  2  0
 21 22  1  0
 22 23  1  0
 22 24  2  0
 24 25  1  0
 25 26  2  0
 26 27  1  0
 27 28  1  0
 28 29  1  0
 29 30  2  0
 30 31  1  0
 31 32  2  0
 32 33  1  0
 33 34  1  0
 33 35  2  0
 27 36  1  0
 36 37  2  0
 19 38  1  0
 38 39  1  0
  9  4  1  0
 15 10  1  0
 39 16  1  0
 37 20  1  0
 36 24  1  0
 35 29  1  0
M  END
>  <Binding energies>  (78) 
[-8.99]

>  <Ligand effiencies>  (78) 
[-0.22475]

>  <Interactions>  (78) 
["V-A:GLU:543:CG:4907, V-A:ASP:366:CA:3210, H-A:ASP:366:OD1:3214, V-A:LEU:475:CD2:4259, V-A:GLU:543:CD:4908, H-A:ALA:541:N:4891, V-A:ASP:366:CB:3212, V-B:GLU:543:CD:9880, V-A:ILE:369:CG2:3237, V-B:TYR:484:CZ:9319, V-A:GLU:543:CB:4906, V-A:ILE:369:CB:3236, V-B:TYR:539:CD2:9846, V-B:HIS:456:CE1:9042, V-A:GLY:454:CA:4049, H-A:TYR:484:OH:4348, V-B:TYR:539:CE2:9848, V-A:ILE:369:CD1:3239, V-B:ALA:541:CB:9864, V-A:ASP:366:CG:3213, V-B:PRO:540:C:9853, V-A:GLY:453:C:4042, V-A:ALA:541:CB:4892, V-A:LEU:475:CD1:4258, V-B:ALA:541:CA:9862, V-A:PRO:482:CB:4326, V-A:SER:385:CB:3409, V-A:LEU:475:CG:4257, V-A:PRO:482:CG:4327, V-B:ARG:545:CZ:9898"]

$$$$
RR28_Rahimova_2017
     RDKit          3D

 46 49  0  0  0  0  0  0  0  0999 V2000
  133.8180  124.0580   57.5450 C   0  0  0  0  0  0  0  0  0  0  0  0
  132.6500  125.0280   57.6850 C   0  0  0  0  0  0  0  0  0  0  0  0
  132.2210  125.6080   56.6900 O   0  0  0  0  0  0  0  0  0  0  0  0
  132.1530  125.1890   58.9280 N   0  0  0  0  0  0  0  0  0  0  0  0
  131.0380  126.0610   59.3630 C   0  0  0  0  0  0  0  0  0  0  0  0
  130.9280  125.9730   60.9120 C   0  0  0  0  0  0  0  0  0  0  0  0
  129.8240  126.5530   61.5570 C   0  0  0  0  0  0  0  0  0  0  0  0
  129.6940  126.4970   62.9410 C   0  0  0  0  0  0  0  0  0  0  0  0
  130.6670  125.8610   63.7140 C   0  0  0  0  0  0  0  0  0  0  0  0
  130.5100  125.8140   65.2340 C   0  0  0  0  0  0  0  0  0  0  0  0
  129.8670  124.7180   65.6430 F   0  0  0  0  0  0  0  0  0  0  0  0
  131.7050  125.8340   65.8230 F   0  0  0  0  0  0  0  0  0  0  0  0
  129.8140  126.8780   65.6350 F   0  0  0  0  0  0  0  0  0  0  0  0
  131.7710  125.2810   63.0840 C   0  0  0  0  0  0  0  0  0  0  0  0
  131.9000  125.3370   61.6990 C   0  0  0  0  0  0  0  0  0  0  0  0
  129.7140  125.6770   58.6120 C   0  0  0  0  0  0  0  0  0  0  0  0
  129.7730  125.9470   57.0870 C   0  0  0  0  0  0  0  0  0  0  0  0
  130.0510  127.3840   56.9290 N   0  0  0  0  0  0  0  0  0  0  0  0
  129.0290  128.2700   56.7770 C   0  0  0  0  0  0  0  0  0  0  0  0
  127.8650  127.9010   56.5960 O   0  0  0  0  0  0  0  0  0  0  0  0
  129.3570  129.7780   56.6620 C   0  0  0  0  0  0  0  0  0  0  0  0
  128.1420  130.7230   56.4500 C   0  0  0  0  0  0  0  0  0  0  0  0
  127.9000  131.7450   57.5850 C   0  0  0  0  0  0  0  0  0  0  0  0
  128.0420  132.9440   57.3240 O   0  0  0  0  0  0  0  0  0  0  0  0
  127.4120  131.3210   58.7850 N   0  0  0  0  0  0  0  0  0  0  0  0
  127.5200  129.9350   59.2560 C   0  0  0  0  0  0  0  0  0  0  0  0
  128.9020  129.8070   59.9330 C   0  0  0  0  0  0  0  0  0  0  0  0
  129.1580  130.8230   61.1010 C   0  0  0  0  0  0  0  0  0  0  0  0
  130.6070  130.8780   61.3880 N   0  0  0  0  0  0  0  0  0  0  0  0
  131.5990  131.2970   60.5780 C   0  0  0  0  0  0  0  0  0  0  0  0
  133.0130  131.2210   61.1460 C   0  0  0  0  0  0  0  0  0  0  0  0
  131.4250  131.7230   59.4370 O   0  0  0  0  0  0  0  0  0  0  0  0
  128.4460  130.2610   62.3740 C   0  0  0  0  0  0  0  0  0  0  0  0
  128.5300  130.8840   63.6310 C   0  0  0  0  0  0  0  0  0  0  0  0
  127.8800  130.3510   64.7410 C   0  0  0  0  0  0  0  0  0  0  0  0
  127.1310  129.1780   64.6240 C   0  0  0  0  0  0  0  0  0  0  0  0
  126.4080  128.5820   65.8310 C   0  0  0  0  0  0  0  0  0  0  0  0
  127.2860  128.1820   66.7530 F   0  0  0  0  0  0  0  0  0  0  0  0
  125.6190  129.5110   66.3700 F   0  0  0  0  0  0  0  0  0  0  0  0
  125.6540  127.5330   65.4990 F   0  0  0  0  0  0  0  0  0  0  0  0
  127.0450  128.5420   63.3840 C   0  0  0  0  0  0  0  0  0  0  0  0
  127.6960  129.0780   62.2770 C   0  0  0  0  0  0  0  0  0  0  0  0
  128.6270  132.2450   60.6700 C   0  0  0  0  0  0  0  0  0  0  0  0
  127.2780  132.2650   59.9020 C   0  0  0  0  0  0  0  0  0  0  0  0
  131.3740  127.7800   57.4320 C   0  0  0  0  0  0  0  0  0  0  0  0
  131.3700  127.5360   58.9640 C   0  0  0  0  0  0  0  0  0  0  0  0
  1  2  1  0
  2  3  2  0
  2  4  1  0
  4  5  1  0
  5  6  1  0
  6  7  2  0
  7  8  1  0
  8  9  2  0
  9 10  1  0
 10 11  1  0
 10 12  1  0
 10 13  1  0
  9 14  1  0
 14 15  2  0
  5 16  1  0
 16 17  1  0
 17 18  1  0
 18 19  1  0
 19 20  2  0
 19 21  1  0
 21 22  1  0
 22 23  1  0
 23 24  2  0
 23 25  1  0
 25 26  1  0
 26 27  1  0
 27 28  1  0
 28 29  1  0
 29 30  1  0
 30 31  1  0
 30 32  2  0
 28 33  1  0
 33 34  2  0
 34 35  1  0
 35 36  2  0
 36 37  1  0
 37 38  1  0
 37 39  1  0
 37 40  1  0
 36 41  1  0
 41 42  2  0
 28 43  1  0
 43 44  1  0
 18 45  1  0
 45 46  1  0
 46  5  1  0
 15  6  1  0
 44 25  1  0
 42 33  1  0
M  END
>  <Binding energies>  (79) 
[-6.24]

>  <Ligand effiencies>  (79) 
[-0.13]

>  <Interactions>  (79) 
["V-A:ASP:366:C:3208, V-B:MET:535:CE:9807, V-A:GLU:543:CG:4907, V-A:ASP:366:CA:3210, H-B:TYR:531:OH:9767, V-A:GLU:543:CD:4908, H-B:TYR:539:OH:9850, V-A:ASP:366:CB:3212, V-B:GLU:543:CD:9880, V-B:TYR:539:CZ:9849, V-A:ILE:369:CG2:3237, V-B:TYR:484:CZ:9319, V-A:GLU:543:CB:4906, V-A:PRO:540:CA:4883, V-A:ILE:369:CB:3236, V-A:PRO:540:CB:4885, V-A:ASN:362:CB:3176, V-B:HIS:456:CE1:9042, V-B:TYR:539:CE2:9848, V-A:TYR:484:CZ:4347, V-B:GLU:543:CG:9879, V-A:ASP:366:CG:3213, V-A:TYR:484:CE2:4346, V-A:HIS:456:CE1:4070, V-A:TYR:539:CD1:4873, V-A:TYR:539:CE1:4875, V-A:TYR:484:CE1:4345, H-A:GLU:543:OE1:4909, H-A:ASP:366:OD2:3215, V-B:GLU:543:CB:9878, V-B:ARG:545:CG:9894, V-B:ARG:545:CZ:9898, V-B:TYR:484:CE2:9318, V-B:ARG:545:CD:9895, V-A:TYR:484:CD2:4344, V-B:TYR:484:CE1:9317"]

$$$$
RR29_Rahimova_2017
     RDKit          3D

 18 19  0  0  0  0  0  0  0  0999 V2000
  132.1180  125.0860   59.5870 C   0  0  0  0  0  0  0  0  0  0  0  0
  131.9400  124.6770   61.0420 C   0  0  0  0  0  0  0  0  0  0  0  0
  132.2380  123.1810   61.2880 C   0  0  0  0  0  0  0  0  0  0  0  0
  131.2360  122.2700   60.5480 C   0  0  0  0  0  0  0  0  0  0  0  0
  129.8040  122.4910   61.0110 C   0  0  0  0  0  0  0  0  0  0  0  0
  129.4240  122.1240   62.3180 C   0  0  0  0  0  0  0  0  0  0  0  0
  128.1100  122.3200   62.7660 C   0  0  0  0  0  0  0  0  0  0  0  0
  127.2010  122.8740   61.8720 C   0  0  0  0  0  0  0  0  0  0  0  0
  127.5640  123.2290   60.6030 C   0  0  0  0  0  0  0  0  0  0  0  0
  128.8620  123.0570   60.1350 C   0  0  0  0  0  0  0  0  0  0  0  0
  126.4940  123.7740   59.9650 O   0  0  0  0  0  0  0  0  0  0  0  0
  125.3960  123.5490   60.8080 C   0  0  0  0  0  0  0  0  0  0  0  0
  125.8930  123.1860   62.0690 O   0  0  0  0  0  0  0  0  0  0  0  0
  131.5680  125.5640   61.8890 N   0  0  0  0  0  0  0  0  0  0  0  0
  131.3240  125.1780   63.1880 N   0  0  0  0  0  0  0  0  0  0  0  0
  130.4550  125.7950   64.0050 C   0  0  0  0  0  0  0  0  0  0  0  0
  129.7030  126.8430   63.6660 N   0  0  0  0  0  0  0  0  0  0  0  0
  130.3320  125.3290   65.2390 N   0  0  0  0  0  0  0  0  0  0  0  0
  1  2  1  0
  2  3  1  0
  3  4  1  0
  4  5  1  0
  5  6  2  0
  6  7  1  0
  7  8  2  0
  8  9  1  0
  9 10  2  0
  9 11  1  0
 11 12  1  0
 12 13  1  0
  2 14  2  0
 14 15  1  0
 15 16  1  0
 16 17  1  0
 16 18  2  0
 10  5  1  0
 13  8  1  0
M  CHG  1  18   1
M  END
>  <Binding energies>  (80) 
[-7.01]

>  <Ligand effiencies>  (80) 
[-0.30478260869565216]

>  <Interactions>  (80) 
["V-A:GLU:543:CD:4908, V-B:GLU:543:CD:9880, V-B:TYR:539:CD2:9846, H-A:TYR:484:OH:4348, V-B:TYR:539:CE2:9848, V-A:TYR:484:CZ:4347, V-B:PRO:540:CA:9855, V-B:GLU:543:CG:9879, H-A:GLU:543:OE2:4910, V-B:ALA:541:CB:9864, H-B:ALA:541:N:9863, V-A:ASP:366:CG:3213, H-A:ARG:545:NH2:4928, V-A:TYR:484:CE2:4346, V-B:PRO:540:C:9853, V-A:TYR:484:CE1:4345, V-B:ALA:541:CA:9862, H-B:GLU:543:OE2:9882, H-B:GLU:543:OE1:9881, H-A:GLU:543:OE1:4909, V-B:PRO:540:CB:9857"]

$$$$
RR30_Rahimova_2017
     RDKit          3D

 18 19  0  0  0  0  0  0  0  0999 V2000
  130.1660  125.6500   63.4720 C   0  0  0  0  0  0  0  0  0  0  0  0
  131.6220  125.8500   63.9150 C   0  0  0  0  0  0  0  0  0  0  0  0
  132.6010  125.1370   63.0070 C   0  0  0  0  0  0  0  0  0  0  0  0
  133.9080  125.1140   63.0850 N   0  0  0  0  0  0  0  0  0  0  0  0
  134.3400  124.3310   62.0170 N   0  0  0  0  0  0  0  0  0  0  0  0
  133.2580  123.9570   61.3820 C   0  0  0  0  0  0  0  0  0  0  0  0
  133.1520  122.9340   59.9490 S   0  0  0  0  0  0  0  0  0  0  0  0
  132.6330  121.3680   60.7190 C   0  0  0  0  0  0  0  0  0  0  0  0
  131.1150  121.2900   60.9030 C   0  0  0  0  0  0  0  0  0  0  0  0
  130.5160  120.2730   60.5440 O   0  0  0  0  0  0  0  0  0  0  0  0
  130.5260  122.3870   61.4300 N   0  0  0  0  0  0  0  0  0  0  0  0
  129.1730  122.5530   61.6860 C   0  0  0  0  0  0  0  0  0  0  0  0
  128.4920  122.1710   62.7440 N   0  0  0  0  0  0  0  0  0  0  0  0
  127.1470  122.5070   62.6550 N   0  0  0  0  0  0  0  0  0  0  0  0
  126.8380  123.1320   61.5420 C   0  0  0  0  0  0  0  0  0  0  0  0
  125.4380  123.5950   61.2140 C   0  0  0  0  0  0  0  0  0  0  0  0
  128.2090  123.3640   60.4920 S   0  0  0  0  0  0  0  0  0  0  0  0
  132.1210  124.4270   61.9560 O   0  0  0  0  0  0  0  0  0  0  0  0
  1  2  1  0
  2  3  1  0
  3  4  2  0
  4  5  1  0
  5  6  2  0
  6  7  1  0
  7  8  1  0
  8  9  1  0
  9 10  2  0
  9 11  1  0
 11 12  1  0
 12 13  2  0
 13 14  1  0
 14 15  2  0
 15 16  1  0
 15 17  1  0
  6 18  1  0
 18  3  1  0
 17 12  1  0
M  END
>  <Binding energies>  (81) 
[-5.64]

>  <Ligand effiencies>  (81) 
[-0.29684210526315785]

>  <Interactions>  (81) 
["V-A:LEU:475:CD2:4259, V-A:GLU:543:CD:4908, V-B:GLU:543:CD:9880, V-A:ILE:369:CG2:3237, V-B:TYR:539:CD2:9846, H-A:TYR:484:OH:4348, V-B:TYR:539:CE2:9848, V-A:ILE:369:CD1:3239, V-B:PRO:540:CA:9855, V-A:ARG:545:CZ:4926, H-B:ALA:541:N:9863, H-A:ARG:545:NH2:4928, H-A:ARG:545:NE:4924, H-A:ARG:545:NH1:4927, H-A:GLY:454:N:4050, V-B:PRO:540:C:9853, V-B:PRO:540:CB:9857"]

$$$$
RR31_Rahimova_2017
     RDKit          3D

 18 19  0  0  0  0  0  0  0  0999 V2000
  130.6190  116.8890   60.5900 C   0  0  0  0  0  0  0  0  0  0  0  0
  130.5490  118.3980   60.7870 C   0  0  0  0  0  0  0  0  0  0  0  0
  129.6050  118.9270   61.6680 C   0  0  0  0  0  0  0  0  0  0  0  0
  129.5190  120.3020   61.8730 C   0  0  0  0  0  0  0  0  0  0  0  0
  130.3800  121.1900   61.2090 C   0  0  0  0  0  0  0  0  0  0  0  0
  130.2990  122.5720   61.3960 N   0  0  0  0  0  0  0  0  0  0  0  0
  129.2460  123.1890   62.2250 C   0  0  0  0  0  0  0  0  0  0  0  0
  129.0630  124.7060   61.9880 C   0  0  0  0  0  0  0  0  0  0  0  0
  130.3260  125.4230   62.1870 N   0  0  0  0  0  0  0  0  0  0  0  0
  130.1770  126.8700   62.0030 C   0  0  0  0  0  0  0  0  0  0  0  0
  128.7990  127.2660   61.4360 C   0  0  0  0  0  0  0  0  0  0  0  0
  127.8620  127.8250   62.5180 C   0  0  0  0  0  0  0  0  0  0  0  0
  128.5010  127.6600   63.9010 N   0  0  0  0  0  0  0  0  0  0  0  0
  131.2850  124.8990   61.2150 C   0  0  0  0  0  0  0  0  0  0  0  0
  131.5280  123.3900   61.4430 C   0  0  0  0  0  0  0  0  0  0  0  0
  131.3190  120.6460   60.3200 C   0  0  0  0  0  0  0  0  0  0  0  0
  131.4150  119.2660   60.1040 C   0  0  0  0  0  0  0  0  0  0  0  0
  132.4540  118.7380   59.1230 C   0  0  0  0  0  0  0  0  0  0  0  0
  1  2  1  0
  2  3  2  0
  3  4  1  0
  4  5  2  0
  5  6  1  0
  6  7  1  0
  7  8  1  0
  8  9  1  0
  9 10  1  0
 10 11  1  0
 11 12  1  0
 12 13  1  0
  9 14  1  0
 14 15  1  0
  5 16  1  0
 16 17  2  0
 17 18  1  0
 17  2  1  0
 15  6  1  0
M  CHG  1  13   1
M  END
>  <Binding energies>  (82) 
[-5.79]

>  <Ligand effiencies>  (82) 
[-0.2757142857142857]

>  <Interactions>  (82) 
["V-A:LEU:475:CD2:4259, V-A:GLU:543:CD:4908, V-B:GLU:543:CD:9880, V-B:TYR:539:CD2:9846, H-A:TYR:484:OH:4348, V-B:TYR:539:CE2:9848, H-A:GLU:543:OE2:4910, V-B:ALA:541:CB:9864, V-B:TYR:539:CG:9844, V-A:LEU:475:CD1:4258, V-A:PRO:482:CB:4326, V-A:SER:385:CB:3409, H-B:GLU:543:OE2:9882, H-B:GLU:543:OE1:9881, V-A:LEU:475:CG:4257, H-A:GLU:543:OE1:4909, V-A:PRO:482:CG:4327, V-A:LEU:373:CD1:3280, V-A:SER:385:CA:3407"]

$$$$
RR32_Rahimova_2017
     RDKit          3D

 18 20  0  0  0  0  0  0  0  0999 V2000
  125.8870  123.6230   61.6570 C   0  0  0  0  0  0  0  0  0  0  0  0
  127.0190  123.5080   60.6410 C   0  0  0  0  0  0  0  0  0  0  0  0
  128.3310  123.6310   61.0990 C   0  0  0  0  0  0  0  0  0  0  0  0
  129.3900  123.5280   60.2020 C   0  0  0  0  0  0  0  0  0  0  0  0
  130.6900  123.6510   60.6600 N   0  0  0  0  0  0  0  0  0  0  0  0
  131.7700  123.5670   59.6600 C   0  0  0  0  0  0  0  0  0  0  0  0
  133.1830  123.5330   60.2880 C   0  0  0  0  0  0  0  0  0  0  0  0
  133.4000  124.7230   61.1100 N   0  0  0  0  0  0  0  0  0  0  0  0
  134.7440  124.7070   61.6760 C   0  0  0  0  0  0  0  0  0  0  0  0
  132.4000  124.7240   62.1760 C   0  0  0  0  0  0  0  0  0  0  0  0
  130.9750  124.7720   61.5770 C   0  0  0  0  0  0  0  0  0  0  0  0
  129.2050  123.3120   58.8740 N   0  0  0  0  0  0  0  0  0  0  0  0
  127.9370  123.1910   58.3960 C   0  0  0  0  0  0  0  0  0  0  0  0
  127.7740  122.9690   57.0070 C   0  0  0  0  0  0  0  0  0  0  0  0
  126.5020  122.8370   56.4630 C   0  0  0  0  0  0  0  0  0  0  0  0
  125.3760  122.9210   57.2740 C   0  0  0  0  0  0  0  0  0  0  0  0
  125.5010  123.1390   58.6430 C   0  0  0  0  0  0  0  0  0  0  0  0
  126.7860  123.2810   59.2450 C   0  0  0  0  0  0  0  0  0  0  0  0
  1  2  1  0
  2  3  2  0
  3  4  1  0
  4  5  1  0
  5  6  1  0
  6  7  1  0
  7  8  1  0
  8  9  1  0
  8 10  1  0
 10 11  1  0
  4 12  2  0
 12 13  1  0
 13 14  2  0
 14 15  1  0
 15 16  2  0
 16 17  1  0
 17 18  2  0
 18  2  1  0
 11  5  1  0
 18 13  1  0
M  END
>  <Binding energies>  (83) 
[-5.21]

>  <Ligand effiencies>  (83) 
[-0.28944444444444445]

>  <Interactions>  (83) 
["V-B:TYR:539:CE1:9847, V-B:GLU:543:CD:9880, V-B:TYR:539:CZ:9849, V-A:ILE:369:CG2:3237, V-B:TYR:539:CD2:9846, V-B:TYR:539:CE2:9848, V-A:ILE:369:CD1:3239, V-B:PRO:540:CA:9855, V-A:ARG:545:CZ:4926, V-A:ASP:366:CG:3213, V-B:TYR:539:CG:9844, V-B:PRO:540:N:9856, V-A:GLY:453:C:4042, V-A:GLY:453:CA:4044, V-B:PRO:540:CB:9857, V-B:TYR:539:CD1:9845, V-B:PRO:540:CD:9859"]

$$$$
RR5_Rahimova_2017
     RDKit          3D

 45 50  0  0  0  0  0  0  0  0999 V2000
  128.7070  128.2010   61.4780 O   0  0  0  0  0  0  0  0  0  0  0  0
  128.4510  127.4400   62.4100 C   0  0  0  0  0  0  0  0  0  0  0  0
  127.4520  127.8750   63.4990 C   0  0  0  0  0  0  0  0  0  0  0  0
  127.5980  129.3770   63.9360 C   0  0  2  0  0  0  0  0  0  0  0  0
  128.7100  130.1070   63.2950 N   0  0  0  0  0  0  0  0  0  0  0  0
  128.6150  131.4590   62.9940 C   0  0  0  0  0  0  0  0  0  0  0  0
  127.6650  132.2040   63.2470 O   0  0  0  0  0  0  0  0  0  0  0  0
  129.7380  131.8310   62.3560 O   0  0  0  0  0  0  0  0  0  0  0  0
  130.2890  131.0460   61.3030 C   0  0  0  0  0  0  0  0  0  0  0  0
  130.4570  131.8890   60.0200 C   0  0  0  0  0  0  0  0  0  0  0  0
  131.6630  131.4970   59.1860 C   0  0  0  0  0  0  0  0  0  0  0  0
  133.0160  131.4620   59.5400 C   0  0  0  0  0  0  0  0  0  0  0  0
  133.9670  131.0420   58.6090 C   0  0  0  0  0  0  0  0  0  0  0  0
  133.5720  130.6580   57.3270 C   0  0  0  0  0  0  0  0  0  0  0  0
  132.2230  130.6950   56.9700 C   0  0  0  0  0  0  0  0  0  0  0  0
  131.2730  131.1160   57.9020 C   0  0  0  0  0  0  0  0  0  0  0  0
  129.8120  131.2590   57.7990 C   0  0  0  0  0  0  0  0  0  0  0  0
  128.9380  131.0230   56.7340 C   0  0  0  0  0  0  0  0  0  0  0  0
  127.5730  131.2640   56.8960 C   0  0  0  0  0  0  0  0  0  0  0  0
  127.0840  131.7350   58.1170 C   0  0  0  0  0  0  0  0  0  0  0  0
  127.9600  131.9650   59.1780 C   0  0  0  0  0  0  0  0  0  0  0  0
  129.3260  131.7220   59.0220 C   0  0  0  0  0  0  0  0  0  0  0  0
  127.7160  129.4920   65.4760 C   0  0  0  0  0  0  0  0  0  0  0  0
  128.3150  130.3730   66.0600 O   0  0  0  0  0  0  0  0  0  0  0  0
  127.0320  128.4690   66.0670 O   0  0  0  0  0  0  0  0  0  0  0  0
  128.9640  126.1970   62.5550 N   0  0  0  0  0  0  0  0  0  0  0  0
  129.9360  125.3880   61.7590 C   0  0  0  0  0  0  0  0  0  0  0  0
  131.1940  125.3790   62.6920 C   0  0  0  0  0  0  0  0  0  0  0  0
  132.4770  125.1020   62.1890 C   0  0  0  0  0  0  0  0  0  0  0  0
  133.5880  125.0990   63.0270 C   0  0  0  0  0  0  0  0  0  0  0  0
  133.4350  125.3620   64.3840 C   0  0  0  0  0  0  0  0  0  0  0  0
  132.1780  125.6400   64.9080 C   0  0  0  0  0  0  0  0  0  0  0  0
  131.0690  125.6540   64.0680 C   0  0  0  0  0  0  0  0  0  0  0  0
  129.3150  123.9630   61.5730 C   0  0  0  0  0  0  0  0  0  0  0  0
  127.9280  123.7510   61.6190 C   0  0  0  0  0  0  0  0  0  0  0  0
  127.3980  122.4710   61.4700 C   0  0  0  0  0  0  0  0  0  0  0  0
  128.2480  121.3880   61.2770 C   0  0  0  0  0  0  0  0  0  0  0  0
  129.6260  121.5730   61.2240 C   0  0  0  0  0  0  0  0  0  0  0  0
  130.1530  122.8530   61.3640 C   0  0  0  0  0  0  0  0  0  0  0  0
  130.1710  126.1770   60.4270 C   0  0  0  0  0  0  0  0  0  0  0  0
  131.1250  127.2080   60.3550 C   0  0  0  0  0  0  0  0  0  0  0  0
  131.3330  127.9180   59.1760 C   0  0  0  0  0  0  0  0  0  0  0  0
  130.5920  127.6050   58.0420 C   0  0  0  0  0  0  0  0  0  0  0  0
  129.6520  126.5820   58.0780 C   0  0  0  0  0  0  0  0  0  0  0  0
  129.4470  125.8740   59.2600 C   0  0  0  0  0  0  0  0  0  0  0  0
  1  2  2  0
  2  3  1  0
  4  3  1  1
  4  5  1  0
  5  6  1  0
  6  7  2  0
  6  8  1  0
  8  9  1  0
  9 10  1  0
 10 11  1  0
 11 12  2  0
 12 13  1  0
 13 14  2  0
 14 15  1  0
 15 16  2  0
 16 17  1  0
 17 18  2  0
 18 19  1  0
 19 20  2  0
 20 21  1  0
 21 22  2  0
  4 23  1  0
 23 24  2  0
 23 25  1  0
  2 26  1  0
 26 27  1  0
 27 28  1  0
 28 29  2  0
 29 30  1  0
 30 31  2  0
 31 32  1  0
 32 33  2  0
 27 34  1  0
 34 35  2  0
 35 36  1  0
 36 37  2  0
 37 38  1  0
 38 39  2  0
 27 40  1  0
 40 41  2  0
 41 42  1  0
 42 43  2  0
 43 44  1  0
 44 45  2  0
 22 10  1  0
 33 28  1  0
 39 34  1  0
 45 40  1  0
 16 11  1  0
 22 17  1  0
M  END
>  <Binding energies>  (84) 
[-8.65]

>  <Ligand effiencies>  (84) 
[-0.18020833333333333]

>  <Interactions>  (84) 
["V-A:GLU:543:CG:4907, V-A:GLU:543:CD:4908, H-A:ALA:541:N:4891, V-A:ASP:366:CB:3212, V-B:GLU:543:CD:9880, V-B:TYR:484:CZ:9319, V-A:GLU:543:CB:4906, V-A:PRO:540:CA:4883, V-A:PRO:540:CB:4885, H-B:TYR:484:OH:9320, V-A:TYR:484:CZ:4347, V-B:PRO:540:CA:9855, V-A:ASN:362:C:3172, H-A:GLU:543:OE2:4910, V-A:LEU:363:CD1:3189, V-B:ALA:541:CB:9864, V-A:ARG:545:CZ:4926, V-A:LEU:363:CA:3185, V-A:ASP:366:CG:3213, V-B:TYR:539:C:9839, V-A:TYR:484:CE2:4346, V-A:LEU:363:CB:3187, V-B:PRO:540:C:9853, V-A:TYR:539:CD1:4873, V-A:PRO:540:C:4881, V-A:ARG:545:CD:4923, V-B:PRO:540:N:9856, V-A:TYR:539:CE1:4875, V-A:ALA:541:CB:4892, V-A:GLY:453:CA:4044, V-B:ALA:541:CA:9862, H-B:GLU:543:OE2:9882, H-B:GLU:543:OE1:9881, H-A:GLU:543:OE1:4909, V-A:TYR:539:CZ:4877"]

$$$$
