1a_Ghoteimi_2023
     RDKit          3D

 67 70  0  0  0  0  0  0  0  0999 V2000
  131.2370  128.7650   73.1280 C   0  0  0  0  0  0  0  0  0  0  0  0
  129.8860  128.6250   73.8360 C   0  0  0  0  0  0  0  0  0  0  0  0
  129.3430  127.3390   73.5640 O   0  0  0  0  0  0  0  0  0  0  0  0
  128.2970  127.1850   72.7120 C   0  0  0  0  0  0  0  0  0  0  0  0
  127.1160  127.2030   73.0740 O   0  0  0  0  0  0  0  0  0  0  0  0
  128.7190  126.9960   71.2840 C   0  0  0  0  0  0  0  0  0  0  0  0
  128.7190  125.7340   70.6710 C   0  0  0  0  0  0  0  0  0  0  0  0
  129.1190  125.5890   69.3450 C   0  0  0  0  0  0  0  0  0  0  0  0
  129.5230  126.7100   68.6040 C   0  0  0  0  0  0  0  0  0  0  0  0
  129.9500  126.6780   67.2630 N   0  0  0  0  0  0  0  0  0  0  0  0
  131.1820  126.4620   66.7520 C   0  0  0  0  0  0  0  0  0  0  0  0
  132.1980  126.2270   67.4060 O   0  0  0  0  0  0  0  0  0  0  0  0
  131.2790  126.5150   65.2270 C   0  0  0  0  0  0  0  0  0  0  0  0
  132.7160  125.5890   64.6120 S   0  0  0  0  0  0  0  0  0  0  0  0
  132.1770  124.7620   63.1340 C   0  0  0  0  0  0  0  0  0  0  0  0
  131.7970  125.6020   62.1410 N   0  0  0  0  0  0  0  0  0  0  0  0
  131.3680  125.0960   60.9550 C   0  0  0  0  0  0  0  0  0  0  0  0
  130.9850  126.0910   59.8990 C   0  0  0  0  0  0  0  0  0  0  0  0
  130.2080  127.2200   60.2070 C   0  0  0  0  0  0  0  0  0  0  0  0
  129.8550  128.1420   59.2250 C   0  0  0  0  0  0  0  0  0  0  0  0
  130.2650  127.9640   57.9060 C   0  0  0  0  0  0  0  0  0  0  0  0
  129.8700  128.9300   56.9990 O   0  0  0  0  0  0  0  0  0  0  0  0
  129.4500  130.2020   57.4790 C   0  0  0  0  0  0  0  0  0  0  0  0
  131.0370  126.8400   57.5810 C   0  0  0  0  0  0  0  0  0  0  0  0
  131.3880  125.9210   58.5650 C   0  0  0  0  0  0  0  0  0  0  0  0
  131.3120  123.7120   60.7500 C   0  0  0  0  0  0  0  0  0  0  0  0
  131.6760  122.8230   61.7700 C   0  0  0  0  0  0  0  0  0  0  0  0
  131.5610  121.3600   61.4910 C   0  0  0  0  0  0  0  0  0  0  0  0
  132.6280  120.6510   60.9280 C   0  0  0  0  0  0  0  0  0  0  0  0
  132.5180  119.2850   60.6840 C   0  0  0  0  0  0  0  0  0  0  0  0
  131.3460  118.5990   61.0040 C   0  0  0  0  0  0  0  0  0  0  0  0
  131.3290  117.2460   60.7280 O   0  0  0  0  0  0  0  0  0  0  0  0
  130.2430  116.7030   59.9860 C   0  0  0  0  0  0  0  0  0  0  0  0
  130.2770  119.3050   61.5770 C   0  0  0  0  0  0  0  0  0  0  0  0
  130.3890  120.6720   61.8190 C   0  0  0  0  0  0  0  0  0  0  0  0
  132.1270  123.3580   63.0010 C   0  0  0  0  0  0  0  0  0  0  0  0
  132.5350  122.4780   64.1010 C   0  0  0  0  0  0  0  0  0  0  0  0
  132.8580  121.7820   64.9680 N   0  0  0  0  0  0  0  0  0  0  0  0
  129.5280  127.9650   69.2120 C   0  0  0  0  0  0  0  0  0  0  0  0
  129.1280  128.1090   70.5390 C   0  0  0  0  0  0  0  0  0  0  0  0
  132.0372  128.8479   73.8782 H   0  0  0  0  0  0  0  0  0  0  0  0
  131.4146  127.8804   72.4987 H   0  0  0  0  0  0  0  0  0  0  0  0
  131.2294  129.6672   72.4987 H   0  0  0  0  0  0  0  0  0  0  0  0
  130.0258  128.7427   74.9207 H   0  0  0  0  0  0  0  0  0  0  0  0
  129.1967  129.4005   73.4706 H   0  0  0  0  0  0  0  0  0  0  0  0
  128.3999  124.8505   71.2434 H   0  0  0  0  0  0  0  0  0  0  0  0
  129.1182  124.5933   68.8774 H   0  0  0  0  0  0  0  0  0  0  0  0
  129.2080  126.8070   66.5920 H   0  0  0  0  0  0  0  0  0  0  0  0
  130.3645  126.0811   64.7964 H   0  0  0  0  0  0  0  0  0  0  0  0
  131.3954  127.5670   64.9273 H   0  0  0  0  0  0  0  0  0  0  0  0
  129.8724  127.3786   61.2425 H   0  0  0  0  0  0  0  0  0  0  0  0
  129.2470  129.0185   59.4934 H   0  0  0  0  0  0  0  0  0  0  0  0
  129.4515  130.1976   58.5790 H   0  0  0  0  0  0  0  0  0  0  0  0
  130.1398  130.9775   57.1145 H   0  0  0  0  0  0  0  0  0  0  0  0
  128.4341  130.4143   57.1145 H   0  0  0  0  0  0  0  0  0  0  0  0
  131.3668  126.6838   56.5433 H   0  0  0  0  0  0  0  0  0  0  0  0
  131.9932  125.0439   58.2923 H   0  0  0  0  0  0  0  0  0  0  0  0
  130.9788  123.3187   59.7783 H   0  0  0  0  0  0  0  0  0  0  0  0
  133.5607  121.1771   60.6764 H   0  0  0  0  0  0  0  0  0  0  0  0
  133.3625  118.7416   60.2350 H   0  0  0  0  0  0  0  0  0  0  0  0
  129.4795  116.3212   60.6797 H   0  0  0  0  0  0  0  0  0  0  0  0
  129.8033  117.4873   59.3523 H   0  0  0  0  0  0  0  0  0  0  0  0
  130.6067  115.8807   59.3523 H   0  0  0  0  0  0  0  0  0  0  0  0
  129.3474  118.7769   61.8359 H   0  0  0  0  0  0  0  0  0  0  0  0
  129.5471  121.2156   62.2726 H   0  0  0  0  0  0  0  0  0  0  0  0
  129.8500  128.8476   68.6399 H   0  0  0  0  0  0  0  0  0  0  0  0
  129.1335  129.1053   71.0053 H   0  0  0  0  0  0  0  0  0  0  0  0
  1  2  1  0
  2  3  1  0
  3  4  1  0
  4  5  2  0
  4  6  1  0
  6  7  2  0
  7  8  1  0
  8  9  2  0
  9 10  1  0
 10 11  1  0
 11 12  2  0
 11 13  1  0
 13 14  1  0
 14 15  1  0
 15 16  2  0
 16 17  1  0
 17 18  1  0
 18 19  2  0
 19 20  1  0
 20 21  2  0
 21 22  1  0
 22 23  1  0
 21 24  1  0
 24 25  2  0
 17 26  2  0
 26 27  1  0
 27 28  1  0
 28 29  2  0
 29 30  1  0
 30 31  2  0
 31 32  1  0
 32 33  1  0
 31 34  1  0
 34 35  2  0
 27 36  2  0
 36 37  1  0
 37 38  3  0
  9 39  1  0
 39 40  2  0
 40  6  1  0
 36 15  1  0
 25 18  1  0
 35 28  1  0
  1 41  1  0
  1 42  1  0
  1 43  1  0
  2 44  1  0
  2 45  1  0
  7 46  1  0
  8 47  1  0
 10 48  1  0
 13 49  1  0
 13 50  1  0
 19 51  1  0
 20 52  1  0
 23 53  1  0
 23 54  1  0
 23 55  1  0
 24 56  1  0
 25 57  1  0
 26 58  1  0
 29 59  1  0
 30 60  1  0
 33 61  1  0
 33 62  1  0
 33 63  1  0
 34 64  1  0
 35 65  1  0
 39 66  1  0
 40 67  1  0
M  END
>  <Binding energies>  (1) 
[-7.92]

>  <Ligand effiencies>  (1) 
[-0.19317073170731708]

>  <Interactions>  (1) 
["V-A:ASP:366:CG:3212, V-A:ASP:366:CB:3211, H-A:TYR:531:OH:4794, V-B:GLU:543:CD:9879, H-A:TYR:484:OH:4347, V-B:ALA:541:CB:9863, H-B:GLU:543:OE2:9881, V-A:LEU:475:CD2:4258, V-A:PRO:482:CG:4326, V-A:HIS:383:CE1:3393, V-B:TYR:539:CD2:9845, V-A:ILE:369:CG2:3236, V-B:TYR:539:CE2:9847, V-B:TYR:539:CB:9842, V-A:SER:385:CA:3406, V-A:GLY:454:CA:4048, V-B:VAL:344:CG1:7971, H-A:HIS:383:ND1:3390, H-A:GLY:454:N:4049, V-A:HIS:456:CE1:4069, V-B:GLU:543:CB:9877, V-A:GLU:543:CD:4907, V-B:HIS:456:CE1:9040, V-B:GLU:543:C:9873, V-A:GLY:544:C:4911, V-A:GLY:544:CA:4913, H-A:ARG:545:NH2:4927, V-A:TYR:484:CE2:4345, V-B:GLU:543:CA:9875"]

$$$$
1a_Grossjean_2025
     RDKit          3D

 45 46  0  0  0  0  0  0  0  0999 V2000
  123.7130  123.9650   58.6340 C   0  0  0  0  0  0  0  0  0  0  0  0
  125.1010  124.4610   58.2190 C   0  0  0  0  0  0  0  0  0  0  0  0
  125.4480  123.8990   56.9600 O   0  0  0  0  0  0  0  0  0  0  0  0
  126.4240  122.9590   56.8570 C   0  0  0  0  0  0  0  0  0  0  0  0
  126.3120  121.9340   56.1790 O   0  0  0  0  0  0  0  0  0  0  0  0
  127.6480  123.2850   57.6640 C   0  0  0  0  0  0  0  0  0  0  0  0
  127.9960  122.4590   58.7410 C   0  0  0  0  0  0  0  0  0  0  0  0
  129.1220  122.7370   59.5100 C   0  0  0  0  0  0  0  0  0  0  0  0
  129.9210  123.8440   59.2230 C   0  0  0  0  0  0  0  0  0  0  0  0
  131.0330  124.0300   60.0680 N   0  0  0  0  0  0  0  0  0  0  0  0
  132.3340  124.2210   59.7610 C   0  0  0  0  0  0  0  0  0  0  0  0
  132.8010  124.2690   58.6230 O   0  0  0  0  0  0  0  0  0  0  0  0
  133.2720  124.3860   60.9590 C   0  0  0  0  0  0  0  0  0  0  0  0
  133.7370  122.7880   61.6910 S   0  0  0  0  0  0  0  0  0  0  0  0
  132.2790  121.7700   61.7210 C   0  0  0  0  0  0  0  0  0  0  0  0
  131.2000  122.3740   62.2780 N   0  0  0  0  0  0  0  0  0  0  0  0
  130.0370  121.6860   62.3570 C   0  0  0  0  0  0  0  0  0  0  0  0
  128.8780  122.4210   63.0040 C   0  0  0  0  0  0  0  0  0  0  0  0
  129.8990  120.3850   61.8790 C   0  0  0  0  0  0  0  0  0  0  0  0
  131.0000  119.7590   61.2840 C   0  0  0  0  0  0  0  0  0  0  0  0
  130.8210  118.3380   60.7530 C   0  0  0  0  0  0  0  0  0  0  0  0
  132.2240  120.4600   61.1870 C   0  0  0  0  0  0  0  0  0  0  0  0
  133.3770  119.8440   60.5240 C   0  0  0  0  0  0  0  0  0  0  0  0
  134.2850  119.3550   60.0000 N   0  0  0  0  0  0  0  0  0  0  0  0
  129.5850  124.6720   58.1410 C   0  0  0  0  0  0  0  0  0  0  0  0
  128.4580  124.3930   57.3730 C   0  0  0  0  0  0  0  0  0  0  0  0
  123.6453  123.9408   59.7316 H   0  0  0  0  0  0  0  0  0  0  0  0
  122.9461  124.6447   58.2342 H   0  0  0  0  0  0  0  0  0  0  0  0
  123.5505  122.9532   58.2342 H   0  0  0  0  0  0  0  0  0  0  0  0
  125.0900  125.5581   58.1403 H   0  0  0  0  0  0  0  0  0  0  0  0
  125.8406  124.1550   58.9736 H   0  0  0  0  0  0  0  0  0  0  0  0
  127.3742  121.5838   58.9805 H   0  0  0  0  0  0  0  0  0  0  0  0
  129.3842  122.0784   60.3511 H   0  0  0  0  0  0  0  0  0  0  0  0
  130.8010  124.0520   61.0500 H   0  0  0  0  0  0  0  0  0  0  0  0
  134.1845  124.9023   60.6262 H   0  0  0  0  0  0  0  0  0  0  0  0
  132.7408  124.9678   61.7267 H   0  0  0  0  0  0  0  0  0  0  0  0
  128.9714  122.3618   64.0984 H   0  0  0  0  0  0  0  0  0  0  0  0
  128.8922  123.4755   62.6913 H   0  0  0  0  0  0  0  0  0  0  0  0
  127.9302  121.9586   62.6913 H   0  0  0  0  0  0  0  0  0  0  0  0
  128.9381  119.8571   61.9680 H   0  0  0  0  0  0  0  0  0  0  0  0
  130.7330  117.6392   61.5979 H   0  0  0  0  0  0  0  0  0  0  0  0
  129.9095  118.2880   60.1393 H   0  0  0  0  0  0  0  0  0  0  0  0
  131.6917  118.0635   60.1393 H   0  0  0  0  0  0  0  0  0  0  0  0
  130.2128  125.5424   57.8995 H   0  0  0  0  0  0  0  0  0  0  0  0
  128.1996  125.0487   56.5284 H   0  0  0  0  0  0  0  0  0  0  0  0
  1  2  1  0
  2  3  1  0
  3  4  1  0
  4  5  2  0
  4  6  1  0
  6  7  2  0
  7  8  1  0
  8  9  2  0
  9 10  1  0
 10 11  1  0
 11 12  2  0
 11 13  1  0
 13 14  1  0
 14 15  1  0
 15 16  2  0
 16 17  1  0
 17 18  1  0
 17 19  2  0
 19 20  1  0
 20 21  1  0
 20 22  2  0
 22 23  1  0
 23 24  3  0
  9 25  1  0
 25 26  2  0
 26  6  1  0
 22 15  1  0
  1 27  1  0
  1 28  1  0
  1 29  1  0
  2 30  1  0
  2 31  1  0
  7 32  1  0
  8 33  1  0
 10 34  1  0
 13 35  1  0
 13 36  1  0
 18 37  1  0
 18 38  1  0
 18 39  1  0
 19 40  1  0
 21 41  1  0
 21 42  1  0
 21 43  1  0
 25 44  1  0
 26 45  1  0
M  END
>  <Binding energies>  (1) 
[-8.17]

>  <Ligand effiencies>  (1) 
[-0.3025925925925926]

>  <Interactions>  (1) 
["V-A:ASP:366:CG:3212, V-B:PRO:540:N:9855, V-B:ALA:541:CB:9863, V-B:PRO:540:CA:9854, V-B:ALA:541:CA:9861, V-B:TYR:539:C:9838, V-A:LEU:475:CD2:4258, V-A:ILE:369:CD1:3238, V-B:TYR:539:CD2:9845, V-A:ILE:369:CG2:3236, V-B:TYR:539:CE2:9847, V-B:TYR:539:CB:9842, V-A:SER:385:CA:3406, H-B:TYR:539:N:9841, V-B:TYR:539:CG:9843, V-B:MET:535:CE:9806, H-B:TYR:539:OH:9849, V-B:TYR:539:CZ:9848, V-B:PRO:540:CB:9856, V-B:LEU:363:CD1:8159, H-B:TYR:531:OH:9766, V-B:LEU:363:CA:8155, V-B:LEU:363:CB:8157"]

$$$$
1aa_Ghoteimi_2023
     RDKit          3D

 67 70  0  0  0  0  0  0  0  0999 V2000
  130.8840  117.4850   60.8830 C   0  0  0  0  0  0  0  0  0  0  0  0
  132.1710  118.0900   60.3150 C   0  0  0  0  0  0  0  0  0  0  0  0
  132.1360  119.5040   60.4630 O   0  0  0  0  0  0  0  0  0  0  0  0
  133.2090  120.1850   60.9400 C   0  0  0  0  0  0  0  0  0  0  0  0
  134.3730  119.9420   60.6070 O   0  0  0  0  0  0  0  0  0  0  0  0
  132.8400  121.2660   61.9150 C   0  0  0  0  0  0  0  0  0  0  0  0
  131.5090  121.5020   62.2930 C   0  0  0  0  0  0  0  0  0  0  0  0
  131.1970  122.5120   63.2010 C   0  0  0  0  0  0  0  0  0  0  0  0
  132.2150  123.3050   63.7500 C   0  0  0  0  0  0  0  0  0  0  0  0
  132.0200  124.3500   64.6710 N   0  0  0  0  0  0  0  0  0  0  0  0
  132.8640  125.3230   65.0860 C   0  0  0  0  0  0  0  0  0  0  0  0
  134.0210  125.4650   64.6910 O   0  0  0  0  0  0  0  0  0  0  0  0
  132.3310  126.3220   66.1240 C   0  0  0  0  0  0  0  0  0  0  0  0
  131.0900  125.8610   66.6740 O   0  0  0  0  0  0  0  0  0  0  0  0
  130.2150  126.7530   67.2770 C   0  0  0  0  0  0  0  0  0  0  0  0
  130.0800  126.7010   68.6310 N   0  0  0  0  0  0  0  0  0  0  0  0
  129.2220  127.5490   69.2580 C   0  0  0  0  0  0  0  0  0  0  0  0
  129.1330  127.4300   70.7520 C   0  0  0  0  0  0  0  0  0  0  0  0
  129.7500  128.3710   71.5900 C   0  0  0  0  0  0  0  0  0  0  0  0
  129.6700  128.2620   72.9750 C   0  0  0  0  0  0  0  0  0  0  0  0
  128.9710  127.2120   73.5660 C   0  0  0  0  0  0  0  0  0  0  0  0
  128.9460  127.1840   74.9470 O   0  0  0  0  0  0  0  0  0  0  0  0
  128.9620  128.4120   75.6670 C   0  0  0  0  0  0  0  0  0  0  0  0
  128.3440  126.2660   72.7430 C   0  0  0  0  0  0  0  0  0  0  0  0
  128.4250  126.3790   71.3580 C   0  0  0  0  0  0  0  0  0  0  0  0
  128.4880  128.4910   68.5260 C   0  0  0  0  0  0  0  0  0  0  0  0
  128.6170  128.5730   67.1330 C   0  0  0  0  0  0  0  0  0  0  0  0
  127.8150  129.6050   66.4120 C   0  0  0  0  0  0  0  0  0  0  0  0
  126.5990  129.2600   65.8130 C   0  0  0  0  0  0  0  0  0  0  0  0
  125.8410  130.2190   65.1470 C   0  0  0  0  0  0  0  0  0  0  0  0
  126.2770  131.5410   65.0710 C   0  0  0  0  0  0  0  0  0  0  0  0
  125.4600  132.4230   64.3910 O   0  0  0  0  0  0  0  0  0  0  0  0
  124.5010  131.9130   63.4720 C   0  0  0  0  0  0  0  0  0  0  0  0
  127.4920  131.8940   65.6780 C   0  0  0  0  0  0  0  0  0  0  0  0
  128.2500  130.9330   66.3430 C   0  0  0  0  0  0  0  0  0  0  0  0
  129.4990  127.6720   66.4910 C   0  0  0  0  0  0  0  0  0  0  0  0
  129.6650  127.6530   65.0370 C   0  0  0  0  0  0  0  0  0  0  0  0
  129.7990  127.6360   63.8880 N   0  0  0  0  0  0  0  0  0  0  0  0
  133.5390  123.0730   63.3740 C   0  0  0  0  0  0  0  0  0  0  0  0
  133.8500  122.0650   62.4670 C   0  0  0  0  0  0  0  0  0  0  0  0
  130.9240  117.5038   61.9821 H   0  0  0  0  0  0  0  0  0  0  0  0
  130.0197  118.0711   60.5374 H   0  0  0  0  0  0  0  0  0  0  0  0
  130.7839  116.4455   60.5374 H   0  0  0  0  0  0  0  0  0  0  0  0
  133.0374  117.6858   60.8591 H   0  0  0  0  0  0  0  0  0  0  0  0
  132.2562  117.8351   59.2483 H   0  0  0  0  0  0  0  0  0  0  0  0
  130.7044  120.8837   61.8684 H   0  0  0  0  0  0  0  0  0  0  0  0
  130.1497  122.6877   63.4878 H   0  0  0  0  0  0  0  0  0  0  0  0
  131.0950  124.3710   65.0790 H   0  0  0  0  0  0  0  0  0  0  0  0
  133.0677  126.4303   66.9337 H   0  0  0  0  0  0  0  0  0  0  0  0
  132.1634  127.2912   65.6314 H   0  0  0  0  0  0  0  0  0  0  0  0
  130.3063  129.2090   71.1447 H   0  0  0  0  0  0  0  0  0  0  0  0
  130.1638  129.0127   73.6096 H   0  0  0  0  0  0  0  0  0  0  0  0
  128.9593  128.2038   76.7471 H   0  0  0  0  0  0  0  0  0  0  0  0
  129.8676  128.9788   75.4051 H   0  0  0  0  0  0  0  0  0  0  0  0
  128.0715  129.0022   75.4051 H   0  0  0  0  0  0  0  0  0  0  0  0
  127.7862  125.4317   73.1932 H   0  0  0  0  0  0  0  0  0  0  0  0
  127.9248  125.6306   70.7257 H   0  0  0  0  0  0  0  0  0  0  0  0
  127.8030  129.1737   69.0502 H   0  0  0  0  0  0  0  0  0  0  0  0
  126.2387  128.2222   65.8687 H   0  0  0  0  0  0  0  0  0  0  0  0
  124.8893  129.9311   64.6764 H   0  0  0  0  0  0  0  0  0  0  0  0
  123.6624  131.4670   64.0269 H   0  0  0  0  0  0  0  0  0  0  0  0
  124.1279  132.7318   62.8393 H   0  0  0  0  0  0  0  0  0  0  0  0
  124.9713  131.1458   62.8393 H   0  0  0  0  0  0  0  0  0  0  0  0
  127.8473  132.9339   65.6285 H   0  0  0  0  0  0  0  0  0  0  0  0
  129.1993  131.2208   66.8183 H   0  0  0  0  0  0  0  0  0  0  0  0
  134.3431  123.6922   63.7983 H   0  0  0  0  0  0  0  0  0  0  0  0
  134.8982  121.8937   62.1807 H   0  0  0  0  0  0  0  0  0  0  0  0
  1  2  1  0
  2  3  1  0
  3  4  1  0
  4  5  2  0
  4  6  1  0
  6  7  2  0
  7  8  1  0
  8  9  2  0
  9 10  1  0
 10 11  1  0
 11 12  2  0
 11 13  1  0
 13 14  1  0
 14 15  1  0
 15 16  2  0
 16 17  1  0
 17 18  1  0
 18 19  2  0
 19 20  1  0
 20 21  2  0
 21 22  1  0
 22 23  1  0
 21 24  1  0
 24 25  2  0
 17 26  2  0
 26 27  1  0
 27 28  1  0
 28 29  2  0
 29 30  1  0
 30 31  2  0
 31 32  1  0
 32 33  1  0
 31 34  1  0
 34 35  2  0
 27 36  2  0
 36 37  1  0
 37 38  3  0
  9 39  1  0
 39 40  2  0
 40  6  1  0
 36 15  1  0
 25 18  1  0
 35 28  1  0
  1 41  1  0
  1 42  1  0
  1 43  1  0
  2 44  1  0
  2 45  1  0
  7 46  1  0
  8 47  1  0
 10 48  1  0
 13 49  1  0
 13 50  1  0
 19 51  1  0
 20 52  1  0
 23 53  1  0
 23 54  1  0
 23 55  1  0
 24 56  1  0
 25 57  1  0
 26 58  1  0
 29 59  1  0
 30 60  1  0
 33 61  1  0
 33 62  1  0
 33 63  1  0
 34 64  1  0
 35 65  1  0
 39 66  1  0
 40 67  1  0
M  END
>  <Binding energies>  (1) 
[-8.54]

>  <Ligand effiencies>  (1) 
[-0.20829268292682926]

>  <Interactions>  (1) 
["V-B:GLU:543:CD:9879, H-A:TYR:484:OH:4347, H-B:GLU:543:OE2:9881, V-A:LEU:475:CD2:4258, V-A:HIS:383:CE1:3393, V-A:ILE:369:CD1:3238, V-B:TYR:539:CD2:9845, V-A:ILE:369:CG2:3236, V-A:SER:385:CA:3406, V-A:GLY:454:CA:4048, V-A:PRO:482:CB:4325, H-A:GLY:454:N:4049, V-A:ARG:545:CZ:4925, V-A:HIS:456:CE1:4069, V-A:GLU:543:CD:4907, V-B:HIS:456:CE1:9040, V-B:TYR:484:CZ:9317, H-B:LYS:547:NZ:9922, V-A:GLU:543:CG:4906, V-A:GLU:543:CB:4905, H-A:ARG:545:NH1:4926, H-A:ARG:545:NH2:4927, H-A:ARG:545:NE:4923, V-B:TYR:484:CE2:9316, V-B:GLY:454:CA:9019"]

$$$$
1b_Ghoteimi_2023
     RDKit          3D

 54 57  0  0  0  0  0  0  0  0999 V2000
  129.8730  125.8930   68.1400 C   0  0  0  0  0  0  0  0  0  0  0  0
  130.2490  127.1280   67.5420 O   0  0  0  0  0  0  0  0  0  0  0  0
  130.2500  127.2370   66.1650 C   0  0  0  0  0  0  0  0  0  0  0  0
  131.2040  126.4860   65.4800 C   0  0  0  0  0  0  0  0  0  0  0  0
  131.2810  126.5330   64.0910 C   0  0  0  0  0  0  0  0  0  0  0  0
  130.4030  127.3310   63.3430 C   0  0  0  0  0  0  0  0  0  0  0  0
  130.4900  127.3810   61.8430 C   0  0  0  0  0  0  0  0  0  0  0  0
  130.5240  128.5790   61.1220 C   0  0  0  0  0  0  0  0  0  0  0  0
  130.6100  128.5710   59.7240 C   0  0  0  0  0  0  0  0  0  0  0  0
  130.6360  129.8870   59.0200 C   0  0  0  0  0  0  0  0  0  0  0  0
  129.4590  130.4330   58.5000 C   0  0  0  0  0  0  0  0  0  0  0  0
  129.4800  131.6560   57.8350 C   0  0  0  0  0  0  0  0  0  0  0  0
  130.6760  132.3550   57.6740 C   0  0  0  0  0  0  0  0  0  0  0  0
  130.6010  133.5600   57.0010 O   0  0  0  0  0  0  0  0  0  0  0  0
  130.3120  133.5590   55.6070 C   0  0  0  0  0  0  0  0  0  0  0  0
  131.8620  131.8070   58.1870 C   0  0  0  0  0  0  0  0  0  0  0  0
  131.8370  130.5840   58.8500 C   0  0  0  0  0  0  0  0  0  0  0  0
  130.6750  127.3210   59.0600 C   0  0  0  0  0  0  0  0  0  0  0  0
  130.8620  127.2590   57.6070 C   0  0  0  0  0  0  0  0  0  0  0  0
  131.0100  127.2110   56.4600 N   0  0  0  0  0  0  0  0  0  0  0  0
  130.6160  126.1490   59.8460 C   0  0  0  0  0  0  0  0  0  0  0  0
  130.6750  124.4960   59.1850 S   0  0  0  0  0  0  0  0  0  0  0  0
  129.5170  123.4650   60.1460 C   0  0  0  0  0  0  0  0  0  0  0  0
  128.1940  123.1400   59.4370 C   0  0  0  0  0  0  0  0  0  0  0  0
  127.1500  123.0150   60.0800 O   0  0  0  0  0  0  0  0  0  0  0  0
  128.2920  123.0080   58.0950 N   0  0  0  0  0  0  0  0  0  0  0  0
  127.2670  122.7190   57.2020 C   0  0  0  0  0  0  0  0  0  0  0  0
  125.9570  123.1620   57.3780 C   0  0  0  0  0  0  0  0  0  0  0  0
  125.2650  122.6710   56.2940 C   0  0  0  0  0  0  0  0  0  0  0  0
  126.1150  121.9720   55.5050 O   0  0  0  0  0  0  0  0  0  0  0  0
  127.3810  122.0100   56.0910 N   0  0  0  0  0  0  0  0  0  0  0  0
  130.5460  126.1860   61.1990 N   0  0  0  0  0  0  0  0  0  0  0  0
  129.4470  128.0840   64.0430 C   0  0  0  0  0  0  0  0  0  0  0  0
  129.3670  128.0410   65.4310 C   0  0  0  0  0  0  0  0  0  0  0  0
  129.9031  125.9917   69.2351 H   0  0  0  0  0  0  0  0  0  0  0  0
  128.8534  125.6278   67.8236 H   0  0  0  0  0  0  0  0  0  0  0  0
  130.5718  125.1046   67.8236 H   0  0  0  0  0  0  0  0  0  0  0  0
  131.9030  125.8499   66.0428 H   0  0  0  0  0  0  0  0  0  0  0  0
  132.0433  125.9342   63.5712 H   0  0  0  0  0  0  0  0  0  0  0  0
  130.4827  129.5382   61.6589 H   0  0  0  0  0  0  0  0  0  0  0  0
  128.5084  129.8920   58.6171 H   0  0  0  0  0  0  0  0  0  0  0  0
  128.5454  132.0744   57.4332 H   0  0  0  0  0  0  0  0  0  0  0  0
  129.2221  133.5552   55.4585 H   0  0  0  0  0  0  0  0  0  0  0  0
  130.7422  134.4586   55.1427 H   0  0  0  0  0  0  0  0  0  0  0  0
  130.7484  132.6624   55.1427 H   0  0  0  0  0  0  0  0  0  0  0  0
  132.8133  132.3456   58.0646 H   0  0  0  0  0  0  0  0  0  0  0  0
  132.7722  130.1604   59.2450 H   0  0  0  0  0  0  0  0  0  0  0  0
  130.0202  122.5155   60.3810 H   0  0  0  0  0  0  0  0  0  0  0  0
  129.2513  124.0516   61.0378 H   0  0  0  0  0  0  0  0  0  0  0  0
  129.2030  123.1430   57.6820 H   0  0  0  0  0  0  0  0  0  0  0  0
  125.5619  123.7717   58.2040 H   0  0  0  0  0  0  0  0  0  0  0  0
  124.1929  122.8223   56.0998 H   0  0  0  0  0  0  0  0  0  0  0  0
  128.7470  128.7210   63.4824 H   0  0  0  0  0  0  0  0  0  0  0  0
  128.6077  128.6403   65.9548 H   0  0  0  0  0  0  0  0  0  0  0  0
  1  2  1  0
  2  3  1  0
  3  4  2  0
  4  5  1  0
  5  6  2  0
  6  7  1  0
  7  8  2  0
  8  9  1  0
  9 10  1  0
 10 11  2  0
 11 12  1  0
 12 13  2  0
 13 14  1  0
 14 15  1  0
 13 16  1  0
 16 17  2  0
  9 18  2  0
 18 19  1  0
 19 20  3  0
 18 21  1  0
 21 22  1  0
 22 23  1  0
 23 24  1  0
 24 25  2  0
 24 26  1  0
 26 27  1  0
 27 28  1  0
 28 29  2  0
 29 30  1  0
 30 31  1  0
 21 32  2  0
  6 33  1  0
 33 34  2  0
 34  3  1  0
 32  7  1  0
 17 10  1  0
 31 27  2  0
  1 35  1  0
  1 36  1  0
  1 37  1  0
  4 38  1  0
  5 39  1  0
  8 40  1  0
 11 41  1  0
 12 42  1  0
 15 43  1  0
 15 44  1  0
 15 45  1  0
 16 46  1  0
 17 47  1  0
 23 48  1  0
 23 49  1  0
 26 50  1  0
 28 51  1  0
 29 52  1  0
 33 53  1  0
 34 54  1  0
M  END
>  <Binding energies>  (1) 
[-8.63]

>  <Ligand effiencies>  (1) 
[-0.24657142857142858]

>  <Interactions>  (1) 
["H-A:TYR:531:OH:4794, V-A:ILE:538:CA:4859, V-B:GLU:543:CD:9879, V-B:PRO:540:N:9855, V-B:PRO:540:CA:9854, V-B:TYR:539:C:9838, V-B:TYR:539:CD2:9845, V-B:TYR:539:CE2:9847, H-B:TYR:539:N:9841, V-B:TYR:539:CG:9843, V-B:MET:535:CE:9806, H-B:TYR:539:OH:9849, V-B:TYR:539:CZ:9848, V-B:PRO:540:CB:9856, V-B:PRO:540:CD:9858, V-B:TYR:531:CE2:9764, V-B:LEU:363:CD1:8159, V-A:HIS:456:CE1:4069, V-B:GLU:543:CB:9877, V-A:GLU:543:CD:4907, V-A:ILE:538:CB:4861, V-A:ILE:538:CG2:4862, V-A:TYR:484:CE2:4345, H-A:TYR:539:N:4869, V-A:ILE:538:C:4857"]

$$$$
1b_Grossjean_2025
     RDKit          3D

 42 43  0  0  0  0  0  0  0  0999 V2000
  124.5970  123.9900   58.1170 C   0  0  0  0  0  0  0  0  0  0  0  0
  125.4120  123.9270   56.9540 O   0  0  0  0  0  0  0  0  0  0  0  0
  126.3810  122.9850   56.8310 C   0  0  0  0  0  0  0  0  0  0  0  0
  126.2810  121.9960   56.0980 O   0  0  0  0  0  0  0  0  0  0  0  0
  127.5950  123.2690   57.6690 C   0  0  0  0  0  0  0  0  0  0  0  0
  127.9570  122.4530   58.7510 C   0  0  0  0  0  0  0  0  0  0  0  0
  129.0870  122.7440   59.5090 C   0  0  0  0  0  0  0  0  0  0  0  0
  129.8770  123.8530   59.2050 C   0  0  0  0  0  0  0  0  0  0  0  0
  130.9940  124.0510   60.0390 N   0  0  0  0  0  0  0  0  0  0  0  0
  132.2960  124.2260   59.7230 C   0  0  0  0  0  0  0  0  0  0  0  0
  132.7590  124.2500   58.5840 O   0  0  0  0  0  0  0  0  0  0  0  0
  133.2380  124.4190   60.9130 C   0  0  0  0  0  0  0  0  0  0  0  0
  133.6940  122.8400   61.6900 S   0  0  0  0  0  0  0  0  0  0  0  0
  132.2360  121.8190   61.7120 C   0  0  0  0  0  0  0  0  0  0  0  0
  131.1750  122.3960   62.3280 N   0  0  0  0  0  0  0  0  0  0  0  0
  130.0120  121.7070   62.4010 C   0  0  0  0  0  0  0  0  0  0  0  0
  128.8640  122.4200   63.0900 C   0  0  0  0  0  0  0  0  0  0  0  0
  129.8650  120.4230   61.8780 C   0  0  0  0  0  0  0  0  0  0  0  0
  130.9600  119.8120   61.2610 C   0  0  0  0  0  0  0  0  0  0  0  0
  130.7800  118.3980   60.7090 C   0  0  0  0  0  0  0  0  0  0  0  0
  132.1850  120.5120   61.1730 C   0  0  0  0  0  0  0  0  0  0  0  0
  133.3580  119.8750   60.5700 C   0  0  0  0  0  0  0  0  0  0  0  0
  134.2820  119.3690   60.0930 N   0  0  0  0  0  0  0  0  0  0  0  0
  129.5220  124.6740   58.1250 C   0  0  0  0  0  0  0  0  0  0  0  0
  128.3920  124.3810   57.3670 C   0  0  0  0  0  0  0  0  0  0  0  0
  125.2327  123.9409   59.0133 H   0  0  0  0  0  0  0  0  0  0  0  0
  124.0330  124.9344   58.1188 H   0  0  0  0  0  0  0  0  0  0  0  0
  123.8946  123.1435   58.1188 H   0  0  0  0  0  0  0  0  0  0  0  0
  127.3426  121.5759   59.0023 H   0  0  0  0  0  0  0  0  0  0  0  0
  129.3595  122.0948   60.3542 H   0  0  0  0  0  0  0  0  0  0  0  0
  130.7750  124.0490   61.0250 H   0  0  0  0  0  0  0  0  0  0  0  0
  134.1531  124.9191   60.5631 H   0  0  0  0  0  0  0  0  0  0  0  0
  132.7128  125.0264   61.6648 H   0  0  0  0  0  0  0  0  0  0  0  0
  128.9867  122.3438   64.1805 H   0  0  0  0  0  0  0  0  0  0  0  0
  128.8603  123.4796   62.7946 H   0  0  0  0  0  0  0  0  0  0  0  0
  127.9126  121.9536   62.7946 H   0  0  0  0  0  0  0  0  0  0  0  0
  128.9009  119.8983   61.9500 H   0  0  0  0  0  0  0  0  0  0  0  0
  130.6895  117.6873   61.5437 H   0  0  0  0  0  0  0  0  0  0  0  0
  129.8695  118.3580   60.0930 H   0  0  0  0  0  0  0  0  0  0  0  0
  131.6514  118.1312   60.0930 H   0  0  0  0  0  0  0  0  0  0  0  0
  130.1376  125.5511   57.8765 H   0  0  0  0  0  0  0  0  0  0  0  0
  128.1216  125.0300   56.5210 H   0  0  0  0  0  0  0  0  0  0  0  0
  1  2  1  0
  2  3  1  0
  3  4  2  0
  3  5  1  0
  5  6  2  0
  6  7  1  0
  7  8  2  0
  8  9  1  0
  9 10  1  0
 10 11  2  0
 10 12  1  0
 12 13  1  0
 13 14  1  0
 14 15  2  0
 15 16  1  0
 16 17  1  0
 16 18  2  0
 18 19  1  0
 19 20  1  0
 19 21  2  0
 21 22  1  0
 22 23  3  0
  8 24  1  0
 24 25  2  0
 25  5  1  0
 21 14  1  0
  1 26  1  0
  1 27  1  0
  1 28  1  0
  6 29  1  0
  7 30  1  0
  9 31  1  0
 12 32  1  0
 12 33  1  0
 17 34  1  0
 17 35  1  0
 17 36  1  0
 18 37  1  0
 20 38  1  0
 20 39  1  0
 20 40  1  0
 24 41  1  0
 25 42  1  0
M  END
>  <Binding energies>  (1) 
[-7.85]

>  <Ligand effiencies>  (1) 
[-0.3019230769230769]

>  <Interactions>  (1) 
["V-A:ASP:366:CG:3212, V-B:PRO:540:N:9855, V-B:ALA:541:CB:9863, V-B:PRO:540:CA:9854, V-B:ALA:541:CA:9861, V-B:TYR:539:C:9838, V-A:LEU:475:CD2:4258, V-A:ILE:369:CD1:3238, V-B:TYR:539:CD2:9845, V-A:ILE:369:CG2:3236, V-B:TYR:539:CE2:9847, V-B:TYR:539:CB:9842, V-A:SER:385:CA:3406, H-B:TYR:539:N:9841, V-B:TYR:539:CG:9843, V-B:MET:535:CE:9806, H-B:TYR:539:OH:9849, V-B:TYR:539:CZ:9848, V-B:PRO:540:CB:9856, V-B:LEU:363:CD1:8159, H-B:TYR:531:OH:9766, H-A:SER:385:N:3407"]

$$$$
1c_Ghoteimi_2023
     RDKit          3D

 54 57  0  0  0  0  0  0  0  0999 V2000
  128.9020  127.4820   55.4990 C   0  0  0  0  0  0  0  0  0  0  0  0
  130.2490  127.5690   55.9520 O   0  0  0  0  0  0  0  0  0  0  0  0
  130.6360  126.8430   57.0620 C   0  0  0  0  0  0  0  0  0  0  0  0
  129.7630  126.8450   58.1470 C   0  0  0  0  0  0  0  0  0  0  0  0
  130.0750  126.1430   59.3080 C   0  0  0  0  0  0  0  0  0  0  0  0
  131.2710  125.4170   59.4190 C   0  0  0  0  0  0  0  0  0  0  0  0
  131.6130  124.6620   60.6710 C   0  0  0  0  0  0  0  0  0  0  0  0
  131.6630  125.2690   61.9300 C   0  0  0  0  0  0  0  0  0  0  0  0
  131.9600  124.5180   63.0740 C   0  0  0  0  0  0  0  0  0  0  0  0
  131.9300  125.2180   64.3930 C   0  0  0  0  0  0  0  0  0  0  0  0
  133.1140  125.4720   65.0900 C   0  0  0  0  0  0  0  0  0  0  0  0
  133.0820  126.1050   66.3290 C   0  0  0  0  0  0  0  0  0  0  0  0
  131.8680  126.4900   66.8960 C   0  0  0  0  0  0  0  0  0  0  0  0
  131.9320  127.1120   68.1290 O   0  0  0  0  0  0  0  0  0  0  0  0
  130.8790  127.9860   68.5220 C   0  0  0  0  0  0  0  0  0  0  0  0
  130.6760  126.2300   66.2020 C   0  0  0  0  0  0  0  0  0  0  0  0
  130.7100  125.5970   64.9630 C   0  0  0  0  0  0  0  0  0  0  0  0
  132.2370  123.1390   62.9210 C   0  0  0  0  0  0  0  0  0  0  0  0
  132.5880  122.3050   64.0750 C   0  0  0  0  0  0  0  0  0  0  0  0
  132.8640  121.6480   64.9870 N   0  0  0  0  0  0  0  0  0  0  0  0
  132.1520  122.5880   61.6250 C   0  0  0  0  0  0  0  0  0  0  0  0
  132.3080  120.8440   61.3100 S   0  0  0  0  0  0  0  0  0  0  0  0
  130.6910  120.1410   61.7700 C   0  0  0  0  0  0  0  0  0  0  0  0
  129.6750  121.2250   62.1480 C   0  0  0  0  0  0  0  0  0  0  0  0
  129.6720  121.6830   63.2910 O   0  0  0  0  0  0  0  0  0  0  0  0
  128.8670  121.6310   61.1440 N   0  0  0  0  0  0  0  0  0  0  0  0
  127.9770  122.6930   61.1760 C   0  0  0  0  0  0  0  0  0  0  0  0
  127.2440  123.1020   62.1900 N   0  0  0  0  0  0  0  0  0  0  0  0
  126.5390  124.1710   61.8750 C   0  0  0  0  0  0  0  0  0  0  0  0
  126.6950  124.6520   60.5790 C   0  0  0  0  0  0  0  0  0  0  0  0
  127.8270  123.6410   59.7320 S   0  0  0  0  0  0  0  0  0  0  0  0
  131.8400  123.3290   60.5350 N   0  0  0  0  0  0  0  0  0  0  0  0
  132.1400  125.4160   58.3180 C   0  0  0  0  0  0  0  0  0  0  0  0
  131.8330  126.1180   57.1560 C   0  0  0  0  0  0  0  0  0  0  0  0
  128.2258  127.4383   56.3655 H   0  0  0  0  0  0  0  0  0  0  0  0
  128.6619  128.3665   54.8907 H   0  0  0  0  0  0  0  0  0  0  0  0
  128.7776  126.5740   54.8907 H   0  0  0  0  0  0  0  0  0  0  0  0
  128.8188  127.4061   58.0861 H   0  0  0  0  0  0  0  0  0  0  0  0
  129.3715  126.1576   60.1535 H   0  0  0  0  0  0  0  0  0  0  0  0
  131.4670  126.3474   62.0225 H   0  0  0  0  0  0  0  0  0  0  0  0
  134.0785  125.1694   64.6562 H   0  0  0  0  0  0  0  0  0  0  0  0
  134.0219  126.3031   66.8651 H   0  0  0  0  0  0  0  0  0  0  0  0
  130.8281  128.0283   69.6200 H   0  0  0  0  0  0  0  0  0  0  0  0
  131.0713  128.9936   68.1248 H   0  0  0  0  0  0  0  0  0  0  0  0
  129.9241  127.6114   68.1248 H   0  0  0  0  0  0  0  0  0  0  0  0
  129.7114  126.5276   66.6390 H   0  0  0  0  0  0  0  0  0  0  0  0
  129.7707  125.3932   64.4280 H   0  0  0  0  0  0  0  0  0  0  0  0
  130.2977  119.5689   60.9168 H   0  0  0  0  0  0  0  0  0  0  0  0
  130.8404  119.4968   62.6490 H   0  0  0  0  0  0  0  0  0  0  0  0
  128.9650  121.1690   60.2530 H   0  0  0  0  0  0  0  0  0  0  0  0
  125.8650  124.6554   62.5969 H   0  0  0  0  0  0  0  0  0  0  0  0
  126.1842  125.5306   60.1581 H   0  0  0  0  0  0  0  0  0  0  0  0
  133.0815  124.8500   58.3739 H   0  0  0  0  0  0  0  0  0  0  0  0
  132.5326  126.1041   56.3072 H   0  0  0  0  0  0  0  0  0  0  0  0
  1  2  1  0
  2  3  1  0
  3  4  2  0
  4  5  1  0
  5  6  2  0
  6  7  1  0
  7  8  2  0
  8  9  1  0
  9 10  1  0
 10 11  2  0
 11 12  1  0
 12 13  2  0
 13 14  1  0
 14 15  1  0
 13 16  1  0
 16 17  2  0
  9 18  2  0
 18 19  1  0
 19 20  3  0
 18 21  1  0
 21 22  1  0
 22 23  1  0
 23 24  1  0
 24 25  2  0
 24 26  1  0
 26 27  1  0
 27 28  2  0
 28 29  1  0
 29 30  2  0
 30 31  1  0
 21 32  2  0
  6 33  1  0
 33 34  2  0
 34  3  1  0
 32  7  1  0
 17 10  1  0
 31 27  1  0
  1 35  1  0
  1 36  1  0
  1 37  1  0
  4 38  1  0
  5 39  1  0
  8 40  1  0
 11 41  1  0
 12 42  1  0
 15 43  1  0
 15 44  1  0
 15 45  1  0
 16 46  1  0
 17 47  1  0
 23 48  1  0
 23 49  1  0
 26 50  1  0
 29 51  1  0
 30 52  1  0
 33 53  1  0
 34 54  1  0
M  END
>  <Binding energies>  (1) 
[-7.53]

>  <Ligand effiencies>  (1) 
[-0.21514285714285716]

>  <Interactions>  (1) 
["V-A:ASP:366:CG:3212, V-A:ASP:366:CB:3211, H-A:TYR:531:OH:4794, H-B:ALA:541:N:9862, H-A:TYR:484:OH:4347, V-B:ALA:541:CB:9863, V-B:PRO:540:CA:9854, V-B:PRO:540:C:9852, V-B:TYR:539:C:9838, V-A:LEU:475:CD2:4258, H-B:TYR:539:O:9839, V-B:TYR:539:CD2:9845, V-B:TYR:539:CE2:9847, V-A:GLY:454:CA:4048, V-B:MET:535:CE:9806, V-B:TYR:539:CZ:9848, H-A:GLY:454:N:4049, V-A:ARG:545:CD:4922, V-A:ARG:545:CZ:4925, V-A:ARG:545:CG:4921, V-A:HIS:456:CE1:4069, V-A:GLU:543:CD:4907, V-A:GLU:543:CB:4905, V-A:MET:535:CE:4834"]

$$$$
1c_Grossjean_2025
     RDKit          3D

 40 41  0  0  0  0  0  0  0  0999 V2000
  125.0520  122.0580   55.6530 C   0  0  0  0  0  0  0  0  0  0  0  0
  125.9740  123.1190   55.8770 O   0  0  0  0  0  0  0  0  0  0  0  0
  126.6110  123.2100   57.1000 C   0  0  0  0  0  0  0  0  0  0  0  0
  125.9100  123.8520   58.1200 C   0  0  0  0  0  0  0  0  0  0  0  0
  126.4670  123.9920   59.3880 C   0  0  0  0  0  0  0  0  0  0  0  0
  127.7460  123.4790   59.6520 C   0  0  0  0  0  0  0  0  0  0  0  0
  128.4070  123.5750   60.8920 N   0  0  0  0  0  0  0  0  0  0  0  0
  127.9630  123.2560   62.1270 C   0  0  0  0  0  0  0  0  0  0  0  0
  126.8550  122.7870   62.3890 O   0  0  0  0  0  0  0  0  0  0  0  0
  128.9540  123.5070   63.2650 C   0  0  0  0  0  0  0  0  0  0  0  0
  129.8630  121.9990   63.7160 S   0  0  0  0  0  0  0  0  0  0  0  0
  131.3150  121.8900   62.6910 C   0  0  0  0  0  0  0  0  0  0  0  0
  132.1310  122.9710   62.7930 N   0  0  0  0  0  0  0  0  0  0  0  0
  133.2670  123.0010   62.0580 C   0  0  0  0  0  0  0  0  0  0  0  0
  134.1320  124.2360   62.2330 C   0  0  0  0  0  0  0  0  0  0  0  0
  133.6300  121.9730   61.1930 C   0  0  0  0  0  0  0  0  0  0  0  0
  132.7860  120.8660   61.0600 C   0  0  0  0  0  0  0  0  0  0  0  0
  133.1970  119.7590   60.0910 C   0  0  0  0  0  0  0  0  0  0  0  0
  131.5910  120.8130   61.8160 C   0  0  0  0  0  0  0  0  0  0  0  0
  130.6680  119.6880   61.6500 C   0  0  0  0  0  0  0  0  0  0  0  0
  129.9390  118.7990   61.5190 N   0  0  0  0  0  0  0  0  0  0  0  0
  128.4550  122.8460   58.6310 C   0  0  0  0  0  0  0  0  0  0  0  0
  127.8950  122.7080   57.3640 C   0  0  0  0  0  0  0  0  0  0  0  0
  124.7074  121.6615   56.6195 H   0  0  0  0  0  0  0  0  0  0  0  0
  124.1901  122.4354   55.0832 H   0  0  0  0  0  0  0  0  0  0  0  0
  125.5460  121.2572   55.0832 H   0  0  0  0  0  0  0  0  0  0  0  0
  124.9051  124.2525   57.9204 H   0  0  0  0  0  0  0  0  0  0  0  0
  125.9048  124.5045   60.1825 H   0  0  0  0  0  0  0  0  0  0  0  0
  129.3650  123.8830   60.8300 H   0  0  0  0  0  0  0  0  0  0  0  0
  129.6744  124.2748   62.9465 H   0  0  0  0  0  0  0  0  0  0  0  0
  128.3850  123.8388   64.1460 H   0  0  0  0  0  0  0  0  0  0  0  0
  134.2724  124.4364   63.3054 H   0  0  0  0  0  0  0  0  0  0  0  0
  135.1109  124.0680   61.7602 H   0  0  0  0  0  0  0  0  0  0  0  0
  133.6396  125.0985   61.7602 H   0  0  0  0  0  0  0  0  0  0  0  0
  134.5682  122.0305   60.6216 H   0  0  0  0  0  0  0  0  0  0  0  0
  133.5246  118.8765   60.6601 H   0  0  0  0  0  0  0  0  0  0  0  0
  132.3392  119.4890   59.4575 H   0  0  0  0  0  0  0  0  0  0  0  0
  134.0232  120.1143   59.4575 H   0  0  0  0  0  0  0  0  0  0  0  0
  129.4634  122.4532   58.8283 H   0  0  0  0  0  0  0  0  0  0  0  0
  128.4608  122.2037   56.5668 H   0  0  0  0  0  0  0  0  0  0  0  0
  1  2  1  0
  2  3  1  0
  3  4  2  0
  4  5  1  0
  5  6  2  0
  6  7  1  0
  7  8  1  0
  8  9  2  0
  8 10  1  0
 10 11  1  0
 11 12  1  0
 12 13  2  0
 13 14  1  0
 14 15  1  0
 14 16  2  0
 16 17  1  0
 17 18  1  0
 17 19  2  0
 19 20  1  0
 20 21  3  0
  6 22  1  0
 22 23  2  0
 23  3  1  0
 19 12  1  0
  1 24  1  0
  1 25  1  0
  1 26  1  0
  4 27  1  0
  5 28  1  0
  7 29  1  0
 10 30  1  0
 10 31  1  0
 15 32  1  0
 15 33  1  0
 15 34  1  0
 16 35  1  0
 18 36  1  0
 18 37  1  0
 18 38  1  0
 22 39  1  0
 23 40  1  0
M  END
>  <Binding energies>  (1) 
[-7.46]

>  <Ligand effiencies>  (1) 
[-0.31083333333333335]

>  <Interactions>  (1) 
["V-A:ASP:366:CG:3212, V-B:GLU:543:CD:9879, V-B:PRO:540:N:9855, H-B:ALA:541:N:9862, V-B:ALA:541:CB:9863, V-B:PRO:540:CA:9854, V-B:TYR:539:C:9838, V-A:LEU:475:CD2:4258, V-A:ILE:369:CD1:3238, V-B:TYR:539:CD2:9845, V-A:ILE:369:CG2:3236, V-B:TYR:539:CE2:9847, V-A:SER:385:CA:3406, V-B:TYR:539:CG:9843, V-B:MET:535:CE:9806, V-B:TYR:539:CZ:9848, V-B:PRO:540:CB:9856, V-B:TYR:539:CD1:9844, V-B:PRO:540:CD:9858, V-B:TYR:531:CE2:9764, V-B:LEU:363:CD1:8159, V-B:ILE:538:CD1:9836, V-B:ILE:538:CG2:9834, V-B:ILE:538:CA:9831, V-B:TYR:539:CE1:9846, V-B:ILE:538:CB:9833, H-B:TYR:531:OH:9766"]

$$$$
1d_Ghoteimi_2023
     RDKit          3D

 50 52  0  0  0  0  0  0  0  0999 V2000
  124.6350  129.5240   64.1540 C   0  0  0  0  0  0  0  0  0  0  0  0
  123.8600  129.9430   65.2670 O   0  0  0  0  0  0  0  0  0  0  0  0
  124.1610  129.5160   66.5110 C   0  0  0  0  0  0  0  0  0  0  0  0
  123.5450  129.7850   67.5430 O   0  0  0  0  0  0  0  0  0  0  0  0
  125.4020  128.6260   66.5340 C   0  0  0  0  0  0  0  0  0  0  0  0
  126.8240  129.6820   66.9440 S   0  0  0  0  0  0  0  0  0  0  0  0
  128.1400  128.6030   67.4630 C   0  0  0  0  0  0  0  0  0  0  0  0
  128.1730  128.3860   68.7990 N   0  0  0  0  0  0  0  0  0  0  0  0
  129.1300  127.5850   69.3330 C   0  0  0  0  0  0  0  0  0  0  0  0
  129.0930  127.3920   70.8210 C   0  0  0  0  0  0  0  0  0  0  0  0
  129.7250  128.2960   71.6890 C   0  0  0  0  0  0  0  0  0  0  0  0
  129.6950  128.1130   73.0680 C   0  0  0  0  0  0  0  0  0  0  0  0
  129.0340  127.0200   73.6230 C   0  0  0  0  0  0  0  0  0  0  0  0
  129.0590  126.9160   75.0010 O   0  0  0  0  0  0  0  0  0  0  0  0
  130.3040  127.0250   75.6820 C   0  0  0  0  0  0  0  0  0  0  0  0
  128.3980  126.1080   72.7700 C   0  0  0  0  0  0  0  0  0  0  0  0
  128.4290  126.2950   71.3910 C   0  0  0  0  0  0  0  0  0  0  0  0
  130.0820  126.9680   68.5120 C   0  0  0  0  0  0  0  0  0  0  0  0
  130.0810  127.1860   67.1290 C   0  0  0  0  0  0  0  0  0  0  0  0
  131.1300  126.5020   66.3130 C   0  0  0  0  0  0  0  0  0  0  0  0
  130.7880  125.8710   65.1130 C   0  0  0  0  0  0  0  0  0  0  0  0
  131.7600  125.2320   64.3480 C   0  0  0  0  0  0  0  0  0  0  0  0
  133.0910  125.2160   64.7620 C   0  0  0  0  0  0  0  0  0  0  0  0
  133.9850  124.5530   63.9440 O   0  0  0  0  0  0  0  0  0  0  0  0
  133.7810  124.5680   62.5350 C   0  0  0  0  0  0  0  0  0  0  0  0
  133.4410  125.8590   65.9590 C   0  0  0  0  0  0  0  0  0  0  0  0
  132.4680  126.4980   66.7220 C   0  0  0  0  0  0  0  0  0  0  0  0
  129.0950  128.0450   66.5820 C   0  0  0  0  0  0  0  0  0  0  0  0
  129.1100  128.3910   65.1580 C   0  0  0  0  0  0  0  0  0  0  0  0
  129.1230  128.6640   64.0330 N   0  0  0  0  0  0  0  0  0  0  0  0
  125.5505  129.0290   64.5102 H   0  0  0  0  0  0  0  0  0  0  0  0
  124.0504  128.8191   63.5447 H   0  0  0  0  0  0  0  0  0  0  0  0
  124.9047  130.3992   63.5447 H   0  0  0  0  0  0  0  0  0  0  0  0
  125.2863  127.8398   67.2946 H   0  0  0  0  0  0  0  0  0  0  0  0
  125.5487  128.1403   65.5580 H   0  0  0  0  0  0  0  0  0  0  0  0
  130.2539  129.1654   71.2713 H   0  0  0  0  0  0  0  0  0  0  0  0
  130.1976  128.8377   73.7254 H   0  0  0  0  0  0  0  0  0  0  0  0
  130.1304  127.0098   76.7681 H   0  0  0  0  0  0  0  0  0  0  0  0
  130.9502  126.1800   75.4021 H   0  0  0  0  0  0  0  0  0  0  0  0
  130.7936  127.9694   75.4021 H   0  0  0  0  0  0  0  0  0  0  0  0
  127.8714  125.2396   73.1925 H   0  0  0  0  0  0  0  0  0  0  0  0
  127.9238  125.5697   70.7362 H   0  0  0  0  0  0  0  0  0  0  0  0
  130.8382  126.3054   68.9582 H   0  0  0  0  0  0  0  0  0  0  0  0
  129.7427  125.8795   64.7707 H   0  0  0  0  0  0  0  0  0  0  0  0
  131.4752  124.7354   63.4087 H   0  0  0  0  0  0  0  0  0  0  0  0
  132.7049  124.6471   62.3211 H   0  0  0  0  0  0  0  0  0  0  0  0
  134.3061  125.4300   62.0976 H   0  0  0  0  0  0  0  0  0  0  0  0
  134.1744  123.6385   62.0976 H   0  0  0  0  0  0  0  0  0  0  0  0
  134.4882  125.8581   66.2956 H   0  0  0  0  0  0  0  0  0  0  0  0
  132.7537  127.0048   67.6556 H   0  0  0  0  0  0  0  0  0  0  0  0
  1  2  1  0
  2  3  1  0
  3  4  2  0
  3  5  1  0
  5  6  1  0
  6  7  1  0
  7  8  2  0
  8  9  1  0
  9 10  1  0
 10 11  2  0
 11 12  1  0
 12 13  2  0
 13 14  1  0
 14 15  1  0
 13 16  1  0
 16 17  2  0
  9 18  2  0
 18 19  1  0
 19 20  1  0
 20 21  2  0
 21 22  1  0
 22 23  2  0
 23 24  1  0
 24 25  1  0
 23 26  1  0
 26 27  2  0
 19 28  2  0
 28 29  1  0
 29 30  3  0
 28  7  1  0
 17 10  1  0
 27 20  1  0
  1 31  1  0
  1 32  1  0
  1 33  1  0
  5 34  1  0
  5 35  1  0
 11 36  1  0
 12 37  1  0
 15 38  1  0
 15 39  1  0
 15 40  1  0
 16 41  1  0
 17 42  1  0
 18 43  1  0
 21 44  1  0
 22 45  1  0
 25 46  1  0
 25 47  1  0
 25 48  1  0
 26 49  1  0
 27 50  1  0
M  END
>  <Binding energies>  (1) 
[-7.75]

>  <Ligand effiencies>  (1) 
[-0.25833333333333336]

>  <Interactions>  (1) 
["V-A:ASP:366:CG:3212, V-B:GLU:543:CD:9879, V-A:ILE:369:CD1:3238, H-A:GLY:454:N:4049, V-A:ARG:545:CD:4922, V-A:ARG:545:CZ:4925, V-A:ARG:545:CG:4921, V-A:HIS:456:CE1:4069, V-A:GLU:543:CD:4907, V-B:HIS:456:CE1:9040, H-B:LYS:547:NZ:9922, V-B:ARG:545:CD:9894, V-A:GLU:543:CG:4906, V-B:ARG:545:CG:9893, H-B:TYR:484:OH:9318, V-B:ARG:545:CZ:9897, H-B:GLY:454:N:9020, H-B:ILE:455:N:9025"]

$$$$
1d_Grossjean_2025
     RDKit          3D

 36 37  0  0  0  0  0  0  0  0999 V2000
  124.3280  123.4990   63.3430 C   0  0  0  0  0  0  0  0  0  0  0  0
  124.8480  123.5390   61.9200 C   0  0  0  0  0  0  0  0  0  0  0  0
  124.0160  123.8510   60.8470 C   0  0  0  0  0  0  0  0  0  0  0  0
  124.5540  123.8820   59.5550 C   0  0  0  0  0  0  0  0  0  0  0  0
  123.6260  124.2420   58.3970 C   0  0  0  0  0  0  0  0  0  0  0  0
  125.9250  123.5880   59.3700 C   0  0  0  0  0  0  0  0  0  0  0  0
  126.5200  123.6620   58.0340 C   0  0  0  0  0  0  0  0  0  0  0  0
  126.9870  123.7210   56.9770 N   0  0  0  0  0  0  0  0  0  0  0  0
  126.6890  123.2580   60.5140 C   0  0  0  0  0  0  0  0  0  0  0  0
  128.4220  122.8610   60.4650 S   0  0  0  0  0  0  0  0  0  0  0  0
  129.0010  122.7440   62.1850 C   0  0  0  0  0  0  0  0  0  0  0  0
  130.0140  121.6150   62.3770 C   0  0  0  0  0  0  0  0  0  0  0  0
  130.8190  121.6800   63.3070 O   0  0  0  0  0  0  0  0  0  0  0  0
  129.9190  120.5970   61.4940 N   0  0  0  0  0  0  0  0  0  0  0  0
  130.6940  119.4280   61.3780 C   0  0  0  0  0  0  0  0  0  0  0  0
  132.0240  119.6190   60.9940 C   0  0  0  0  0  0  0  0  0  0  0  0
  132.8800  118.5300   60.8550 C   0  0  0  0  0  0  0  0  0  0  0  0
  132.4070  117.2450   61.1070 C   0  0  0  0  0  0  0  0  0  0  0  0
  131.0860  117.0410   61.4990 C   0  0  0  0  0  0  0  0  0  0  0  0
  130.2280  118.1280   61.6380 C   0  0  0  0  0  0  0  0  0  0  0  0
  126.1620  123.2510   61.7650 N   0  0  0  0  0  0  0  0  0  0  0  0
  125.1731  123.5640   64.0442 H   0  0  0  0  0  0  0  0  0  0  0  0
  123.6479  124.3475   63.5088 H   0  0  0  0  0  0  0  0  0  0  0  0
  123.7856  122.5565   63.5088 H   0  0  0  0  0  0  0  0  0  0  0  0
  122.9508  124.0700   61.0128 H   0  0  0  0  0  0  0  0  0  0  0  0
  122.6699  124.6129   58.7950 H   0  0  0  0  0  0  0  0  0  0  0  0
  124.0946  125.0236   57.7809 H   0  0  0  0  0  0  0  0  0  0  0  0
  123.4450  123.3489   57.7809 H   0  0  0  0  0  0  0  0  0  0  0  0
  129.4746  123.6965   62.4651 H   0  0  0  0  0  0  0  0  0  0  0  0
  128.1298  122.5283   62.8210 H   0  0  0  0  0  0  0  0  0  0  0  0
  129.1740  120.6650   60.8160 H   0  0  0  0  0  0  0  0  0  0  0  0
  132.3967  120.6357   60.8005 H   0  0  0  0  0  0  0  0  0  0  0  0
  133.9249  118.6840   60.5476 H   0  0  0  0  0  0  0  0  0  0  0  0
  133.0821  116.3837   60.9956 H   0  0  0  0  0  0  0  0  0  0  0  0
  130.7215  116.0225   61.6984 H   0  0  0  0  0  0  0  0  0  0  0  0
  129.1855  117.9696   61.9513 H   0  0  0  0  0  0  0  0  0  0  0  0
  1  2  1  0
  2  3  2  0
  3  4  1  0
  4  5  1  0
  4  6  2  0
  6  7  1  0
  7  8  3  0
  6  9  1  0
  9 10  1  0
 10 11  1  0
 11 12  1  0
 12 13  2  0
 12 14  1  0
 14 15  1  0
 15 16  2  0
 16 17  1  0
 17 18  2  0
 18 19  1  0
 19 20  2  0
  9 21  2  0
 21  2  1  0
 20 15  1  0
  1 22  1  0
  1 23  1  0
  1 24  1  0
  3 25  1  0
  5 26  1  0
  5 27  1  0
  5 28  1  0
 11 29  1  0
 11 30  1  0
 14 31  1  0
 16 32  1  0
 17 33  1  0
 18 34  1  0
 19 35  1  0
 20 36  1  0
M  END
>  <Binding energies>  (1) 
[-7.95]

>  <Ligand effiencies>  (1) 
[-0.3613636363636364]

>  <Interactions>  (1) 
["V-B:GLU:543:CD:9879, H-B:ALA:541:N:9862, V-B:ALA:541:CB:9863, V-B:PRO:540:CA:9854, V-B:PRO:540:C:9852, V-B:TYR:539:C:9838, V-A:LEU:475:CD2:4258, V-A:PRO:482:CG:4326, V-A:HIS:383:CE1:3393, H-B:TYR:539:O:9839, V-B:TYR:539:CD2:9845, V-A:SER:385:CA:3406, V-A:SER:385:CB:3408, V-A:THR:477:CG2:4272, V-A:PRO:482:CB:4325, V-B:ALA:541:C:9859, V-B:PRO:540:CB:9856, V-B:ASN:362:CB:8146, V-B:LEU:363:CD1:8159, V-B:ASP:366:CB:8182, H-B:TYR:531:OH:9766, V-B:ASP:366:CG:8183, V-B:LEU:363:CA:8155, V-B:ARG:545:CZ:9897, V-B:ASN:362:CG:8147, V-B:LEU:363:CB:8157"]

$$$$
1e_Grossjean_2025
     RDKit          3D

 38 39  0  0  0  0  0  0  0  0999 V2000
  129.8430  117.0610   60.7040 C   0  0  0  0  0  0  0  0  0  0  0  0
  131.0580  117.9190   60.4060 C   0  0  0  0  0  0  0  0  0  0  0  0
  132.0040  117.5400   59.4500 C   0  0  0  0  0  0  0  0  0  0  0  0
  133.0970  118.3790   59.2310 C   0  0  0  0  0  0  0  0  0  0  0  0
  133.2190  119.5620   59.9630 C   0  0  0  0  0  0  0  0  0  0  0  0
  132.2320  119.8840   60.9020 C   0  0  0  0  0  0  0  0  0  0  0  0
  132.4140  121.0820   61.6170 N   0  0  0  0  0  0  0  0  0  0  0  0
  133.2490  121.3240   62.6510 C   0  0  0  0  0  0  0  0  0  0  0  0
  134.0060  120.4950   63.1570 O   0  0  0  0  0  0  0  0  0  0  0  0
  133.2000  122.7410   63.2270 C   0  0  0  0  0  0  0  0  0  0  0  0
  133.1270  124.0040   61.9210 S   0  0  0  0  0  0  0  0  0  0  0  0
  131.5270  123.9240   61.1390 C   0  0  0  0  0  0  0  0  0  0  0  0
  130.5450  123.4790   61.9640 N   0  0  0  0  0  0  0  0  0  0  0  0
  129.2850  123.3730   61.4810 C   0  0  0  0  0  0  0  0  0  0  0  0
  128.2410  122.8770   62.4620 C   0  0  0  0  0  0  0  0  0  0  0  0
  128.9560  123.6900   60.1650 C   0  0  0  0  0  0  0  0  0  0  0  0
  129.9640  124.1260   59.2990 C   0  0  0  0  0  0  0  0  0  0  0  0
  129.5810  124.4510   57.8560 C   0  0  0  0  0  0  0  0  0  0  0  0
  131.2880  124.2420   59.7810 C   0  0  0  0  0  0  0  0  0  0  0  0
  132.3660  124.6400   58.8720 C   0  0  0  0  0  0  0  0  0  0  0  0
  133.2150  124.9550   58.1510 N   0  0  0  0  0  0  0  0  0  0  0  0
  131.1610  119.0660   61.1250 N   0  0  0  0  0  0  0  0  0  0  0  0
  129.7157  116.9711   61.7929 H   0  0  0  0  0  0  0  0  0  0  0  0
  128.9480  117.5285   60.2676 H   0  0  0  0  0  0  0  0  0  0  0  0
  129.9842  116.0612   60.2676 H   0  0  0  0  0  0  0  0  0  0  0  0
  131.8898  116.6036   58.8842 H   0  0  0  0  0  0  0  0  0  0  0  0
  133.8593  118.1098   58.4850 H   0  0  0  0  0  0  0  0  0  0  0  0
  134.0778  120.2308   59.8041 H   0  0  0  0  0  0  0  0  0  0  0  0
  131.7980  121.8340   61.3450 H   0  0  0  0  0  0  0  0  0  0  0  0
  132.3073  122.8354   63.8628 H   0  0  0  0  0  0  0  0  0  0  0  0
  134.1203  122.9044   63.8070 H   0  0  0  0  0  0  0  0  0  0  0  0
  128.5947  123.0450   63.4900 H   0  0  0  0  0  0  0  0  0  0  0  0
  127.3000  123.4243   62.3039 H   0  0  0  0  0  0  0  0  0  0  0  0
  128.0708  121.8018   62.3039 H   0  0  0  0  0  0  0  0  0  0  0  0
  127.9182  123.5987   59.8120 H   0  0  0  0  0  0  0  0  0  0  0  0
  128.7423  125.1627   57.8507 H   0  0  0  0  0  0  0  0  0  0  0  0
  130.4436  124.8970   57.3392 H   0  0  0  0  0  0  0  0  0  0  0  0
  129.2814  123.5273   57.3392 H   0  0  0  0  0  0  0  0  0  0  0  0
  1  2  1  0
  2  3  2  0
  3  4  1  0
  4  5  2  0
  5  6  1  0
  6  7  1  0
  7  8  1  0
  8  9  2  0
  8 10  1  0
 10 11  1  0
 11 12  1  0
 12 13  2  0
 13 14  1  0
 14 15  1  0
 14 16  2  0
 16 17  1  0
 17 18  1  0
 17 19  2  0
 19 20  1  0
 20 21  3  0
  6 22  2  0
 22  2  1  0
 19 12  1  0
  1 23  1  0
  1 24  1  0
  1 25  1  0
  3 26  1  0
  4 27  1  0
  5 28  1  0
  7 29  1  0
 10 30  1  0
 10 31  1  0
 15 32  1  0
 15 33  1  0
 15 34  1  0
 16 35  1  0
 18 36  1  0
 18 37  1  0
 18 38  1  0
M  END
>  <Binding energies>  (1) 
[-6.69]

>  <Ligand effiencies>  (1) 
[-0.2908695652173913]

>  <Interactions>  (1) 
["V-A:ASP:366:CG:3212, V-A:ASP:366:CB:3211, V-B:ALA:541:CB:9863, V-B:TYR:539:C:9838, V-A:LEU:475:CD2:4258, V-A:PRO:482:CG:4326, V-A:HIS:383:CE1:3393, V-B:TYR:539:CD2:9845, V-A:ILE:369:CG2:3236, V-B:TYR:539:CE2:9847, V-B:TYR:539:CB:9842, V-A:SER:385:CA:3406, V-A:GLY:454:CA:4048, V-B:VAL:344:CG1:7971, V-B:TYR:539:CG:9843, V-B:MET:535:CE:9806, H-B:TYR:539:OH:9849, V-B:TYR:539:CZ:9848, V-A:PRO:482:CB:4325, V-A:LEU:373:CG:3278, V-A:LEU:373:CD2:3280, V-A:VAL:384:C:3396"]

$$$$
1f_Grossjean_2025
     RDKit          3D

 35 36  0  0  0  0  0  0  0  0999 V2000
  133.9620  124.1450   61.8500 C   0  0  0  0  0  0  0  0  0  0  0  0
  133.1800  122.8520   61.7110 C   0  0  0  0  0  0  0  0  0  0  0  0
  133.7540  121.7080   61.1620 C   0  0  0  0  0  0  0  0  0  0  0  0
  132.9800  120.5480   61.0480 C   0  0  0  0  0  0  0  0  0  0  0  0
  133.6260  119.3120   60.4260 C   0  0  0  0  0  0  0  0  0  0  0  0
  131.6410  120.5630   61.4990 C   0  0  0  0  0  0  0  0  0  0  0  0
  130.7980  119.3750   61.3370 C   0  0  0  0  0  0  0  0  0  0  0  0
  130.1340  118.4370   61.2080 N   0  0  0  0  0  0  0  0  0  0  0  0
  131.1490  121.7610   62.0700 C   0  0  0  0  0  0  0  0  0  0  0  0
  129.4930  121.9680   62.6910 S   0  0  0  0  0  0  0  0  0  0  0  0
  128.7810  123.4730   61.9430 C   0  0  0  0  0  0  0  0  0  0  0  0
  127.5910  123.2280   61.0030 C   0  0  0  0  0  0  0  0  0  0  0  0
  126.4650  123.0280   61.4600 O   0  0  0  0  0  0  0  0  0  0  0  0
  127.9050  123.2280   59.6900 N   0  0  0  0  0  0  0  0  0  0  0  0
  127.0740  123.0450   58.5680 C   0  0  0  0  0  0  0  0  0  0  0  0
  125.7450  123.4920   58.4500 C   0  0  0  0  0  0  0  0  0  0  0  0
  125.0340  123.2450   57.2730 C   0  0  0  0  0  0  0  0  0  0  0  0
  125.6710  122.5580   56.2390 C   0  0  0  0  0  0  0  0  0  0  0  0
  126.9520  122.1210   56.3250 N   0  0  0  0  0  0  0  0  0  0  0  0
  127.6300  122.3690   57.4760 C   0  0  0  0  0  0  0  0  0  0  0  0
  131.9010  122.8870   62.1530 N   0  0  0  0  0  0  0  0  0  0  0  0
  134.1018  124.3761   62.9163 H   0  0  0  0  0  0  0  0  0  0  0  0
  134.9441  124.0333   61.3672 H   0  0  0  0  0  0  0  0  0  0  0  0
  133.4070  124.9629   61.3672 H   0  0  0  0  0  0  0  0  0  0  0  0
  134.8004  121.7163   60.8230 H   0  0  0  0  0  0  0  0  0  0  0  0
  133.9768  118.6408   61.2238 H   0  0  0  0  0  0  0  0  0  0  0  0
  132.8873  118.7864   59.8031 H   0  0  0  0  0  0  0  0  0  0  0  0
  134.4793  119.6184   59.8031 H   0  0  0  0  0  0  0  0  0  0  0  0
  128.4436  124.1320   62.7566 H   0  0  0  0  0  0  0  0  0  0  0  0
  129.5760  123.9157   61.3249 H   0  0  0  0  0  0  0  0  0  0  0  0
  128.8800  123.3640   59.4660 H   0  0  0  0  0  0  0  0  0  0  0  0
  125.2682  124.0333   59.2804 H   0  0  0  0  0  0  0  0  0  0  0  0
  123.9936  123.5851   57.1637 H   0  0  0  0  0  0  0  0  0  0  0  0
  125.1096  122.3623   55.3135 H   0  0  0  0  0  0  0  0  0  0  0  0
  128.6703  122.0202   57.5536 H   0  0  0  0  0  0  0  0  0  0  0  0
  1  2  1  0
  2  3  2  0
  3  4  1  0
  4  5  1  0
  4  6  2  0
  6  7  1  0
  7  8  3  0
  6  9  1  0
  9 10  1  0
 10 11  1  0
 11 12  1  0
 12 13  2  0
 12 14  1  0
 14 15  1  0
 15 16  2  0
 16 17  1  0
 17 18  2  0
 18 19  1  0
 19 20  2  0
  9 21  2  0
 21  2  1  0
 20 15  1  0
  1 22  1  0
  1 23  1  0
  1 24  1  0
  3 25  1  0
  5 26  1  0
  5 27  1  0
  5 28  1  0
 11 29  1  0
 11 30  1  0
 14 31  1  0
 16 32  1  0
 17 33  1  0
 18 34  1  0
 20 35  1  0
M  END
>  <Binding energies>  (1) 
[-7.48]

>  <Ligand effiencies>  (1) 
[-0.34]

>  <Interactions>  (1) 
["V-A:ASP:366:CG:3212, V-B:PRO:540:N:9855, H-B:ALA:541:N:9862, V-B:ALA:541:CB:9863, V-B:PRO:540:CA:9854, V-B:TYR:539:C:9838, V-A:LEU:475:CD2:4258, V-A:ILE:369:CD1:3238, V-B:TYR:539:CD2:9845, V-A:ILE:369:CG2:3236, V-B:TYR:539:CE2:9847, V-A:SER:385:CA:3406, V-A:SER:385:CB:3408, H-B:TYR:539:N:9841, V-B:TYR:539:CG:9843, V-B:MET:535:CE:9806, V-B:PRO:540:CB:9856, V-B:TYR:539:CA:9840, V-B:TYR:539:CD1:9844, V-B:PRO:540:CD:9858, V-B:TYR:531:CE2:9764, V-B:LEU:363:CD1:8159, V-A:VAL:384:C:3396"]

$$$$
1g_Grossjean_2025
     RDKit          3D

 39 40  0  0  0  0  0  0  0  0999 V2000
  129.6210  116.8510   60.6290 C   0  0  0  0  0  0  0  0  0  0  0  0
  130.6000  118.0080   60.6940 C   0  0  0  0  0  0  0  0  0  0  0  0
  131.7970  117.9930   59.9820 C   0  0  0  0  0  0  0  0  0  0  0  0
  132.6680  119.0820   60.0940 C   0  0  0  0  0  0  0  0  0  0  0  0
  133.9820  119.0360   59.3150 C   0  0  0  0  0  0  0  0  0  0  0  0
  132.3100  120.1730   60.9170 C   0  0  0  0  0  0  0  0  0  0  0  0
  133.2300  121.3000   61.0910 C   0  0  0  0  0  0  0  0  0  0  0  0
  133.9590  122.1890   61.2270 N   0  0  0  0  0  0  0  0  0  0  0  0
  131.0630  120.1140   61.5840 C   0  0  0  0  0  0  0  0  0  0  0  0
  130.4520  121.4000   62.6500 S   0  0  0  0  0  0  0  0  0  0  0  0
  128.8440  121.9320   61.9870 C   0  0  0  0  0  0  0  0  0  0  0  0
  129.0000  122.8520   60.7750 C   0  0  0  0  0  0  0  0  0  0  0  0
  129.6750  123.8790   60.8630 O   0  0  0  0  0  0  0  0  0  0  0  0
  128.3640  122.4720   59.6540 N   0  0  0  0  0  0  0  0  0  0  0  0
  128.4230  123.1670   58.3680 C   0  0  0  0  0  0  0  0  0  0  0  0
  127.1770  122.9970   57.5050 C   0  0  0  0  0  0  0  0  0  0  0  0
  125.9380  123.4490   57.9710 C   0  0  0  0  0  0  0  0  0  0  0  0
  124.8000  123.2950   57.1830 C   0  0  0  0  0  0  0  0  0  0  0  0
  124.9060  122.6930   55.9300 C   0  0  0  0  0  0  0  0  0  0  0  0
  126.1370  122.2450   55.4580 C   0  0  0  0  0  0  0  0  0  0  0  0
  127.2750  122.3970   56.2460 C   0  0  0  0  0  0  0  0  0  0  0  0
  130.2350  119.0430   61.4870 N   0  0  0  0  0  0  0  0  0  0  0  0
  129.3557  116.5374   61.6494 H   0  0  0  0  0  0  0  0  0  0  0  0
  128.7131  117.1685   60.0952 H   0  0  0  0  0  0  0  0  0  0  0  0
  130.0844  116.0082   60.0952 H   0  0  0  0  0  0  0  0  0  0  0  0
  132.0538  117.1370   59.3407 H   0  0  0  0  0  0  0  0  0  0  0  0
  134.8256  119.0065   60.0203 H   0  0  0  0  0  0  0  0  0  0  0  0
  134.0017  118.1366   58.6820 H   0  0  0  0  0  0  0  0  0  0  0  0
  134.0645  119.9318   58.6820 H   0  0  0  0  0  0  0  0  0  0  0  0
  128.2719  121.0420   61.6860 H   0  0  0  0  0  0  0  0  0  0  0  0
  128.3207  122.4937   62.7748 H   0  0  0  0  0  0  0  0  0  0  0  0
  127.8490  121.6030   59.6650 H   0  0  0  0  0  0  0  0  0  0  0  0
  128.5634  124.2405   58.5627 H   0  0  0  0  0  0  0  0  0  0  0  0
  129.2578  122.7215   57.8072 H   0  0  0  0  0  0  0  0  0  0  0  0
  125.8625  123.9259   58.9594 H   0  0  0  0  0  0  0  0  0  0  0  0
  123.8233  123.6463   57.5471 H   0  0  0  0  0  0  0  0  0  0  0  0
  124.0074  122.5706   55.3075 H   0  0  0  0  0  0  0  0  0  0  0  0
  126.2102  121.7731   54.4671 H   0  0  0  0  0  0  0  0  0  0  0  0
  128.2502  122.0453   55.8782 H   0  0  0  0  0  0  0  0  0  0  0  0
  1  2  1  0
  2  3  2  0
  3  4  1  0
  4  5  1  0
  4  6  2  0
  6  7  1  0
  7  8  3  0
  6  9  1  0
  9 10  1  0
 10 11  1  0
 11 12  1  0
 12 13  2  0
 12 14  1  0
 14 15  1  0
 15 16  1  0
 16 17  2  0
 17 18  1  0
 18 19  2  0
 19 20  1  0
 20 21  2  0
  9 22  2  0
 22  2  1  0
 21 16  1  0
  1 23  1  0
  1 24  1  0
  1 25  1  0
  3 26  1  0
  5 27  1  0
  5 28  1  0
  5 29  1  0
 11 30  1  0
 11 31  1  0
 14 32  1  0
 15 33  1  0
 15 34  1  0
 17 35  1  0
 18 36  1  0
 19 37  1  0
 20 38  1  0
 21 39  1  0
M  END
>  <Binding energies>  (1) 
[-7.91]

>  <Ligand effiencies>  (1) 
[-0.34391304347826085]

>  <Interactions>  (1) 
["V-B:PRO:540:N:9855, V-B:ALA:541:CB:9863, V-B:PRO:540:CA:9854, V-B:ALA:541:CA:9861, V-B:PRO:540:C:9852, V-B:TYR:539:C:9838, V-A:LEU:475:CD2:4258, V-A:PRO:482:CG:4326, V-A:HIS:383:CE1:3393, H-B:TYR:539:O:9839, V-B:TYR:539:CD2:9845, V-A:ILE:369:CG2:3236, V-B:TYR:539:CE2:9847, V-B:TYR:539:CB:9842, V-A:SER:385:CA:3406, V-B:VAL:344:CG1:7971, V-B:TYR:539:CG:9843, V-B:MET:535:CE:9806, V-B:TYR:539:CZ:9848, V-A:PRO:482:CB:4325, V-B:PRO:540:CB:9856, V-B:TYR:539:CD1:9844, V-B:TYR:531:CZ:9765, V-B:TYR:531:CE2:9764, V-B:LEU:363:CD1:8159, V-B:ILE:538:CD1:9836, V-B:ILE:538:CG2:9834, V-B:ILE:538:CA:9831, V-B:TYR:539:CE1:9846, V-B:ILE:538:C:9829, V-A:LEU:373:CG:3278, V-A:LEU:373:CD2:3280, V-B:MET:535:CG:9804, V-A:VAL:384:C:3396"]

$$$$
1h_Grossjean_2025
     RDKit          3D

 51 52  0  0  0  0  0  0  0  0999 V2000
  126.1090  122.2560   55.9370 C   0  0  0  0  0  0  0  0  0  0  0  0
  126.4500  123.6180   56.1670 O   0  0  0  0  0  0  0  0  0  0  0  0
  127.0380  123.9770   57.3660 C   0  0  0  0  0  0  0  0  0  0  0  0
  128.3020  124.5790   57.4700 C   0  0  0  0  0  0  0  0  0  0  0  0
  128.8390  124.9020   58.7170 C   0  0  0  0  0  0  0  0  0  0  0  0
  130.2040  125.5770   58.8140 C   0  0  0  0  0  0  0  0  0  0  0  0
  131.2320  124.7530   59.4500 N   0  0  0  0  0  0  0  0  0  0  0  0
  132.4630  124.5270   58.9570 C   0  0  0  0  0  0  0  0  0  0  0  0
  132.8790  125.0190   57.9090 O   0  0  0  0  0  0  0  0  0  0  0  0
  133.3620  123.5960   59.7710 C   0  0  0  0  0  0  0  0  0  0  0  0
  133.4100  124.0600   61.5290 S   0  0  0  0  0  0  0  0  0  0  0  0
  131.8960  123.4990   62.2900 C   0  0  0  0  0  0  0  0  0  0  0  0
  131.0330  122.8400   61.4730 N   0  0  0  0  0  0  0  0  0  0  0  0
  129.8680  122.3830   61.9870 C   0  0  0  0  0  0  0  0  0  0  0  0
  128.9600  121.6540   61.0140 C   0  0  0  0  0  0  0  0  0  0  0  0
  129.5130  122.5620   63.3220 C   0  0  0  0  0  0  0  0  0  0  0  0
  130.3910  123.2410   64.1740 C   0  0  0  0  0  0  0  0  0  0  0  0
  129.9840  123.4250   65.6340 C   0  0  0  0  0  0  0  0  0  0  0  0
  131.6150  123.7270   63.6570 C   0  0  0  0  0  0  0  0  0  0  0  0
  132.5530  124.4440   64.5250 C   0  0  0  0  0  0  0  0  0  0  0  0
  133.2940  125.0100   65.2110 N   0  0  0  0  0  0  0  0  0  0  0  0
  128.0960  124.6570   59.8720 C   0  0  0  0  0  0  0  0  0  0  0  0
  126.8270  124.0610   59.7980 C   0  0  0  0  0  0  0  0  0  0  0  0
  126.0370  123.7870   60.8990 O   0  0  0  0  0  0  0  0  0  0  0  0
  126.5510  124.0240   62.2050 C   0  0  0  0  0  0  0  0  0  0  0  0
  126.3140  123.7160   58.5390 C   0  0  0  0  0  0  0  0  0  0  0  0
  125.0710  123.1380   58.4500 O   0  0  0  0  0  0  0  0  0  0  0  0
  123.9950  124.0610   58.5480 C   0  0  0  0  0  0  0  0  0  0  0  0
  125.9804  121.7424   56.9012 H   0  0  0  0  0  0  0  0  0  0  0  0
  125.1702  122.2044   55.3660 H   0  0  0  0  0  0  0  0  0  0  0  0
  126.9127  121.7682   55.3660 H   0  0  0  0  0  0  0  0  0  0  0  0
  128.8760  124.7987   56.5577 H   0  0  0  0  0  0  0  0  0  0  0  0
  130.5402  125.8250   57.7964 H   0  0  0  0  0  0  0  0  0  0  0  0
  130.0741  126.4677   59.4463 H   0  0  0  0  0  0  0  0  0  0  0  0
  130.9660  124.2970   60.3120 H   0  0  0  0  0  0  0  0  0  0  0  0
  132.9792  122.5683   59.6853 H   0  0  0  0  0  0  0  0  0  0  0  0
  134.3836  123.6749   59.3709 H   0  0  0  0  0  0  0  0  0  0  0  0
  128.2221  121.0615   61.5747 H   0  0  0  0  0  0  0  0  0  0  0  0
  128.4376  122.3864   60.3810 H   0  0  0  0  0  0  0  0  0  0  0  0
  129.5622  120.9857   60.3810 H   0  0  0  0  0  0  0  0  0  0  0  0
  128.5557  122.1749   63.7012 H   0  0  0  0  0  0  0  0  0  0  0  0
  130.7899  123.0607   66.2880 H   0  0  0  0  0  0  0  0  0  0  0  0
  129.8044  124.4919   65.8329 H   0  0  0  0  0  0  0  0  0  0  0  0
  129.0644  122.8551   65.8329 H   0  0  0  0  0  0  0  0  0  0  0  0
  128.5095  124.9342   60.8529 H   0  0  0  0  0  0  0  0  0  0  0  0
  125.8193  123.6866   62.9538 H   0  0  0  0  0  0  0  0  0  0  0  0
  127.4915  123.4687   62.3352 H   0  0  0  0  0  0  0  0  0  0  0  0
  126.7394  125.0999   62.3352 H   0  0  0  0  0  0  0  0  0  0  0  0
  123.7716  124.2526   59.6079 H   0  0  0  0  0  0  0  0  0  0  0  0
  124.2750  125.0041   58.0560 H   0  0  0  0  0  0  0  0  0  0  0  0
  123.1054  123.6407   58.0560 H   0  0  0  0  0  0  0  0  0  0  0  0
  1  2  1  0
  2  3  1  0
  3  4  2  0
  4  5  1  0
  5  6  1  0
  6  7  1  0
  7  8  1  0
  8  9  2  0
  8 10  1  0
 10 11  1  0
 11 12  1  0
 12 13  2  0
 13 14  1  0
 14 15  1  0
 14 16  2  0
 16 17  1  0
 17 18  1  0
 17 19  2  0
 19 20  1  0
 20 21  3  0
  5 22  2  0
 22 23  1  0
 23 24  1  0
 24 25  1  0
 23 26  2  0
 26 27  1  0
 27 28  1  0
 26  3  1  0
 19 12  1  0
  1 29  1  0
  1 30  1  0
  1 31  1  0
  4 32  1  0
  6 33  1  0
  6 34  1  0
  7 35  1  0
 10 36  1  0
 10 37  1  0
 15 38  1  0
 15 39  1  0
 15 40  1  0
 16 41  1  0
 18 42  1  0
 18 43  1  0
 18 44  1  0
 22 45  1  0
 25 46  1  0
 25 47  1  0
 25 48  1  0
 28 49  1  0
 28 50  1  0
 28 51  1  0
M  END
>  <Binding energies>  (1) 
[-6.23]

>  <Ligand effiencies>  (1) 
[-0.21482758620689657]

>  <Interactions>  (1) 
["V-A:ASP:366:CG:3212, V-A:ASP:366:CB:3211, V-B:GLU:543:CD:9879, H-A:TYR:484:OH:4347, V-B:ALA:541:CB:9863, V-B:PRO:540:CA:9854, V-B:PRO:540:C:9852, V-B:TYR:539:C:9838, V-A:ILE:369:CD1:3238, V-B:TYR:539:CD2:9845, V-A:ILE:369:CG2:3236, V-B:TYR:539:CE2:9847, V-B:MET:535:CE:9806, H-B:TYR:539:OH:9849, V-B:TYR:539:CZ:9848, V-B:GLU:543:CG:9878, V-B:PRO:540:CB:9856, H-A:GLY:454:N:4049, V-B:PRO:540:CD:9858, V-B:LEU:363:CD1:8159, V-B:ILE:538:CD1:9836, V-B:ILE:538:CG2:9834, V-B:ILE:538:CA:9831, V-B:ILE:538:C:9829, V-A:TYR:484:CZ:4346, V-A:TYR:484:CE2:4345, H-B:TYR:531:OH:9766, V-B:LEU:363:CA:8155, V-A:ILE:369:CB:3235"]

$$$$
1i_Grossjean_2025
     RDKit          3D

 32 33  0  0  0  0  0  0  0  0999 V2000
  129.8080  116.9000   60.7430 C   0  0  0  0  0  0  0  0  0  0  0  0
  130.6670  118.1450   60.8620 C   0  0  0  0  0  0  0  0  0  0  0  0
  131.9700  118.1810   60.3710 C   0  0  0  0  0  0  0  0  0  0  0  0
  132.7130  119.3590   60.5000 C   0  0  0  0  0  0  0  0  0  0  0  0
  134.1340  119.3800   59.9390 C   0  0  0  0  0  0  0  0  0  0  0  0
  132.1270  120.4810   61.1310 C   0  0  0  0  0  0  0  0  0  0  0  0
  132.8690  121.7400   61.2320 C   0  0  0  0  0  0  0  0  0  0  0  0
  133.4560  122.7340   61.3090 N   0  0  0  0  0  0  0  0  0  0  0  0
  130.8070  120.3450   61.6220 C   0  0  0  0  0  0  0  0  0  0  0  0
  129.9170  121.6510   62.4410 S   0  0  0  0  0  0  0  0  0  0  0  0
  129.6840  122.9950   61.2400 C   0  0  0  0  0  0  0  0  0  0  0  0
  128.4100  122.8120   60.4120 C   0  0  0  0  0  0  0  0  0  0  0  0
  127.3290  122.6780   60.9880 O   0  0  0  0  0  0  0  0  0  0  0  0
  128.5810  122.8170   59.0720 N   0  0  0  0  0  0  0  0  0  0  0  0
  127.6030  122.6680   58.0990 C   0  0  0  0  0  0  0  0  0  0  0  0
  126.3250  123.2120   58.2140 C   0  0  0  0  0  0  0  0  0  0  0  0
  125.6730  122.8430   57.0610 C   0  0  0  0  0  0  0  0  0  0  0  0
  126.5130  122.1120   56.2910 O   0  0  0  0  0  0  0  0  0  0  0  0
  127.7340  122.0060   56.9610 N   0  0  0  0  0  0  0  0  0  0  0  0
  130.0870  119.2040   61.4740 N   0  0  0  0  0  0  0  0  0  0  0  0
  129.5542  116.5322   61.7481 H   0  0  0  0  0  0  0  0  0  0  0  0
  128.8842  117.1427   60.1973 H   0  0  0  0  0  0  0  0  0  0  0  0
  130.3628  116.1225   60.1973 H   0  0  0  0  0  0  0  0  0  0  0  0
  132.4087  117.2952   59.8884 H   0  0  0  0  0  0  0  0  0  0  0  0
  134.8558  119.3907   60.7690 H   0  0  0  0  0  0  0  0  0  0  0  0
  134.2979  118.4842   59.3220 H   0  0  0  0  0  0  0  0  0  0  0  0
  134.2714  120.2803   59.3220 H   0  0  0  0  0  0  0  0  0  0  0  0
  129.6199  123.9493   61.7834 H   0  0  0  0  0  0  0  0  0  0  0  0
  130.5408  122.9855   60.5502 H   0  0  0  0  0  0  0  0  0  0  0  0
  129.5260  122.9070   58.7260 H   0  0  0  0  0  0  0  0  0  0  0  0
  125.9244  123.8079   59.0473 H   0  0  0  0  0  0  0  0  0  0  0  0
  124.6347  123.1006   56.8051 H   0  0  0  0  0  0  0  0  0  0  0  0
  1  2  1  0
  2  3  2  0
  3  4  1  0
  4  5  1  0
  4  6  2  0
  6  7  1  0
  7  8  3  0
  6  9  1  0
  9 10  1  0
 10 11  1  0
 11 12  1  0
 12 13  2  0
 12 14  1  0
 14 15  1  0
 15 16  1  0
 16 17  2  0
 17 18  1  0
 18 19  1  0
  9 20  2  0
 20  2  1  0
 19 15  2  0
  1 21  1  0
  1 22  1  0
  1 23  1  0
  3 24  1  0
  5 25  1  0
  5 26  1  0
  5 27  1  0
 11 28  1  0
 11 29  1  0
 14 30  1  0
 16 31  1  0
 17 32  1  0
M  END
>  <Binding energies>  (1) 
[-7.83]

>  <Ligand effiencies>  (1) 
[-0.3728571428571429]

>  <Interactions>  (1) 
["V-B:PRO:540:N:9855, H-B:ALA:541:N:9862, V-B:ALA:541:CB:9863, V-B:PRO:540:CA:9854, V-B:TYR:539:C:9838, V-A:LEU:475:CD2:4258, V-A:PRO:482:CG:4326, V-A:HIS:383:CE1:3393, H-B:TYR:539:O:9839, V-B:TYR:539:CD2:9845, V-A:ILE:369:CG2:3236, V-B:TYR:539:CE2:9847, V-B:TYR:539:CB:9842, V-A:SER:385:CA:3406, V-A:SER:385:CB:3408, H-B:TYR:539:N:9841, V-B:VAL:344:CG1:7971, V-A:PRO:482:CB:4325, V-B:PRO:540:CB:9856, V-B:PRO:540:CD:9858, V-A:VAL:384:C:3396"]

$$$$
1j_Grossjean_2025
     RDKit          3D

 32 33  0  0  0  0  0  0  0  0999 V2000
  129.7840  116.6230   60.7590 C   0  0  0  0  0  0  0  0  0  0  0  0
  130.6740  117.8520   60.7350 C   0  0  0  0  0  0  0  0  0  0  0  0
  131.8940  117.8560   60.0620 C   0  0  0  0  0  0  0  0  0  0  0  0
  132.6650  119.0220   60.0620 C   0  0  0  0  0  0  0  0  0  0  0  0
  133.9910  119.0080   59.3030 C   0  0  0  0  0  0  0  0  0  0  0  0
  132.1940  120.1630   60.7510 C   0  0  0  0  0  0  0  0  0  0  0  0
  132.9610  121.4110   60.7210 C   0  0  0  0  0  0  0  0  0  0  0  0
  133.5690  122.3950   60.6940 N   0  0  0  0  0  0  0  0  0  0  0  0
  130.9570  120.0600   61.4300 C   0  0  0  0  0  0  0  0  0  0  0  0
  130.2150  121.3920   62.3470 S   0  0  0  0  0  0  0  0  0  0  0  0
  129.9160  122.7610   61.1890 C   0  0  0  0  0  0  0  0  0  0  0  0
  128.5620  122.6350   60.4890 C   0  0  0  0  0  0  0  0  0  0  0  0
  127.5570  122.3870   61.1570 O   0  0  0  0  0  0  0  0  0  0  0  0
  128.5790  122.8140   59.1500 N   0  0  0  0  0  0  0  0  0  0  0  0
  127.4910  122.7450   58.2910 C   0  0  0  0  0  0  0  0  0  0  0  0
  127.3690  122.0180   57.2010 N   0  0  0  0  0  0  0  0  0  0  0  0
  126.1960  122.1990   56.6280 C   0  0  0  0  0  0  0  0  0  0  0  0
  125.3330  123.0900   57.2600 C   0  0  0  0  0  0  0  0  0  0  0  0
  126.1110  123.7190   58.6810 S   0  0  0  0  0  0  0  0  0  0  0  0
  130.2050  118.9310   61.4050 N   0  0  0  0  0  0  0  0  0  0  0  0
  129.5786  116.3393   61.8018 H   0  0  0  0  0  0  0  0  0  0  0  0
  128.8367  116.8462   60.2463 H   0  0  0  0  0  0  0  0  0  0  0  0
  130.2916  115.7926   60.2463 H   0  0  0  0  0  0  0  0  0  0  0  0
  132.2453  116.9547   59.5383 H   0  0  0  0  0  0  0  0  0  0  0  0
  134.8244  118.9992   60.0209 H   0  0  0  0  0  0  0  0  0  0  0  0
  134.0422  118.1093   58.6708 H   0  0  0  0  0  0  0  0  0  0  0  0
  134.0611  119.9055   58.6708 H   0  0  0  0  0  0  0  0  0  0  0  0
  129.9407  123.7091   61.7462 H   0  0  0  0  0  0  0  0  0  0  0  0
  130.7005  122.7313   60.4185 H   0  0  0  0  0  0  0  0  0  0  0  0
  129.4720  122.9880   58.7140 H   0  0  0  0  0  0  0  0  0  0  0  0
  125.9147  121.6755   55.7024 H   0  0  0  0  0  0  0  0  0  0  0  0
  124.3220  123.3533   56.9156 H   0  0  0  0  0  0  0  0  0  0  0  0
  1  2  1  0
  2  3  2  0
  3  4  1  0
  4  5  1  0
  4  6  2  0
  6  7  1  0
  7  8  3  0
  6  9  1  0
  9 10  1  0
 10 11  1  0
 11 12  1  0
 12 13  2  0
 12 14  1  0
 14 15  1  0
 15 16  2  0
 16 17  1  0
 17 18  2  0
 18 19  1  0
  9 20  2  0
 20  2  1  0
 19 15  1  0
  1 21  1  0
  1 22  1  0
  1 23  1  0
  3 24  1  0
  5 25  1  0
  5 26  1  0
  5 27  1  0
 11 28  1  0
 11 29  1  0
 14 30  1  0
 17 31  1  0
 18 32  1  0
M  END
>  <Binding energies>  (1) 
[-7.3]

>  <Ligand effiencies>  (1) 
[-0.3476190476190476]

>  <Interactions>  (1) 
["V-B:PRO:540:N:9855, H-B:ALA:541:N:9862, V-B:PRO:540:CA:9854, V-B:TYR:539:C:9838, V-A:LEU:475:CD2:4258, V-A:PRO:482:CG:4326, V-A:HIS:383:CE1:3393, V-B:TYR:539:CD2:9845, V-A:ILE:369:CG2:3236, V-B:TYR:539:CE2:9847, V-B:TYR:539:CB:9842, V-A:SER:385:CA:3406, H-B:TYR:539:N:9841, V-B:VAL:344:CG1:7971, V-A:PRO:482:CB:4325, V-B:PRO:540:CB:9856, V-B:PRO:540:CD:9858, V-B:LEU:363:CD1:8159, V-B:ILE:538:CA:9831, V-A:LEU:373:CG:3278, V-A:LEU:373:CD2:3280, V-A:VAL:384:C:3396"]

$$$$
1k_Grossjean_2025
     RDKit          3D

 50 50  0  0  0  0  0  0  0  0999 V2000
  125.5080  122.3810   56.3120 C   0  0  0  0  0  0  0  0  0  0  0  0
  126.8820  122.0400   56.2290 O   0  0  0  0  0  0  0  0  0  0  0  0
  127.6270  122.4050   57.3830 C   0  0  0  0  0  0  0  0  0  0  0  0
  126.9580  123.6070   58.0650 C   0  0  0  0  0  0  0  0  0  0  0  0
  126.3210  123.1770   59.2620 O   0  0  0  0  0  0  0  0  0  0  0  0
  126.3350  124.1500   60.2970 C   0  0  0  0  0  0  0  0  0  0  0  0
  125.8910  123.5000   61.6140 C   0  0  0  0  0  0  0  0  0  0  0  0
  127.0210  122.9340   62.2670 O   0  0  0  0  0  0  0  0  0  0  0  0
  127.5140  123.7230   63.3420 C   0  0  0  0  0  0  0  0  0  0  0  0
  128.6740  122.9850   64.0350 C   0  0  0  0  0  0  0  0  0  0  0  0
  129.8530  122.8010   63.1870 N   0  0  0  0  0  0  0  0  0  0  0  0
  130.9840  122.1760   63.5580 C   0  0  0  0  0  0  0  0  0  0  0  0
  131.1430  121.6770   64.6740 O   0  0  0  0  0  0  0  0  0  0  0  0
  132.0910  122.1210   62.4930 C   0  0  0  0  0  0  0  0  0  0  0  0
  133.3510  123.4410   62.5940 S   0  0  0  0  0  0  0  0  0  0  0  0
  132.8340  124.6540   63.8010 C   0  0  0  0  0  0  0  0  0  0  0  0
  133.6210  124.7670   64.9020 N   0  0  0  0  0  0  0  0  0  0  0  0
  133.2810  125.6600   65.8590 C   0  0  0  0  0  0  0  0  0  0  0  0
  134.2040  125.7210   67.0610 C   0  0  0  0  0  0  0  0  0  0  0  0
  132.1580  126.4790   65.7590 C   0  0  0  0  0  0  0  0  0  0  0  0
  131.3440  126.3780   64.6260 C   0  0  0  0  0  0  0  0  0  0  0  0
  130.1180  127.2830   64.5360 C   0  0  0  0  0  0  0  0  0  0  0  0
  131.6790  125.4480   63.6170 C   0  0  0  0  0  0  0  0  0  0  0  0
  130.8410  125.3180   62.4210 C   0  0  0  0  0  0  0  0  0  0  0  0
  130.1790  125.2150   61.4770 N   0  0  0  0  0  0  0  0  0  0  0  0
  125.2117  122.4545   57.3688 H   0  0  0  0  0  0  0  0  0  0  0  0
  125.3396  123.3482   55.8158 H   0  0  0  0  0  0  0  0  0  0  0  0
  124.9069  121.6048   55.8158 H   0  0  0  0  0  0  0  0  0  0  0  0
  127.6581  121.5569   58.0828 H   0  0  0  0  0  0  0  0  0  0  0  0
  128.6518  122.6745   57.0878 H   0  0  0  0  0  0  0  0  0  0  0  0
  127.7198  124.3631   58.3059 H   0  0  0  0  0  0  0  0  0  0  0  0
  126.2099  124.0443   57.3874 H   0  0  0  0  0  0  0  0  0  0  0  0
  127.3532  124.5504   60.4104 H   0  0  0  0  0  0  0  0  0  0  0  0
  125.6463  124.9686   60.0409 H   0  0  0  0  0  0  0  0  0  0  0  0
  125.4353  124.2617   62.2637 H   0  0  0  0  0  0  0  0  0  0  0  0
  125.1548  122.7102   61.4036 H   0  0  0  0  0  0  0  0  0  0  0  0
  127.8737  124.6872   62.9535 H   0  0  0  0  0  0  0  0  0  0  0  0
  126.7061  123.8967   64.0680 H   0  0  0  0  0  0  0  0  0  0  0  0
  128.9723  123.5642   64.9213 H   0  0  0  0  0  0  0  0  0  0  0  0
  128.3053  121.9805   64.2902 H   0  0  0  0  0  0  0  0  0  0  0  0
  129.7980  123.1870   62.2560 H   0  0  0  0  0  0  0  0  0  0  0  0
  132.6058  121.1537   62.5898 H   0  0  0  0  0  0  0  0  0  0  0  0
  131.5854  122.2613   61.5262 H   0  0  0  0  0  0  0  0  0  0  0  0
  133.6070  125.6815   67.9841 H   0  0  0  0  0  0  0  0  0  0  0  0
  134.8964  124.8667   67.0353 H   0  0  0  0  0  0  0  0  0  0  0  0
  134.7780  126.6590   67.0353 H   0  0  0  0  0  0  0  0  0  0  0  0
  131.9154  127.1940   66.5589 H   0  0  0  0  0  0  0  0  0  0  0  0
  129.7743  127.5367   65.5497 H   0  0  0  0  0  0  0  0  0  0  0  0
  130.3815  128.2048   63.9967 H   0  0  0  0  0  0  0  0  0  0  0  0
  129.3147  126.7596   63.9967 H   0  0  0  0  0  0  0  0  0  0  0  0
  1  2  1  0
  2  3  1  0
  3  4  1  0
  4  5  1  0
  5  6  1  0
  6  7  1  0
  7  8  1  0
  8  9  1  0
  9 10  1  0
 10 11  1  0
 11 12  1  0
 12 13  2  0
 12 14  1  0
 14 15  1  0
 15 16  1  0
 16 17  2  0
 17 18  1  0
 18 19  1  0
 18 20  2  0
 20 21  1  0
 21 22  1  0
 21 23  2  0
 23 24  1  0
 24 25  3  0
 23 16  1  0
  1 26  1  0
  1 27  1  0
  1 28  1  0
  3 29  1  0
  3 30  1  0
  4 31  1  0
  4 32  1  0
  6 33  1  0
  6 34  1  0
  7 35  1  0
  7 36  1  0
  9 37  1  0
  9 38  1  0
 10 39  1  0
 10 40  1  0
 11 41  1  0
 14 42  1  0
 14 43  1  0
 19 44  1  0
 19 45  1  0
 19 46  1  0
 20 47  1  0
 22 48  1  0
 22 49  1  0
 22 50  1  0
M  END
>  <Binding energies>  (1) 
[-5.81]

>  <Ligand effiencies>  (1) 
[-0.22346153846153843]

>  <Interactions>  (1) 
["V-B:GLU:543:CD:9879, V-B:PRO:540:N:9855, H-B:ALA:541:N:9862, H-A:TYR:484:OH:4347, V-B:ALA:541:CB:9863, V-B:PRO:540:CA:9854, V-B:PRO:540:C:9852, V-B:TYR:539:C:9838, V-A:LEU:475:CD2:4258, V-B:TYR:539:CD2:9845, V-B:TYR:539:CE2:9847, H-B:TYR:539:N:9841, V-B:TYR:539:CG:9843, V-B:MET:535:CE:9806, V-B:GLU:543:CG:9878, V-B:PRO:540:CB:9856, H-A:GLY:454:N:4049, V-B:TYR:539:CA:9840, V-A:ARG:545:CD:4922, V-B:TYR:539:CD1:9844, V-B:PRO:540:CD:9858, V-B:LEU:363:CD1:8159, V-A:ARG:545:CZ:4925, V-A:ARG:545:CG:4921, V-B:ILE:538:CG2:9834, V-A:GLU:543:CD:4907, V-B:ILE:538:CA:9831"]

$$$$
1l_Grossjean_2025
     RDKit          3D

 30 30  0  0  0  0  0  0  0  0999 V2000
  128.0190  122.3780   57.0000 C   0  0  0  0  0  0  0  0  0  0  0  0
  126.7960  121.6570   56.9970 O   0  0  0  0  0  0  0  0  0  0  0  0
  125.7940  122.4170   57.5990 N   0  0  0  0  0  0  0  0  0  0  0  0
  125.0220  123.2080   56.8280 C   0  0  0  0  0  0  0  0  0  0  0  0
  124.9880  123.1400   55.5970 O   0  0  0  0  0  0  0  0  0  0  0  0
  124.1530  124.2160   57.5940 C   0  0  0  0  0  0  0  0  0  0  0  0
  123.9610  123.8720   59.3760 S   0  0  0  0  0  0  0  0  0  0  0  0
  125.5720  123.9720   60.1380 C   0  0  0  0  0  0  0  0  0  0  0  0
  126.5720  124.4390   59.3460 N   0  0  0  0  0  0  0  0  0  0  0  0
  127.8200  124.5400   59.8600 C   0  0  0  0  0  0  0  0  0  0  0  0
  128.8820  125.0690   58.9140 C   0  0  0  0  0  0  0  0  0  0  0  0
  128.1240  124.1840   61.1720 C   0  0  0  0  0  0  0  0  0  0  0  0
  127.1030  123.7030   61.9980 C   0  0  0  0  0  0  0  0  0  0  0  0
  127.4580  123.3200   63.4340 C   0  0  0  0  0  0  0  0  0  0  0  0
  125.7930  123.5900   61.4820 C   0  0  0  0  0  0  0  0  0  0  0  0
  124.7030  123.0880   62.3260 C   0  0  0  0  0  0  0  0  0  0  0  0
  123.8450  122.6930   62.9920 N   0  0  0  0  0  0  0  0  0  0  0  0
  128.3330  122.5631   58.0379 H   0  0  0  0  0  0  0  0  0  0  0  0
  128.7919  121.7911   56.4822 H   0  0  0  0  0  0  0  0  0  0  0  0
  127.8797  123.3385   56.4822 H   0  0  0  0  0  0  0  0  0  0  0  0
  125.9850  122.5970   58.5740 H   0  0  0  0  0  0  0  0  0  0  0  0
  124.6091  125.2111   57.4859 H   0  0  0  0  0  0  0  0  0  0  0  0
  123.1456  124.1473   57.1575 H   0  0  0  0  0  0  0  0  0  0  0  0
  129.7173  125.4851   59.4963 H   0  0  0  0  0  0  0  0  0  0  0  0
  129.2497  124.2488   58.2800 H   0  0  0  0  0  0  0  0  0  0  0  0
  128.4488  125.8566   58.2800 H   0  0  0  0  0  0  0  0  0  0  0  0
  129.1516  124.2797   61.5526 H   0  0  0  0  0  0  0  0  0  0  0  0
  126.8806  123.9429   64.1330 H   0  0  0  0  0  0  0  0  0  0  0  0
  127.2158  122.2601   63.6014 H   0  0  0  0  0  0  0  0  0  0  0  0
  128.5332  123.4812   63.6014 H   0  0  0  0  0  0  0  0  0  0  0  0
  1  2  1  0
  2  3  1  0
  3  4  1  0
  4  5  2  0
  4  6  1  0
  6  7  1  0
  7  8  1  0
  8  9  2  0
  9 10  1  0
 10 11  1  0
 10 12  2  0
 12 13  1  0
 13 14  1  0
 13 15  2  0
 15 16  1  0
 16 17  3  0
 15  8  1  0
  1 18  1  0
  1 19  1  0
  1 20  1  0
  3 21  1  0
  6 22  1  0
  6 23  1  0
 11 24  1  0
 11 25  1  0
 11 26  1  0
 12 27  1  0
 14 28  1  0
 14 29  1  0
 14 30  1  0
M  END
>  <Binding energies>  (1) 
[-6.07]

>  <Ligand effiencies>  (1) 
[-0.33722222222222226]

>  <Interactions>  (1) 
["V-B:GLU:543:CD:9879, V-B:PRO:540:N:9855, H-B:ALA:541:N:9862, V-B:ALA:541:CB:9863, V-B:PRO:540:CA:9854, V-B:ALA:541:CA:9861, V-B:PRO:540:C:9852, V-B:TYR:539:C:9838, V-B:TYR:539:CD2:9845, V-B:TYR:539:CE2:9847, H-B:TYR:539:N:9841, V-B:TYR:539:CG:9843, V-B:MET:535:CE:9806, V-B:TYR:539:CZ:9848, V-B:GLU:543:CG:9878, V-B:ALA:541:C:9859, V-B:PRO:540:CB:9856, V-B:ASN:362:CB:8146, V-B:TYR:539:CA:9840, V-B:TYR:539:CD1:9844, V-B:TYR:531:CZ:9765, V-B:PRO:540:CD:9858, V-B:TYR:531:CE2:9764, V-B:LEU:363:CD1:8159, V-B:TYR:539:CE1:9846, H-B:TYR:531:OH:9766, H-B:ASN:362:ND2:8149, V-B:PRO:540:CG:9857"]

$$$$
1m_Grossjean_2025
     RDKit          3D

 35 35  0  0  0  0  0  0  0  0999 V2000
  125.0210  122.3080   55.5820 C   0  0  0  0  0  0  0  0  0  0  0  0
  125.9400  123.1590   56.2520 O   0  0  0  0  0  0  0  0  0  0  0  0
  126.9300  122.6410   57.0080 C   0  0  0  0  0  0  0  0  0  0  0  0
  127.9000  122.0070   56.5830 O   0  0  0  0  0  0  0  0  0  0  0  0
  126.7160  122.9450   58.5050 C   0  0  0  0  0  0  0  0  0  0  0  0
  127.9710  122.9370   59.2730 N   0  0  0  0  0  0  0  0  0  0  0  0
  128.0710  122.8700   60.6140 C   0  0  0  0  0  0  0  0  0  0  0  0
  127.0900  122.8220   61.3590 O   0  0  0  0  0  0  0  0  0  0  0  0
  129.5010  122.8650   61.1710 C   0  0  0  0  0  0  0  0  0  0  0  0
  129.8380  121.5510   62.3930 S   0  0  0  0  0  0  0  0  0  0  0  0
  130.7640  120.2670   61.5800 C   0  0  0  0  0  0  0  0  0  0  0  0
  130.0910  119.0920   61.4800 N   0  0  0  0  0  0  0  0  0  0  0  0
  130.6960  118.0450   60.8740 C   0  0  0  0  0  0  0  0  0  0  0  0
  129.8750  116.7720   60.7830 C   0  0  0  0  0  0  0  0  0  0  0  0
  131.9870  118.1180   60.3560 C   0  0  0  0  0  0  0  0  0  0  0  0
  132.7000  119.3150   60.4770 C   0  0  0  0  0  0  0  0  0  0  0  0
  134.1200  119.3680   59.9170 C   0  0  0  0  0  0  0  0  0  0  0  0
  132.0900  120.4240   61.1070 C   0  0  0  0  0  0  0  0  0  0  0  0
  132.8360  121.6710   61.2880 C   0  0  0  0  0  0  0  0  0  0  0  0
  133.4260  122.6560   61.4300 N   0  0  0  0  0  0  0  0  0  0  0  0
  124.4249  121.7560   56.3235 H   0  0  0  0  0  0  0  0  0  0  0  0
  124.3530  122.9135   54.9518 H   0  0  0  0  0  0  0  0  0  0  0  0
  125.5735  121.5955   54.9518 H   0  0  0  0  0  0  0  0  0  0  0  0
  126.2525  123.9381   58.5993 H   0  0  0  0  0  0  0  0  0  0  0  0
  126.0715  122.1535   58.9151 H   0  0  0  0  0  0  0  0  0  0  0  0
  128.8210  123.0020   58.7320 H   0  0  0  0  0  0  0  0  0  0  0  0
  130.1966  122.7363   60.3286 H   0  0  0  0  0  0  0  0  0  0  0  0
  129.6328  123.8214   61.6982 H   0  0  0  0  0  0  0  0  0  0  0  0
  129.6429  116.4122   61.7962 H   0  0  0  0  0  0  0  0  0  0  0  0
  128.9387  116.9773   60.2434 H   0  0  0  0  0  0  0  0  0  0  0  0
  130.4483  116.0038   60.2434 H   0  0  0  0  0  0  0  0  0  0  0  0
  132.4390  117.2469   59.8591 H   0  0  0  0  0  0  0  0  0  0  0  0
  134.8409  119.3949   60.7474 H   0  0  0  0  0  0  0  0  0  0  0  0
  134.3044  118.4761   59.3001 H   0  0  0  0  0  0  0  0  0  0  0  0
  134.2374  120.2712   59.3001 H   0  0  0  0  0  0  0  0  0  0  0  0
  1  2  1  0
  2  3  1  0
  3  4  2  0
  3  5  1  0
  5  6  1  0
  6  7  1  0
  7  8  2  0
  7  9  1  0
  9 10  1  0
 10 11  1  0
 11 12  2  0
 12 13  1  0
 13 14  1  0
 13 15  2  0
 15 16  1  0
 16 17  1  0
 16 18  2  0
 18 19  1  0
 19 20  3  0
 18 11  1  0
  1 21  1  0
  1 22  1  0
  1 23  1  0
  5 24  1  0
  5 25  1  0
  6 26  1  0
  9 27  1  0
  9 28  1  0
 14 29  1  0
 14 30  1  0
 14 31  1  0
 15 32  1  0
 17 33  1  0
 17 34  1  0
 17 35  1  0
M  END
>  <Binding energies>  (1) 
[-7.04]

>  <Ligand effiencies>  (1) 
[-0.3352380952380952]

>  <Interactions>  (1) 
["V-B:PRO:540:N:9855, H-B:ALA:541:N:9862, V-B:ALA:541:CB:9863, V-B:PRO:540:CA:9854, V-B:TYR:539:C:9838, V-A:LEU:475:CD2:4258, V-A:PRO:482:CG:4326, V-A:HIS:383:CE1:3393, H-B:TYR:539:O:9839, V-B:TYR:539:CD2:9845, V-A:ILE:369:CG2:3236, V-B:TYR:539:CE2:9847, V-B:TYR:539:CB:9842, V-A:SER:385:CA:3406, H-B:TYR:539:N:9841, V-B:VAL:344:CG1:7971, V-B:MET:535:CE:9806, V-A:PRO:482:CB:4325, V-B:PRO:540:CB:9856, V-B:PRO:540:CD:9858, V-B:TYR:531:CE2:9764, V-B:LEU:363:CD1:8159, V-B:ILE:538:CD1:9836, V-B:ILE:538:CG2:9834, V-B:ILE:538:CA:9831, V-B:ILE:538:CB:9833, H-B:TYR:531:OH:9766, V-A:VAL:384:C:3396"]

$$$$
1n_Grossjean_2025
     RDKit          3D

 48 49  0  0  0  0  0  0  0  0999 V2000
  123.5940  124.9980   57.7520 C   0  0  0  0  0  0  0  0  0  0  0  0
  124.5200  123.7810   57.8440 C   0  0  0  0  0  0  0  0  0  0  0  0
  125.5810  123.9220   56.9070 O   0  0  0  0  0  0  0  0  0  0  0  0
  126.5500  122.9780   56.7960 C   0  0  0  0  0  0  0  0  0  0  0  0
  126.4670  122.0040   56.0420 O   0  0  0  0  0  0  0  0  0  0  0  0
  127.7390  123.2420   57.6740 C   0  0  0  0  0  0  0  0  0  0  0  0
  128.0300  122.4430   58.7910 C   0  0  0  0  0  0  0  0  0  0  0  0
  129.1390  122.7180   59.5860 C   0  0  0  0  0  0  0  0  0  0  0  0
  129.9730  123.7960   59.2890 C   0  0  0  0  0  0  0  0  0  0  0  0
  131.0620  123.9850   60.1620 N   0  0  0  0  0  0  0  0  0  0  0  0
  132.3860  124.0280   59.8960 C   0  0  0  0  0  0  0  0  0  0  0  0
  132.8930  123.9090   58.7800 O   0  0  0  0  0  0  0  0  0  0  0  0
  133.3000  124.2480   61.1080 C   0  0  0  0  0  0  0  0  0  0  0  0
  133.8200  122.9300   61.7210 C   0  0  0  0  0  0  0  0  0  0  0  0
  132.6930  122.1600   62.9210 S   0  0  0  0  0  0  0  0  0  0  0  0
  131.3920  123.3250   63.2640 C   0  0  0  0  0  0  0  0  0  0  0  0
  130.1770  122.9320   62.8050 N   0  0  0  0  0  0  0  0  0  0  0  0
  129.1090  123.7340   63.0240 C   0  0  0  0  0  0  0  0  0  0  0  0
  127.7820  123.2260   62.4930 C   0  0  0  0  0  0  0  0  0  0  0  0
  129.2060  124.9510   63.6960 C   0  0  0  0  0  0  0  0  0  0  0  0
  130.4590  125.3740   64.1550 C   0  0  0  0  0  0  0  0  0  0  0  0
  130.5440  126.7170   64.8780 C   0  0  0  0  0  0  0  0  0  0  0  0
  131.5890  124.5550   63.9340 C   0  0  0  0  0  0  0  0  0  0  0  0
  132.9170  125.0020   64.3600 C   0  0  0  0  0  0  0  0  0  0  0  0
  133.9650  125.3580   64.6960 N   0  0  0  0  0  0  0  0  0  0  0  0
  129.6950  124.5930   58.1690 C   0  0  0  0  0  0  0  0  0  0  0  0
  128.5870  124.3150   57.3730 C   0  0  0  0  0  0  0  0  0  0  0  0
  123.3347  125.3388   58.7652 H   0  0  0  0  0  0  0  0  0  0  0  0
  124.1060  125.8083   57.2124 H   0  0  0  0  0  0  0  0  0  0  0  0
  122.6765  124.7206   57.2124 H   0  0  0  0  0  0  0  0  0  0  0  0
  124.9349  123.7117   58.8604 H   0  0  0  0  0  0  0  0  0  0  0  0
  123.9498  122.8678   57.6183 H   0  0  0  0  0  0  0  0  0  0  0  0
  127.3769  121.5935   59.0398 H   0  0  0  0  0  0  0  0  0  0  0  0
  129.3594  122.0805   60.4549 H   0  0  0  0  0  0  0  0  0  0  0  0
  130.7970  124.1500   61.1220 H   0  0  0  0  0  0  0  0  0  0  0  0
  134.1634  124.8511   60.7906 H   0  0  0  0  0  0  0  0  0  0  0  0
  132.7042  124.7565   61.8803 H   0  0  0  0  0  0  0  0  0  0  0  0
  133.9915  122.2149   60.9030 H   0  0  0  0  0  0  0  0  0  0  0  0
  134.7382  123.1822   62.2717 H   0  0  0  0  0  0  0  0  0  0  0  0
  127.1222  122.9734   63.3361 H   0  0  0  0  0  0  0  0  0  0  0  0
  127.3097  124.0069   61.8789 H   0  0  0  0  0  0  0  0  0  0  0  0
  127.9519  122.3293   61.8789 H   0  0  0  0  0  0  0  0  0  0  0  0
  128.3119  125.5696   63.8631 H   0  0  0  0  0  0  0  0  0  0  0  0
  130.5334  126.5495   65.9651 H   0  0  0  0  0  0  0  0  0  0  0  0
  131.4763  127.2276   64.5947 H   0  0  0  0  0  0  0  0  0  0  0  0
  129.6836  127.3410   64.5947 H   0  0  0  0  0  0  0  0  0  0  0  0
  130.3529  125.4385   57.9192 H   0  0  0  0  0  0  0  0  0  0  0  0
  128.3752  124.9458   56.4971 H   0  0  0  0  0  0  0  0  0  0  0  0
  1  2  1  0
  2  3  1  0
  3  4  1  0
  4  5  2  0
  4  6  1  0
  6  7  2  0
  7  8  1  0
  8  9  2  0
  9 10  1  0
 10 11  1  0
 11 12  2  0
 11 13  1  0
 13 14  1  0
 14 15  1  0
 15 16  1  0
 16 17  2  0
 17 18  1  0
 18 19  1  0
 18 20  2  0
 20 21  1  0
 21 22  1  0
 21 23  2  0
 23 24  1  0
 24 25  3  0
  9 26  1  0
 26 27  2  0
 27  6  1  0
 23 16  1  0
  1 28  1  0
  1 29  1  0
  1 30  1  0
  2 31  1  0
  2 32  1  0
  7 33  1  0
  8 34  1  0
 10 35  1  0
 13 36  1  0
 13 37  1  0
 14 38  1  0
 14 39  1  0
 19 40  1  0
 19 41  1  0
 19 42  1  0
 20 43  1  0
 22 44  1  0
 22 45  1  0
 22 46  1  0
 26 47  1  0
 27 48  1  0
M  END
>  <Binding energies>  (1) 
[-7.63]

>  <Ligand effiencies>  (1) 
[-0.2725]

>  <Interactions>  (1) 
["V-A:ASP:366:CG:3212, V-B:GLU:543:CD:9879, V-B:PRO:540:N:9855, V-B:ALA:541:CB:9863, V-B:PRO:540:CA:9854, V-B:TYR:539:C:9838, V-A:ILE:369:CD1:3238, V-B:TYR:539:CD2:9845, V-B:TYR:539:CE2:9847, H-B:TYR:539:N:9841, V-B:TYR:539:CG:9843, V-B:MET:535:CE:9806, H-B:TYR:539:OH:9849, V-B:TYR:539:CZ:9848, V-B:PRO:540:CB:9856, H-A:GLY:454:N:4049, V-B:TYR:531:CZ:9765, V-B:TYR:531:CE2:9764, V-B:LEU:363:CD1:8159, V-A:GLU:543:CD:4907, H-A:ARG:545:NH1:4926, H-A:ARG:545:NH2:4927, V-B:ASP:366:CB:8182, H-B:TYR:531:OH:9766, V-B:ASP:366:CG:8183, V-B:LEU:363:CA:8155"]

$$$$
1o_Grossjean_2025
     RDKit          3D

 45 46  0  0  0  0  0  0  0  0999 V2000
  125.8990  122.0190   55.5110 C   0  0  0  0  0  0  0  0  0  0  0  0
  126.0880  123.2160   56.2530 O   0  0  0  0  0  0  0  0  0  0  0  0
  125.5250  123.3740   57.4790 C   0  0  0  0  0  0  0  0  0  0  0  0
  124.3110  123.5100   57.6580 O   0  0  0  0  0  0  0  0  0  0  0  0
  126.5270  123.3640   58.5980 C   0  0  0  0  0  0  0  0  0  0  0  0
  127.8260  122.8650   58.4270 C   0  0  0  0  0  0  0  0  0  0  0  0
  128.7320  122.8730   59.4850 C   0  0  0  0  0  0  0  0  0  0  0  0
  128.3570  123.3720   60.7330 C   0  0  0  0  0  0  0  0  0  0  0  0
  129.3530  123.3410   61.7290 N   0  0  0  0  0  0  0  0  0  0  0  0
  129.9840  122.2850   62.2890 C   0  0  0  0  0  0  0  0  0  0  0  0
  129.8150  121.1070   61.9720 O   0  0  0  0  0  0  0  0  0  0  0  0
  131.0070  122.6290   63.3820 C   0  0  0  0  0  0  0  0  0  0  0  0
  132.4290  122.8640   62.8350 C   0  0  0  0  0  0  0  0  0  0  0  0
  132.8970  124.6160   62.7220 S   0  0  0  0  0  0  0  0  0  0  0  0
  132.6960  125.3590   64.3290 C   0  0  0  0  0  0  0  0  0  0  0  0
  133.8130  125.2940   65.0970 N   0  0  0  0  0  0  0  0  0  0  0  0
  133.7830  125.8340   66.3380 C   0  0  0  0  0  0  0  0  0  0  0  0
  135.0730  125.7370   67.1310 C   0  0  0  0  0  0  0  0  0  0  0  0
  132.6460  126.4430   66.8640 C   0  0  0  0  0  0  0  0  0  0  0  0
  131.4810  126.4920   66.0920 C   0  0  0  0  0  0  0  0  0  0  0  0
  130.2440  127.1530   66.6970 C   0  0  0  0  0  0  0  0  0  0  0  0
  131.4880  125.9310   64.7940 C   0  0  0  0  0  0  0  0  0  0  0  0
  130.2610  125.9210   63.9940 C   0  0  0  0  0  0  0  0  0  0  0  0
  129.2910  125.9150   63.3630 N   0  0  0  0  0  0  0  0  0  0  0  0
  127.0610  123.8780   60.9100 C   0  0  0  0  0  0  0  0  0  0  0  0
  126.1570  123.8700   59.8510 C   0  0  0  0  0  0  0  0  0  0  0  0
  125.7658  121.1752   56.2040 H   0  0  0  0  0  0  0  0  0  0  0  0
  125.0053  122.1177   54.8773 H   0  0  0  0  0  0  0  0  0  0  0  0
  126.7796  121.8375   54.8773 H   0  0  0  0  0  0  0  0  0  0  0  0
  128.1322  122.4640   57.4495 H   0  0  0  0  0  0  0  0  0  0  0  0
  129.7498  122.4834   59.3357 H   0  0  0  0  0  0  0  0  0  0  0  0
  129.6470  124.2520   62.0480 H   0  0  0  0  0  0  0  0  0  0  0  0
  130.6750  123.5434   63.8954 H   0  0  0  0  0  0  0  0  0  0  0  0
  131.0585  121.7665   64.0627 H   0  0  0  0  0  0  0  0  0  0  0  0
  133.1436  122.3573   63.5002 H   0  0  0  0  0  0  0  0  0  0  0  0
  132.4463  122.4632   61.8108 H   0  0  0  0  0  0  0  0  0  0  0  0
  134.8442  125.7542   68.2068 H   0  0  0  0  0  0  0  0  0  0  0  0
  135.5876  124.7976   66.8805 H   0  0  0  0  0  0  0  0  0  0  0  0
  135.7223  126.5889   66.8805 H   0  0  0  0  0  0  0  0  0  0  0  0
  132.6643  126.8797   67.8734 H   0  0  0  0  0  0  0  0  0  0  0  0
  130.3094  127.1181   67.7945 H   0  0  0  0  0  0  0  0  0  0  0  0
  130.1892  128.2006   66.3661 H   0  0  0  0  0  0  0  0  0  0  0  0
  129.3426  126.6163   66.3661 H   0  0  0  0  0  0  0  0  0  0  0  0
  126.7581  124.2819   61.8873 H   0  0  0  0  0  0  0  0  0  0  0  0
  125.1413  124.2652   59.9998 H   0  0  0  0  0  0  0  0  0  0  0  0
  1  2  1  0
  2  3  1  0
  3  4  2  0
  3  5  1  0
  5  6  2  0
  6  7  1  0
  7  8  2  0
  8  9  1  0
  9 10  1  0
 10 11  2  0
 10 12  1  0
 12 13  1  0
 13 14  1  0
 14 15  1  0
 15 16  2  0
 16 17  1  0
 17 18  1  0
 17 19  2  0
 19 20  1  0
 20 21  1  0
 20 22  2  0
 22 23  1  0
 23 24  3  0
  8 25  1  0
 25 26  2  0
 26  5  1  0
 22 15  1  0
  1 27  1  0
  1 28  1  0
  1 29  1  0
  6 30  1  0
  7 31  1  0
  9 32  1  0
 12 33  1  0
 12 34  1  0
 13 35  1  0
 13 36  1  0
 18 37  1  0
 18 38  1  0
 18 39  1  0
 19 40  1  0
 21 41  1  0
 21 42  1  0
 21 43  1  0
 25 44  1  0
 26 45  1  0
M  END
>  <Binding energies>  (1) 
[-7.24]

>  <Ligand effiencies>  (1) 
[-0.26814814814814814]

>  <Interactions>  (1) 
["V-B:PRO:540:N:9855, H-A:TYR:484:OH:4347, V-B:ALA:541:CB:9863, V-B:PRO:540:CA:9854, V-B:TYR:539:C:9838, V-A:LEU:475:CD2:4258, V-B:TYR:539:CD2:9845, V-B:TYR:539:CE2:9847, V-A:GLY:454:CA:4048, V-B:MET:535:CE:9806, V-B:PRO:540:CB:9856, H-A:GLY:454:N:4049, V-A:GLY:453:C:4041, V-A:ARG:545:CD:4922, V-B:PRO:540:CD:9858, V-A:ARG:545:CZ:4925, V-B:ILE:538:CD1:9836, V-A:ARG:545:CG:4921, V-A:HIS:456:CE1:4069, V-B:ILE:538:CG2:9834, V-A:GLU:543:CD:4907, V-B:ILE:538:CA:9831, V-A:GLY:453:CA:4043, V-B:ILE:538:C:9829, V-B:ILE:538:CB:9833, H-B:TYR:531:OH:9766, V-B:MET:535:CG:9804, V-A:ILE:455:C:4051, V-A:ARG:545:CB:4920"]

$$$$
1p_Grossjean_2025
     RDKit          3D

 35 36  0  0  0  0  0  0  0  0999 V2000
  129.8850  116.8690   60.7510 C   0  0  0  0  0  0  0  0  0  0  0  0
  130.7410  118.1140   60.8890 C   0  0  0  0  0  0  0  0  0  0  0  0
  132.0380  118.1650   60.3820 C   0  0  0  0  0  0  0  0  0  0  0  0
  132.7870  119.3350   60.5490 C   0  0  0  0  0  0  0  0  0  0  0  0
  134.2120  119.3650   59.9990 C   0  0  0  0  0  0  0  0  0  0  0  0
  132.2080  120.4370   61.2190 C   0  0  0  0  0  0  0  0  0  0  0  0
  132.9870  121.6540   61.4490 C   0  0  0  0  0  0  0  0  0  0  0  0
  133.6040  122.6170   61.6310 N   0  0  0  0  0  0  0  0  0  0  0  0
  130.8770  120.3030   61.6810 C   0  0  0  0  0  0  0  0  0  0  0  0
  129.9960  121.5920   62.5330 S   0  0  0  0  0  0  0  0  0  0  0  0
  128.7680  122.2490   61.3670 C   0  0  0  0  0  0  0  0  0  0  0  0
  129.2860  123.4230   60.5140 C   0  0  0  0  0  0  0  0  0  0  0  0
  128.5200  123.6090   59.1960 C   0  0  0  0  0  0  0  0  0  0  0  0
  128.5070  124.7150   58.6520 O   0  0  0  0  0  0  0  0  0  0  0  0
  127.9120  122.5030   58.7120 N   0  0  0  0  0  0  0  0  0  0  0  0
  127.1610  122.3970   57.5480 C   0  0  0  0  0  0  0  0  0  0  0  0
  125.8100  122.7350   57.4800 C   0  0  0  0  0  0  0  0  0  0  0  0
  125.4450  122.4930   56.1750 C   0  0  0  0  0  0  0  0  0  0  0  0
  126.5190  122.0310   55.4940 O   0  0  0  0  0  0  0  0  0  0  0  0
  127.6010  121.9730   56.3750 N   0  0  0  0  0  0  0  0  0  0  0  0
  130.1660  119.1560   61.5320 N   0  0  0  0  0  0  0  0  0  0  0  0
  129.6247  116.4904   61.7504 H   0  0  0  0  0  0  0  0  0  0  0  0
  128.9648  117.1158   60.2013 H   0  0  0  0  0  0  0  0  0  0  0  0
  130.4449  116.0981   60.2013 H   0  0  0  0  0  0  0  0  0  0  0  0
  132.4668  117.2980   59.8581 H   0  0  0  0  0  0  0  0  0  0  0  0
  134.9273  119.3801   60.8346 H   0  0  0  0  0  0  0  0  0  0  0  0
  134.3863  118.4703   59.3832 H   0  0  0  0  0  0  0  0  0  0  0  0
  134.3485  120.2662   59.3832 H   0  0  0  0  0  0  0  0  0  0  0  0
  128.4629  121.4370   60.6906 H   0  0  0  0  0  0  0  0  0  0  0  0
  127.9305  122.6342   61.9671 H   0  0  0  0  0  0  0  0  0  0  0  0
  129.1949  124.3477   61.1028 H   0  0  0  0  0  0  0  0  0  0  0  0
  130.3298  123.1958   60.2516 H   0  0  0  0  0  0  0  0  0  0  0  0
  127.9970  121.6540   59.2520 H   0  0  0  0  0  0  0  0  0  0  0  0
  125.1734  123.1133   58.2934 H   0  0  0  0  0  0  0  0  0  0  0  0
  124.4412  122.6500   55.7534 H   0  0  0  0  0  0  0  0  0  0  0  0
  1  2  1  0
  2  3  2  0
  3  4  1  0
  4  5  1  0
  4  6  2  0
  6  7  1  0
  7  8  3  0
  6  9  1  0
  9 10  1  0
 10 11  1  0
 11 12  1  0
 12 13  1  0
 13 14  2  0
 13 15  1  0
 15 16  1  0
 16 17  1  0
 17 18  2  0
 18 19  1  0
 19 20  1  0
  9 21  2  0
 21  2  1  0
 20 16  2  0
  1 22  1  0
  1 23  1  0
  1 24  1  0
  3 25  1  0
  5 26  1  0
  5 27  1  0
  5 28  1  0
 11 29  1  0
 11 30  1  0
 12 31  1  0
 12 32  1  0
 15 33  1  0
 17 34  1  0
 18 35  1  0
M  END
>  <Binding energies>  (1) 
[-8.13]

>  <Ligand effiencies>  (1) 
[-0.36954545454545457]

>  <Interactions>  (1) 
["V-B:PRO:540:N:9855, V-B:ALA:541:CB:9863, V-B:PRO:540:CA:9854, V-B:TYR:539:C:9838, V-A:LEU:475:CD2:4258, V-A:PRO:482:CG:4326, V-A:HIS:383:CE1:3393, H-B:TYR:539:O:9839, V-A:SER:385:C:3404, V-B:TYR:539:CD2:9845, V-A:ILE:369:CG2:3236, V-B:TYR:539:CE2:9847, V-B:TYR:539:CB:9842, V-A:SER:385:CA:3406, V-A:SER:385:CB:3408, H-B:TYR:539:N:9841, V-B:VAL:344:CG1:7971, V-A:PRO:482:CB:4325, V-B:PRO:540:CB:9856, V-B:TYR:539:CA:9840, V-B:PRO:540:CD:9858, V-B:TYR:531:CE2:9764, V-B:LEU:363:CD1:8159, V-B:ILE:538:CD1:9836, V-B:ILE:538:CG2:9834, V-A:VAL:384:C:3396"]

$$$$
1q_Grossjean_2025
     RDKit          3D

 38 38  0  0  0  0  0  0  0  0999 V2000
  134.1900  125.7520   67.1740 C   0  0  0  0  0  0  0  0  0  0  0  0
  134.3880  126.0030   65.7910 O   0  0  0  0  0  0  0  0  0  0  0  0
  133.5820  125.4290   64.8640 C   0  0  0  0  0  0  0  0  0  0  0  0
  133.9500  124.9620   63.7850 O   0  0  0  0  0  0  0  0  0  0  0  0
  132.0870  125.4210   65.2500 C   0  0  0  0  0  0  0  0  0  0  0  0
  131.3330  124.3350   64.6060 N   0  0  0  0  0  0  0  0  0  0  0  0
  130.3160  123.6450   65.1570 C   0  0  0  0  0  0  0  0  0  0  0  0
  129.8960  123.8600   66.2960 O   0  0  0  0  0  0  0  0  0  0  0  0
  129.6800  122.5630   64.2730 C   0  0  0  0  0  0  0  0  0  0  0  0
  128.6940  123.1050   63.2190 C   0  0  0  0  0  0  0  0  0  0  0  0
  128.6750  122.1430   61.6770 S   0  0  0  0  0  0  0  0  0  0  0  0
  130.1660  121.1720   61.5960 C   0  0  0  0  0  0  0  0  0  0  0  0
  129.9360  119.8360   61.5260 N   0  0  0  0  0  0  0  0  0  0  0  0
  130.9940  118.9940   61.4620 C   0  0  0  0  0  0  0  0  0  0  0  0
  130.6580  117.5160   61.4030 C   0  0  0  0  0  0  0  0  0  0  0  0
  132.3130  119.4440   61.4540 C   0  0  0  0  0  0  0  0  0  0  0  0
  132.5610  120.8190   61.5000 C   0  0  0  0  0  0  0  0  0  0  0  0
  134.0160  121.2870   61.4730 C   0  0  0  0  0  0  0  0  0  0  0  0
  131.4730  121.7180   61.5650 C   0  0  0  0  0  0  0  0  0  0  0  0
  131.7130  123.1620   61.5560 C   0  0  0  0  0  0  0  0  0  0  0  0
  131.9070  124.3030   61.5490 N   0  0  0  0  0  0  0  0  0  0  0  0
  134.7647  126.4805   67.7648 H   0  0  0  0  0  0  0  0  0  0  0  0
  133.1208  125.8468   67.4145 H   0  0  0  0  0  0  0  0  0  0  0  0
  134.5311  124.7342   67.4145 H   0  0  0  0  0  0  0  0  0  0  0  0
  132.0073  125.3041   66.3409 H   0  0  0  0  0  0  0  0  0  0  0  0
  131.6533  126.3716   64.9060 H   0  0  0  0  0  0  0  0  0  0  0  0
  131.6340  124.0790   63.6760 H   0  0  0  0  0  0  0  0  0  0  0  0
  130.4859  122.0287   63.7485 H   0  0  0  0  0  0  0  0  0  0  0  0
  129.0996  121.9103   64.9417 H   0  0  0  0  0  0  0  0  0  0  0  0
  127.6820  123.0911   63.6500 H   0  0  0  0  0  0  0  0  0  0  0  0
  129.0250  124.1217   62.9606 H   0  0  0  0  0  0  0  0  0  0  0  0
  130.5678  117.1194   62.4250 H   0  0  0  0  0  0  0  0  0  0  0  0
  129.7055  117.3775   60.8706 H   0  0  0  0  0  0  0  0  0  0  0  0
  131.4570  116.9793   60.8706 H   0  0  0  0  0  0  0  0  0  0  0  0
  133.1467  118.7277   61.4121 H   0  0  0  0  0  0  0  0  0  0  0  0
  134.3824  121.4049   62.5035 H   0  0  0  0  0  0  0  0  0  0  0  0
  134.6313  120.5414   60.9481 H   0  0  0  0  0  0  0  0  0  0  0  0
  134.0813  122.2515   60.9481 H   0  0  0  0  0  0  0  0  0  0  0  0
  1  2  1  0
  2  3  1  0
  3  4  2  0
  3  5  1  0
  5  6  1  0
  6  7  1  0
  7  8  2  0
  7  9  1  0
  9 10  1  0
 10 11  1  0
 11 12  1  0
 12 13  2  0
 13 14  1  0
 14 15  1  0
 14 16  2  0
 16 17  1  0
 17 18  1  0
 17 19  2  0
 19 20  1  0
 20 21  3  0
 19 12  1  0
  1 22  1  0
  1 23  1  0
  1 24  1  0
  5 25  1  0
  5 26  1  0
  6 27  1  0
  9 28  1  0
  9 29  1  0
 10 30  1  0
 10 31  1  0
 15 32  1  0
 15 33  1  0
 15 34  1  0
 16 35  1  0
 18 36  1  0
 18 37  1  0
 18 38  1  0
M  END
>  <Binding energies>  (1) 
[-5.78]

>  <Ligand effiencies>  (1) 
[-0.26272727272727275]

>  <Interactions>  (1) 
["H-B:ALA:541:N:9862, H-A:TYR:484:OH:4347, V-B:ALA:541:CB:9863, V-A:LEU:475:CD2:4258, V-A:PRO:482:CG:4326, V-A:HIS:383:CE1:3393, V-A:ILE:369:CD1:3238, V-A:SER:385:C:3404, V-B:TYR:539:CD2:9845, V-A:ILE:369:CG2:3236, V-A:SER:385:CA:3406, V-A:SER:385:CB:3408, V-A:GLY:454:CA:4048, V-A:PRO:482:CB:4325, H-A:GLY:454:N:4049, V-A:ARG:545:CD:4922, V-A:ARG:545:CZ:4925, V-A:ARG:545:CG:4921, H-A:ARG:545:NH1:4926, H-A:ARG:545:NH2:4927, H-A:ARG:545:NE:4923, V-A:TYR:484:CZ:4346, V-A:TYR:484:CE2:4345"]

$$$$
2a_Ghoteimi_2023
     RDKit          3D

 85 90  0  0  0  0  0  0  0  0999 V2000
  133.5710  131.0000   59.1250 C   0  0  0  0  0  0  0  0  0  0  0  0
  132.5640  131.2680   58.0030 C   0  0  0  0  0  0  0  0  0  0  0  0
  132.0650  132.5930   58.1230 O   0  0  0  0  0  0  0  0  0  0  0  0
  131.0030  133.0130   57.3880 C   0  0  0  0  0  0  0  0  0  0  0  0
  131.1140  133.6180   56.3170 O   0  0  0  0  0  0  0  0  0  0  0  0
  129.6790  132.6610   58.0050 C   0  0  0  0  0  0  0  0  0  0  0  0
  128.7050  131.9320   57.3070 C   0  0  0  0  0  0  0  0  0  0  0  0
  127.4900  131.6220   57.9080 C   0  0  0  0  0  0  0  0  0  0  0  0
  127.2220  132.0270   59.2170 C   0  0  0  0  0  0  0  0  0  0  0  0
  125.9600  131.6630   59.7240 N   0  0  0  0  0  0  0  0  0  0  0  0
  124.7370  131.7690   59.1590 C   0  0  0  0  0  0  0  0  0  0  0  0
  124.5060  132.2750   58.0610 O   0  0  0  0  0  0  0  0  0  0  0  0
  123.5770  131.2390   60.0120 C   0  0  0  0  0  0  0  0  0  0  0  0
  123.7730  131.5100   61.8030 S   0  0  0  0  0  0  0  0  0  0  0  0
  124.7970  130.1760   62.3810 C   0  0  0  0  0  0  0  0  0  0  0  0
  125.0000  129.2040   61.4620 N   0  0  0  0  0  0  0  0  0  0  0  0
  125.7580  128.1270   61.7880 C   0  0  0  0  0  0  0  0  0  0  0  0
  125.9310  127.0880   60.7270 C   0  0  0  0  0  0  0  0  0  0  0  0
  125.5290  127.3250   59.4070 C   0  0  0  0  0  0  0  0  0  0  0  0
  125.6820  126.3500   58.4250 C   0  0  0  0  0  0  0  0  0  0  0  0
  126.2500  125.1040   58.7240 C   0  0  0  0  0  0  0  0  0  0  0  0
  126.3700  124.1230   57.7340 N   0  0  0  0  0  0  0  0  0  0  0  0
  125.1800  123.5170   57.1020 C   0  0  0  0  0  0  0  0  0  0  0  0
  125.4910  122.7410   55.8050 C   0  0  0  0  0  0  0  0  0  0  0  0
  126.4880  121.7620   56.0520 O   0  0  0  0  0  0  0  0  0  0  0  0
  127.6960  122.3560   56.5010 C   0  0  0  0  0  0  0  0  0  0  0  0
  127.4540  123.1220   57.8180 C   0  0  0  0  0  0  0  0  0  0  0  0
  126.6410  124.8660   60.0520 C   0  0  0  0  0  0  0  0  0  0  0  0
  126.4900  125.8420   61.0320 C   0  0  0  0  0  0  0  0  0  0  0  0
  126.3440  128.0110   63.0510 C   0  0  0  0  0  0  0  0  0  0  0  0
  126.1480  129.0060   64.0190 C   0  0  0  0  0  0  0  0  0  0  0  0
  126.7980  128.8150   65.3510 C   0  0  0  0  0  0  0  0  0  0  0  0
  126.0170  128.6510   66.4970 C   0  0  0  0  0  0  0  0  0  0  0  0
  126.6130  128.4930   67.7450 C   0  0  0  0  0  0  0  0  0  0  0  0
  128.0090  128.4910   67.8830 C   0  0  0  0  0  0  0  0  0  0  0  0
  128.6270  128.3520   69.1290 N   0  0  0  0  0  0  0  0  0  0  0  0
  128.0430  127.4340   70.1280 C   0  0  0  0  0  0  0  0  0  0  0  0
  129.0150  127.0830   71.2750 C   0  0  0  0  0  0  0  0  0  0  0  0
  129.4840  128.2710   71.8950 O   0  0  0  0  0  0  0  0  0  0  0  0
  130.1730  129.1050   70.9770 C   0  0  0  0  0  0  0  0  0  0  0  0
  129.2350  129.5060   69.8200 C   0  0  0  0  0  0  0  0  0  0  0  0
  128.7860  128.6680   66.7290 C   0  0  0  0  0  0  0  0  0  0  0  0
  128.1900  128.8280   65.4820 C   0  0  0  0  0  0  0  0  0  0  0  0
  125.3550  130.1290   63.6780 C   0  0  0  0  0  0  0  0  0  0  0  0
  125.1600  131.2280   64.6280 C   0  0  0  0  0  0  0  0  0  0  0  0
  125.0060  132.0940   65.3810 N   0  0  0  0  0  0  0  0  0  0  0  0
  128.1880  132.7640   59.9180 C   0  0  0  0  0  0  0  0  0  0  0  0
  129.4050  133.0730   59.3160 C   0  0  0  0  0  0  0  0  0  0  0  0
  133.0778  131.1313   60.0994 H   0  0  0  0  0  0  0  0  0  0  0  0
  133.9483  129.9702   59.0408 H   0  0  0  0  0  0  0  0  0  0  0  0
  134.4103  131.7060   59.0408 H   0  0  0  0  0  0  0  0  0  0  0  0
  133.0603  131.1496   57.0285 H   0  0  0  0  0  0  0  0  0  0  0  0
  131.7310  130.5535   58.0786 H   0  0  0  0  0  0  0  0  0  0  0  0
  128.9038  131.6030   56.2763 H   0  0  0  0  0  0  0  0  0  0  0  0
  126.7337  131.0530   57.3475 H   0  0  0  0  0  0  0  0  0  0  0  0
  125.9850  131.2900   60.6610 H   0  0  0  0  0  0  0  0  0  0  0  0
  122.6539  131.7414   59.6872 H   0  0  0  0  0  0  0  0  0  0  0  0
  123.5490  130.1498   59.8610 H   0  0  0  0  0  0  0  0  0  0  0  0
  125.0856  128.2961   59.1418 H   0  0  0  0  0  0  0  0  0  0  0  0
  125.3516  126.5611   57.3973 H   0  0  0  0  0  0  0  0  0  0  0  0
  124.7217  122.8217   57.8207 H   0  0  0  0  0  0  0  0  0  0  0  0
  124.5072  124.3429   56.8278 H   0  0  0  0  0  0  0  0  0  0  0  0
  124.5755  122.2465   55.4480 H   0  0  0  0  0  0  0  0  0  0  0  0
  125.8569  123.4444   55.0425 H   0  0  0  0  0  0  0  0  0  0  0  0
  128.4467  121.5700   56.6702 H   0  0  0  0  0  0  0  0  0  0  0  0
  128.0562  123.0601   55.7365 H   0  0  0  0  0  0  0  0  0  0  0  0
  127.1940  122.3937   58.6003 H   0  0  0  0  0  0  0  0  0  0  0  0
  128.3802  123.6703   58.0451 H   0  0  0  0  0  0  0  0  0  0  0  0
  127.0739  123.8914   60.3217 H   0  0  0  0  0  0  0  0  0  0  0  0
  126.8148  125.6311   62.0616 H   0  0  0  0  0  0  0  0  0  0  0  0
  126.9633  127.1332   63.2874 H   0  0  0  0  0  0  0  0  0  0  0  0
  124.9202  128.6466   66.4127 H   0  0  0  0  0  0  0  0  0  0  0  0
  125.9801  128.3679   68.6360 H   0  0  0  0  0  0  0  0  0  0  0  0
  127.1503  127.9099   70.5599 H   0  0  0  0  0  0  0  0  0  0  0  0
  127.8009  126.4960   69.6069 H   0  0  0  0  0  0  0  0  0  0  0  0
  128.4916  126.4656   72.0199 H   0  0  0  0  0  0  0  0  0  0  0  0
  129.8714  126.5274   70.8652 H   0  0  0  0  0  0  0  0  0  0  0  0
  130.5181  130.0111   71.4966 H   0  0  0  0  0  0  0  0  0  0  0  0
  131.0350  128.5570   70.5689 H   0  0  0  0  0  0  0  0  0  0  0  0
  128.4280  130.1329   70.2271 H   0  0  0  0  0  0  0  0  0  0  0  0
  129.8458  130.0423   69.0788 H   0  0  0  0  0  0  0  0  0  0  0  0
  129.8829  128.6805   66.8109 H   0  0  0  0  0  0  0  0  0  0  0  0
  128.8198  128.9660   64.5908 H   0  0  0  0  0  0  0  0  0  0  0  0
  127.9836  133.0986   60.9457 H   0  0  0  0  0  0  0  0  0  0  0  0
  130.1590  133.6464   59.8753 H   0  0  0  0  0  0  0  0  0  0  0  0
  1  2  1  0
  2  3  1  0
  3  4  1  0
  4  5  2  0
  4  6  1  0
  6  7  2  0
  7  8  1  0
  8  9  2  0
  9 10  1  0
 10 11  1  0
 11 12  2  0
 11 13  1  0
 13 14  1  0
 14 15  1  0
 15 16  2  0
 16 17  1  0
 17 18  1  0
 18 19  2  0
 19 20  1  0
 20 21  2  0
 21 22  1  0
 22 23  1  0
 23 24  1  0
 24 25  1  0
 25 26  1  0
 26 27  1  0
 21 28  1  0
 28 29  2  0
 17 30  2  0
 30 31  1  0
 31 32  1  0
 32 33  2  0
 33 34  1  0
 34 35  2  0
 35 36  1  0
 36 37  1  0
 37 38  1  0
 38 39  1  0
 39 40  1  0
 40 41  1  0
 35 42  1  0
 42 43  2  0
 31 44  2  0
 44 45  1  0
 45 46  3  0
  9 47  1  0
 47 48  2  0
 48  6  1  0
 44 15  1  0
 29 18  1  0
 43 32  1  0
 27 22  1  0
 41 36  1  0
  1 49  1  0
  1 50  1  0
  1 51  1  0
  2 52  1  0
  2 53  1  0
  7 54  1  0
  8 55  1  0
 10 56  1  0
 13 57  1  0
 13 58  1  0
 19 59  1  0
 20 60  1  0
 23 61  1  0
 23 62  1  0
 24 63  1  0
 24 64  1  0
 26 65  1  0
 26 66  1  0
 27 67  1  0
 27 68  1  0
 28 69  1  0
 29 70  1  0
 30 71  1  0
 33 72  1  0
 34 73  1  0
 37 74  1  0
 37 75  1  0
 38 76  1  0
 38 77  1  0
 40 78  1  0
 40 79  1  0
 41 80  1  0
 41 81  1  0
 42 82  1  0
 43 83  1  0
 47 84  1  0
 48 85  1  0
M  END
>  <Binding energies>  (1) 
[-11.07]

>  <Ligand effiencies>  (1) 
[-0.2259183673469388]

>  <Interactions>  (1) 
["V-A:LEU:363:CA:3184, V-A:ASN:362:C:3171, V-A:TYR:539:CE1:4874, V-A:TYR:539:CD1:4872, V-A:ASP:366:CB:3211, V-A:PRO:540:CA:4882, V-A:TYR:531:CE2:4792, V-A:TYR:531:CZ:4793, V-B:GLU:543:CD:9879, V-B:PRO:540:N:9855, V-B:PRO:540:CA:9854, V-B:TYR:539:C:9838, V-B:TYR:539:CD2:9845, V-B:TYR:539:CE2:9847, H-B:TYR:539:N:9841, V-B:TYR:539:CG:9843, V-B:MET:535:CE:9806, V-B:TYR:539:CZ:9848, V-B:PRO:540:CB:9856, V-B:TYR:539:CA:9840, V-B:TYR:539:CD1:9844, V-B:TYR:531:CZ:9765, V-B:TYR:531:CE2:9764, V-B:LEU:363:CD1:8159, V-B:ILE:538:CD1:9836, V-A:HIS:456:CE1:4069, V-A:GLU:543:CD:4907, V-B:HIS:456:CE1:9040, V-A:GLU:543:CG:4906, V-A:GLU:543:CB:4905, V-A:GLU:543:C:4901, V-B:TYR:539:CE1:9846, V-B:ASP:366:CB:8182, H-B:TYR:484:OH:9318, V-A:PRO:540:N:4883, V-B:ASP:366:CG:8183, V-B:MET:535:CG:9804, H-A:TYR:539:N:4869, V-A:TYR:539:C:4866, V-B:TYR:484:CE2:9316, V-A:GLU:543:CA:4903, V-B:GLY:454:CA:9019, V-B:ILE:369:CG2:8207, H-B:GLY:454:N:9020, V-B:ILE:369:CB:8206"]

$$$$
2a_Grossjean_2025
     RDKit          3D

 45 46  0  0  0  0  0  0  0  0999 V2000
  124.6310  123.9020   59.8470 C   0  0  0  0  0  0  0  0  0  0  0  0
  124.3200  124.1200   58.3640 C   0  0  0  0  0  0  0  0  0  0  0  0
  124.8350  123.0290   57.6100 O   0  0  0  0  0  0  0  0  0  0  0  0
  125.9230  123.1810   56.8110 C   0  0  0  0  0  0  0  0  0  0  0  0
  125.8730  123.1450   55.5780 O   0  0  0  0  0  0  0  0  0  0  0  0
  127.1910  123.4180   57.5800 C   0  0  0  0  0  0  0  0  0  0  0  0
  127.6510  122.5140   58.5490 C   0  0  0  0  0  0  0  0  0  0  0  0
  128.8300  122.7640   59.2450 C   0  0  0  0  0  0  0  0  0  0  0  0
  129.5680  123.9220   58.9950 C   0  0  0  0  0  0  0  0  0  0  0  0
  130.7350  124.0780   59.7660 N   0  0  0  0  0  0  0  0  0  0  0  0
  131.9840  124.4250   59.3900 C   0  0  0  0  0  0  0  0  0  0  0  0
  132.3460  124.6530   58.2350 O   0  0  0  0  0  0  0  0  0  0  0  0
  133.0100  124.5300   60.5230 C   0  0  0  0  0  0  0  0  0  0  0  0
  133.5590  122.9080   61.1520 S   0  0  0  0  0  0  0  0  0  0  0  0
  132.1410  121.8460   61.4030 C   0  0  0  0  0  0  0  0  0  0  0  0
  131.0480  122.4420   61.9440 N   0  0  0  0  0  0  0  0  0  0  0  0
  129.9430  121.6970   62.1730 C   0  0  0  0  0  0  0  0  0  0  0  0
  128.7720  122.4260   62.8050 C   0  0  0  0  0  0  0  0  0  0  0  0
  129.8760  120.3400   61.8670 C   0  0  0  0  0  0  0  0  0  0  0  0
  130.9910  119.7060   61.2980 C   0  0  0  0  0  0  0  0  0  0  0  0
  130.9000  118.2040   60.9650 C   0  0  0  0  0  0  0  0  0  0  0  0
  131.7660  117.5170   61.7100 F   0  0  0  0  0  0  0  0  0  0  0  0
  129.6670  117.7570   61.2090 F   0  0  0  0  0  0  0  0  0  0  0  0
  131.1750  117.9430   59.6840 F   0  0  0  0  0  0  0  0  0  0  0  0
  132.1570  120.4750   61.0570 C   0  0  0  0  0  0  0  0  0  0  0  0
  133.3520  119.8620   60.4670 C   0  0  0  0  0  0  0  0  0  0  0  0
  134.2950  119.3780   60.0020 N   0  0  0  0  0  0  0  0  0  0  0  0
  129.1190  124.8260   58.0220 C   0  0  0  0  0  0  0  0  0  0  0  0
  127.9420  124.5720   57.3230 C   0  0  0  0  0  0  0  0  0  0  0  0
  123.8828  124.4265   60.4595 H   0  0  0  0  0  0  0  0  0  0  0  0
  124.6013  122.8260   60.0736 H   0  0  0  0  0  0  0  0  0  0  0  0
  125.6324  124.2969   60.0736 H   0  0  0  0  0  0  0  0  0  0  0  0
  123.2310  124.1829   58.2224 H   0  0  0  0  0  0  0  0  0  0  0  0
  124.7867  125.0560   58.0235 H   0  0  0  0  0  0  0  0  0  0  0  0
  127.0755  121.6007   58.7603 H   0  0  0  0  0  0  0  0  0  0  0  0
  129.1828  122.0436   59.9977 H   0  0  0  0  0  0  0  0  0  0  0  0
  130.5920  123.9530   60.7570 H   0  0  0  0  0  0  0  0  0  0  0  0
  133.8891  125.0750   60.1486 H   0  0  0  0  0  0  0  0  0  0  0  0
  132.5215  125.0546   61.3573 H   0  0  0  0  0  0  0  0  0  0  0  0
  128.8557  122.3739   63.9006 H   0  0  0  0  0  0  0  0  0  0  0  0
  128.7803  123.4788   62.4863 H   0  0  0  0  0  0  0  0  0  0  0  0
  127.8310  121.9539   62.4863 H   0  0  0  0  0  0  0  0  0  0  0  0
  128.9571  119.7702   62.0696 H   0  0  0  0  0  0  0  0  0  0  0  0
  129.6975  125.7374   57.8105 H   0  0  0  0  0  0  0  0  0  0  0  0
  127.5979  125.2859   56.5601 H   0  0  0  0  0  0  0  0  0  0  0  0
  1  2  1  0
  2  3  1  0
  3  4  1  0
  4  5  2  0
  4  6  1  0
  6  7  2  0
  7  8  1  0
  8  9  2  0
  9 10  1  0
 10 11  1  0
 11 12  2  0
 11 13  1  0
 13 14  1  0
 14 15  1  0
 15 16  2  0
 16 17  1  0
 17 18  1  0
 17 19  2  0
 19 20  1  0
 20 21  1  0
 21 22  1  0
 21 23  1  0
 21 24  1  0
 20 25  2  0
 25 26  1  0
 26 27  3  0
  9 28  1  0
 28 29  2  0
 29  6  1  0
 25 15  1  0
  1 30  1  0
  1 31  1  0
  1 32  1  0
  2 33  1  0
  2 34  1  0
  7 35  1  0
  8 36  1  0
 10 37  1  0
 13 38  1  0
 13 39  1  0
 18 40  1  0
 18 41  1  0
 18 42  1  0
 19 43  1  0
 28 44  1  0
 29 45  1  0
M  END
>  <Binding energies>  (1) 
[-7.69]

>  <Ligand effiencies>  (1) 
[-0.25633333333333336]

>  <Interactions>  (1) 
["V-A:ASP:366:CG:3212, V-A:ASP:366:CB:3211, V-B:PRO:540:N:9855, V-B:ALA:541:CB:9863, V-B:PRO:540:CA:9854, V-B:ALA:541:CA:9861, V-B:TYR:539:C:9838, V-A:LEU:475:CD2:4258, V-A:PRO:482:CG:4326, V-A:HIS:383:CE1:3393, V-A:ILE:369:CD1:3238, V-B:TYR:539:CD2:9845, V-A:ILE:369:CG2:3236, V-B:TYR:539:CE2:9847, V-B:TYR:539:CB:9842, V-A:SER:385:CA:3406, V-A:SER:385:CB:3408, V-B:TYR:539:CG:9843, V-B:MET:535:CE:9806, H-B:TYR:539:OH:9849, V-B:TYR:539:CZ:9848, V-A:PRO:482:CB:4325, V-B:PRO:540:CB:9856, V-B:LEU:363:CD1:8159, H-B:TYR:531:OH:9766"]

$$$$
2aa_Ghoteimi_2023
     RDKit          3D

 85 90  0  0  0  0  0  0  0  0999 V2000
  129.7990  123.9740   73.1250 C   0  0  0  0  0  0  0  0  0  0  0  0
  130.2280  125.3700   73.5900 C   0  0  0  0  0  0  0  0  0  0  0  0
  129.1910  125.9430   74.3760 O   0  0  0  0  0  0  0  0  0  0  0  0
  128.3800  126.9100   73.8720 C   0  0  0  0  0  0  0  0  0  0  0  0
  127.6510  127.6190   74.5730 O   0  0  0  0  0  0  0  0  0  0  0  0
  128.4700  127.0410   72.3790 C   0  0  0  0  0  0  0  0  0  0  0  0
  127.6400  126.3060   71.5200 C   0  0  0  0  0  0  0  0  0  0  0  0
  127.7440  126.4530   70.1400 C   0  0  0  0  0  0  0  0  0  0  0  0
  128.6840  127.3270   69.5900 C   0  0  0  0  0  0  0  0  0  0  0  0
  128.7020  127.3990   68.1840 N   0  0  0  0  0  0  0  0  0  0  0  0
  128.7290  128.4800   67.3740 C   0  0  0  0  0  0  0  0  0  0  0  0
  128.7740  129.6510   67.7560 O   0  0  0  0  0  0  0  0  0  0  0  0
  128.7260  128.1540   65.8740 C   0  0  0  0  0  0  0  0  0  0  0  0
  130.0480  127.7960   65.4570 O   0  0  0  0  0  0  0  0  0  0  0  0
  130.2700  127.3330   64.1670 C   0  0  0  0  0  0  0  0  0  0  0  0
  130.3570  128.2510   63.1640 N   0  0  0  0  0  0  0  0  0  0  0  0
  130.5770  127.8330   61.8920 C   0  0  0  0  0  0  0  0  0  0  0  0
  130.6550  128.8960   60.8420 C   0  0  0  0  0  0  0  0  0  0  0  0
  130.5600  128.5690   59.4860 C   0  0  0  0  0  0  0  0  0  0  0  0
  130.6250  129.5560   58.5050 C   0  0  0  0  0  0  0  0  0  0  0  0
  130.7740  130.9090   58.8460 C   0  0  0  0  0  0  0  0  0  0  0  0
  130.8540  131.9120   57.8720 N   0  0  0  0  0  0  0  0  0  0  0  0
  132.1430  132.2820   57.2530 C   0  0  0  0  0  0  0  0  0  0  0  0
  132.1030  133.6190   56.4830 C   0  0  0  0  0  0  0  0  0  0  0  0
  131.0650  133.5920   55.5170 O   0  0  0  0  0  0  0  0  0  0  0  0
  129.7960  133.4020   56.1230 C   0  0  0  0  0  0  0  0  0  0  0  0
  129.7680  132.0580   56.8820 C   0  0  0  0  0  0  0  0  0  0  0  0
  130.8910  131.2290   60.2060 C   0  0  0  0  0  0  0  0  0  0  0  0
  130.8280  130.2420   61.1860 C   0  0  0  0  0  0  0  0  0  0  0  0
  130.7010  126.4740   61.5890 C   0  0  0  0  0  0  0  0  0  0  0  0
  130.6050  125.5090   62.6000 C   0  0  0  0  0  0  0  0  0  0  0  0
  130.7200  124.0710   62.2120 C   0  0  0  0  0  0  0  0  0  0  0  0
  129.5900  123.2490   62.2030 C   0  0  0  0  0  0  0  0  0  0  0  0
  129.6940  121.9040   61.8620 C   0  0  0  0  0  0  0  0  0  0  0  0
  130.9350  121.3370   61.5320 C   0  0  0  0  0  0  0  0  0  0  0  0
  131.0620  119.9890   61.1820 N   0  0  0  0  0  0  0  0  0  0  0  0
  130.2320  118.9490   61.8180 C   0  0  0  0  0  0  0  0  0  0  0  0
  130.2560  117.6000   61.0680 C   0  0  0  0  0  0  0  0  0  0  0  0
  131.5960  117.1550   60.9140 O   0  0  0  0  0  0  0  0  0  0  0  0
  132.3730  118.0830   60.1740 C   0  0  0  0  0  0  0  0  0  0  0  0
  132.4050  119.4440   60.9000 C   0  0  0  0  0  0  0  0  0  0  0  0
  132.0620  122.1700   61.5360 C   0  0  0  0  0  0  0  0  0  0  0  0
  131.9580  123.5150   61.8770 C   0  0  0  0  0  0  0  0  0  0  0  0
  130.3980  125.9530   63.9270 C   0  0  0  0  0  0  0  0  0  0  0  0
  130.3350  125.0200   65.0540 C   0  0  0  0  0  0  0  0  0  0  0  0
  130.2860  124.2820   65.9440 N   0  0  0  0  0  0  0  0  0  0  0  0
  129.5130  128.0700   70.4430 C   0  0  0  0  0  0  0  0  0  0  0  0
  129.4040  127.9240   71.8230 C   0  0  0  0  0  0  0  0  0  0  0  0
  129.6039  123.3393   74.0020 H   0  0  0  0  0  0  0  0  0  0  0  0
  128.8841  124.0542   72.5197 H   0  0  0  0  0  0  0  0  0  0  0  0
  130.6011  123.5266   72.5197 H   0  0  0  0  0  0  0  0  0  0  0  0
  131.1448  125.2909   74.1927 H   0  0  0  0  0  0  0  0  0  0  0  0
  130.4211  126.0069   72.7141 H   0  0  0  0  0  0  0  0  0  0  0  0
  126.9011  125.6079   71.9403 H   0  0  0  0  0  0  0  0  0  0  0  0
  127.0811  125.8767   69.4779 H   0  0  0  0  0  0  0  0  0  0  0  0
  128.7380  126.5000   67.7250 H   0  0  0  0  0  0  0  0  0  0  0  0
  128.0421  127.3138   65.6835 H   0  0  0  0  0  0  0  0  0  0  0  0
  128.3916  129.0368   65.3093 H   0  0  0  0  0  0  0  0  0  0  0  0
  130.4321  127.5175   59.1895 H   0  0  0  0  0  0  0  0  0  0  0  0
  130.5584  129.2698   57.4450 H   0  0  0  0  0  0  0  0  0  0  0  0
  132.8992  132.3620   58.0479 H   0  0  0  0  0  0  0  0  0  0  0  0
  132.3837  131.4974   56.5205 H   0  0  0  0  0  0  0  0  0  0  0  0
  131.9208  134.4414   57.1904 H   0  0  0  0  0  0  0  0  0  0  0  0
  133.0661  133.7711   55.9737 H   0  0  0  0  0  0  0  0  0  0  0  0
  129.6032  134.2230   56.8292 H   0  0  0  0  0  0  0  0  0  0  0  0
  129.0214  133.3913   55.3420 H   0  0  0  0  0  0  0  0  0  0  0  0
  128.8054  131.9764   57.4080 H   0  0  0  0  0  0  0  0  0  0  0  0
  129.9064  131.2636   56.1338 H   0  0  0  0  0  0  0  0  0  0  0  0
  131.0351  132.2780   60.5039 H   0  0  0  0  0  0  0  0  0  0  0  0
  130.9154  130.5238   62.2457 H   0  0  0  0  0  0  0  0  0  0  0  0
  130.8752  126.1601   60.5492 H   0  0  0  0  0  0  0  0  0  0  0  0
  128.6086  123.6693   62.4681 H   0  0  0  0  0  0  0  0  0  0  0  0
  128.7909  121.2761   61.8509 H   0  0  0  0  0  0  0  0  0  0  0  0
  130.6017  118.7855   62.8410 H   0  0  0  0  0  0  0  0  0  0  0  0
  129.1929  119.3096   61.8033 H   0  0  0  0  0  0  0  0  0  0  0  0
  129.6877  116.8535   61.6423 H   0  0  0  0  0  0  0  0  0  0  0  0
  129.8018  117.7304   60.0747 H   0  0  0  0  0  0  0  0  0  0  0  0
  133.3992  117.6999   60.0733 H   0  0  0  0  0  0  0  0  0  0  0  0
  131.9243  118.2159   59.1785 H   0  0  0  0  0  0  0  0  0  0  0  0
  132.9377  119.3180   61.8541 H   0  0  0  0  0  0  0  0  0  0  0  0
  132.9115  120.1567   60.2325 H   0  0  0  0  0  0  0  0  0  0  0  0
  133.0438  121.7542   61.2654 H   0  0  0  0  0  0  0  0  0  0  0  0
  132.8585  124.1467   61.8830 H   0  0  0  0  0  0  0  0  0  0  0  0
  130.2502  128.7689   70.0210 H   0  0  0  0  0  0  0  0  0  0  0  0
  130.0594  128.5092   72.4848 H   0  0  0  0  0  0  0  0  0  0  0  0
  1  2  1  0
  2  3  1  0
  3  4  1  0
  4  5  2  0
  4  6  1  0
  6  7  2  0
  7  8  1  0
  8  9  2  0
  9 10  1  0
 10 11  1  0
 11 12  2  0
 11 13  1  0
 13 14  1  0
 14 15  1  0
 15 16  2  0
 16 17  1  0
 17 18  1  0
 18 19  2  0
 19 20  1  0
 20 21  2  0
 21 22  1  0
 22 23  1  0
 23 24  1  0
 24 25  1  0
 25 26  1  0
 26 27  1  0
 21 28  1  0
 28 29  2  0
 17 30  2  0
 30 31  1  0
 31 32  1  0
 32 33  2  0
 33 34  1  0
 34 35  2  0
 35 36  1  0
 36 37  1  0
 37 38  1  0
 38 39  1  0
 39 40  1  0
 40 41  1  0
 35 42  1  0
 42 43  2  0
 31 44  2  0
 44 45  1  0
 45 46  3  0
  9 47  1  0
 47 48  2  0
 48  6  1  0
 44 15  1  0
 29 18  1  0
 43 32  1  0
 27 22  1  0
 41 36  1  0
  1 49  1  0
  1 50  1  0
  1 51  1  0
  2 52  1  0
  2 53  1  0
  7 54  1  0
  8 55  1  0
 10 56  1  0
 13 57  1  0
 13 58  1  0
 19 59  1  0
 20 60  1  0
 23 61  1  0
 23 62  1  0
 24 63  1  0
 24 64  1  0
 26 65  1  0
 26 66  1  0
 27 67  1  0
 27 68  1  0
 28 69  1  0
 29 70  1  0
 30 71  1  0
 33 72  1  0
 34 73  1  0
 37 74  1  0
 37 75  1  0
 38 76  1  0
 38 77  1  0
 40 78  1  0
 40 79  1  0
 41 80  1  0
 41 81  1  0
 42 82  1  0
 43 83  1  0
 47 84  1  0
 48 85  1  0
M  END
>  <Binding energies>  (1) 
[-10.89]

>  <Ligand effiencies>  (1) 
[-0.22224489795918367]

>  <Interactions>  (1) 
["V-A:TYR:539:CG:4871, V-A:TYR:539:CZ:4876, V-A:TYR:539:CE1:4874, V-A:TYR:539:CD1:4872, V-A:TYR:531:CE2:4792, V-A:TYR:531:CZ:4793, V-A:ILE:538:CA:4859, V-A:LEU:363:CD1:3188, V-B:GLU:543:CD:9879, H-A:TYR:484:OH:4347, V-B:ALA:541:CB:9863, H-B:GLU:543:OE2:9881, V-A:LEU:475:CD2:4258, V-A:PRO:482:CG:4326, V-A:HIS:383:CE1:3393, V-B:TYR:539:CD2:9845, V-A:PRO:482:CB:4325, H-A:HIS:383:ND1:3390, V-A:HIS:456:CE1:4069, V-B:GLU:543:CB:9877, V-A:GLU:543:CD:4907, V-B:HIS:456:CE1:9040, V-B:LYS:547:CE:9921, H-B:LYS:547:NZ:9922, V-A:HIS:456:CD2:4067, V-B:GLU:543:C:9873, V-A:ILE:538:CB:4861, H-A:ARG:545:NH2:4927, V-B:GLY:544:C:9883, V-A:PRO:540:N:4883, V-A:PRO:540:CD:4886, H-A:TYR:539:N:4869, V-A:HIS:456:CG:4065"]

$$$$
2b_Ghoteimi_2023
     RDKit          3D

 72 77  0  0  0  0  0  0  0  0999 V2000
  125.8710  132.3750   65.6160 N   0  0  0  0  0  0  0  0  0  0  0  0
  125.9350  131.4860   64.8780 C   0  0  0  0  0  0  0  0  0  0  0  0
  126.0170  130.3570   63.9470 C   0  0  0  0  0  0  0  0  0  0  0  0
  126.4780  129.0920   64.3900 C   0  0  0  0  0  0  0  0  0  0  0  0
  126.9040  128.8070   65.7920 C   0  0  0  0  0  0  0  0  0  0  0  0
  128.2600  128.7340   66.1160 C   0  0  0  0  0  0  0  0  0  0  0  0
  128.6620  128.4680   67.4220 C   0  0  0  0  0  0  0  0  0  0  0  0
  127.7170  128.2490   68.4370 C   0  0  0  0  0  0  0  0  0  0  0  0
  128.0950  127.9930   69.7560 N   0  0  0  0  0  0  0  0  0  0  0  0
  127.7000  126.7160   70.3830 C   0  0  0  0  0  0  0  0  0  0  0  0
  127.8420  126.7200   71.9200 C   0  0  0  0  0  0  0  0  0  0  0  0
  129.1640  127.0810   72.2870 O   0  0  0  0  0  0  0  0  0  0  0  0
  129.5060  128.3740   71.8120 C   0  0  0  0  0  0  0  0  0  0  0  0
  129.4150  128.4080   70.2720 C   0  0  0  0  0  0  0  0  0  0  0  0
  126.3580  128.3210   68.1010 C   0  0  0  0  0  0  0  0  0  0  0  0
  125.9560  128.5910   66.7970 C   0  0  0  0  0  0  0  0  0  0  0  0
  126.5350  128.0420   63.4650 C   0  0  0  0  0  0  0  0  0  0  0  0
  126.1140  128.2370   62.1460 C   0  0  0  0  0  0  0  0  0  0  0  0
  126.1260  127.1410   61.1280 C   0  0  0  0  0  0  0  0  0  0  0  0
  126.1190  127.4370   59.7610 C   0  0  0  0  0  0  0  0  0  0  0  0
  126.1460  126.4220   58.8080 C   0  0  0  0  0  0  0  0  0  0  0  0
  126.1690  125.0710   59.1870 C   0  0  0  0  0  0  0  0  0  0  0  0
  126.2270  124.0410   58.2410 N   0  0  0  0  0  0  0  0  0  0  0  0
  125.0560  123.7610   57.3850 C   0  0  0  0  0  0  0  0  0  0  0  0
  125.1170  122.3850   56.6860 C   0  0  0  0  0  0  0  0  0  0  0  0
  126.3250  122.2670   55.9500 O   0  0  0  0  0  0  0  0  0  0  0  0
  127.4600  122.3720   56.7940 C   0  0  0  0  0  0  0  0  0  0  0  0
  127.4690  123.7450   57.5000 C   0  0  0  0  0  0  0  0  0  0  0  0
  126.1840  124.7790   60.5580 C   0  0  0  0  0  0  0  0  0  0  0  0
  126.1590  125.7940   61.5100 C   0  0  0  0  0  0  0  0  0  0  0  0
  125.6720  129.4490   61.7250 N   0  0  0  0  0  0  0  0  0  0  0  0
  125.6390  130.4880   62.5920 C   0  0  0  0  0  0  0  0  0  0  0  0
  125.0380  132.0000   61.8700 S   0  0  0  0  0  0  0  0  0  0  0  0
  126.3440  132.6460   60.7820 C   0  0  0  0  0  0  0  0  0  0  0  0
  127.6940  132.7370   61.4960 C   0  0  0  0  0  0  0  0  0  0  0  0
  127.7480  133.2240   62.6260 O   0  0  0  0  0  0  0  0  0  0  0  0
  128.7520  132.2650   60.8010 N   0  0  0  0  0  0  0  0  0  0  0  0
  130.0760  132.2170   61.2130 C   0  0  0  0  0  0  0  0  0  0  0  0
  131.0730  131.5580   60.4950 C   0  0  0  0  0  0  0  0  0  0  0  0
  132.2230  131.7430   61.2260 C   0  0  0  0  0  0  0  0  0  0  0  0
  131.9340  132.4760   62.3270 O   0  0  0  0  0  0  0  0  0  0  0  0
  130.5690  132.7720   62.3070 N   0  0  0  0  0  0  0  0  0  0  0  0
  129.0170  128.8879   65.3329 H   0  0  0  0  0  0  0  0  0  0  0  0
  129.7348  128.4289   67.6620 H   0  0  0  0  0  0  0  0  0  0  0  0
  126.6488  126.5135   70.1302 H   0  0  0  0  0  0  0  0  0  0  0  0
  128.3768  125.9401   69.9956 H   0  0  0  0  0  0  0  0  0  0  0  0
  127.1346  127.4451   72.3487 H   0  0  0  0  0  0  0  0  0  0  0  0
  127.6244  125.7125   72.3041 H   0  0  0  0  0  0  0  0  0  0  0  0
  128.8105  129.1139   72.2350 H   0  0  0  0  0  0  0  0  0  0  0  0
  130.5347  128.6128   72.1197 H   0  0  0  0  0  0  0  0  0  0  0  0
  129.6154  129.4351   69.9329 H   0  0  0  0  0  0  0  0  0  0  0  0
  130.1557  127.6923   69.8858 H   0  0  0  0  0  0  0  0  0  0  0  0
  125.5981  128.1616   68.8802 H   0  0  0  0  0  0  0  0  0  0  0  0
  124.8840  128.6349   66.5545 H   0  0  0  0  0  0  0  0  0  0  0  0
  126.9133  127.0577   63.7781 H   0  0  0  0  0  0  0  0  0  0  0  0
  126.0918  128.4869   59.4339 H   0  0  0  0  0  0  0  0  0  0  0  0
  126.1494  126.6837   57.7396 H   0  0  0  0  0  0  0  0  0  0  0  0
  124.1519  123.7936   58.0107 H   0  0  0  0  0  0  0  0  0  0  0  0
  125.0443  124.5250   56.5937 H   0  0  0  0  0  0  0  0  0  0  0  0
  125.0732  121.5891   57.4441 H   0  0  0  0  0  0  0  0  0  0  0  0
  124.2643  122.2919   55.9974 H   0  0  0  0  0  0  0  0  0  0  0  0
  127.4264  121.5739   57.5503 H   0  0  0  0  0  0  0  0  0  0  0  0
  128.3716  122.2728   56.1865 H   0  0  0  0  0  0  0  0  0  0  0  0
  128.3094  123.7649   58.2094 H   0  0  0  0  0  0  0  0  0  0  0  0
  127.5637  124.5091   56.7144 H   0  0  0  0  0  0  0  0  0  0  0  0
  126.2161  123.7298   60.8870 H   0  0  0  0  0  0  0  0  0  0  0  0
  126.1653  125.5342   62.5789 H   0  0  0  0  0  0  0  0  0  0  0  0
  126.4458  131.9776   59.9143 H   0  0  0  0  0  0  0  0  0  0  0  0
  126.0555  133.6611   60.4716 H   0  0  0  0  0  0  0  0  0  0  0  0
  128.5690  131.8760   59.8880 H   0  0  0  0  0  0  0  0  0  0  0  0
  130.9634  131.0087   59.5483 H   0  0  0  0  0  0  0  0  0  0  0  0
  133.2180  131.3573   60.9590 H   0  0  0  0  0  0  0  0  0  0  0  0
  1  2  3  0
  2  3  1  0
  3  4  2  0
  4  5  1  0
  5  6  2  0
  6  7  1  0
  7  8  2  0
  8  9  1  0
  9 10  1  0
 10 11  1  0
 11 12  1  0
 12 13  1  0
 13 14  1  0
  8 15  1  0
 15 16  2  0
  4 17  1  0
 17 18  2  0
 18 19  1  0
 19 20  2  0
 20 21  1  0
 21 22  2  0
 22 23  1  0
 23 24  1  0
 24 25  1  0
 25 26  1  0
 26 27  1  0
 27 28  1  0
 22 29  1  0
 29 30  2  0
 18 31  1  0
 31 32  2  0
 32 33  1  0
 33 34  1  0
 34 35  1  0
 35 36  2  0
 35 37  1  0
 37 38  1  0
 38 39  1  0
 39 40  2  0
 40 41  1  0
 41 42  1  0
 32  3  1  0
 42 38  2  0
 16  5  1  0
 30 19  1  0
 14  9  1  0
 28 23  1  0
  6 43  1  0
  7 44  1  0
 10 45  1  0
 10 46  1  0
 11 47  1  0
 11 48  1  0
 13 49  1  0
 13 50  1  0
 14 51  1  0
 14 52  1  0
 15 53  1  0
 16 54  1  0
 17 55  1  0
 20 56  1  0
 21 57  1  0
 24 58  1  0
 24 59  1  0
 25 60  1  0
 25 61  1  0
 27 62  1  0
 27 63  1  0
 28 64  1  0
 28 65  1  0
 29 66  1  0
 30 67  1  0
 34 68  1  0
 34 69  1  0
 37 70  1  0
 39 71  1  0
 40 72  1  0
M  END
>  <Binding energies>  (1) 
[-9.96]

>  <Ligand effiencies>  (1) 
[-0.2316279069767442]

>  <Interactions>  (1) 
["H-A:ALA:541:N:4890, V-A:PRO:540:CB:4884, V-A:PRO:540:CA:4882, V-B:GLU:543:CD:9879, V-B:PRO:540:N:9855, V-B:TYR:539:C:9838, V-B:TYR:539:CD2:9845, H-B:TYR:539:N:9841, V-B:TYR:539:CG:9843, V-B:MET:535:CE:9806, V-B:PRO:540:CB:9856, V-B:TYR:539:CA:9840, V-B:TYR:539:CD1:9844, V-B:TYR:531:CZ:9765, V-B:PRO:540:CD:9858, V-B:TYR:531:CE2:9764, V-B:LEU:363:CD1:8159, V-A:HIS:456:CE1:4069, V-B:ILE:538:CG2:9834, V-B:GLU:543:CB:9877, V-A:GLU:543:CD:4907, V-B:HIS:456:CE1:9040, V-B:GLU:543:C:9873, V-B:TYR:539:CE1:9846, H-B:TYR:484:OH:9318, V-B:ASP:366:CG:8183, V-B:PRO:540:CG:9857"]

$$$$
2b_Grossjean_2025
     RDKit          3D

 42 43  0  0  0  0  0  0  0  0999 V2000
  124.6570  123.9670   58.0730 C   0  0  0  0  0  0  0  0  0  0  0  0
  125.6500  124.0000   57.0570 O   0  0  0  0  0  0  0  0  0  0  0  0
  126.6060  123.0390   56.9820 C   0  0  0  0  0  0  0  0  0  0  0  0
  126.4770  122.0000   56.3280 O   0  0  0  0  0  0  0  0  0  0  0  0
  127.8370  123.3650   57.7790 C   0  0  0  0  0  0  0  0  0  0  0  0
  128.2290  122.5960   58.8850 C   0  0  0  0  0  0  0  0  0  0  0  0
  129.3750  122.9260   59.6030 C   0  0  0  0  0  0  0  0  0  0  0  0
  130.1530  124.0220   59.2310 C   0  0  0  0  0  0  0  0  0  0  0  0
  131.2860  124.2690   60.0290 N   0  0  0  0  0  0  0  0  0  0  0  0
  132.5960  124.2260   59.7040 C   0  0  0  0  0  0  0  0  0  0  0  0
  133.0460  123.9210   58.5980 O   0  0  0  0  0  0  0  0  0  0  0  0
  133.5620  124.5740   60.8400 C   0  0  0  0  0  0  0  0  0  0  0  0
  133.0620  123.8740   62.4470 S   0  0  0  0  0  0  0  0  0  0  0  0
  131.8370  122.5950   62.2010 C   0  0  0  0  0  0  0  0  0  0  0  0
  130.5610  122.9320   62.5170 N   0  0  0  0  0  0  0  0  0  0  0  0
  129.5840  122.0120   62.3610 C   0  0  0  0  0  0  0  0  0  0  0  0
  128.1890  122.4630   62.7480 C   0  0  0  0  0  0  0  0  0  0  0  0
  129.8300  120.7300   61.8780 C   0  0  0  0  0  0  0  0  0  0  0  0
  131.1400  120.3610   61.5380 C   0  0  0  0  0  0  0  0  0  0  0  0
  131.3950  118.9400   61.0010 C   0  0  0  0  0  0  0  0  0  0  0  0
  132.0670  119.0000   59.8510 F   0  0  0  0  0  0  0  0  0  0  0  0
  132.1090  118.2380   61.8830 F   0  0  0  0  0  0  0  0  0  0  0  0
  130.2670  118.2640   60.7720 F   0  0  0  0  0  0  0  0  0  0  0  0
  132.1770  121.3150   61.7030 C   0  0  0  0  0  0  0  0  0  0  0  0
  133.5650  120.9820   61.3700 C   0  0  0  0  0  0  0  0  0  0  0  0
  134.6610  120.7190   61.1050 N   0  0  0  0  0  0  0  0  0  0  0  0
  129.7640  124.8000   58.1310 C   0  0  0  0  0  0  0  0  0  0  0  0
  128.6170  124.4700   57.4140 C   0  0  0  0  0  0  0  0  0  0  0  0
  125.1419  123.9831   59.0602 H   0  0  0  0  0  0  0  0  0  0  0  0
  124.0004  124.8438   57.9726 H   0  0  0  0  0  0  0  0  0  0  0  0
  124.0601  123.0485   57.9726 H   0  0  0  0  0  0  0  0  0  0  0  0
  127.6267  121.7264   59.1868 H   0  0  0  0  0  0  0  0  0  0  0  0
  129.6693  122.3174   60.4708 H   0  0  0  0  0  0  0  0  0  0  0  0
  131.0760  124.4590   60.9980 H   0  0  0  0  0  0  0  0  0  0  0  0
  134.5582  124.1843   60.5836 H   0  0  0  0  0  0  0  0  0  0  0  0
  133.5615  125.6689   60.9458 H   0  0  0  0  0  0  0  0  0  0  0  0
  128.1035  122.4906   63.8443 H   0  0  0  0  0  0  0  0  0  0  0  0
  128.0020  123.4674   62.3402 H   0  0  0  0  0  0  0  0  0  0  0  0
  127.4494  121.7582   62.3402 H   0  0  0  0  0  0  0  0  0  0  0  0
  129.0042  120.0123   61.7639 H   0  0  0  0  0  0  0  0  0  0  0  0
  130.3656  125.6718   57.8343 H   0  0  0  0  0  0  0  0  0  0  0  0
  128.3198  125.0840   56.5510 H   0  0  0  0  0  0  0  0  0  0  0  0
  1  2  1  0
  2  3  1  0
  3  4  2  0
  3  5  1  0
  5  6  2  0
  6  7  1  0
  7  8  2  0
  8  9  1  0
  9 10  1  0
 10 11  2  0
 10 12  1  0
 12 13  1  0
 13 14  1  0
 14 15  2  0
 15 16  1  0
 16 17  1  0
 16 18  2  0
 18 19  1  0
 19 20  1  0
 20 21  1  0
 20 22  1  0
 20 23  1  0
 19 24  2  0
 24 25  1  0
 25 26  3  0
  8 27  1  0
 27 28  2  0
 28  5  1  0
 24 14  1  0
  1 29  1  0
  1 30  1  0
  1 31  1  0
  6 32  1  0
  7 33  1  0
  9 34  1  0
 12 35  1  0
 12 36  1  0
 17 37  1  0
 17 38  1  0
 17 39  1  0
 18 40  1  0
 27 41  1  0
 28 42  1  0
M  END
>  <Binding energies>  (1) 
[-6.76]

>  <Ligand effiencies>  (1) 
[-0.23310344827586207]

>  <Interactions>  (1) 
["V-A:ASP:366:CG:3212, V-A:ASP:366:CB:3211, V-B:PRO:540:N:9855, V-B:ALA:541:CB:9863, V-B:PRO:540:CA:9854, V-B:ALA:541:CA:9861, V-B:TYR:539:C:9838, V-A:LEU:475:CD2:4258, V-A:ILE:369:CD1:3238, V-B:TYR:539:CD2:9845, V-A:ILE:369:CG2:3236, V-B:TYR:539:CE2:9847, V-B:TYR:539:CB:9842, V-A:SER:385:CA:3406, V-A:SER:385:CB:3408, H-B:TYR:539:N:9841, V-B:TYR:539:CG:9843, V-B:MET:535:CE:9806, H-B:TYR:539:OH:9849, V-B:TYR:539:CZ:9848, V-B:PRO:540:CB:9856, V-B:LEU:363:CD1:8159, H-B:TYR:531:OH:9766"]

$$$$
2c_Ghoteimi_2023
     RDKit          3D

 72 77  0  0  0  0  0  0  0  0999 V2000
  126.9140  132.6140   65.4460 N   0  0  0  0  0  0  0  0  0  0  0  0
  126.8710  131.7200   64.7130 C   0  0  0  0  0  0  0  0  0  0  0  0
  126.8160  130.5830   63.7880 C   0  0  0  0  0  0  0  0  0  0  0  0
  127.0560  129.2650   64.2510 C   0  0  0  0  0  0  0  0  0  0  0  0
  127.3760  128.9270   65.6700 C   0  0  0  0  0  0  0  0  0  0  0  0
  128.7040  128.7590   66.0690 C   0  0  0  0  0  0  0  0  0  0  0  0
  129.0120  128.4480   67.3910 C   0  0  0  0  0  0  0  0  0  0  0  0
  127.9990  128.2820   68.3490 C   0  0  0  0  0  0  0  0  0  0  0  0
  128.2860  127.9910   69.6840 N   0  0  0  0  0  0  0  0  0  0  0  0
  127.9220  126.6670   70.2290 C   0  0  0  0  0  0  0  0  0  0  0  0
  127.9340  126.6190   71.7720 C   0  0  0  0  0  0  0  0  0  0  0  0
  129.1990  127.0380   72.2610 O   0  0  0  0  0  0  0  0  0  0  0  0
  129.5020  128.3660   71.8640 C   0  0  0  0  0  0  0  0  0  0  0  0
  129.5300  128.4610   70.3240 C   0  0  0  0  0  0  0  0  0  0  0  0
  126.6690  128.4490   67.9370 C   0  0  0  0  0  0  0  0  0  0  0  0
  126.3620  128.7620   66.6160 C   0  0  0  0  0  0  0  0  0  0  0  0
  126.9880  128.2130   63.3290 C   0  0  0  0  0  0  0  0  0  0  0  0
  126.6660  128.4620   61.9910 C   0  0  0  0  0  0  0  0  0  0  0  0
  126.5650  127.3720   60.9730 C   0  0  0  0  0  0  0  0  0  0  0  0
  126.5520  127.6700   59.6070 C   0  0  0  0  0  0  0  0  0  0  0  0
  126.4630  126.6590   58.6530 C   0  0  0  0  0  0  0  0  0  0  0  0
  126.3730  125.3100   59.0320 C   0  0  0  0  0  0  0  0  0  0  0  0
  126.3090  124.2810   58.0870 N   0  0  0  0  0  0  0  0  0  0  0  0
  127.4100  123.3010   57.9910 C   0  0  0  0  0  0  0  0  0  0  0  0
  127.3960  122.4800   56.6840 C   0  0  0  0  0  0  0  0  0  0  0  0
  126.1400  121.8430   56.5240 O   0  0  0  0  0  0  0  0  0  0  0  0
  125.0840  122.7880   56.4520 C   0  0  0  0  0  0  0  0  0  0  0  0
  125.0300  123.6230   57.7490 C   0  0  0  0  0  0  0  0  0  0  0  0
  126.4000  125.0160   60.4030 C   0  0  0  0  0  0  0  0  0  0  0  0
  126.4900  126.0270   61.3560 C   0  0  0  0  0  0  0  0  0  0  0  0
  126.4350  129.7250   61.5510 N   0  0  0  0  0  0  0  0  0  0  0  0
  126.5250  130.7630   62.4170 C   0  0  0  0  0  0  0  0  0  0  0  0
  126.2030  132.3440   61.6690 S   0  0  0  0  0  0  0  0  0  0  0  0
  127.0910  132.3880   60.0830 C   0  0  0  0  0  0  0  0  0  0  0  0
  128.5070  131.8210   60.2020 C   0  0  0  0  0  0  0  0  0  0  0  0
  128.7330  130.6730   59.8160 O   0  0  0  0  0  0  0  0  0  0  0  0
  129.4240  132.6520   60.7430 N   0  0  0  0  0  0  0  0  0  0  0  0
  130.7700  132.3850   60.9420 C   0  0  0  0  0  0  0  0  0  0  0  0
  131.4590  132.4950   62.0580 N   0  0  0  0  0  0  0  0  0  0  0  0
  132.7190  132.1510   61.8850 C   0  0  0  0  0  0  0  0  0  0  0  0
  133.0770  131.7490   60.6020 C   0  0  0  0  0  0  0  0  0  0  0  0
  131.6780  131.8310   59.5730 S   0  0  0  0  0  0  0  0  0  0  0  0
  129.5133  128.8733   65.3328 H   0  0  0  0  0  0  0  0  0  0  0  0
  130.0643  128.3307   67.6891 H   0  0  0  0  0  0  0  0  0  0  0  0
  126.9109  126.4112   69.8793 H   0  0  0  0  0  0  0  0  0  0  0  0
  128.6764  125.9494   69.8743 H   0  0  0  0  0  0  0  0  0  0  0  0
  127.1527  127.2872   72.1633 H   0  0  0  0  0  0  0  0  0  0  0  0
  127.7427  125.5874   72.1026 H   0  0  0  0  0  0  0  0  0  0  0  0
  128.7342  129.0484   72.2575 H   0  0  0  0  0  0  0  0  0  0  0  0
  130.4884  128.6465   72.2619 H   0  0  0  0  0  0  0  0  0  0  0  0
  129.6911  129.5121   70.0426 H   0  0  0  0  0  0  0  0  0  0  0  0
  130.3421  127.8070   69.9735 H   0  0  0  0  0  0  0  0  0  0  0  0
  125.8562  128.3309   68.6687 H   0  0  0  0  0  0  0  0  0  0  0  0
  125.3108  128.8805   66.3143 H   0  0  0  0  0  0  0  0  0  0  0  0
  127.1893  127.1834   63.6596 H   0  0  0  0  0  0  0  0  0  0  0  0
  126.6130  128.7187   59.2808 H   0  0  0  0  0  0  0  0  0  0  0  0
  126.4632  126.9218   57.5849 H   0  0  0  0  0  0  0  0  0  0  0  0
  128.3648  123.8441   58.0500 H   0  0  0  0  0  0  0  0  0  0  0  0
  127.2808  122.5893   58.8197 H   0  0  0  0  0  0  0  0  0  0  0  0
  127.5754  123.1507   55.8308 H   0  0  0  0  0  0  0  0  0  0  0  0
  128.1851  121.7150   56.7302 H   0  0  0  0  0  0  0  0  0  0  0  0
  125.2523  123.4571   55.5953 H   0  0  0  0  0  0  0  0  0  0  0  0
  124.1306  122.2536   56.3279 H   0  0  0  0  0  0  0  0  0  0  0  0
  124.2608  124.4002   57.6296 H   0  0  0  0  0  0  0  0  0  0  0  0
  124.8006  122.9270   58.5694 H   0  0  0  0  0  0  0  0  0  0  0  0
  126.3491  123.9674   60.7314 H   0  0  0  0  0  0  0  0  0  0  0  0
  126.5024  125.7657   62.4245 H   0  0  0  0  0  0  0  0  0  0  0  0
  126.5312  131.7932   59.3462 H   0  0  0  0  0  0  0  0  0  0  0  0
  127.1716  133.4389   59.7682 H   0  0  0  0  0  0  0  0  0  0  0  0
  129.1160  133.5760   61.0120 H   0  0  0  0  0  0  0  0  0  0  0  0
  133.4473  132.1800   62.7089 H   0  0  0  0  0  0  0  0  0  0  0  0
  134.0825  131.4308   60.2893 H   0  0  0  0  0  0  0  0  0  0  0  0
  1  2  3  0
  2  3  1  0
  3  4  2  0
  4  5  1  0
  5  6  2  0
  6  7  1  0
  7  8  2  0
  8  9  1  0
  9 10  1  0
 10 11  1  0
 11 12  1  0
 12 13  1  0
 13 14  1  0
  8 15  1  0
 15 16  2  0
  4 17  1  0
 17 18  2  0
 18 19  1  0
 19 20  2  0
 20 21  1  0
 21 22  2  0
 22 23  1  0
 23 24  1  0
 24 25  1  0
 25 26  1  0
 26 27  1  0
 27 28  1  0
 22 29  1  0
 29 30  2  0
 18 31  1  0
 31 32  2  0
 32 33  1  0
 33 34  1  0
 34 35  1  0
 35 36  2  0
 35 37  1  0
 37 38  1  0
 38 39  2  0
 39 40  1  0
 40 41  2  0
 41 42  1  0
 32  3  1  0
 42 38  1  0
 16  5  1  0
 30 19  1  0
 14  9  1  0
 28 23  1  0
  6 43  1  0
  7 44  1  0
 10 45  1  0
 10 46  1  0
 11 47  1  0
 11 48  1  0
 13 49  1  0
 13 50  1  0
 14 51  1  0
 14 52  1  0
 15 53  1  0
 16 54  1  0
 17 55  1  0
 20 56  1  0
 21 57  1  0
 24 58  1  0
 24 59  1  0
 25 60  1  0
 25 61  1  0
 27 62  1  0
 27 63  1  0
 28 64  1  0
 28 65  1  0
 29 66  1  0
 30 67  1  0
 34 68  1  0
 34 69  1  0
 37 70  1  0
 40 71  1  0
 41 72  1  0
M  END
>  <Binding energies>  (1) 
[-9.61]

>  <Ligand effiencies>  (1) 
[-0.22348837209302325]

>  <Interactions>  (1) 
["H-A:ALA:541:N:4890, V-A:ASN:362:C:3171, V-A:PRO:540:CB:4884, V-A:TYR:539:CE1:4874, V-A:TYR:539:CD1:4872, V-A:PRO:540:CA:4882, V-B:GLU:543:CD:9879, V-B:PRO:540:N:9855, V-B:TYR:539:C:9838, H-B:TYR:539:N:9841, V-B:TYR:539:CG:9843, V-B:MET:535:CE:9806, V-B:PRO:540:CB:9856, V-B:TYR:539:CA:9840, V-B:TYR:539:CD1:9844, V-B:PRO:540:CD:9858, V-B:TYR:531:CE2:9764, V-B:LEU:363:CD1:8159, V-A:HIS:456:CE1:4069, V-B:GLU:543:CB:9877, V-A:GLU:543:CD:4907, V-B:HIS:456:CE1:9040, V-A:GLU:543:CG:4906, V-A:GLU:543:CB:4905, V-B:TYR:539:CE1:9846, H-B:TYR:484:OH:9318, V-A:ASN:362:CB:3175, V-A:PRO:540:C:4880, H-A:TYR:539:O:4867"]

$$$$
2c_Grossjean_2025
     RDKit          3D

 40 41  0  0  0  0  0  0  0  0999 V2000
  124.9670  122.1880   55.6100 C   0  0  0  0  0  0  0  0  0  0  0  0
  126.0440  123.1000   55.7990 O   0  0  0  0  0  0  0  0  0  0  0  0
  126.6850  123.1410   57.0220 C   0  0  0  0  0  0  0  0  0  0  0  0
  125.9580  123.6690   58.0880 C   0  0  0  0  0  0  0  0  0  0  0  0
  126.5200  123.7530   59.3600 C   0  0  0  0  0  0  0  0  0  0  0  0
  127.8340  123.3140   59.5750 C   0  0  0  0  0  0  0  0  0  0  0  0
  128.4790  123.3420   60.8250 N   0  0  0  0  0  0  0  0  0  0  0  0
  127.9380  123.2110   62.0550 C   0  0  0  0  0  0  0  0  0  0  0  0
  126.7320  123.0940   62.2820 O   0  0  0  0  0  0  0  0  0  0  0  0
  128.9460  123.2560   63.2130 C   0  0  0  0  0  0  0  0  0  0  0  0
  129.8810  121.7120   63.5020 S   0  0  0  0  0  0  0  0  0  0  0  0
  131.1780  121.5650   62.2800 C   0  0  0  0  0  0  0  0  0  0  0  0
  131.8970  122.6940   62.0470 N   0  0  0  0  0  0  0  0  0  0  0  0
  132.8870  122.6600   61.1290 C   0  0  0  0  0  0  0  0  0  0  0  0
  133.6310  123.9640   60.9150 C   0  0  0  0  0  0  0  0  0  0  0  0
  133.2100  121.5080   60.4150 C   0  0  0  0  0  0  0  0  0  0  0  0
  132.4870  120.3290   60.6450 C   0  0  0  0  0  0  0  0  0  0  0  0
  132.8580  119.0630   59.8480 C   0  0  0  0  0  0  0  0  0  0  0  0
  133.5480  119.3960   58.7570 F   0  0  0  0  0  0  0  0  0  0  0  0
  133.6010  118.2500   60.6000 F   0  0  0  0  0  0  0  0  0  0  0  0
  131.7860  118.3730   59.4500 F   0  0  0  0  0  0  0  0  0  0  0  0
  131.4410  120.3520   61.6010 C   0  0  0  0  0  0  0  0  0  0  0  0
  130.6500  119.1490   61.8810 C   0  0  0  0  0  0  0  0  0  0  0  0
  130.0260  118.1990   62.1000 N   0  0  0  0  0  0  0  0  0  0  0  0
  128.5600  122.7700   58.5140 C   0  0  0  0  0  0  0  0  0  0  0  0
  127.9950  122.6870   57.2450 C   0  0  0  0  0  0  0  0  0  0  0  0
  124.5846  121.8642   56.5892 H   0  0  0  0  0  0  0  0  0  0  0  0
  124.1618  122.6830   55.0474 H   0  0  0  0  0  0  0  0  0  0  0  0
  125.3226  121.3122   55.0474 H   0  0  0  0  0  0  0  0  0  0  0  0
  124.9297  124.0230   57.9230 H   0  0  0  0  0  0  0  0  0  0  0  0
  125.9332  124.1634   60.1950 H   0  0  0  0  0  0  0  0  0  0  0  0
  129.4660  123.5490   60.7860 H   0  0  0  0  0  0  0  0  0  0  0  0
  129.6703  124.0563   63.0011 H   0  0  0  0  0  0  0  0  0  0  0  0
  128.3527  123.4251   64.1237 H   0  0  0  0  0  0  0  0  0  0  0  0
  133.8834  124.4064   61.8900 H   0  0  0  0  0  0  0  0  0  0  0  0
  134.5547  123.7706   60.3499 H   0  0  0  0  0  0  0  0  0  0  0  0
  132.9945  124.6608   60.3499 H   0  0  0  0  0  0  0  0  0  0  0  0
  134.0255  121.5234   59.6770 H   0  0  0  0  0  0  0  0  0  0  0  0
  129.5840  122.4050   58.6819 H   0  0  0  0  0  0  0  0  0  0  0  0
  128.5771  122.2639   56.4130 H   0  0  0  0  0  0  0  0  0  0  0  0
  1  2  1  0
  2  3  1  0
  3  4  2  0
  4  5  1  0
  5  6  2  0
  6  7  1  0
  7  8  1  0
  8  9  2  0
  8 10  1  0
 10 11  1  0
 11 12  1  0
 12 13  2  0
 13 14  1  0
 14 15  1  0
 14 16  2  0
 16 17  1  0
 17 18  1  0
 18 19  1  0
 18 20  1  0
 18 21  1  0
 17 22  2  0
 22 23  1  0
 23 24  3  0
  6 25  1  0
 25 26  2  0
 26  3  1  0
 22 12  1  0
  1 27  1  0
  1 28  1  0
  1 29  1  0
  4 30  1  0
  5 31  1  0
  7 32  1  0
 10 33  1  0
 10 34  1  0
 15 35  1  0
 15 36  1  0
 15 37  1  0
 16 38  1  0
 25 39  1  0
 26 40  1  0
M  END
>  <Binding energies>  (1) 
[-6.97]

>  <Ligand effiencies>  (1) 
[-0.2581481481481481]

>  <Interactions>  (1) 
["V-A:ASP:366:CG:3212, V-B:PRO:540:N:9855, H-B:ALA:541:N:9862, V-B:ALA:541:CB:9863, V-B:PRO:540:CA:9854, V-B:TYR:539:C:9838, V-A:LEU:475:CD2:4258, V-A:ILE:369:CD1:3238, V-B:TYR:539:CD2:9845, V-A:ILE:369:CG2:3236, V-B:TYR:539:CE2:9847, V-B:TYR:539:CB:9842, V-A:SER:385:CA:3406, V-A:SER:385:CB:3408, V-B:TYR:539:CG:9843, V-B:MET:535:CE:9806, V-B:TYR:539:CZ:9848, V-B:PRO:540:CB:9856, V-B:TYR:539:CD1:9844, V-B:PRO:540:CD:9858, V-B:TYR:531:CE2:9764, V-B:LEU:363:CD1:8159, V-B:ILE:538:CD1:9836, V-B:ILE:538:CG2:9834, V-B:ILE:538:CA:9831, V-B:TYR:539:CE1:9846, V-B:ILE:538:CB:9833, V-A:LEU:373:CG:3278, V-A:LEU:373:CD2:3280, H-B:TYR:531:OH:9766, V-A:VAL:384:C:3396"]

$$$$
2d_Ghoteimi_2023
     RDKit          3D

 68 72  0  0  0  0  0  0  0  0999 V2000
  135.4590  124.1480   76.8600 C   0  0  0  0  0  0  0  0  0  0  0  0
  134.1380  124.6670   76.8370 O   0  0  0  0  0  0  0  0  0  0  0  0
  133.8520  125.7800   76.1300 C   0  0  0  0  0  0  0  0  0  0  0  0
  134.6350  126.3790   75.3880 O   0  0  0  0  0  0  0  0  0  0  0  0
  132.3990  126.2250   76.3550 C   0  0  0  0  0  0  0  0  0  0  0  0
  131.8510  127.3780   75.0500 S   0  0  0  0  0  0  0  0  0  0  0  0
  130.6030  126.5660   74.0720 C   0  0  0  0  0  0  0  0  0  0  0  0
  130.3670  125.2890   74.4600 N   0  0  0  0  0  0  0  0  0  0  0  0
  129.4440  124.5470   73.7970 C   0  0  0  0  0  0  0  0  0  0  0  0
  129.2510  123.1420   74.2700 C   0  0  0  0  0  0  0  0  0  0  0  0
  130.3250  122.4120   74.7920 C   0  0  0  0  0  0  0  0  0  0  0  0
  130.1520  121.1030   75.2340 C   0  0  0  0  0  0  0  0  0  0  0  0
  128.8960  120.4800   75.1790 C   0  0  0  0  0  0  0  0  0  0  0  0
  128.7090  119.1590   75.6030 N   0  0  0  0  0  0  0  0  0  0  0  0
  128.9060  118.7650   77.0110 C   0  0  0  0  0  0  0  0  0  0  0  0
  129.0230  117.2400   77.2160 C   0  0  0  0  0  0  0  0  0  0  0  0
  127.8900  116.5890   76.6620 O   0  0  0  0  0  0  0  0  0  0  0  0
  127.7770  116.8320   75.2700 C   0  0  0  0  0  0  0  0  0  0  0  0
  127.6290  118.3460   75.0060 C   0  0  0  0  0  0  0  0  0  0  0  0
  127.8260  121.2100   74.6430 C   0  0  0  0  0  0  0  0  0  0  0  0
  127.9990  122.5180   74.1990 C   0  0  0  0  0  0  0  0  0  0  0  0
  128.7270  125.0800   72.7230 C   0  0  0  0  0  0  0  0  0  0  0  0
  128.9280  126.4070   72.3240 C   0  0  0  0  0  0  0  0  0  0  0  0
  128.1060  126.9170   71.1860 C   0  0  0  0  0  0  0  0  0  0  0  0
  128.7170  127.5870   70.1240 C   0  0  0  0  0  0  0  0  0  0  0  0
  127.9620  128.0550   69.0520 C   0  0  0  0  0  0  0  0  0  0  0  0
  126.5700  127.8700   69.0150 C   0  0  0  0  0  0  0  0  0  0  0  0
  125.7940  128.3210   67.9430 N   0  0  0  0  0  0  0  0  0  0  0  0
  126.4130  128.7750   66.6830 C   0  0  0  0  0  0  0  0  0  0  0  0
  125.4130  128.8880   65.5120 C   0  0  0  0  0  0  0  0  0  0  0  0
  124.3300  129.7300   65.8780 O   0  0  0  0  0  0  0  0  0  0  0  0
  123.6330  129.2260   67.0070 C   0  0  0  0  0  0  0  0  0  0  0  0
  124.5870  129.1250   68.2160 C   0  0  0  0  0  0  0  0  0  0  0  0
  125.9680  127.1810   70.0770 C   0  0  0  0  0  0  0  0  0  0  0  0
  126.7240  126.7120   71.1470 C   0  0  0  0  0  0  0  0  0  0  0  0
  129.8900  127.1820   73.0190 C   0  0  0  0  0  0  0  0  0  0  0  0
  130.1220  128.5820   72.6510 C   0  0  0  0  0  0  0  0  0  0  0  0
  130.3020  129.6880   72.3580 N   0  0  0  0  0  0  0  0  0  0  0  0
  135.7846  124.0201   77.9029 H   0  0  0  0  0  0  0  0  0  0  0  0
  135.4796  123.1749   76.3475 H   0  0  0  0  0  0  0  0  0  0  0  0
  136.1365  124.8468   76.3475 H   0  0  0  0  0  0  0  0  0  0  0  0
  131.7473  125.3389   76.3475 H   0  0  0  0  0  0  0  0  0  0  0  0
  132.3396  126.7425   77.3239 H   0  0  0  0  0  0  0  0  0  0  0  0
  131.3192  122.8787   74.8539 H   0  0  0  0  0  0  0  0  0  0  0  0
  131.0141  120.5482   75.6328 H   0  0  0  0  0  0  0  0  0  0  0  0
  129.8293  119.2369   77.3781 H   0  0  0  0  0  0  0  0  0  0  0  0
  128.0165  119.0975   77.5661 H   0  0  0  0  0  0  0  0  0  0  0  0
  129.9332  116.8740   76.7185 H   0  0  0  0  0  0  0  0  0  0  0  0
  129.0745  117.0226   78.2931 H   0  0  0  0  0  0  0  0  0  0  0  0
  128.6788  116.4605   74.7614 H   0  0  0  0  0  0  0  0  0  0  0  0
  126.8883  116.3108   74.8845 H   0  0  0  0  0  0  0  0  0  0  0  0
  127.6301  118.5111   73.9185 H   0  0  0  0  0  0  0  0  0  0  0  0
  126.6873  118.6650   75.4767 H   0  0  0  0  0  0  0  0  0  0  0  0
  126.8333  120.7415   74.5721 H   0  0  0  0  0  0  0  0  0  0  0  0
  127.1408  123.0690   73.7868 H   0  0  0  0  0  0  0  0  0  0  0  0
  127.9994  124.4528   72.1870 H   0  0  0  0  0  0  0  0  0  0  0  0
  129.8053  127.7465   70.1346 H   0  0  0  0  0  0  0  0  0  0  0  0
  128.4622  128.5767   68.2228 H   0  0  0  0  0  0  0  0  0  0  0  0
  126.8636  129.7640   66.8529 H   0  0  0  0  0  0  0  0  0  0  0  0
  127.1604  128.0196   66.3988 H   0  0  0  0  0  0  0  0  0  0  0  0
  125.9246  129.3127   64.6357 H   0  0  0  0  0  0  0  0  0  0  0  0
  125.0264  127.8872   65.2694 H   0  0  0  0  0  0  0  0  0  0  0  0
  122.8024  129.9034   67.2543 H   0  0  0  0  0  0  0  0  0  0  0  0
  123.2416  128.2252   66.7719 H   0  0  0  0  0  0  0  0  0  0  0  0
  124.9009  130.1407   68.4986 H   0  0  0  0  0  0  0  0  0  0  0  0
  124.0362  128.6209   69.0238 H   0  0  0  0  0  0  0  0  0  0  0  0
  124.8817  127.0085   70.0644 H   0  0  0  0  0  0  0  0  0  0  0  0
  126.2294  126.1749   71.9697 H   0  0  0  0  0  0  0  0  0  0  0  0
  1  2  1  0
  2  3  1  0
  3  4  2  0
  3  5  1  0
  5  6  1  0
  6  7  1  0
  7  8  2  0
  8  9  1  0
  9 10  1  0
 10 11  2  0
 11 12  1  0
 12 13  2  0
 13 14  1  0
 14 15  1  0
 15 16  1  0
 16 17  1  0
 17 18  1  0
 18 19  1  0
 13 20  1  0
 20 21  2  0
  9 22  2  0
 22 23  1  0
 23 24  1  0
 24 25  2  0
 25 26  1  0
 26 27  2  0
 27 28  1  0
 28 29  1  0
 29 30  1  0
 30 31  1  0
 31 32  1  0
 32 33  1  0
 27 34  1  0
 34 35  2  0
 23 36  2  0
 36 37  1  0
 37 38  3  0
 36  7  1  0
 21 10  1  0
 35 24  1  0
 19 14  1  0
 33 28  1  0
  1 39  1  0
  1 40  1  0
  1 41  1  0
  5 42  1  0
  5 43  1  0
 11 44  1  0
 12 45  1  0
 15 46  1  0
 15 47  1  0
 16 48  1  0
 16 49  1  0
 18 50  1  0
 18 51  1  0
 19 52  1  0
 19 53  1  0
 20 54  1  0
 21 55  1  0
 22 56  1  0
 25 57  1  0
 26 58  1  0
 29 59  1  0
 29 60  1  0
 30 61  1  0
 30 62  1  0
 32 63  1  0
 32 64  1  0
 33 65  1  0
 33 66  1  0
 34 67  1  0
 35 68  1  0
M  END
>  <Binding energies>  (1) 
[-8.8]

>  <Ligand effiencies>  (1) 
[-0.23157894736842108]

>  <Interactions>  (1) 
["V-B:GLU:543:CD:9879, V-A:HIS:456:CE1:4069, V-B:GLU:543:CB:9877, V-B:HIS:456:CE1:9040, V-B:LYS:547:CE:9921, V-B:TYR:484:CZ:9317, H-B:LYS:547:NZ:9922, V-B:ARG:545:CD:9894, V-B:GLU:543:C:9873, V-B:ARG:545:CG:9893, V-B:GLY:544:CA:9885, V-A:ASP:473:CG:4239, V-A:TYR:484:CB:4340, H-B:TYR:484:OH:9318, V-B:GLY:544:C:9883, V-B:ARG:545:CZ:9897, V-A:HIS:456:CB:4064, V-A:HIS:456:C:4060, V-A:VAL:457:CA:4074, V-A:HIS:456:CG:4065, V-A:VAL:458:CG2:4086, H-A:LYS:471:NZ:4220, V-A:LYS:471:CD:4218, V-B:ARG:545:CA:9890, H-B:GLY:454:N:9020, V-A:LYS:471:CE:4219, V-A:LYS:471:CG:4217, V-A:ASP:485:CG:4355, H-A:VAL:457:N:4075, V-A:LYS:471:CB:4216, V-A:LYS:471:C:4212"]

$$$$
2d_Grossjean_2025
     RDKit          3D

 36 37  0  0  0  0  0  0  0  0999 V2000
  124.0180  123.2060   63.0170 C   0  0  0  0  0  0  0  0  0  0  0  0
  124.9690  123.4390   61.8590 C   0  0  0  0  0  0  0  0  0  0  0  0
  124.5070  123.5690   60.5510 C   0  0  0  0  0  0  0  0  0  0  0  0
  125.4260  123.7880   59.5140 C   0  0  0  0  0  0  0  0  0  0  0  0
  124.8960  123.9400   58.0750 C   0  0  0  0  0  0  0  0  0  0  0  0
  123.5630  123.9010   58.0730 F   0  0  0  0  0  0  0  0  0  0  0  0
  125.2950  125.1040   57.5600 F   0  0  0  0  0  0  0  0  0  0  0  0
  125.3270  122.9740   57.2610 F   0  0  0  0  0  0  0  0  0  0  0  0
  126.8050  123.8640   59.8350 C   0  0  0  0  0  0  0  0  0  0  0  0
  127.8010  124.1380   58.7950 C   0  0  0  0  0  0  0  0  0  0  0  0
  128.5860  124.3560   57.9730 N   0  0  0  0  0  0  0  0  0  0  0  0
  127.1840  123.6950   61.1880 C   0  0  0  0  0  0  0  0  0  0  0  0
  128.8720  123.7290   61.7610 S   0  0  0  0  0  0  0  0  0  0  0  0
  129.1000  122.4020   62.9900 C   0  0  0  0  0  0  0  0  0  0  0  0
  130.2340  121.4380   62.6270 C   0  0  0  0  0  0  0  0  0  0  0  0
  131.3490  121.6130   63.1210 O   0  0  0  0  0  0  0  0  0  0  0  0
  129.9150  120.4660   61.7470 N   0  0  0  0  0  0  0  0  0  0  0  0
  130.7240  119.4380   61.2270 C   0  0  0  0  0  0  0  0  0  0  0  0
  131.9810  119.8260   60.7590 C   0  0  0  0  0  0  0  0  0  0  0  0
  132.8520  118.8830   60.2190 C   0  0  0  0  0  0  0  0  0  0  0  0
  132.4590  117.5480   60.1400 C   0  0  0  0  0  0  0  0  0  0  0  0
  131.2030  117.1520   60.5910 C   0  0  0  0  0  0  0  0  0  0  0  0
  130.3310  118.0920   61.1310 C   0  0  0  0  0  0  0  0  0  0  0  0
  126.2810  123.5050   62.1800 N   0  0  0  0  0  0  0  0  0  0  0  0
  124.5573  123.3381   63.9666 H   0  0  0  0  0  0  0  0  0  0  0  0
  123.1897  123.9278   62.9622 H   0  0  0  0  0  0  0  0  0  0  0  0
  123.6172  122.1831   62.9622 H   0  0  0  0  0  0  0  0  0  0  0  0
  123.4309  123.5005   60.3334 H   0  0  0  0  0  0  0  0  0  0  0  0
  129.3283  122.8611   63.9632 H   0  0  0  0  0  0  0  0  0  0  0  0
  128.1685  121.8177   63.0199 H   0  0  0  0  0  0  0  0  0  0  0  0
  128.9830  120.5020   61.3590 H   0  0  0  0  0  0  0  0  0  0  0  0
  132.2848  120.8816   60.8171 H   0  0  0  0  0  0  0  0  0  0  0  0
  133.8443  119.1899   59.8569 H   0  0  0  0  0  0  0  0  0  0  0  0
  133.1472  116.8010   59.7177 H   0  0  0  0  0  0  0  0  0  0  0  0
  130.9002  116.0968   60.5205 H   0  0  0  0  0  0  0  0  0  0  0  0
  129.3356  117.7823   61.4822 H   0  0  0  0  0  0  0  0  0  0  0  0
  1  2  1  0
  2  3  2  0
  3  4  1  0
  4  5  1  0
  5  6  1  0
  5  7  1  0
  5  8  1  0
  4  9  2  0
  9 10  1  0
 10 11  3  0
  9 12  1  0
 12 13  1  0
 13 14  1  0
 14 15  1  0
 15 16  2  0
 15 17  1  0
 17 18  1  0
 18 19  2  0
 19 20  1  0
 20 21  2  0
 21 22  1  0
 22 23  2  0
 12 24  2  0
 24  2  1  0
 23 18  1  0
  1 25  1  0
  1 26  1  0
  1 27  1  0
  3 28  1  0
 14 29  1  0
 14 30  1  0
 17 31  1  0
 19 32  1  0
 20 33  1  0
 21 34  1  0
 22 35  1  0
 23 36  1  0
M  END
>  <Binding energies>  (1) 
[-7.08]

>  <Ligand effiencies>  (1) 
[-0.2832]

>  <Interactions>  (1) 
["V-B:PRO:540:N:9855, H-B:ALA:541:N:9862, V-B:ALA:541:CB:9863, V-B:PRO:540:CA:9854, V-B:ALA:541:CA:9861, V-B:TYR:539:C:9838, V-A:LEU:475:CD2:4258, V-A:PRO:482:CG:4326, V-A:HIS:383:CE1:3393, H-B:TYR:539:O:9839, V-B:TYR:539:CD2:9845, V-B:TYR:539:CE2:9847, V-A:SER:385:CA:3406, V-A:PRO:482:CB:4325, V-B:ALA:541:C:9859, V-B:PRO:540:CB:9856, V-B:ASN:362:CB:8146, V-B:TYR:531:CZ:9765, V-B:PRO:540:CD:9858, V-B:TYR:531:CE2:9764, V-B:LEU:363:CD1:8159, V-B:LEU:363:CA:8155, V-B:ARG:545:CZ:9897, V-B:ASN:362:CG:8147, V-B:LEU:363:CB:8157, V-B:LEU:363:CG:8158"]

$$$$
2e_Grossjean_2025
     RDKit          3D

 38 39  0  0  0  0  0  0  0  0999 V2000
  123.7130  124.3420   57.7800 C   0  0  0  0  0  0  0  0  0  0  0  0
  125.0610  123.6510   57.6930 C   0  0  0  0  0  0  0  0  0  0  0  0
  125.4650  122.9770   56.5380 C   0  0  0  0  0  0  0  0  0  0  0  0
  126.7240  122.3750   56.5270 C   0  0  0  0  0  0  0  0  0  0  0  0
  127.5390  122.4580   57.6590 C   0  0  0  0  0  0  0  0  0  0  0  0
  127.0680  123.1400   58.7860 C   0  0  0  0  0  0  0  0  0  0  0  0
  127.9450  123.2300   59.8800 N   0  0  0  0  0  0  0  0  0  0  0  0
  127.6400  123.2140   61.1970 C   0  0  0  0  0  0  0  0  0  0  0  0
  126.5110  123.0390   61.6580 O   0  0  0  0  0  0  0  0  0  0  0  0
  128.8060  123.4810   62.1550 C   0  0  0  0  0  0  0  0  0  0  0  0
  129.4880  121.9400   62.8470 S   0  0  0  0  0  0  0  0  0  0  0  0
  130.9650  121.6120   61.9100 C   0  0  0  0  0  0  0  0  0  0  0  0
  131.7230  122.7060   61.6470 N   0  0  0  0  0  0  0  0  0  0  0  0
  132.8400  122.5520   60.9020 C   0  0  0  0  0  0  0  0  0  0  0  0
  133.6400  123.8150   60.6470 C   0  0  0  0  0  0  0  0  0  0  0  0
  133.2400  121.3190   60.3890 C   0  0  0  0  0  0  0  0  0  0  0  0
  132.4620  120.1800   60.6440 C   0  0  0  0  0  0  0  0  0  0  0  0
  132.9050  118.8290   60.0520 C   0  0  0  0  0  0  0  0  0  0  0  0
  133.9590  119.0020   59.2540 F   0  0  0  0  0  0  0  0  0  0  0  0
  133.2380  117.9900   61.0330 F   0  0  0  0  0  0  0  0  0  0  0  0
  131.9470  118.2440   59.3300 F   0  0  0  0  0  0  0  0  0  0  0  0
  131.2900  120.3230   61.4280 C   0  0  0  0  0  0  0  0  0  0  0  0
  130.4190  119.1770   61.7050 C   0  0  0  0  0  0  0  0  0  0  0  0
  129.7320  118.2720   61.9230 N   0  0  0  0  0  0  0  0  0  0  0  0
  125.8410  123.7390   58.8010 N   0  0  0  0  0  0  0  0  0  0  0  0
  123.4402  124.4819   58.8364 H   0  0  0  0  0  0  0  0  0  0  0  0
  123.7705  125.3218   57.2833 H   0  0  0  0  0  0  0  0  0  0  0  0
  122.9511  123.7233   57.2833 H   0  0  0  0  0  0  0  0  0  0  0  0
  124.8067  122.9221   55.6585 H   0  0  0  0  0  0  0  0  0  0  0  0
  127.0728  121.8383   55.6324 H   0  0  0  0  0  0  0  0  0  0  0  0
  128.5363  121.9939   57.6639 H   0  0  0  0  0  0  0  0  0  0  0  0
  128.9240  123.2750   59.6390 H   0  0  0  0  0  0  0  0  0  0  0  0
  129.6019  124.0072   61.6076 H   0  0  0  0  0  0  0  0  0  0  0  0
  128.4274  124.0896   62.9894 H   0  0  0  0  0  0  0  0  0  0  0  0
  133.9267  124.2676   61.6077 H   0  0  0  0  0  0  0  0  0  0  0  0
  134.5455  123.5661   60.0742 H   0  0  0  0  0  0  0  0  0  0  0  0
  133.0280  124.5273   60.0742 H   0  0  0  0  0  0  0  0  0  0  0  0
  134.1585  121.2399   59.7889 H   0  0  0  0  0  0  0  0  0  0  0  0
  1  2  1  0
  2  3  2  0
  3  4  1  0
  4  5  2  0
  5  6  1  0
  6  7  1  0
  7  8  1  0
  8  9  2  0
  8 10  1  0
 10 11  1  0
 11 12  1  0
 12 13  2  0
 13 14  1  0
 14 15  1  0
 14 16  2  0
 16 17  1  0
 17 18  1  0
 18 19  1  0
 18 20  1  0
 18 21  1  0
 17 22  2  0
 22 23  1  0
 23 24  3  0
  6 25  2  0
 25  2  1  0
 22 12  1  0
  1 26  1  0
  1 27  1  0
  1 28  1  0
  3 29  1  0
  4 30  1  0
  5 31  1  0
  7 32  1  0
 10 33  1  0
 10 34  1  0
 15 35  1  0
 15 36  1  0
 15 37  1  0
 16 38  1  0
M  END
>  <Binding energies>  (1) 
[-7.23]

>  <Ligand effiencies>  (1) 
[-0.2780769230769231]

>  <Interactions>  (1) 
["V-A:ASP:366:CG:3212, V-B:PRO:540:N:9855, H-B:ALA:541:N:9862, V-B:ALA:541:CB:9863, V-B:PRO:540:CA:9854, V-B:TYR:539:C:9838, V-A:LEU:475:CD2:4258, V-A:ILE:369:CD1:3238, V-B:TYR:539:CD2:9845, V-A:ILE:369:CG2:3236, V-B:TYR:539:CE2:9847, V-B:TYR:539:CB:9842, V-A:SER:385:CA:3406, V-A:SER:385:CB:3408, V-B:TYR:539:CG:9843, V-B:MET:535:CE:9806, V-B:PRO:540:CB:9856, V-B:TYR:539:CA:9840, V-B:TYR:531:CZ:9765, V-B:PRO:540:CD:9858, V-B:TYR:531:CE2:9764, V-B:LEU:363:CD1:8159, V-B:ASP:366:CB:8182, V-A:LEU:373:CG:3278, V-A:LEU:373:CD2:3280, V-A:VAL:384:C:3396, V-B:LEU:363:CA:8155"]

$$$$
2f_Grossjean_2025
     RDKit          3D

 35 36  0  0  0  0  0  0  0  0999 V2000
  133.3930  123.8980   60.4430 C   0  0  0  0  0  0  0  0  0  0  0  0
  132.6350  122.6110   60.7120 C   0  0  0  0  0  0  0  0  0  0  0  0
  133.1790  121.3660   60.4050 C   0  0  0  0  0  0  0  0  0  0  0  0
  132.4350  120.2050   60.6650 C   0  0  0  0  0  0  0  0  0  0  0  0
  133.0490  118.8380   60.3070 C   0  0  0  0  0  0  0  0  0  0  0  0
  132.3590  118.2710   59.3150 F   0  0  0  0  0  0  0  0  0  0  0  0
  134.3140  118.9960   59.9170 F   0  0  0  0  0  0  0  0  0  0  0  0
  133.0470  117.9850   61.3330 F   0  0  0  0  0  0  0  0  0  0  0  0
  131.1470  120.3400   61.2450 C   0  0  0  0  0  0  0  0  0  0  0  0
  130.3100  119.1620   61.4830 C   0  0  0  0  0  0  0  0  0  0  0  0
  129.6490  118.2300   61.6720 N   0  0  0  0  0  0  0  0  0  0  0  0
  130.6870  121.6440   61.5480 C   0  0  0  0  0  0  0  0  0  0  0  0
  129.1050  121.9990   62.2860 S   0  0  0  0  0  0  0  0  0  0  0  0
  128.3740  123.4190   61.4030 C   0  0  0  0  0  0  0  0  0  0  0  0
  128.2880  123.2640   59.8780 C   0  0  0  0  0  0  0  0  0  0  0  0
  129.2980  123.3590   59.1780 O   0  0  0  0  0  0  0  0  0  0  0  0
  127.0420  123.0410   59.4070 N   0  0  0  0  0  0  0  0  0  0  0  0
  126.6080  122.8440   58.0820 C   0  0  0  0  0  0  0  0  0  0  0  0
  125.3300  123.1630   57.5860 C   0  0  0  0  0  0  0  0  0  0  0  0
  125.0290  122.9200   56.2450 C   0  0  0  0  0  0  0  0  0  0  0  0
  126.0170  122.3670   55.4290 C   0  0  0  0  0  0  0  0  0  0  0  0
  127.2580  122.0580   55.8810 N   0  0  0  0  0  0  0  0  0  0  0  0
  127.5360  122.3010   57.1870 C   0  0  0  0  0  0  0  0  0  0  0  0
  131.4110  122.7550   61.2680 N   0  0  0  0  0  0  0  0  0  0  0  0
  133.6694  124.3673   61.3987 H   0  0  0  0  0  0  0  0  0  0  0  0
  134.3034  123.6739   59.8677 H   0  0  0  0  0  0  0  0  0  0  0  0
  132.7556  124.5855   59.8677 H   0  0  0  0  0  0  0  0  0  0  0  0
  134.1834  121.2935   59.9624 H   0  0  0  0  0  0  0  0  0  0  0  0
  127.3549  123.5716   61.7879 H   0  0  0  0  0  0  0  0  0  0  0  0
  129.0442  124.2717   61.5867 H   0  0  0  0  0  0  0  0  0  0  0  0
  126.2990  123.0470   60.0910 H   0  0  0  0  0  0  0  0  0  0  0  0
  124.5723  123.6016   58.2519 H   0  0  0  0  0  0  0  0  0  0  0  0
  124.0346  123.1592   55.8400 H   0  0  0  0  0  0  0  0  0  0  0  0
  125.7788  122.1732   54.3727 H   0  0  0  0  0  0  0  0  0  0  0  0
  128.5418  122.0587   57.5606 H   0  0  0  0  0  0  0  0  0  0  0  0
  1  2  1  0
  2  3  2  0
  3  4  1  0
  4  5  1  0
  5  6  1  0
  5  7  1  0
  5  8  1  0
  4  9  2  0
  9 10  1  0
 10 11  3  0
  9 12  1  0
 12 13  1  0
 13 14  1  0
 14 15  1  0
 15 16  2  0
 15 17  1  0
 17 18  1  0
 18 19  2  0
 19 20  1  0
 20 21  2  0
 21 22  1  0
 22 23  2  0
 12 24  2  0
 24  2  1  0
 23 18  1  0
  1 25  1  0
  1 26  1  0
  1 27  1  0
  3 28  1  0
 14 29  1  0
 14 30  1  0
 17 31  1  0
 19 32  1  0
 20 33  1  0
 21 34  1  0
 23 35  1  0
M  END
>  <Binding energies>  (1) 
[-7.12]

>  <Ligand effiencies>  (1) 
[-0.2848]

>  <Interactions>  (1) 
["V-A:ASP:366:CG:3212, V-B:PRO:540:N:9855, H-B:ALA:541:N:9862, V-B:ALA:541:CB:9863, V-B:PRO:540:CA:9854, V-B:TYR:539:C:9838, V-A:LEU:475:CD2:4258, V-A:ILE:369:CD1:3238, V-A:SER:385:C:3404, V-B:TYR:539:CD2:9845, V-A:ILE:369:CG2:3236, V-B:TYR:539:CE2:9847, V-B:TYR:539:CB:9842, V-A:SER:385:CA:3406, V-A:SER:385:CB:3408, H-B:TYR:539:N:9841, V-B:TYR:539:CG:9843, V-B:MET:535:CE:9806, V-B:PRO:540:CB:9856, V-B:TYR:539:CA:9840, V-B:TYR:539:CD1:9844, V-B:TYR:531:CZ:9765, V-B:PRO:540:CD:9858, V-B:TYR:531:CE2:9764, V-B:LEU:363:CD1:8159, V-B:ILE:538:CD1:9836, V-B:ILE:538:CG2:9834, V-B:ILE:538:CA:9831, V-B:TYR:539:CE1:9846, V-B:ILE:538:C:9829, V-A:LEU:373:CD2:3280, V-B:MET:535:CG:9804, V-A:VAL:384:C:3396"]

$$$$
2g_Grossjean_2025
     RDKit          3D

 39 40  0  0  0  0  0  0  0  0999 V2000
  123.9900  123.6560   62.2510 C   0  0  0  0  0  0  0  0  0  0  0  0
  125.3930  123.5000   61.6960 C   0  0  0  0  0  0  0  0  0  0  0  0
  125.6680  123.6920   60.3440 C   0  0  0  0  0  0  0  0  0  0  0  0
  126.9810  123.5280   59.8770 C   0  0  0  0  0  0  0  0  0  0  0  0
  127.2650  123.7350   58.3770 C   0  0  0  0  0  0  0  0  0  0  0  0
  128.1280  124.7380   58.2040 F   0  0  0  0  0  0  0  0  0  0  0  0
  127.7850  122.6230   57.8570 F   0  0  0  0  0  0  0  0  0  0  0  0
  126.1660  124.0310   57.6800 F   0  0  0  0  0  0  0  0  0  0  0  0
  127.9930  123.1780   60.8080 C   0  0  0  0  0  0  0  0  0  0  0  0
  129.3690  122.9390   60.3630 C   0  0  0  0  0  0  0  0  0  0  0  0
  130.4550  122.7510   60.0120 N   0  0  0  0  0  0  0  0  0  0  0  0
  127.6260  123.0330   62.1680 C   0  0  0  0  0  0  0  0  0  0  0  0
  128.7700  122.6230   63.4670 S   0  0  0  0  0  0  0  0  0  0  0  0
  130.2770  123.6190   63.2050 C   0  0  0  0  0  0  0  0  0  0  0  0
  131.5780  122.8070   63.1290 C   0  0  0  0  0  0  0  0  0  0  0  0
  132.5650  123.1120   63.8010 O   0  0  0  0  0  0  0  0  0  0  0  0
  131.5580  121.7620   62.2830 N   0  0  0  0  0  0  0  0  0  0  0  0
  132.6690  120.8390   62.0460 C   0  0  0  0  0  0  0  0  0  0  0  0
  132.3360  119.6800   61.1120 C   0  0  0  0  0  0  0  0  0  0  0  0
  133.1900  119.3770   60.0470 C   0  0  0  0  0  0  0  0  0  0  0  0
  132.9070  118.2950   59.2160 C   0  0  0  0  0  0  0  0  0  0  0  0
  131.7800  117.5150   59.4580 C   0  0  0  0  0  0  0  0  0  0  0  0
  130.9320  117.8040   60.5260 C   0  0  0  0  0  0  0  0  0  0  0  0
  131.2140  118.8850   61.3570 C   0  0  0  0  0  0  0  0  0  0  0  0
  126.3470  123.1730   62.5970 N   0  0  0  0  0  0  0  0  0  0  0  0
  124.0280  123.6518   63.3503 H   0  0  0  0  0  0  0  0  0  0  0  0
  123.5615  124.6073   61.9026 H   0  0  0  0  0  0  0  0  0  0  0  0
  123.3630  122.8220   61.9026 H   0  0  0  0  0  0  0  0  0  0  0  0
  124.8626  123.9699   59.6482 H   0  0  0  0  0  0  0  0  0  0  0  0
  130.1625  124.1717   62.2609 H   0  0  0  0  0  0  0  0  0  0  0  0
  130.3716  124.2757   64.0824 H   0  0  0  0  0  0  0  0  0  0  0  0
  130.7020  121.5620   61.7850 H   0  0  0  0  0  0  0  0  0  0  0  0
  133.5011  121.4079   61.6055 H   0  0  0  0  0  0  0  0  0  0  0  0
  132.9219  120.3949   63.0201 H   0  0  0  0  0  0  0  0  0  0  0  0
  134.0838  119.9919   59.8656 H   0  0  0  0  0  0  0  0  0  0  0  0
  133.5716  118.0582   58.3721 H   0  0  0  0  0  0  0  0  0  0  0  0
  131.5563  116.6622   58.8002 H   0  0  0  0  0  0  0  0  0  0  0  0
  130.0445  117.1811   60.7113 H   0  0  0  0  0  0  0  0  0  0  0  0
  130.5532  119.1129   62.2064 H   0  0  0  0  0  0  0  0  0  0  0  0
  1  2  1  0
  2  3  2  0
  3  4  1  0
  4  5  1  0
  5  6  1  0
  5  7  1  0
  5  8  1  0
  4  9  2  0
  9 10  1  0
 10 11  3  0
  9 12  1  0
 12 13  1  0
 13 14  1  0
 14 15  1  0
 15 16  2  0
 15 17  1  0
 17 18  1  0
 18 19  1  0
 19 20  2  0
 20 21  1  0
 21 22  2  0
 22 23  1  0
 23 24  2  0
 12 25  2  0
 25  2  1  0
 24 19  1  0
  1 26  1  0
  1 27  1  0
  1 28  1  0
  3 29  1  0
 14 30  1  0
 14 31  1  0
 17 32  1  0
 18 33  1  0
 18 34  1  0
 20 35  1  0
 21 36  1  0
 22 37  1  0
 23 38  1  0
 24 39  1  0
M  END
>  <Binding energies>  (1) 
[-6.77]

>  <Ligand effiencies>  (1) 
[-0.2603846153846154]

>  <Interactions>  (1) 
["V-B:PRO:540:N:9855, H-B:ALA:541:N:9862, H-A:TYR:484:OH:4347, V-B:ALA:541:CB:9863, V-B:PRO:540:CA:9854, V-B:PRO:540:C:9852, V-B:TYR:539:C:9838, V-A:LEU:475:CD2:4258, V-A:HIS:383:CE1:3393, V-B:TYR:539:CD2:9845, V-A:ILE:369:CG2:3236, V-B:TYR:539:CE2:9847, V-B:TYR:539:CB:9842, V-A:SER:385:CA:3406, V-B:TYR:539:CG:9843, V-B:PRO:540:CB:9856, V-B:ASN:362:CB:8146, V-A:LEU:373:CG:3278, V-A:LEU:373:CD2:3280, V-B:ARG:545:CZ:9897"]

$$$$
2h_Grossjean_2025
     RDKit          3D

 51 52  0  0  0  0  0  0  0  0999 V2000
  125.8450  122.5980   55.8670 C   0  0  0  0  0  0  0  0  0  0  0  0
  126.4310  123.6510   56.6240 O   0  0  0  0  0  0  0  0  0  0  0  0
  127.0020  123.3680   57.8520 C   0  0  0  0  0  0  0  0  0  0  0  0
  128.3540  123.0340   58.0300 C   0  0  0  0  0  0  0  0  0  0  0  0
  128.8600  122.7700   59.3000 C   0  0  0  0  0  0  0  0  0  0  0  0
  128.0290  122.8330   60.4200 C   0  0  0  0  0  0  0  0  0  0  0  0
  128.6100  122.5590   61.8060 C   0  0  0  0  0  0  0  0  0  0  0  0
  130.0630  122.7210   61.8760 N   0  0  0  0  0  0  0  0  0  0  0  0
  130.9590  121.8760   61.3360 C   0  0  0  0  0  0  0  0  0  0  0  0
  130.6450  120.8180   60.7870 O   0  0  0  0  0  0  0  0  0  0  0  0
  132.4270  122.3160   61.4330 C   0  0  0  0  0  0  0  0  0  0  0  0
  132.6780  124.0800   61.8240 S   0  0  0  0  0  0  0  0  0  0  0  0
  131.5060  124.9960   60.8470 C   0  0  0  0  0  0  0  0  0  0  0  0
  130.4910  125.5280   61.5700 N   0  0  0  0  0  0  0  0  0  0  0  0
  129.5330  126.2290   60.9230 C   0  0  0  0  0  0  0  0  0  0  0  0
  128.4240  126.7890   61.7940 C   0  0  0  0  0  0  0  0  0  0  0  0
  129.5490  126.4310   59.5440 C   0  0  0  0  0  0  0  0  0  0  0  0
  130.6030  125.9040   58.7820 C   0  0  0  0  0  0  0  0  0  0  0  0
  130.6090  126.1450   57.2600 C   0  0  0  0  0  0  0  0  0  0  0  0
  129.7550  127.1220   56.9510 F   0  0  0  0  0  0  0  0  0  0  0  0
  131.8100  126.5030   56.7990 F   0  0  0  0  0  0  0  0  0  0  0  0
  130.2470  125.0340   56.6180 F   0  0  0  0  0  0  0  0  0  0  0  0
  131.6210  125.1730   59.4470 C   0  0  0  0  0  0  0  0  0  0  0  0
  132.7730  124.6540   58.7050 C   0  0  0  0  0  0  0  0  0  0  0  0
  133.6830  124.2470   58.1180 N   0  0  0  0  0  0  0  0  0  0  0  0
  126.6700  123.1420   60.2560 C   0  0  0  0  0  0  0  0  0  0  0  0
  125.8450  123.2030   61.3530 O   0  0  0  0  0  0  0  0  0  0  0  0
  125.7020  124.5040   61.9090 C   0  0  0  0  0  0  0  0  0  0  0  0
  126.1660  123.4270   58.9750 C   0  0  0  0  0  0  0  0  0  0  0  0
  124.8400  123.7490   58.8120 O   0  0  0  0  0  0  0  0  0  0  0  0
  124.6110  125.1020   58.4430 C   0  0  0  0  0  0  0  0  0  0  0  0
  125.4258  121.8447   56.5502 H   0  0  0  0  0  0  0  0  0  0  0  0
  125.0433  123.0045   55.2329 H   0  0  0  0  0  0  0  0  0  0  0  0
  126.6129  122.1310   55.2329 H   0  0  0  0  0  0  0  0  0  0  0  0
  129.0207  122.9803   57.1567 H   0  0  0  0  0  0  0  0  0  0  0  0
  129.9219  122.5100   59.4217 H   0  0  0  0  0  0  0  0  0  0  0  0
  128.1478  123.2559   62.5206 H   0  0  0  0  0  0  0  0  0  0  0  0
  128.3913  121.5078   62.0448 H   0  0  0  0  0  0  0  0  0  0  0  0
  130.3960  123.5850   62.2790 H   0  0  0  0  0  0  0  0  0  0  0  0
  132.9108  121.7196   62.2205 H   0  0  0  0  0  0  0  0  0  0  0  0
  132.8625  122.1569   60.4355 H   0  0  0  0  0  0  0  0  0  0  0  0
  128.6874  126.6560   62.8537 H   0  0  0  0  0  0  0  0  0  0  0  0
  128.2951  127.8602   61.5799 H   0  0  0  0  0  0  0  0  0  0  0  0
  127.4854  126.2568   61.5799 H   0  0  0  0  0  0  0  0  0  0  0  0
  128.7423  126.9987   59.0571 H   0  0  0  0  0  0  0  0  0  0  0  0
  125.7094  124.4364   63.0069 H   0  0  0  0  0  0  0  0  0  0  0  0
  126.5357  125.1391   61.5751 H   0  0  0  0  0  0  0  0  0  0  0  0
  124.7502  124.9429   61.5751 H   0  0  0  0  0  0  0  0  0  0  0  0
  124.5070  125.7167   59.3493 H   0  0  0  0  0  0  0  0  0  0  0  0
  125.4599  125.4682   57.8470 H   0  0  0  0  0  0  0  0  0  0  0  0
  123.6888  125.1685   57.8470 H   0  0  0  0  0  0  0  0  0  0  0  0
  1  2  1  0
  2  3  1  0
  3  4  2  0
  4  5  1  0
  5  6  2  0
  6  7  1  0
  7  8  1  0
  8  9  1  0
  9 10  2  0
  9 11  1  0
 11 12  1  0
 12 13  1  0
 13 14  2  0
 14 15  1  0
 15 16  1  0
 15 17  2  0
 17 18  1  0
 18 19  1  0
 19 20  1  0
 19 21  1  0
 19 22  1  0
 18 23  2  0
 23 24  1  0
 24 25  3  0
  6 26  1  0
 26 27  1  0
 27 28  1  0
 26 29  2  0
 29 30  1  0
 30 31  1  0
 29  3  1  0
 23 13  1  0
  1 32  1  0
  1 33  1  0
  1 34  1  0
  4 35  1  0
  5 36  1  0
  7 37  1  0
  7 38  1  0
  8 39  1  0
 11 40  1  0
 11 41  1  0
 16 42  1  0
 16 43  1  0
 16 44  1  0
 17 45  1  0
 28 46  1  0
 28 47  1  0
 28 48  1  0
 31 49  1  0
 31 50  1  0
 31 51  1  0
M  END
>  <Binding energies>  (1) 
[-5.27]

>  <Ligand effiencies>  (1) 
[-0.1646875]

>  <Interactions>  (1) 
["V-A:ASP:366:CG:3212, V-A:ASP:366:CB:3211, V-A:TYR:531:CZ:4793, V-B:PRO:540:N:9855, H-B:ALA:541:N:9862, V-B:ALA:541:CB:9863, V-B:PRO:540:CA:9854, V-B:PRO:540:C:9852, V-B:TYR:539:C:9838, V-B:TYR:539:CD2:9845, V-B:TYR:539:CE2:9847, V-B:TYR:539:CG:9843, V-B:MET:535:CE:9806, H-B:TYR:539:OH:9849, V-B:TYR:539:CZ:9848, V-B:PRO:540:CB:9856, V-B:TYR:531:CE2:9764, V-B:ILE:538:CD1:9836, V-B:ILE:538:CA:9831, V-B:TYR:539:CE1:9846, V-B:ASP:366:CB:8182, H-B:TYR:531:OH:9766, V-A:TYR:531:CE1:4791, V-B:ASP:366:CG:8183, V-B:MET:535:CG:9804"]

$$$$
2i_Grossjean_2025
     RDKit          3D

 32 33  0  0  0  0  0  0  0  0999 V2000
  130.7170  117.8100   61.0710 C   0  0  0  0  0  0  0  0  0  0  0  0
  130.9550  119.2900   61.3120 C   0  0  0  0  0  0  0  0  0  0  0  0
  132.2360  119.8340   61.3010 C   0  0  0  0  0  0  0  0  0  0  0  0
  132.4030  121.2080   61.5270 C   0  0  0  0  0  0  0  0  0  0  0  0
  133.8280  121.7940   61.5120 C   0  0  0  0  0  0  0  0  0  0  0  0
  134.1670  122.2010   62.7370 F   0  0  0  0  0  0  0  0  0  0  0  0
  134.6990  120.8690   61.1070 F   0  0  0  0  0  0  0  0  0  0  0  0
  133.9470  122.8420   60.6940 F   0  0  0  0  0  0  0  0  0  0  0  0
  131.2510  122.0010   61.7610 C   0  0  0  0  0  0  0  0  0  0  0  0
  131.3680  123.4430   62.0020 C   0  0  0  0  0  0  0  0  0  0  0  0
  131.4600  124.5810   62.1920 N   0  0  0  0  0  0  0  0  0  0  0  0
  129.9880  121.3650   61.7570 C   0  0  0  0  0  0  0  0  0  0  0  0
  128.4710  122.2600   62.0480 S   0  0  0  0  0  0  0  0  0  0  0  0
  128.3750  123.6180   60.8430 C   0  0  0  0  0  0  0  0  0  0  0  0
  128.1480  123.1130   59.4170 C   0  0  0  0  0  0  0  0  0  0  0  0
  129.1170  122.7430   58.7510 O   0  0  0  0  0  0  0  0  0  0  0  0
  126.8700  123.1370   58.9810 N   0  0  0  0  0  0  0  0  0  0  0  0
  126.4150  122.7510   57.7310 C   0  0  0  0  0  0  0  0  0  0  0  0
  125.2040  123.0340   57.0840 C   0  0  0  0  0  0  0  0  0  0  0  0
  125.2990  122.3950   55.8690 C   0  0  0  0  0  0  0  0  0  0  0  0
  126.4990  121.7720   55.7880 O   0  0  0  0  0  0  0  0  0  0  0  0
  127.1960  122.0120   56.9740 N   0  0  0  0  0  0  0  0  0  0  0  0
  129.8480  120.0330   61.5350 N   0  0  0  0  0  0  0  0  0  0  0  0
  130.6334  117.2900   62.0367 H   0  0  0  0  0  0  0  0  0  0  0  0
  129.7858  117.6764   60.5008 H   0  0  0  0  0  0  0  0  0  0  0  0
  131.5593  117.3912   60.5008 H   0  0  0  0  0  0  0  0  0  0  0  0
  133.1099  119.1918   61.1166 H   0  0  0  0  0  0  0  0  0  0  0  0
  127.5413  124.2795   61.1210 H   0  0  0  0  0  0  0  0  0  0  0  0
  129.3357  124.1534   60.8617 H   0  0  0  0  0  0  0  0  0  0  0  0
  126.1680  123.5010   59.6080 H   0  0  0  0  0  0  0  0  0  0  0  0
  124.3638  123.6340   57.4635 H   0  0  0  0  0  0  0  0  0  0  0  0
  124.5242  122.3908   55.0882 H   0  0  0  0  0  0  0  0  0  0  0  0
  1  2  1  0
  2  3  2  0
  3  4  1  0
  4  5  1  0
  5  6  1  0
  5  7  1  0
  5  8  1  0
  4  9  2  0
  9 10  1  0
 10 11  3  0
  9 12  1  0
 12 13  1  0
 13 14  1  0
 14 15  1  0
 15 16  2  0
 15 17  1  0
 17 18  1  0
 18 19  1  0
 19 20  2  0
 20 21  1  0
 21 22  1  0
 12 23  2  0
 23  2  1  0
 22 18  2  0
  1 24  1  0
  1 25  1  0
  1 26  1  0
  3 27  1  0
 14 28  1  0
 14 29  1  0
 17 30  1  0
 19 31  1  0
 20 32  1  0
M  END
>  <Binding energies>  (1) 
[-6.7]

>  <Ligand effiencies>  (1) 
[-0.2791666666666667]

>  <Interactions>  (1) 
["V-B:PRO:540:N:9855, H-B:ALA:541:N:9862, V-B:ALA:541:CB:9863, V-B:PRO:540:CA:9854, V-B:TYR:539:C:9838, V-A:LEU:475:CD2:4258, V-A:PRO:482:CG:4326, V-A:ILE:369:CD1:3238, V-A:SER:385:C:3404, V-B:TYR:539:CD2:9845, V-A:ILE:369:CG2:3236, V-A:SER:385:CA:3406, V-A:GLY:454:CA:4048, H-B:TYR:539:N:9841, V-A:PRO:482:CB:4325, V-B:PRO:540:CB:9856, V-B:PRO:540:CD:9858, V-B:TYR:531:CE2:9764, V-B:LEU:363:CD1:8159, V-B:ILE:538:CD1:9836, V-B:ILE:538:CG2:9834, V-B:ILE:538:CA:9831, V-A:ILE:369:CB:3235, V-A:ILE:369:CG1:3237"]

$$$$
2j_Grossjean_2025
     RDKit          3D

 32 33  0  0  0  0  0  0  0  0999 V2000
  129.1220  122.4310   66.1370 C   0  0  0  0  0  0  0  0  0  0  0  0
  129.1730  122.4120   64.6200 C   0  0  0  0  0  0  0  0  0  0  0  0
  130.3040  121.9750   63.9340 C   0  0  0  0  0  0  0  0  0  0  0  0
  130.3020  121.9730   62.5320 C   0  0  0  0  0  0  0  0  0  0  0  0
  131.5610  121.4850   61.7890 C   0  0  0  0  0  0  0  0  0  0  0  0
  132.5410  121.2460   62.6610 F   0  0  0  0  0  0  0  0  0  0  0  0
  131.2910  120.3620   61.1220 F   0  0  0  0  0  0  0  0  0  0  0  0
  132.0170  122.3760   60.9060 F   0  0  0  0  0  0  0  0  0  0  0  0
  129.1400  122.4210   61.8560 C   0  0  0  0  0  0  0  0  0  0  0  0
  129.0820  122.4410   60.3910 C   0  0  0  0  0  0  0  0  0  0  0  0
  129.0370  122.4550   59.2340 N   0  0  0  0  0  0  0  0  0  0  0  0
  128.0360  122.8490   62.6320 C   0  0  0  0  0  0  0  0  0  0  0  0
  126.5200  123.4320   61.8880 S   0  0  0  0  0  0  0  0  0  0  0  0
  126.9220  124.8250   60.7800 C   0  0  0  0  0  0  0  0  0  0  0  0
  126.4310  124.6630   59.3340 C   0  0  0  0  0  0  0  0  0  0  0  0
  125.9330  125.6140   58.7280 O   0  0  0  0  0  0  0  0  0  0  0  0
  126.5810  123.4220   58.8210 N   0  0  0  0  0  0  0  0  0  0  0  0
  126.2250  123.0020   57.5460 C   0  0  0  0  0  0  0  0  0  0  0  0
  126.9500  122.3120   56.6920 N   0  0  0  0  0  0  0  0  0  0  0  0
  126.2940  122.0860   55.5700 C   0  0  0  0  0  0  0  0  0  0  0  0
  125.0030  122.6010   55.4970 C   0  0  0  0  0  0  0  0  0  0  0  0
  124.6390  123.4240   56.9850 S   0  0  0  0  0  0  0  0  0  0  0  0
  128.0570  122.8410   63.9900 N   0  0  0  0  0  0  0  0  0  0  0  0
  130.0809  122.0738   66.5406 H   0  0  0  0  0  0  0  0  0  0  0  0
  128.9376  123.4581   66.4848 H   0  0  0  0  0  0  0  0  0  0  0  0
  128.3105  121.7749   66.4848 H   0  0  0  0  0  0  0  0  0  0  0  0
  131.1913  121.6343   64.4878 H   0  0  0  0  0  0  0  0  0  0  0  0
  126.4656  125.7353   61.1960 H   0  0  0  0  0  0  0  0  0  0  0  0
  128.0198  124.8725   60.7297 H   0  0  0  0  0  0  0  0  0  0  0  0
  126.9920  122.7170   59.4160 H   0  0  0  0  0  0  0  0  0  0  0  0
  126.7422  121.5221   54.7387 H   0  0  0  0  0  0  0  0  0  0  0  0
  124.3233  122.5033   54.6376 H   0  0  0  0  0  0  0  0  0  0  0  0
  1  2  1  0
  2  3  2  0
  3  4  1  0
  4  5  1  0
  5  6  1  0
  5  7  1  0
  5  8  1  0
  4  9  2  0
  9 10  1  0
 10 11  3  0
  9 12  1  0
 12 13  1  0
 13 14  1  0
 14 15  1  0
 15 16  2  0
 15 17  1  0
 17 18  1  0
 18 19  2  0
 19 20  1  0
 20 21  2  0
 21 22  1  0
 12 23  2  0
 23  2  1  0
 22 18  1  0
  1 24  1  0
  1 25  1  0
  1 26  1  0
  3 27  1  0
 14 28  1  0
 14 29  1  0
 17 30  1  0
 20 31  1  0
 21 32  1  0
M  END
>  <Binding energies>  (1) 
[-5.81]

>  <Ligand effiencies>  (1) 
[-0.24208333333333332]

>  <Interactions>  (1) 
["V-B:GLU:543:CD:9879, V-B:PRO:540:N:9855, H-B:ALA:541:N:9862, V-B:ALA:541:CB:9863, V-B:PRO:540:CA:9854, V-B:ALA:541:CA:9861, V-B:TYR:539:C:9838, V-A:LEU:475:CD2:4258, H-B:TYR:539:O:9839, V-B:TYR:539:CD2:9845, V-B:TYR:539:CE2:9847, H-B:TYR:539:N:9841, V-B:MET:535:CE:9806, V-B:GLU:543:CG:9878, V-A:LEU:475:CD1:4257, V-B:PRO:540:CB:9856, V-B:TYR:531:CZ:9765, V-B:PRO:540:CD:9858, V-B:TYR:531:CE2:9764, V-B:LEU:363:CD1:8159, V-B:ILE:538:CD1:9836, V-B:ILE:538:CG2:9834, V-B:GLU:543:CB:9877, V-B:ILE:538:CA:9831, V-B:ILE:538:C:9829, V-B:ILE:538:CB:9833, V-A:TYR:484:CZ:4346, V-A:TYR:484:CE2:4345, H-B:TYR:531:OH:9766, V-B:MET:535:CG:9804, V-B:GLU:543:CA:9875"]

$$$$
2k_Grossjean_2025
     RDKit          3D

 50 50  0  0  0  0  0  0  0  0999 V2000
  133.2800  124.1680   59.2040 C   0  0  0  0  0  0  0  0  0  0  0  0
  133.2650  124.6570   57.8720 O   0  0  0  0  0  0  0  0  0  0  0  0
  132.6830  125.9490   57.7490 C   0  0  0  0  0  0  0  0  0  0  0  0
  132.2080  126.1690   56.3070 C   0  0  0  0  0  0  0  0  0  0  0  0
  130.8940  126.7060   56.3300 O   0  0  0  0  0  0  0  0  0  0  0  0
  129.8760  125.7510   56.6070 C   0  0  0  0  0  0  0  0  0  0  0  0
  129.0800  126.2310   57.8280 C   0  0  0  0  0  0  0  0  0  0  0  0
  128.3100  125.1370   58.3020 O   0  0  0  0  0  0  0  0  0  0  0  0
  129.0580  124.0770   58.8780 C   0  0  0  0  0  0  0  0  0  0  0  0
  128.4390  122.7350   58.4440 C   0  0  0  0  0  0  0  0  0  0  0  0
  127.0250  122.8510   58.0760 N   0  0  0  0  0  0  0  0  0  0  0  0
  126.5060  122.5700   56.8650 C   0  0  0  0  0  0  0  0  0  0  0  0
  127.1770  122.1470   55.9210 O   0  0  0  0  0  0  0  0  0  0  0  0
  125.0010  122.8300   56.7090 C   0  0  0  0  0  0  0  0  0  0  0  0
  124.1640  123.4950   58.1900 S   0  0  0  0  0  0  0  0  0  0  0  0
  124.9400  125.0330   58.6700 C   0  0  0  0  0  0  0  0  0  0  0  0
  124.7620  126.0730   57.8160 N   0  0  0  0  0  0  0  0  0  0  0  0
  125.3250  127.2660   58.1130 C   0  0  0  0  0  0  0  0  0  0  0  0
  125.0910  128.3730   57.1040 C   0  0  0  0  0  0  0  0  0  0  0  0
  126.0710  127.4770   59.2690 C   0  0  0  0  0  0  0  0  0  0  0  0
  126.2610  126.4180   60.1700 C   0  0  0  0  0  0  0  0  0  0  0  0
  127.0850  126.6700   61.4470 C   0  0  0  0  0  0  0  0  0  0  0  0
  126.3800  126.4810   62.5630 F   0  0  0  0  0  0  0  0  0  0  0  0
  128.1300  125.8420   61.4880 F   0  0  0  0  0  0  0  0  0  0  0  0
  127.5300  127.9270   61.4620 F   0  0  0  0  0  0  0  0  0  0  0  0
  125.6830  125.1590   59.8670 C   0  0  0  0  0  0  0  0  0  0  0  0
  125.8520  124.0170   60.7710 C   0  0  0  0  0  0  0  0  0  0  0  0
  125.9850  123.1160   61.4860 N   0  0  0  0  0  0  0  0  0  0  0  0
  133.2540  125.0147   59.9057 H   0  0  0  0  0  0  0  0  0  0  0  0
  132.4011  123.5276   59.3694 H   0  0  0  0  0  0  0  0  0  0  0  0
  134.1965  123.5827   59.3694 H   0  0  0  0  0  0  0  0  0  0  0  0
  131.8250  126.0298   58.4326 H   0  0  0  0  0  0  0  0  0  0  0  0
  133.4334  126.7116   58.0049 H   0  0  0  0  0  0  0  0  0  0  0  0
  132.8848  126.8718   55.7990 H   0  0  0  0  0  0  0  0  0  0  0  0
  132.2088  125.2116   55.7653 H   0  0  0  0  0  0  0  0  0  0  0  0
  129.2061  125.6600   55.7393 H   0  0  0  0  0  0  0  0  0  0  0  0
  130.3257  124.7682   56.8118 H   0  0  0  0  0  0  0  0  0  0  0  0
  129.7700  126.5713   58.6142 H   0  0  0  0  0  0  0  0  0  0  0  0
  128.4252  127.0711   57.5534 H   0  0  0  0  0  0  0  0  0  0  0  0
  130.1010  124.1312   58.5328 H   0  0  0  0  0  0  0  0  0  0  0  0
  129.0368  124.1594   59.9747 H   0  0  0  0  0  0  0  0  0  0  0  0
  128.9976  122.3554   57.5757 H   0  0  0  0  0  0  0  0  0  0  0  0
  128.5013  122.0500   59.3024 H   0  0  0  0  0  0  0  0  0  0  0  0
  126.4020  123.1780   58.7990 H   0  0  0  0  0  0  0  0  0  0  0  0
  124.8642  123.5507   55.8893 H   0  0  0  0  0  0  0  0  0  0  0  0
  124.5421  121.8491   56.5159 H   0  0  0  0  0  0  0  0  0  0  0  0
  124.8917  129.3161   57.6340 H   0  0  0  0  0  0  0  0  0  0  0  0
  125.9845  128.4888   56.4729 H   0  0  0  0  0  0  0  0  0  0  0  0
  124.2271  128.1173   56.4729 H   0  0  0  0  0  0  0  0  0  0  0  0
  126.5079  128.4654   59.4746 H   0  0  0  0  0  0  0  0  0  0  0  0
  1  2  1  0
  2  3  1  0
  3  4  1  0
  4  5  1  0
  5  6  1  0
  6  7  1  0
  7  8  1  0
  8  9  1  0
  9 10  1  0
 10 11  1  0
 11 12  1  0
 12 13  2  0
 12 14  1  0
 14 15  1  0
 15 16  1  0
 16 17  2  0
 17 18  1  0
 18 19  1  0
 18 20  2  0
 20 21  1  0
 21 22  1  0
 22 23  1  0
 22 24  1  0
 22 25  1  0
 21 26  2  0
 26 27  1  0
 27 28  3  0
 26 16  1  0
  1 29  1  0
  1 30  1  0
  1 31  1  0
  3 32  1  0
  3 33  1  0
  4 34  1  0
  4 35  1  0
  6 36  1  0
  6 37  1  0
  7 38  1  0
  7 39  1  0
  9 40  1  0
  9 41  1  0
 10 42  1  0
 10 43  1  0
 11 44  1  0
 14 45  1  0
 14 46  1  0
 19 47  1  0
 19 48  1  0
 19 49  1  0
 20 50  1  0
M  END
>  <Binding energies>  (1) 
[-5.49]

>  <Ligand effiencies>  (1) 
[-0.1893103448275862]

>  <Interactions>  (1) 
["V-A:ASP:366:CG:3212, V-A:ASP:366:CB:3211, H-A:TYR:531:OH:4794, V-A:TYR:531:CZ:4793, V-B:GLU:543:CD:9879, V-B:PRO:540:N:9855, H-B:ALA:541:N:9862, V-B:PRO:540:CA:9854, V-B:TYR:539:C:9838, V-A:ILE:369:CD1:3238, V-B:TYR:539:CD2:9845, V-A:ILE:369:CG2:3236, V-B:TYR:539:CE2:9847, H-B:TYR:539:N:9841, V-B:TYR:539:CG:9843, V-B:MET:535:CE:9806, H-B:TYR:539:OH:9849, V-B:TYR:539:CZ:9848, V-B:PRO:540:CB:9856, V-B:TYR:531:CZ:9765, V-B:PRO:540:CD:9858, V-B:TYR:531:CE2:9764, V-B:LEU:363:CD1:8159, V-B:ASP:366:CB:8182, H-B:TYR:531:OH:9766, V-A:TYR:531:CE1:4791, V-B:ASP:366:CG:8183, V-B:TYR:531:CE1:9763, V-A:ILE:369:CB:3235, V-A:ASP:366:CA:3209, V-A:ASP:366:C:3207, V-A:ASN:370:CB:3244, V-A:ASN:370:CG:3245"]

$$$$
3aa_Grossjean_2025
     RDKit          3D

 52 54  0  0  0  0  0  0  0  0999 V2000
  133.2820  126.1360   67.7600 C   0  0  0  0  0  0  0  0  0  0  0  0
  132.9740  126.2840   66.2660 C   0  0  0  0  0  0  0  0  0  0  0  0
  133.7800  125.3780   65.5240 O   0  0  0  0  0  0  0  0  0  0  0  0
  133.5170  125.1170   64.2180 C   0  0  0  0  0  0  0  0  0  0  0  0
  134.3940  125.0130   63.3540 O   0  0  0  0  0  0  0  0  0  0  0  0
  132.0500  124.9840   63.9230 C   0  0  0  0  0  0  0  0  0  0  0  0
  131.2940  123.8980   64.3870 C   0  0  0  0  0  0  0  0  0  0  0  0
  129.9350  123.8080   64.0990 C   0  0  0  0  0  0  0  0  0  0  0  0
  129.3030  124.8020   63.3490 C   0  0  0  0  0  0  0  0  0  0  0  0
  127.9250  124.6160   63.1180 N   0  0  0  0  0  0  0  0  0  0  0  0
  127.1630  123.5150   63.2960 C   0  0  0  0  0  0  0  0  0  0  0  0
  127.5700  122.4210   63.6890 O   0  0  0  0  0  0  0  0  0  0  0  0
  125.6810  123.6770   62.9570 C   0  0  0  0  0  0  0  0  0  0  0  0
  125.4400  124.5570   61.3840 S   0  0  0  0  0  0  0  0  0  0  0  0
  126.4990  123.7790   60.1850 C   0  0  0  0  0  0  0  0  0  0  0  0
  127.7390  123.5010   60.6540 N   0  0  0  0  0  0  0  0  0  0  0  0
  128.6500  122.9070   59.8390 C   0  0  0  0  0  0  0  0  0  0  0  0
  129.9940  122.6190   60.4360 C   0  0  0  0  0  0  0  0  0  0  0  0
  130.2170  121.4360   61.1580 C   0  0  0  0  0  0  0  0  0  0  0  0
  131.4630  121.1610   61.7150 C   0  0  0  0  0  0  0  0  0  0  0  0
  132.5050  122.0680   61.5570 C   0  0  0  0  0  0  0  0  0  0  0  0
  132.3110  123.2460   60.8440 C   0  0  0  0  0  0  0  0  0  0  0  0
  131.0640  123.5170   60.2860 C   0  0  0  0  0  0  0  0  0  0  0  0
  128.3230  122.5700   58.5220 C   0  0  0  0  0  0  0  0  0  0  0  0
  127.0510  122.8640   58.0080 C   0  0  0  0  0  0  0  0  0  0  0  0
  126.7330  122.4870   56.5490 C   0  0  0  0  0  0  0  0  0  0  0  0
  127.7690  121.9260   55.9220 F   0  0  0  0  0  0  0  0  0  0  0  0
  125.7240  121.6170   56.5070 F   0  0  0  0  0  0  0  0  0  0  0  0
  126.3910  123.5780   55.8620 F   0  0  0  0  0  0  0  0  0  0  0  0
  126.1100  123.4980   58.8560 C   0  0  0  0  0  0  0  0  0  0  0  0
  124.7860  123.8800   58.3570 C   0  0  0  0  0  0  0  0  0  0  0  0
  123.7410  124.1830   57.9620 N   0  0  0  0  0  0  0  0  0  0  0  0
  130.0560  125.8840   62.8700 C   0  0  0  0  0  0  0  0  0  0  0  0
  131.4140  125.9710   63.1570 C   0  0  0  0  0  0  0  0  0  0  0  0
  132.4444  126.5385   68.3487 H   0  0  0  0  0  0  0  0  0  0  0  0
  133.4223  125.0721   68.0018 H   0  0  0  0  0  0  0  0  0  0  0  0
  134.2003  126.6912   68.0018 H   0  0  0  0  0  0  0  0  0  0  0  0
  131.9118  126.0612   66.0868 H   0  0  0  0  0  0  0  0  0  0  0  0
  133.1915  127.3140   65.9471 H   0  0  0  0  0  0  0  0  0  0  0  0
  131.7787  123.1109   64.9833 H   0  0  0  0  0  0  0  0  0  0  0  0
  129.3550  122.9479   64.4648 H   0  0  0  0  0  0  0  0  0  0  0  0
  127.4610  125.4190   62.7180 H   0  0  0  0  0  0  0  0  0  0  0  0
  125.2221  122.6802   62.8812 H   0  0  0  0  0  0  0  0  0  0  0  0
  125.2105  124.2693   63.7556 H   0  0  0  0  0  0  0  0  0  0  0  0
  129.3954  120.7158   61.2855 H   0  0  0  0  0  0  0  0  0  0  0  0
  131.6225  120.2296   62.2780 H   0  0  0  0  0  0  0  0  0  0  0  0
  133.4890  121.8523   61.9988 H   0  0  0  0  0  0  0  0  0  0  0  0
  133.1384  123.9604   60.7213 H   0  0  0  0  0  0  0  0  0  0  0  0
  130.9147  124.4480   59.7194 H   0  0  0  0  0  0  0  0  0  0  0  0
  129.0679  122.0711   57.8847 H   0  0  0  0  0  0  0  0  0  0  0  0
  129.5715  126.6654   62.2661 H   0  0  0  0  0  0  0  0  0  0  0  0
  131.9959  126.8243   62.7785 H   0  0  0  0  0  0  0  0  0  0  0  0
  1  2  1  0
  2  3  1  0
  3  4  1  0
  4  5  2  0
  4  6  1  0
  6  7  2  0
  7  8  1  0
  8  9  2  0
  9 10  1  0
 10 11  1  0
 11 12  2  0
 11 13  1  0
 13 14  1  0
 14 15  1  0
 15 16  2  0
 16 17  1  0
 17 18  1  0
 18 19  2  0
 19 20  1  0
 20 21  2  0
 21 22  1  0
 22 23  2  0
 17 24  2  0
 24 25  1  0
 25 26  1  0
 26 27  1  0
 26 28  1  0
 26 29  1  0
 25 30  2  0
 30 31  1  0
 31 32  3  0
  9 33  1  0
 33 34  2  0
 34  6  1  0
 30 15  1  0
 23 18  1  0
  1 35  1  0
  1 36  1  0
  1 37  1  0
  2 38  1  0
  2 39  1  0
  7 40  1  0
  8 41  1  0
 10 42  1  0
 13 43  1  0
 13 44  1  0
 19 45  1  0
 20 46  1  0
 21 47  1  0
 22 48  1  0
 23 49  1  0
 24 50  1  0
 33 51  1  0
 34 52  1  0
M  END
>  <Binding energies>  (1) 
[-8.32]

>  <Ligand effiencies>  (1) 
[-0.2377142857142857]

>  <Interactions>  (1) 
["V-B:GLU:543:CD:9879, V-B:PRO:540:N:9855, H-B:ALA:541:N:9862, H-A:TYR:484:OH:4347, V-B:PRO:540:CA:9854, H-B:GLU:543:OE2:9881, H-B:GLU:543:OE1:9880, V-B:TYR:539:C:9838, V-A:LEU:475:CD2:4258, V-B:TYR:539:CD2:9845, V-B:TYR:539:CE2:9847, V-A:GLY:454:CA:4048, V-B:TYR:539:CG:9843, V-B:MET:535:CE:9806, V-B:TYR:539:CZ:9848, V-B:GLU:543:CG:9878, V-B:ALA:541:C:9859, V-B:PRO:540:CB:9856, H-A:GLY:454:N:4049, V-B:TYR:539:CA:9840, V-A:ARG:545:CD:4922, V-B:TYR:539:CD1:9844, V-B:TYR:531:CZ:9765, V-B:PRO:540:CD:9858, V-B:TYR:531:CE2:9764, V-B:LEU:363:CD1:8159, V-A:ARG:545:CZ:4925, V-A:ARG:545:CG:4921, V-A:HIS:456:CE1:4069, V-B:ILE:538:CG2:9834, V-A:HIS:456:CD2:4067, H-A:ARG:545:NH1:4926, H-B:ARG:545:NH2:9899, V-B:ILE:538:CA:9831, V-B:TYR:539:CE1:9846, V-B:ILE:538:C:9829, H-A:ARG:545:NE:4923, V-A:TYR:484:CZ:4346, V-B:MET:535:CG:9804, V-B:PRO:540:CG:9857"]

$$$$
3ab_Grossjean_2025
     RDKit          3D

 49 51  0  0  0  0  0  0  0  0999 V2000
  125.8110  122.2600   55.1420 C   0  0  0  0  0  0  0  0  0  0  0  0
  126.4930  122.2210   56.3890 O   0  0  0  0  0  0  0  0  0  0  0  0
  126.5020  123.2990   57.2140 C   0  0  0  0  0  0  0  0  0  0  0  0
  125.5220  124.0280   57.3920 O   0  0  0  0  0  0  0  0  0  0  0  0
  127.8240  123.5160   57.8920 C   0  0  0  0  0  0  0  0  0  0  0  0
  128.7410  124.4780   57.4420 C   0  0  0  0  0  0  0  0  0  0  0  0
  129.9590  124.6570   58.0920 C   0  0  0  0  0  0  0  0  0  0  0  0
  130.2830  123.8720   59.2090 C   0  0  0  0  0  0  0  0  0  0  0  0
  131.4800  123.9710   59.9450 N   0  0  0  0  0  0  0  0  0  0  0  0
  132.7420  124.1910   59.5200 C   0  0  0  0  0  0  0  0  0  0  0  0
  133.0870  124.3380   58.3480 O   0  0  0  0  0  0  0  0  0  0  0  0
  133.8030  124.2530   60.6210 C   0  0  0  0  0  0  0  0  0  0  0  0
  133.0990  124.7510   62.2220 S   0  0  0  0  0  0  0  0  0  0  0  0
  132.0020  123.4520   62.7510 C   0  0  0  0  0  0  0  0  0  0  0  0
  132.1300  122.3100   62.0340 N   0  0  0  0  0  0  0  0  0  0  0  0
  131.3580  121.2340   62.3330 C   0  0  0  0  0  0  0  0  0  0  0  0
  131.5630  120.0070   61.4940 C   0  0  0  0  0  0  0  0  0  0  0  0
  130.6070  118.9790   61.4790 C   0  0  0  0  0  0  0  0  0  0  0  0
  130.7910  117.8390   60.7010 C   0  0  0  0  0  0  0  0  0  0  0  0
  131.9400  117.7110   59.9260 C   0  0  0  0  0  0  0  0  0  0  0  0
  132.9040  118.7120   59.9260 C   0  0  0  0  0  0  0  0  0  0  0  0
  132.7160  119.8500   60.7050 C   0  0  0  0  0  0  0  0  0  0  0  0
  130.4120  121.2950   63.3630 C   0  0  0  0  0  0  0  0  0  0  0  0
  130.2470  122.4730   64.1070 C   0  0  0  0  0  0  0  0  0  0  0  0
  129.1910  122.5010   65.2280 C   0  0  0  0  0  0  0  0  0  0  0  0
  127.9720  122.8160   64.7830 F   0  0  0  0  0  0  0  0  0  0  0  0
  129.1050  121.3030   65.8100 F   0  0  0  0  0  0  0  0  0  0  0  0
  129.5290  123.4050   66.1490 F   0  0  0  0  0  0  0  0  0  0  0  0
  131.0580  123.5920   63.7920 C   0  0  0  0  0  0  0  0  0  0  0  0
  130.8870  124.8630   64.5000 C   0  0  0  0  0  0  0  0  0  0  0  0
  130.7500  125.8660   65.0610 N   0  0  0  0  0  0  0  0  0  0  0  0
  129.3710  122.9190   59.6630 C   0  0  0  0  0  0  0  0  0  0  0  0
  128.1540  122.7400   59.0110 C   0  0  0  0  0  0  0  0  0  0  0  0
  124.7271  122.3220   55.3187 H   0  0  0  0  0  0  0  0  0  0  0  0
  126.1404  123.1408   54.5713 H   0  0  0  0  0  0  0  0  0  0  0  0
  126.0379  121.3474   54.5713 H   0  0  0  0  0  0  0  0  0  0  0  0
  128.4950  125.0971   56.5667 H   0  0  0  0  0  0  0  0  0  0  0  0
  130.6687  125.4152   57.7293 H   0  0  0  0  0  0  0  0  0  0  0  0
  131.3650  123.8200   60.9360 H   0  0  0  0  0  0  0  0  0  0  0  0
  134.2609  123.2587   60.7288 H   0  0  0  0  0  0  0  0  0  0  0  0
  134.5495  125.0067   60.3300 H   0  0  0  0  0  0  0  0  0  0  0  0
  129.6984  119.0757   62.0914 H   0  0  0  0  0  0  0  0  0  0  0  0
  130.0317  117.0431   60.6989 H   0  0  0  0  0  0  0  0  0  0  0  0
  132.0860  116.8117   59.3095 H   0  0  0  0  0  0  0  0  0  0  0  0
  133.8113  118.6054   59.3133 H   0  0  0  0  0  0  0  0  0  0  0  0
  133.4820  120.6394   60.7033 H   0  0  0  0  0  0  0  0  0  0  0  0
  129.7941  120.4138   63.5905 H   0  0  0  0  0  0  0  0  0  0  0  0
  129.6151  122.3047   60.5422 H   0  0  0  0  0  0  0  0  0  0  0  0
  127.4453  121.9828   59.3775 H   0  0  0  0  0  0  0  0  0  0  0  0
  1  2  1  0
  2  3  1  0
  3  4  2  0
  3  5  1  0
  5  6  2  0
  6  7  1  0
  7  8  2  0
  8  9  1  0
  9 10  1  0
 10 11  2  0
 10 12  1  0
 12 13  1  0
 13 14  1  0
 14 15  2  0
 15 16  1  0
 16 17  1  0
 17 18  2  0
 18 19  1  0
 19 20  2  0
 20 21  1  0
 21 22  2  0
 16 23  2  0
 23 24  1  0
 24 25  1  0
 25 26  1  0
 25 27  1  0
 25 28  1  0
 24 29  2  0
 29 30  1  0
 30 31  3  0
  8 32  1  0
 32 33  2  0
 33  5  1  0
 29 14  1  0
 22 17  1  0
  1 34  1  0
  1 35  1  0
  1 36  1  0
  6 37  1  0
  7 38  1  0
  9 39  1  0
 12 40  1  0
 12 41  1  0
 18 42  1  0
 19 43  1  0
 20 44  1  0
 21 45  1  0
 22 46  1  0
 23 47  1  0
 32 48  1  0
 33 49  1  0
M  END
>  <Binding energies>  (1) 
[-8.41]

>  <Ligand effiencies>  (1) 
[-0.24735294117647058]

>  <Interactions>  (1) 
["V-A:ASP:366:CG:3212, V-A:ASP:366:CB:3211, V-B:GLU:543:CD:9879, V-B:PRO:540:N:9855, V-B:ALA:541:CB:9863, V-B:PRO:540:CA:9854, V-B:ALA:541:CA:9861, V-B:TYR:539:C:9838, V-A:LEU:475:CD2:4258, V-A:HIS:383:CE1:3393, V-A:ILE:369:CD1:3238, V-B:TYR:539:CD2:9845, V-A:ILE:369:CG2:3236, V-B:TYR:539:CE2:9847, V-B:TYR:539:CB:9842, V-A:SER:385:CA:3406, H-B:TYR:539:N:9841, V-B:MET:535:CE:9806, H-B:TYR:539:OH:9849, V-B:TYR:539:CZ:9848, V-B:GLU:543:CG:9878, V-A:LEU:475:CD1:4257, V-B:ALA:541:C:9859, V-B:TYR:531:CE2:9764, V-B:ILE:538:CD1:9836, V-B:ILE:538:CG2:9834, V-B:GLU:543:CB:9877, V-B:ILE:538:CA:9831, V-B:ILE:538:C:9829, V-B:ILE:538:CB:9833, V-A:TYR:484:CZ:4346, V-A:TYR:484:CE2:4345, H-B:TYR:531:OH:9766, V-B:MET:535:CG:9804, V-A:LEU:475:CG:4256"]

$$$$
3ac_Grossjean_2025
     RDKit          3D

 47 49  0  0  0  0  0  0  0  0999 V2000
  126.3120  122.0210   54.9790 C   0  0  0  0  0  0  0  0  0  0  0  0
  125.7180  123.1190   55.6640 O   0  0  0  0  0  0  0  0  0  0  0  0
  126.0330  123.3370   56.9910 C   0  0  0  0  0  0  0  0  0  0  0  0
  127.2910  122.9080   57.4110 C   0  0  0  0  0  0  0  0  0  0  0  0
  127.6990  123.0880   58.7290 C   0  0  0  0  0  0  0  0  0  0  0  0
  126.8460  123.6950   59.6530 C   0  0  0  0  0  0  0  0  0  0  0  0
  127.3530  123.8520   60.9560 N   0  0  0  0  0  0  0  0  0  0  0  0
  126.8040  123.4840   62.1340 C   0  0  0  0  0  0  0  0  0  0  0  0
  125.7360  122.8830   62.2640 O   0  0  0  0  0  0  0  0  0  0  0  0
  127.6050  123.8580   63.3810 C   0  0  0  0  0  0  0  0  0  0  0  0
  128.4900  122.4330   64.0840 S   0  0  0  0  0  0  0  0  0  0  0  0
  130.1420  122.3980   63.4150 C   0  0  0  0  0  0  0  0  0  0  0  0
  130.3760  121.3210   62.6270 N   0  0  0  0  0  0  0  0  0  0  0  0
  131.5910  121.1620   62.0410 C   0  0  0  0  0  0  0  0  0  0  0  0
  131.7690  119.9400   61.1910 C   0  0  0  0  0  0  0  0  0  0  0  0
  130.7960  118.9270   61.1750 C   0  0  0  0  0  0  0  0  0  0  0  0
  130.9530  117.7930   60.3830 C   0  0  0  0  0  0  0  0  0  0  0  0
  132.0910  117.6550   59.5950 C   0  0  0  0  0  0  0  0  0  0  0  0
  133.0720  118.6400   59.5950 C   0  0  0  0  0  0  0  0  0  0  0  0
  132.9110  119.7730   60.3890 C   0  0  0  0  0  0  0  0  0  0  0  0
  132.6150  122.0890   62.2540 C   0  0  0  0  0  0  0  0  0  0  0  0
  132.4070  123.2010   63.0830 C   0  0  0  0  0  0  0  0  0  0  0  0
  133.5650  124.1950   63.2950 C   0  0  0  0  0  0  0  0  0  0  0  0
  133.4400  125.3010   62.5590 F   0  0  0  0  0  0  0  0  0  0  0  0
  133.6210  124.5740   64.5730 F   0  0  0  0  0  0  0  0  0  0  0  0
  134.7220  123.6190   62.9650 F   0  0  0  0  0  0  0  0  0  0  0  0
  131.1390  123.3600   63.6980 C   0  0  0  0  0  0  0  0  0  0  0  0
  130.8990  124.4620   64.6320 C   0  0  0  0  0  0  0  0  0  0  0  0
  130.7100  125.3330   65.3710 N   0  0  0  0  0  0  0  0  0  0  0  0
  125.5800  124.1360   59.2370 C   0  0  0  0  0  0  0  0  0  0  0  0
  125.1760  123.9550   57.9170 C   0  0  0  0  0  0  0  0  0  0  0  0
  126.7023  121.2995   55.7118 H   0  0  0  0  0  0  0  0  0  0  0  0
  125.5563  121.5303   54.3480 H   0  0  0  0  0  0  0  0  0  0  0  0
  127.1362  122.3850   54.3480 H   0  0  0  0  0  0  0  0  0  0  0  0
  127.9682  122.4222   56.6931 H   0  0  0  0  0  0  0  0  0  0  0  0
  128.6974  122.7508   59.0443 H   0  0  0  0  0  0  0  0  0  0  0  0
  128.2780  124.2540   60.9990 H   0  0  0  0  0  0  0  0  0  0  0  0
  128.3383  124.6324   63.1116 H   0  0  0  0  0  0  0  0  0  0  0  0
  126.8969  124.2228   64.1397 H   0  0  0  0  0  0  0  0  0  0  0  0
  129.8956  119.0315   61.7982 H   0  0  0  0  0  0  0  0  0  0  0  0
  130.1807  117.0097   60.3803 H   0  0  0  0  0  0  0  0  0  0  0  0
  132.2155  116.7602   58.9675 H   0  0  0  0  0  0  0  0  0  0  0  0
  133.9707  118.5252   58.9712 H   0  0  0  0  0  0  0  0  0  0  0  0
  133.6901  120.5495   60.3883 H   0  0  0  0  0  0  0  0  0  0  0  0
  133.5913  121.9454   61.7679 H   0  0  0  0  0  0  0  0  0  0  0  0
  124.9058  124.6255   59.9552 H   0  0  0  0  0  0  0  0  0  0  0  0
  124.1807  124.2976   57.5975 H   0  0  0  0  0  0  0  0  0  0  0  0
  1  2  1  0
  2  3  1  0
  3  4  2  0
  4  5  1  0
  5  6  2  0
  6  7  1  0
  7  8  1  0
  8  9  2  0
  8 10  1  0
 10 11  1  0
 11 12  1  0
 12 13  2  0
 13 14  1  0
 14 15  1  0
 15 16  2  0
 16 17  1  0
 17 18  2  0
 18 19  1  0
 19 20  2  0
 14 21  2  0
 21 22  1  0
 22 23  1  0
 23 24  1  0
 23 25  1  0
 23 26  1  0
 22 27  2  0
 27 28  1  0
 28 29  3  0
  6 30  1  0
 30 31  2  0
 31  3  1  0
 27 12  1  0
 20 15  1  0
  1 32  1  0
  1 33  1  0
  1 34  1  0
  4 35  1  0
  5 36  1  0
  7 37  1  0
 10 38  1  0
 10 39  1  0
 16 40  1  0
 17 41  1  0
 18 42  1  0
 19 43  1  0
 20 44  1  0
 21 45  1  0
 30 46  1  0
 31 47  1  0
M  END
>  <Binding energies>  (1) 
[-8.97]

>  <Ligand effiencies>  (1) 
[-0.2803125]

>  <Interactions>  (1) 
["V-A:ASP:366:CG:3212, V-B:GLU:543:CD:9879, V-B:PRO:540:N:9855, H-B:ALA:541:N:9862, H-A:TYR:484:OH:4347, V-B:ALA:541:CB:9863, V-B:PRO:540:CA:9854, V-B:TYR:539:C:9838, V-A:LEU:475:CD2:4258, V-A:HIS:383:CE1:3393, V-A:ILE:369:CD1:3238, V-B:TYR:539:CD2:9845, V-A:ILE:369:CG2:3236, V-B:TYR:539:CE2:9847, V-B:TYR:539:CB:9842, V-A:SER:385:CA:3406, V-A:GLY:454:CA:4048, V-B:MET:535:CE:9806, V-B:GLU:543:CG:9878, V-B:PRO:540:CB:9856, V-A:GLY:453:C:4041, V-A:ARG:545:CZ:4925, V-B:ILE:538:CD1:9836, V-B:ILE:538:CG2:9834, V-B:ILE:538:CA:9831, V-A:GLY:453:CA:4043, V-B:ILE:538:C:9829, V-B:ILE:538:CB:9833, V-A:LEU:373:CD2:3280, H-B:TYR:531:OH:9766, V-B:MET:535:CG:9804, V-B:VAL:537:C:9821"]

$$$$
3ad_Grossjean_2025
     RDKit          3D

 43 45  0  0  0  0  0  0  0  0999 V2000
  130.8180  125.6460   64.6340 N   0  0  0  0  0  0  0  0  0  0  0  0
  130.9310  124.6280   64.0960 C   0  0  0  0  0  0  0  0  0  0  0  0
  131.0780  123.3380   63.4140 C   0  0  0  0  0  0  0  0  0  0  0  0
  132.3100  122.9700   62.8210 C   0  0  0  0  0  0  0  0  0  0  0  0
  133.5660  123.8590   62.8890 C   0  0  0  0  0  0  0  0  0  0  0  0
  133.5760  124.8140   61.9570 F   0  0  0  0  0  0  0  0  0  0  0  0
  133.6350  124.4580   64.0800 F   0  0  0  0  0  0  0  0  0  0  0  0
  134.6620  123.1190   62.7140 F   0  0  0  0  0  0  0  0  0  0  0  0
  132.3850  121.7450   62.1400 C   0  0  0  0  0  0  0  0  0  0  0  0
  131.2630  120.9150   62.0510 C   0  0  0  0  0  0  0  0  0  0  0  0
  131.2830  119.6040   61.3220 C   0  0  0  0  0  0  0  0  0  0  0  0
  130.2570  118.6640   61.5080 C   0  0  0  0  0  0  0  0  0  0  0  0
  130.2700  117.4460   60.8340 C   0  0  0  0  0  0  0  0  0  0  0  0
  131.3130  117.1500   59.9620 C   0  0  0  0  0  0  0  0  0  0  0  0
  132.3400  118.0650   59.7590 C   0  0  0  0  0  0  0  0  0  0  0  0
  132.3230  119.2830   60.4340 C   0  0  0  0  0  0  0  0  0  0  0  0
  130.0830  121.2760   62.6160 N   0  0  0  0  0  0  0  0  0  0  0  0
  129.9920  122.4430   63.2960 C   0  0  0  0  0  0  0  0  0  0  0  0
  128.3770  122.7460   63.9790 S   0  0  0  0  0  0  0  0  0  0  0  0
  127.6120  124.0650   62.9900 C   0  0  0  0  0  0  0  0  0  0  0  0
  126.9160  123.5210   61.7400 C   0  0  0  0  0  0  0  0  0  0  0  0
  125.8120  122.9880   61.8540 O   0  0  0  0  0  0  0  0  0  0  0  0
  127.5960  123.6760   60.5840 N   0  0  0  0  0  0  0  0  0  0  0  0
  127.2420  123.3070   59.2740 C   0  0  0  0  0  0  0  0  0  0  0  0
  125.9140  123.5570   58.9120 C   0  0  0  0  0  0  0  0  0  0  0  0
  125.4580  123.2260   57.6390 C   0  0  0  0  0  0  0  0  0  0  0  0
  126.3280  122.6390   56.7250 C   0  0  0  0  0  0  0  0  0  0  0  0
  127.6500  122.3770   57.0740 C   0  0  0  0  0  0  0  0  0  0  0  0
  128.1110  122.7070   58.3460 C   0  0  0  0  0  0  0  0  0  0  0  0
  133.3320  121.4359   61.6735 H   0  0  0  0  0  0  0  0  0  0  0  0
  129.4304  118.8933   62.1966 H   0  0  0  0  0  0  0  0  0  0  0  0
  129.4585  116.7201   60.9903 H   0  0  0  0  0  0  0  0  0  0  0  0
  131.3251  116.1870   59.4304 H   0  0  0  0  0  0  0  0  0  0  0  0
  133.1625  117.8278   59.0681 H   0  0  0  0  0  0  0  0  0  0  0  0
  133.1365  120.0048   60.2692 H   0  0  0  0  0  0  0  0  0  0  0  0
  126.8687  124.5871   63.6104 H   0  0  0  0  0  0  0  0  0  0  0  0
  128.4101  124.7472   62.6621 H   0  0  0  0  0  0  0  0  0  0  0  0
  128.5160  124.0860   60.6620 H   0  0  0  0  0  0  0  0  0  0  0  0
  125.2266  124.0175   59.6369 H   0  0  0  0  0  0  0  0  0  0  0  0
  124.4141  123.4276   57.3567 H   0  0  0  0  0  0  0  0  0  0  0  0
  125.9681  122.3799   55.7184 H   0  0  0  0  0  0  0  0  0  0  0  0
  128.3296  121.9099   56.3460 H   0  0  0  0  0  0  0  0  0  0  0  0
  129.1545  122.4983   58.6244 H   0  0  0  0  0  0  0  0  0  0  0  0
  1  2  3  0
  2  3  1  0
  3  4  2  0
  4  5  1  0
  5  6  1  0
  5  7  1  0
  5  8  1  0
  4  9  1  0
  9 10  2  0
 10 11  1  0
 11 12  2  0
 12 13  1  0
 13 14  2  0
 14 15  1  0
 15 16  2  0
 10 17  1  0
 17 18  2  0
 18 19  1  0
 19 20  1  0
 20 21  1  0
 21 22  2  0
 21 23  1  0
 23 24  1  0
 24 25  2  0
 25 26  1  0
 26 27  2  0
 27 28  1  0
 28 29  2  0
 18  3  1  0
 29 24  1  0
 16 11  1  0
  9 30  1  0
 12 31  1  0
 13 32  1  0
 14 33  1  0
 15 34  1  0
 16 35  1  0
 20 36  1  0
 20 37  1  0
 23 38  1  0
 25 39  1  0
 26 40  1  0
 27 41  1  0
 28 42  1  0
 29 43  1  0
M  END
>  <Binding energies>  (1) 
[-8.51]

>  <Ligand effiencies>  (1) 
[-0.2836666666666667]

>  <Interactions>  (1) 
["V-A:ASP:366:CG:3212, V-B:GLU:543:CD:9879, V-B:PRO:540:N:9855, H-B:ALA:541:N:9862, V-B:ALA:541:CB:9863, V-B:PRO:540:CA:9854, V-B:TYR:539:C:9838, V-A:LEU:475:CD2:4258, V-A:PRO:482:CG:4326, V-A:HIS:383:CE1:3393, V-A:ILE:369:CD1:3238, V-B:TYR:539:CD2:9845, V-B:TYR:539:CE2:9847, V-B:TYR:539:CB:9842, V-A:GLY:454:CA:4048, V-B:TYR:539:CG:9843, V-B:MET:535:CE:9806, V-B:TYR:539:CZ:9848, V-A:PRO:482:CB:4325, V-B:GLU:543:CG:9878, V-B:PRO:540:CB:9856, V-B:TYR:539:CA:9840, V-A:GLY:453:C:4041, V-B:TYR:539:CD1:9844, V-B:PRO:540:CD:9858, V-B:TYR:539:CE1:9846"]

$$$$
3af_Grossjean_2025
     RDKit          3D

 42 44  0  0  0  0  0  0  0  0999 V2000
  130.6230  125.6530   64.4640 N   0  0  0  0  0  0  0  0  0  0  0  0
  130.7750  124.6270   63.9520 C   0  0  0  0  0  0  0  0  0  0  0  0
  130.9700  123.3280   63.3030 C   0  0  0  0  0  0  0  0  0  0  0  0
  132.2600  122.9100   62.8960 C   0  0  0  0  0  0  0  0  0  0  0  0
  133.5260  123.7530   63.1470 C   0  0  0  0  0  0  0  0  0  0  0  0
  133.5930  124.2290   64.3930 F   0  0  0  0  0  0  0  0  0  0  0  0
  134.6150  123.0110   62.9420 F   0  0  0  0  0  0  0  0  0  0  0  0
  133.5520  124.7980   62.3200 F   0  0  0  0  0  0  0  0  0  0  0  0
  132.3890  121.6820   62.2290 C   0  0  0  0  0  0  0  0  0  0  0  0
  131.2610  120.8940   61.9750 C   0  0  0  0  0  0  0  0  0  0  0  0
  131.3390  119.5840   61.2500 C   0  0  0  0  0  0  0  0  0  0  0  0
  130.3400  118.6110   61.4180 C   0  0  0  0  0  0  0  0  0  0  0  0
  130.4050  117.3930   60.7460 C   0  0  0  0  0  0  0  0  0  0  0  0
  131.4730  117.1320   59.8950 C   0  0  0  0  0  0  0  0  0  0  0  0
  132.4740  118.0790   59.7080 C   0  0  0  0  0  0  0  0  0  0  0  0
  132.4050  119.2960   60.3820 C   0  0  0  0  0  0  0  0  0  0  0  0
  130.0260  121.3000   62.3630 N   0  0  0  0  0  0  0  0  0  0  0  0
  129.8790  122.4720   63.0290 C   0  0  0  0  0  0  0  0  0  0  0  0
  128.1900  122.8260   63.4690 S   0  0  0  0  0  0  0  0  0  0  0  0
  127.5780  124.1230   62.3510 C   0  0  0  0  0  0  0  0  0  0  0  0
  126.7320  123.5440   61.2170 C   0  0  0  0  0  0  0  0  0  0  0  0
  125.6670  122.9900   61.4880 O   0  0  0  0  0  0  0  0  0  0  0  0
  127.2480  123.6900   59.9780 N   0  0  0  0  0  0  0  0  0  0  0  0
  126.7330  123.2700   58.7360 C   0  0  0  0  0  0  0  0  0  0  0  0
  125.4390  123.5340   58.2510 C   0  0  0  0  0  0  0  0  0  0  0  0
  125.0590  123.0520   56.9960 C   0  0  0  0  0  0  0  0  0  0  0  0
  125.9840  122.3150   56.2550 C   0  0  0  0  0  0  0  0  0  0  0  0
  127.2370  122.0470   56.7000 N   0  0  0  0  0  0  0  0  0  0  0  0
  127.5910  122.5230   57.9210 C   0  0  0  0  0  0  0  0  0  0  0  0
  133.3818  121.3372   61.9043 H   0  0  0  0  0  0  0  0  0  0  0  0
  129.4936  118.8142   62.0905 H   0  0  0  0  0  0  0  0  0  0  0  0
  129.6150  116.6409   60.8879 H   0  0  0  0  0  0  0  0  0  0  0  0
  131.5266  116.1692   59.3657 H   0  0  0  0  0  0  0  0  0  0  0  0
  133.3155  117.8682   59.0317 H   0  0  0  0  0  0  0  0  0  0  0  0
  133.1980  120.0434   60.2321 H   0  0  0  0  0  0  0  0  0  0  0  0
  126.9636  124.8296   62.9283 H   0  0  0  0  0  0  0  0  0  0  0  0
  128.4478  124.6274   61.9048 H   0  0  0  0  0  0  0  0  0  0  0  0
  128.1290  124.1770   59.9170 H   0  0  0  0  0  0  0  0  0  0  0  0
  124.7299  124.1171   58.8570 H   0  0  0  0  0  0  0  0  0  0  0  0
  124.0518  123.2492   56.6002 H   0  0  0  0  0  0  0  0  0  0  0  0
  125.6839  121.9350   55.2673 H   0  0  0  0  0  0  0  0  0  0  0  0
  128.6055  122.3104   58.2891 H   0  0  0  0  0  0  0  0  0  0  0  0
  1  2  3  0
  2  3  1  0
  3  4  2  0
  4  5  1  0
  5  6  1  0
  5  7  1  0
  5  8  1  0
  4  9  1  0
  9 10  2  0
 10 11  1  0
 11 12  2  0
 12 13  1  0
 13 14  2  0
 14 15  1  0
 15 16  2  0
 10 17  1  0
 17 18  2  0
 18 19  1  0
 19 20  1  0
 20 21  1  0
 21 22  2  0
 21 23  1  0
 23 24  1  0
 24 25  2  0
 25 26  1  0
 26 27  2  0
 27 28  1  0
 28 29  2  0
 18  3  1  0
 29 24  1  0
 16 11  1  0
  9 30  1  0
 12 31  1  0
 13 32  1  0
 14 33  1  0
 15 34  1  0
 16 35  1  0
 20 36  1  0
 20 37  1  0
 23 38  1  0
 25 39  1  0
 26 40  1  0
 27 41  1  0
 29 42  1  0
M  END
>  <Binding energies>  (1) 
[-8.75]

>  <Ligand effiencies>  (1) 
[-0.2916666666666667]

>  <Interactions>  (1) 
["V-A:ASP:366:CG:3212, V-B:GLU:543:CD:9879, V-B:PRO:540:N:9855, H-B:ALA:541:N:9862, V-B:ALA:541:CB:9863, V-B:PRO:540:CA:9854, V-B:TYR:539:C:9838, V-A:LEU:475:CD2:4258, V-A:PRO:482:CG:4326, V-A:HIS:383:CE1:3393, V-A:ILE:369:CD1:3238, V-B:TYR:539:CD2:9845, V-B:TYR:539:CE2:9847, V-B:TYR:539:CB:9842, V-A:GLY:454:CA:4048, H-B:TYR:539:N:9841, V-B:TYR:539:CG:9843, V-B:MET:535:CE:9806, V-A:PRO:482:CB:4325, V-B:PRO:540:CB:9856, V-A:GLY:453:C:4041, V-B:PRO:540:CD:9858, V-B:TYR:531:CE2:9764, V-B:LEU:363:CD1:8159, V-B:ILE:538:CA:9831"]

$$$$
3ag_Grossjean_2025
     RDKit          3D

 46 48  0  0  0  0  0  0  0  0999 V2000
  131.4060  125.7330   64.4860 N   0  0  0  0  0  0  0  0  0  0  0  0
  131.4550  124.7010   63.9630 C   0  0  0  0  0  0  0  0  0  0  0  0
  131.5210  123.3950   63.3010 C   0  0  0  0  0  0  0  0  0  0  0  0
  132.7140  122.9610   62.6740 C   0  0  0  0  0  0  0  0  0  0  0  0
  134.0140  123.7880   62.6970 C   0  0  0  0  0  0  0  0  0  0  0  0
  135.1090  123.0290   62.7720 F   0  0  0  0  0  0  0  0  0  0  0  0
  134.1070  124.5180   61.5850 F   0  0  0  0  0  0  0  0  0  0  0  0
  134.0220  124.6030   63.7520 F   0  0  0  0  0  0  0  0  0  0  0  0
  132.7110  121.7260   62.0070 C   0  0  0  0  0  0  0  0  0  0  0  0
  131.5460  120.9530   61.9560 C   0  0  0  0  0  0  0  0  0  0  0  0
  131.4850  119.6300   61.2560 C   0  0  0  0  0  0  0  0  0  0  0  0
  130.4000  118.7610   61.4580 C   0  0  0  0  0  0  0  0  0  0  0  0
  130.3370  117.5300   60.8110 C   0  0  0  0  0  0  0  0  0  0  0  0
  131.3620  117.1490   59.9510 C   0  0  0  0  0  0  0  0  0  0  0  0
  132.4490  117.9900   59.7360 C   0  0  0  0  0  0  0  0  0  0  0  0
  132.5090  119.2200   60.3850 C   0  0  0  0  0  0  0  0  0  0  0  0
  130.4070  121.3670   62.5700 N   0  0  0  0  0  0  0  0  0  0  0  0
  130.3930  122.5470   63.2360 C   0  0  0  0  0  0  0  0  0  0  0  0
  128.8210  122.9250   63.9780 S   0  0  0  0  0  0  0  0  0  0  0  0
  127.7790  123.6710   62.6890 C   0  0  0  0  0  0  0  0  0  0  0  0
  128.0860  123.1090   61.3000 C   0  0  0  0  0  0  0  0  0  0  0  0
  128.0160  121.8950   61.0990 O   0  0  0  0  0  0  0  0  0  0  0  0
  128.4190  124.0040   60.3530 N   0  0  0  0  0  0  0  0  0  0  0  0
  128.7160  123.6900   58.9560 C   0  0  0  0  0  0  0  0  0  0  0  0
  127.4830  123.3970   58.1090 C   0  0  0  0  0  0  0  0  0  0  0  0
  127.6120  122.6630   56.9260 C   0  0  0  0  0  0  0  0  0  0  0  0
  126.4840  122.3670   56.1650 C   0  0  0  0  0  0  0  0  0  0  0  0
  125.2300  122.7980   56.5940 C   0  0  0  0  0  0  0  0  0  0  0  0
  125.0930  123.5170   57.7790 C   0  0  0  0  0  0  0  0  0  0  0  0
  126.2200  123.8120   58.5410 C   0  0  0  0  0  0  0  0  0  0  0  0
  133.6295  121.3640   61.5218 H   0  0  0  0  0  0  0  0  0  0  0  0
  129.5877  119.0577   62.1378 H   0  0  0  0  0  0  0  0  0  0  0  0
  129.4801  116.8611   60.9791 H   0  0  0  0  0  0  0  0  0  0  0  0
  131.3126  116.1772   59.4381 H   0  0  0  0  0  0  0  0  0  0  0  0
  133.2578  117.6843   59.0560 H   0  0  0  0  0  0  0  0  0  0  0  0
  133.3712  119.8813   60.2135 H   0  0  0  0  0  0  0  0  0  0  0  0
  126.7238  123.4708   62.9267 H   0  0  0  0  0  0  0  0  0  0  0  0
  127.9874  124.7509   62.6697 H   0  0  0  0  0  0  0  0  0  0  0  0
  128.4440  124.9820   60.6030 H   0  0  0  0  0  0  0  0  0  0  0  0
  129.2433  124.5480   58.5135 H   0  0  0  0  0  0  0  0  0  0  0  0
  129.3243  122.7735   58.9590 H   0  0  0  0  0  0  0  0  0  0  0  0
  128.6038  122.3196   56.5967 H   0  0  0  0  0  0  0  0  0  0  0  0
  126.5822  121.7959   55.2300 H   0  0  0  0  0  0  0  0  0  0  0  0
  124.3395  122.5680   55.9906 H   0  0  0  0  0  0  0  0  0  0  0  0
  124.0987  123.8502   58.1112 H   0  0  0  0  0  0  0  0  0  0  0  0
  126.1167  124.3713   59.4825 H   0  0  0  0  0  0  0  0  0  0  0  0
  1  2  3  0
  2  3  1  0
  3  4  2  0
  4  5  1  0
  5  6  1  0
  5  7  1  0
  5  8  1  0
  4  9  1  0
  9 10  2  0
 10 11  1  0
 11 12  2  0
 12 13  1  0
 13 14  2  0
 14 15  1  0
 15 16  2  0
 10 17  1  0
 17 18  2  0
 18 19  1  0
 19 20  1  0
 20 21  1  0
 21 22  2  0
 21 23  1  0
 23 24  1  0
 24 25  1  0
 25 26  2  0
 26 27  1  0
 27 28  2  0
 28 29  1  0
 29 30  2  0
 18  3  1  0
 30 25  1  0
 16 11  1  0
  9 31  1  0
 12 32  1  0
 13 33  1  0
 14 34  1  0
 15 35  1  0
 16 36  1  0
 20 37  1  0
 20 38  1  0
 23 39  1  0
 24 40  1  0
 24 41  1  0
 26 42  1  0
 27 43  1  0
 28 44  1  0
 29 45  1  0
 30 46  1  0
M  END
>  <Binding energies>  (1) 
[-8.38]

>  <Ligand effiencies>  (1) 
[-0.2703225806451613]

>  <Interactions>  (1) 
["V-A:ASP:366:CG:3212, V-B:GLU:543:CD:9879, V-B:PRO:540:N:9855, H-B:ALA:541:N:9862, V-B:ALA:541:CB:9863, V-B:PRO:540:CA:9854, V-B:TYR:539:C:9838, V-A:LEU:475:CD2:4258, V-A:PRO:482:CG:4326, V-A:HIS:383:CE1:3393, V-A:ILE:369:CD1:3238, V-B:TYR:539:CD2:9845, V-B:TYR:539:CE2:9847, V-B:TYR:539:CB:9842, V-A:GLY:454:CA:4048, V-B:TYR:539:CG:9843, V-B:MET:535:CE:9806, V-B:TYR:539:CZ:9848, V-A:PRO:482:CB:4325, V-B:PRO:540:CB:9856, V-A:GLY:453:C:4041, V-B:TYR:539:CD1:9844, V-B:PRO:540:CD:9858, V-B:TYR:531:CE2:9764, V-B:LEU:363:CD1:8159, V-B:ILE:538:CA:9831, V-A:GLY:453:CA:4043, V-B:TYR:539:CE1:9846"]

$$$$
3ai_Grossjean_2025
     RDKit          3D

 39 41  0  0  0  0  0  0  0  0999 V2000
  129.9810  125.6660   64.1340 N   0  0  0  0  0  0  0  0  0  0  0  0
  130.3190  124.6910   63.6110 C   0  0  0  0  0  0  0  0  0  0  0  0
  130.7470  123.4550   62.9490 C   0  0  0  0  0  0  0  0  0  0  0  0
  132.1230  123.1480   62.8080 C   0  0  0  0  0  0  0  0  0  0  0  0
  133.2380  124.0520   63.3680 C   0  0  0  0  0  0  0  0  0  0  0  0
  133.1070  125.3270   62.9960 F   0  0  0  0  0  0  0  0  0  0  0  0
  133.2230  124.0190   64.7020 F   0  0  0  0  0  0  0  0  0  0  0  0
  134.4280  123.6330   62.9390 F   0  0  0  0  0  0  0  0  0  0  0  0
  132.4820  121.9770   62.1240 C   0  0  0  0  0  0  0  0  0  0  0  0
  131.4980  121.1360   61.5950 C   0  0  0  0  0  0  0  0  0  0  0  0
  131.8240  119.8790   60.8470 C   0  0  0  0  0  0  0  0  0  0  0  0
  130.9990  118.7480   60.9510 C   0  0  0  0  0  0  0  0  0  0  0  0
  131.2930  117.5790   60.2560 C   0  0  0  0  0  0  0  0  0  0  0  0
  132.4200  117.5250   59.4420 C   0  0  0  0  0  0  0  0  0  0  0  0
  133.2530  118.6320   59.3200 C   0  0  0  0  0  0  0  0  0  0  0  0
  132.9550  119.8000   60.0160 C   0  0  0  0  0  0  0  0  0  0  0  0
  130.1800  121.4380   61.7250 N   0  0  0  0  0  0  0  0  0  0  0  0
  129.8080  122.5510   62.4020 C   0  0  0  0  0  0  0  0  0  0  0  0
  128.0430  122.7700   62.4900 S   0  0  0  0  0  0  0  0  0  0  0  0
  127.5400  123.8280   61.0910 C   0  0  0  0  0  0  0  0  0  0  0  0
  127.6120  123.1580   59.7110 C   0  0  0  0  0  0  0  0  0  0  0  0
  128.6230  122.5450   59.3600 O   0  0  0  0  0  0  0  0  0  0  0  0
  126.5010  123.3040   58.9540 N   0  0  0  0  0  0  0  0  0  0  0  0
  126.2820  122.8030   57.6770 C   0  0  0  0  0  0  0  0  0  0  0  0
  125.1150  123.0460   56.9530 C   0  0  0  0  0  0  0  0  0  0  0  0
  125.2890  122.3840   55.7600 C   0  0  0  0  0  0  0  0  0  0  0  0
  126.4980  121.7740   55.7640 O   0  0  0  0  0  0  0  0  0  0  0  0
  127.1180  122.0480   56.9840 N   0  0  0  0  0  0  0  0  0  0  0  0
  133.5444  121.7187   62.0030 H   0  0  0  0  0  0  0  0  0  0  0  0
  130.1060  118.7865   61.5921 H   0  0  0  0  0  0  0  0  0  0  0  0
  130.6370  116.7010   60.3498 H   0  0  0  0  0  0  0  0  0  0  0  0
  132.6535  116.6015   58.8918 H   0  0  0  0  0  0  0  0  0  0  0  0
  134.1436  118.5847   58.6762 H   0  0  0  0  0  0  0  0  0  0  0  0
  133.6145  120.6745   59.9142 H   0  0  0  0  0  0  0  0  0  0  0  0
  126.5013  124.1476   61.2612 H   0  0  0  0  0  0  0  0  0  0  0  0
  128.2555  124.6630   61.0647 H   0  0  0  0  0  0  0  0  0  0  0  0
  125.7360  123.8300   59.3510 H   0  0  0  0  0  0  0  0  0  0  0  0
  124.2437  123.6390   57.2680 H   0  0  0  0  0  0  0  0  0  0  0  0
  124.5624  122.3547   54.9347 H   0  0  0  0  0  0  0  0  0  0  0  0
  1  2  3  0
  2  3  1  0
  3  4  2  0
  4  5  1  0
  5  6  1  0
  5  7  1  0
  5  8  1  0
  4  9  1  0
  9 10  2  0
 10 11  1  0
 11 12  2  0
 12 13  1  0
 13 14  2  0
 14 15  1  0
 15 16  2  0
 10 17  1  0
 17 18  2  0
 18 19  1  0
 19 20  1  0
 20 21  1  0
 21 22  2  0
 21 23  1  0
 23 24  1  0
 24 25  1  0
 25 26  2  0
 26 27  1  0
 27 28  1  0
 18  3  1  0
 28 24  2  0
 16 11  1  0
  9 29  1  0
 12 30  1  0
 13 31  1  0
 14 32  1  0
 15 33  1  0
 16 34  1  0
 20 35  1  0
 20 36  1  0
 23 37  1  0
 25 38  1  0
 26 39  1  0
M  END
>  <Binding energies>  (1) 
[-8.55]

>  <Ligand effiencies>  (1) 
[-0.2948275862068966]

>  <Interactions>  (1) 
["V-A:ASP:366:CG:3212, V-B:PRO:540:N:9855, H-B:ALA:541:N:9862, V-B:ALA:541:CB:9863, V-B:PRO:540:CA:9854, V-B:TYR:539:C:9838, V-A:LEU:475:CD2:4258, V-A:HIS:383:CE1:3393, V-A:ILE:369:CD1:3238, V-B:TYR:539:CD2:9845, V-A:ILE:369:CG2:3236, V-B:TYR:539:CE2:9847, V-B:TYR:539:CB:9842, V-A:GLY:454:CA:4048, H-B:TYR:539:N:9841, V-B:PRO:540:CB:9856, V-A:GLY:453:C:4041, V-B:PRO:540:CD:9858, V-B:TYR:531:CE2:9764, V-B:LEU:363:CD1:8159, V-A:ARG:545:CZ:4925, V-B:ILE:538:CD1:9836, V-B:ILE:538:CG2:9834, V-B:ILE:538:CA:9831, V-A:GLY:453:CA:4043, V-A:LEU:373:CG:3278, V-A:LEU:373:CD2:3280, V-A:VAL:384:C:3396"]

$$$$
3aj_Grossjean_2025
     RDKit          3D

 39 41  0  0  0  0  0  0  0  0999 V2000
  129.4270  123.6770   64.0910 N   0  0  0  0  0  0  0  0  0  0  0  0
  128.9600  123.5680   63.0380 C   0  0  0  0  0  0  0  0  0  0  0  0
  128.3660  123.4320   61.7050 C   0  0  0  0  0  0  0  0  0  0  0  0
  126.9860  123.6770   61.4990 C   0  0  0  0  0  0  0  0  0  0  0  0
  126.0450  124.1380   62.6290 C   0  0  0  0  0  0  0  0  0  0  0  0
  126.2700  123.5000   63.7810 F   0  0  0  0  0  0  0  0  0  0  0  0
  126.2050  125.4420   62.8530 F   0  0  0  0  0  0  0  0  0  0  0  0
  124.7770  123.9100   62.2880 F   0  0  0  0  0  0  0  0  0  0  0  0
  126.4560  123.4870   60.2130 C   0  0  0  0  0  0  0  0  0  0  0  0
  127.2780  123.0590   59.1650 C   0  0  0  0  0  0  0  0  0  0  0  0
  126.7630  122.8310   57.7770 C   0  0  0  0  0  0  0  0  0  0  0  0
  125.4240  123.1020   57.4580 C   0  0  0  0  0  0  0  0  0  0  0  0
  124.9380  122.8950   56.1680 C   0  0  0  0  0  0  0  0  0  0  0  0
  125.7900  122.4130   55.1800 C   0  0  0  0  0  0  0  0  0  0  0  0
  127.1220  122.1380   55.4710 C   0  0  0  0  0  0  0  0  0  0  0  0
  127.6030  122.3470   56.7600 C   0  0  0  0  0  0  0  0  0  0  0  0
  128.5990  122.8180   59.3700 N   0  0  0  0  0  0  0  0  0  0  0  0
  129.1390  123.0180   60.5960 C   0  0  0  0  0  0  0  0  0  0  0  0
  130.8830  122.6730   60.6680 S   0  0  0  0  0  0  0  0  0  0  0  0
  131.7260  124.1740   61.2730 C   0  0  0  0  0  0  0  0  0  0  0  0
  132.1550  124.1280   62.7470 C   0  0  0  0  0  0  0  0  0  0  0  0
  132.1630  123.0640   63.3690 O   0  0  0  0  0  0  0  0  0  0  0  0
  132.5080  125.3240   63.2690 N   0  0  0  0  0  0  0  0  0  0  0  0
  132.9400  125.5670   64.5660 C   0  0  0  0  0  0  0  0  0  0  0  0
  134.1540  125.4270   65.0530 N   0  0  0  0  0  0  0  0  0  0  0  0
  134.2070  125.7530   66.3290 C   0  0  0  0  0  0  0  0  0  0  0  0
  133.0100  126.1700   66.9070 C   0  0  0  0  0  0  0  0  0  0  0  0
  131.7570  126.1270   65.7050 S   0  0  0  0  0  0  0  0  0  0  0  0
  125.3882  123.6758   60.0283 H   0  0  0  0  0  0  0  0  0  0  0  0
  124.7477  123.4834   58.2372 H   0  0  0  0  0  0  0  0  0  0  0  0
  123.8856  123.1118   55.9326 H   0  0  0  0  0  0  0  0  0  0  0  0
  125.4079  122.2482   54.1617 H   0  0  0  0  0  0  0  0  0  0  0  0
  127.7920  121.7572   54.6861 H   0  0  0  0  0  0  0  0  0  0  0  0
  128.6574  122.1299   56.9862 H   0  0  0  0  0  0  0  0  0  0  0  0
  132.6261  124.3302   60.6603 H   0  0  0  0  0  0  0  0  0  0  0  0
  130.9946  124.9915   61.1911 H   0  0  0  0  0  0  0  0  0  0  0  0
  132.4670  126.1290   62.6610 H   0  0  0  0  0  0  0  0  0  0  0  0
  135.1428  125.6989   66.9046 H   0  0  0  0  0  0  0  0  0  0  0  0
  132.8795  126.4769   67.9552 H   0  0  0  0  0  0  0  0  0  0  0  0
  1  2  3  0
  2  3  1  0
  3  4  2  0
  4  5  1  0
  5  6  1  0
  5  7  1  0
  5  8  1  0
  4  9  1  0
  9 10  2  0
 10 11  1  0
 11 12  2  0
 12 13  1  0
 13 14  2  0
 14 15  1  0
 15 16  2  0
 10 17  1  0
 17 18  2  0
 18 19  1  0
 19 20  1  0
 20 21  1  0
 21 22  2  0
 21 23  1  0
 23 24  1  0
 24 25  2  0
 25 26  1  0
 26 27  2  0
 27 28  1  0
 18  3  1  0
 28 24  1  0
 16 11  1  0
  9 29  1  0
 12 30  1  0
 13 31  1  0
 14 32  1  0
 15 33  1  0
 16 34  1  0
 20 35  1  0
 20 36  1  0
 23 37  1  0
 26 38  1  0
 27 39  1  0
M  END
>  <Binding energies>  (1) 
[-7.68]

>  <Ligand effiencies>  (1) 
[-0.26482758620689656]

>  <Interactions>  (1) 
["V-A:ASP:366:CG:3212, V-B:GLU:543:CD:9879, V-B:PRO:540:N:9855, H-A:TYR:484:OH:4347, V-B:PRO:540:CA:9854, V-B:ALA:541:CA:9861, V-B:TYR:539:C:9838, V-B:TYR:539:CD2:9845, V-B:TYR:539:CE2:9847, V-A:GLY:454:CA:4048, V-B:TYR:539:CG:9843, V-B:MET:535:CE:9806, V-B:TYR:539:CZ:9848, V-B:GLU:543:CG:9878, V-B:ALA:541:C:9859, V-B:PRO:540:CB:9856, H-A:GLY:454:N:4049, V-B:TYR:539:CA:9840, V-A:GLY:453:C:4041, V-A:ARG:545:CD:4922, V-B:TYR:539:CD1:9844, V-B:TYR:531:CZ:9765, V-B:PRO:540:CD:9858, V-B:TYR:531:CE2:9764, V-B:LEU:363:CD1:8159, V-A:ARG:545:CZ:4925, V-B:ILE:538:CD1:9836, V-A:ARG:545:CG:4921, V-A:HIS:456:CE1:4069, V-B:ILE:538:CG2:9834, H-A:ASP:366:OD2:3214, H-A:ARG:545:NH1:4926, H-A:ARG:545:NH2:4927, V-B:ILE:538:CA:9831, V-A:GLY:453:CA:4043, V-B:TYR:539:CE1:9846, V-B:ILE:538:C:9829, V-B:ILE:538:CB:9833, H-A:ARG:545:NE:4923, H-A:ASP:366:OD1:3213, V-B:MET:535:CG:9804"]

$$$$
3ak_Grossjean_2025
     RDKit          3D

 57 58  0  0  0  0  0  0  0  0999 V2000
  127.7290  122.3940   56.6950 C   0  0  0  0  0  0  0  0  0  0  0  0
  126.4940  121.6950   56.6650 O   0  0  0  0  0  0  0  0  0  0  0  0
  125.5080  122.3250   55.8600 C   0  0  0  0  0  0  0  0  0  0  0  0
  124.6760  123.2700   56.7370 C   0  0  0  0  0  0  0  0  0  0  0  0
  125.5490  124.1950   57.3770 O   0  0  0  0  0  0  0  0  0  0  0  0
  125.0010  124.8810   58.5000 C   0  0  0  0  0  0  0  0  0  0  0  0
  124.4330  123.9430   59.5820 C   0  0  0  0  0  0  0  0  0  0  0  0
  125.4970  123.4660   60.3930 O   0  0  0  0  0  0  0  0  0  0  0  0
  126.7760  123.5560   59.7780 C   0  0  0  0  0  0  0  0  0  0  0  0
  127.6720  124.5360   60.5580 C   0  0  0  0  0  0  0  0  0  0  0  0
  127.7180  124.2690   61.9970 N   0  0  0  0  0  0  0  0  0  0  0  0
  128.0320  123.0920   62.5730 C   0  0  0  0  0  0  0  0  0  0  0  0
  128.3390  122.0930   61.9220 O   0  0  0  0  0  0  0  0  0  0  0  0
  128.0070  122.9890   64.1070 C   0  0  0  0  0  0  0  0  0  0  0  0
  129.5330  122.3740   64.9100 S   0  0  0  0  0  0  0  0  0  0  0  0
  130.8470  122.3470   63.7000 C   0  0  0  0  0  0  0  0  0  0  0  0
  130.9060  121.2380   62.9230 N   0  0  0  0  0  0  0  0  0  0  0  0
  131.8730  121.1220   61.9790 C   0  0  0  0  0  0  0  0  0  0  0  0
  131.8640  119.8620   61.1640 C   0  0  0  0  0  0  0  0  0  0  0  0
  130.7910  118.9610   61.2490 C   0  0  0  0  0  0  0  0  0  0  0  0
  130.7750  117.7920   60.4930 C   0  0  0  0  0  0  0  0  0  0  0  0
  131.8340  117.5090   59.6370 C   0  0  0  0  0  0  0  0  0  0  0  0
  132.9080  118.3860   59.5320 C   0  0  0  0  0  0  0  0  0  0  0  0
  132.9210  119.5540   60.2890 C   0  0  0  0  0  0  0  0  0  0  0  0
  132.8080  122.1430   61.7810 C   0  0  0  0  0  0  0  0  0  0  0  0
  132.7690  123.3020   62.5690 C   0  0  0  0  0  0  0  0  0  0  0  0
  133.8170  124.4050   62.3230 C   0  0  0  0  0  0  0  0  0  0  0  0
  133.3420  125.5840   62.7240 F   0  0  0  0  0  0  0  0  0  0  0  0
  134.9330  124.1350   63.0020 F   0  0  0  0  0  0  0  0  0  0  0  0
  134.1520  124.5240   61.0360 F   0  0  0  0  0  0  0  0  0  0  0  0
  131.7630  123.4120   63.5590 C   0  0  0  0  0  0  0  0  0  0  0  0
  131.6740  124.6010   64.4140 C   0  0  0  0  0  0  0  0  0  0  0  0
  131.6030  125.5390   65.0890 N   0  0  0  0  0  0  0  0  0  0  0  0
  128.0289  122.5638   57.7396 H   0  0  0  0  0  0  0  0  0  0  0  0
  128.5000  121.7983   56.1843 H   0  0  0  0  0  0  0  0  0  0  0  0
  127.6152  123.3616   56.1843 H   0  0  0  0  0  0  0  0  0  0  0  0
  125.9973  122.8997   55.0598 H   0  0  0  0  0  0  0  0  0  0  0  0
  124.8540  121.5637   55.4097 H   0  0  0  0  0  0  0  0  0  0  0  0
  123.9550  123.8157   56.1107 H   0  0  0  0  0  0  0  0  0  0  0  0
  124.1285  122.6897   57.4943 H   0  0  0  0  0  0  0  0  0  0  0  0
  125.7939  125.4940   58.9533 H   0  0  0  0  0  0  0  0  0  0  0  0
  124.1622  125.4878   58.1281 H   0  0  0  0  0  0  0  0  0  0  0  0
  123.7137  124.4940   60.2057 H   0  0  0  0  0  0  0  0  0  0  0  0
  123.9237  123.0933   59.1038 H   0  0  0  0  0  0  0  0  0  0  0  0
  127.2461  122.5616   59.7695 H   0  0  0  0  0  0  0  0  0  0  0  0
  126.6545  123.9221   58.7478 H   0  0  0  0  0  0  0  0  0  0  0  0
  128.6944  124.4659   60.1583 H   0  0  0  0  0  0  0  0  0  0  0  0
  127.2408  125.5398   60.4295 H   0  0  0  0  0  0  0  0  0  0  0  0
  127.4970  125.0480   62.6000 H   0  0  0  0  0  0  0  0  0  0  0  0
  127.8009  123.9932   64.5060 H   0  0  0  0  0  0  0  0  0  0  0  0
  127.2355  122.2390   64.3356 H   0  0  0  0  0  0  0  0  0  0  0  0
  129.9502  119.1819   61.9230 H   0  0  0  0  0  0  0  0  0  0  0  0
  129.9279  117.0948   60.5724 H   0  0  0  0  0  0  0  0  0  0  0  0
  131.8219  116.5856   59.0393 H   0  0  0  0  0  0  0  0  0  0  0  0
  133.7435  118.1578   58.8538 H   0  0  0  0  0  0  0  0  0  0  0  0
  133.7710  120.2467   60.2015 H   0  0  0  0  0  0  0  0  0  0  0  0
  133.5781  122.0362   61.0029 H   0  0  0  0  0  0  0  0  0  0  0  0
  1  2  1  0
  2  3  1  0
  3  4  1  0
  4  5  1  0
  5  6  1  0
  6  7  1  0
  7  8  1  0
  8  9  1  0
  9 10  1  0
 10 11  1  0
 11 12  1  0
 12 13  2  0
 12 14  1  0
 14 15  1  0
 15 16  1  0
 16 17  2  0
 17 18  1  0
 18 19  1  0
 19 20  2  0
 20 21  1  0
 21 22  2  0
 22 23  1  0
 23 24  2  0
 18 25  2  0
 25 26  1  0
 26 27  1  0
 27 28  1  0
 27 29  1  0
 27 30  1  0
 26 31  2  0
 31 32  1  0
 32 33  3  0
 31 16  1  0
 24 19  1  0
  1 34  1  0
  1 35  1  0
  1 36  1  0
  3 37  1  0
  3 38  1  0
  4 39  1  0
  4 40  1  0
  6 41  1  0
  6 42  1  0
  7 43  1  0
  7 44  1  0
  9 45  1  0
  9 46  1  0
 10 47  1  0
 10 48  1  0
 11 49  1  0
 14 50  1  0
 14 51  1  0
 20 52  1  0
 21 53  1  0
 22 54  1  0
 23 55  1  0
 24 56  1  0
 25 57  1  0
M  END
>  <Binding energies>  (1) 
[-6.98]

>  <Ligand effiencies>  (1) 
[-0.20529411764705885]

>  <Interactions>  (1) 
["V-A:ASP:366:CG:3212, V-A:ASP:366:CB:3211, V-B:GLU:543:CD:9879, V-B:PRO:540:N:9855, H-B:ALA:541:N:9862, H-A:TYR:484:OH:4347, V-B:ALA:541:CB:9863, V-B:PRO:540:CA:9854, H-B:GLU:543:OE2:9881, V-B:ALA:541:CA:9861, H-B:GLU:543:OE1:9880, V-B:TYR:539:C:9838, V-A:LEU:475:CD2:4258, V-A:HIS:383:CE1:3393, V-A:ILE:369:CD1:3238, V-B:TYR:539:CD2:9845, V-A:ILE:369:CG2:3236, V-B:TYR:539:CE2:9847, V-B:TYR:539:CB:9842, V-A:SER:385:CA:3406, V-A:GLY:454:CA:4048, H-B:TYR:539:N:9841, V-B:TYR:539:CG:9843, V-B:MET:535:CE:9806, V-B:TYR:539:CZ:9848, V-B:GLU:543:CG:9878, V-B:ALA:541:C:9859, V-B:PRO:540:CB:9856, V-B:TYR:539:CA:9840, V-A:GLY:453:C:4041, V-B:TYR:539:CD1:9844, V-B:TYR:531:CZ:9765, V-B:PRO:540:CD:9858, V-B:TYR:531:CE2:9764, V-B:LEU:363:CD1:8159, V-A:ARG:545:CZ:4925, V-B:ILE:538:CD1:9836, V-B:ILE:538:CG2:9834, V-B:ILE:538:CA:9831, V-A:GLY:453:CA:4043, V-B:TYR:539:CE1:9846, V-A:LEU:373:CD2:3280, H-B:TYR:531:OH:9766, V-A:ASP:366:CA:3209"]

$$$$
3bc_Grossjean_2025
     RDKit          3D

 47 49  0  0  0  0  0  0  0  0999 V2000
  125.0960  122.3710   55.5230 C   0  0  0  0  0  0  0  0  0  0  0  0
  126.4560  122.3250   55.9380 O   0  0  0  0  0  0  0  0  0  0  0  0
  126.7770  122.6840   57.2340 C   0  0  0  0  0  0  0  0  0  0  0  0
  128.0750  122.3950   57.6550 C   0  0  0  0  0  0  0  0  0  0  0  0
  128.4910  122.7180   58.9440 C   0  0  0  0  0  0  0  0  0  0  0  0
  127.6080  123.3310   59.8350 C   0  0  0  0  0  0  0  0  0  0  0  0
  128.1210  123.6310   61.1100 N   0  0  0  0  0  0  0  0  0  0  0  0
  127.5220  123.5310   62.3160 C   0  0  0  0  0  0  0  0  0  0  0  0
  126.3810  123.1010   62.4980 O   0  0  0  0  0  0  0  0  0  0  0  0
  128.3930  123.9630   63.5040 C   0  0  0  0  0  0  0  0  0  0  0  0
  129.3410  122.6220   64.2990 S   0  0  0  0  0  0  0  0  0  0  0  0
  130.8560  122.4140   63.3910 C   0  0  0  0  0  0  0  0  0  0  0  0
  130.8700  121.3160   62.5960 N   0  0  0  0  0  0  0  0  0  0  0  0
  131.9670  121.0390   61.8440 C   0  0  0  0  0  0  0  0  0  0  0  0
  131.9090  119.7940   61.0080 C   0  0  0  0  0  0  0  0  0  0  0  0
  130.8450  118.8900   61.1420 C   0  0  0  0  0  0  0  0  0  0  0  0
  130.7850  117.7330   60.3690 C   0  0  0  0  0  0  0  0  0  0  0  0
  131.7940  117.4640   59.4500 C   0  0  0  0  0  0  0  0  0  0  0  0
  132.8620  118.3430   59.3000 C   0  0  0  0  0  0  0  0  0  0  0  0
  132.9180  119.4980   60.0760 C   0  0  0  0  0  0  0  0  0  0  0  0
  133.0900  121.8710   61.8760 C   0  0  0  0  0  0  0  0  0  0  0  0
  133.0830  123.0210   62.6740 C   0  0  0  0  0  0  0  0  0  0  0  0
  134.3250  123.9110   62.6650 C   0  0  0  0  0  0  0  0  0  0  0  0
  131.9410  123.3190   63.4480 C   0  0  0  0  0  0  0  0  0  0  0  0
  131.8930  124.5420   64.2520 C   0  0  0  0  0  0  0  0  0  0  0  0
  131.8580  125.5080   64.8870 N   0  0  0  0  0  0  0  0  0  0  0  0
  126.3050  123.6370   59.4150 C   0  0  0  0  0  0  0  0  0  0  0  0
  125.8930  123.3120   58.1250 C   0  0  0  0  0  0  0  0  0  0  0  0
  124.4431  122.3931   56.4080 H   0  0  0  0  0  0  0  0  0  0  0  0
  124.9270  123.2754   54.9200 H   0  0  0  0  0  0  0  0  0  0  0  0
  124.8663  121.4801   54.9200 H   0  0  0  0  0  0  0  0  0  0  0  0
  128.7766  121.9073   56.9622 H   0  0  0  0  0  0  0  0  0  0  0  0
  129.5191  122.4894   59.2615 H   0  0  0  0  0  0  0  0  0  0  0  0
  129.0940  123.9040   61.1150 H   0  0  0  0  0  0  0  0  0  0  0  0
  129.1074  124.7187   63.1454 H   0  0  0  0  0  0  0  0  0  0  0  0
  127.6998  124.3425   64.2692 H   0  0  0  0  0  0  0  0  0  0  0  0
  130.0458  119.0980   61.8686 H   0  0  0  0  0  0  0  0  0  0  0  0
  129.9430  117.0347   60.4848 H   0  0  0  0  0  0  0  0  0  0  0  0
  131.7472  116.5510   58.8383 H   0  0  0  0  0  0  0  0  0  0  0  0
  133.6580  118.1268   58.5722 H   0  0  0  0  0  0  0  0  0  0  0  0
  133.7653  120.1894   59.9575 H   0  0  0  0  0  0  0  0  0  0  0  0
  133.9773  121.6224   61.2753 H   0  0  0  0  0  0  0  0  0  0  0  0
  134.6280  124.1281   63.6999 H   0  0  0  0  0  0  0  0  0  0  0  0
  135.1437  123.3927   62.1443 H   0  0  0  0  0  0  0  0  0  0  0  0
  134.0974  124.8528   62.1443 H   0  0  0  0  0  0  0  0  0  0  0  0
  125.6078  124.1343   60.1054 H   0  0  0  0  0  0  0  0  0  0  0  0
  124.8684  123.5490   57.8024 H   0  0  0  0  0  0  0  0  0  0  0  0
  1  2  1  0
  2  3  1  0
  3  4  2  0
  4  5  1  0
  5  6  2  0
  6  7  1  0
  7  8  1  0
  8  9  2  0
  8 10  1  0
 10 11  1  0
 11 12  1  0
 12 13  2  0
 13 14  1  0
 14 15  1  0
 15 16  2  0
 16 17  1  0
 17 18  2  0
 18 19  1  0
 19 20  2  0
 14 21  2  0
 21 22  1  0
 22 23  1  0
 22 24  2  0
 24 25  1  0
 25 26  3  0
  6 27  1  0
 27 28  2  0
 28  3  1  0
 24 12  1  0
 20 15  1  0
  1 29  1  0
  1 30  1  0
  1 31  1  0
  4 32  1  0
  5 33  1  0
  7 34  1  0
 10 35  1  0
 10 36  1  0
 16 37  1  0
 17 38  1  0
 18 39  1  0
 19 40  1  0
 20 41  1  0
 21 42  1  0
 23 43  1  0
 23 44  1  0
 23 45  1  0
 27 46  1  0
 28 47  1  0
M  END
>  <Binding energies>  (1) 
[-9.71]

>  <Ligand effiencies>  (1) 
[-0.33482758620689657]

>  <Interactions>  (1) 
["V-B:GLU:543:CD:9879, V-B:PRO:540:N:9855, H-B:ALA:541:N:9862, H-A:TYR:484:OH:4347, V-B:PRO:540:CA:9854, V-B:TYR:539:C:9838, V-A:LEU:475:CD2:4258, V-A:HIS:383:CE1:3393, V-A:ILE:369:CD1:3238, V-B:TYR:539:CD2:9845, V-A:ILE:369:CG2:3236, V-B:TYR:539:CE2:9847, V-B:TYR:539:CB:9842, V-A:SER:385:CA:3406, V-A:GLY:454:CA:4048, H-B:TYR:539:N:9841, V-B:TYR:539:CG:9843, V-B:MET:535:CE:9806, V-B:TYR:539:CZ:9848, V-B:GLU:543:CG:9878, V-B:PRO:540:CB:9856, V-B:TYR:539:CA:9840, V-A:GLY:453:C:4041, V-B:TYR:539:CD1:9844, V-B:PRO:540:CD:9858, V-B:TYR:531:CE2:9764, V-B:LEU:363:CD1:8159, V-B:ILE:538:CD1:9836, V-B:ILE:538:CG2:9834, V-B:ILE:538:CA:9831, V-B:TYR:539:CE1:9846, V-B:ILE:538:CB:9833, V-A:LEU:373:CG:3278, V-A:LEU:373:CD2:3280, V-B:MET:535:CG:9804"]

$$$$
3bd_Grossjean_2025
     RDKit          3D

 43 45  0  0  0  0  0  0  0  0999 V2000
  134.0140  123.7650   62.9940 C   0  0  0  0  0  0  0  0  0  0  0  0
  132.7510  122.9230   62.8260 C   0  0  0  0  0  0  0  0  0  0  0  0
  132.8300  121.7550   62.0590 C   0  0  0  0  0  0  0  0  0  0  0  0
  131.6940  120.9590   61.8780 C   0  0  0  0  0  0  0  0  0  0  0  0
  131.7110  119.6940   61.0720 C   0  0  0  0  0  0  0  0  0  0  0  0
  132.7790  119.4090   60.2060 C   0  0  0  0  0  0  0  0  0  0  0  0
  132.8000  118.2370   59.4540 C   0  0  0  0  0  0  0  0  0  0  0  0
  131.7480  117.3320   59.5560 C   0  0  0  0  0  0  0  0  0  0  0  0
  130.6770  117.5920   60.4040 C   0  0  0  0  0  0  0  0  0  0  0  0
  130.6590  118.7650   61.1540 C   0  0  0  0  0  0  0  0  0  0  0  0
  130.5100  121.2970   62.4520 N   0  0  0  0  0  0  0  0  0  0  0  0
  130.4140  122.4260   63.1990 C   0  0  0  0  0  0  0  0  0  0  0  0
  128.8020  122.7630   63.8870 S   0  0  0  0  0  0  0  0  0  0  0  0
  128.0250  124.0690   62.8890 C   0  0  0  0  0  0  0  0  0  0  0  0
  127.2660  123.4990   61.6900 C   0  0  0  0  0  0  0  0  0  0  0  0
  126.2300  122.8620   61.8860 O   0  0  0  0  0  0  0  0  0  0  0  0
  127.8170  123.7370   60.4800 N   0  0  0  0  0  0  0  0  0  0  0  0
  127.3470  123.3710   59.2050 C   0  0  0  0  0  0  0  0  0  0  0  0
  126.0110  123.6750   58.9320 C   0  0  0  0  0  0  0  0  0  0  0  0
  125.4550  123.3430   57.6990 C   0  0  0  0  0  0  0  0  0  0  0  0
  126.2320  122.6960   56.7430 C   0  0  0  0  0  0  0  0  0  0  0  0
  127.5610  122.3750   57.0090 C   0  0  0  0  0  0  0  0  0  0  0  0
  128.1200  122.7070   58.2390 C   0  0  0  0  0  0  0  0  0  0  0  0
  131.5180  123.2780   63.4140 C   0  0  0  0  0  0  0  0  0  0  0  0
  131.4020  124.4940   64.2250 C   0  0  0  0  0  0  0  0  0  0  0  0
  131.3130  125.4540   64.8660 N   0  0  0  0  0  0  0  0  0  0  0  0
  134.2223  123.9039   64.0651 H   0  0  0  0  0  0  0  0  0  0  0  0
  134.8629  123.2515   62.5189 H   0  0  0  0  0  0  0  0  0  0  0  0
  133.8665  124.7461   62.5189 H   0  0  0  0  0  0  0  0  0  0  0  0
  133.7853  121.4629   61.5985 H   0  0  0  0  0  0  0  0  0  0  0  0
  133.6119  120.1224   60.1203 H   0  0  0  0  0  0  0  0  0  0  0  0
  133.6452  118.0275   58.7818 H   0  0  0  0  0  0  0  0  0  0  0  0
  131.7636  116.4059   58.9626 H   0  0  0  0  0  0  0  0  0  0  0  0
  129.8474  116.8739   60.4820 H   0  0  0  0  0  0  0  0  0  0  0  0
  129.8083  118.9680   61.8211 H   0  0  0  0  0  0  0  0  0  0  0  0
  127.3203  124.6280   63.5222 H   0  0  0  0  0  0  0  0  0  0  0  0
  128.8219  124.7237   62.5065 H   0  0  0  0  0  0  0  0  0  0  0  0
  128.7170  124.1940   60.4800 H   0  0  0  0  0  0  0  0  0  0  0  0
  125.3965  124.1780   59.6931 H   0  0  0  0  0  0  0  0  0  0  0  0
  124.4056  123.5913   57.4817 H   0  0  0  0  0  0  0  0  0  0  0  0
  125.7928  122.4358   55.7686 H   0  0  0  0  0  0  0  0  0  0  0  0
  128.1669  121.8604   56.2487 H   0  0  0  0  0  0  0  0  0  0  0  0
  129.1674  122.4493   58.4547 H   0  0  0  0  0  0  0  0  0  0  0  0
  1  2  1  0
  2  3  2  0
  3  4  1  0
  4  5  1  0
  5  6  2  0
  6  7  1  0
  7  8  2  0
  8  9  1  0
  9 10  2  0
  4 11  2  0
 11 12  1  0
 12 13  1  0
 13 14  1  0
 14 15  1  0
 15 16  2  0
 15 17  1  0
 17 18  1  0
 18 19  2  0
 19 20  1  0
 20 21  2  0
 21 22  1  0
 22 23  2  0
 12 24  2  0
 24 25  1  0
 25 26  3  0
 24  2  1  0
 10  5  1  0
 23 18  1  0
  1 27  1  0
  1 28  1  0
  1 29  1  0
  3 30  1  0
  6 31  1  0
  7 32  1  0
  8 33  1  0
  9 34  1  0
 10 35  1  0
 14 36  1  0
 14 37  1  0
 17 38  1  0
 19 39  1  0
 20 40  1  0
 21 41  1  0
 22 42  1  0
 23 43  1  0
M  END
>  <Binding energies>  (1) 
[-9.01]

>  <Ligand effiencies>  (1) 
[-0.33370370370370367]

>  <Interactions>  (1) 
["V-B:GLU:543:CD:9879, V-B:PRO:540:N:9855, H-B:ALA:541:N:9862, H-A:TYR:484:OH:4347, V-B:ALA:541:CB:9863, V-B:PRO:540:CA:9854, V-B:TYR:539:C:9838, V-A:LEU:475:CD2:4258, V-A:HIS:383:CE1:3393, V-A:ILE:369:CD1:3238, V-B:TYR:539:CD2:9845, V-A:ILE:369:CG2:3236, V-B:TYR:539:CE2:9847, V-B:TYR:539:CB:9842, V-A:GLY:454:CA:4048, V-B:TYR:539:CG:9843, V-B:MET:535:CE:9806, V-B:TYR:539:CZ:9848, V-B:PRO:540:CB:9856, V-B:TYR:539:CA:9840, V-A:GLY:453:C:4041, V-B:TYR:539:CD1:9844, V-B:PRO:540:CD:9858, V-B:TYR:539:CE1:9846, V-A:LEU:373:CD2:3280"]

$$$$
3be_Grossjean_2025
     RDKit          3D

 45 47  0  0  0  0  0  0  0  0999 V2000
  124.3520  123.8750   58.0840 C   0  0  0  0  0  0  0  0  0  0  0  0
  125.7810  123.4570   58.3680 C   0  0  0  0  0  0  0  0  0  0  0  0
  126.5590  122.8090   57.4040 C   0  0  0  0  0  0  0  0  0  0  0  0
  127.8660  122.4510   57.7360 C   0  0  0  0  0  0  0  0  0  0  0  0
  128.3600  122.7460   59.0090 C   0  0  0  0  0  0  0  0  0  0  0  0
  127.5290  123.4000   59.9260 C   0  0  0  0  0  0  0  0  0  0  0  0
  128.0810  123.6600   61.1940 N   0  0  0  0  0  0  0  0  0  0  0  0
  127.5150  123.5040   62.4110 C   0  0  0  0  0  0  0  0  0  0  0  0
  126.3680  123.0950   62.6020 O   0  0  0  0  0  0  0  0  0  0  0  0
  128.4210  123.8790   63.5940 C   0  0  0  0  0  0  0  0  0  0  0  0
  129.3860  122.5000   64.3000 S   0  0  0  0  0  0  0  0  0  0  0  0
  130.9060  122.3640   63.3850 C   0  0  0  0  0  0  0  0  0  0  0  0
  130.9580  121.2760   62.5770 N   0  0  0  0  0  0  0  0  0  0  0  0
  132.0620  121.0500   61.8160 C   0  0  0  0  0  0  0  0  0  0  0  0
  132.0450  119.8170   60.9610 C   0  0  0  0  0  0  0  0  0  0  0  0
  131.0200  118.8670   61.0910 C   0  0  0  0  0  0  0  0  0  0  0  0
  131.0000  117.7210   60.3030 C   0  0  0  0  0  0  0  0  0  0  0  0
  132.0090  117.5070   59.3700 C   0  0  0  0  0  0  0  0  0  0  0  0
  133.0370  118.4310   59.2220 C   0  0  0  0  0  0  0  0  0  0  0  0
  133.0540  119.5760   60.0130 C   0  0  0  0  0  0  0  0  0  0  0  0
  133.1530  121.9250   61.8560 C   0  0  0  0  0  0  0  0  0  0  0  0
  133.1050  123.0640   62.6660 C   0  0  0  0  0  0  0  0  0  0  0  0
  134.3130  124.0000   62.6640 C   0  0  0  0  0  0  0  0  0  0  0  0
  131.9550  123.3090   63.4470 C   0  0  0  0  0  0  0  0  0  0  0  0
  131.8620  124.5240   64.2590 C   0  0  0  0  0  0  0  0  0  0  0  0
  131.7910  125.4850   64.9010 N   0  0  0  0  0  0  0  0  0  0  0  0
  126.2480  123.7500   59.6080 N   0  0  0  0  0  0  0  0  0  0  0  0
  123.8198  124.0307   59.0340 H   0  0  0  0  0  0  0  0  0  0  0  0
  124.3517  124.8109   57.5059 H   0  0  0  0  0  0  0  0  0  0  0  0
  123.8474  123.0868   57.5059 H   0  0  0  0  0  0  0  0  0  0  0  0
  126.1503  122.5866   56.4072 H   0  0  0  0  0  0  0  0  0  0  0  0
  128.5036  121.9396   56.9999 H   0  0  0  0  0  0  0  0  0  0  0  0
  129.3875  122.4683   59.2868 H   0  0  0  0  0  0  0  0  0  0  0  0
  129.0170  124.0380   61.1760 H   0  0  0  0  0  0  0  0  0  0  0  0
  129.1280  124.6487   63.2508 H   0  0  0  0  0  0  0  0  0  0  0  0
  127.7507  124.2245   64.3948 H   0  0  0  0  0  0  0  0  0  0  0  0
  130.2199  119.0314   61.8277 H   0  0  0  0  0  0  0  0  0  0  0  0
  130.1891  116.9866   60.4173 H   0  0  0  0  0  0  0  0  0  0  0  0
  131.9935  116.6015   58.7457 H   0  0  0  0  0  0  0  0  0  0  0  0
  133.8333  118.2580   58.4831 H   0  0  0  0  0  0  0  0  0  0  0  0
  133.8702  120.3039   59.8943 H   0  0  0  0  0  0  0  0  0  0  0  0
  134.0478  121.7172   61.2508 H   0  0  0  0  0  0  0  0  0  0  0  0
  134.6039  124.2254   63.7006 H   0  0  0  0  0  0  0  0  0  0  0  0
  135.1524  123.5142   62.1450 H   0  0  0  0  0  0  0  0  0  0  0  0
  134.0522  124.9341   62.1450 H   0  0  0  0  0  0  0  0  0  0  0  0
  1  2  1  0
  2  3  2  0
  3  4  1  0
  4  5  2  0
  5  6  1  0
  6  7  1  0
  7  8  1  0
  8  9  2  0
  8 10  1  0
 10 11  1  0
 11 12  1  0
 12 13  2  0
 13 14  1  0
 14 15  1  0
 15 16  2  0
 16 17  1  0
 17 18  2  0
 18 19  1  0
 19 20  2  0
 14 21  2  0
 21 22  1  0
 22 23  1  0
 22 24  2  0
 24 25  1  0
 25 26  3  0
  6 27  2  0
 27  2  1  0
 24 12  1  0
 20 15  1  0
  1 28  1  0
  1 29  1  0
  1 30  1  0
  3 31  1  0
  4 32  1  0
  5 33  1  0
  7 34  1  0
 10 35  1  0
 10 36  1  0
 16 37  1  0
 17 38  1  0
 18 39  1  0
 19 40  1  0
 20 41  1  0
 21 42  1  0
 23 43  1  0
 23 44  1  0
 23 45  1  0
M  END
>  <Binding energies>  (1) 
[-9.13]

>  <Ligand effiencies>  (1) 
[-0.3260714285714286]

>  <Interactions>  (1) 
["V-A:ASP:366:CG:3212, V-B:GLU:543:CD:9879, V-B:PRO:540:N:9855, H-B:ALA:541:N:9862, H-A:TYR:484:OH:4347, V-B:PRO:540:CA:9854, V-B:TYR:539:C:9838, V-A:LEU:475:CD2:4258, V-A:HIS:383:CE1:3393, V-A:ILE:369:CD1:3238, V-B:TYR:539:CD2:9845, V-A:ILE:369:CG2:3236, V-B:TYR:539:CE2:9847, V-B:TYR:539:CB:9842, V-A:SER:385:CA:3406, V-A:GLY:454:CA:4048, V-B:TYR:539:CG:9843, V-B:TYR:539:CZ:9848, V-B:GLU:543:CG:9878, V-B:PRO:540:CB:9856, V-B:TYR:539:CA:9840, V-A:GLY:453:C:4041, V-B:TYR:539:CD1:9844, V-B:PRO:540:CD:9858, V-B:LEU:363:CD1:8159, V-A:LEU:373:CG:3278, V-A:LEU:373:CD2:3280"]

$$$$
3bf_Grossjean_2025
     RDKit          3D

 42 44  0  0  0  0  0  0  0  0999 V2000
  134.0010  123.5800   62.9670 C   0  0  0  0  0  0  0  0  0  0  0  0
  132.7160  122.7890   62.7310 C   0  0  0  0  0  0  0  0  0  0  0  0
  132.7960  121.6140   61.9770 C   0  0  0  0  0  0  0  0  0  0  0  0
  131.6450  120.8500   61.7490 C   0  0  0  0  0  0  0  0  0  0  0  0
  131.6670  119.5700   60.9690 C   0  0  0  0  0  0  0  0  0  0  0  0
  132.7200  119.2890   60.0840 C   0  0  0  0  0  0  0  0  0  0  0  0
  132.7470  118.1020   59.3560 C   0  0  0  0  0  0  0  0  0  0  0  0
  131.7170  117.1790   59.5040 C   0  0  0  0  0  0  0  0  0  0  0  0
  130.6630  117.4340   60.3740 C   0  0  0  0  0  0  0  0  0  0  0  0
  130.6380  118.6220   61.0990 C   0  0  0  0  0  0  0  0  0  0  0  0
  130.4420  121.2350   62.2510 N   0  0  0  0  0  0  0  0  0  0  0  0
  130.3450  122.3860   62.9620 C   0  0  0  0  0  0  0  0  0  0  0  0
  128.6950  122.7330   63.5340 S   0  0  0  0  0  0  0  0  0  0  0  0
  127.9810  124.0200   62.4550 C   0  0  0  0  0  0  0  0  0  0  0  0
  127.0850  123.4990   61.3220 C   0  0  0  0  0  0  0  0  0  0  0  0
  125.9370  123.1150   61.5540 O   0  0  0  0  0  0  0  0  0  0  0  0
  127.6500  123.5340   60.0960 N   0  0  0  0  0  0  0  0  0  0  0  0
  127.1100  123.1240   58.8630 C   0  0  0  0  0  0  0  0  0  0  0  0
  125.7970  123.5160   58.5780 C   0  0  0  0  0  0  0  0  0  0  0  0
  125.2090  123.1520   57.3650 C   0  0  0  0  0  0  0  0  0  0  0  0
  125.9610  122.4040   56.4590 C   0  0  0  0  0  0  0  0  0  0  0  0
  127.2390  122.0190   56.7030 N   0  0  0  0  0  0  0  0  0  0  0  0
  127.7970  122.3800   57.8870 C   0  0  0  0  0  0  0  0  0  0  0  0
  131.4670  123.1950   63.2470 C   0  0  0  0  0  0  0  0  0  0  0  0
  131.3700  124.3960   64.0810 C   0  0  0  0  0  0  0  0  0  0  0  0
  131.2950  125.3460   64.7380 N   0  0  0  0  0  0  0  0  0  0  0  0
  134.1730  123.6859   64.0483 H   0  0  0  0  0  0  0  0  0  0  0  0
  134.8486  123.0471   62.5113 H   0  0  0  0  0  0  0  0  0  0  0  0
  133.9069  124.5768   62.5113 H   0  0  0  0  0  0  0  0  0  0  0  0
  133.7624  121.2902   61.5633 H   0  0  0  0  0  0  0  0  0  0  0  0
  133.5358  120.0171   59.9638 H   0  0  0  0  0  0  0  0  0  0  0  0
  133.5792  117.8953   58.6670 H   0  0  0  0  0  0  0  0  0  0  0  0
  131.7365  116.2414   58.9291 H   0  0  0  0  0  0  0  0  0  0  0  0
  129.8520  116.6998   60.4890 H   0  0  0  0  0  0  0  0  0  0  0  0
  129.8005  118.8216   61.7837 H   0  0  0  0  0  0  0  0  0  0  0  0
  127.3794  124.6946   63.0819 H   0  0  0  0  0  0  0  0  0  0  0  0
  128.8326  124.5169   61.9672 H   0  0  0  0  0  0  0  0  0  0  0  0
  128.5680  123.9500   60.0340 H   0  0  0  0  0  0  0  0  0  0  0  0
  125.2289  124.1102   59.3088 H   0  0  0  0  0  0  0  0  0  0  0  0
  124.1762  123.4483   57.1292 H   0  0  0  0  0  0  0  0  0  0  0  0
  125.4975  122.1135   55.5047 H   0  0  0  0  0  0  0  0  0  0  0  0
  128.8342  122.0766   58.0923 H   0  0  0  0  0  0  0  0  0  0  0  0
  1  2  1  0
  2  3  2  0
  3  4  1  0
  4  5  1  0
  5  6  2  0
  6  7  1  0
  7  8  2  0
  8  9  1  0
  9 10  2  0
  4 11  2  0
 11 12  1  0
 12 13  1  0
 13 14  1  0
 14 15  1  0
 15 16  2  0
 15 17  1  0
 17 18  1  0
 18 19  2  0
 19 20  1  0
 20 21  2  0
 21 22  1  0
 22 23  2  0
 12 24  2  0
 24 25  1  0
 25 26  3  0
 24  2  1  0
 10  5  1  0
 23 18  1  0
  1 27  1  0
  1 28  1  0
  1 29  1  0
  3 30  1  0
  6 31  1  0
  7 32  1  0
  8 33  1  0
  9 34  1  0
 10 35  1  0
 14 36  1  0
 14 37  1  0
 17 38  1  0
 19 39  1  0
 20 40  1  0
 21 41  1  0
 23 42  1  0
M  END
>  <Binding energies>  (1) 
[-9.27]

>  <Ligand effiencies>  (1) 
[-0.3433333333333333]

>  <Interactions>  (1) 
["V-B:GLU:543:CD:9879, V-B:PRO:540:N:9855, H-B:ALA:541:N:9862, H-A:TYR:484:OH:4347, V-B:ALA:541:CB:9863, V-B:PRO:540:CA:9854, V-B:TYR:539:C:9838, V-A:LEU:475:CD2:4258, V-A:HIS:383:CE1:3393, V-A:ILE:369:CD1:3238, V-B:TYR:539:CD2:9845, V-A:ILE:369:CG2:3236, V-B:TYR:539:CE2:9847, V-B:TYR:539:CB:9842, V-A:GLY:454:CA:4048, H-B:TYR:539:N:9841, V-B:TYR:539:CG:9843, V-B:MET:535:CE:9806, V-B:PRO:540:CB:9856, V-B:TYR:539:CA:9840, V-A:GLY:453:C:4041, V-B:PRO:540:CD:9858, V-B:LEU:363:CD1:8159, V-A:LEU:373:CD2:3280, V-A:HIS:383:CG:3389"]

$$$$
3bg_Grossjean_2025
     RDKit          3D

 46 48  0  0  0  0  0  0  0  0999 V2000
  134.7570  124.2320   62.6510 C   0  0  0  0  0  0  0  0  0  0  0  0
  133.5560  123.2950   62.7570 C   0  0  0  0  0  0  0  0  0  0  0  0
  133.5130  122.1770   61.9200 C   0  0  0  0  0  0  0  0  0  0  0  0
  132.4330  121.2870   61.9900 C   0  0  0  0  0  0  0  0  0  0  0  0
  132.3310  120.0600   61.1270 C   0  0  0  0  0  0  0  0  0  0  0  0
  133.3210  119.7590   60.1770 C   0  0  0  0  0  0  0  0  0  0  0  0
  133.2400  118.6150   59.3880 C   0  0  0  0  0  0  0  0  0  0  0  0
  132.1610  117.7500   59.5350 C   0  0  0  0  0  0  0  0  0  0  0  0
  131.1600  118.0290   60.4580 C   0  0  0  0  0  0  0  0  0  0  0  0
  131.2440  119.1750   61.2430 C   0  0  0  0  0  0  0  0  0  0  0  0
  131.4270  121.4910   62.8830 N   0  0  0  0  0  0  0  0  0  0  0  0
  131.4550  122.5710   63.7050 C   0  0  0  0  0  0  0  0  0  0  0  0
  130.0920  122.7040   64.8530 S   0  0  0  0  0  0  0  0  0  0  0  0
  128.8240  123.7830   64.1120 C   0  0  0  0  0  0  0  0  0  0  0  0
  128.1590  123.1300   62.8970 C   0  0  0  0  0  0  0  0  0  0  0  0
  126.9380  122.9780   62.8740 O   0  0  0  0  0  0  0  0  0  0  0  0
  128.9790  122.7290   61.9090 N   0  0  0  0  0  0  0  0  0  0  0  0
  128.5840  121.9270   60.7510 C   0  0  0  0  0  0  0  0  0  0  0  0
  127.8990  122.7720   59.6840 C   0  0  0  0  0  0  0  0  0  0  0  0
  127.1290  123.8790   60.0550 C   0  0  0  0  0  0  0  0  0  0  0  0
  126.4960  124.6450   59.0810 C   0  0  0  0  0  0  0  0  0  0  0  0
  126.6430  124.3100   57.7360 C   0  0  0  0  0  0  0  0  0  0  0  0
  127.4250  123.2210   57.3570 C   0  0  0  0  0  0  0  0  0  0  0  0
  128.0580  122.4540   58.3320 C   0  0  0  0  0  0  0  0  0  0  0  0
  132.5040  123.5130   63.6720 C   0  0  0  0  0  0  0  0  0  0  0  0
  132.5240  124.6720   64.5680 C   0  0  0  0  0  0  0  0  0  0  0  0
  132.5420  125.5870   65.2750 N   0  0  0  0  0  0  0  0  0  0  0  0
  135.1022  124.5013   63.6601 H   0  0  0  0  0  0  0  0  0  0  0  0
  135.5695  123.7267   62.1083 H   0  0  0  0  0  0  0  0  0  0  0  0
  134.4645  125.1430   62.1083 H   0  0  0  0  0  0  0  0  0  0  0  0
  134.3286  121.9952   61.2047 H   0  0  0  0  0  0  0  0  0  0  0  0
  134.1761  120.4399   60.0543 H   0  0  0  0  0  0  0  0  0  0  0  0
  134.0266  118.3960   58.6509 H   0  0  0  0  0  0  0  0  0  0  0  0
  132.0995  116.8413   58.9182 H   0  0  0  0  0  0  0  0  0  0  0  0
  130.3044  117.3464   60.5676 H   0  0  0  0  0  0  0  0  0  0  0  0
  130.4455  119.3927   61.9676 H   0  0  0  0  0  0  0  0  0  0  0  0
  128.0534  123.9969   64.8672 H   0  0  0  0  0  0  0  0  0  0  0  0
  129.3165  124.7073   63.7758 H   0  0  0  0  0  0  0  0  0  0  0  0
  129.9690  122.8910   62.0170 H   0  0  0  0  0  0  0  0  0  0  0  0
  129.4818  121.4636   60.3160 H   0  0  0  0  0  0  0  0  0  0  0  0
  127.8701  121.1628   61.0921 H   0  0  0  0  0  0  0  0  0  0  0  0
  127.0237  124.1443   61.1173 H   0  0  0  0  0  0  0  0  0  0  0  0
  125.8825  125.5108   59.3710 H   0  0  0  0  0  0  0  0  0  0  0  0
  126.1367  124.9112   56.9664 H   0  0  0  0  0  0  0  0  0  0  0  0
  127.5419  122.9682   56.2928 H   0  0  0  0  0  0  0  0  0  0  0  0
  128.6831  121.5979   58.0382 H   0  0  0  0  0  0  0  0  0  0  0  0
  1  2  1  0
  2  3  2  0
  3  4  1  0
  4  5  1  0
  5  6  2  0
  6  7  1  0
  7  8  2  0
  8  9  1  0
  9 10  2  0
  4 11  2  0
 11 12  1  0
 12 13  1  0
 13 14  1  0
 14 15  1  0
 15 16  2  0
 15 17  1  0
 17 18  1  0
 18 19  1  0
 19 20  2  0
 20 21  1  0
 21 22  2  0
 22 23  1  0
 23 24  2  0
 12 25  2  0
 25 26  1  0
 26 27  3  0
 25  2  1  0
 10  5  1  0
 24 19  1  0
  1 28  1  0
  1 29  1  0
  1 30  1  0
  3 31  1  0
  6 32  1  0
  7 33  1  0
  8 34  1  0
  9 35  1  0
 10 36  1  0
 14 37  1  0
 14 38  1  0
 17 39  1  0
 18 40  1  0
 18 41  1  0
 20 42  1  0
 21 43  1  0
 22 44  1  0
 23 45  1  0
 24 46  1  0
M  END
>  <Binding energies>  (1) 
[-8.35]

>  <Ligand effiencies>  (1) 
[-0.2982142857142857]

>  <Interactions>  (1) 
["V-A:ASP:366:CG:3212, V-B:GLU:543:CD:9879, V-B:PRO:540:N:9855, H-B:ALA:541:N:9862, H-A:TYR:484:OH:4347, V-B:ALA:541:CB:9863, V-B:PRO:540:CA:9854, V-B:PRO:540:C:9852, V-B:TYR:539:C:9838, V-A:LEU:475:CD2:4258, V-A:HIS:383:CE1:3393, V-A:ILE:369:CD1:3238, V-B:TYR:539:CD2:9845, V-A:ILE:369:CG2:3236, V-B:TYR:539:CE2:9847, V-B:TYR:539:CB:9842, V-A:SER:385:CA:3406, V-A:GLY:454:CA:4048, V-B:TYR:539:CG:9843, V-B:MET:535:CE:9806, V-B:GLU:543:CG:9878, V-A:GLY:453:C:4041, V-A:GLY:453:CA:4043, V-A:LEU:373:CG:3278, V-A:LEU:373:CD2:3280, V-A:VAL:384:C:3396"]

$$$$
3bk_Grossjean_2025
     RDKit          3D

 57 58  0  0  0  0  0  0  0  0999 V2000
  126.3940  122.3730   55.1240 C   0  0  0  0  0  0  0  0  0  0  0  0
  125.7010  123.3260   55.9160 O   0  0  0  0  0  0  0  0  0  0  0  0
  125.0980  122.7670   57.0750 C   0  0  0  0  0  0  0  0  0  0  0  0
  124.5670  123.8920   57.9730 C   0  0  0  0  0  0  0  0  0  0  0  0
  125.1020  123.7440   59.2810 O   0  0  0  0  0  0  0  0  0  0  0  0
  125.7860  124.8960   59.7560 C   0  0  0  0  0  0  0  0  0  0  0  0
  127.0260  125.1430   58.8870 C   0  0  0  0  0  0  0  0  0  0  0  0
  128.1730  124.6140   59.5400 O   0  0  0  0  0  0  0  0  0  0  0  0
  128.6030  123.3610   59.0220 C   0  0  0  0  0  0  0  0  0  0  0  0
  128.5020  122.2930   60.1200 C   0  0  0  0  0  0  0  0  0  0  0  0
  128.8050  122.8290   61.4490 N   0  0  0  0  0  0  0  0  0  0  0  0
  127.8970  123.1990   62.3670 C   0  0  0  0  0  0  0  0  0  0  0  0
  126.6790  123.1100   62.1990 O   0  0  0  0  0  0  0  0  0  0  0  0
  128.4450  123.7300   63.6930 C   0  0  0  0  0  0  0  0  0  0  0  0
  129.6070  122.5610   64.4670 S   0  0  0  0  0  0  0  0  0  0  0  0
  131.0690  122.4360   63.4510 C   0  0  0  0  0  0  0  0  0  0  0  0
  131.1310  121.3560   62.6320 N   0  0  0  0  0  0  0  0  0  0  0  0
  132.2090  121.1760   61.8230 C   0  0  0  0  0  0  0  0  0  0  0  0
  132.1880  119.9690   60.9350 C   0  0  0  0  0  0  0  0  0  0  0  0
  131.1570  119.0220   61.0360 C   0  0  0  0  0  0  0  0  0  0  0  0
  131.1350  117.8950   60.2170 C   0  0  0  0  0  0  0  0  0  0  0  0
  132.1470  117.7010   59.2830 C   0  0  0  0  0  0  0  0  0  0  0  0
  133.1780  118.6270   59.1600 C   0  0  0  0  0  0  0  0  0  0  0  0
  133.1950  119.7520   59.9790 C   0  0  0  0  0  0  0  0  0  0  0  0
  133.2620  122.0980   61.8170 C   0  0  0  0  0  0  0  0  0  0  0  0
  133.2150  123.2170   62.6560 C   0  0  0  0  0  0  0  0  0  0  0  0
  134.3860  124.1980   62.6180 C   0  0  0  0  0  0  0  0  0  0  0  0
  132.0980  123.4020   63.4970 C   0  0  0  0  0  0  0  0  0  0  0  0
  132.0200  124.5650   64.3850 C   0  0  0  0  0  0  0  0  0  0  0  0
  131.9590  125.4840   65.0870 N   0  0  0  0  0  0  0  0  0  0  0  0
  126.9132  121.6590   55.7802 H   0  0  0  0  0  0  0  0  0  0  0  0
  125.6765  121.8326   54.4891 H   0  0  0  0  0  0  0  0  0  0  0  0
  127.1292  122.8890   54.4891 H   0  0  0  0  0  0  0  0  0  0  0  0
  124.2651  122.1139   56.7754 H   0  0  0  0  0  0  0  0  0  0  0  0
  125.8457  122.1801   57.6286 H   0  0  0  0  0  0  0  0  0  0  0  0
  124.8707  124.8653   57.5602 H   0  0  0  0  0  0  0  0  0  0  0  0
  123.4691  123.8398   58.0170 H   0  0  0  0  0  0  0  0  0  0  0  0
  125.1186  125.7686   59.7006 H   0  0  0  0  0  0  0  0  0  0  0  0
  126.0932  124.7380   60.8004 H   0  0  0  0  0  0  0  0  0  0  0  0
  126.8966  124.6474   57.9135 H   0  0  0  0  0  0  0  0  0  0  0  0
  127.1570  126.2242   58.7324 H   0  0  0  0  0  0  0  0  0  0  0  0
  127.9640  123.0761   58.1732 H   0  0  0  0  0  0  0  0  0  0  0  0
  129.6465  123.4422   58.6836 H   0  0  0  0  0  0  0  0  0  0  0  0
  127.4790  121.8888   60.1268 H   0  0  0  0  0  0  0  0  0  0  0  0
  129.2426  121.5109   59.8967 H   0  0  0  0  0  0  0  0  0  0  0  0
  129.7840  122.8790   61.6910 H   0  0  0  0  0  0  0  0  0  0  0  0
  128.9679  124.6797   63.5065 H   0  0  0  0  0  0  0  0  0  0  0  0
  127.5970  123.8712   64.3793 H   0  0  0  0  0  0  0  0  0  0  0  0
  130.3542  119.1718   61.7729 H   0  0  0  0  0  0  0  0  0  0  0  0
  130.3204  117.1616   60.3088 H   0  0  0  0  0  0  0  0  0  0  0  0
  132.1322  116.8102   58.6378 H   0  0  0  0  0  0  0  0  0  0  0  0
  133.9758  118.4707   58.4190 H   0  0  0  0  0  0  0  0  0  0  0  0
  134.0101  120.4835   59.8764 H   0  0  0  0  0  0  0  0  0  0  0  0
  134.1256  121.9432   61.1535 H   0  0  0  0  0  0  0  0  0  0  0  0
  134.6867  124.4500   63.6457 H   0  0  0  0  0  0  0  0  0  0  0  0
  135.2339  123.7366   62.0905 H   0  0  0  0  0  0  0  0  0  0  0  0
  134.0803  125.1136   62.0905 H   0  0  0  0  0  0  0  0  0  0  0  0
  1  2  1  0
  2  3  1  0
  3  4  1  0
  4  5  1  0
  5  6  1  0
  6  7  1  0
  7  8  1  0
  8  9  1  0
  9 10  1  0
 10 11  1  0
 11 12  1  0
 12 13  2  0
 12 14  1  0
 14 15  1  0
 15 16  1  0
 16 17  2  0
 17 18  1  0
 18 19  1  0
 19 20  2  0
 20 21  1  0
 21 22  2  0
 22 23  1  0
 23 24  2  0
 18 25  2  0
 25 26  1  0
 26 27  1  0
 26 28  2  0
 28 29  1  0
 29 30  3  0
 28 16  1  0
 24 19  1  0
  1 31  1  0
  1 32  1  0
  1 33  1  0
  3 34  1  0
  3 35  1  0
  4 36  1  0
  4 37  1  0
  6 38  1  0
  6 39  1  0
  7 40  1  0
  7 41  1  0
  9 42  1  0
  9 43  1  0
 10 44  1  0
 10 45  1  0
 11 46  1  0
 14 47  1  0
 14 48  1  0
 20 49  1  0
 21 50  1  0
 22 51  1  0
 23 52  1  0
 24 53  1  0
 25 54  1  0
 27 55  1  0
 27 56  1  0
 27 57  1  0
M  END
>  <Binding energies>  (1) 
[-7.54]

>  <Ligand effiencies>  (1) 
[-0.2432258064516129]

>  <Interactions>  (1) 
["V-A:ASP:366:CG:3212, V-B:GLU:543:CD:9879, V-B:PRO:540:N:9855, H-B:ALA:541:N:9862, H-A:TYR:484:OH:4347, V-B:PRO:540:CA:9854, V-B:TYR:539:C:9838, V-A:LEU:475:CD2:4258, V-A:HIS:383:CE1:3393, V-A:ILE:369:CD1:3238, V-B:TYR:539:CD2:9845, V-A:ILE:369:CG2:3236, V-B:TYR:539:CE2:9847, V-B:TYR:539:CB:9842, V-A:SER:385:CA:3406, V-A:GLY:454:CA:4048, V-A:LEU:373:CD1:3279, V-B:TYR:539:CG:9843, V-B:MET:535:CE:9806, V-B:GLU:543:CG:9878, V-B:PRO:540:CB:9856, V-A:GLY:453:C:4041, V-B:PRO:540:CD:9858, V-B:LEU:363:CD1:8159, V-B:ILE:538:CD1:9836, V-B:ILE:538:CA:9831, V-A:GLY:453:CA:4043, V-B:ILE:538:C:9829, V-A:LEU:373:CG:3278, V-A:LEU:373:CD2:3280, H-B:TYR:531:OH:9766, V-B:MET:535:CG:9804, V-B:PRO:540:CG:9857"]

$$$$
3ca_Grossjean_2025
     RDKit          3D

 52 54  0  0  0  0  0  0  0  0999 V2000
  124.9500  129.1430   62.5450 C   0  0  0  0  0  0  0  0  0  0  0  0
  123.6790  129.7990   63.0900 C   0  0  0  0  0  0  0  0  0  0  0  0
  123.7430  129.8480   64.5110 O   0  0  0  0  0  0  0  0  0  0  0  0
  124.7310  130.5280   65.1450 C   0  0  0  0  0  0  0  0  0  0  0  0
  125.0600  131.6820   64.8510 O   0  0  0  0  0  0  0  0  0  0  0  0
  125.3830  129.7400   66.2450 C   0  0  0  0  0  0  0  0  0  0  0  0
  126.7780  129.6260   66.2710 C   0  0  0  0  0  0  0  0  0  0  0  0
  127.4110  128.9020   67.2780 C   0  0  0  0  0  0  0  0  0  0  0  0
  126.6630  128.2720   68.2730 C   0  0  0  0  0  0  0  0  0  0  0  0
  127.4020  127.5680   69.2430 N   0  0  0  0  0  0  0  0  0  0  0  0
  126.9720  126.8830   70.3250 C   0  0  0  0  0  0  0  0  0  0  0  0
  125.7960  126.7350   70.6530 O   0  0  0  0  0  0  0  0  0  0  0  0
  128.0750  126.2370   71.1710 C   0  0  0  0  0  0  0  0  0  0  0  0
  128.0730  126.8020   72.9050 S   0  0  0  0  0  0  0  0  0  0  0  0
  129.4940  126.1360   73.7620 C   0  0  0  0  0  0  0  0  0  0  0  0
  129.4720  124.7970   73.9830 N   0  0  0  0  0  0  0  0  0  0  0  0
  130.5230  124.2220   74.6080 C   0  0  0  0  0  0  0  0  0  0  0  0
  130.4320  122.7220   74.8020 C   0  0  0  0  0  0  0  0  0  0  0  0
  131.6240  124.9520   75.0490 C   0  0  0  0  0  0  0  0  0  0  0  0
  131.6620  126.3380   74.8480 C   0  0  0  0  0  0  0  0  0  0  0  0
  132.8570  127.0820   75.3500 C   0  0  0  0  0  0  0  0  0  0  0  0
  133.9960  127.2070   74.5450 C   0  0  0  0  0  0  0  0  0  0  0  0
  135.1170  127.8900   75.0080 C   0  0  0  0  0  0  0  0  0  0  0  0
  135.1060  128.4480   76.2840 C   0  0  0  0  0  0  0  0  0  0  0  0
  133.9840  128.3270   77.1000 C   0  0  0  0  0  0  0  0  0  0  0  0
  132.8640  127.6420   76.6340 C   0  0  0  0  0  0  0  0  0  0  0  0
  130.5730  126.9520   74.1780 C   0  0  0  0  0  0  0  0  0  0  0  0
  130.5800  128.3910   73.8940 C   0  0  0  0  0  0  0  0  0  0  0  0
  130.5870  129.5270   73.6710 N   0  0  0  0  0  0  0  0  0  0  0  0
  125.2650  128.3880   68.2600 C   0  0  0  0  0  0  0  0  0  0  0  0
  124.6340  129.1150   67.2530 C   0  0  0  0  0  0  0  0  0  0  0  0
  125.5826  128.8165   63.3836 H   0  0  0  0  0  0  0  0  0  0  0  0
  124.6785  128.2724   61.9299 H   0  0  0  0  0  0  0  0  0  0  0  0
  125.5023  129.8686   61.9299 H   0  0  0  0  0  0  0  0  0  0  0  0
  123.5936  130.8206   62.6912 H   0  0  0  0  0  0  0  0  0  0  0  0
  122.8017  129.2111   62.7823 H   0  0  0  0  0  0  0  0  0  0  0  0
  127.3794  130.1127   65.4890 H   0  0  0  0  0  0  0  0  0  0  0  0
  128.5083  128.8263   67.2891 H   0  0  0  0  0  0  0  0  0  0  0  0
  128.3950  127.5390   69.0650 H   0  0  0  0  0  0  0  0  0  0  0  0
  127.9320  125.1464   71.1583 H   0  0  0  0  0  0  0  0  0  0  0  0
  129.0394  126.5320   70.7318 H   0  0  0  0  0  0  0  0  0  0  0  0
  130.4180  122.4916   75.8775 H   0  0  0  0  0  0  0  0  0  0  0  0
  129.5095  122.3471   74.3347 H   0  0  0  0  0  0  0  0  0  0  0  0
  131.3025  122.2384   74.3347 H   0  0  0  0  0  0  0  0  0  0  0  0
  132.4592  124.4431   75.5524 H   0  0  0  0  0  0  0  0  0  0  0  0
  134.0049  126.7620   73.5391 H   0  0  0  0  0  0  0  0  0  0  0  0
  136.0071  127.9885   74.3693 H   0  0  0  0  0  0  0  0  0  0  0  0
  135.9910  128.9889   76.6504 H   0  0  0  0  0  0  0  0  0  0  0  0
  133.9821  128.7698   78.1069 H   0  0  0  0  0  0  0  0  0  0  0  0
  131.9788  127.5401   77.2790 H   0  0  0  0  0  0  0  0  0  0  0  0
  124.6663  127.9043   69.0459 H   0  0  0  0  0  0  0  0  0  0  0  0
  123.5373  129.1998   67.2483 H   0  0  0  0  0  0  0  0  0  0  0  0
  1  2  1  0
  2  3  1  0
  3  4  1  0
  4  5  2  0
  4  6  1  0
  6  7  2  0
  7  8  1  0
  8  9  2  0
  9 10  1  0
 10 11  1  0
 11 12  2  0
 11 13  1  0
 13 14  1  0
 14 15  1  0
 15 16  2  0
 16 17  1  0
 17 18  1  0
 17 19  2  0
 19 20  1  0
 20 21  1  0
 21 22  2  0
 22 23  1  0
 23 24  2  0
 24 25  1  0
 25 26  2  0
 20 27  2  0
 27 28  1  0
 28 29  3  0
  9 30  1  0
 30 31  2  0
 31  6  1  0
 27 15  1  0
 26 21  1  0
  1 32  1  0
  1 33  1  0
  1 34  1  0
  2 35  1  0
  2 36  1  0
  7 37  1  0
  8 38  1  0
 10 39  1  0
 13 40  1  0
 13 41  1  0
 18 42  1  0
 18 43  1  0
 18 44  1  0
 19 45  1  0
 22 46  1  0
 23 47  1  0
 24 48  1  0
 25 49  1  0
 26 50  1  0
 30 51  1  0
 31 52  1  0
M  END
>  <Binding energies>  (1) 
[-8.44]

>  <Ligand effiencies>  (1) 
[-0.26375]

>  <Interactions>  (1) 
["V-B:GLU:543:CD:9879, H-B:GLU:543:OE2:9881, V-A:HIS:456:CE1:4069, V-B:GLU:543:CB:9877, V-B:HIS:456:CE1:9040, H-B:LYS:547:NZ:9922, V-A:HIS:456:CD2:4067, V-B:ARG:545:CD:9894, V-B:GLU:543:C:9873, V-B:ARG:545:CG:9893, H-A:LYS:547:NZ:4950, V-A:LYS:547:CE:4949, H-B:ARG:545:N:9891, H-B:ARG:545:NH2:9899, H-B:TYR:484:OH:9318, V-B:GLY:544:C:9883, V-B:ASP:366:CG:8183, V-B:ARG:545:CZ:9897, V-A:HIS:456:CB:4064, V-A:VAL:457:C:4072, V-A:HIS:456:CA:4062, V-A:LYS:547:CD:4948, V-A:HIS:456:CG:4065, V-A:VAL:458:CG2:4086, H-B:HIS:456:ND1:9037, V-B:GLY:454:CA:9019, H-B:GLY:454:N:9020, H-B:ARG:545:NH1:9898, V-A:LYS:547:CG:4947, V-A:LYS:547:CB:4946, V-A:ARG:545:C:4916"]

$$$$
3cb_Grossjean_2025
     RDKit          3D

 49 51  0  0  0  0  0  0  0  0999 V2000
  126.1230  122.2480   54.9190 C   0  0  0  0  0  0  0  0  0  0  0  0
  126.7580  122.2350   56.1890 O   0  0  0  0  0  0  0  0  0  0  0  0
  126.6360  123.2840   57.0430 C   0  0  0  0  0  0  0  0  0  0  0  0
  125.6020  123.9470   57.1630 O   0  0  0  0  0  0  0  0  0  0  0  0
  127.8880  123.5590   57.8270 C   0  0  0  0  0  0  0  0  0  0  0  0
  128.2490  122.7920   58.9450 C   0  0  0  0  0  0  0  0  0  0  0  0
  129.4170  123.0730   59.6480 C   0  0  0  0  0  0  0  0  0  0  0  0
  130.2450  124.1250   59.2550 C   0  0  0  0  0  0  0  0  0  0  0  0
  131.4030  124.3170   60.0350 N   0  0  0  0  0  0  0  0  0  0  0  0
  132.7050  124.3000   59.6760 C   0  0  0  0  0  0  0  0  0  0  0  0
  133.1180  124.1200   58.5290 O   0  0  0  0  0  0  0  0  0  0  0  0
  133.6880  124.5490   60.8300 C   0  0  0  0  0  0  0  0  0  0  0  0
  133.0120  124.2340   62.4970 S   0  0  0  0  0  0  0  0  0  0  0  0
  131.7440  122.9930   62.3450 C   0  0  0  0  0  0  0  0  0  0  0  0
  130.5360  123.3960   62.8090 N   0  0  0  0  0  0  0  0  0  0  0  0
  129.4970  122.5360   62.7440 C   0  0  0  0  0  0  0  0  0  0  0  0
  128.1730  123.0590   63.2700 C   0  0  0  0  0  0  0  0  0  0  0  0
  129.6190  121.2500   62.2250 C   0  0  0  0  0  0  0  0  0  0  0  0
  130.8610  120.8050   61.7550 C   0  0  0  0  0  0  0  0  0  0  0  0
  130.9420  119.4140   61.2130 C   0  0  0  0  0  0  0  0  0  0  0  0
  130.0020  118.4520   61.6010 C   0  0  0  0  0  0  0  0  0  0  0  0
  130.0620  117.1560   61.0930 C   0  0  0  0  0  0  0  0  0  0  0  0
  131.0650  116.8180   60.1880 C   0  0  0  0  0  0  0  0  0  0  0  0
  132.0030  117.7640   59.7850 C   0  0  0  0  0  0  0  0  0  0  0  0
  131.9390  119.0590   60.2930 C   0  0  0  0  0  0  0  0  0  0  0  0
  131.9660  121.6920   61.8280 C   0  0  0  0  0  0  0  0  0  0  0  0
  133.3080  121.2490   61.4370 C   0  0  0  0  0  0  0  0  0  0  0  0
  134.3670  120.9000   61.1290 N   0  0  0  0  0  0  0  0  0  0  0  0
  129.8940  124.8940   58.1350 C   0  0  0  0  0  0  0  0  0  0  0  0
  128.7250  124.6120   57.4320 C   0  0  0  0  0  0  0  0  0  0  0  0
  125.0317  122.2703   55.0549 H   0  0  0  0  0  0  0  0  0  0  0  0
  126.4411  123.1398   54.3591 H   0  0  0  0  0  0  0  0  0  0  0  0
  126.4043  121.3439   54.3591 H   0  0  0  0  0  0  0  0  0  0  0  0
  127.6038  121.9619   59.2686 H   0  0  0  0  0  0  0  0  0  0  0  0
  129.6894  122.4608   60.5204 H   0  0  0  0  0  0  0  0  0  0  0  0
  131.2140  124.5230   61.0060 H   0  0  0  0  0  0  0  0  0  0  0  0
  134.5588  123.8928   60.6847 H   0  0  0  0  0  0  0  0  0  0  0  0
  133.9391  125.6194   60.7960 H   0  0  0  0  0  0  0  0  0  0  0  0
  128.1874  123.0533   64.3699 H   0  0  0  0  0  0  0  0  0  0  0  0
  128.0159  124.0867   62.9107 H   0  0  0  0  0  0  0  0  0  0  0  0
  127.3560  122.4161   62.9107 H   0  0  0  0  0  0  0  0  0  0  0  0
  128.7431  120.5858   62.1842 H   0  0  0  0  0  0  0  0  0  0  0  0
  129.2086  118.7218   62.3136 H   0  0  0  0  0  0  0  0  0  0  0  0
  129.3217  116.4045   61.4048 H   0  0  0  0  0  0  0  0  0  0  0  0
  131.1164  115.7945   59.7882 H   0  0  0  0  0  0  0  0  0  0  0  0
  132.7913  117.4899   59.0685 H   0  0  0  0  0  0  0  0  0  0  0  0
  132.6760  119.8091   59.9702 H   0  0  0  0  0  0  0  0  0  0  0  0
  130.5432  125.7210   57.8116 H   0  0  0  0  0  0  0  0  0  0  0  0
  128.4556  125.2222   56.5573 H   0  0  0  0  0  0  0  0  0  0  0  0
  1  2  1  0
  2  3  1  0
  3  4  2  0
  3  5  1  0
  5  6  2  0
  6  7  1  0
  7  8  2  0
  8  9  1  0
  9 10  1  0
 10 11  2  0
 10 12  1  0
 12 13  1  0
 13 14  1  0
 14 15  2  0
 15 16  1  0
 16 17  1  0
 16 18  2  0
 18 19  1  0
 19 20  1  0
 20 21  2  0
 21 22  1  0
 22 23  2  0
 23 24  1  0
 24 25  2  0
 19 26  2  0
 26 27  1  0
 27 28  3  0
  8 29  1  0
 29 30  2  0
 30  5  1  0
 26 14  1  0
 25 20  1  0
  1 31  1  0
  1 32  1  0
  1 33  1  0
  6 34  1  0
  7 35  1  0
  9 36  1  0
 12 37  1  0
 12 38  1  0
 17 39  1  0
 17 40  1  0
 17 41  1  0
 18 42  1  0
 21 43  1  0
 22 44  1  0
 23 45  1  0
 24 46  1  0
 25 47  1  0
 29 48  1  0
 30 49  1  0
M  END
>  <Binding energies>  (1) 
[-8.83]

>  <Ligand effiencies>  (1) 
[-0.28483870967741937]

>  <Interactions>  (1) 
["V-A:ASP:366:CG:3212, V-A:ASP:366:CB:3211, V-B:GLU:543:CD:9879, V-B:PRO:540:N:9855, V-B:ALA:541:CB:9863, V-B:PRO:540:CA:9854, V-B:ALA:541:CA:9861, V-B:TYR:539:C:9838, V-A:LEU:475:CD2:4258, V-A:PRO:482:CG:4326, V-A:HIS:383:CE1:3393, V-A:ILE:369:CD1:3238, V-B:TYR:539:CD2:9845, V-A:ILE:369:CG2:3236, V-B:TYR:539:CE2:9847, V-B:TYR:539:CB:9842, H-B:TYR:539:N:9841, V-B:VAL:344:CG1:7971, V-B:TYR:539:CG:9843, V-B:MET:535:CE:9806, H-B:TYR:539:OH:9849, V-B:TYR:539:CZ:9848, V-A:PRO:482:CB:4325, V-B:TYR:531:CE2:9764, V-B:ILE:538:CD1:9836, V-B:ILE:538:CG2:9834, H-A:ASP:366:OD2:3214, V-B:ILE:538:CA:9831, V-B:ILE:538:C:9829, V-B:ILE:538:CB:9833, H-B:TYR:531:OH:9766, V-B:MET:535:CG:9804"]

$$$$
3ce_Grossjean_2025
     RDKit          3D

 45 47  0  0  0  0  0  0  0  0999 V2000
  133.7000  118.9980   59.2500 C   0  0  0  0  0  0  0  0  0  0  0  0
  132.4460  118.6760   60.0410 C   0  0  0  0  0  0  0  0  0  0  0  0
  132.0300  117.3580   60.2470 C   0  0  0  0  0  0  0  0  0  0  0  0
  130.8720  117.1370   60.9920 C   0  0  0  0  0  0  0  0  0  0  0  0
  130.1650  118.2250   61.5090 C   0  0  0  0  0  0  0  0  0  0  0  0
  130.6310  119.5200   61.2560 C   0  0  0  0  0  0  0  0  0  0  0  0
  129.8910  120.5750   61.8160 N   0  0  0  0  0  0  0  0  0  0  0  0
  130.3200  121.5440   62.6550 C   0  0  0  0  0  0  0  0  0  0  0  0
  131.4750  121.6600   63.0690 O   0  0  0  0  0  0  0  0  0  0  0  0
  129.2640  122.5580   63.0910 C   0  0  0  0  0  0  0  0  0  0  0  0
  129.7000  124.2500   62.5940 S   0  0  0  0  0  0  0  0  0  0  0  0
  129.5200  124.2960   60.8260 C   0  0  0  0  0  0  0  0  0  0  0  0
  130.6030  124.7830   60.1740 N   0  0  0  0  0  0  0  0  0  0  0  0
  130.5730  124.8430   58.8220 C   0  0  0  0  0  0  0  0  0  0  0  0
  131.8220  125.3860   58.1570 C   0  0  0  0  0  0  0  0  0  0  0  0
  129.4670  124.4370   58.0790 C   0  0  0  0  0  0  0  0  0  0  0  0
  128.3280  123.9550   58.7360 C   0  0  0  0  0  0  0  0  0  0  0  0
  127.1590  123.5550   57.8970 C   0  0  0  0  0  0  0  0  0  0  0  0
  125.8890  124.0830   58.1630 C   0  0  0  0  0  0  0  0  0  0  0  0
  124.7930  123.7110   57.3890 C   0  0  0  0  0  0  0  0  0  0  0  0
  124.9600  122.8010   56.3480 C   0  0  0  0  0  0  0  0  0  0  0  0
  126.2140  122.2590   56.0780 C   0  0  0  0  0  0  0  0  0  0  0  0
  127.3080  122.6340   56.8520 C   0  0  0  0  0  0  0  0  0  0  0  0
  128.3490  123.8750   60.1510 C   0  0  0  0  0  0  0  0  0  0  0  0
  127.1920  123.3640   60.8930 C   0  0  0  0  0  0  0  0  0  0  0  0
  126.2780  122.9610   61.4770 N   0  0  0  0  0  0  0  0  0  0  0  0
  131.7680  119.7440   60.5330 N   0  0  0  0  0  0  0  0  0  0  0  0
  134.5268  119.2103   59.9438 H   0  0  0  0  0  0  0  0  0  0  0  0
  133.9646  118.1387   58.6163 H   0  0  0  0  0  0  0  0  0  0  0  0
  133.5178  119.8785   58.6163 H   0  0  0  0  0  0  0  0  0  0  0  0
  132.6020  116.5153   59.8316 H   0  0  0  0  0  0  0  0  0  0  0  0
  130.5173  116.1113   61.1715 H   0  0  0  0  0  0  0  0  0  0  0  0
  129.2551  118.0662   62.1064 H   0  0  0  0  0  0  0  0  0  0  0  0
  128.9450  120.6580   61.4740 H   0  0  0  0  0  0  0  0  0  0  0  0
  128.3019  122.2892   62.6304 H   0  0  0  0  0  0  0  0  0  0  0  0
  129.2004  122.5319   64.1888 H   0  0  0  0  0  0  0  0  0  0  0  0
  132.5415  125.6988   58.9281 H   0  0  0  0  0  0  0  0  0  0  0  0
  132.2736  124.6030   57.5302 H   0  0  0  0  0  0  0  0  0  0  0  0
  131.5574  126.2503   57.5302 H   0  0  0  0  0  0  0  0  0  0  0  0
  129.4881  124.4947   56.9807 H   0  0  0  0  0  0  0  0  0  0  0  0
  125.7567  124.7968   58.9895 H   0  0  0  0  0  0  0  0  0  0  0  0
  123.7995  124.1340   57.5988 H   0  0  0  0  0  0  0  0  0  0  0  0
  124.0951  122.5083   55.7346 H   0  0  0  0  0  0  0  0  0  0  0  0
  126.3392  121.5379   55.2568 H   0  0  0  0  0  0  0  0  0  0  0  0
  128.2982  122.2036   56.6415 H   0  0  0  0  0  0  0  0  0  0  0  0
  1  2  1  0
  2  3  2  0
  3  4  1  0
  4  5  2  0
  5  6  1  0
  6  7  1  0
  7  8  1  0
  8  9  2  0
  8 10  1  0
 10 11  1  0
 11 12  1  0
 12 13  2  0
 13 14  1  0
 14 15  1  0
 14 16  2  0
 16 17  1  0
 17 18  1  0
 18 19  2  0
 19 20  1  0
 20 21  2  0
 21 22  1  0
 22 23  2  0
 17 24  2  0
 24 25  1  0
 25 26  3  0
  6 27  2  0
 27  2  1  0
 24 12  1  0
 23 18  1  0
  1 28  1  0
  1 29  1  0
  1 30  1  0
  3 31  1  0
  4 32  1  0
  5 33  1  0
  7 34  1  0
 10 35  1  0
 10 36  1  0
 15 37  1  0
 15 38  1  0
 15 39  1  0
 16 40  1  0
 19 41  1  0
 20 42  1  0
 21 43  1  0
 22 44  1  0
 23 45  1  0
M  END
>  <Binding energies>  (1) 
[-8.92]

>  <Ligand effiencies>  (1) 
[-0.31857142857142856]

>  <Interactions>  (1) 
["V-A:ASP:366:CB:3211, V-B:PRO:540:N:9855, H-B:ALA:541:N:9862, V-B:ALA:541:CB:9863, V-B:PRO:540:CA:9854, V-B:TYR:539:C:9838, V-A:LEU:475:CD2:4258, V-A:PRO:482:CG:4326, V-A:HIS:383:CE1:3393, H-B:TYR:539:O:9839, V-B:TYR:539:CD2:9845, V-A:ILE:369:CG2:3236, V-B:TYR:539:CE2:9847, V-A:SER:385:CA:3406, V-B:MET:535:CE:9806, V-B:TYR:539:CZ:9848, V-A:PRO:482:CB:4325, V-B:PRO:540:CB:9856, V-B:TYR:531:CZ:9765, V-B:PRO:540:CD:9858, V-B:TYR:531:CE2:9764, V-B:LEU:363:CD1:8159, V-B:ILE:538:CA:9831, V-B:ILE:538:C:9829, V-A:LEU:373:CG:3278, V-A:LEU:373:CD2:3280, V-A:VAL:384:C:3396"]

$$$$
3ch_Grossjean_2025
     RDKit          3D

 55 57  0  0  0  0  0  0  0  0999 V2000
  131.2430  127.5880   68.2370 C   0  0  0  0  0  0  0  0  0  0  0  0
  132.2850  126.9270   67.5270 O   0  0  0  0  0  0  0  0  0  0  0  0
  132.0490  126.4620   66.2460 C   0  0  0  0  0  0  0  0  0  0  0  0
  130.7940  126.4940   65.6170 C   0  0  0  0  0  0  0  0  0  0  0  0
  130.6320  126.0130   64.3100 C   0  0  0  0  0  0  0  0  0  0  0  0
  129.4180  126.0080   63.5970 N   0  0  0  0  0  0  0  0  0  0  0  0
  129.2010  125.9990   62.2630 C   0  0  0  0  0  0  0  0  0  0  0  0
  130.0750  125.9790   61.3970 O   0  0  0  0  0  0  0  0  0  0  0  0
  127.7340  125.9690   61.8350 C   0  0  0  0  0  0  0  0  0  0  0  0
  127.0160  124.3040   61.9600 S   0  0  0  0  0  0  0  0  0  0  0  0
  128.3140  123.2510   62.5720 C   0  0  0  0  0  0  0  0  0  0  0  0
  128.4320  123.2530   63.9220 N   0  0  0  0  0  0  0  0  0  0  0  0
  129.3950  122.4900   64.4870 C   0  0  0  0  0  0  0  0  0  0  0  0
  129.4760  122.5430   66.0010 C   0  0  0  0  0  0  0  0  0  0  0  0
  130.2680  121.7060   63.7380 C   0  0  0  0  0  0  0  0  0  0  0  0
  130.1570  121.6850   62.3400 C   0  0  0  0  0  0  0  0  0  0  0  0
  131.1220  120.8370   61.5760 C   0  0  0  0  0  0  0  0  0  0  0  0
  130.8000  119.5110   61.2650 C   0  0  0  0  0  0  0  0  0  0  0  0
  131.6970  118.7120   60.5610 C   0  0  0  0  0  0  0  0  0  0  0  0
  132.9260  119.2380   60.1680 C   0  0  0  0  0  0  0  0  0  0  0  0
  133.2650  120.5520   60.4760 C   0  0  0  0  0  0  0  0  0  0  0  0
  132.3650  121.3480   61.1810 C   0  0  0  0  0  0  0  0  0  0  0  0
  129.1390  122.4650   61.7340 C   0  0  0  0  0  0  0  0  0  0  0  0
  128.9160  122.4080   60.2860 C   0  0  0  0  0  0  0  0  0  0  0  0
  128.7400  122.3650   59.1430 N   0  0  0  0  0  0  0  0  0  0  0  0
  131.7350  125.4800   63.6400 C   0  0  0  0  0  0  0  0  0  0  0  0
  132.9990  125.4350   64.2480 C   0  0  0  0  0  0  0  0  0  0  0  0
  134.1330  124.9270   63.6370 O   0  0  0  0  0  0  0  0  0  0  0  0
  134.0180  124.2830   62.3730 C   0  0  0  0  0  0  0  0  0  0  0  0
  133.1420  125.9270   65.5520 C   0  0  0  0  0  0  0  0  0  0  0  0
  134.3790  125.9050   66.1520 O   0  0  0  0  0  0  0  0  0  0  0  0
  134.3770  125.3590   67.4640 C   0  0  0  0  0  0  0  0  0  0  0  0
  131.4114  127.4812   69.3188 H   0  0  0  0  0  0  0  0  0  0  0  0
  131.2374  128.6552   67.9704 H   0  0  0  0  0  0  0  0  0  0  0  0
  130.2751  127.1384   67.9704 H   0  0  0  0  0  0  0  0  0  0  0  0
  129.9266  126.9018   66.1567 H   0  0  0  0  0  0  0  0  0  0  0  0
  128.5950  125.9650   64.1810 H   0  0  0  0  0  0  0  0  0  0  0  0
  127.1623  126.6507   62.4818 H   0  0  0  0  0  0  0  0  0  0  0  0
  127.6834  126.2802   60.7812 H   0  0  0  0  0  0  0  0  0  0  0  0
  128.6295  121.9891   66.4331 H   0  0  0  0  0  0  0  0  0  0  0  0
  130.4204  122.0876   66.3338 H   0  0  0  0  0  0  0  0  0  0  0  0
  129.4368  123.5907   66.3338 H   0  0  0  0  0  0  0  0  0  0  0  0
  131.0411  121.1059   64.2401 H   0  0  0  0  0  0  0  0  0  0  0  0
  129.8306  119.0968   61.5792 H   0  0  0  0  0  0  0  0  0  0  0  0
  131.4369  117.6715   60.3165 H   0  0  0  0  0  0  0  0  0  0  0  0
  133.6346  118.6089   59.6093 H   0  0  0  0  0  0  0  0  0  0  0  0
  134.2380  120.9598   60.1646 H   0  0  0  0  0  0  0  0  0  0  0  0
  132.6325  122.3857   61.4294 H   0  0  0  0  0  0  0  0  0  0  0  0
  131.6112  125.0891   62.6193 H   0  0  0  0  0  0  0  0  0  0  0  0
  133.8265  123.2104   62.5241 H   0  0  0  0  0  0  0  0  0  0  0  0
  133.1852  124.7283   61.8090 H   0  0  0  0  0  0  0  0  0  0  0  0
  134.9535  124.4126   61.8090 H   0  0  0  0  0  0  0  0  0  0  0  0
  134.3800  126.1756   68.2010 H   0  0  0  0  0  0  0  0  0  0  0  0
  133.4766  124.7427   67.6033 H   0  0  0  0  0  0  0  0  0  0  0  0
  135.2729  124.7361   67.6033 H   0  0  0  0  0  0  0  0  0  0  0  0
  1  2  1  0
  2  3  1  0
  3  4  2  0
  4  5  1  0
  5  6  1  0
  6  7  1  0
  7  8  2  0
  7  9  1  0
  9 10  1  0
 10 11  1  0
 11 12  2  0
 12 13  1  0
 13 14  1  0
 13 15  2  0
 15 16  1  0
 16 17  1  0
 17 18  2  0
 18 19  1  0
 19 20  2  0
 20 21  1  0
 21 22  2  0
 16 23  2  0
 23 24  1  0
 24 25  3  0
  5 26  2  0
 26 27  1  0
 27 28  1  0
 28 29  1  0
 27 30  2  0
 30 31  1  0
 31 32  1  0
 30  3  1  0
 23 11  1  0
 22 17  1  0
  1 33  1  0
  1 34  1  0
  1 35  1  0
  4 36  1  0
  6 37  1  0
  9 38  1  0
  9 39  1  0
 14 40  1  0
 14 41  1  0
 14 42  1  0
 15 43  1  0
 18 44  1  0
 19 45  1  0
 20 46  1  0
 21 47  1  0
 22 48  1  0
 26 49  1  0
 29 50  1  0
 29 51  1  0
 29 52  1  0
 32 53  1  0
 32 54  1  0
 32 55  1  0
M  END
>  <Binding energies>  (1) 
[-7.96]

>  <Ligand effiencies>  (1) 
[-0.2412121212121212]

>  <Interactions>  (1) 
["V-A:ASP:366:CG:3212, V-B:GLU:543:CD:9879, H-A:TYR:484:OH:4347, V-B:ALA:541:CB:9863, V-B:PRO:540:CA:9854, H-B:GLU:543:OE2:9881, H-B:GLU:543:OE1:9880, V-B:TYR:539:C:9838, V-A:LEU:475:CD2:4258, V-A:ILE:369:CD1:3238, V-B:TYR:539:CD2:9845, V-A:ILE:369:CG2:3236, V-B:TYR:539:CE2:9847, V-A:SER:385:CA:3406, V-A:GLY:454:CA:4048, V-B:GLU:543:CG:9878, V-A:LEU:475:CD1:4257, H-A:GLY:454:N:4049, V-A:ARG:545:CD:4922, V-A:ARG:545:CZ:4925, V-A:ARG:545:CG:4921, V-A:HIS:456:CE1:4069, V-A:GLU:543:CD:4907, V-A:GLU:543:CB:4905, H-A:ARG:545:NH1:4926, H-A:ARG:545:NE:4923, V-A:TYR:484:CZ:4346, V-A:TYR:484:CE2:4345, V-A:ILE:455:C:4051, V-A:GLY:454:C:4046"]

$$$$
3ci_Grossjean_2025
     RDKit          3D

 39 41  0  0  0  0  0  0  0  0999 V2000
  129.4790  121.5390   62.1720 C   0  0  0  0  0  0  0  0  0  0  0  0
  129.4430  122.4190   60.9370 C   0  0  0  0  0  0  0  0  0  0  0  0
  128.3840  122.3700   60.0350 C   0  0  0  0  0  0  0  0  0  0  0  0
  128.3880  123.2150   58.9160 C   0  0  0  0  0  0  0  0  0  0  0  0
  127.2240  123.1390   57.9840 C   0  0  0  0  0  0  0  0  0  0  0  0
  125.9930  123.7130   58.3260 C   0  0  0  0  0  0  0  0  0  0  0  0
  124.9080  123.6320   57.4560 C   0  0  0  0  0  0  0  0  0  0  0  0
  125.0490  122.9690   56.2410 C   0  0  0  0  0  0  0  0  0  0  0  0
  126.2630  122.3840   55.8890 C   0  0  0  0  0  0  0  0  0  0  0  0
  127.3450  122.4680   56.7610 C   0  0  0  0  0  0  0  0  0  0  0  0
  129.4890  124.0910   58.7370 C   0  0  0  0  0  0  0  0  0  0  0  0
  129.5690  124.9670   57.5630 C   0  0  0  0  0  0  0  0  0  0  0  0
  129.6300  125.6580   56.6370 N   0  0  0  0  0  0  0  0  0  0  0  0
  130.5220  124.0800   59.7060 C   0  0  0  0  0  0  0  0  0  0  0  0
  131.9450  125.1570   59.5910 S   0  0  0  0  0  0  0  0  0  0  0  0
  133.4390  124.2470   60.1030 C   0  0  0  0  0  0  0  0  0  0  0  0
  133.6080  124.1640   61.6250 C   0  0  0  0  0  0  0  0  0  0  0  0
  134.0780  123.1390   62.1230 O   0  0  0  0  0  0  0  0  0  0  0  0
  133.2020  125.2490   62.3210 N   0  0  0  0  0  0  0  0  0  0  0  0
  133.2700  125.4420   63.6940 C   0  0  0  0  0  0  0  0  0  0  0  0
  132.1520  125.7180   64.4790 C   0  0  0  0  0  0  0  0  0  0  0  0
  132.6370  125.8400   65.7620 C   0  0  0  0  0  0  0  0  0  0  0  0
  133.9780  125.6470   65.7480 O   0  0  0  0  0  0  0  0  0  0  0  0
  134.3670  125.3960   64.4310 N   0  0  0  0  0  0  0  0  0  0  0  0
  130.4960  123.2510   60.7800 N   0  0  0  0  0  0  0  0  0  0  0  0
  129.4532  122.1699   63.0727 H   0  0  0  0  0  0  0  0  0  0  0  0
  128.6076  120.8677   62.1695 H   0  0  0  0  0  0  0  0  0  0  0  0
  130.4024  120.9412   62.1695 H   0  0  0  0  0  0  0  0  0  0  0  0
  127.5492  121.6727   60.1990 H   0  0  0  0  0  0  0  0  0  0  0  0
  125.8820  124.2320   59.2895 H   0  0  0  0  0  0  0  0  0  0  0  0
  123.9454  124.0896   57.7281 H   0  0  0  0  0  0  0  0  0  0  0  0
  124.1938  122.9062   55.5520 H   0  0  0  0  0  0  0  0  0  0  0  0
  126.3662  121.8589   54.9280 H   0  0  0  0  0  0  0  0  0  0  0  0
  128.3035  122.0031   56.4868 H   0  0  0  0  0  0  0  0  0  0  0  0
  133.3792  123.2244   59.7022 H   0  0  0  0  0  0  0  0  0  0  0  0
  134.3062  124.7971   59.7088 H   0  0  0  0  0  0  0  0  0  0  0  0
  132.8280  126.0230   61.7920 H   0  0  0  0  0  0  0  0  0  0  0  0
  131.1083  125.8169   64.1459 H   0  0  0  0  0  0  0  0  0  0  0  0
  132.0328  126.0590   66.6548 H   0  0  0  0  0  0  0  0  0  0  0  0
  1  2  1  0
  2  3  2  0
  3  4  1  0
  4  5  1  0
  5  6  2  0
  6  7  1  0
  7  8  2  0
  8  9  1  0
  9 10  2  0
  4 11  2  0
 11 12  1  0
 12 13  3  0
 11 14  1  0
 14 15  1  0
 15 16  1  0
 16 17  1  0
 17 18  2  0
 17 19  1  0
 19 20  1  0
 20 21  1  0
 21 22  2  0
 22 23  1  0
 23 24  1  0
 14 25  2  0
 25  2  1  0
 10  5  1  0
 24 20  2  0
  1 26  1  0
  1 27  1  0
  1 28  1  0
  3 29  1  0
  6 30  1  0
  7 31  1  0
  8 32  1  0
  9 33  1  0
 10 34  1  0
 16 35  1  0
 16 36  1  0
 19 37  1  0
 21 38  1  0
 22 39  1  0
M  END
>  <Binding energies>  (1) 
[-8.54]

>  <Ligand effiencies>  (1) 
[-0.3284615384615384]

>  <Interactions>  (1) 
["V-A:ASP:366:CG:3212, V-A:ASP:366:CB:3211, V-B:PRO:540:N:9855, H-A:TYR:484:OH:4347, V-B:ALA:541:CB:9863, V-B:PRO:540:CA:9854, V-B:ALA:541:CA:9861, V-B:TYR:539:C:9838, V-A:ILE:369:CD1:3238, V-B:TYR:539:CD2:9845, V-A:ILE:369:CG2:3236, V-B:TYR:539:CE2:9847, V-B:TYR:539:CG:9843, V-B:MET:535:CE:9806, H-B:TYR:539:OH:9849, V-B:TYR:539:CZ:9848, V-B:PRO:540:CB:9856, H-A:GLY:454:N:4049, V-B:TYR:539:CA:9840, V-B:TYR:539:CD1:9844, V-B:TYR:531:CZ:9765, V-B:TYR:531:CE2:9764, V-B:LEU:363:CD1:8159, V-A:ARG:545:CZ:4925, H-A:ASP:366:OD2:3214, H-A:ARG:545:NH1:4926, H-A:ARG:545:NH2:4927, V-B:ILE:538:CA:9831, H-A:ARG:545:NE:4923, H-A:ASP:366:OD1:3213, V-B:MET:535:CG:9804, V-A:ILE:369:CB:3235"]

$$$$
3cj_Grossjean_2025
     RDKit          3D

 39 41  0  0  0  0  0  0  0  0999 V2000
  129.5200  121.6350   62.4700 C   0  0  0  0  0  0  0  0  0  0  0  0
  129.5240  122.4330   61.1810 C   0  0  0  0  0  0  0  0  0  0  0  0
  128.4570  122.3780   60.2870 C   0  0  0  0  0  0  0  0  0  0  0  0
  128.4930  123.1510   59.1180 C   0  0  0  0  0  0  0  0  0  0  0  0
  127.3010  123.1110   58.2210 C   0  0  0  0  0  0  0  0  0  0  0  0
  127.3510  122.4240   57.0030 C   0  0  0  0  0  0  0  0  0  0  0  0
  126.2420  122.3980   56.1610 C   0  0  0  0  0  0  0  0  0  0  0  0
  125.0790  123.0650   56.5330 C   0  0  0  0  0  0  0  0  0  0  0  0
  125.0170  123.7610   57.7380 C   0  0  0  0  0  0  0  0  0  0  0  0
  126.1270  123.7850   58.5780 C   0  0  0  0  0  0  0  0  0  0  0  0
  129.6400  123.9440   58.8690 C   0  0  0  0  0  0  0  0  0  0  0  0
  129.7490  124.7520   57.6500 C   0  0  0  0  0  0  0  0  0  0  0  0
  129.8340  125.3910   56.6880 N   0  0  0  0  0  0  0  0  0  0  0  0
  130.6730  123.9430   59.8330 C   0  0  0  0  0  0  0  0  0  0  0  0
  132.1050  124.9940   59.7090 S   0  0  0  0  0  0  0  0  0  0  0  0
  133.4360  124.0700   60.5410 C   0  0  0  0  0  0  0  0  0  0  0  0
  133.2440  124.0360   62.0610 C   0  0  0  0  0  0  0  0  0  0  0  0
  133.2970  122.9580   62.6560 O   0  0  0  0  0  0  0  0  0  0  0  0
  133.0620  125.2390   62.6480 N   0  0  0  0  0  0  0  0  0  0  0  0
  133.0000  125.4950   64.0080 C   0  0  0  0  0  0  0  0  0  0  0  0
  133.9760  125.4360   64.8870 N   0  0  0  0  0  0  0  0  0  0  0  0
  133.5630  125.7750   66.0920 C   0  0  0  0  0  0  0  0  0  0  0  0
  132.2190  126.1190   66.2090 C   0  0  0  0  0  0  0  0  0  0  0  0
  131.4640  125.9870   64.6480 S   0  0  0  0  0  0  0  0  0  0  0  0
  130.6110  123.2090   60.9720 N   0  0  0  0  0  0  0  0  0  0  0  0
  129.5235  122.3238   63.3277 H   0  0  0  0  0  0  0  0  0  0  0  0
  128.6187  121.0056   62.5088 H   0  0  0  0  0  0  0  0  0  0  0  0
  130.4150  120.9966   62.5088 H   0  0  0  0  0  0  0  0  0  0  0  0
  127.5917  121.7321   60.4970 H   0  0  0  0  0  0  0  0  0  0  0  0
  128.2727  121.9008   56.7085 H   0  0  0  0  0  0  0  0  0  0  0  0
  126.2853  121.8528   55.2066 H   0  0  0  0  0  0  0  0  0  0  0  0
  124.2014  123.0425   55.8702 H   0  0  0  0  0  0  0  0  0  0  0  0
  124.0956  124.2891   58.0245 H   0  0  0  0  0  0  0  0  0  0  0  0
  126.0813  124.3371   59.5283 H   0  0  0  0  0  0  0  0  0  0  0  0
  133.4442  123.0380   60.1604 H   0  0  0  0  0  0  0  0  0  0  0  0
  134.3881  124.5784   60.3289 H   0  0  0  0  0  0  0  0  0  0  0  0
  133.0560  126.0520   62.0480 H   0  0  0  0  0  0  0  0  0  0  0  0
  134.2424  125.7855   66.9570 H   0  0  0  0  0  0  0  0  0  0  0  0
  131.7161  126.4248   67.1383 H   0  0  0  0  0  0  0  0  0  0  0  0
  1  2  1  0
  2  3  2  0
  3  4  1  0
  4  5  1  0
  5  6  2  0
  6  7  1  0
  7  8  2  0
  8  9  1  0
  9 10  2  0
  4 11  2  0
 11 12  1  0
 12 13  3  0
 11 14  1  0
 14 15  1  0
 15 16  1  0
 16 17  1  0
 17 18  2  0
 17 19  1  0
 19 20  1  0
 20 21  2  0
 21 22  1  0
 22 23  2  0
 23 24  1  0
 14 25  2  0
 25  2  1  0
 10  5  1  0
 24 20  1  0
  1 26  1  0
  1 27  1  0
  1 28  1  0
  3 29  1  0
  6 30  1  0
  7 31  1  0
  8 32  1  0
  9 33  1  0
 10 34  1  0
 16 35  1  0
 16 36  1  0
 19 37  1  0
 22 38  1  0
 23 39  1  0
M  END
>  <Binding energies>  (1) 
[-8.18]

>  <Ligand effiencies>  (1) 
[-0.31461538461538463]

>  <Interactions>  (1) 
["V-A:ASP:366:CG:3212, V-B:PRO:540:N:9855, H-A:TYR:484:OH:4347, V-B:ALA:541:CB:9863, V-B:PRO:540:CA:9854, V-B:ALA:541:CA:9861, V-B:TYR:539:C:9838, V-A:ILE:369:CD1:3238, V-B:TYR:539:CD2:9845, V-A:ILE:369:CG2:3236, V-B:TYR:539:CE2:9847, V-B:TYR:539:CG:9843, V-B:MET:535:CE:9806, H-B:TYR:539:OH:9849, V-B:TYR:539:CZ:9848, V-B:PRO:540:CB:9856, H-A:GLY:454:N:4049, V-B:TYR:539:CA:9840, V-A:ARG:545:CD:4922, V-B:TYR:539:CD1:9844, V-B:TYR:531:CZ:9765, V-B:PRO:540:CD:9858, V-B:TYR:531:CE2:9764, V-B:LEU:363:CD1:8159, V-A:ARG:545:CZ:4925, H-A:ASP:366:OD2:3214, H-A:ARG:545:NH1:4926, H-A:ARG:545:NH2:4927, V-B:ILE:538:CA:9831, H-A:ARG:545:NE:4923, H-A:ASP:366:OD1:3213"]

$$$$
3ck_Grossjean_2025
     RDKit          3D

 57 58  0  0  0  0  0  0  0  0999 V2000
  125.5530  122.3290   55.7580 C   0  0  0  0  0  0  0  0  0  0  0  0
  126.8680  122.0030   56.1800 O   0  0  0  0  0  0  0  0  0  0  0  0
  127.1530  122.4090   57.5110 C   0  0  0  0  0  0  0  0  0  0  0  0
  128.2830  123.4460   57.5000 C   0  0  0  0  0  0  0  0  0  0  0  0
  129.0780  123.2870   58.6680 O   0  0  0  0  0  0  0  0  0  0  0  0
  129.9130  124.4020   58.9550 C   0  0  0  0  0  0  0  0  0  0  0  0
  130.9610  123.9890   59.9950 C   0  0  0  0  0  0  0  0  0  0  0  0
  132.0960  124.8280   59.8430 O   0  0  0  0  0  0  0  0  0  0  0  0
  133.3460  124.1750   60.0080 C   0  0  0  0  0  0  0  0  0  0  0  0
  133.7430  124.1900   61.4970 C   0  0  0  0  0  0  0  0  0  0  0  0
  132.7050  124.7310   62.3790 N   0  0  0  0  0  0  0  0  0  0  0  0
  132.8900  125.1510   63.6430 C   0  0  0  0  0  0  0  0  0  0  0  0
  133.9890  125.1480   64.2020 O   0  0  0  0  0  0  0  0  0  0  0  0
  131.6290  125.6500   64.3670 C   0  0  0  0  0  0  0  0  0  0  0  0
  130.5080  124.3440   64.9770 S   0  0  0  0  0  0  0  0  0  0  0  0
  130.0300  123.2970   63.6110 C   0  0  0  0  0  0  0  0  0  0  0  0
  128.8210  123.5690   63.0600 N   0  0  0  0  0  0  0  0  0  0  0  0
  128.3930  122.8130   62.0240 C   0  0  0  0  0  0  0  0  0  0  0  0
  127.0320  123.1740   61.4620 C   0  0  0  0  0  0  0  0  0  0  0  0
  129.1450  121.7640   61.4990 C   0  0  0  0  0  0  0  0  0  0  0  0
  130.3940  121.4620   62.0570 C   0  0  0  0  0  0  0  0  0  0  0  0
  131.1550  120.3140   61.4770 C   0  0  0  0  0  0  0  0  0  0  0  0
  132.3990  120.5290   60.8730 C   0  0  0  0  0  0  0  0  0  0  0  0
  133.1100  119.4640   60.3210 C   0  0  0  0  0  0  0  0  0  0  0  0
  132.5740  118.1810   60.3680 C   0  0  0  0  0  0  0  0  0  0  0  0
  131.3330  117.9520   60.9580 C   0  0  0  0  0  0  0  0  0  0  0  0
  130.6260  119.0180   61.5080 C   0  0  0  0  0  0  0  0  0  0  0  0
  130.8610  122.2550   63.1360 C   0  0  0  0  0  0  0  0  0  0  0  0
  132.1790  122.0110   63.7320 C   0  0  0  0  0  0  0  0  0  0  0  0
  133.2190  121.8180   64.2010 N   0  0  0  0  0  0  0  0  0  0  0  0
  124.9139  122.4875   56.6391 H   0  0  0  0  0  0  0  0  0  0  0  0
  125.5790  123.2479   55.1539 H   0  0  0  0  0  0  0  0  0  0  0  0
  125.1468  121.5044   55.1539 H   0  0  0  0  0  0  0  0  0  0  0  0
  126.2522  122.8535   57.9593 H   0  0  0  0  0  0  0  0  0  0  0  0
  127.4643  121.5348   58.1016 H   0  0  0  0  0  0  0  0  0  0  0  0
  128.9083  123.2987   56.6071 H   0  0  0  0  0  0  0  0  0  0  0  0
  127.8537  124.4586   57.4814 H   0  0  0  0  0  0  0  0  0  0  0  0
  130.4173  124.7312   58.0345 H   0  0  0  0  0  0  0  0  0  0  0  0
  129.3045  125.2289   59.3500 H   0  0  0  0  0  0  0  0  0  0  0  0
  130.5460  124.1047   61.0071 H   0  0  0  0  0  0  0  0  0  0  0  0
  131.2458  122.9367   59.8482 H   0  0  0  0  0  0  0  0  0  0  0  0
  133.2643  123.1343   59.6611 H   0  0  0  0  0  0  0  0  0  0  0  0
  134.1132  124.6994   59.4195 H   0  0  0  0  0  0  0  0  0  0  0  0
  133.9600  123.1577   61.8088 H   0  0  0  0  0  0  0  0  0  0  0  0
  134.6185  124.8496   61.5892 H   0  0  0  0  0  0  0  0  0  0  0  0
  131.7740  124.7820   61.9900 H   0  0  0  0  0  0  0  0  0  0  0  0
  131.9490  126.2528   65.2297 H   0  0  0  0  0  0  0  0  0  0  0  0
  131.0550  126.2177   63.6198 H   0  0  0  0  0  0  0  0  0  0  0  0
  126.3312  123.3599   62.2893 H   0  0  0  0  0  0  0  0  0  0  0  0
  127.1189  124.0802   60.8445 H   0  0  0  0  0  0  0  0  0  0  0  0
  126.6584  122.3439   60.8445 H   0  0  0  0  0  0  0  0  0  0  0  0
  128.7605  121.1769   60.6520 H   0  0  0  0  0  0  0  0  0  0  0  0
  132.8188  121.5450   60.8334 H   0  0  0  0  0  0  0  0  0  0  0  0
  134.0893  119.6373   59.8510 H   0  0  0  0  0  0  0  0  0  0  0  0
  133.1353  117.3397   59.9353 H   0  0  0  0  0  0  0  0  0  0  0  0
  130.9142  116.9353   60.9892 H   0  0  0  0  0  0  0  0  0  0  0  0
  129.6439  118.8405   61.9706 H   0  0  0  0  0  0  0  0  0  0  0  0
  1  2  1  0
  2  3  1  0
  3  4  1  0
  4  5  1  0
  5  6  1  0
  6  7  1  0
  7  8  1  0
  8  9  1  0
  9 10  1  0
 10 11  1  0
 11 12  1  0
 12 13  2  0
 12 14  1  0
 14 15  1  0
 15 16  1  0
 16 17  2  0
 17 18  1  0
 18 19  1  0
 18 20  2  0
 20 21  1  0
 21 22  1  0
 22 23  2  0
 23 24  1  0
 24 25  2  0
 25 26  1  0
 26 27  2  0
 21 28  2  0
 28 29  1  0
 29 30  3  0
 28 16  1  0
 27 22  1  0
  1 31  1  0
  1 32  1  0
  1 33  1  0
  3 34  1  0
  3 35  1  0
  4 36  1  0
  4 37  1  0
  6 38  1  0
  6 39  1  0
  7 40  1  0
  7 41  1  0
  9 42  1  0
  9 43  1  0
 10 44  1  0
 10 45  1  0
 11 46  1  0
 14 47  1  0
 14 48  1  0
 19 49  1  0
 19 50  1  0
 19 51  1  0
 20 52  1  0
 23 53  1  0
 24 54  1  0
 25 55  1  0
 26 56  1  0
 27 57  1  0
M  END
>  <Binding energies>  (1) 
[-7.47]

>  <Ligand effiencies>  (1) 
[-0.24096774193548387]

>  <Interactions>  (1) 
["V-A:ASP:366:CG:3212, V-A:ASP:366:CB:3211, V-B:PRO:540:N:9855, H-A:TYR:484:OH:4347, V-B:ALA:541:CB:9863, V-B:PRO:540:CA:9854, V-B:PRO:540:C:9852, V-B:TYR:539:C:9838, V-A:LEU:475:CD2:4258, V-A:ILE:369:CD1:3238, V-B:TYR:539:CD2:9845, V-A:ILE:369:CG2:3236, V-B:TYR:539:CE2:9847, V-A:SER:385:CA:3406, V-A:SER:385:CB:3408, V-A:GLY:454:CA:4048, H-B:TYR:539:N:9841, V-B:MET:535:CE:9806, V-B:TYR:539:CZ:9848, H-A:GLY:454:N:4049, V-B:TYR:539:CA:9840, V-B:PRO:540:CD:9858, V-B:TYR:531:CE2:9764, V-B:LEU:363:CD1:8159, V-B:ILE:538:CD1:9836, V-B:ILE:538:CG2:9834, H-A:ASP:366:OD2:3214, H-A:ARG:545:NH1:4926, H-A:ARG:545:NH2:4927, V-B:ILE:538:CA:9831, V-A:ILE:369:CB:3235"]

$$$$
4aa_Grossjean_2025
     RDKit          3D

 45 47  0  0  0  0  0  0  0  0999 V2000
  124.2490  124.3330   57.7670 C   0  0  0  0  0  0  0  0  0  0  0  0
  124.7490  122.9710   57.2760 C   0  0  0  0  0  0  0  0  0  0  0  0
  125.7170  123.1650   56.2530 O   0  0  0  0  0  0  0  0  0  0  0  0
  126.9560  122.6170   56.3470 C   0  0  0  0  0  0  0  0  0  0  0  0
  127.3760  121.7460   55.5770 O   0  0  0  0  0  0  0  0  0  0  0  0
  127.7660  123.1710   57.4830 C   0  0  0  0  0  0  0  0  0  0  0  0
  127.7830  122.4900   58.7070 C   0  0  0  0  0  0  0  0  0  0  0  0
  128.5190  122.9820   59.7820 C   0  0  0  0  0  0  0  0  0  0  0  0
  129.2610  124.1570   59.6520 C   0  0  0  0  0  0  0  0  0  0  0  0
  129.9610  124.5680   60.8020 N   0  0  0  0  0  0  0  0  0  0  0  0
  130.2430  125.8130   61.2560 C   0  0  0  0  0  0  0  0  0  0  0  0
  129.9410  126.8500   60.6630 O   0  0  0  0  0  0  0  0  0  0  0  0
  130.9740  125.8660   62.5230 C   0  0  0  0  0  0  0  0  0  0  0  0
  132.6400  125.2890   62.6150 S   0  0  0  0  0  0  0  0  0  0  0  0
  132.7160  125.6400   64.3260 C   0  0  0  0  0  0  0  0  0  0  0  0
  133.8150  125.4050   65.0460 N   0  0  0  0  0  0  0  0  0  0  0  0
  133.7400  125.7180   66.3630 C   0  0  0  0  0  0  0  0  0  0  0  0
  134.9990  125.4390   67.1650 C   0  0  0  0  0  0  0  0  0  0  0  0
  132.6080  126.2570   66.9690 C   0  0  0  0  0  0  0  0  0  0  0  0
  131.4580  126.5020   66.2110 C   0  0  0  0  0  0  0  0  0  0  0  0
  130.2460  127.0910   66.9180 C   0  0  0  0  0  0  0  0  0  0  0  0
  131.4950  126.1830   64.8270 C   0  0  0  0  0  0  0  0  0  0  0  0
  130.5170  126.2980   63.7780 C   0  0  0  0  0  0  0  0  0  0  0  0
  129.2570  126.7910   64.0050 N   0  0  0  0  0  0  0  0  0  0  0  0
  129.2460  124.8490   58.4320 C   0  0  0  0  0  0  0  0  0  0  0  0
  128.5050  124.3580   57.3600 C   0  0  0  0  0  0  0  0  0  0  0  0
  124.2439  124.3470   58.8669 H   0  0  0  0  0  0  0  0  0  0  0  0
  124.9152  125.1246   57.3934 H   0  0  0  0  0  0  0  0  0  0  0  0
  123.2289  124.5056   57.3934 H   0  0  0  0  0  0  0  0  0  0  0  0
  125.2051  122.4235   58.1140 H   0  0  0  0  0  0  0  0  0  0  0  0
  123.9038  122.3908   56.8773 H   0  0  0  0  0  0  0  0  0  0  0  0
  127.2097  121.5580   58.8201 H   0  0  0  0  0  0  0  0  0  0  0  0
  128.5155  122.4411   60.7398 H   0  0  0  0  0  0  0  0  0  0  0  0
  130.3170  123.8060   61.3630 H   0  0  0  0  0  0  0  0  0  0  0  0
  134.7682  125.4901   68.2393 H   0  0  0  0  0  0  0  0  0  0  0  0
  135.3760  124.4355   66.9183 H   0  0  0  0  0  0  0  0  0  0  0  0
  135.7647  126.1893   66.9183 H   0  0  0  0  0  0  0  0  0  0  0  0
  132.6181  126.4902   68.0440 H   0  0  0  0  0  0  0  0  0  0  0  0
  130.3873  127.0223   68.0067 H   0  0  0  0  0  0  0  0  0  0  0  0
  130.1299  128.1460   66.6292 H   0  0  0  0  0  0  0  0  0  0  0  0
  129.3447  126.5304   66.6292 H   0  0  0  0  0  0  0  0  0  0  0  0
  128.7520  126.5930   64.8570 H   0  0  0  0  0  0  0  0  0  0  0  0
  128.7880  127.3710   63.3220 H   0  0  0  0  0  0  0  0  0  0  0  0
  129.8203  125.7807   58.3219 H   0  0  0  0  0  0  0  0  0  0  0  0
  128.4988  124.9064   56.4065 H   0  0  0  0  0  0  0  0  0  0  0  0
  1  2  1  0
  2  3  1  0
  3  4  1  0
  4  5  2  0
  4  6  1  0
  6  7  2  0
  7  8  1  0
  8  9  2  0
  9 10  1  0
 10 11  1  0
 11 12  2  0
 11 13  1  0
 13 14  1  0
 14 15  1  0
 15 16  2  0
 16 17  1  0
 17 18  1  0
 17 19  2  0
 19 20  1  0
 20 21  1  0
 20 22  2  0
 22 23  1  0
 23 24  1  0
  9 25  1  0
 25 26  2  0
 26  6  1  0
 23 13  2  0
 22 15  1  0
  1 27  1  0
  1 28  1  0
  1 29  1  0
  2 30  1  0
  2 31  1  0
  7 32  1  0
  8 33  1  0
 10 34  1  0
 18 35  1  0
 18 36  1  0
 18 37  1  0
 19 38  1  0
 21 39  1  0
 21 40  1  0
 21 41  1  0
 24 42  1  0
 24 43  1  0
 25 44  1  0
 26 45  1  0
M  END
>  <Binding energies>  (1) 
[-8.14]

>  <Ligand effiencies>  (1) 
[-0.2806896551724138]

>  <Interactions>  (1) 
["V-A:ASP:366:CG:3212, V-B:GLU:543:CD:9879, V-B:PRO:540:N:9855, H-A:TYR:484:OH:4347, V-B:PRO:540:CA:9854, H-B:GLU:543:OE2:9881, H-B:GLU:543:OE1:9880, V-B:TYR:539:C:9838, V-B:TYR:539:CD2:9845, V-B:TYR:539:CE2:9847, V-A:GLY:454:CA:4048, H-B:TYR:539:N:9841, V-B:MET:535:CE:9806, V-B:TYR:539:CZ:9848, V-B:PRO:540:CB:9856, H-A:GLY:454:N:4049, V-A:GLY:453:C:4041, V-A:ARG:545:CD:4922, V-B:TYR:531:CZ:9765, V-B:PRO:540:CD:9858, V-B:TYR:531:CE2:9764, V-B:LEU:363:CD1:8159, V-A:ARG:545:CZ:4925, V-A:ARG:545:CG:4921, V-A:HIS:456:CE1:4069, V-A:GLU:543:CD:4907, H-A:ARG:545:NH2:4927, V-A:GLY:453:CA:4043, H-A:ARG:545:NE:4923, H-B:TYR:531:OH:9766, V-B:PRO:540:CG:9857, V-A:ILE:455:C:4051, V-A:GLY:454:C:4046"]

$$$$
4ab_Grossjean_2025
     RDKit          3D

 42 44  0  0  0  0  0  0  0  0999 V2000
  124.6670  123.4900   57.3450 C   0  0  0  0  0  0  0  0  0  0  0  0
  125.6910  123.5520   56.3620 O   0  0  0  0  0  0  0  0  0  0  0  0
  126.8450  122.8530   56.5100 C   0  0  0  0  0  0  0  0  0  0  0  0
  127.2320  121.9990   55.7050 O   0  0  0  0  0  0  0  0  0  0  0  0
  127.6030  123.2170   57.7540 C   0  0  0  0  0  0  0  0  0  0  0  0
  128.7130  124.0660   57.6540 C   0  0  0  0  0  0  0  0  0  0  0  0
  129.4380  124.4200   58.7890 C   0  0  0  0  0  0  0  0  0  0  0  0
  129.0630  123.9430   60.0450 C   0  0  0  0  0  0  0  0  0  0  0  0
  129.8700  124.3580   61.1210 N   0  0  0  0  0  0  0  0  0  0  0  0
  130.9310  125.2020   61.1430 C   0  0  0  0  0  0  0  0  0  0  0  0
  131.4080  125.7410   60.1440 O   0  0  0  0  0  0  0  0  0  0  0  0
  131.5190  125.4300   62.4640 C   0  0  0  0  0  0  0  0  0  0  0  0
  133.2030  125.0020   62.7750 S   0  0  0  0  0  0  0  0  0  0  0  0
  133.0750  125.5140   64.4420 C   0  0  0  0  0  0  0  0  0  0  0  0
  134.1050  125.4360   65.2860 N   0  0  0  0  0  0  0  0  0  0  0  0
  133.8720  125.8630   66.5510 C   0  0  0  0  0  0  0  0  0  0  0  0
  135.0550  125.7610   67.4960 C   0  0  0  0  0  0  0  0  0  0  0  0
  132.6480  126.3640   66.9870 C   0  0  0  0  0  0  0  0  0  0  0  0
  131.5690  126.4440   66.0990 C   0  0  0  0  0  0  0  0  0  0  0  0
  130.2520  126.9970   66.6230 C   0  0  0  0  0  0  0  0  0  0  0  0
  131.7730  126.0020   64.7640 C   0  0  0  0  0  0  0  0  0  0  0  0
  130.9050  125.9370   63.6200 C   0  0  0  0  0  0  0  0  0  0  0  0
  129.5950  126.3430   63.6720 N   0  0  0  0  0  0  0  0  0  0  0  0
  127.9560  123.0880   60.1540 C   0  0  0  0  0  0  0  0  0  0  0  0
  127.2340  122.7330   59.0180 C   0  0  0  0  0  0  0  0  0  0  0  0
  125.1189  123.5174   58.3475 H   0  0  0  0  0  0  0  0  0  0  0  0
  123.9904  124.3488   57.2243 H   0  0  0  0  0  0  0  0  0  0  0  0
  124.0989  122.5558   57.2243 H   0  0  0  0  0  0  0  0  0  0  0  0
  129.0143  124.4562   56.6707 H   0  0  0  0  0  0  0  0  0  0  0  0
  130.3126  125.0804   58.6944 H   0  0  0  0  0  0  0  0  0  0  0  0
  129.6170  123.9480   62.0070 H   0  0  0  0  0  0  0  0  0  0  0  0
  134.6974  125.7918   68.5358 H   0  0  0  0  0  0  0  0  0  0  0  0
  135.5854  124.8138   67.3186 H   0  0  0  0  0  0  0  0  0  0  0  0
  135.7397  126.6034   67.3186 H   0  0  0  0  0  0  0  0  0  0  0  0
  132.5292  126.6967   68.0287 H   0  0  0  0  0  0  0  0  0  0  0  0
  130.2639  126.9920   67.7229 H   0  0  0  0  0  0  0  0  0  0  0  0
  130.1177  128.0275   66.2625 H   0  0  0  0  0  0  0  0  0  0  0  0
  129.4222  126.3713   66.2625 H   0  0  0  0  0  0  0  0  0  0  0  0
  129.1040  126.4510   64.5470 H   0  0  0  0  0  0  0  0  0  0  0  0
  129.0740  126.5440   62.8290 H   0  0  0  0  0  0  0  0  0  0  0  0
  127.6582  122.6977   61.1384 H   0  0  0  0  0  0  0  0  0  0  0  0
  126.3646  122.0657   59.1125 H   0  0  0  0  0  0  0  0  0  0  0  0
  1  2  1  0
  2  3  1  0
  3  4  2  0
  3  5  1  0
  5  6  2  0
  6  7  1  0
  7  8  2  0
  8  9  1  0
  9 10  1  0
 10 11  2  0
 10 12  1  0
 12 13  1  0
 13 14  1  0
 14 15  2  0
 15 16  1  0
 16 17  1  0
 16 18  2  0
 18 19  1  0
 19 20  1  0
 19 21  2  0
 21 22  1  0
 22 23  1  0
  8 24  1  0
 24 25  2  0
 25  5  1  0
 22 12  2  0
 21 14  1  0
  1 26  1  0
  1 27  1  0
  1 28  1  0
  6 29  1  0
  7 30  1  0
  9 31  1  0
 17 32  1  0
 17 33  1  0
 17 34  1  0
 18 35  1  0
 20 36  1  0
 20 37  1  0
 20 38  1  0
 23 39  1  0
 23 40  1  0
 24 41  1  0
 25 42  1  0
M  END
>  <Binding energies>  (1) 
[-7.97]

>  <Ligand effiencies>  (1) 
[-0.28464285714285714]

>  <Interactions>  (1) 
["V-A:ASP:366:CG:3212, V-B:GLU:543:CD:9879, V-B:PRO:540:N:9855, H-A:TYR:484:OH:4347, V-B:PRO:540:CA:9854, H-B:GLU:543:OE2:9881, H-B:GLU:543:OE1:9880, V-B:TYR:539:C:9838, V-B:TYR:539:CE2:9847, H-B:TYR:539:N:9841, V-B:MET:535:CE:9806, V-B:TYR:539:CZ:9848, V-B:PRO:540:CB:9856, H-A:GLY:454:N:4049, V-A:GLY:453:C:4041, V-A:ARG:545:CD:4922, V-B:TYR:531:CE2:9764, V-B:LEU:363:CD1:8159, V-A:ARG:545:CZ:4925, V-A:ARG:545:CG:4921, V-A:HIS:456:CE1:4069, V-A:GLU:543:CD:4907, H-A:ARG:545:NH1:4926, V-A:GLY:453:CA:4043, H-A:ARG:545:NE:4923, H-B:TYR:531:OH:9766, V-A:ILE:455:C:4051, V-A:ARG:545:CB:4920"]

$$$$
4ac_Grossjean_2025
     RDKit          3D

 40 42  0  0  0  0  0  0  0  0999 V2000
  133.6330  126.1070   66.7230 C   0  0  0  0  0  0  0  0  0  0  0  0
  133.8830  125.3740   65.5280 O   0  0  0  0  0  0  0  0  0  0  0  0
  132.8400  125.1250   64.6580 C   0  0  0  0  0  0  0  0  0  0  0  0
  133.1520  124.4170   63.4980 C   0  0  0  0  0  0  0  0  0  0  0  0
  132.1650  124.1180   62.5630 C   0  0  0  0  0  0  0  0  0  0  0  0
  130.8460  124.5170   62.7820 C   0  0  0  0  0  0  0  0  0  0  0  0
  129.9200  124.1820   61.7760 N   0  0  0  0  0  0  0  0  0  0  0  0
  128.6260  123.7980   61.8950 C   0  0  0  0  0  0  0  0  0  0  0  0
  128.0500  123.6460   62.9740 O   0  0  0  0  0  0  0  0  0  0  0  0
  127.9240  123.5560   60.6330 C   0  0  0  0  0  0  0  0  0  0  0  0
  128.7530  122.7740   59.2870 S   0  0  0  0  0  0  0  0  0  0  0  0
  127.3240  122.8780   58.2840 C   0  0  0  0  0  0  0  0  0  0  0  0
  127.3040  122.4150   57.0330 N   0  0  0  0  0  0  0  0  0  0  0  0
  126.1340  122.5570   56.3650 C   0  0  0  0  0  0  0  0  0  0  0  0
  126.1310  122.0240   54.9440 C   0  0  0  0  0  0  0  0  0  0  0  0
  124.9960  123.1480   56.9110 C   0  0  0  0  0  0  0  0  0  0  0  0
  125.0210  123.6330   58.2240 C   0  0  0  0  0  0  0  0  0  0  0  0
  123.7540  124.2690   58.7750 C   0  0  0  0  0  0  0  0  0  0  0  0
  126.2300  123.4990   58.9570 C   0  0  0  0  0  0  0  0  0  0  0  0
  126.5990  123.8750   60.2950 C   0  0  0  0  0  0  0  0  0  0  0  0
  125.7200  124.4900   61.1510 N   0  0  0  0  0  0  0  0  0  0  0  0
  130.5260  125.2400   63.9400 C   0  0  0  0  0  0  0  0  0  0  0  0
  131.5160  125.5380   64.8730 C   0  0  0  0  0  0  0  0  0  0  0  0
  133.8496  125.4720   67.5947 H   0  0  0  0  0  0  0  0  0  0  0  0
  134.2782  126.9975   66.7487 H   0  0  0  0  0  0  0  0  0  0  0  0
  132.5781  126.4177   66.7487 H   0  0  0  0  0  0  0  0  0  0  0  0
  134.1876  124.0917   63.3201 H   0  0  0  0  0  0  0  0  0  0  0  0
  132.4258  123.5653   61.6484 H   0  0  0  0  0  0  0  0  0  0  0  0
  130.2940  124.2050   60.8380 H   0  0  0  0  0  0  0  0  0  0  0  0
  126.1248  120.9242   54.9649 H   0  0  0  0  0  0  0  0  0  0  0  0
  125.2349  122.3858   54.4186 H   0  0  0  0  0  0  0  0  0  0  0  0
  127.0311  122.3757   54.4186 H   0  0  0  0  0  0  0  0  0  0  0  0
  124.0784  123.2333   56.3104 H   0  0  0  0  0  0  0  0  0  0  0  0
  123.7843  124.2538   59.8745 H   0  0  0  0  0  0  0  0  0  0  0  0
  123.6836  125.3093   58.4245 H   0  0  0  0  0  0  0  0  0  0  0  0
  122.8777  123.7039   58.4245 H   0  0  0  0  0  0  0  0  0  0  0  0
  125.8350  124.4510   62.1530 H   0  0  0  0  0  0  0  0  0  0  0  0
  124.9250  125.0080   60.8020 H   0  0  0  0  0  0  0  0  0  0  0  0
  129.4915  125.5723   64.1117 H   0  0  0  0  0  0  0  0  0  0  0  0
  131.2590  126.0999   65.7831 H   0  0  0  0  0  0  0  0  0  0  0  0
  1  2  1  0
  2  3  1  0
  3  4  2  0
  4  5  1  0
  5  6  2  0
  6  7  1  0
  7  8  1  0
  8  9  2  0
  8 10  1  0
 10 11  1  0
 11 12  1  0
 12 13  2  0
 13 14  1  0
 14 15  1  0
 14 16  2  0
 16 17  1  0
 17 18  1  0
 17 19  2  0
 19 20  1  0
 20 21  1  0
  6 22  1  0
 22 23  2  0
 23  3  1  0
 20 10  2  0
 19 12  1  0
  1 24  1  0
  1 25  1  0
  1 26  1  0
  4 27  1  0
  5 28  1  0
  7 29  1  0
 15 30  1  0
 15 31  1  0
 15 32  1  0
 16 33  1  0
 18 34  1  0
 18 35  1  0
 18 36  1  0
 21 37  1  0
 21 38  1  0
 22 39  1  0
 23 40  1  0
M  END
>  <Binding energies>  (1) 
[-7.4]

>  <Ligand effiencies>  (1) 
[-0.2846153846153846]

>  <Interactions>  (1) 
["V-B:PRO:540:N:9855, H-A:TYR:484:OH:4347, V-B:PRO:540:CA:9854, H-B:GLU:543:OE1:9880, V-B:TYR:539:C:9838, V-B:TYR:539:CD2:9845, V-B:TYR:539:CE2:9847, H-B:TYR:539:N:9841, V-B:MET:535:CE:9806, V-B:PRO:540:CB:9856, H-A:GLY:454:N:4049, V-A:ARG:545:CD:4922, V-B:PRO:540:CD:9858, V-B:TYR:531:CE2:9764, V-B:LEU:363:CD1:8159, V-A:ARG:545:CZ:4925, V-B:ILE:538:CD1:9836, V-A:ARG:545:CG:4921, V-B:ILE:538:CG2:9834, V-B:ILE:538:CA:9831, V-B:ILE:538:CG1:9835, V-B:ILE:538:C:9829, V-B:ILE:538:CB:9833, H-A:ARG:545:NE:4923, V-B:ASP:366:CB:8182, V-B:ASP:366:CG:8183, V-B:MET:535:CG:9804, V-B:LEU:363:CA:8155, V-B:VAL:537:C:9821, H-B:ASP:366:OD1:8184"]

$$$$
4ad_Grossjean_2025
     RDKit          3D

 36 38  0  0  0  0  0  0  0  0999 V2000
  126.2300  122.0060   54.7480 C   0  0  0  0  0  0  0  0  0  0  0  0
  126.0980  122.5220   56.1690 C   0  0  0  0  0  0  0  0  0  0  0  0
  124.9350  123.1590   56.5960 C   0  0  0  0  0  0  0  0  0  0  0  0
  124.8370  123.6300   57.9110 C   0  0  0  0  0  0  0  0  0  0  0  0
  123.5480  124.3210   58.3300 C   0  0  0  0  0  0  0  0  0  0  0  0
  125.9510  123.4330   58.7700 C   0  0  0  0  0  0  0  0  0  0  0  0
  126.1880  123.7790   60.1460 C   0  0  0  0  0  0  0  0  0  0  0  0
  125.2470  124.4230   60.9100 N   0  0  0  0  0  0  0  0  0  0  0  0
  127.4540  123.3990   60.6210 C   0  0  0  0  0  0  0  0  0  0  0  0
  128.0280  123.6070   61.9510 C   0  0  0  0  0  0  0  0  0  0  0  0
  127.4850  123.1320   62.9510 O   0  0  0  0  0  0  0  0  0  0  0  0
  129.1740  124.3310   61.9830 N   0  0  0  0  0  0  0  0  0  0  0  0
  129.9440  124.7400   63.0880 C   0  0  0  0  0  0  0  0  0  0  0  0
  130.8660  123.8060   63.5710 C   0  0  0  0  0  0  0  0  0  0  0  0
  131.6820  124.1190   64.6540 C   0  0  0  0  0  0  0  0  0  0  0  0
  131.5830  125.3730   65.2520 C   0  0  0  0  0  0  0  0  0  0  0  0
  130.6790  126.3170   64.7720 C   0  0  0  0  0  0  0  0  0  0  0  0
  129.8610  126.0060   63.6900 C   0  0  0  0  0  0  0  0  0  0  0  0
  128.3880  122.5900   59.3620 S   0  0  0  0  0  0  0  0  0  0  0  0
  127.0840  122.7680   58.2110 C   0  0  0  0  0  0  0  0  0  0  0  0
  127.1800  122.3180   56.9590 N   0  0  0  0  0  0  0  0  0  0  0  0
  126.5026  120.9405   54.7687 H   0  0  0  0  0  0  0  0  0  0  0  0
  125.2714  122.1291   54.2227 H   0  0  0  0  0  0  0  0  0  0  0  0
  127.0117  122.5743   54.2227 H   0  0  0  0  0  0  0  0  0  0  0  0
  124.0936  123.2920   55.9001 H   0  0  0  0  0  0  0  0  0  0  0  0
  123.4891  124.3526   59.4280 H   0  0  0  0  0  0  0  0  0  0  0  0
  123.5358  125.3466   57.9325 H   0  0  0  0  0  0  0  0  0  0  0  0
  122.6871  123.7634   57.9325 H   0  0  0  0  0  0  0  0  0  0  0  0
  125.2550  124.3770   61.9190 H   0  0  0  0  0  0  0  0  0  0  0  0
  124.5130  124.9740   60.4850 H   0  0  0  0  0  0  0  0  0  0  0  0
  129.5480  124.6090   61.0880 H   0  0  0  0  0  0  0  0  0  0  0  0
  130.9466  122.8189   63.0924 H   0  0  0  0  0  0  0  0  0  0  0  0
  132.4015  123.3798   65.0358 H   0  0  0  0  0  0  0  0  0  0  0  0
  132.2245  125.6197   66.1109 H   0  0  0  0  0  0  0  0  0  0  0  0
  130.6115  127.3068   65.2472 H   0  0  0  0  0  0  0  0  0  0  0  0
  129.1494  126.7519   63.3063 H   0  0  0  0  0  0  0  0  0  0  0  0
  1  2  1  0
  2  3  2  0
  3  4  1  0
  4  5  1  0
  4  6  2  0
  6  7  1  0
  7  8  1  0
  7  9  2  0
  9 10  1  0
 10 11  2  0
 10 12  1  0
 12 13  1  0
 13 14  2  0
 14 15  1  0
 15 16  2  0
 16 17  1  0
 17 18  2  0
  9 19  1  0
 19 20  1  0
 20 21  2  0
 21  2  1  0
 20  6  1  0
 18 13  1  0
  1 22  1  0
  1 23  1  0
  1 24  1  0
  3 25  1  0
  5 26  1  0
  5 27  1  0
  5 28  1  0
  8 29  1  0
  8 30  1  0
 12 31  1  0
 14 32  1  0
 15 33  1  0
 16 34  1  0
 17 35  1  0
 18 36  1  0
M  END
>  <Binding energies>  (1) 
[-6.94]

>  <Ligand effiencies>  (1) 
[-0.2891666666666667]

>  <Interactions>  (1) 
["V-B:PRO:540:N:9855, H-B:ALA:541:N:9862, V-B:PRO:540:CA:9854, V-B:TYR:539:C:9838, V-B:TYR:539:CD2:9845, V-B:TYR:539:CE2:9847, H-B:TYR:539:N:9841, V-B:MET:535:CE:9806, V-B:PRO:540:CB:9856, V-B:TYR:531:CZ:9765, V-B:PRO:540:CD:9858, V-B:TYR:531:CE2:9764, V-B:LEU:363:CD1:8159, V-B:ILE:538:CD1:9836, V-B:ILE:538:CG2:9834, V-B:ILE:538:CA:9831, V-B:ILE:538:CG1:9835, V-B:ILE:538:C:9829, V-B:ILE:538:CB:9833, V-B:ASP:366:CB:8182, V-B:ASP:366:CG:8183, V-B:MET:535:CG:9804, V-B:LEU:363:CA:8155, V-B:VAL:537:C:9821, H-B:ASP:366:OD1:8184, V-B:LEU:363:CB:8157"]

$$$$
4ae_Grossjean_2025
     RDKit          3D

 38 40  0  0  0  0  0  0  0  0999 V2000
  126.5100  121.9990   55.1230 C   0  0  0  0  0  0  0  0  0  0  0  0
  126.0940  122.5770   56.4620 C   0  0  0  0  0  0  0  0  0  0  0  0
  124.7860  123.0090   56.6970 C   0  0  0  0  0  0  0  0  0  0  0  0
  124.4770  123.5380   57.9500 C   0  0  0  0  0  0  0  0  0  0  0  0
  125.4720  123.6230   58.9270 C   0  0  0  0  0  0  0  0  0  0  0  0
  126.7590  123.1640   58.6280 C   0  0  0  0  0  0  0  0  0  0  0  0
  127.7220  123.2950   59.6440 N   0  0  0  0  0  0  0  0  0  0  0  0
  127.5630  123.1610   60.9850 C   0  0  0  0  0  0  0  0  0  0  0  0
  126.4880  122.8970   61.5250 O   0  0  0  0  0  0  0  0  0  0  0  0
  128.7760  123.3570   61.7820 C   0  0  0  0  0  0  0  0  0  0  0  0
  128.9370  124.7700   62.8260 S   0  0  0  0  0  0  0  0  0  0  0  0
  130.5410  124.2820   63.3210 C   0  0  0  0  0  0  0  0  0  0  0  0
  131.2650  125.0020   64.1780 N   0  0  0  0  0  0  0  0  0  0  0  0
  132.4940  124.5160   64.4750 C   0  0  0  0  0  0  0  0  0  0  0  0
  133.3040  125.3550   65.4470 C   0  0  0  0  0  0  0  0  0  0  0  0
  133.0110  123.3360   63.9410 C   0  0  0  0  0  0  0  0  0  0  0  0
  132.2480  122.5820   63.0430 C   0  0  0  0  0  0  0  0  0  0  0  0
  132.8560  121.3040   62.4850 C   0  0  0  0  0  0  0  0  0  0  0  0
  130.9530  123.0620   62.7060 C   0  0  0  0  0  0  0  0  0  0  0  0
  129.9270  122.5540   61.8340 C   0  0  0  0  0  0  0  0  0  0  0  0
  130.0780  121.3890   61.1250 N   0  0  0  0  0  0  0  0  0  0  0  0
  127.0700  122.6520   57.4010 N   0  0  0  0  0  0  0  0  0  0  0  0
  127.1455  121.1161   55.2863 H   0  0  0  0  0  0  0  0  0  0  0  0
  125.6142  121.7062   54.5558 H   0  0  0  0  0  0  0  0  0  0  0  0
  127.0721  122.7555   54.5558 H   0  0  0  0  0  0  0  0  0  0  0  0
  124.0185  122.9337   55.9126 H   0  0  0  0  0  0  0  0  0  0  0  0
  123.4564  123.8860   58.1675 H   0  0  0  0  0  0  0  0  0  0  0  0
  125.2465  124.0450   59.9175 H   0  0  0  0  0  0  0  0  0  0  0  0
  128.6380  123.5740   59.3250 H   0  0  0  0  0  0  0  0  0  0  0  0
  133.0384  125.0799   66.4784 H   0  0  0  0  0  0  0  0  0  0  0  0
  134.3764  125.1727   65.2834 H   0  0  0  0  0  0  0  0  0  0  0  0
  133.0841  126.4203   65.2834 H   0  0  0  0  0  0  0  0  0  0  0  0
  134.0184  122.9982   64.2258 H   0  0  0  0  0  0  0  0  0  0  0  0
  133.1660  120.6525   63.3153 H   0  0  0  0  0  0  0  0  0  0  0  0
  132.1098  120.7819   61.8681 H   0  0  0  0  0  0  0  0  0  0  0  0
  133.7319  121.5536   61.8681 H   0  0  0  0  0  0  0  0  0  0  0  0
  129.2840  120.8550   60.8000 H   0  0  0  0  0  0  0  0  0  0  0  0
  130.9940  121.0260   60.9010 H   0  0  0  0  0  0  0  0  0  0  0  0
  1  2  1  0
  2  3  2  0
  3  4  1  0
  4  5  2  0
  5  6  1  0
  6  7  1  0
  7  8  1  0
  8  9  2  0
  8 10  1  0
 10 11  1  0
 11 12  1  0
 12 13  2  0
 13 14  1  0
 14 15  1  0
 14 16  2  0
 16 17  1  0
 17 18  1  0
 17 19  2  0
 19 20  1  0
 20 21  1  0
  6 22  2  0
 22  2  1  0
 20 10  2  0
 19 12  1  0
  1 23  1  0
  1 24  1  0
  1 25  1  0
  3 26  1  0
  4 27  1  0
  5 28  1  0
  7 29  1  0
 15 30  1  0
 15 31  1  0
 15 32  1  0
 16 33  1  0
 18 34  1  0
 18 35  1  0
 18 36  1  0
 21 37  1  0
 21 38  1  0
M  END
>  <Binding energies>  (1) 
[-6.82]

>  <Ligand effiencies>  (1) 
[-0.2728]

>  <Interactions>  (1) 
["V-B:GLU:543:CD:9879, V-B:PRO:540:N:9855, H-B:ALA:541:N:9862, V-B:PRO:540:CA:9854, V-B:TYR:539:C:9838, V-A:LEU:475:CD2:4258, H-B:TYR:539:O:9839, V-B:TYR:539:CD2:9845, V-B:TYR:539:CE2:9847, V-A:GLY:454:CA:4048, V-B:MET:535:CE:9806, V-B:PRO:540:CB:9856, V-B:TYR:531:CZ:9765, V-B:PRO:540:CD:9858, V-B:TYR:531:CE2:9764, V-B:LEU:363:CD1:8159, V-A:ARG:545:CZ:4925, V-B:ILE:538:CD1:9836, V-B:ILE:538:CG2:9834, V-B:ILE:538:CA:9831, V-B:ILE:538:C:9829, V-B:ILE:538:CB:9833, V-B:MET:535:CG:9804, V-B:VAL:537:C:9821"]

$$$$
4af_Grossjean_2025
     RDKit          3D

 35 37  0  0  0  0  0  0  0  0999 V2000
  126.4770  122.0060   54.7640 C   0  0  0  0  0  0  0  0  0  0  0  0
  126.2590  122.5220   56.1750 C   0  0  0  0  0  0  0  0  0  0  0  0
  125.0720  123.1570   56.5310 C   0  0  0  0  0  0  0  0  0  0  0  0
  124.8940  123.6270   57.8380 C   0  0  0  0  0  0  0  0  0  0  0  0
  123.5820  124.3150   58.1790 C   0  0  0  0  0  0  0  0  0  0  0  0
  125.9550  123.4310   58.7630 C   0  0  0  0  0  0  0  0  0  0  0  0
  126.1090  123.7800   60.1500 C   0  0  0  0  0  0  0  0  0  0  0  0
  125.1260  124.4280   60.8550 N   0  0  0  0  0  0  0  0  0  0  0  0
  127.3420  123.3970   60.7010 C   0  0  0  0  0  0  0  0  0  0  0  0
  127.8410  123.6170   62.0600 C   0  0  0  0  0  0  0  0  0  0  0  0
  127.2680  123.1150   63.0280 O   0  0  0  0  0  0  0  0  0  0  0  0
  128.9560  124.3820   62.1510 N   0  0  0  0  0  0  0  0  0  0  0  0
  129.6530  124.8170   63.2950 C   0  0  0  0  0  0  0  0  0  0  0  0
  130.2320  126.0880   63.4620 C   0  0  0  0  0  0  0  0  0  0  0  0
  130.9130  126.3870   64.6440 C   0  0  0  0  0  0  0  0  0  0  0  0
  131.0030  125.4040   65.6300 C   0  0  0  0  0  0  0  0  0  0  0  0
  130.4610  124.1680   65.4900 N   0  0  0  0  0  0  0  0  0  0  0  0
  129.8020  123.8930   64.3360 C   0  0  0  0  0  0  0  0  0  0  0  0
  128.3530  122.5890   59.5010 S   0  0  0  0  0  0  0  0  0  0  0  0
  127.1190  122.7660   58.2740 C   0  0  0  0  0  0  0  0  0  0  0  0
  127.2910  122.3170   57.0300 N   0  0  0  0  0  0  0  0  0  0  0  0
  126.9048  120.9935   54.8059 H   0  0  0  0  0  0  0  0  0  0  0  0
  125.5147  121.9758   54.2319 H   0  0  0  0  0  0  0  0  0  0  0  0
  127.1694  122.6749   54.2319 H   0  0  0  0  0  0  0  0  0  0  0  0
  124.2741  123.2894   55.7855 H   0  0  0  0  0  0  0  0  0  0  0  0
  123.4716  124.3729   59.2719 H   0  0  0  0  0  0  0  0  0  0  0  0
  123.5796  125.3304   57.7559 H   0  0  0  0  0  0  0  0  0  0  0  0
  122.7454  123.7395   57.7559 H   0  0  0  0  0  0  0  0  0  0  0  0
  125.0950  124.4130   61.8650 H   0  0  0  0  0  0  0  0  0  0  0  0
  124.3990  124.9480   60.3840 H   0  0  0  0  0  0  0  0  0  0  0  0
  129.3600  124.6850   61.2770 H   0  0  0  0  0  0  0  0  0  0  0  0
  130.1488  126.8424   62.6658 H   0  0  0  0  0  0  0  0  0  0  0  0
  131.3689  127.3767   64.7945 H   0  0  0  0  0  0  0  0  0  0  0  0
  131.5369  125.6415   66.5620 H   0  0  0  0  0  0  0  0  0  0  0  0
  129.3622  122.8924   64.2122 H   0  0  0  0  0  0  0  0  0  0  0  0
  1  2  1  0
  2  3  2  0
  3  4  1  0
  4  5  1  0
  4  6  2  0
  6  7  1  0
  7  8  1  0
  7  9  2  0
  9 10  1  0
 10 11  2  0
 10 12  1  0
 12 13  1  0
 13 14  2  0
 14 15  1  0
 15 16  2  0
 16 17  1  0
 17 18  2  0
  9 19  1  0
 19 20  1  0
 20 21  2  0
 21  2  1  0
 20  6  1  0
 18 13  1  0
  1 22  1  0
  1 23  1  0
  1 24  1  0
  3 25  1  0
  5 26  1  0
  5 27  1  0
  5 28  1  0
  8 29  1  0
  8 30  1  0
 12 31  1  0
 14 32  1  0
 15 33  1  0
 16 34  1  0
 18 35  1  0
M  END
>  <Binding energies>  (1) 
[-7.28]

>  <Ligand effiencies>  (1) 
[-0.30333333333333334]

>  <Interactions>  (1) 
["V-B:GLU:543:CD:9879, V-B:PRO:540:N:9855, H-B:ALA:541:N:9862, H-A:TYR:484:OH:4347, V-B:PRO:540:CA:9854, V-B:TYR:539:C:9838, V-B:TYR:539:CD2:9845, V-B:TYR:539:CE2:9847, H-B:TYR:539:N:9841, V-B:MET:535:CE:9806, V-B:PRO:540:CB:9856, V-B:TYR:531:CZ:9765, V-B:PRO:540:CD:9858, V-B:TYR:531:CE2:9764, V-B:LEU:363:CD1:8159, V-B:ILE:538:CD1:9836, V-B:ILE:538:CG2:9834, V-B:ILE:538:CA:9831, V-B:ILE:538:CG1:9835, V-B:ILE:538:C:9829, V-B:ILE:538:CB:9833, V-B:ASP:366:CB:8182, V-B:ASP:366:CG:8183, V-B:MET:535:CG:9804, V-B:LEU:363:CA:8155, V-B:VAL:537:C:9821, H-B:ASP:366:OD1:8184"]

$$$$
4ag_Grossjean_2025
     RDKit          3D

 39 41  0  0  0  0  0  0  0  0999 V2000
  126.4690  122.0020   54.7520 C   0  0  0  0  0  0  0  0  0  0  0  0
  126.2580  122.5300   56.1590 C   0  0  0  0  0  0  0  0  0  0  0  0
  125.0750  123.1770   56.5120 C   0  0  0  0  0  0  0  0  0  0  0  0
  124.9010  123.6550   57.8160 C   0  0  0  0  0  0  0  0  0  0  0  0
  123.5930  124.3550   58.1530 C   0  0  0  0  0  0  0  0  0  0  0  0
  125.9590  123.4560   58.7420 C   0  0  0  0  0  0  0  0  0  0  0  0
  126.1140  123.8080   60.1270 C   0  0  0  0  0  0  0  0  0  0  0  0
  125.1370  124.4670   60.8310 N   0  0  0  0  0  0  0  0  0  0  0  0
  127.3440  123.4210   60.6790 C   0  0  0  0  0  0  0  0  0  0  0  0
  127.8260  123.6090   62.0480 C   0  0  0  0  0  0  0  0  0  0  0  0
  127.2380  123.1090   63.0090 O   0  0  0  0  0  0  0  0  0  0  0  0
  128.9300  124.3720   62.1890 N   0  0  0  0  0  0  0  0  0  0  0  0
  129.5980  124.6690   63.4560 C   0  0  0  0  0  0  0  0  0  0  0  0
  131.1200  124.6360   63.3760 C   0  0  0  0  0  0  0  0  0  0  0  0
  131.7470  123.9250   62.3490 C   0  0  0  0  0  0  0  0  0  0  0  0
  133.1370  123.9130   62.2600 C   0  0  0  0  0  0  0  0  0  0  0  0
  133.8940  124.6220   63.1900 C   0  0  0  0  0  0  0  0  0  0  0  0
  133.2750  125.3450   64.2070 C   0  0  0  0  0  0  0  0  0  0  0  0
  131.8860  125.3580   64.2960 C   0  0  0  0  0  0  0  0  0  0  0  0
  128.3470  122.5920   59.4890 S   0  0  0  0  0  0  0  0  0  0  0  0
  127.1180  122.7780   58.2570 C   0  0  0  0  0  0  0  0  0  0  0  0
  127.2870  122.3200   57.0160 N   0  0  0  0  0  0  0  0  0  0  0  0
  126.8768  120.9815   54.8006 H   0  0  0  0  0  0  0  0  0  0  0  0
  125.5076  121.9876   54.2178 H   0  0  0  0  0  0  0  0  0  0  0  0
  127.1756  122.6542   54.2178 H   0  0  0  0  0  0  0  0  0  0  0  0
  124.2781  123.3120   55.7658 H   0  0  0  0  0  0  0  0  0  0  0  0
  123.4803  124.4153   59.2455 H   0  0  0  0  0  0  0  0  0  0  0  0
  123.6003  125.3698   57.7286 H   0  0  0  0  0  0  0  0  0  0  0  0
  122.7527  123.7860   57.7286 H   0  0  0  0  0  0  0  0  0  0  0  0
  124.3190  124.8480   60.3770 H   0  0  0  0  0  0  0  0  0  0  0  0
  125.2030  124.5900   61.8320 H   0  0  0  0  0  0  0  0  0  0  0  0
  129.3920  124.7020   61.3550 H   0  0  0  0  0  0  0  0  0  0  0  0
  129.2903  125.6734   63.7824 H   0  0  0  0  0  0  0  0  0  0  0  0
  129.2991  123.8835   64.1657 H   0  0  0  0  0  0  0  0  0  0  0  0
  131.1434  123.3754   61.6117 H   0  0  0  0  0  0  0  0  0  0  0  0
  133.6346  123.3464   61.4592 H   0  0  0  0  0  0  0  0  0  0  0  0
  134.9917  124.6108   63.1205 H   0  0  0  0  0  0  0  0  0  0  0  0
  133.8808  125.9029   64.9362 H   0  0  0  0  0  0  0  0  0  0  0  0
  131.3911  125.9363   65.0901 H   0  0  0  0  0  0  0  0  0  0  0  0
  1  2  1  0
  2  3  2  0
  3  4  1  0
  4  5  1  0
  4  6  2  0
  6  7  1  0
  7  8  1  0
  7  9  2  0
  9 10  1  0
 10 11  2  0
 10 12  1  0
 12 13  1  0
 13 14  1  0
 14 15  2  0
 15 16  1  0
 16 17  2  0
 17 18  1  0
 18 19  2  0
  9 20  1  0
 20 21  1  0
 21 22  2  0
 22  2  1  0
 21  6  1  0
 19 14  1  0
  1 23  1  0
  1 24  1  0
  1 25  1  0
  3 26  1  0
  5 27  1  0
  5 28  1  0
  5 29  1  0
  8 30  1  0
  8 31  1  0
 12 32  1  0
 13 33  1  0
 13 34  1  0
 15 35  1  0
 16 36  1  0
 17 37  1  0
 18 38  1  0
 19 39  1  0
M  END
>  <Binding energies>  (1) 
[-7.48]

>  <Ligand effiencies>  (1) 
[-0.2992]

>  <Interactions>  (1) 
["V-A:ASP:366:CG:3212, V-B:GLU:543:CD:9879, V-B:PRO:540:N:9855, H-B:ALA:541:N:9862, V-B:PRO:540:CA:9854, V-B:TYR:539:C:9838, V-B:TYR:539:CD2:9845, V-B:TYR:539:CE2:9847, V-A:GLY:454:CA:4048, H-B:TYR:539:N:9841, V-B:MET:535:CE:9806, V-B:PRO:540:CB:9856, V-A:GLY:453:C:4041, V-B:TYR:531:CZ:9765, V-B:TYR:531:CE2:9764, V-B:LEU:363:CD1:8159, V-A:ARG:545:CZ:4925, V-B:ILE:538:CD1:9836, V-B:ILE:538:CG2:9834, V-B:ILE:538:CA:9831, V-B:ILE:538:CG1:9835, V-B:ILE:538:C:9829, V-B:ILE:538:CB:9833, V-B:ASP:366:CB:8182, V-B:ASP:366:CG:8183, V-B:MET:535:CG:9804, V-B:LEU:363:CA:8155, V-B:VAL:537:C:9821, H-B:ASP:366:OD1:8184"]

$$$$
4ah_Grossjean_2025
     RDKit          3D

 51 53  0  0  0  0  0  0  0  0999 V2000
  133.9850  122.1130   62.5090 C   0  0  0  0  0  0  0  0  0  0  0  0
  133.9120  123.2420   63.3720 O   0  0  0  0  0  0  0  0  0  0  0  0
  132.6860  123.6220   63.8910 C   0  0  0  0  0  0  0  0  0  0  0  0
  131.5040  122.8830   63.7280 C   0  0  0  0  0  0  0  0  0  0  0  0
  130.3010  123.3290   64.2780 C   0  0  0  0  0  0  0  0  0  0  0  0
  129.0370  122.4900   64.1310 C   0  0  0  0  0  0  0  0  0  0  0  0
  128.4630  122.5260   62.7860 N   0  0  0  0  0  0  0  0  0  0  0  0
  127.6310  123.4790   62.3160 C   0  0  0  0  0  0  0  0  0  0  0  0
  127.2340  124.4160   63.0110 O   0  0  0  0  0  0  0  0  0  0  0  0
  127.1840  123.3160   60.9330 C   0  0  0  0  0  0  0  0  0  0  0  0
  128.1750  122.4170   59.7830 S   0  0  0  0  0  0  0  0  0  0  0  0
  127.0340  122.7240   58.4930 C   0  0  0  0  0  0  0  0  0  0  0  0
  127.2240  122.2610   57.2570 N   0  0  0  0  0  0  0  0  0  0  0  0
  126.2640  122.5680   56.3520 C   0  0  0  0  0  0  0  0  0  0  0  0
  126.5020  122.0350   54.9510 C   0  0  0  0  0  0  0  0  0  0  0  0
  125.1280  123.3170   56.6510 C   0  0  0  0  0  0  0  0  0  0  0  0
  124.9310  123.8040   57.9480 C   0  0  0  0  0  0  0  0  0  0  0  0
  123.6770  124.6180   58.2260 C   0  0  0  0  0  0  0  0  0  0  0  0
  125.9190  123.5040   58.9250 C   0  0  0  0  0  0  0  0  0  0  0  0
  126.0370  123.8380   60.3190 C   0  0  0  0  0  0  0  0  0  0  0  0
  125.0970  124.5930   60.9750 N   0  0  0  0  0  0  0  0  0  0  0  0
  130.2800  124.5090   65.0220 C   0  0  0  0  0  0  0  0  0  0  0  0
  131.4460  125.2710   65.1970 C   0  0  0  0  0  0  0  0  0  0  0  0
  131.4940  126.4570   65.9080 O   0  0  0  0  0  0  0  0  0  0  0  0
  130.6360  126.6320   67.0300 C   0  0  0  0  0  0  0  0  0  0  0  0
  132.6410  124.8190   64.6200 C   0  0  0  0  0  0  0  0  0  0  0  0
  133.7950  125.5460   64.7980 O   0  0  0  0  0  0  0  0  0  0  0  0
  134.1560  125.7330   66.1590 C   0  0  0  0  0  0  0  0  0  0  0  0
  134.0444  121.1944   63.1112 H   0  0  0  0  0  0  0  0  0  0  0  0
  133.0872  122.0780   61.8743 H   0  0  0  0  0  0  0  0  0  0  0  0
  134.8798  122.1939   61.8743 H   0  0  0  0  0  0  0  0  0  0  0  0
  131.5258  121.9412   63.1601 H   0  0  0  0  0  0  0  0  0  0  0  0
  129.2820  121.4462   64.3766 H   0  0  0  0  0  0  0  0  0  0  0  0
  128.2864  122.9154   64.8134 H   0  0  0  0  0  0  0  0  0  0  0  0
  128.8110  121.8360   62.1370 H   0  0  0  0  0  0  0  0  0  0  0  0
  126.9498  121.0321   55.0114 H   0  0  0  0  0  0  0  0  0  0  0  0
  125.5442  121.9771   54.4131 H   0  0  0  0  0  0  0  0  0  0  0  0
  127.1844  122.7095   54.4131 H   0  0  0  0  0  0  0  0  0  0  0  0
  124.3853  123.5257   55.8669 H   0  0  0  0  0  0  0  0  0  0  0  0
  123.5337  124.7110   59.3126 H   0  0  0  0  0  0  0  0  0  0  0  0
  123.7841  125.6192   57.7832 H   0  0  0  0  0  0  0  0  0  0  0  0
  122.8061  124.1125   57.7832 H   0  0  0  0  0  0  0  0  0  0  0  0
  124.2430  124.8890   60.5270 H   0  0  0  0  0  0  0  0  0  0  0  0
  125.2350  124.8820   61.9340 H   0  0  0  0  0  0  0  0  0  0  0  0
  129.3374  124.8468   65.4775 H   0  0  0  0  0  0  0  0  0  0  0  0
  131.2160  126.5137   67.9571 H   0  0  0  0  0  0  0  0  0  0  0  0
  130.1939  127.6388   67.0000 H   0  0  0  0  0  0  0  0  0  0  0  0
  129.8349  125.8788   67.0000 H   0  0  0  0  0  0  0  0  0  0  0  0
  133.3668  125.3242   66.8072 H   0  0  0  0  0  0  0  0  0  0  0  0
  135.1035  125.2123   66.3619 H   0  0  0  0  0  0  0  0  0  0  0  0
  134.2773  126.8073   66.3619 H   0  0  0  0  0  0  0  0  0  0  0  0
  1  2  1  0
  2  3  1  0
  3  4  2  0
  4  5  1  0
  5  6  1  0
  6  7  1  0
  7  8  1  0
  8  9  2  0
  8 10  1  0
 10 11  1  0
 11 12  1  0
 12 13  2  0
 13 14  1  0
 14 15  1  0
 14 16  2  0
 16 17  1  0
 17 18  1  0
 17 19  2  0
 19 20  1  0
 20 21  1  0
  5 22  2  0
 22 23  1  0
 23 24  1  0
 24 25  1  0
 23 26  2  0
 26 27  1  0
 27 28  1  0
 26  3  1  0
 20 10  2  0
 19 12  1  0
  1 29  1  0
  1 30  1  0
  1 31  1  0
  4 32  1  0
  6 33  1  0
  6 34  1  0
  7 35  1  0
 15 36  1  0
 15 37  1  0
 15 38  1  0
 16 39  1  0
 18 40  1  0
 18 41  1  0
 18 42  1  0
 21 43  1  0
 21 44  1  0
 22 45  1  0
 25 46  1  0
 25 47  1  0
 25 48  1  0
 28 49  1  0
 28 50  1  0
 28 51  1  0
M  END
>  <Binding energies>  (1) 
[-7.44]

>  <Ligand effiencies>  (1) 
[-0.24000000000000002]

>  <Interactions>  (1) 
["V-B:GLU:543:CD:9879, V-B:PRO:540:N:9855, H-A:TYR:484:OH:4347, V-B:ALA:541:CB:9863, V-B:PRO:540:CA:9854, V-B:ALA:541:CA:9861, H-B:GLU:543:OE1:9880, V-B:TYR:539:C:9838, V-A:LEU:475:CD2:4258, H-B:TYR:539:O:9839, V-A:ILE:369:CD1:3238, V-B:TYR:539:CD2:9845, V-B:TYR:539:CE2:9847, V-A:GLY:454:CA:4048, H-B:TYR:539:N:9841, V-B:MET:535:CE:9806, V-B:GLU:543:CG:9878, V-B:PRO:540:CB:9856, H-A:GLY:454:N:4049, V-A:GLY:453:C:4041, V-A:ARG:545:CD:4922, V-B:TYR:531:CZ:9765, V-B:PRO:540:CD:9858, V-B:TYR:531:CE2:9764, V-B:LEU:363:CD1:8159, V-A:ARG:545:CZ:4925, V-B:ILE:538:CD1:9836, V-A:ARG:545:CG:4921, V-B:ILE:538:CG2:9834, H-A:ARG:545:NH1:4926, H-A:ARG:545:NH2:4927, V-B:ILE:538:CA:9831, V-A:GLY:453:CA:4043, V-B:ILE:538:C:9829, V-B:ILE:538:CB:9833, H-A:ARG:545:NE:4923, V-B:ASP:366:CB:8182, V-B:ASP:366:CG:8183, V-B:MET:535:CG:9804, V-B:LEU:363:CA:8155, V-B:VAL:537:C:9821, H-B:ASP:366:OD1:8184"]

$$$$
4ai_Grossjean_2025
     RDKit          3D

 32 34  0  0  0  0  0  0  0  0999 V2000
  126.4890  122.0580   54.8870 C   0  0  0  0  0  0  0  0  0  0  0  0
  126.2410  122.5710   56.2940 C   0  0  0  0  0  0  0  0  0  0  0  0
  125.0690  123.2540   56.6120 C   0  0  0  0  0  0  0  0  0  0  0  0
  124.8590  123.7140   57.9170 C   0  0  0  0  0  0  0  0  0  0  0  0
  123.5630  124.4520   58.2150 C   0  0  0  0  0  0  0  0  0  0  0  0
  125.8710  123.4570   58.8820 C   0  0  0  0  0  0  0  0  0  0  0  0
  125.9810  123.7780   60.2790 C   0  0  0  0  0  0  0  0  0  0  0  0
  125.0020  124.4650   60.9520 N   0  0  0  0  0  0  0  0  0  0  0  0
  127.1650  123.3190   60.8780 C   0  0  0  0  0  0  0  0  0  0  0  0
  127.6040  123.4770   62.2660 C   0  0  0  0  0  0  0  0  0  0  0  0
  126.8770  123.1300   63.1990 O   0  0  0  0  0  0  0  0  0  0  0  0
  128.8440  124.0030   62.4270 N   0  0  0  0  0  0  0  0  0  0  0  0
  129.5080  124.2490   63.6220 C   0  0  0  0  0  0  0  0  0  0  0  0
  130.2980  125.3790   63.8350 C   0  0  0  0  0  0  0  0  0  0  0  0
  130.7720  125.2470   65.1200 C   0  0  0  0  0  0  0  0  0  0  0  0
  130.2910  124.1000   65.6540 O   0  0  0  0  0  0  0  0  0  0  0  0
  129.4900  123.4760   64.6960 N   0  0  0  0  0  0  0  0  0  0  0  0
  128.1930  122.4930   59.7050 S   0  0  0  0  0  0  0  0  0  0  0  0
  127.0240  122.7480   58.4290 C   0  0  0  0  0  0  0  0  0  0  0  0
  127.2280  122.3100   57.1860 N   0  0  0  0  0  0  0  0  0  0  0  0
  126.9673  121.0687   54.9364 H   0  0  0  0  0  0  0  0  0  0  0  0
  125.5311  121.9759   54.3525 H   0  0  0  0  0  0  0  0  0  0  0  0
  127.1483  122.7577   54.3525 H   0  0  0  0  0  0  0  0  0  0  0  0
  124.3086  123.4317   55.8372 H   0  0  0  0  0  0  0  0  0  0  0  0
  123.4271  124.5294   59.3038 H   0  0  0  0  0  0  0  0  0  0  0  0
  123.6067  125.4607   57.7784 H   0  0  0  0  0  0  0  0  0  0  0  0
  122.7178  123.8997   57.7784 H   0  0  0  0  0  0  0  0  0  0  0  0
  124.9730  124.5000   61.9600 H   0  0  0  0  0  0  0  0  0  0  0  0
  124.2720  124.9580   60.4560 H   0  0  0  0  0  0  0  0  0  0  0  0
  129.3550  124.2380   61.5900 H   0  0  0  0  0  0  0  0  0  0  0  0
  130.4985  126.1981   63.1287 H   0  0  0  0  0  0  0  0  0  0  0  0
  131.4357  125.9597   65.6315 H   0  0  0  0  0  0  0  0  0  0  0  0
  1  2  1  0
  2  3  2  0
  3  4  1  0
  4  5  1  0
  4  6  2  0
  6  7  1  0
  7  8  1  0
  7  9  2  0
  9 10  1  0
 10 11  2  0
 10 12  1  0
 12 13  1  0
 13 14  1  0
 14 15  2  0
 15 16  1  0
 16 17  1  0
  9 18  1  0
 18 19  1  0
 19 20  2  0
 20  2  1  0
 19  6  1  0
 17 13  2  0
  1 21  1  0
  1 22  1  0
  1 23  1  0
  3 24  1  0
  5 25  1  0
  5 26  1  0
  5 27  1  0
  8 28  1  0
  8 29  1  0
 12 30  1  0
 14 31  1  0
 15 32  1  0
M  END
>  <Binding energies>  (1) 
[-7.15]

>  <Ligand effiencies>  (1) 
[-0.31086956521739134]

>  <Interactions>  (1) 
["V-B:GLU:543:CD:9879, V-B:PRO:540:N:9855, H-B:ALA:541:N:9862, H-A:TYR:484:OH:4347, V-B:PRO:540:CA:9854, V-B:TYR:539:C:9838, V-B:TYR:539:CD2:9845, V-B:TYR:539:CE2:9847, H-B:TYR:539:N:9841, V-B:MET:535:CE:9806, V-B:PRO:540:CB:9856, V-B:TYR:531:CZ:9765, V-B:PRO:540:CD:9858, V-B:TYR:531:CE2:9764, V-B:LEU:363:CD1:8159, V-B:ILE:538:CD1:9836, V-B:ILE:538:CG2:9834, V-B:ILE:538:CA:9831, V-B:ILE:538:C:9829, V-B:ILE:538:CB:9833, V-B:ASP:366:CB:8182, V-B:ASP:366:CG:8183, V-B:MET:535:CG:9804, V-B:LEU:363:CA:8155, V-B:VAL:537:C:9821, H-B:ASP:366:OD1:8184"]

$$$$
4aj_Grossjean_2025
     RDKit          3D

 32 34  0  0  0  0  0  0  0  0999 V2000
  126.0750  122.3620   54.7520 C   0  0  0  0  0  0  0  0  0  0  0  0
  125.9780  122.7560   56.2150 C   0  0  0  0  0  0  0  0  0  0  0  0
  124.8580  123.4210   56.7060 C   0  0  0  0  0  0  0  0  0  0  0  0
  124.7920  123.7800   58.0570 C   0  0  0  0  0  0  0  0  0  0  0  0
  123.5470  124.5060   58.5440 C   0  0  0  0  0  0  0  0  0  0  0  0
  125.8940  123.4420   58.8870 C   0  0  0  0  0  0  0  0  0  0  0  0
  126.1560  123.6550   60.2850 C   0  0  0  0  0  0  0  0  0  0  0  0
  125.2650  124.2950   61.1080 N   0  0  0  0  0  0  0  0  0  0  0  0
  127.3900  123.1450   60.7180 C   0  0  0  0  0  0  0  0  0  0  0  0
  127.9760  123.1930   62.0590 C   0  0  0  0  0  0  0  0  0  0  0  0
  127.3580  123.6980   62.9990 O   0  0  0  0  0  0  0  0  0  0  0  0
  129.2090  122.6410   62.1760 N   0  0  0  0  0  0  0  0  0  0  0  0
  129.9740  122.5470   63.3300 C   0  0  0  0  0  0  0  0  0  0  0  0
  129.5530  122.4110   64.5690 N   0  0  0  0  0  0  0  0  0  0  0  0
  130.5600  122.3490   65.4190 C   0  0  0  0  0  0  0  0  0  0  0  0
  131.8360  122.4370   64.8700 C   0  0  0  0  0  0  0  0  0  0  0  0
  131.6970  122.6090   63.1450 S   0  0  0  0  0  0  0  0  0  0  0  0
  128.2730  122.3960   59.3860 S   0  0  0  0  0  0  0  0  0  0  0  0
  126.9810  122.7580   58.2630 C   0  0  0  0  0  0  0  0  0  0  0  0
  127.0470  122.4160   56.9760 N   0  0  0  0  0  0  0  0  0  0  0  0
  126.3373  121.2965   54.6759 H   0  0  0  0  0  0  0  0  0  0  0  0
  125.1069  122.5373   54.2601 H   0  0  0  0  0  0  0  0  0  0  0  0
  126.8511  122.9667   54.2601 H   0  0  0  0  0  0  0  0  0  0  0  0
  124.0240  123.6646   56.0314 H   0  0  0  0  0  0  0  0  0  0  0  0
  123.5337  124.5137   59.6439 H   0  0  0  0  0  0  0  0  0  0  0  0
  123.5560  125.5405   58.1701 H   0  0  0  0  0  0  0  0  0  0  0  0
  122.6511  123.9887   58.1701 H   0  0  0  0  0  0  0  0  0  0  0  0
  124.3960  124.6740   60.7610 H   0  0  0  0  0  0  0  0  0  0  0  0
  125.4510  124.4110   62.0950 H   0  0  0  0  0  0  0  0  0  0  0  0
  129.6220  122.2490   61.3420 H   0  0  0  0  0  0  0  0  0  0  0  0
  130.4001  122.2342   66.5012 H   0  0  0  0  0  0  0  0  0  0  0  0
  132.7790  122.4032   65.4353 H   0  0  0  0  0  0  0  0  0  0  0  0
  1  2  1  0
  2  3  2  0
  3  4  1  0
  4  5  1  0
  4  6  2  0
  6  7  1  0
  7  8  1  0
  7  9  2  0
  9 10  1  0
 10 11  2  0
 10 12  1  0
 12 13  1  0
 13 14  2  0
 14 15  1  0
 15 16  2  0
 16 17  1  0
  9 18  1  0
 18 19  1  0
 19 20  2  0
 20  2  1  0
 19  6  1  0
 17 13  1  0
  1 21  1  0
  1 22  1  0
  1 23  1  0
  3 24  1  0
  5 25  1  0
  5 26  1  0
  5 27  1  0
  8 28  1  0
  8 29  1  0
 12 30  1  0
 15 31  1  0
 16 32  1  0
M  END
>  <Binding energies>  (1) 
[-6.59]

>  <Ligand effiencies>  (1) 
[-0.28652173913043477]

>  <Interactions>  (1) 
["V-B:PRO:540:N:9855, V-B:ALA:541:CB:9863, V-B:PRO:540:CA:9854, V-B:PRO:540:C:9852, H-B:GLU:543:OE1:9880, V-B:TYR:539:C:9838, V-A:LEU:475:CD2:4258, H-B:TYR:539:O:9839, V-B:TYR:539:CD2:9845, V-B:TYR:539:CE2:9847, V-A:GLY:454:CA:4048, H-B:TYR:539:N:9841, V-B:MET:535:CE:9806, V-A:LEU:475:CD1:4257, V-B:PRO:540:CB:9856, V-B:TYR:531:CZ:9765, V-B:TYR:531:CE2:9764, V-B:LEU:363:CD1:8159, V-B:ILE:538:CD1:9836, V-B:ILE:538:CG2:9834, V-B:ILE:538:CA:9831, V-B:ILE:538:CG1:9835, V-B:ILE:538:C:9829, V-B:ILE:538:CB:9833, V-B:ASP:366:CB:8182, V-A:TYR:484:CZ:4346, V-A:TYR:484:CE2:4345, V-B:ASP:366:CG:8183, V-B:MET:535:CG:9804, V-B:LEU:363:CA:8155, H-B:ASP:366:OD1:8184"]

$$$$
4ak_Grossjean_2025
     RDKit          3D

 50 51  0  0  0  0  0  0  0  0999 V2000
  131.9670  117.4810   58.9260 C   0  0  0  0  0  0  0  0  0  0  0  0
  132.8000  117.4030   60.0730 O   0  0  0  0  0  0  0  0  0  0  0  0
  132.1390  117.7690   61.2780 C   0  0  0  0  0  0  0  0  0  0  0  0
  130.9370  118.6640   60.9510 C   0  0  0  0  0  0  0  0  0  0  0  0
  131.2910  120.0240   61.1610 O   0  0  0  0  0  0  0  0  0  0  0  0
  132.6910  120.2660   61.1180 C   0  0  0  0  0  0  0  0  0  0  0  0
  132.9880  121.6330   61.7470 C   0  0  0  0  0  0  0  0  0  0  0  0
  131.7680  122.3340   61.9470 O   0  0  0  0  0  0  0  0  0  0  0  0
  131.5010  122.6470   63.3070 C   0  0  0  0  0  0  0  0  0  0  0  0
  130.0950  123.2630   63.4210 C   0  0  0  0  0  0  0  0  0  0  0  0
  129.3330  123.2200   62.1720 N   0  0  0  0  0  0  0  0  0  0  0  0
  127.9890  123.1690   62.0800 C   0  0  0  0  0  0  0  0  0  0  0  0
  127.2580  123.1760   63.0720 O   0  0  0  0  0  0  0  0  0  0  0  0
  127.4390  123.1140   60.7260 C   0  0  0  0  0  0  0  0  0  0  0  0
  128.3620  122.3710   59.4210 S   0  0  0  0  0  0  0  0  0  0  0  0
  127.0840  122.6940   58.2710 C   0  0  0  0  0  0  0  0  0  0  0  0
  127.1850  122.3460   56.9880 N   0  0  0  0  0  0  0  0  0  0  0  0
  126.1240  122.6560   56.2020 C   0  0  0  0  0  0  0  0  0  0  0  0
  126.2570  122.2520   54.7460 C   0  0  0  0  0  0  0  0  0  0  0  0
  124.9770  123.2970   56.6660 C   0  0  0  0  0  0  0  0  0  0  0  0
  124.8740  123.6600   58.0150 C   0  0  0  0  0  0  0  0  0  0  0  0
  123.6050  124.3610   58.4730 C   0  0  0  0  0  0  0  0  0  0  0  0
  125.9670  123.3520   58.8680 C   0  0  0  0  0  0  0  0  0  0  0  0
  126.1940  123.5750   60.2710 C   0  0  0  0  0  0  0  0  0  0  0  0
  125.2670  124.1870   61.0760 N   0  0  0  0  0  0  0  0  0  0  0  0
  130.9176  117.5793   59.2409 H   0  0  0  0  0  0  0  0  0  0  0  0
  132.2527  118.3563   58.3242 H   0  0  0  0  0  0  0  0  0  0  0  0
  132.0852  116.5679   58.3242 H   0  0  0  0  0  0  0  0  0  0  0  0
  131.7912  116.8626   61.7952 H   0  0  0  0  0  0  0  0  0  0  0  0
  132.8377  118.3167   61.9274 H   0  0  0  0  0  0  0  0  0  0  0  0
  130.6460  118.5184   59.9002 H   0  0  0  0  0  0  0  0  0  0  0  0
  130.0926  118.3988   61.6042 H   0  0  0  0  0  0  0  0  0  0  0  0
  133.2172  119.4805   61.6803 H   0  0  0  0  0  0  0  0  0  0  0  0
  133.0346  120.2584   60.0731 H   0  0  0  0  0  0  0  0  0  0  0  0
  133.4925  121.4905   62.7140 H   0  0  0  0  0  0  0  0  0  0  0  0
  133.6400  122.2126   61.0770 H   0  0  0  0  0  0  0  0  0  0  0  0
  131.5502  121.7294   63.9117 H   0  0  0  0  0  0  0  0  0  0  0  0
  132.2489  123.3657   63.6733 H   0  0  0  0  0  0  0  0  0  0  0  0
  129.5345  122.7104   64.1894 H   0  0  0  0  0  0  0  0  0  0  0  0
  130.2278  124.3235   63.6813 H   0  0  0  0  0  0  0  0  0  0  0  0
  129.8750  123.2180   61.3190 H   0  0  0  0  0  0  0  0  0  0  0  0
  126.6004  121.2088   54.6848 H   0  0  0  0  0  0  0  0  0  0  0  0
  125.2804  122.3463   54.2486 H   0  0  0  0  0  0  0  0  0  0  0  0
  126.9866  122.9080   54.2486 H   0  0  0  0  0  0  0  0  0  0  0  0
  124.1521  123.5180   55.9727 H   0  0  0  0  0  0  0  0  0  0  0  0
  123.5724  124.3790   59.5724 H   0  0  0  0  0  0  0  0  0  0  0  0
  123.5965  125.3918   58.0890 H   0  0  0  0  0  0  0  0  0  0  0  0
  122.7279  123.8194   58.0890 H   0  0  0  0  0  0  0  0  0  0  0  0
  124.4820  124.6960   60.6940 H   0  0  0  0  0  0  0  0  0  0  0  0
  125.3380  124.1460   62.0830 H   0  0  0  0  0  0  0  0  0  0  0  0
  1  2  1  0
  2  3  1  0
  3  4  1  0
  4  5  1  0
  5  6  1  0
  6  7  1  0
  7  8  1  0
  8  9  1  0
  9 10  1  0
 10 11  1  0
 11 12  1  0
 12 13  2  0
 12 14  1  0
 14 15  1  0
 15 16  1  0
 16 17  2  0
 17 18  1  0
 18 19  1  0
 18 20  2  0
 20 21  1  0
 21 22  1  0
 21 23  2  0
 23 24  1  0
 24 25  1  0
 24 14  2  0
 23 16  1  0
  1 26  1  0
  1 27  1  0
  1 28  1  0
  3 29  1  0
  3 30  1  0
  4 31  1  0
  4 32  1  0
  6 33  1  0
  6 34  1  0
  7 35  1  0
  7 36  1  0
  9 37  1  0
  9 38  1  0
 10 39  1  0
 10 40  1  0
 11 41  1  0
 19 42  1  0
 19 43  1  0
 19 44  1  0
 20 45  1  0
 22 46  1  0
 22 47  1  0
 22 48  1  0
 25 49  1  0
 25 50  1  0
M  END
>  <Binding energies>  (1) 
[-6.62]

>  <Ligand effiencies>  (1) 
[-0.23642857142857143]

>  <Interactions>  (1) 
["V-B:PRO:540:N:9855, H-B:ALA:541:N:9862, V-B:PRO:540:CA:9854, V-B:PRO:540:C:9852, V-B:TYR:539:C:9838, V-A:LEU:475:CD2:4258, V-A:HIS:383:CE1:3393, V-B:TYR:539:CD2:9845, V-B:TYR:539:CE2:9847, V-B:TYR:539:CB:9842, V-A:SER:385:CA:3406, V-A:SER:385:CB:3408, V-A:LEU:373:CD1:3279, H-B:TYR:539:N:9841, V-B:TYR:539:CG:9843, V-B:MET:535:CE:9806, V-B:PRO:540:CB:9856, H-A:HIS:383:ND1:3390, V-B:TYR:531:CZ:9765, V-B:TYR:531:CE2:9764, V-B:LEU:363:CD1:8159, V-B:ILE:538:CD1:9836, V-B:ILE:538:CG2:9834, V-B:ILE:538:CA:9831, V-B:ILE:538:CG1:9835, V-B:ILE:538:C:9829, V-B:ILE:538:CB:9833, V-B:ASP:366:CB:8182, V-A:LEU:373:CG:3278, V-A:LEU:373:CD2:3280, V-B:ASP:366:CG:8183, V-B:MET:535:CG:9804, V-B:LEU:363:CA:8155, V-B:VAL:537:C:9821, H-B:ASP:366:OD1:8184"]

$$$$
4al_Grossjean_2025
     RDKit          3D

 28 29  0  0  0  0  0  0  0  0999 V2000
  125.4700  122.1230   55.5250 C   0  0  0  0  0  0  0  0  0  0  0  0
  125.5360  123.4600   55.9960 O   0  0  0  0  0  0  0  0  0  0  0  0
  125.0230  123.7990   57.2080 C   0  0  0  0  0  0  0  0  0  0  0  0
  123.9020  124.2860   57.3700 O   0  0  0  0  0  0  0  0  0  0  0  0
  125.9530  123.5220   58.3240 C   0  0  0  0  0  0  0  0  0  0  0  0
  127.5070  122.7470   58.0060 S   0  0  0  0  0  0  0  0  0  0  0  0
  127.9240  122.7950   59.7030 C   0  0  0  0  0  0  0  0  0  0  0  0
  129.0830  122.3160   60.1580 N   0  0  0  0  0  0  0  0  0  0  0  0
  129.2840  122.4130   61.4950 C   0  0  0  0  0  0  0  0  0  0  0  0
  130.6090  121.8620   61.9910 C   0  0  0  0  0  0  0  0  0  0  0  0
  128.3630  122.9720   62.3790 C   0  0  0  0  0  0  0  0  0  0  0  0
  127.1480  123.4730   61.8990 C   0  0  0  0  0  0  0  0  0  0  0  0
  126.1750  124.0740   62.9010 C   0  0  0  0  0  0  0  0  0  0  0  0
  126.9030  123.3890   60.5020 C   0  0  0  0  0  0  0  0  0  0  0  0
  125.7900  123.7940   59.6880 C   0  0  0  0  0  0  0  0  0  0  0  0
  124.6730  124.3930   60.2090 N   0  0  0  0  0  0  0  0  0  0  0  0
  125.4360  121.4337   56.3816 H   0  0  0  0  0  0  0  0  0  0  0  0
  124.5644  121.9937   54.9141 H   0  0  0  0  0  0  0  0  0  0  0  0
  126.3585  121.9052   54.9141 H   0  0  0  0  0  0  0  0  0  0  0  0
  130.6162  121.8590   63.0910 H   0  0  0  0  0  0  0  0  0  0  0  0
  130.7405  120.8346   61.6207 H   0  0  0  0  0  0  0  0  0  0  0  0
  131.4303  122.4932   61.6207 H   0  0  0  0  0  0  0  0  0  0  0  0
  128.5912  123.0193   63.4540 H   0  0  0  0  0  0  0  0  0  0  0  0
  126.5218  123.8598   63.9227 H   0  0  0  0  0  0  0  0  0  0  0  0
  126.1216  125.1626   62.7526 H   0  0  0  0  0  0  0  0  0  0  0  0
  125.1776  123.6344   62.7526 H   0  0  0  0  0  0  0  0  0  0  0  0
  124.6000  124.6280   61.1890 H   0  0  0  0  0  0  0  0  0  0  0  0
  123.8780  124.6230   59.6270 H   0  0  0  0  0  0  0  0  0  0  0  0
  1  2  1  0
  2  3  1  0
  3  4  2  0
  3  5  1  0
  5  6  1  0
  6  7  1  0
  7  8  2  0
  8  9  1  0
  9 10  1  0
  9 11  2  0
 11 12  1  0
 12 13  1  0
 12 14  2  0
 14 15  1  0
 15 16  1  0
 15  5  2  0
 14  7  1  0
  1 17  1  0
  1 18  1  0
  1 19  1  0
 10 20  1  0
 10 21  1  0
 10 22  1  0
 11 23  1  0
 13 24  1  0
 13 25  1  0
 13 26  1  0
 16 27  1  0
 16 28  1  0
M  END
>  <Binding energies>  (1) 
[-5.7]

>  <Ligand effiencies>  (1) 
[-0.31666666666666665]

>  <Interactions>  (1) 
["V-B:GLU:543:CD:9879, V-B:PRO:540:N:9855, V-B:ALA:541:CB:9863, V-B:PRO:540:CA:9854, V-B:TYR:539:C:9838, V-B:TYR:539:CD2:9845, V-B:GLU:543:CG:9878, V-B:PRO:540:CB:9856, V-B:TYR:531:CZ:9765, V-B:PRO:540:CD:9858, V-B:TYR:531:CE2:9764, V-B:LEU:363:CD1:8159, V-B:ILE:538:CD1:9836, V-B:ILE:538:CG2:9834, V-B:ILE:538:CA:9831, V-B:ILE:538:C:9829, V-B:ILE:538:CB:9833, H-B:TYR:531:OH:9766, V-B:ASP:366:CG:8183, V-B:MET:535:CG:9804, H-B:ASP:366:OD1:8184"]

$$$$
4ba_Grossjean_2025
     RDKit          3D

 44 46  0  0  0  0  0  0  0  0999 V2000
  124.6300  122.4250   55.5720 C   0  0  0  0  0  0  0  0  0  0  0  0
  125.4360  122.7660   56.8400 C   0  0  0  0  0  0  0  0  0  0  0  0
  126.9620  122.5830   56.7140 C   0  0  0  0  0  0  0  0  0  0  0  0
  127.4260  122.0190   55.7200 O   0  0  0  0  0  0  0  0  0  0  0  0
  127.8230  123.1150   57.8230 C   0  0  0  0  0  0  0  0  0  0  0  0
  127.4780  122.8400   59.1520 C   0  0  0  0  0  0  0  0  0  0  0  0
  128.2580  123.3210   60.2000 C   0  0  0  0  0  0  0  0  0  0  0  0
  129.3980  124.0830   59.9420 C   0  0  0  0  0  0  0  0  0  0  0  0
  130.1070  124.5260   61.0750 N   0  0  0  0  0  0  0  0  0  0  0  0
  130.6120  125.7500   61.3640 C   0  0  0  0  0  0  0  0  0  0  0  0
  130.5570  126.7180   60.6040 O   0  0  0  0  0  0  0  0  0  0  0  0
  131.2740  125.8620   62.6660 C   0  0  0  0  0  0  0  0  0  0  0  0
  132.9590  125.3800   62.8480 S   0  0  0  0  0  0  0  0  0  0  0  0
  132.9290  125.7500   64.5560 C   0  0  0  0  0  0  0  0  0  0  0  0
  134.0050  125.5770   65.3220 N   0  0  0  0  0  0  0  0  0  0  0  0
  133.8600  125.8980   66.6290 C   0  0  0  0  0  0  0  0  0  0  0  0
  135.0950  125.6840   67.4860 C   0  0  0  0  0  0  0  0  0  0  0  0
  132.6790  126.3870   67.1800 C   0  0  0  0  0  0  0  0  0  0  0  0
  131.5420  126.5720   66.3770 C   0  0  0  0  0  0  0  0  0  0  0  0
  130.2660  127.1150   67.0280 C   0  0  0  0  0  0  0  0  0  0  0  0
  129.4820  127.7730   66.1720 F   0  0  0  0  0  0  0  0  0  0  0  0
  129.5510  126.1080   67.5310 F   0  0  0  0  0  0  0  0  0  0  0  0
  130.5860  127.9600   68.0090 F   0  0  0  0  0  0  0  0  0  0  0  0
  131.6600  126.2370   64.9950 C   0  0  0  0  0  0  0  0  0  0  0  0
  130.7310  126.2810   63.8920 C   0  0  0  0  0  0  0  0  0  0  0  0
  129.4320  126.6980   64.0350 N   0  0  0  0  0  0  0  0  0  0  0  0
  129.7460  124.3680   58.6140 C   0  0  0  0  0  0  0  0  0  0  0  0
  128.9650  123.8860   57.5660 C   0  0  0  0  0  0  0  0  0  0  0  0
  123.6521  122.0113   55.8593 H   0  0  0  0  0  0  0  0  0  0  0  0
  124.4813  123.3373   54.9757 H   0  0  0  0  0  0  0  0  0  0  0  0
  125.1812  121.6830   54.9757 H   0  0  0  0  0  0  0  0  0  0  0  0
  125.2389  123.8173   57.0966 H   0  0  0  0  0  0  0  0  0  0  0  0
  125.1052  122.0569   57.6132 H   0  0  0  0  0  0  0  0  0  0  0  0
  126.5830  122.2387   59.3698 H   0  0  0  0  0  0  0  0  0  0  0  0
  127.9735  123.0987   61.2391 H   0  0  0  0  0  0  0  0  0  0  0  0
  130.2700  123.8080   61.7650 H   0  0  0  0  0  0  0  0  0  0  0  0
  134.8165  125.7323   68.5491 H   0  0  0  0  0  0  0  0  0  0  0  0
  135.5283  124.6974   67.2649 H   0  0  0  0  0  0  0  0  0  0  0  0
  135.8350  126.4673   67.2649 H   0  0  0  0  0  0  0  0  0  0  0  0
  132.6361  126.6302   68.2519 H   0  0  0  0  0  0  0  0  0  0  0  0
  128.9570  127.2260   63.3160 H   0  0  0  0  0  0  0  0  0  0  0  0
  128.9040  126.4970   64.8730 H   0  0  0  0  0  0  0  0  0  0  0  0
  130.6385  124.9741   58.3990 H   0  0  0  0  0  0  0  0  0  0  0  0
  129.2471  124.1126   56.5272 H   0  0  0  0  0  0  0  0  0  0  0  0
  1  2  1  0
  2  3  1  0
  3  4  2  0
  3  5  1  0
  5  6  2  0
  6  7  1  0
  7  8  2  0
  8  9  1  0
  9 10  1  0
 10 11  2  0
 10 12  1  0
 12 13  1  0
 13 14  1  0
 14 15  2  0
 15 16  1  0
 16 17  1  0
 16 18  2  0
 18 19  1  0
 19 20  1  0
 20 21  1  0
 20 22  1  0
 20 23  1  0
 19 24  2  0
 24 25  1  0
 25 26  1  0
  8 27  1  0
 27 28  2  0
 28  5  1  0
 25 12  2  0
 24 14  1  0
  1 29  1  0
  1 30  1  0
  1 31  1  0
  2 32  1  0
  2 33  1  0
  6 34  1  0
  7 35  1  0
  9 36  1  0
 17 37  1  0
 17 38  1  0
 17 39  1  0
 18 40  1  0
 26 41  1  0
 26 42  1  0
 27 43  1  0
 28 44  1  0
M  END
>  <Binding energies>  (1) 
[-7.54]

>  <Ligand effiencies>  (1) 
[-0.2432258064516129]

>  <Interactions>  (1) 
["V-A:ASP:366:CG:3212, V-B:GLU:543:CD:9879, V-B:PRO:540:N:9855, H-A:TYR:484:OH:4347, V-B:PRO:540:CA:9854, H-B:GLU:543:OE2:9881, H-B:GLU:543:OE1:9880, V-B:TYR:539:C:9838, V-B:TYR:539:CD2:9845, V-B:TYR:539:CE2:9847, H-B:TYR:539:N:9841, V-B:MET:535:CE:9806, V-B:TYR:539:CZ:9848, V-B:GLU:543:CG:9878, V-B:PRO:540:CB:9856, H-A:GLY:454:N:4049, V-A:GLY:453:C:4041, V-A:ARG:545:CD:4922, V-B:TYR:531:CZ:9765, V-B:PRO:540:CD:9858, V-B:TYR:531:CE2:9764, V-B:LEU:363:CD1:8159, V-A:ARG:545:CZ:4925, V-B:ILE:538:CD1:9836, V-A:ARG:545:CG:4921, V-A:HIS:456:CE1:4069, V-B:ILE:538:CG2:9834, V-B:GLU:543:CB:9877, V-A:GLU:543:CD:4907, V-A:GLU:543:CG:4906, V-A:GLU:543:CB:4905, H-A:ARG:545:NH1:4926, H-A:ARG:545:NH2:4927, V-B:ILE:538:CA:9831, V-A:GLY:453:CA:4043, V-B:TYR:539:CE1:9846, V-B:ILE:538:CB:9833, H-A:ARG:545:NE:4923, V-A:ILE:455:C:4051, V-A:ARG:545:CB:4920"]

$$$$
4bb_Grossjean_2025
     RDKit          3D

 41 43  0  0  0  0  0  0  0  0999 V2000
  124.9980  123.0350   57.0440 C   0  0  0  0  0  0  0  0  0  0  0  0
  126.4870  122.6950   56.9340 C   0  0  0  0  0  0  0  0  0  0  0  0
  126.8610  122.0300   55.9670 O   0  0  0  0  0  0  0  0  0  0  0  0
  127.4070  123.1810   58.0140 C   0  0  0  0  0  0  0  0  0  0  0  0
  126.9970  123.1090   59.3510 C   0  0  0  0  0  0  0  0  0  0  0  0
  127.8320  123.5540   60.3720 C   0  0  0  0  0  0  0  0  0  0  0  0
  129.0950  124.0700   60.0770 C   0  0  0  0  0  0  0  0  0  0  0  0
  129.8560  124.4930   61.1850 N   0  0  0  0  0  0  0  0  0  0  0  0
  130.5710  125.6300   61.3680 C   0  0  0  0  0  0  0  0  0  0  0  0
  130.6920  126.5150   60.5210 O   0  0  0  0  0  0  0  0  0  0  0  0
  131.2420  125.7440   62.6660 C   0  0  0  0  0  0  0  0  0  0  0  0
  132.9140  125.2170   62.8480 S   0  0  0  0  0  0  0  0  0  0  0  0
  132.9060  125.6240   64.5480 C   0  0  0  0  0  0  0  0  0  0  0  0
  133.9830  125.4430   65.3110 N   0  0  0  0  0  0  0  0  0  0  0  0
  133.8550  125.7940   66.6120 C   0  0  0  0  0  0  0  0  0  0  0  0
  135.0940  125.5820   67.4630 C   0  0  0  0  0  0  0  0  0  0  0  0
  132.6870  126.3160   67.1620 C   0  0  0  0  0  0  0  0  0  0  0  0
  131.5500  126.5090   66.3630 C   0  0  0  0  0  0  0  0  0  0  0  0
  130.2880  127.0860   67.0130 C   0  0  0  0  0  0  0  0  0  0  0  0
  129.5160  127.7530   66.1520 F   0  0  0  0  0  0  0  0  0  0  0  0
  129.5530  126.0980   67.5260 F   0  0  0  0  0  0  0  0  0  0  0  0
  130.6270  127.9330   67.9840 F   0  0  0  0  0  0  0  0  0  0  0  0
  131.6510  126.1480   64.9850 C   0  0  0  0  0  0  0  0  0  0  0  0
  130.7180  126.2000   63.8870 C   0  0  0  0  0  0  0  0  0  0  0  0
  129.4350  126.6620   64.0260 N   0  0  0  0  0  0  0  0  0  0  0  0
  129.5100  124.1510   58.7390 C   0  0  0  0  0  0  0  0  0  0  0  0
  128.6720  123.7080   57.7190 C   0  0  0  0  0  0  0  0  0  0  0  0
  124.7141  123.0998   58.1048 H   0  0  0  0  0  0  0  0  0  0  0  0
  124.8051  124.0003   56.5531 H   0  0  0  0  0  0  0  0  0  0  0  0
  124.4052  122.2491   56.5531 H   0  0  0  0  0  0  0  0  0  0  0  0
  126.0069  122.6974   59.5965 H   0  0  0  0  0  0  0  0  0  0  0  0
  127.4945  123.4987   61.4175 H   0  0  0  0  0  0  0  0  0  0  0  0
  129.8820  123.8280   61.9440 H   0  0  0  0  0  0  0  0  0  0  0  0
  134.8202  125.6288   68.5273 H   0  0  0  0  0  0  0  0  0  0  0  0
  135.5283  124.5965   67.2392 H   0  0  0  0  0  0  0  0  0  0  0  0
  135.8313  126.3670   67.2392 H   0  0  0  0  0  0  0  0  0  0  0  0
  132.6556  126.5787   68.2297 H   0  0  0  0  0  0  0  0  0  0  0  0
  128.9740  127.1900   63.2970 H   0  0  0  0  0  0  0  0  0  0  0  0
  128.9020  126.4910   64.8680 H   0  0  0  0  0  0  0  0  0  0  0  0
  130.4994  124.5653   58.4954 H   0  0  0  0  0  0  0  0  0  0  0  0
  129.0055  123.7721   56.6727 H   0  0  0  0  0  0  0  0  0  0  0  0
  1  2  1  0
  2  3  2  0
  2  4  1  0
  4  5  2  0
  5  6  1  0
  6  7  2  0
  7  8  1  0
  8  9  1  0
  9 10  2  0
  9 11  1  0
 11 12  1  0
 12 13  1  0
 13 14  2  0
 14 15  1  0
 15 16  1  0
 15 17  2  0
 17 18  1  0
 18 19  1  0
 19 20  1  0
 19 21  1  0
 19 22  1  0
 18 23  2  0
 23 24  1  0
 24 25  1  0
  7 26  1  0
 26 27  2  0
 27  4  1  0
 24 11  2  0
 23 13  1  0
  1 28  1  0
  1 29  1  0
  1 30  1  0
  5 31  1  0
  6 32  1  0
  8 33  1  0
 16 34  1  0
 16 35  1  0
 16 36  1  0
 17 37  1  0
 25 38  1  0
 25 39  1  0
 26 40  1  0
 27 41  1  0
M  END
>  <Binding energies>  (1) 
[-7.44]

>  <Ligand effiencies>  (1) 
[-0.24800000000000003]

>  <Interactions>  (1) 
["V-A:ASP:366:CG:3212, V-B:GLU:543:CD:9879, V-B:PRO:540:N:9855, H-A:TYR:484:OH:4347, V-B:PRO:540:CA:9854, H-B:GLU:543:OE2:9881, H-B:GLU:543:OE1:9880, V-B:TYR:539:C:9838, V-B:TYR:539:CD2:9845, V-B:TYR:539:CE2:9847, V-A:GLY:454:CA:4048, H-B:TYR:539:N:9841, V-B:MET:535:CE:9806, V-B:TYR:539:CZ:9848, V-B:GLU:543:CG:9878, V-B:PRO:540:CB:9856, H-A:GLY:454:N:4049, V-A:GLY:453:C:4041, V-A:ARG:545:CD:4922, V-B:PRO:540:CD:9858, V-B:TYR:531:CE2:9764, V-B:LEU:363:CD1:8159, V-A:ARG:545:CZ:4925, V-A:ARG:545:CG:4921, V-A:HIS:456:CE1:4069, V-B:GLU:543:CB:9877, V-A:GLU:543:CD:4907, V-A:GLU:543:CG:4906, V-A:GLU:543:CB:4905, H-A:ARG:545:NH1:4926, V-A:GLY:453:CA:4043, H-A:ARG:545:NE:4923, V-A:ILE:455:C:4051, V-A:ARG:545:CB:4920, V-A:GLY:454:C:4046, V-A:ILE:455:CA:4053"]

$$$$
4bc_Grossjean_2025
     RDKit          3D

 40 42  0  0  0  0  0  0  0  0999 V2000
  124.0490  129.2160   67.3500 C   0  0  0  0  0  0  0  0  0  0  0  0
  123.5990  129.7850   66.1240 O   0  0  0  0  0  0  0  0  0  0  0  0
  124.5280  130.2950   65.2380 C   0  0  0  0  0  0  0  0  0  0  0  0
  125.0290  129.4110   64.2840 C   0  0  0  0  0  0  0  0  0  0  0  0
  125.9700  129.8340   63.3480 C   0  0  0  0  0  0  0  0  0  0  0  0
  126.4170  131.1570   63.3510 C   0  0  0  0  0  0  0  0  0  0  0  0
  127.3780  131.4890   62.3790 N   0  0  0  0  0  0  0  0  0  0  0  0
  128.1750  132.5830   62.3000 C   0  0  0  0  0  0  0  0  0  0  0  0
  128.1410  133.5170   63.1030 O   0  0  0  0  0  0  0  0  0  0  0  0
  129.1050  132.6040   61.1680 C   0  0  0  0  0  0  0  0  0  0  0  0
  128.5920  133.2480   59.6100 S   0  0  0  0  0  0  0  0  0  0  0  0
  130.1580  132.9190   58.9070 C   0  0  0  0  0  0  0  0  0  0  0  0
  130.4240  133.2110   57.6340 N   0  0  0  0  0  0  0  0  0  0  0  0
  131.6700  132.9090   57.2020 C   0  0  0  0  0  0  0  0  0  0  0  0
  131.9540  133.2550   55.7520 C   0  0  0  0  0  0  0  0  0  0  0  0
  132.6470  132.3250   58.0050 C   0  0  0  0  0  0  0  0  0  0  0  0
  132.3720  132.0140   59.3460 C   0  0  0  0  0  0  0  0  0  0  0  0
  133.4790  131.3700   60.1890 C   0  0  0  0  0  0  0  0  0  0  0  0
  134.0870  132.2370   61.0010 F   0  0  0  0  0  0  0  0  0  0  0  0
  132.9620  130.4060   60.9490 F   0  0  0  0  0  0  0  0  0  0  0  0
  134.4110  130.8510   59.3900 F   0  0  0  0  0  0  0  0  0  0  0  0
  131.0670  132.3230   59.8340 C   0  0  0  0  0  0  0  0  0  0  0  0
  130.4350  132.1580   61.1200 C   0  0  0  0  0  0  0  0  0  0  0  0
  131.0840  131.6130   62.1990 N   0  0  0  0  0  0  0  0  0  0  0  0
  125.9270  132.0500   64.3160 C   0  0  0  0  0  0  0  0  0  0  0  0
  124.9880  131.6220   65.2500 C   0  0  0  0  0  0  0  0  0  0  0  0
  123.6112  129.7696   68.1937 H   0  0  0  0  0  0  0  0  0  0  0  0
  123.7372  128.1624   67.4015 H   0  0  0  0  0  0  0  0  0  0  0  0
  125.1461  129.2766   67.4015 H   0  0  0  0  0  0  0  0  0  0  0  0
  124.6778  128.3687   64.2700 H   0  0  0  0  0  0  0  0  0  0  0  0
  126.3619  129.1242   62.6047 H   0  0  0  0  0  0  0  0  0  0  0  0
  127.4550  130.8260   61.6220 H   0  0  0  0  0  0  0  0  0  0  0  0
  132.6513  134.1046   55.7076 H   0  0  0  0  0  0  0  0  0  0  0  0
  132.4025  132.3858   55.2487 H   0  0  0  0  0  0  0  0  0  0  0  0
  131.0140  133.5255   55.2487 H   0  0  0  0  0  0  0  0  0  0  0  0
  133.6401  132.1062   57.5857 H   0  0  0  0  0  0  0  0  0  0  0  0
  131.3530  132.1680   62.9990 H   0  0  0  0  0  0  0  0  0  0  0  0
  131.3140  130.6290   62.2300 H   0  0  0  0  0  0  0  0  0  0  0  0
  126.2855  133.0898   64.3344 H   0  0  0  0  0  0  0  0  0  0  0  0
  124.6039  132.3271   66.0019 H   0  0  0  0  0  0  0  0  0  0  0  0
  1  2  1  0
  2  3  1  0
  3  4  2  0
  4  5  1  0
  5  6  2  0
  6  7  1  0
  7  8  1  0
  8  9  2  0
  8 10  1  0
 10 11  1  0
 11 12  1  0
 12 13  2  0
 13 14  1  0
 14 15  1  0
 14 16  2  0
 16 17  1  0
 17 18  1  0
 18 19  1  0
 18 20  1  0
 18 21  1  0
 17 22  2  0
 22 23  1  0
 23 24  1  0
  6 25  1  0
 25 26  2  0
 26  3  1  0
 23 10  2  0
 22 12  1  0
  1 27  1  0
  1 28  1  0
  1 29  1  0
  4 30  1  0
  5 31  1  0
  7 32  1  0
 15 33  1  0
 15 34  1  0
 15 35  1  0
 16 36  1  0
 24 37  1  0
 24 38  1  0
 25 39  1  0
 26 40  1  0
M  END
>  <Binding energies>  (1) 
[-6.74]

>  <Ligand effiencies>  (1) 
[-0.23241379310344829]

>  <Interactions>  (1) 
["V-A:LEU:363:CA:3184, V-A:ASP:366:CG:3212, V-A:ASN:362:C:3171, V-A:PRO:540:CB:4884, V-A:TYR:539:CE1:4874, H-A:GLU:543:OE2:4909, V-A:TYR:539:CD1:4872, V-A:ASP:366:CB:3211, V-A:PRO:540:CA:4882, V-A:TYR:531:CE2:4792, V-A:LEU:363:C:3182, V-A:LEU:363:CD1:3188, V-A:GLU:543:CD:4907, V-B:ARG:545:CD:9894, V-B:ARG:545:CG:9893, V-A:ILE:538:CB:4861, V-A:ILE:538:CG2:4862, H-B:TYR:484:OH:9318, V-A:PRO:540:N:4883, V-A:TYR:539:C:4866, V-A:LEU:363:CB:3186, H-B:ARG:545:NE:9895, V-A:ASN:362:CB:3175, V-B:ARG:545:CZ:9897, V-B:LEU:475:CD1:9228, V-B:GLY:454:CA:9019, V-A:ASN:362:CA:3173, H-B:GLY:454:N:9020, H-A:ALA:541:O:4888"]

$$$$
4bd_Grossjean_2025
     RDKit          3D

 36 38  0  0  0  0  0  0  0  0999 V2000
  128.3860  117.1800   76.5650 C   0  0  0  0  0  0  0  0  0  0  0  0
  128.5570  118.5100   75.8530 C   0  0  0  0  0  0  0  0  0  0  0  0
  127.9560  118.7460   74.6190 C   0  0  0  0  0  0  0  0  0  0  0  0
  128.1240  119.9800   73.9710 C   0  0  0  0  0  0  0  0  0  0  0  0
  127.4470  120.1930   72.6130 C   0  0  0  0  0  0  0  0  0  0  0  0
  128.2470  120.7730   71.7160 F   0  0  0  0  0  0  0  0  0  0  0  0
  127.0650  119.0200   72.1090 F   0  0  0  0  0  0  0  0  0  0  0  0
  126.3790  120.9780   72.7600 F   0  0  0  0  0  0  0  0  0  0  0  0
  128.9250  120.9600   74.6300 C   0  0  0  0  0  0  0  0  0  0  0  0
  129.3120  122.3060   74.2850 C   0  0  0  0  0  0  0  0  0  0  0  0
  128.9090  122.9160   73.1250 N   0  0  0  0  0  0  0  0  0  0  0  0
  130.1350  122.9290   75.2370 C   0  0  0  0  0  0  0  0  0  0  0  0
  130.7210  124.2730   75.1990 C   0  0  0  0  0  0  0  0  0  0  0  0
  130.0270  125.2530   74.9240 O   0  0  0  0  0  0  0  0  0  0  0  0
  132.0420  124.3400   75.4960 N   0  0  0  0  0  0  0  0  0  0  0  0
  132.9010  125.4540   75.5080 C   0  0  0  0  0  0  0  0  0  0  0  0
  134.1620  125.2500   76.0770 C   0  0  0  0  0  0  0  0  0  0  0  0
  135.0870  126.2890   76.1270 C   0  0  0  0  0  0  0  0  0  0  0  0
  134.7560  127.5340   75.5990 C   0  0  0  0  0  0  0  0  0  0  0  0
  133.5090  127.7460   75.0160 C   0  0  0  0  0  0  0  0  0  0  0  0
  132.5800  126.7100   74.9650 C   0  0  0  0  0  0  0  0  0  0  0  0
  130.4510  121.8620   76.6030 S   0  0  0  0  0  0  0  0  0  0  0  0
  129.4850  120.5900   75.8920 C   0  0  0  0  0  0  0  0  0  0  0  0
  129.3210  119.4180   76.5030 N   0  0  0  0  0  0  0  0  0  0  0  0
  128.4067  117.3412   77.6529 H   0  0  0  0  0  0  0  0  0  0  0  0
  127.4229  116.7321   76.2790 H   0  0  0  0  0  0  0  0  0  0  0  0
  129.2045  116.5031   76.2790 H   0  0  0  0  0  0  0  0  0  0  0  0
  127.3458  117.9606   74.1491 H   0  0  0  0  0  0  0  0  0  0  0  0
  128.3740  123.7740   73.1290 H   0  0  0  0  0  0  0  0  0  0  0  0
  129.1390  122.5300   72.2200 H   0  0  0  0  0  0  0  0  0  0  0  0
  132.4820  123.4720   75.7660 H   0  0  0  0  0  0  0  0  0  0  0  0
  134.4243  124.2636   76.4871 H   0  0  0  0  0  0  0  0  0  0  0  0
  136.0754  126.1271   76.5818 H   0  0  0  0  0  0  0  0  0  0  0  0
  135.4850  128.3566   75.6426 H   0  0  0  0  0  0  0  0  0  0  0  0
  133.2582  128.7313   74.5961 H   0  0  0  0  0  0  0  0  0  0  0  0
  131.5965  126.8743   74.5005 H   0  0  0  0  0  0  0  0  0  0  0  0
  1  2  1  0
  2  3  2  0
  3  4  1  0
  4  5  1  0
  5  6  1  0
  5  7  1  0
  5  8  1  0
  4  9  2  0
  9 10  1  0
 10 11  1  0
 10 12  2  0
 12 13  1  0
 13 14  2  0
 13 15  1  0
 15 16  1  0
 16 17  2  0
 17 18  1  0
 18 19  2  0
 19 20  1  0
 20 21  2  0
 12 22  1  0
 22 23  1  0
 23 24  2  0
 24  2  1  0
 23  9  1  0
 21 16  1  0
  1 25  1  0
  1 26  1  0
  1 27  1  0
  3 28  1  0
 11 29  1  0
 11 30  1  0
 15 31  1  0
 17 32  1  0
 18 33  1  0
 19 34  1  0
 20 35  1  0
 21 36  1  0
M  END
>  <Binding energies>  (1) 
[-6.63]

>  <Ligand effiencies>  (1) 
[-0.24555555555555555]

>  <Interactions>  (1) 
["H-B:GLU:543:O:9874, H-B:LYS:547:NZ:9922, V-B:GLU:543:C:9873, H-A:ASP:473:OD2:4241, V-B:GLY:544:CA:9885, V-A:TYR:484:CB:4340, V-A:TYR:484:C:4336, V-A:HIS:456:CB:4064, V-B:GLU:543:CA:9875, V-A:VAL:457:C:4072, V-A:HIS:456:C:4060, V-A:VAL:457:CA:4074, V-A:HIS:456:CG:4065, V-A:VAL:458:CG2:4086, V-A:TYR:484:CD2:4343, V-A:TYR:484:CG:4341, V-A:TYR:484:CA:4338, V-A:SER:483:CB:4332"]

$$$$
4be_Grossjean_2025
     RDKit          3D

 38 40  0  0  0  0  0  0  0  0999 V2000
  126.3610  122.0150   55.1580 C   0  0  0  0  0  0  0  0  0  0  0  0
  126.0040  122.6470   56.4890 C   0  0  0  0  0  0  0  0  0  0  0  0
  124.7250  123.1520   56.7390 C   0  0  0  0  0  0  0  0  0  0  0  0
  124.4690  123.7230   57.9860 C   0  0  0  0  0  0  0  0  0  0  0  0
  125.4850  123.7750   58.9430 C   0  0  0  0  0  0  0  0  0  0  0  0
  126.7420  123.2450   58.6300 C   0  0  0  0  0  0  0  0  0  0  0  0
  127.7230  123.3350   59.6330 N   0  0  0  0  0  0  0  0  0  0  0  0
  127.6020  123.1120   60.9660 C   0  0  0  0  0  0  0  0  0  0  0  0
  126.5500  122.7730   61.5120 O   0  0  0  0  0  0  0  0  0  0  0  0
  128.8210  123.3230   61.7520 C   0  0  0  0  0  0  0  0  0  0  0  0
  128.9420  124.7020   62.8430 S   0  0  0  0  0  0  0  0  0  0  0  0
  130.5680  124.2530   63.3020 C   0  0  0  0  0  0  0  0  0  0  0  0
  131.2640  124.9700   64.1830 N   0  0  0  0  0  0  0  0  0  0  0  0
  132.5110  124.5230   64.4600 C   0  0  0  0  0  0  0  0  0  0  0  0
  133.2880  125.3550   65.4630 C   0  0  0  0  0  0  0  0  0  0  0  0
  133.0700  123.3860   63.8840 C   0  0  0  0  0  0  0  0  0  0  0  0
  132.3420  122.6260   62.9560 C   0  0  0  0  0  0  0  0  0  0  0  0
  132.9990  121.3800   62.3520 C   0  0  0  0  0  0  0  0  0  0  0  0
  133.4980  121.5940   61.1310 F   0  0  0  0  0  0  0  0  0  0  0  0
  134.0050  120.9790   63.1280 F   0  0  0  0  0  0  0  0  0  0  0  0
  132.1020  120.4000   62.2510 F   0  0  0  0  0  0  0  0  0  0  0  0
  131.0250  123.0730   62.6380 C   0  0  0  0  0  0  0  0  0  0  0  0
  130.0050  122.5700   61.7500 C   0  0  0  0  0  0  0  0  0  0  0  0
  130.1820  121.4500   60.9780 N   0  0  0  0  0  0  0  0  0  0  0  0
  127.0020  122.6900   57.4100 N   0  0  0  0  0  0  0  0  0  0  0  0
  126.8952  121.0694   55.3326 H   0  0  0  0  0  0  0  0  0  0  0  0
  125.4414  121.8168   54.5878 H   0  0  0  0  0  0  0  0  0  0  0  0
  127.0054  122.7003   54.5878 H   0  0  0  0  0  0  0  0  0  0  0  0
  123.9391  123.1005   55.9711 H   0  0  0  0  0  0  0  0  0  0  0  0
  123.4728  124.1299   58.2141 H   0  0  0  0  0  0  0  0  0  0  0  0
  125.2998  124.2262   59.9290 H   0  0  0  0  0  0  0  0  0  0  0  0
  128.6270  123.6480   59.3110 H   0  0  0  0  0  0  0  0  0  0  0  0
  133.0078  125.0550   66.4835 H   0  0  0  0  0  0  0  0  0  0  0  0
  134.3662  125.1936   65.3163 H   0  0  0  0  0  0  0  0  0  0  0  0
  133.0533  126.4196   65.3163 H   0  0  0  0  0  0  0  0  0  0  0  0
  134.0906  123.0808   64.1584 H   0  0  0  0  0  0  0  0  0  0  0  0
  129.4180  120.8280   60.7550 H   0  0  0  0  0  0  0  0  0  0  0  0
  131.0900  121.2050   60.6100 H   0  0  0  0  0  0  0  0  0  0  0  0
  1  2  1  0
  2  3  2  0
  3  4  1  0
  4  5  2  0
  5  6  1  0
  6  7  1  0
  7  8  1  0
  8  9  2  0
  8 10  1  0
 10 11  1  0
 11 12  1  0
 12 13  2  0
 13 14  1  0
 14 15  1  0
 14 16  2  0
 16 17  1  0
 17 18  1  0
 18 19  1  0
 18 20  1  0
 18 21  1  0
 17 22  2  0
 22 23  1  0
 23 24  1  0
  6 25  2  0
 25  2  1  0
 23 10  2  0
 22 12  1  0
  1 26  1  0
  1 27  1  0
  1 28  1  0
  3 29  1  0
  4 30  1  0
  5 31  1  0
  7 32  1  0
 15 33  1  0
 15 34  1  0
 15 35  1  0
 16 36  1  0
 24 37  1  0
 24 38  1  0
M  END
>  <Binding energies>  (1) 
[-6.59]

>  <Ligand effiencies>  (1) 
[-0.23535714285714285]

>  <Interactions>  (1) 
["V-B:GLU:543:CD:9879, V-B:PRO:540:N:9855, H-B:ALA:541:N:9862, V-B:PRO:540:CA:9854, V-A:LEU:475:CD2:4258, H-B:TYR:539:O:9839, V-A:ILE:369:CD1:3238, V-A:SER:385:C:3404, V-B:TYR:539:CD2:9845, V-A:ILE:369:CG2:3236, V-B:TYR:539:CE2:9847, V-A:SER:385:CA:3406, V-A:SER:385:CB:3408, V-A:GLY:454:CA:4048, V-B:MET:535:CE:9806, V-B:PRO:540:CB:9856, V-B:TYR:531:CZ:9765, V-B:PRO:540:CD:9858, V-B:TYR:531:CE2:9764, V-B:LEU:363:CD1:8159, V-A:ARG:545:CZ:4925, V-B:ILE:538:CD1:9836, V-B:ILE:538:CG2:9834, V-B:ILE:538:CA:9831, V-B:ILE:538:C:9829, V-B:ILE:538:CB:9833, V-B:MET:535:CG:9804, V-B:VAL:537:C:9821"]

$$$$
4bf_Grossjean_2025
     RDKit          3D

 35 37  0  0  0  0  0  0  0  0999 V2000
  133.2590  125.3820   65.2790 C   0  0  0  0  0  0  0  0  0  0  0  0
  132.5170  124.5100   64.2820 C   0  0  0  0  0  0  0  0  0  0  0  0
  133.0830  123.3330   63.8000 C   0  0  0  0  0  0  0  0  0  0  0  0
  132.3880  122.5370   62.8750 C   0  0  0  0  0  0  0  0  0  0  0  0
  133.0510  121.2520   62.3700 C   0  0  0  0  0  0  0  0  0  0  0  0
  132.1880  120.2440   62.2150 F   0  0  0  0  0  0  0  0  0  0  0  0
  133.6230  121.4730   61.1870 F   0  0  0  0  0  0  0  0  0  0  0  0
  133.9790  120.8500   63.2400 F   0  0  0  0  0  0  0  0  0  0  0  0
  131.0990  122.9890   62.4640 C   0  0  0  0  0  0  0  0  0  0  0  0
  130.1150  122.4560   61.5540 C   0  0  0  0  0  0  0  0  0  0  0  0
  130.3030  121.2820   60.8680 N   0  0  0  0  0  0  0  0  0  0  0  0
  128.9550  123.2380   61.4380 C   0  0  0  0  0  0  0  0  0  0  0  0
  127.7810  123.0120   60.5880 C   0  0  0  0  0  0  0  0  0  0  0  0
  126.6860  122.7530   61.0880 O   0  0  0  0  0  0  0  0  0  0  0  0
  128.0000  123.1260   59.2550 N   0  0  0  0  0  0  0  0  0  0  0  0
  127.1110  122.9250   58.1810 C   0  0  0  0  0  0  0  0  0  0  0  0
  125.7560  123.2980   58.1650 C   0  0  0  0  0  0  0  0  0  0  0  0
  124.9780  123.0260   57.0370 C   0  0  0  0  0  0  0  0  0  0  0  0
  125.5760  122.3820   55.9530 C   0  0  0  0  0  0  0  0  0  0  0  0
  126.8790  122.0060   55.9470 N   0  0  0  0  0  0  0  0  0  0  0  0
  127.6220  122.2770   57.0500 C   0  0  0  0  0  0  0  0  0  0  0  0
  129.0500  124.6730   62.4570 S   0  0  0  0  0  0  0  0  0  0  0  0
  130.6340  124.2150   63.0350 C   0  0  0  0  0  0  0  0  0  0  0  0
  131.2970  124.9660   63.9130 N   0  0  0  0  0  0  0  0  0  0  0  0
  132.9968  125.0739   66.3019 H   0  0  0  0  0  0  0  0  0  0  0  0
  134.3429  125.2699   65.1287 H   0  0  0  0  0  0  0  0  0  0  0  0
  132.9749  126.4340   65.1287 H   0  0  0  0  0  0  0  0  0  0  0  0
  134.0807  123.0246   64.1458 H   0  0  0  0  0  0  0  0  0  0  0  0
  131.2030  121.0220   60.4920 H   0  0  0  0  0  0  0  0  0  0  0  0
  129.5420  120.6350   60.7170 H   0  0  0  0  0  0  0  0  0  0  0  0
  128.9310  123.4010   58.9790 H   0  0  0  0  0  0  0  0  0  0  0  0
  125.3106  123.8013   59.0358 H   0  0  0  0  0  0  0  0  0  0  0  0
  123.9167  123.3133   57.0040 H   0  0  0  0  0  0  0  0  0  0  0  0
  124.9635  122.1700   55.0642 H   0  0  0  0  0  0  0  0  0  0  0  0
  128.6789  121.9722   57.0556 H   0  0  0  0  0  0  0  0  0  0  0  0
  1  2  1  0
  2  3  2  0
  3  4  1  0
  4  5  1  0
  5  6  1  0
  5  7  1  0
  5  8  1  0
  4  9  2  0
  9 10  1  0
 10 11  1  0
 10 12  2  0
 12 13  1  0
 13 14  2  0
 13 15  1  0
 15 16  1  0
 16 17  2  0
 17 18  1  0
 18 19  2  0
 19 20  1  0
 20 21  2  0
 12 22  1  0
 22 23  1  0
 23 24  2  0
 24  2  1  0
 23  9  1  0
 21 16  1  0
  1 25  1  0
  1 26  1  0
  1 27  1  0
  3 28  1  0
 11 29  1  0
 11 30  1  0
 15 31  1  0
 17 32  1  0
 18 33  1  0
 19 34  1  0
 21 35  1  0
M  END
>  <Binding energies>  (1) 
[-6.76]

>  <Ligand effiencies>  (1) 
[-0.25037037037037035]

>  <Interactions>  (1) 
["V-B:PRO:540:N:9855, H-B:ALA:541:N:9862, V-B:PRO:540:CA:9854, V-B:TYR:539:C:9838, V-A:LEU:475:CD2:4258, H-B:TYR:539:O:9839, V-A:ILE:369:CD1:3238, V-A:SER:385:C:3404, V-B:TYR:539:CD2:9845, V-A:ILE:369:CG2:3236, V-B:TYR:539:CE2:9847, V-A:SER:385:CA:3406, V-A:SER:385:CB:3408, V-A:GLY:454:CA:4048, H-B:TYR:539:N:9841, V-B:TYR:539:CG:9843, V-B:MET:535:CE:9806, V-B:TYR:539:CZ:9848, V-B:PRO:540:CB:9856, V-B:TYR:539:CA:9840, V-B:TYR:539:CD1:9844, V-B:PRO:540:CD:9858, V-B:TYR:531:CE2:9764, V-B:LEU:363:CD1:8159, V-A:ARG:545:CZ:4925, V-B:ILE:538:CD1:9836, V-B:ILE:538:CG2:9834, V-B:ILE:538:CA:9831, V-B:TYR:539:CE1:9846"]

$$$$
4bg_Grossjean_2025
     RDKit          3D

 39 41  0  0  0  0  0  0  0  0999 V2000
  133.2630  125.0480   65.2250 C   0  0  0  0  0  0  0  0  0  0  0  0
  132.2990  124.3150   64.3100 C   0  0  0  0  0  0  0  0  0  0  0  0
  132.6860  123.1600   63.6370 C   0  0  0  0  0  0  0  0  0  0  0  0
  131.7860  122.4950   62.7890 C   0  0  0  0  0  0  0  0  0  0  0  0
  132.2570  121.2270   62.0690 C   0  0  0  0  0  0  0  0  0  0  0  0
  132.4960  121.4230   60.7700 F   0  0  0  0  0  0  0  0  0  0  0  0
  133.3890  120.7900   62.6210 F   0  0  0  0  0  0  0  0  0  0  0  0
  131.3260  120.2790   62.1650 F   0  0  0  0  0  0  0  0  0  0  0  0
  130.4800  123.0540   62.6590 C   0  0  0  0  0  0  0  0  0  0  0  0
  129.3180  122.6660   61.8970 C   0  0  0  0  0  0  0  0  0  0  0  0
  129.3020  121.5700   61.0720 N   0  0  0  0  0  0  0  0  0  0  0  0
  128.2070  123.5040   62.0810 C   0  0  0  0  0  0  0  0  0  0  0  0
  126.8910  123.4250   61.4490 C   0  0  0  0  0  0  0  0  0  0  0  0
  125.9100  122.9930   62.0570 O   0  0  0  0  0  0  0  0  0  0  0  0
  126.8140  123.8890   60.1840 N   0  0  0  0  0  0  0  0  0  0  0  0
  125.6100  123.8970   59.3540 C   0  0  0  0  0  0  0  0  0  0  0  0
  125.8130  123.2720   57.9800 C   0  0  0  0  0  0  0  0  0  0  0  0
  124.7280  123.1170   57.1120 C   0  0  0  0  0  0  0  0  0  0  0  0
  124.9230  122.5810   55.8430 C   0  0  0  0  0  0  0  0  0  0  0  0
  126.2040  122.2140   55.4380 C   0  0  0  0  0  0  0  0  0  0  0  0
  127.2930  122.3810   56.2900 C   0  0  0  0  0  0  0  0  0  0  0  0
  127.0980  122.9160   57.5610 C   0  0  0  0  0  0  0  0  0  0  0  0
  128.5790  124.8280   63.1810 S   0  0  0  0  0  0  0  0  0  0  0  0
  130.2080  124.2380   63.4100 C   0  0  0  0  0  0  0  0  0  0  0  0
  131.0680  124.8670   64.2120 N   0  0  0  0  0  0  0  0  0  0  0  0
  132.9982  124.8467   66.2735 H   0  0  0  0  0  0  0  0  0  0  0  0
  134.2883  124.6993   65.0323 H   0  0  0  0  0  0  0  0  0  0  0  0
  133.2011  126.1292   65.0323 H   0  0  0  0  0  0  0  0  0  0  0  0
  133.7041  122.7653   63.7703 H   0  0  0  0  0  0  0  0  0  0  0  0
  128.5590  120.8880   61.1040 H   0  0  0  0  0  0  0  0  0  0  0  0
  130.0440  121.4030   60.4060 H   0  0  0  0  0  0  0  0  0  0  0  0
  127.6720  124.1540   59.7220 H   0  0  0  0  0  0  0  0  0  0  0  0
  124.8223  123.3361   59.8783 H   0  0  0  0  0  0  0  0  0  0  0  0
  125.3364  124.9501   59.1923 H   0  0  0  0  0  0  0  0  0  0  0  0
  123.7199  123.4189   57.4325 H   0  0  0  0  0  0  0  0  0  0  0  0
  124.0691  122.4477   55.1625 H   0  0  0  0  0  0  0  0  0  0  0  0
  126.3571  121.7881   54.4354 H   0  0  0  0  0  0  0  0  0  0  0  0
  128.3019  122.0918   55.9608 H   0  0  0  0  0  0  0  0  0  0  0  0
  127.9554  123.0584   58.2352 H   0  0  0  0  0  0  0  0  0  0  0  0
  1  2  1  0
  2  3  2  0
  3  4  1  0
  4  5  1  0
  5  6  1  0
  5  7  1  0
  5  8  1  0
  4  9  2  0
  9 10  1  0
 10 11  1  0
 10 12  2  0
 12 13  1  0
 13 14  2  0
 13 15  1  0
 15 16  1  0
 16 17  1  0
 17 18  2  0
 18 19  1  0
 19 20  2  0
 20 21  1  0
 21 22  2  0
 12 23  1  0
 23 24  1  0
 24 25  2  0
 25  2  1  0
 24  9  1  0
 22 17  1  0
  1 26  1  0
  1 27  1  0
  1 28  1  0
  3 29  1  0
 11 30  1  0
 11 31  1  0
 15 32  1  0
 16 33  1  0
 16 34  1  0
 18 35  1  0
 19 36  1  0
 20 37  1  0
 21 38  1  0
 22 39  1  0
M  END
>  <Binding energies>  (1) 
[-6.69]

>  <Ligand effiencies>  (1) 
[-0.23892857142857143]

>  <Interactions>  (1) 
["V-B:GLU:543:CD:9879, V-B:PRO:540:N:9855, H-B:ALA:541:N:9862, V-B:ALA:541:CB:9863, V-B:PRO:540:CA:9854, V-B:TYR:539:C:9838, V-A:LEU:475:CD2:4258, H-B:TYR:539:O:9839, V-A:SER:385:C:3404, V-B:TYR:539:CD2:9845, V-A:ILE:369:CG2:3236, V-B:TYR:539:CE2:9847, V-A:SER:385:CA:3406, V-A:SER:385:CB:3408, V-A:GLY:454:CA:4048, V-B:TYR:539:CG:9843, V-B:MET:535:CE:9806, V-B:PRO:540:CB:9856, V-B:TYR:539:CD1:9844, V-B:TYR:531:CZ:9765, V-B:PRO:540:CD:9858, V-B:TYR:531:CE2:9764, V-B:LEU:363:CD1:8159, V-A:ARG:545:CZ:4925, V-B:ILE:538:CD1:9836, V-B:ILE:538:CG2:9834, V-B:ILE:538:CA:9831, V-B:TYR:539:CE1:9846, V-B:ILE:538:C:9829, V-B:ILE:538:CB:9833, V-B:MET:535:CG:9804"]

$$$$
4bh_Grossjean_2025
     RDKit          3D

 51 53  0  0  0  0  0  0  0  0999 V2000
  129.1900  124.0060   73.1650 C   0  0  0  0  0  0  0  0  0  0  0  0
  128.5530  125.2500   73.4330 O   0  0  0  0  0  0  0  0  0  0  0  0
  129.2470  126.4280   73.2240 C   0  0  0  0  0  0  0  0  0  0  0  0
  129.1200  127.2190   72.0720 C   0  0  0  0  0  0  0  0  0  0  0  0
  129.8550  128.3960   71.9260 C   0  0  0  0  0  0  0  0  0  0  0  0
  129.6690  129.2660   70.6890 C   0  0  0  0  0  0  0  0  0  0  0  0
  130.1730  128.6490   69.4610 N   0  0  0  0  0  0  0  0  0  0  0  0
  129.5710  127.6500   68.7840 C   0  0  0  0  0  0  0  0  0  0  0  0
  128.5270  127.1210   69.1720 O   0  0  0  0  0  0  0  0  0  0  0  0
  130.2530  127.1910   67.5740 C   0  0  0  0  0  0  0  0  0  0  0  0
  131.7840  126.3300   67.6980 S   0  0  0  0  0  0  0  0  0  0  0  0
  131.9080  126.2110   65.9580 C   0  0  0  0  0  0  0  0  0  0  0  0
  132.9410  125.6050   65.3750 N   0  0  0  0  0  0  0  0  0  0  0  0
  132.9240  125.5740   64.0220 C   0  0  0  0  0  0  0  0  0  0  0  0
  134.1120  124.8810   63.3780 C   0  0  0  0  0  0  0  0  0  0  0  0
  131.9090  126.1260   63.2470 C   0  0  0  0  0  0  0  0  0  0  0  0
  130.8180  126.7670   63.8560 C   0  0  0  0  0  0  0  0  0  0  0  0
  129.7230  127.3580   62.9610 C   0  0  0  0  0  0  0  0  0  0  0  0
  128.5400  126.7600   63.1180 F   0  0  0  0  0  0  0  0  0  0  0  0
  129.5570  128.6490   63.2440 F   0  0  0  0  0  0  0  0  0  0  0  0
  130.0690  127.2290   61.6800 F   0  0  0  0  0  0  0  0  0  0  0  0
  130.8060  126.8200   65.2810 C   0  0  0  0  0  0  0  0  0  0  0  0
  129.8820  127.3850   66.2340 C   0  0  0  0  0  0  0  0  0  0  0  0
  128.7400  128.0440   65.8600 N   0  0  0  0  0  0  0  0  0  0  0  0
  130.7060  128.8060   72.9540 C   0  0  0  0  0  0  0  0  0  0  0  0
  130.8590  128.0320   74.1140 C   0  0  0  0  0  0  0  0  0  0  0  0
  131.6940  128.3690   75.1640 O   0  0  0  0  0  0  0  0  0  0  0  0
  133.0630  127.9790   75.1200 C   0  0  0  0  0  0  0  0  0  0  0  0
  130.1280  126.8410   74.2340 C   0  0  0  0  0  0  0  0  0  0  0  0
  130.2550  126.0810   75.3740 O   0  0  0  0  0  0  0  0  0  0  0  0
  131.3440  125.1690   75.3410 C   0  0  0  0  0  0  0  0  0  0  0  0
  129.4431  123.5116   74.1145 H   0  0  0  0  0  0  0  0  0  0  0  0
  128.5102  123.3630   72.5867 H   0  0  0  0  0  0  0  0  0  0  0  0
  130.1091  124.1817   72.5867 H   0  0  0  0  0  0  0  0  0  0  0  0
  128.4315  126.9069   71.2729 H   0  0  0  0  0  0  0  0  0  0  0  0
  128.5949  129.4666   70.5626 H   0  0  0  0  0  0  0  0  0  0  0  0
  130.2488  130.1868   70.8504 H   0  0  0  0  0  0  0  0  0  0  0  0
  130.9790  129.0910   69.0420 H   0  0  0  0  0  0  0  0  0  0  0  0
  134.7787  124.4921   64.1617 H   0  0  0  0  0  0  0  0  0  0  0  0
  133.7563  124.0487   62.7529 H   0  0  0  0  0  0  0  0  0  0  0  0
  134.6614  125.6003   62.7529 H   0  0  0  0  0  0  0  0  0  0  0  0
  131.9614  126.0599   62.1502 H   0  0  0  0  0  0  0  0  0  0  0  0
  128.6610  129.0510   65.9170 H   0  0  0  0  0  0  0  0  0  0  0  0
  127.9310  127.5430   65.5210 H   0  0  0  0  0  0  0  0  0  0  0  0
  131.2640  129.7486   72.8531 H   0  0  0  0  0  0  0  0  0  0  0  0
  133.4463  127.8698   76.1453 H   0  0  0  0  0  0  0  0  0  0  0  0
  133.1540  127.0192   74.5904 H   0  0  0  0  0  0  0  0  0  0  0  0
  133.6461  128.7468   74.5904 H   0  0  0  0  0  0  0  0  0  0  0  0
  131.6435  124.9182   76.3693 H   0  0  0  0  0  0  0  0  0  0  0  0
  131.0391  124.2528   74.8141 H   0  0  0  0  0  0  0  0  0  0  0  0
  132.1925  125.6299   74.8141 H   0  0  0  0  0  0  0  0  0  0  0  0
  1  2  1  0
  2  3  1  0
  3  4  2  0
  4  5  1  0
  5  6  1  0
  6  7  1  0
  7  8  1  0
  8  9  2  0
  8 10  1  0
 10 11  1  0
 11 12  1  0
 12 13  2  0
 13 14  1  0
 14 15  1  0
 14 16  2  0
 16 17  1  0
 17 18  1  0
 18 19  1  0
 18 20  1  0
 18 21  1  0
 17 22  2  0
 22 23  1  0
 23 24  1  0
  5 25  2  0
 25 26  1  0
 26 27  1  0
 27 28  1  0
 26 29  2  0
 29 30  1  0
 30 31  1  0
 29  3  1  0
 23 10  2  0
 22 12  1  0
  1 32  1  0
  1 33  1  0
  1 34  1  0
  4 35  1  0
  6 36  1  0
  6 37  1  0
  7 38  1  0
 15 39  1  0
 15 40  1  0
 15 41  1  0
 16 42  1  0
 24 43  1  0
 24 44  1  0
 25 45  1  0
 28 46  1  0
 28 47  1  0
 28 48  1  0
 31 49  1  0
 31 50  1  0
 31 51  1  0
M  END
>  <Binding energies>  (1) 
[-6.19]

>  <Ligand effiencies>  (1) 
[-0.18205882352941177]

>  <Interactions>  (1) 
["V-A:ASP:366:CG:3212, V-B:GLU:543:CD:9879, H-A:TYR:484:OH:4347, H-B:GLU:543:OE2:9881, H-B:GLU:543:OE1:9880, V-A:GLY:454:CA:4048, V-A:GLY:453:C:4041, V-A:ARG:545:CZ:4925, V-A:HIS:456:CE1:4069, H-A:GLU:543:OE1:4908, V-A:GLU:543:CD:4907, V-B:HIS:456:CE1:9040, H-B:LYS:547:NZ:9922, V-A:HIS:456:CD2:4067, H-A:GLU:543:O:4902, V-A:GLY:544:C:4911, H-A:LYS:547:NZ:4950, V-A:LYS:547:CE:4949, V-A:GLU:543:CB:4905, V-A:GLU:543:C:4901, V-A:GLY:453:CA:4043, V-A:TYR:484:CZ:4346, V-A:LYS:547:CD:4948"]

$$$$
4bi_Grossjean_2025
     RDKit          3D

 32 34  0  0  0  0  0  0  0  0999 V2000
  133.2720  125.3590   65.2110 C   0  0  0  0  0  0  0  0  0  0  0  0
  132.5710  124.4710   64.1980 C   0  0  0  0  0  0  0  0  0  0  0  0
  133.1460  123.2760   63.7730 C   0  0  0  0  0  0  0  0  0  0  0  0
  132.4840  122.4620   62.8380 C   0  0  0  0  0  0  0  0  0  0  0  0
  133.1520  121.1530   62.4060 C   0  0  0  0  0  0  0  0  0  0  0  0
  132.2770  120.1680   62.1860 F   0  0  0  0  0  0  0  0  0  0  0  0
  133.8300  121.3430   61.2750 F   0  0  0  0  0  0  0  0  0  0  0  0
  133.9890  120.7370   63.3570 F   0  0  0  0  0  0  0  0  0  0  0  0
  131.2210  122.9180   62.3560 C   0  0  0  0  0  0  0  0  0  0  0  0
  130.2750  122.3700   61.4140 C   0  0  0  0  0  0  0  0  0  0  0  0
  130.4850  121.1840   60.7580 N   0  0  0  0  0  0  0  0  0  0  0  0
  129.1230  123.1540   61.2360 C   0  0  0  0  0  0  0  0  0  0  0  0
  127.9780  122.9070   60.3560 C   0  0  0  0  0  0  0  0  0  0  0  0
  126.8450  122.7660   60.8210 O   0  0  0  0  0  0  0  0  0  0  0  0
  128.2600  122.8690   59.0300 N   0  0  0  0  0  0  0  0  0  0  0  0
  127.3720  122.6660   57.9810 C   0  0  0  0  0  0  0  0  0  0  0  0
  126.0700  123.1640   57.9790 C   0  0  0  0  0  0  0  0  0  0  0  0
  125.5300  122.7500   56.7830 C   0  0  0  0  0  0  0  0  0  0  0  0
  126.4590  122.0410   56.0990 O   0  0  0  0  0  0  0  0  0  0  0  0
  127.6230  121.9940   56.8700 N   0  0  0  0  0  0  0  0  0  0  0  0
  129.1880  124.6150   62.2180 S   0  0  0  0  0  0  0  0  0  0  0  0
  130.7440  124.1610   62.8730 C   0  0  0  0  0  0  0  0  0  0  0  0
  131.3750  124.9280   63.7610 N   0  0  0  0  0  0  0  0  0  0  0  0
  133.0126  125.0304   66.2282 H   0  0  0  0  0  0  0  0  0  0  0  0
  134.3605  125.2884   65.0693 H   0  0  0  0  0  0  0  0  0  0  0  0
  132.9506  126.4014   65.0693 H   0  0  0  0  0  0  0  0  0  0  0  0
  134.1238  122.9675   64.1714 H   0  0  0  0  0  0  0  0  0  0  0  0
  129.7470  120.5040   60.6370 H   0  0  0  0  0  0  0  0  0  0  0  0
  131.3890  120.9470   60.3750 H   0  0  0  0  0  0  0  0  0  0  0  0
  129.2230  123.0110   58.7610 H   0  0  0  0  0  0  0  0  0  0  0  0
  125.5802  123.7592   58.7638 H   0  0  0  0  0  0  0  0  0  0  0  0
  124.5072  122.9612   56.4377 H   0  0  0  0  0  0  0  0  0  0  0  0
  1  2  1  0
  2  3  2  0
  3  4  1  0
  4  5  1  0
  5  6  1  0
  5  7  1  0
  5  8  1  0
  4  9  2  0
  9 10  1  0
 10 11  1  0
 10 12  2  0
 12 13  1  0
 13 14  2  0
 13 15  1  0
 15 16  1  0
 16 17  1  0
 17 18  2  0
 18 19  1  0
 19 20  1  0
 12 21  1  0
 21 22  1  0
 22 23  2  0
 23  2  1  0
 22  9  1  0
 20 16  2  0
  1 24  1  0
  1 25  1  0
  1 26  1  0
  3 27  1  0
 11 28  1  0
 11 29  1  0
 15 30  1  0
 17 31  1  0
 18 32  1  0
M  END
>  <Binding energies>  (1) 
[-6.52]

>  <Ligand effiencies>  (1) 
[-0.25076923076923074]

>  <Interactions>  (1) 
["V-B:PRO:540:N:9855, H-B:ALA:541:N:9862, V-B:PRO:540:CA:9854, V-B:TYR:539:C:9838, V-A:LEU:475:CD2:4258, H-B:TYR:539:O:9839, V-A:ILE:369:CD1:3238, V-A:SER:385:C:3404, V-B:TYR:539:CD2:9845, V-A:ILE:369:CG2:3236, V-B:TYR:539:CE2:9847, V-A:SER:385:CA:3406, V-A:SER:385:CB:3408, V-A:GLY:454:CA:4048, H-B:TYR:539:N:9841, V-B:PRO:540:CB:9856, V-B:PRO:540:CD:9858, V-B:LEU:363:CD1:8159, V-A:ARG:545:CZ:4925"]

$$$$
4bj_Grossjean_2025
     RDKit          3D

 32 34  0  0  0  0  0  0  0  0999 V2000
  128.5070  117.2730   76.5780 C   0  0  0  0  0  0  0  0  0  0  0  0
  128.6450  118.6060   75.8670 C   0  0  0  0  0  0  0  0  0  0  0  0
  127.9820  118.8520   74.6670 C   0  0  0  0  0  0  0  0  0  0  0  0
  128.1240  120.0880   74.0160 C   0  0  0  0  0  0  0  0  0  0  0  0
  127.3760  120.3100   72.6970 C   0  0  0  0  0  0  0  0  0  0  0  0
  128.1400  120.8580   71.7500 F   0  0  0  0  0  0  0  0  0  0  0  0
  126.9320  119.1450   72.2280 F   0  0  0  0  0  0  0  0  0  0  0  0
  126.3420  121.1270   72.8990 F   0  0  0  0  0  0  0  0  0  0  0  0
  128.9640  121.0590   74.6370 C   0  0  0  0  0  0  0  0  0  0  0  0
  129.3470  122.4020   74.2740 C   0  0  0  0  0  0  0  0  0  0  0  0
  128.9020  123.0160   73.1310 N   0  0  0  0  0  0  0  0  0  0  0  0
  130.2040  123.0230   75.1970 C   0  0  0  0  0  0  0  0  0  0  0  0
  130.7890  124.3650   75.1390 C   0  0  0  0  0  0  0  0  0  0  0  0
  130.0840  125.3510   74.9100 O   0  0  0  0  0  0  0  0  0  0  0  0
  132.1240  124.4290   75.3650 N   0  0  0  0  0  0  0  0  0  0  0  0
  132.9130  125.5710   75.3780 C   0  0  0  0  0  0  0  0  0  0  0  0
  132.6280  126.7570   74.8870 N   0  0  0  0  0  0  0  0  0  0  0  0
  133.6110  127.6130   75.0830 C   0  0  0  0  0  0  0  0  0  0  0  0
  134.7310  127.1220   75.7470 C   0  0  0  0  0  0  0  0  0  0  0  0
  134.4720  125.4460   76.1300 S   0  0  0  0  0  0  0  0  0  0  0  0
  130.5850  121.9480   76.5390 S   0  0  0  0  0  0  0  0  0  0  0  0
  129.5830  120.6820   75.8690 C   0  0  0  0  0  0  0  0  0  0  0  0
  129.4470  119.5060   76.4810 N   0  0  0  0  0  0  0  0  0  0  0  0
  128.5237  117.4343   77.6660 H   0  0  0  0  0  0  0  0  0  0  0  0
  127.5552  116.8016   76.2918 H   0  0  0  0  0  0  0  0  0  0  0  0
  129.3420  116.6166   76.2918 H   0  0  0  0  0  0  0  0  0  0  0  0
  127.3428  118.0727   74.2263 H   0  0  0  0  0  0  0  0  0  0  0  0
  128.3430  123.8560   73.1570 H   0  0  0  0  0  0  0  0  0  0  0  0
  129.1160  122.6410   72.2170 H   0  0  0  0  0  0  0  0  0  0  0  0
  132.6040  123.5620   75.5520 H   0  0  0  0  0  0  0  0  0  0  0  0
  133.5495  128.6567   74.7410 H   0  0  0  0  0  0  0  0  0  0  0  0
  135.6343  127.7007   75.9903 H   0  0  0  0  0  0  0  0  0  0  0  0
  1  2  1  0
  2  3  2  0
  3  4  1  0
  4  5  1  0
  5  6  1  0
  5  7  1  0
  5  8  1  0
  4  9  2  0
  9 10  1  0
 10 11  1  0
 10 12  2  0
 12 13  1  0
 13 14  2  0
 13 15  1  0
 15 16  1  0
 16 17  2  0
 17 18  1  0
 18 19  2  0
 19 20  1  0
 12 21  1  0
 21 22  1  0
 22 23  2  0
 23  2  1  0
 22  9  1  0
 20 16  1  0
  1 24  1  0
  1 25  1  0
  1 26  1  0
  3 27  1  0
 11 28  1  0
 11 29  1  0
 15 30  1  0
 18 31  1  0
 19 32  1  0
M  END
>  <Binding energies>  (1) 
[-6.01]

>  <Ligand effiencies>  (1) 
[-0.23115384615384615]

>  <Interactions>  (1) 
["H-B:GLU:543:O:9874, H-B:LYS:547:NZ:9922, V-B:GLU:543:C:9873, H-A:ASP:473:OD2:4241, V-B:GLY:544:CA:9885, V-A:ASP:473:CG:4239, V-A:TYR:484:CB:4340, V-A:TYR:484:C:4336, V-A:HIS:456:CB:4064, V-B:GLU:543:CA:9875, V-A:VAL:457:C:4072, V-A:HIS:456:C:4060, V-A:HIS:456:CG:4065, V-A:VAL:458:CG2:4086, H-A:HIS:456:ND1:4066, V-A:TYR:484:CD2:4343, V-A:TYR:484:CG:4341, V-A:TYR:484:CA:4338"]

$$$$
4bk_Grossjean_2025
     RDKit          3D

 50 51  0  0  0  0  0  0  0  0999 V2000
  127.7860  125.8670   57.5140 C   0  0  0  0  0  0  0  0  0  0  0  0
  127.7360  124.5360   58.0030 O   0  0  0  0  0  0  0  0  0  0  0  0
  128.4270  123.6050   57.1800 C   0  0  0  0  0  0  0  0  0  0  0  0
  127.6730  122.2690   57.1760 C   0  0  0  0  0  0  0  0  0  0  0  0
  127.0900  122.0600   55.8970 O   0  0  0  0  0  0  0  0  0  0  0  0
  125.6690  122.0820   55.9030 C   0  0  0  0  0  0  0  0  0  0  0  0
  125.1710  122.4610   57.3040 C   0  0  0  0  0  0  0  0  0  0  0  0
  125.2700  123.8690   57.4730 O   0  0  0  0  0  0  0  0  0  0  0  0
  124.1570  124.4470   58.1450 C   0  0  0  0  0  0  0  0  0  0  0  0
  124.2520  124.1350   59.6490 C   0  0  0  0  0  0  0  0  0  0  0  0
  125.5930  123.7400   60.0830 N   0  0  0  0  0  0  0  0  0  0  0  0
  125.9310  123.3820   61.3400 C   0  0  0  0  0  0  0  0  0  0  0  0
  125.1100  123.3360   62.2570 O   0  0  0  0  0  0  0  0  0  0  0  0
  127.3380  123.0390   61.5550 C   0  0  0  0  0  0  0  0  0  0  0  0
  128.3960  122.7450   60.1770 S   0  0  0  0  0  0  0  0  0  0  0  0
  129.7610  122.4610   61.2310 C   0  0  0  0  0  0  0  0  0  0  0  0
  130.9650  122.1610   60.7450 N   0  0  0  0  0  0  0  0  0  0  0  0
  131.9440  121.9650   61.6590 C   0  0  0  0  0  0  0  0  0  0  0  0
  133.3070  121.6270   61.0820 C   0  0  0  0  0  0  0  0  0  0  0  0
  131.7490  122.0610   63.0340 C   0  0  0  0  0  0  0  0  0  0  0  0
  130.4830  122.3750   63.5530 C   0  0  0  0  0  0  0  0  0  0  0  0
  130.3170  122.4650   65.0740 C   0  0  0  0  0  0  0  0  0  0  0  0
  130.1430  123.7160   65.5070 F   0  0  0  0  0  0  0  0  0  0  0  0
  129.2530  121.7580   65.4540 F   0  0  0  0  0  0  0  0  0  0  0  0
  131.4030  121.9820   65.6760 F   0  0  0  0  0  0  0  0  0  0  0  0
  129.4290  122.5890   62.6160 C   0  0  0  0  0  0  0  0  0  0  0  0
  128.0340  122.9250   62.7670 C   0  0  0  0  0  0  0  0  0  0  0  0
  127.4450  123.1120   63.9910 N   0  0  0  0  0  0  0  0  0  0  0  0
  127.8123  126.5681   58.3612 H   0  0  0  0  0  0  0  0  0  0  0  0
  128.6897  125.9987   56.9009 H   0  0  0  0  0  0  0  0  0  0  0  0
  126.8947  126.0661   56.9009 H   0  0  0  0  0  0  0  0  0  0  0  0
  128.4859  123.9960   56.1535 H   0  0  0  0  0  0  0  0  0  0  0  0
  129.4431  123.4517   57.5725 H   0  0  0  0  0  0  0  0  0  0  0  0
  128.3743  121.4511   57.3978 H   0  0  0  0  0  0  0  0  0  0  0  0
  126.8828  122.2907   57.9409 H   0  0  0  0  0  0  0  0  0  0  0  0
  125.3104  122.8228   55.1732 H   0  0  0  0  0  0  0  0  0  0  0  0
  125.2850  121.0871   55.6333 H   0  0  0  0  0  0  0  0  0  0  0  0
  124.1220  122.1502   57.4176 H   0  0  0  0  0  0  0  0  0  0  0  0
  125.7856  121.9547   58.0629 H   0  0  0  0  0  0  0  0  0  0  0  0
  124.1626  125.5367   57.9948 H   0  0  0  0  0  0  0  0  0  0  0  0
  123.2241  124.0277   57.7402 H   0  0  0  0  0  0  0  0  0  0  0  0
  123.9559  125.0338   60.2098 H   0  0  0  0  0  0  0  0  0  0  0  0
  123.5860  123.2814   59.8436 H   0  0  0  0  0  0  0  0  0  0  0  0
  126.3130  123.7570   59.3770 H   0  0  0  0  0  0  0  0  0  0  0  0
  134.0187  121.4505   61.9019 H   0  0  0  0  0  0  0  0  0  0  0  0
  133.2287  120.7211   60.4630 H   0  0  0  0  0  0  0  0  0  0  0  0
  133.6611  122.4645   60.4630 H   0  0  0  0  0  0  0  0  0  0  0  0
  132.5928  121.8896   63.7186 H   0  0  0  0  0  0  0  0  0  0  0  0
  126.4410  123.0920   64.1100 H   0  0  0  0  0  0  0  0  0  0  0  0
  127.9980  123.2720   64.8220 H   0  0  0  0  0  0  0  0  0  0  0  0
  1  2  1  0
  2  3  1  0
  3  4  1  0
  4  5  1  0
  5  6  1  0
  6  7  1  0
  7  8  1  0
  8  9  1  0
  9 10  1  0
 10 11  1  0
 11 12  1  0
 12 13  2  0
 12 14  1  0
 14 15  1  0
 15 16  1  0
 16 17  2  0
 17 18  1  0
 18 19  1  0
 18 20  2  0
 20 21  1  0
 21 22  1  0
 22 23  1  0
 22 24  1  0
 22 25  1  0
 21 26  2  0
 26 27  1  0
 27 28  1  0
 27 14  2  0
 26 16  1  0
  1 29  1  0
  1 30  1  0
  1 31  1  0
  3 32  1  0
  3 33  1  0
  4 34  1  0
  4 35  1  0
  6 36  1  0
  6 37  1  0
  7 38  1  0
  7 39  1  0
  9 40  1  0
  9 41  1  0
 10 42  1  0
 10 43  1  0
 11 44  1  0
 19 45  1  0
 19 46  1  0
 19 47  1  0
 20 48  1  0
 28 49  1  0
 28 50  1  0
M  END
>  <Binding energies>  (1) 
[-5.24]

>  <Ligand effiencies>  (1) 
[-0.16903225806451613]

>  <Interactions>  (1) 
["V-B:GLU:543:CD:9879, V-B:PRO:540:N:9855, H-B:ALA:541:N:9862, V-B:ALA:541:CB:9863, V-B:PRO:540:CA:9854, H-B:GLU:543:OE2:9881, V-B:ALA:541:CA:9861, V-B:PRO:540:C:9852, H-B:GLU:543:OE1:9880, V-B:TYR:539:C:9838, V-A:LEU:475:CD2:4258, H-B:ALA:541:O:9860, V-A:ILE:369:CD1:3238, V-B:TYR:539:CD2:9845, V-A:ILE:369:CG2:3236, V-B:TYR:539:CE2:9847, H-B:TYR:539:N:9841, V-B:TYR:539:CG:9843, V-B:MET:535:CE:9806, V-B:TYR:539:CZ:9848, V-B:GLU:543:CG:9878, V-A:LEU:475:CD1:4257, V-B:ALA:541:C:9859, V-B:PRO:540:CB:9856, V-B:TYR:539:CA:9840, V-B:TYR:539:CD1:9844, V-B:PRO:540:CD:9858, V-B:LEU:363:CD1:8159, V-B:ILE:538:CD1:9836, V-B:ILE:538:CG2:9834, H-B:ARG:545:NH2:9899, V-B:ILE:538:CA:9831, V-B:TYR:539:CE1:9846, V-B:ILE:538:C:9829, V-B:ILE:538:CB:9833, V-B:ASP:366:CB:8182, V-A:TYR:484:CZ:4346, V-A:TYR:484:CE2:4345, H-B:TYR:531:OH:9766, V-B:ASP:366:CG:8183, V-B:PRO:540:CG:9857, V-A:LEU:475:CG:4256, V-A:LEU:475:CB:4255, V-A:TYR:484:CE1:4344"]

$$$$
4ca_Grossjean_2025
     RDKit          3D

 52 55  0  0  0  0  0  0  0  0999 V2000
  128.4260  132.2910   55.0140 C   0  0  0  0  0  0  0  0  0  0  0  0
  129.6380  133.1900   54.7480 C   0  0  0  0  0  0  0  0  0  0  0  0
  130.1890  133.6180   55.9870 O   0  0  0  0  0  0  0  0  0  0  0  0
  131.3330  133.0700   56.4730 C   0  0  0  0  0  0  0  0  0  0  0  0
  132.4450  133.2580   55.9680 O   0  0  0  0  0  0  0  0  0  0  0  0
  131.1110  132.2160   57.6870 C   0  0  0  0  0  0  0  0  0  0  0  0
  131.8120  132.5060   58.8650 C   0  0  0  0  0  0  0  0  0  0  0  0
  131.6240  131.7350   60.0090 C   0  0  0  0  0  0  0  0  0  0  0  0
  130.7400  130.6560   59.9970 C   0  0  0  0  0  0  0  0  0  0  0  0
  130.6210  129.9510   61.2110 N   0  0  0  0  0  0  0  0  0  0  0  0
  129.6580  129.0930   61.6300 C   0  0  0  0  0  0  0  0  0  0  0  0
  128.6980  128.7420   60.9440 O   0  0  0  0  0  0  0  0  0  0  0  0
  129.8340  128.5710   62.9870 C   0  0  0  0  0  0  0  0  0  0  0  0
  128.7720  129.1040   64.2870 S   0  0  0  0  0  0  0  0  0  0  0  0
  129.5720  128.0550   65.4320 C   0  0  0  0  0  0  0  0  0  0  0  0
  129.1880  127.9960   66.7050 N   0  0  0  0  0  0  0  0  0  0  0  0
  129.8600  127.1410   67.5190 C   0  0  0  0  0  0  0  0  0  0  0  0
  129.3970  127.0900   68.9460 C   0  0  0  0  0  0  0  0  0  0  0  0
  128.7790  125.9400   69.4620 C   0  0  0  0  0  0  0  0  0  0  0  0
  128.3430  125.8890   70.7830 C   0  0  0  0  0  0  0  0  0  0  0  0
  128.5180  126.9930   71.6110 C   0  0  0  0  0  0  0  0  0  0  0  0
  129.1240  128.1470   71.1250 C   0  0  0  0  0  0  0  0  0  0  0  0
  129.5590  128.1940   69.8030 C   0  0  0  0  0  0  0  0  0  0  0  0
  130.9280  126.3650   67.0540 C   0  0  0  0  0  0  0  0  0  0  0  0
  131.3430  126.4230   65.7150 C   0  0  0  0  0  0  0  0  0  0  0  0
  132.5180  125.5430   65.2730 C   0  0  0  0  0  0  0  0  0  0  0  0
  132.1380  124.3360   64.8490 F   0  0  0  0  0  0  0  0  0  0  0  0
  133.1710  126.1310   64.2710 F   0  0  0  0  0  0  0  0  0  0  0  0
  133.3540  125.3590   66.2960 F   0  0  0  0  0  0  0  0  0  0  0  0
  130.6340  127.3040   64.8500 C   0  0  0  0  0  0  0  0  0  0  0  0
  130.7600  127.6180   63.4470 C   0  0  0  0  0  0  0  0  0  0  0  0
  131.7030  127.0370   62.6400 N   0  0  0  0  0  0  0  0  0  0  0  0
  130.0300  130.3610   58.8250 C   0  0  0  0  0  0  0  0  0  0  0  0
  130.2170  131.1350   57.6820 C   0  0  0  0  0  0  0  0  0  0  0  0
  128.2806  132.1831   56.0990 H   0  0  0  0  0  0  0  0  0  0  0  0
  127.5286  132.7436   54.5670 H   0  0  0  0  0  0  0  0  0  0  0  0
  128.5987  131.3009   54.5670 H   0  0  0  0  0  0  0  0  0  0  0  0
  130.3961  132.6267   54.1841 H   0  0  0  0  0  0  0  0  0  0  0  0
  129.3239  134.0669   54.1629 H   0  0  0  0  0  0  0  0  0  0  0  0
  132.5170  133.3501   58.8862 H   0  0  0  0  0  0  0  0  0  0  0  0
  132.1764  131.9784   60.9286 H   0  0  0  0  0  0  0  0  0  0  0  0
  131.3820  130.1070   61.8550 H   0  0  0  0  0  0  0  0  0  0  0  0
  128.6369  125.0644   68.8115 H   0  0  0  0  0  0  0  0  0  0  0  0
  127.8618  124.9790   71.1707 H   0  0  0  0  0  0  0  0  0  0  0  0
  128.1754  126.9533   72.6555 H   0  0  0  0  0  0  0  0  0  0  0  0
  129.2590  129.0187   71.7822 H   0  0  0  0  0  0  0  0  0  0  0  0
  130.0369  129.1089   69.4227 H   0  0  0  0  0  0  0  0  0  0  0  0
  131.4525  125.6963   67.7523 H   0  0  0  0  0  0  0  0  0  0  0  0
  131.4490  126.4880   61.8300 H   0  0  0  0  0  0  0  0  0  0  0  0
  132.6920  127.1400   62.8260 H   0  0  0  0  0  0  0  0  0  0  0  0
  129.3243  129.5173   58.8078 H   0  0  0  0  0  0  0  0  0  0  0  0
  129.6576  130.8959   56.7656 H   0  0  0  0  0  0  0  0  0  0  0  0
  1  2  1  0
  2  3  1  0
  3  4  1  0
  4  5  2  0
  4  6  1  0
  6  7  2  0
  7  8  1  0
  8  9  2  0
  9 10  1  0
 10 11  1  0
 11 12  2  0
 11 13  1  0
 13 14  1  0
 14 15  1  0
 15 16  2  0
 16 17  1  0
 17 18  1  0
 18 19  2  0
 19 20  1  0
 20 21  2  0
 21 22  1  0
 22 23  2  0
 17 24  2  0
 24 25  1  0
 25 26  1  0
 26 27  1  0
 26 28  1  0
 26 29  1  0
 25 30  2  0
 30 31  1  0
 31 32  1  0
  9 33  1  0
 33 34  2  0
 34  6  1  0
 31 13  2  0
 30 15  1  0
 23 18  1  0
  1 35  1  0
  1 36  1  0
  1 37  1  0
  2 38  1  0
  2 39  1  0
  7 40  1  0
  8 41  1  0
 10 42  1  0
 19 43  1  0
 20 44  1  0
 21 45  1  0
 22 46  1  0
 23 47  1  0
 24 48  1  0
 32 49  1  0
 32 50  1  0
 33 51  1  0
 34 52  1  0
M  END
>  <Binding energies>  (1) 
[-7.41]

>  <Ligand effiencies>  (1) 
[-0.20027027027027028]

>  <Interactions>  (1) 
["V-A:TYR:539:CZ:4876, V-A:ASP:366:CG:3212, V-A:PRO:540:CB:4884, V-A:TYR:539:CE1:4874, H-A:GLU:543:OE2:4909, V-A:PRO:540:CA:4882, V-A:TYR:531:CE2:4792, V-A:ILE:538:CA:4859, V-A:GLY:454:CA:4048, V-A:ARG:545:CZ:4925, V-A:HIS:456:CE1:4069, V-B:GLU:543:CB:9877, V-A:GLU:543:CD:4907, V-B:HIS:456:CE1:9040, V-B:GLU:543:C:9873, V-A:GLU:543:CG:4906, H-A:ASP:366:OD2:3214, V-A:ILE:538:CG2:4862, V-A:TYR:484:CZ:4346, H-A:ASP:366:OD1:3213, V-A:PRO:540:N:4883, V-A:MET:535:CG:4832, H-A:TYR:539:N:4869, V-A:MET:535:CB:4831, V-B:GLU:543:CA:9875"]

$$$$
4cb_Grossjean_2025
     RDKit          3D

 49 52  0  0  0  0  0  0  0  0999 V2000
  129.9940  133.5390   54.6720 C   0  0  0  0  0  0  0  0  0  0  0  0
  130.1120  133.6150   56.0850 O   0  0  0  0  0  0  0  0  0  0  0  0
  131.2260  133.1680   56.7180 C   0  0  0  0  0  0  0  0  0  0  0  0
  132.3730  133.3860   56.3150 O   0  0  0  0  0  0  0  0  0  0  0  0
  130.9260  132.3790   57.9620 C   0  0  0  0  0  0  0  0  0  0  0  0
  131.9400  132.1820   58.9080 C   0  0  0  0  0  0  0  0  0  0  0  0
  131.6910  131.4620   60.0730 C   0  0  0  0  0  0  0  0  0  0  0  0
  130.4280  130.9210   60.3140 C   0  0  0  0  0  0  0  0  0  0  0  0
  130.2840  130.2250   61.5300 N   0  0  0  0  0  0  0  0  0  0  0  0
  129.2370  129.5060   62.0050 C   0  0  0  0  0  0  0  0  0  0  0  0
  128.1970  129.3010   61.3780 O   0  0  0  0  0  0  0  0  0  0  0  0
  129.4210  128.9480   63.3470 C   0  0  0  0  0  0  0  0  0  0  0  0
  128.3900  129.4760   64.6760 S   0  0  0  0  0  0  0  0  0  0  0  0
  129.1820  128.3800   65.7850 C   0  0  0  0  0  0  0  0  0  0  0  0
  128.8170  128.3020   67.0630 N   0  0  0  0  0  0  0  0  0  0  0  0
  129.4840  127.4130   67.8460 C   0  0  0  0  0  0  0  0  0  0  0  0
  129.0460  127.3430   69.2800 C   0  0  0  0  0  0  0  0  0  0  0  0
  129.6690  128.1340   70.2590 C   0  0  0  0  0  0  0  0  0  0  0  0
  129.2710  128.0710   71.5930 C   0  0  0  0  0  0  0  0  0  0  0  0
  128.2410  127.2140   71.9660 C   0  0  0  0  0  0  0  0  0  0  0  0
  127.6090  126.4180   71.0160 C   0  0  0  0  0  0  0  0  0  0  0  0
  128.0120  126.4830   69.6850 C   0  0  0  0  0  0  0  0  0  0  0  0
  130.5260  126.6250   67.3460 C   0  0  0  0  0  0  0  0  0  0  0  0
  130.9200  126.7030   66.0020 C   0  0  0  0  0  0  0  0  0  0  0  0
  132.0700  125.8090   65.5200 C   0  0  0  0  0  0  0  0  0  0  0  0
  131.6530  124.6320   65.0470 F   0  0  0  0  0  0  0  0  0  0  0  0
  132.7350  126.4200   64.5400 F   0  0  0  0  0  0  0  0  0  0  0  0
  132.9030  125.5610   66.5300 F   0  0  0  0  0  0  0  0  0  0  0  0
  130.2170  127.6200   65.1680 C   0  0  0  0  0  0  0  0  0  0  0  0
  130.3280  127.9620   63.7700 C   0  0  0  0  0  0  0  0  0  0  0  0
  131.2420  127.3740   62.9340 N   0  0  0  0  0  0  0  0  0  0  0  0
  129.4060  131.1160   59.3730 C   0  0  0  0  0  0  0  0  0  0  0  0
  129.6560  131.8370   58.2090 C   0  0  0  0  0  0  0  0  0  0  0  0
  129.0959  132.9606   54.4096 H   0  0  0  0  0  0  0  0  0  0  0  0
  129.9110  134.5539   54.2559 H   0  0  0  0  0  0  0  0  0  0  0  0
  130.8837  133.0437   54.2559 H   0  0  0  0  0  0  0  0  0  0  0  0
  132.9416  132.5998   58.7288 H   0  0  0  0  0  0  0  0  0  0  0  0
  132.4959  131.3186   60.8089 H   0  0  0  0  0  0  0  0  0  0  0  0
  131.0960  130.2680   62.1280 H   0  0  0  0  0  0  0  0  0  0  0  0
  130.4836  128.8137   69.9684 H   0  0  0  0  0  0  0  0  0  0  0  0
  129.7695  128.6966   72.3481 H   0  0  0  0  0  0  0  0  0  0  0  0
  127.9242  127.1653   73.0183 H   0  0  0  0  0  0  0  0  0  0  0  0
  126.7952  125.7409   71.3149 H   0  0  0  0  0  0  0  0  0  0  0  0
  127.5119  125.8497   68.9374 H   0  0  0  0  0  0  0  0  0  0  0  0
  131.0472  125.9299   68.0207 H   0  0  0  0  0  0  0  0  0  0  0  0
  131.7690  127.9080   62.2580 H   0  0  0  0  0  0  0  0  0  0  0  0
  131.4230  126.3800   62.9680 H   0  0  0  0  0  0  0  0  0  0  0  0
  128.4049  130.6982   59.5555 H   0  0  0  0  0  0  0  0  0  0  0  0
  128.8495  131.9833   57.4754 H   0  0  0  0  0  0  0  0  0  0  0  0
  1  2  1  0
  2  3  1  0
  3  4  2  0
  3  5  1  0
  5  6  2  0
  6  7  1  0
  7  8  2  0
  8  9  1  0
  9 10  1  0
 10 11  2  0
 10 12  1  0
 12 13  1  0
 13 14  1  0
 14 15  2  0
 15 16  1  0
 16 17  1  0
 17 18  2  0
 18 19  1  0
 19 20  2  0
 20 21  1  0
 21 22  2  0
 16 23  2  0
 23 24  1  0
 24 25  1  0
 25 26  1  0
 25 27  1  0
 25 28  1  0
 24 29  2  0
 29 30  1  0
 30 31  1  0
  8 32  1  0
 32 33  2  0
 33  5  1  0
 30 12  2  0
 29 14  1  0
 22 17  1  0
  1 34  1  0
  1 35  1  0
  1 36  1  0
  6 37  1  0
  7 38  1  0
  9 39  1  0
 18 40  1  0
 19 41  1  0
 20 42  1  0
 21 43  1  0
 22 44  1  0
 23 45  1  0
 31 46  1  0
 31 47  1  0
 32 48  1  0
 33 49  1  0
M  END
>  <Binding energies>  (1) 
[-7.29]

>  <Ligand effiencies>  (1) 
[-0.2025]

>  <Interactions>  (1) 
["V-A:PRO:540:CB:4884, H-A:GLU:543:OE2:4909, V-A:PRO:540:CA:4882, V-A:ILE:538:CA:4859, V-A:ARG:545:CZ:4925, V-A:HIS:456:CE1:4069, V-B:GLU:543:CB:9877, V-A:GLU:543:CD:4907, V-B:HIS:456:CE1:9040, V-B:GLU:543:C:9873, V-A:GLU:543:CG:4906, V-A:ILE:538:CB:4861, H-A:ASP:366:OD2:3214, V-A:ILE:538:CG2:4862, V-A:TYR:484:CZ:4346, V-B:GLY:544:C:9883, V-A:PRO:540:N:4883, V-A:MET:535:CG:4832, H-A:TYR:539:N:4869, V-A:MET:535:CB:4831"]

$$$$
4cc_Grossjean_2025
     RDKit          3D

 47 50  0  0  0  0  0  0  0  0999 V2000
  129.8450  129.1420   71.7350 C   0  0  0  0  0  0  0  0  0  0  0  0
  128.9180  128.4470   70.9080 O   0  0  0  0  0  0  0  0  0  0  0  0
  129.3780  127.7890   69.7840 C   0  0  0  0  0  0  0  0  0  0  0  0
  129.0100  126.4510   69.6520 C   0  0  0  0  0  0  0  0  0  0  0  0
  129.4240  125.7060   68.5510 C   0  0  0  0  0  0  0  0  0  0  0  0
  130.2270  126.2900   67.5690 C   0  0  0  0  0  0  0  0  0  0  0  0
  130.5840  125.4650   66.4860 N   0  0  0  0  0  0  0  0  0  0  0  0
  131.6500  125.5550   65.6550 C   0  0  0  0  0  0  0  0  0  0  0  0
  132.5350  126.4060   65.7600 O   0  0  0  0  0  0  0  0  0  0  0  0
  131.7010  124.5530   64.5860 C   0  0  0  0  0  0  0  0  0  0  0  0
  131.0770  122.9280   64.8620 S   0  0  0  0  0  0  0  0  0  0  0  0
  131.4850  122.4470   63.2320 C   0  0  0  0  0  0  0  0  0  0  0  0
  131.2370  121.2170   62.7880 N   0  0  0  0  0  0  0  0  0  0  0  0
  131.5800  120.9380   61.5040 C   0  0  0  0  0  0  0  0  0  0  0  0
  131.2910  119.5430   61.0330 C   0  0  0  0  0  0  0  0  0  0  0  0
  132.1250  118.9150   60.0920 C   0  0  0  0  0  0  0  0  0  0  0  0
  131.8620  117.6220   59.6490 C   0  0  0  0  0  0  0  0  0  0  0  0
  130.7570  116.9350   60.1410 C   0  0  0  0  0  0  0  0  0  0  0  0
  129.9140  117.5340   61.0710 C   0  0  0  0  0  0  0  0  0  0  0  0
  130.1800  118.8280   61.5100 C   0  0  0  0  0  0  0  0  0  0  0  0
  132.1860  121.8900   60.6780 C   0  0  0  0  0  0  0  0  0  0  0  0
  132.4540  123.1900   61.1360 C   0  0  0  0  0  0  0  0  0  0  0  0
  133.1150  124.1850   60.1750 C   0  0  0  0  0  0  0  0  0  0  0  0
  133.3350  123.6740   58.9610 F   0  0  0  0  0  0  0  0  0  0  0  0
  132.3310  125.2520   60.0220 F   0  0  0  0  0  0  0  0  0  0  0  0
  134.2920  124.5710   60.6650 F   0  0  0  0  0  0  0  0  0  0  0  0
  132.0900  123.4960   62.4790 C   0  0  0  0  0  0  0  0  0  0  0  0
  132.2040  124.6890   63.2820 C   0  0  0  0  0  0  0  0  0  0  0  0
  132.7550  125.8520   62.8070 N   0  0  0  0  0  0  0  0  0  0  0  0
  130.5920  127.6400   67.6890 C   0  0  0  0  0  0  0  0  0  0  0  0
  130.1730  128.3810   68.7900 C   0  0  0  0  0  0  0  0  0  0  0  0
  129.6017  128.9596   72.7921 H   0  0  0  0  0  0  0  0  0  0  0  0
  130.8636  128.7831   71.5260 H   0  0  0  0  0  0  0  0  0  0  0  0
  129.7861  130.2203   71.5260 H   0  0  0  0  0  0  0  0  0  0  0  0
  128.3863  125.9790   70.4254 H   0  0  0  0  0  0  0  0  0  0  0  0
  129.1176  124.6540   68.4544 H   0  0  0  0  0  0  0  0  0  0  0  0
  129.9650  124.6830   66.3350 H   0  0  0  0  0  0  0  0  0  0  0  0
  132.9997  119.4541   59.6993 H   0  0  0  0  0  0  0  0  0  0  0  0
  132.5255  117.1451   58.9125 H   0  0  0  0  0  0  0  0  0  0  0  0
  130.5488  115.9126   59.7927 H   0  0  0  0  0  0  0  0  0  0  0  0
  129.0411  116.9878   61.4579 H   0  0  0  0  0  0  0  0  0  0  0  0
  129.5085  119.2987   62.2431 H   0  0  0  0  0  0  0  0  0  0  0  0
  132.4583  121.6147   59.6484 H   0  0  0  0  0  0  0  0  0  0  0  0
  132.9100  126.0050   61.8200 H   0  0  0  0  0  0  0  0  0  0  0  0
  133.0280  126.5970   63.4310 H   0  0  0  0  0  0  0  0  0  0  0  0
  131.2101  128.1130   66.9117 H   0  0  0  0  0  0  0  0  0  0  0  0
  130.4666  129.4371   68.8819 H   0  0  0  0  0  0  0  0  0  0  0  0
  1  2  1  0
  2  3  1  0
  3  4  2  0
  4  5  1  0
  5  6  2  0
  6  7  1  0
  7  8  1  0
  8  9  2  0
  8 10  1  0
 10 11  1  0
 11 12  1  0
 12 13  2  0
 13 14  1  0
 14 15  1  0
 15 16  2  0
 16 17  1  0
 17 18  2  0
 18 19  1  0
 19 20  2  0
 14 21  2  0
 21 22  1  0
 22 23  1  0
 23 24  1  0
 23 25  1  0
 23 26  1  0
 22 27  2  0
 27 28  1  0
 28 29  1  0
  6 30  1  0
 30 31  2  0
 31  3  1  0
 28 10  2  0
 27 12  1  0
 20 15  1  0
  1 32  1  0
  1 33  1  0
  1 34  1  0
  4 35  1  0
  5 36  1  0
  7 37  1  0
 16 38  1  0
 17 39  1  0
 18 40  1  0
 19 41  1  0
 20 42  1  0
 21 43  1  0
 29 44  1  0
 29 45  1  0
 30 46  1  0
 31 47  1  0
M  END
>  <Binding energies>  (1) 
[-7.32]

>  <Ligand effiencies>  (1) 
[-0.21529411764705883]

>  <Interactions>  (1) 
["V-A:ASP:366:CG:3212, V-A:ASP:366:CB:3211, V-B:GLU:543:CD:9879, H-A:TYR:484:OH:4347, V-B:ALA:541:CB:9863, H-B:GLU:543:OE2:9881, V-B:TYR:539:C:9838, V-A:LEU:475:CD2:4258, V-A:PRO:482:CG:4326, V-A:HIS:383:CE1:3393, V-A:ILE:369:CD1:3238, V-B:TYR:539:CD2:9845, V-A:ILE:369:CG2:3236, V-B:TYR:539:CE2:9847, V-B:TYR:539:CB:9842, V-B:VAL:344:CG1:7971, V-B:TYR:539:CG:9843, V-B:TYR:539:CZ:9848, V-A:PRO:482:CB:4325, V-B:GLU:543:CG:9878, V-A:ARG:545:CZ:4925, V-A:HIS:456:CE1:4069, V-B:GLU:543:CB:9877, V-A:GLU:543:CD:4907, V-B:HIS:456:CE1:9040, H-A:ASP:366:OD2:3214, V-A:GLU:543:CB:4905, V-A:GLU:543:C:4901, H-A:ARG:545:NH2:4927, H-A:ARG:545:NE:4923, V-A:TYR:484:CZ:4346, V-A:TYR:484:CE2:4345, H-A:ASP:366:OD1:3213, V-A:ILE:369:CB:3235, V-A:ASP:366:CA:3209, V-A:ILE:369:CG1:3237"]

$$$$
4cd_Grossjean_2025
     RDKit          3D

 43 46  0  0  0  0  0  0  0  0999 V2000
  132.8460  125.9350   62.7440 N   0  0  0  0  0  0  0  0  0  0  0  0
  132.2880  124.7890   63.2520 C   0  0  0  0  0  0  0  0  0  0  0  0
  131.7770  124.6950   64.5560 C   0  0  0  0  0  0  0  0  0  0  0  0
  131.7450  125.7240   65.6010 C   0  0  0  0  0  0  0  0  0  0  0  0
  132.7830  126.0930   66.1490 O   0  0  0  0  0  0  0  0  0  0  0  0
  130.5170  126.2180   65.8920 N   0  0  0  0  0  0  0  0  0  0  0  0
  130.1380  127.1620   66.8640 C   0  0  0  0  0  0  0  0  0  0  0  0
  129.1560  128.0790   66.4780 C   0  0  0  0  0  0  0  0  0  0  0  0
  128.7050  129.0440   67.3730 C   0  0  0  0  0  0  0  0  0  0  0  0
  129.2310  129.0890   68.6620 C   0  0  0  0  0  0  0  0  0  0  0  0
  130.1990  128.1730   69.0650 C   0  0  0  0  0  0  0  0  0  0  0  0
  130.6540  127.2060   68.1710 C   0  0  0  0  0  0  0  0  0  0  0  0
  131.1270  123.0880   64.8710 S   0  0  0  0  0  0  0  0  0  0  0  0
  131.5520  122.5520   63.2630 C   0  0  0  0  0  0  0  0  0  0  0  0
  131.2990  121.3110   62.8540 N   0  0  0  0  0  0  0  0  0  0  0  0
  131.6790  120.9830   61.5910 C   0  0  0  0  0  0  0  0  0  0  0  0
  131.3830  119.5760   61.1600 C   0  0  0  0  0  0  0  0  0  0  0  0
  130.2330  118.9110   61.6160 C   0  0  0  0  0  0  0  0  0  0  0  0
  129.9520  117.6060   61.2200 C   0  0  0  0  0  0  0  0  0  0  0  0
  130.8210  116.9450   60.3580 C   0  0  0  0  0  0  0  0  0  0  0  0
  131.9650  117.5810   59.8890 C   0  0  0  0  0  0  0  0  0  0  0  0
  132.2410  118.8860   60.2860 C   0  0  0  0  0  0  0  0  0  0  0  0
  132.2910  121.9070   60.7400 C   0  0  0  0  0  0  0  0  0  0  0  0
  132.5590  123.2200   61.1600 C   0  0  0  0  0  0  0  0  0  0  0  0
  133.2370  124.1810   60.1760 C   0  0  0  0  0  0  0  0  0  0  0  0
  133.5240  123.6130   59.0020 F   0  0  0  0  0  0  0  0  0  0  0  0
  132.4350  125.2180   59.9320 F   0  0  0  0  0  0  0  0  0  0  0  0
  134.3820  124.6230   60.6950 F   0  0  0  0  0  0  0  0  0  0  0  0
  132.1770  123.5720   62.4860 C   0  0  0  0  0  0  0  0  0  0  0  0
  133.8440  126.0320   62.6200 H   0  0  0  0  0  0  0  0  0  0  0  0
  132.2750  126.7220   62.4720 H   0  0  0  0  0  0  0  0  0  0  0  0
  129.7540  125.8760   65.3250 H   0  0  0  0  0  0  0  0  0  0  0  0
  128.7377  128.0374   65.4615 H   0  0  0  0  0  0  0  0  0  0  0  0
  127.9366  129.7680   67.0641 H   0  0  0  0  0  0  0  0  0  0  0  0
  128.8784  129.8553   69.3680 H   0  0  0  0  0  0  0  0  0  0  0  0
  130.6037  128.2126   70.0871 H   0  0  0  0  0  0  0  0  0  0  0  0
  131.4157  126.4782   68.4873 H   0  0  0  0  0  0  0  0  0  0  0  0
  129.5427  119.4298   62.2974 H   0  0  0  0  0  0  0  0  0  0  0  0
  129.0469  117.1000   61.5871 H   0  0  0  0  0  0  0  0  0  0  0  0
  130.6018  115.9133   60.0456 H   0  0  0  0  0  0  0  0  0  0  0  0
  132.6491  117.0549   59.2070 H   0  0  0  0  0  0  0  0  0  0  0  0
  133.1457  119.3859   59.9096 H   0  0  0  0  0  0  0  0  0  0  0  0
  132.5684  121.5998   59.7208 H   0  0  0  0  0  0  0  0  0  0  0  0
  1  2  1  0
  2  3  2  0
  3  4  1  0
  4  5  2  0
  4  6  1  0
  6  7  1  0
  7  8  2  0
  8  9  1  0
  9 10  2  0
 10 11  1  0
 11 12  2  0
  3 13  1  0
 13 14  1  0
 14 15  2  0
 15 16  1  0
 16 17  1  0
 17 18  2  0
 18 19  1  0
 19 20  2  0
 20 21  1  0
 21 22  2  0
 16 23  2  0
 23 24  1  0
 24 25  1  0
 25 26  1  0
 25 27  1  0
 25 28  1  0
 24 29  2  0
 29  2  1  0
 12  7  1  0
 29 14  1  0
 22 17  1  0
  1 30  1  0
  1 31  1  0
  6 32  1  0
  8 33  1  0
  9 34  1  0
 10 35  1  0
 11 36  1  0
 12 37  1  0
 18 38  1  0
 19 39  1  0
 20 40  1  0
 21 41  1  0
 22 42  1  0
 23 43  1  0
M  END
>  <Binding energies>  (1) 
[-7.97]

>  <Ligand effiencies>  (1) 
[-0.2490625]

>  <Interactions>  (1) 
["V-A:ASP:366:CG:3212, V-A:ASP:366:CB:3211, V-B:GLU:543:CD:9879, H-A:TYR:484:OH:4347, V-B:ALA:541:CB:9863, H-B:GLU:543:OE2:9881, V-B:TYR:539:C:9838, V-A:LEU:475:CD2:4258, V-A:PRO:482:CG:4326, V-A:HIS:383:CE1:3393, V-A:ILE:369:CD1:3238, V-B:TYR:539:CD2:9845, V-A:ILE:369:CG2:3236, V-B:TYR:539:CE2:9847, V-B:TYR:539:CB:9842, V-B:VAL:344:CG1:7971, V-B:TYR:539:CZ:9848, V-A:PRO:482:CB:4325, V-A:ARG:545:CZ:4925, V-A:HIS:456:CE1:4069, V-A:GLU:543:CD:4907, V-A:GLU:543:CG:4906, H-A:ASP:366:OD2:3214, V-A:GLU:543:CB:4905, H-A:ARG:545:NE:4923, V-A:TYR:484:CZ:4346, H-A:ASP:366:OD1:3213, V-A:ILE:369:CB:3235, V-A:ASP:366:CA:3209, V-A:ILE:369:CG1:3237"]

$$$$
4ce_Grossjean_2025
     RDKit          3D

 45 48  0  0  0  0  0  0  0  0999 V2000
  135.4640  125.7170   67.0390 C   0  0  0  0  0  0  0  0  0  0  0  0
  133.9680  125.9070   66.8760 C   0  0  0  0  0  0  0  0  0  0  0  0
  133.1890  126.4730   67.8890 C   0  0  0  0  0  0  0  0  0  0  0  0
  131.8190  126.6240   67.6670 C   0  0  0  0  0  0  0  0  0  0  0  0
  131.2680  126.2120   66.4520 C   0  0  0  0  0  0  0  0  0  0  0  0
  132.1050  125.6470   65.4820 C   0  0  0  0  0  0  0  0  0  0  0  0
  131.4950  125.2750   64.2710 N   0  0  0  0  0  0  0  0  0  0  0  0
  130.9260  124.0890   63.9370 C   0  0  0  0  0  0  0  0  0  0  0  0
  130.8490  123.1270   64.7030 O   0  0  0  0  0  0  0  0  0  0  0  0
  130.3910  124.0100   62.5760 C   0  0  0  0  0  0  0  0  0  0  0  0
  128.8500  123.2110   62.2750 S   0  0  0  0  0  0  0  0  0  0  0  0
  128.9400  123.5800   60.5700 C   0  0  0  0  0  0  0  0  0  0  0  0
  127.9790  123.2100   59.7270 N   0  0  0  0  0  0  0  0  0  0  0  0
  128.1300  123.5560   58.4220 C   0  0  0  0  0  0  0  0  0  0  0  0
  127.0260  123.1280   57.5000 C   0  0  0  0  0  0  0  0  0  0  0  0
  125.6870  123.4270   57.7990 C   0  0  0  0  0  0  0  0  0  0  0  0
  124.6570  123.0280   56.9510 C   0  0  0  0  0  0  0  0  0  0  0  0
  124.9530  122.3240   55.7890 C   0  0  0  0  0  0  0  0  0  0  0  0
  126.2710  122.0150   55.4700 C   0  0  0  0  0  0  0  0  0  0  0  0
  127.2980  122.4130   56.3210 C   0  0  0  0  0  0  0  0  0  0  0  0
  129.2550  124.2510   57.9660 C   0  0  0  0  0  0  0  0  0  0  0  0
  130.2770  124.6410   58.8450 C   0  0  0  0  0  0  0  0  0  0  0  0
  131.4800  125.4030   58.2790 C   0  0  0  0  0  0  0  0  0  0  0  0
  131.6550  126.6000   58.8420 F   0  0  0  0  0  0  0  0  0  0  0  0
  132.5950  124.6990   58.4820 F   0  0  0  0  0  0  0  0  0  0  0  0
  131.3160  125.5970   56.9710 F   0  0  0  0  0  0  0  0  0  0  0  0
  130.1220  124.2980   60.2190 C   0  0  0  0  0  0  0  0  0  0  0  0
  130.9340  124.5280   61.3880 C   0  0  0  0  0  0  0  0  0  0  0  0
  132.1310  125.1960   61.3400 N   0  0  0  0  0  0  0  0  0  0  0  0
  133.4460  125.5000   65.6900 N   0  0  0  0  0  0  0  0  0  0  0  0
  135.7151  125.6851   68.1095 H   0  0  0  0  0  0  0  0  0  0  0  0
  135.7678  124.7731   66.5629 H   0  0  0  0  0  0  0  0  0  0  0  0
  135.9941  126.5550   66.5629 H   0  0  0  0  0  0  0  0  0  0  0  0
  133.6443  126.7918   68.8382 H   0  0  0  0  0  0  0  0  0  0  0  0
  131.1776  127.0648   68.4444 H   0  0  0  0  0  0  0  0  0  0  0  0
  130.1914  126.3296   66.2595 H   0  0  0  0  0  0  0  0  0  0  0  0
  131.4470  126.0080   63.5800 H   0  0  0  0  0  0  0  0  0  0  0  0
  125.4482  123.9846   58.7166 H   0  0  0  0  0  0  0  0  0  0  0  0
  123.6129  123.2689   57.1995 H   0  0  0  0  0  0  0  0  0  0  0  0
  124.1400  122.0096   55.1181 H   0  0  0  0  0  0  0  0  0  0  0  0
  126.5007  121.4586   54.5493 H   0  0  0  0  0  0  0  0  0  0  0  0
  128.3389  122.1640   56.0668 H   0  0  0  0  0  0  0  0  0  0  0  0
  129.3403  124.4967   56.8972 H   0  0  0  0  0  0  0  0  0  0  0  0
  132.2480  126.1130   61.7490 H   0  0  0  0  0  0  0  0  0  0  0  0
  132.9400  124.7930   60.8890 H   0  0  0  0  0  0  0  0  0  0  0  0
  1  2  1  0
  2  3  2  0
  3  4  1  0
  4  5  2  0
  5  6  1  0
  6  7  1  0
  7  8  1  0
  8  9  2  0
  8 10  1  0
 10 11  1  0
 11 12  1  0
 12 13  2  0
 13 14  1  0
 14 15  1  0
 15 16  2  0
 16 17  1  0
 17 18  2  0
 18 19  1  0
 19 20  2  0
 14 21  2  0
 21 22  1  0
 22 23  1  0
 23 24  1  0
 23 25  1  0
 23 26  1  0
 22 27  2  0
 27 28  1  0
 28 29  1  0
  6 30  2  0
 30  2  1  0
 28 10  2  0
 27 12  1  0
 20 15  1  0
  1 31  1  0
  1 32  1  0
  1 33  1  0
  3 34  1  0
  4 35  1  0
  5 36  1  0
  7 37  1  0
 16 38  1  0
 17 39  1  0
 18 40  1  0
 19 41  1  0
 20 42  1  0
 21 43  1  0
 29 44  1  0
 29 45  1  0
M  END
>  <Binding energies>  (1) 
[-7.97]

>  <Ligand effiencies>  (1) 
[-0.24151515151515152]

>  <Interactions>  (1) 
["V-A:ASP:366:CG:3212, V-A:ASP:366:CB:3211, V-B:PRO:540:N:9855, H-A:TYR:484:OH:4347, V-B:PRO:540:CA:9854, V-B:TYR:539:C:9838, V-B:TYR:539:CE2:9847, V-A:GLY:454:CA:4048, V-B:TYR:539:CG:9843, V-B:MET:535:CE:9806, V-B:TYR:539:CZ:9848, V-B:PRO:540:CB:9856, H-A:GLY:454:N:4049, V-A:GLY:453:C:4041, V-A:ARG:545:CD:4922, V-B:TYR:539:CD1:9844, V-B:PRO:540:CD:9858, V-B:TYR:531:CE2:9764, V-B:LEU:363:CD1:8159, V-A:ARG:545:CZ:4925, V-B:ILE:538:CD1:9836, V-A:ARG:545:CG:4921, V-A:HIS:456:CE1:4069, V-B:ILE:538:CG2:9834, H-A:ASP:366:OD2:3214, V-B:ILE:538:CA:9831, V-A:GLY:453:CA:4043, V-B:TYR:539:CE1:9846, V-B:ILE:538:C:9829, V-B:ILE:538:CB:9833, H-A:ARG:545:NE:4923, H-A:ASP:366:OD1:3213, V-B:MET:535:CG:9804, V-A:ILE:455:C:4051, V-A:ARG:545:CB:4920"]

$$$$
4cf_Grossjean_2025
     RDKit          3D

 42 45  0  0  0  0  0  0  0  0999 V2000
  132.7810  125.9800   62.7540 N   0  0  0  0  0  0  0  0  0  0  0  0
  132.2410  124.8270   63.2620 C   0  0  0  0  0  0  0  0  0  0  0  0
  131.7400  124.7230   64.5700 C   0  0  0  0  0  0  0  0  0  0  0  0
  131.7170  125.7410   65.6230 C   0  0  0  0  0  0  0  0  0  0  0  0
  132.7590  126.0970   66.1740 O   0  0  0  0  0  0  0  0  0  0  0  0
  130.4940  126.2460   65.9170 N   0  0  0  0  0  0  0  0  0  0  0  0
  130.1210  127.1860   66.8960 C   0  0  0  0  0  0  0  0  0  0  0  0
  130.6270  127.2420   68.2090 C   0  0  0  0  0  0  0  0  0  0  0  0
  130.1590  128.2210   69.0880 C   0  0  0  0  0  0  0  0  0  0  0  0
  129.1950  129.1220   68.6330 C   0  0  0  0  0  0  0  0  0  0  0  0
  128.6870  129.0860   67.3760 N   0  0  0  0  0  0  0  0  0  0  0  0
  129.1500  128.1270   66.5330 C   0  0  0  0  0  0  0  0  0  0  0  0
  131.1180  123.1040   64.8860 S   0  0  0  0  0  0  0  0  0  0  0  0
  131.5410  122.5780   63.2730 C   0  0  0  0  0  0  0  0  0  0  0  0
  131.3080  121.3320   62.8650 N   0  0  0  0  0  0  0  0  0  0  0  0
  131.6870  121.0130   61.5990 C   0  0  0  0  0  0  0  0  0  0  0  0
  131.4190  119.6000   61.1700 C   0  0  0  0  0  0  0  0  0  0  0  0
  130.2510  118.9360   61.5750 C   0  0  0  0  0  0  0  0  0  0  0  0
  129.9950  117.6250   61.1810 C   0  0  0  0  0  0  0  0  0  0  0  0
  130.9070  116.9600   60.3690 C   0  0  0  0  0  0  0  0  0  0  0  0
  132.0710  117.5950   59.9490 C   0  0  0  0  0  0  0  0  0  0  0  0
  132.3230  118.9050   60.3460 C   0  0  0  0  0  0  0  0  0  0  0  0
  132.2730  121.9510   60.7440 C   0  0  0  0  0  0  0  0  0  0  0  0
  132.5180  123.2680   61.1630 C   0  0  0  0  0  0  0  0  0  0  0  0
  133.1690  124.2430   60.1750 C   0  0  0  0  0  0  0  0  0  0  0  0
  133.3480  123.7180   58.9610 F   0  0  0  0  0  0  0  0  0  0  0  0
  132.3990  125.3220   60.0330 F   0  0  0  0  0  0  0  0  0  0  0  0
  134.3660  124.6140   60.6290 F   0  0  0  0  0  0  0  0  0  0  0  0
  132.1420  123.6100   62.4940 C   0  0  0  0  0  0  0  0  0  0  0  0
  133.7770  126.0920   62.6220 H   0  0  0  0  0  0  0  0  0  0  0  0
  132.1970  126.7630   62.4910 H   0  0  0  0  0  0  0  0  0  0  0  0
  129.7270  125.9070   65.3540 H   0  0  0  0  0  0  0  0  0  0  0  0
  131.3866  126.5187   68.5403 H   0  0  0  0  0  0  0  0  0  0  0  0
  130.5421  128.2808   70.1174 H   0  0  0  0  0  0  0  0  0  0  0  0
  128.8310  129.8959   69.3248 H   0  0  0  0  0  0  0  0  0  0  0  0
  128.7411  128.0876   65.5126 H   0  0  0  0  0  0  0  0  0  0  0  0
  129.5253  119.4599   62.2145 H   0  0  0  0  0  0  0  0  0  0  0  0
  129.0760  117.1182   61.5105 H   0  0  0  0  0  0  0  0  0  0  0  0
  130.7065  115.9245   60.0566 H   0  0  0  0  0  0  0  0  0  0  0  0
  132.7889  117.0645   59.3062 H   0  0  0  0  0  0  0  0  0  0  0  0
  133.2435  119.4048   60.0102 H   0  0  0  0  0  0  0  0  0  0  0  0
  132.5477  121.6508   59.7220 H   0  0  0  0  0  0  0  0  0  0  0  0
  1  2  1  0
  2  3  2  0
  3  4  1  0
  4  5  2  0
  4  6  1  0
  6  7  1  0
  7  8  2  0
  8  9  1  0
  9 10  2  0
 10 11  1  0
 11 12  2  0
  3 13  1  0
 13 14  1  0
 14 15  2  0
 15 16  1  0
 16 17  1  0
 17 18  2  0
 18 19  1  0
 19 20  2  0
 20 21  1  0
 21 22  2  0
 16 23  2  0
 23 24  1  0
 24 25  1  0
 25 26  1  0
 25 27  1  0
 25 28  1  0
 24 29  2  0
 29  2  1  0
 12  7  1  0
 29 14  1  0
 22 17  1  0
  1 30  1  0
  1 31  1  0
  6 32  1  0
  8 33  1  0
  9 34  1  0
 10 35  1  0
 12 36  1  0
 18 37  1  0
 19 38  1  0
 20 39  1  0
 21 40  1  0
 22 41  1  0
 23 42  1  0
M  END
>  <Binding energies>  (1) 
[-7.71]

>  <Ligand effiencies>  (1) 
[-0.2409375]

>  <Interactions>  (1) 
["V-A:ASP:366:CG:3212, V-A:ASP:366:CB:3211, V-B:GLU:543:CD:9879, H-A:TYR:484:OH:4347, V-B:ALA:541:CB:9863, H-B:GLU:543:OE2:9881, V-B:TYR:539:C:9838, V-A:LEU:475:CD2:4258, V-A:PRO:482:CG:4326, V-A:HIS:383:CE1:3393, V-A:ILE:369:CD1:3238, V-B:TYR:539:CD2:9845, V-A:ILE:369:CG2:3236, V-B:TYR:539:CE2:9847, V-B:TYR:539:CB:9842, V-B:VAL:344:CG1:7971, V-B:TYR:539:CZ:9848, V-A:PRO:482:CB:4325, V-A:ARG:545:CZ:4925, V-A:HIS:456:CE1:4069, V-A:GLU:543:CD:4907, V-B:HIS:456:CE1:9040, V-A:GLU:543:CG:4906, H-A:ASP:366:OD2:3214, V-A:GLU:543:CB:4905, H-A:ARG:545:NE:4923, V-A:TYR:484:CZ:4346, V-A:TYR:484:CE2:4345, H-A:ASP:366:OD1:3213, V-A:ILE:369:CB:3235, V-A:ASP:366:CA:3209, V-A:ILE:369:CG1:3237"]

$$$$
4cg_Grossjean_2025
     RDKit          3D

 46 49  0  0  0  0  0  0  0  0999 V2000
  129.3560  125.5440   63.7870 N   0  0  0  0  0  0  0  0  0  0  0  0
  130.3980  124.6530   63.8340 C   0  0  0  0  0  0  0  0  0  0  0  0
  131.4860  124.7910   64.7080 C   0  0  0  0  0  0  0  0  0  0  0  0
  131.7130  125.8140   65.7280 C   0  0  0  0  0  0  0  0  0  0  0  0
  132.8140  126.3510   65.8650 O   0  0  0  0  0  0  0  0  0  0  0  0
  130.6620  126.0980   66.5260 N   0  0  0  0  0  0  0  0  0  0  0  0
  130.6540  127.0970   67.5920 C   0  0  0  0  0  0  0  0  0  0  0  0
  129.3360  127.1580   68.3570 C   0  0  0  0  0  0  0  0  0  0  0  0
  128.3060  127.9860   67.9010 C   0  0  0  0  0  0  0  0  0  0  0  0
  127.0900  128.0200   68.5780 C   0  0  0  0  0  0  0  0  0  0  0  0
  126.9040  127.2190   69.7030 C   0  0  0  0  0  0  0  0  0  0  0  0
  127.9210  126.3790   70.1520 C   0  0  0  0  0  0  0  0  0  0  0  0
  129.1370  126.3430   69.4750 C   0  0  0  0  0  0  0  0  0  0  0  0
  132.6300  123.4650   64.5220 S   0  0  0  0  0  0  0  0  0  0  0  0
  131.6560  122.7470   63.2600 C   0  0  0  0  0  0  0  0  0  0  0  0
  132.0240  121.6200   62.6570 N   0  0  0  0  0  0  0  0  0  0  0  0
  131.2010  121.1340   61.6900 C   0  0  0  0  0  0  0  0  0  0  0  0
  131.6450  119.8620   61.0270 C   0  0  0  0  0  0  0  0  0  0  0  0
  132.8340  119.8130   60.2810 C   0  0  0  0  0  0  0  0  0  0  0  0
  133.2490  118.6370   59.6640 C   0  0  0  0  0  0  0  0  0  0  0  0
  132.4750  117.4860   59.7810 C   0  0  0  0  0  0  0  0  0  0  0  0
  131.2920  117.5060   60.5110 C   0  0  0  0  0  0  0  0  0  0  0  0
  130.8810  118.6850   61.1260 C   0  0  0  0  0  0  0  0  0  0  0  0
  130.0230  121.7950   61.3230 C   0  0  0  0  0  0  0  0  0  0  0  0
  129.6270  122.9850   61.9530 C   0  0  0  0  0  0  0  0  0  0  0  0
  128.3250  123.6570   61.5010 C   0  0  0  0  0  0  0  0  0  0  0  0
  127.7310  123.0210   60.4890 F   0  0  0  0  0  0  0  0  0  0  0  0
  127.4600  123.6900   62.5150 F   0  0  0  0  0  0  0  0  0  0  0  0
  128.5770  124.9010   61.0970 F   0  0  0  0  0  0  0  0  0  0  0  0
  130.4750  123.4950   62.9780 C   0  0  0  0  0  0  0  0  0  0  0  0
  128.8000  125.6720   62.9530 H   0  0  0  0  0  0  0  0  0  0  0  0
  129.1030  126.0990   64.5920 H   0  0  0  0  0  0  0  0  0  0  0  0
  129.7720  125.6740   66.3090 H   0  0  0  0  0  0  0  0  0  0  0  0
  131.4583  126.8550   68.3023 H   0  0  0  0  0  0  0  0  0  0  0  0
  130.7990  128.0787   67.1173 H   0  0  0  0  0  0  0  0  0  0  0  0
  128.4563  128.6102   67.0078 H   0  0  0  0  0  0  0  0  0  0  0  0
  126.2799  128.6760   68.2266 H   0  0  0  0  0  0  0  0  0  0  0  0
  125.9454  127.2501   70.2416 H   0  0  0  0  0  0  0  0  0  0  0  0
  127.7637  125.7466   71.0382 H   0  0  0  0  0  0  0  0  0  0  0  0
  129.9397  125.6744   69.8193 H   0  0  0  0  0  0  0  0  0  0  0  0
  133.4480  120.7204   60.1828 H   0  0  0  0  0  0  0  0  0  0  0  0
  134.1848  118.6169   59.0862 H   0  0  0  0  0  0  0  0  0  0  0  0
  132.8011  116.5556   59.2932 H   0  0  0  0  0  0  0  0  0  0  0  0
  130.6835  116.5941   60.6021 H   0  0  0  0  0  0  0  0  0  0  0  0
  129.9424  118.6966   61.6995 H   0  0  0  0  0  0  0  0  0  0  0  0
  129.3948  121.3732   60.5246 H   0  0  0  0  0  0  0  0  0  0  0  0
  1  2  1  0
  2  3  2  0
  3  4  1  0
  4  5  2  0
  4  6  1  0
  6  7  1  0
  7  8  1  0
  8  9  2  0
  9 10  1  0
 10 11  2  0
 11 12  1  0
 12 13  2  0
  3 14  1  0
 14 15  1  0
 15 16  2  0
 16 17  1  0
 17 18  1  0
 18 19  2  0
 19 20  1  0
 20 21  2  0
 21 22  1  0
 22 23  2  0
 17 24  2  0
 24 25  1  0
 25 26  1  0
 26 27  1  0
 26 28  1  0
 26 29  1  0
 25 30  2  0
 30  2  1  0
 13  8  1  0
 30 15  1  0
 23 18  1  0
  1 31  1  0
  1 32  1  0
  6 33  1  0
  7 34  1  0
  7 35  1  0
  9 36  1  0
 10 37  1  0
 11 38  1  0
 12 39  1  0
 13 40  1  0
 19 41  1  0
 20 42  1  0
 21 43  1  0
 22 44  1  0
 23 45  1  0
 24 46  1  0
M  END
>  <Binding energies>  (1) 
[-8.28]

>  <Ligand effiencies>  (1) 
[-0.2509090909090909]

>  <Interactions>  (1) 
["V-B:GLU:543:CD:9879, H-A:TYR:484:OH:4347, V-B:PRO:540:CA:9854, H-B:GLU:543:OE2:9881, H-B:GLU:543:OE1:9880, V-A:LEU:475:CD2:4258, V-A:HIS:383:CE1:3393, V-B:TYR:539:CD2:9845, V-A:ILE:369:CG2:3236, V-B:TYR:539:CE2:9847, V-A:SER:385:CA:3406, V-A:GLY:454:CA:4048, V-A:HIS:456:CE1:4069, V-B:GLU:543:CB:9877, V-A:GLU:543:CD:4907, V-B:HIS:456:CE1:9040, V-B:GLU:543:C:9873, H-A:ARG:545:NH2:4927, H-A:ARG:545:NE:4923, V-A:LEU:373:CD2:3280, V-A:VAL:384:C:3396"]

$$$$
4ch_Grossjean_2025
     RDKit          3D

 58 61  0  0  0  0  0  0  0  0999 V2000
  128.0660  129.9910   64.9740 C   0  0  0  0  0  0  0  0  0  0  0  0
  127.5340  129.6810   66.2580 O   0  0  0  0  0  0  0  0  0  0  0  0
  128.1080  128.6680   67.0030 C   0  0  0  0  0  0  0  0  0  0  0  0
  129.4170  128.1980   66.8100 C   0  0  0  0  0  0  0  0  0  0  0  0
  129.9330  127.1700   67.6020 C   0  0  0  0  0  0  0  0  0  0  0  0
  131.3460  126.6540   67.3590 C   0  0  0  0  0  0  0  0  0  0  0  0
  131.4580  125.7060   66.2500 N   0  0  0  0  0  0  0  0  0  0  0  0
  132.5960  125.3940   65.5960 C   0  0  0  0  0  0  0  0  0  0  0  0
  133.6890  125.8750   65.9020 O   0  0  0  0  0  0  0  0  0  0  0  0
  132.4680  124.4150   64.5170 C   0  0  0  0  0  0  0  0  0  0  0  0
  131.8310  122.8080   64.8540 S   0  0  0  0  0  0  0  0  0  0  0  0
  131.9770  122.3500   63.1740 C   0  0  0  0  0  0  0  0  0  0  0  0
  131.6300  121.1370   62.7520 N   0  0  0  0  0  0  0  0  0  0  0  0
  131.7730  120.8740   61.4270 C   0  0  0  0  0  0  0  0  0  0  0  0
  131.3780  119.4940   60.9840 C   0  0  0  0  0  0  0  0  0  0  0  0
  132.1430  118.7980   60.0340 C   0  0  0  0  0  0  0  0  0  0  0  0
  131.7810  117.5190   59.6180 C   0  0  0  0  0  0  0  0  0  0  0  0
  130.6460  116.9160   60.1480 C   0  0  0  0  0  0  0  0  0  0  0  0
  129.8690  117.5850   61.0880 C   0  0  0  0  0  0  0  0  0  0  0  0
  130.2320  118.8640   61.4990 C   0  0  0  0  0  0  0  0  0  0  0  0
  132.2810  121.8250   60.5360 C   0  0  0  0  0  0  0  0  0  0  0  0
  132.6520  123.1080   60.9710 C   0  0  0  0  0  0  0  0  0  0  0  0
  133.2020  124.1020   59.9410 C   0  0  0  0  0  0  0  0  0  0  0  0
  134.4120  124.5680   60.2570 F   0  0  0  0  0  0  0  0  0  0  0  0
  133.2990  123.5120   58.7510 F   0  0  0  0  0  0  0  0  0  0  0  0
  132.3840  125.1500   59.8460 F   0  0  0  0  0  0  0  0  0  0  0  0
  132.4940  123.3980   62.3560 C   0  0  0  0  0  0  0  0  0  0  0  0
  132.7540  124.5730   63.1520 C   0  0  0  0  0  0  0  0  0  0  0  0
  133.2480  125.7370   62.6200 N   0  0  0  0  0  0  0  0  0  0  0  0
  129.1310  126.5920   68.5860 C   0  0  0  0  0  0  0  0  0  0  0  0
  127.8180  127.0410   68.8000 C   0  0  0  0  0  0  0  0  0  0  0  0
  126.9690  126.5150   69.7570 O   0  0  0  0  0  0  0  0  0  0  0  0
  127.4080  126.4270   71.1090 C   0  0  0  0  0  0  0  0  0  0  0  0
  127.3210  128.0840   68.0050 C   0  0  0  0  0  0  0  0  0  0  0  0
  126.0330  128.5230   68.1940 O   0  0  0  0  0  0  0  0  0  0  0  0
  125.1830  128.3230   67.0720 C   0  0  0  0  0  0  0  0  0  0  0  0
  129.0109  130.5416   65.0918 H   0  0  0  0  0  0  0  0  0  0  0  0
  128.2512  129.0594   64.4192 H   0  0  0  0  0  0  0  0  0  0  0  0
  127.3468  130.6114   64.4192 H   0  0  0  0  0  0  0  0  0  0  0  0
  130.0442  128.6453   66.0248 H   0  0  0  0  0  0  0  0  0  0  0  0
  131.9950  127.5154   67.1428 H   0  0  0  0  0  0  0  0  0  0  0  0
  131.6443  126.1119   68.2684 H   0  0  0  0  0  0  0  0  0  0  0  0
  130.5900  125.3150   65.9120 H   0  0  0  0  0  0  0  0  0  0  0  0
  133.0422  119.2704   59.6118 H   0  0  0  0  0  0  0  0  0  0  0  0
  132.3911  116.9878   58.8726 H   0  0  0  0  0  0  0  0  0  0  0  0
  130.3609  115.9047   59.8224 H   0  0  0  0  0  0  0  0  0  0  0  0
  128.9713  117.1050   61.5048 H   0  0  0  0  0  0  0  0  0  0  0  0
  129.6118  119.3907   62.2392 H   0  0  0  0  0  0  0  0  0  0  0  0
  132.3922  121.5629   59.4735 H   0  0  0  0  0  0  0  0  0  0  0  0
  134.2400  125.9250   62.5740 H   0  0  0  0  0  0  0  0  0  0  0  0
  132.6330  126.4470   62.2490 H   0  0  0  0  0  0  0  0  0  0  0  0
  129.5323  125.7739   69.2022 H   0  0  0  0  0  0  0  0  0  0  0  0
  126.5557  126.5978   71.7831 H   0  0  0  0  0  0  0  0  0  0  0  0
  127.8271  125.4270   71.2941 H   0  0  0  0  0  0  0  0  0  0  0  0
  128.1802  127.1882   71.2941 H   0  0  0  0  0  0  0  0  0  0  0  0
  124.1671  128.0840   67.4196 H   0  0  0  0  0  0  0  0  0  0  0  0
  125.1564  129.2394   66.4642 H   0  0  0  0  0  0  0  0  0  0  0  0
  125.5678  127.4909   66.4642 H   0  0  0  0  0  0  0  0  0  0  0  0
  1  2  1  0
  2  3  1  0
  3  4  2  0
  4  5  1  0
  5  6  1  0
  6  7  1  0
  7  8  1  0
  8  9  2  0
  8 10  1  0
 10 11  1  0
 11 12  1  0
 12 13  2  0
 13 14  1  0
 14 15  1  0
 15 16  2  0
 16 17  1  0
 17 18  2  0
 18 19  1  0
 19 20  2  0
 14 21  2  0
 21 22  1  0
 22 23  1  0
 23 24  1  0
 23 25  1  0
 23 26  1  0
 22 27  2  0
 27 28  1  0
 28 29  1  0
  5 30  2  0
 30 31  1  0
 31 32  1  0
 32 33  1  0
 31 34  2  0
 34 35  1  0
 35 36  1  0
 34  3  1  0
 28 10  2  0
 27 12  1  0
 20 15  1  0
  1 37  1  0
  1 38  1  0
  1 39  1  0
  4 40  1  0
  6 41  1  0
  6 42  1  0
  7 43  1  0
 16 44  1  0
 17 45  1  0
 18 46  1  0
 19 47  1  0
 20 48  1  0
 21 49  1  0
 29 50  1  0
 29 51  1  0
 30 52  1  0
 33 53  1  0
 33 54  1  0
 33 55  1  0
 36 56  1  0
 36 57  1  0
 36 58  1  0
M  END
>  <Binding energies>  (1) 
[-7.93]

>  <Ligand effiencies>  (1) 
[-0.20333333333333334]

>  <Interactions>  (1) 
["V-A:ASP:366:CG:3212, V-A:ASP:366:CB:3211, V-B:GLU:543:CD:9879, H-A:TYR:484:OH:4347, V-B:ALA:541:CB:9863, H-B:GLU:543:OE2:9881, V-B:TYR:539:C:9838, V-A:LEU:475:CD2:4258, V-A:PRO:482:CG:4326, V-A:HIS:383:CE1:3393, V-A:ILE:369:CD1:3238, V-B:TYR:539:CD2:9845, V-A:ILE:369:CG2:3236, V-B:TYR:539:CE2:9847, V-B:TYR:539:CB:9842, V-A:GLY:454:CA:4048, V-B:VAL:344:CG1:7971, V-B:TYR:539:CG:9843, V-B:TYR:539:CZ:9848, V-A:PRO:482:CB:4325, V-B:GLU:543:CG:9878, H-A:GLY:454:N:4049, V-A:ARG:545:CZ:4925, V-A:HIS:456:CE1:4069, V-B:GLU:543:CB:9877, V-A:GLU:543:CD:4907, V-B:HIS:456:CE1:9040, V-B:ARG:545:CD:9894, V-B:GLU:543:C:9873, V-A:GLU:543:CG:4906, V-B:ARG:545:CG:9893, H-A:ASP:366:OD2:3214, V-A:GLU:543:CB:4905, H-A:ARG:545:NE:4923, H-B:TYR:484:OH:9318, V-A:TYR:484:CZ:4346, V-B:GLY:544:C:9883, H-A:ASP:366:OD1:3213, V-A:ILE:369:CB:3235, V-B:ARG:545:CZ:9897, V-A:ASP:366:CA:3209, V-A:ILE:369:CG1:3237"]

$$$$
4ci_Grossjean_2025
     RDKit          3D

 39 42  0  0  0  0  0  0  0  0999 V2000
  128.8160  124.2540   63.8770 N   0  0  0  0  0  0  0  0  0  0  0  0
  129.2500  123.9120   62.6220 C   0  0  0  0  0  0  0  0  0  0  0  0
  130.6050  123.7370   62.2980 C   0  0  0  0  0  0  0  0  0  0  0  0
  131.7760  123.8600   63.1700 C   0  0  0  0  0  0  0  0  0  0  0  0
  132.6140  122.9570   63.2310 O   0  0  0  0  0  0  0  0  0  0  0  0
  131.8500  125.0080   63.8900 N   0  0  0  0  0  0  0  0  0  0  0  0
  132.8410  125.3800   64.7890 C   0  0  0  0  0  0  0  0  0  0  0  0
  132.5700  125.8150   66.0860 C   0  0  0  0  0  0  0  0  0  0  0  0
  133.8000  126.0830   66.6390 C   0  0  0  0  0  0  0  0  0  0  0  0
  134.7640  125.8220   65.7230 O   0  0  0  0  0  0  0  0  0  0  0  0
  134.1420  125.3780   64.5540 N   0  0  0  0  0  0  0  0  0  0  0  0
  130.8020  123.2920   60.6050 S   0  0  0  0  0  0  0  0  0  0  0  0
  129.0750  123.3510   60.3410 C   0  0  0  0  0  0  0  0  0  0  0  0
  128.5440  123.0870   59.1490 N   0  0  0  0  0  0  0  0  0  0  0  0
  127.1920  123.1550   59.0420 C   0  0  0  0  0  0  0  0  0  0  0  0
  126.6230  122.8570   57.6840 C   0  0  0  0  0  0  0  0  0  0  0  0
  127.4410  122.3690   56.6510 C   0  0  0  0  0  0  0  0  0  0  0  0
  126.9190  122.0900   55.3910 C   0  0  0  0  0  0  0  0  0  0  0  0
  125.5660  122.2970   55.1440 C   0  0  0  0  0  0  0  0  0  0  0  0
  124.7340  122.7830   56.1450 C   0  0  0  0  0  0  0  0  0  0  0  0
  125.2600  123.0630   57.4040 C   0  0  0  0  0  0  0  0  0  0  0  0
  126.3820  123.5050   60.1270 C   0  0  0  0  0  0  0  0  0  0  0  0
  126.9320  123.7850   61.3890 C   0  0  0  0  0  0  0  0  0  0  0  0
  125.9850  124.1620   62.5340 C   0  0  0  0  0  0  0  0  0  0  0  0
  126.2140  123.4700   63.6520 F   0  0  0  0  0  0  0  0  0  0  0  0
  126.1280  125.4540   62.8290 F   0  0  0  0  0  0  0  0  0  0  0  0
  124.7230  123.9300   62.1710 F   0  0  0  0  0  0  0  0  0  0  0  0
  128.3480  123.7040   61.5150 C   0  0  0  0  0  0  0  0  0  0  0  0
  128.5500  123.5580   64.5590 H   0  0  0  0  0  0  0  0  0  0  0  0
  128.7540  125.2210   64.1660 H   0  0  0  0  0  0  0  0  0  0  0  0
  131.1030  125.6750   63.7680 H   0  0  0  0  0  0  0  0  0  0  0  0
  131.5848  125.9209   66.5636 H   0  0  0  0  0  0  0  0  0  0  0  0
  133.9737  126.4504   67.6612 H   0  0  0  0  0  0  0  0  0  0  0  0
  128.5119  122.2047   56.8411 H   0  0  0  0  0  0  0  0  0  0  0  0
  127.5738  121.7075   54.5942 H   0  0  0  0  0  0  0  0  0  0  0  0
  125.1519  122.0745   54.1495 H   0  0  0  0  0  0  0  0  0  0  0  0
  123.6648  122.9459   55.9442 H   0  0  0  0  0  0  0  0  0  0  0  0
  124.5986  123.4516   58.1923 H   0  0  0  0  0  0  0  0  0  0  0  0
  125.2921  123.5622   59.9895 H   0  0  0  0  0  0  0  0  0  0  0  0
  1  2  1  0
  2  3  2  0
  3  4  1  0
  4  5  2  0
  4  6  1  0
  6  7  1  0
  7  8  1  0
  8  9  2  0
  9 10  1  0
 10 11  1  0
  3 12  1  0
 12 13  1  0
 13 14  2  0
 14 15  1  0
 15 16  1  0
 16 17  2  0
 17 18  1  0
 18 19  2  0
 19 20  1  0
 20 21  2  0
 15 22  2  0
 22 23  1  0
 23 24  1  0
 24 25  1  0
 24 26  1  0
 24 27  1  0
 23 28  2  0
 28  2  1  0
 11  7  2  0
 28 13  1  0
 21 16  1  0
  1 29  1  0
  1 30  1  0
  6 31  1  0
  8 32  1  0
  9 33  1  0
 17 34  1  0
 18 35  1  0
 19 36  1  0
 20 37  1  0
 21 38  1  0
 22 39  1  0
M  END
>  <Binding energies>  (1) 
[-7.69]

>  <Ligand effiencies>  (1) 
[-0.24806451612903227]

>  <Interactions>  (1) 
["V-B:GLU:543:CD:9879, V-B:PRO:540:N:9855, V-B:PRO:540:CA:9854, H-B:GLU:543:OE2:9881, V-B:ALA:541:CA:9861, H-B:GLU:543:OE1:9880, V-B:TYR:539:C:9838, V-B:TYR:539:CD2:9845, V-B:TYR:539:CE2:9847, V-B:TYR:539:CG:9843, V-B:MET:535:CE:9806, V-B:GLU:543:CG:9878, V-B:ALA:541:C:9859, V-B:PRO:540:CB:9856, H-A:GLY:454:N:4049, V-B:TYR:539:CA:9840, V-A:ARG:545:CD:4922, V-B:TYR:539:CD1:9844, V-B:TYR:531:CZ:9765, V-B:PRO:540:CD:9858, V-B:TYR:531:CE2:9764, V-B:LEU:363:CD1:8159, V-A:ARG:545:CZ:4925, V-B:ILE:538:CD1:9836, V-A:ARG:545:CG:4921, V-B:ILE:538:CG2:9834, H-A:ARG:545:NH1:4926, H-A:ARG:545:NH2:4927, V-B:ILE:538:CA:9831, V-B:TYR:539:CE1:9846, V-B:ILE:538:CG1:9835, V-B:ILE:538:C:9829, V-B:ILE:538:CB:9833, H-A:ARG:545:NE:4923, V-B:MET:535:CG:9804, V-B:ARG:545:CZ:9897"]

$$$$
4cj_Grossjean_2025
     RDKit          3D

 39 42  0  0  0  0  0  0  0  0999 V2000
  132.1190  125.3670   61.2480 N   0  0  0  0  0  0  0  0  0  0  0  0
  130.9750  124.6150   61.3260 C   0  0  0  0  0  0  0  0  0  0  0  0
  130.5130  124.0390   62.5210 C   0  0  0  0  0  0  0  0  0  0  0  0
  131.1040  124.1140   63.8600 C   0  0  0  0  0  0  0  0  0  0  0  0
  130.8810  123.2370   64.6980 O   0  0  0  0  0  0  0  0  0  0  0  0
  131.8820  125.2000   64.0930 N   0  0  0  0  0  0  0  0  0  0  0  0
  132.5530  125.5080   65.2680 C   0  0  0  0  0  0  0  0  0  0  0  0
  133.8300  125.3340   65.5380 N   0  0  0  0  0  0  0  0  0  0  0  0
  134.1280  125.7430   66.7550 C   0  0  0  0  0  0  0  0  0  0  0  0
  133.0770  126.2650   67.5040 C   0  0  0  0  0  0  0  0  0  0  0  0
  131.6230  126.2140   66.5510 S   0  0  0  0  0  0  0  0  0  0  0  0
  129.0110  123.1540   62.2630 S   0  0  0  0  0  0  0  0  0  0  0  0
  129.0150  123.5570   60.5620 C   0  0  0  0  0  0  0  0  0  0  0  0
  128.0460  123.1440   59.7490 N   0  0  0  0  0  0  0  0  0  0  0  0
  128.1290  123.5130   58.4450 C   0  0  0  0  0  0  0  0  0  0  0  0
  127.0130  123.0420   57.5570 C   0  0  0  0  0  0  0  0  0  0  0  0
  127.2850  122.4510   56.3130 C   0  0  0  0  0  0  0  0  0  0  0  0
  126.2540  122.0170   55.4830 C   0  0  0  0  0  0  0  0  0  0  0  0
  124.9320  122.1710   55.8860 C   0  0  0  0  0  0  0  0  0  0  0  0
  124.6350  122.7550   57.1120 C   0  0  0  0  0  0  0  0  0  0  0  0
  125.6680  123.1860   57.9400 C   0  0  0  0  0  0  0  0  0  0  0  0
  129.1970  124.2740   57.9590 C   0  0  0  0  0  0  0  0  0  0  0  0
  130.2260  124.7130   58.8070 C   0  0  0  0  0  0  0  0  0  0  0  0
  131.3650  125.5470   58.2100 C   0  0  0  0  0  0  0  0  0  0  0  0
  131.4650  126.7630   58.7510 F   0  0  0  0  0  0  0  0  0  0  0  0
  132.5280  124.9260   58.4060 F   0  0  0  0  0  0  0  0  0  0  0  0
  131.1690  125.7080   56.9010 F   0  0  0  0  0  0  0  0  0  0  0  0
  130.1390  124.3480   60.1810 C   0  0  0  0  0  0  0  0  0  0  0  0
  132.1010  126.3760   61.2920 H   0  0  0  0  0  0  0  0  0  0  0  0
  133.0270  124.9330   61.1480 H   0  0  0  0  0  0  0  0  0  0  0  0
  131.9840  125.8680   63.3420 H   0  0  0  0  0  0  0  0  0  0  0  0
  135.1499  125.6757   67.1564 H   0  0  0  0  0  0  0  0  0  0  0  0
  133.1538  126.6478   68.5324 H   0  0  0  0  0  0  0  0  0  0  0  0
  128.3289  122.3287   55.9886 H   0  0  0  0  0  0  0  0  0  0  0  0
  126.4847  121.5541   54.5122 H   0  0  0  0  0  0  0  0  0  0  0  0
  124.1170  121.8289   55.2312 H   0  0  0  0  0  0  0  0  0  0  0  0
  123.5880  122.8761   57.4267 H   0  0  0  0  0  0  0  0  0  0  0  0
  125.4279  123.6467   58.9096 H   0  0  0  0  0  0  0  0  0  0  0  0
  129.2314  124.5338   56.8907 H   0  0  0  0  0  0  0  0  0  0  0  0
  1  2  1  0
  2  3  2  0
  3  4  1  0
  4  5  2  0
  4  6  1  0
  6  7  1  0
  7  8  2  0
  8  9  1  0
  9 10  2  0
 10 11  1  0
  3 12  1  0
 12 13  1  0
 13 14  2  0
 14 15  1  0
 15 16  1  0
 16 17  2  0
 17 18  1  0
 18 19  2  0
 19 20  1  0
 20 21  2  0
 15 22  2  0
 22 23  1  0
 23 24  1  0
 24 25  1  0
 24 26  1  0
 24 27  1  0
 23 28  2  0
 28  2  1  0
 11  7  1  0
 28 13  1  0
 21 16  1  0
  1 29  1  0
  1 30  1  0
  6 31  1  0
  9 32  1  0
 10 33  1  0
 17 34  1  0
 18 35  1  0
 19 36  1  0
 20 37  1  0
 21 38  1  0
 22 39  1  0
M  END
>  <Binding energies>  (1) 
[-7.6]

>  <Ligand effiencies>  (1) 
[-0.24516129032258063]

>  <Interactions>  (1) 
["V-A:ASP:366:CG:3212, V-A:ASP:366:CB:3211, V-B:PRO:540:N:9855, H-A:TYR:484:OH:4347, V-B:PRO:540:CA:9854, V-B:TYR:539:C:9838, V-B:TYR:539:CE2:9847, V-B:TYR:539:CG:9843, V-B:MET:535:CE:9806, V-B:TYR:539:CZ:9848, V-B:PRO:540:CB:9856, H-A:GLY:454:N:4049, V-A:ARG:545:CD:4922, V-B:TYR:539:CD1:9844, V-B:PRO:540:CD:9858, V-B:TYR:531:CE2:9764, V-B:LEU:363:CD1:8159, V-A:ARG:545:CZ:4925, V-B:ILE:538:CD1:9836, V-A:ARG:545:CG:4921, V-A:HIS:456:CE1:4069, V-B:ILE:538:CG2:9834, H-A:ASP:366:OD2:3214, V-B:ILE:538:CA:9831, V-B:TYR:539:CE1:9846, V-B:ILE:538:C:9829, V-B:ILE:538:CB:9833, H-A:ARG:545:NE:4923, V-A:TYR:484:CZ:4346, H-A:ASP:366:OD1:3213, V-B:MET:535:CG:9804, V-B:PRO:540:CG:9857"]

$$$$
4ck_Grossjean_2025
     RDKit          3D

 57 59  0  0  0  0  0  0  0  0999 V2000
  130.7790  124.5710   74.5910 C   0  0  0  0  0  0  0  0  0  0  0  0
  129.4740  125.1250   74.5320 O   0  0  0  0  0  0  0  0  0  0  0  0
  128.8760  125.0250   73.2470 C   0  0  0  0  0  0  0  0  0  0  0  0
  127.9200  126.2070   73.0450 C   0  0  0  0  0  0  0  0  0  0  0  0
  127.5450  126.2730   71.6760 O   0  0  0  0  0  0  0  0  0  0  0  0
  128.6250  126.5850   70.8070 C   0  0  0  0  0  0  0  0  0  0  0  0
  128.8770  125.3970   69.8700 C   0  0  0  0  0  0  0  0  0  0  0  0
  128.9270  125.8720   68.5320 O   0  0  0  0  0  0  0  0  0  0  0  0
  129.4490  127.1890   68.4090 C   0  0  0  0  0  0  0  0  0  0  0  0
  130.7140  127.1620   67.5360 C   0  0  0  0  0  0  0  0  0  0  0  0
  130.6480  126.1260   66.5040 N   0  0  0  0  0  0  0  0  0  0  0  0
  131.5970  125.8730   65.5790 C   0  0  0  0  0  0  0  0  0  0  0  0
  132.6600  126.4920   65.5280 O   0  0  0  0  0  0  0  0  0  0  0  0
  131.2940  124.7990   64.6320 C   0  0  0  0  0  0  0  0  0  0  0  0
  132.3680  123.4080   64.5010 S   0  0  0  0  0  0  0  0  0  0  0  0
  131.3280  122.6640   63.3080 C   0  0  0  0  0  0  0  0  0  0  0  0
  131.6230  121.4840   62.7700 N   0  0  0  0  0  0  0  0  0  0  0  0
  130.7550  120.9860   61.8500 C   0  0  0  0  0  0  0  0  0  0  0  0
  131.1070  119.6440   61.2750 C   0  0  0  0  0  0  0  0  0  0  0  0
  132.2810  119.4680   60.5250 C   0  0  0  0  0  0  0  0  0  0  0  0
  132.6110  118.2260   59.9870 C   0  0  0  0  0  0  0  0  0  0  0  0
  131.7690  117.1390   60.1920 C   0  0  0  0  0  0  0  0  0  0  0  0
  130.6020  117.2840   60.9350 C   0  0  0  0  0  0  0  0  0  0  0  0
  130.2760  118.5270   61.4730 C   0  0  0  0  0  0  0  0  0  0  0  0
  129.5930  121.6710   61.4830 C   0  0  0  0  0  0  0  0  0  0  0  0
  129.2730  122.9180   62.0440 C   0  0  0  0  0  0  0  0  0  0  0  0
  127.9850  123.6170   61.5930 C   0  0  0  0  0  0  0  0  0  0  0  0
  128.1970  124.8390   61.1030 F   0  0  0  0  0  0  0  0  0  0  0  0
  127.3940  122.9000   60.6380 F   0  0  0  0  0  0  0  0  0  0  0  0
  127.1540  123.7400   62.6290 F   0  0  0  0  0  0  0  0  0  0  0  0
  130.1770  123.4510   63.0080 C   0  0  0  0  0  0  0  0  0  0  0  0
  130.1810  124.6650   63.7880 C   0  0  0  0  0  0  0  0  0  0  0  0
  129.1860  125.6040   63.7050 N   0  0  0  0  0  0  0  0  0  0  0  0
  131.0765  124.4447   75.6424 H   0  0  0  0  0  0  0  0  0  0  0  0
  130.7851  123.5927   74.0881 H   0  0  0  0  0  0  0  0  0  0  0  0
  131.4870  125.2461   74.0881 H   0  0  0  0  0  0  0  0  0  0  0  0
  129.6582  125.0476   72.4739 H   0  0  0  0  0  0  0  0  0  0  0  0
  128.3182  124.0800   73.1704 H   0  0  0  0  0  0  0  0  0  0  0  0
  127.0232  126.0658   73.6662 H   0  0  0  0  0  0  0  0  0  0  0  0
  128.4198  127.1421   73.3378 H   0  0  0  0  0  0  0  0  0  0  0  0
  128.3735  127.4757   70.2125 H   0  0  0  0  0  0  0  0  0  0  0  0
  129.5296  126.7873   71.3992 H   0  0  0  0  0  0  0  0  0  0  0  0
  129.8332  124.9186   70.1285 H   0  0  0  0  0  0  0  0  0  0  0  0
  128.0673  124.6598   69.9750 H   0  0  0  0  0  0  0  0  0  0  0  0
  128.6952  127.8395   67.9415 H   0  0  0  0  0  0  0  0  0  0  0  0
  129.7016  127.5769   69.4069 H   0  0  0  0  0  0  0  0  0  0  0  0
  130.8298  128.1414   67.0487 H   0  0  0  0  0  0  0  0  0  0  0  0
  131.5710  126.9371   68.1878 H   0  0  0  0  0  0  0  0  0  0  0  0
  129.8430  125.5180   66.5380 H   0  0  0  0  0  0  0  0  0  0  0  0
  132.9510  120.3246   60.3596 H   0  0  0  0  0  0  0  0  0  0  0  0
  133.5347  118.1059   59.4019 H   0  0  0  0  0  0  0  0  0  0  0  0
  132.0270  116.1589   59.7643 H   0  0  0  0  0  0  0  0  0  0  0  0
  129.9395  116.4210   61.0970 H   0  0  0  0  0  0  0  0  0  0  0  0
  129.3536  118.6365   62.0622 H   0  0  0  0  0  0  0  0  0  0  0  0
  128.9158  121.2244   60.7400 H   0  0  0  0  0  0  0  0  0  0  0  0
  128.6750  125.7700   62.8490 H   0  0  0  0  0  0  0  0  0  0  0  0
  128.9230  126.1640   64.5060 H   0  0  0  0  0  0  0  0  0  0  0  0
  1  2  1  0
  2  3  1  0
  3  4  1  0
  4  5  1  0
  5  6  1  0
  6  7  1  0
  7  8  1  0
  8  9  1  0
  9 10  1  0
 10 11  1  0
 11 12  1  0
 12 13  2  0
 12 14  1  0
 14 15  1  0
 15 16  1  0
 16 17  2  0
 17 18  1  0
 18 19  1  0
 19 20  2  0
 20 21  1  0
 21 22  2  0
 22 23  1  0
 23 24  2  0
 18 25  2  0
 25 26  1  0
 26 27  1  0
 27 28  1  0
 27 29  1  0
 27 30  1  0
 26 31  2  0
 31 32  1  0
 32 33  1  0
 32 14  2  0
 31 16  1  0
 24 19  1  0
  1 34  1  0
  1 35  1  0
  1 36  1  0
  3 37  1  0
  3 38  1  0
  4 39  1  0
  4 40  1  0
  6 41  1  0
  6 42  1  0
  7 43  1  0
  7 44  1  0
  9 45  1  0
  9 46  1  0
 10 47  1  0
 10 48  1  0
 11 49  1  0
 20 50  1  0
 21 51  1  0
 22 52  1  0
 23 53  1  0
 24 54  1  0
 25 55  1  0
 33 56  1  0
 33 57  1  0
M  END
>  <Binding energies>  (1) 
[-6.82]

>  <Ligand effiencies>  (1) 
[-0.18944444444444444]

>  <Interactions>  (1) 
["V-B:GLU:543:CD:9879, V-B:PRO:540:N:9855, H-A:TYR:484:OH:4347, V-B:ALA:541:CB:9863, V-B:PRO:540:CA:9854, H-B:GLU:543:OE2:9881, V-B:PRO:540:C:9852, H-B:GLU:543:OE1:9880, V-A:LEU:475:CD2:4258, V-A:PRO:482:CG:4326, V-A:HIS:383:CE1:3393, V-B:TYR:539:CD2:9845, V-B:TYR:539:CE2:9847, V-A:GLY:454:CA:4048, V-A:PRO:482:CB:4325, V-B:PRO:540:CB:9856, V-A:HIS:456:CE1:4069, V-B:GLU:543:CB:9877, V-A:GLU:543:CD:4907, V-B:LYS:547:CE:9921, H-B:LYS:547:NZ:9922, V-A:HIS:456:CD2:4067, V-B:GLU:543:C:9873, H-A:ARG:545:NH2:4927, H-A:ARG:545:NE:4923, V-A:TYR:484:CE2:4345, V-B:GLU:543:CA:9875, V-A:HIS:456:CG:4065"]

$$$$
4dd_Grossjean_2025
     RDKit          3D

 43 46  0  0  0  0  0  0  0  0999 V2000
  133.8160  124.2540   60.4590 C   0  0  0  0  0  0  0  0  0  0  0  0
  133.0120  123.3030   61.3310 C   0  0  0  0  0  0  0  0  0  0  0  0
  132.7560  122.0150   60.8430 C   0  0  0  0  0  0  0  0  0  0  0  0
  132.0220  121.0920   61.5980 C   0  0  0  0  0  0  0  0  0  0  0  0
  131.7280  119.7090   61.0970 C   0  0  0  0  0  0  0  0  0  0  0  0
  132.6010  119.0660   60.2040 C   0  0  0  0  0  0  0  0  0  0  0  0
  132.3360  117.7810   59.7380 C   0  0  0  0  0  0  0  0  0  0  0  0
  131.1880  117.1180   60.1590 C   0  0  0  0  0  0  0  0  0  0  0  0
  130.3080  117.7290   61.0450 C   0  0  0  0  0  0  0  0  0  0  0  0
  130.5780  119.0140   61.5100 C   0  0  0  0  0  0  0  0  0  0  0  0
  131.5180  121.4040   62.8230 N   0  0  0  0  0  0  0  0  0  0  0  0
  131.7660  122.6260   63.2920 C   0  0  0  0  0  0  0  0  0  0  0  0
  131.1940  123.1530   64.8590 S   0  0  0  0  0  0  0  0  0  0  0  0
  131.9330  124.7430   64.6460 C   0  0  0  0  0  0  0  0  0  0  0  0
  131.8300  125.7550   65.6990 C   0  0  0  0  0  0  0  0  0  0  0  0
  132.8240  126.0950   66.3420 O   0  0  0  0  0  0  0  0  0  0  0  0
  130.5900  126.2700   65.8900 N   0  0  0  0  0  0  0  0  0  0  0  0
  130.1460  127.2050   66.8420 C   0  0  0  0  0  0  0  0  0  0  0  0
  129.1950  128.1270   66.3940 C   0  0  0  0  0  0  0  0  0  0  0  0
  128.6810  129.0850   67.2640 C   0  0  0  0  0  0  0  0  0  0  0  0
  129.1130  129.1170   68.5870 C   0  0  0  0  0  0  0  0  0  0  0  0
  130.0500  128.1970   69.0500 C   0  0  0  0  0  0  0  0  0  0  0  0
  130.5660  127.2380   68.1820 C   0  0  0  0  0  0  0  0  0  0  0  0
  132.5820  124.8360   63.4050 C   0  0  0  0  0  0  0  0  0  0  0  0
  133.2390  125.9600   62.9700 N   0  0  0  0  0  0  0  0  0  0  0  0
  132.5040  123.6370   62.6130 C   0  0  0  0  0  0  0  0  0  0  0  0
  134.3940  124.9376   61.0982 H   0  0  0  0  0  0  0  0  0  0  0  0
  134.5038  123.6764   59.8239 H   0  0  0  0  0  0  0  0  0  0  0  0
  133.1320  124.8361   59.8239 H   0  0  0  0  0  0  0  0  0  0  0  0
  133.1370  121.7247   59.8528 H   0  0  0  0  0  0  0  0  0  0  0  0
  133.5096  119.5866   59.8671 H   0  0  0  0  0  0  0  0  0  0  0  0
  133.0315  117.2922   59.0399 H   0  0  0  0  0  0  0  0  0  0  0  0
  130.9752  116.1043   59.7887 H   0  0  0  0  0  0  0  0  0  0  0  0
  129.4026  117.2001   61.3773 H   0  0  0  0  0  0  0  0  0  0  0  0
  129.8797  119.4929   62.2121 H   0  0  0  0  0  0  0  0  0  0  0  0
  129.8750  125.9510   65.2540 H   0  0  0  0  0  0  0  0  0  0  0  0
  128.8514  128.0954   65.3495 H   0  0  0  0  0  0  0  0  0  0  0  0
  127.9373  129.8129   66.9077 H   0  0  0  0  0  0  0  0  0  0  0  0
  128.7102  129.8765   69.2733 H   0  0  0  0  0  0  0  0  0  0  0  0
  130.3817  128.2276   70.0984 H   0  0  0  0  0  0  0  0  0  0  0  0
  131.3025  126.5064   68.5457 H   0  0  0  0  0  0  0  0  0  0  0  0
  132.7420  126.7740   62.6360 H   0  0  0  0  0  0  0  0  0  0  0  0
  134.2480  126.0110   62.9730 H   0  0  0  0  0  0  0  0  0  0  0  0
  1  2  1  0
  2  3  2  0
  3  4  1  0
  4  5  1  0
  5  6  2  0
  6  7  1  0
  7  8  2  0
  8  9  1  0
  9 10  2  0
  4 11  2  0
 11 12  1  0
 12 13  1  0
 13 14  1  0
 14 15  1  0
 15 16  2  0
 15 17  1  0
 17 18  1  0
 18 19  2  0
 19 20  1  0
 20 21  2  0
 21 22  1  0
 22 23  2  0
 14 24  2  0
 24 25  1  0
 24 26  1  0
 26  2  1  0
 10  5  1  0
 26 12  2  0
 23 18  1  0
  1 27  1  0
  1 28  1  0
  1 29  1  0
  3 30  1  0
  6 31  1  0
  7 32  1  0
  8 33  1  0
  9 34  1  0
 10 35  1  0
 17 36  1  0
 19 37  1  0
 20 38  1  0
 21 39  1  0
 22 40  1  0
 23 41  1  0
 25 42  1  0
 25 43  1  0
M  END
>  <Binding energies>  (1) 
[-8.77]

>  <Ligand effiencies>  (1) 
[-0.30241379310344824]

>  <Interactions>  (1) 
["V-A:ASP:366:CG:3212, V-A:ASP:366:CB:3211, V-B:GLU:543:CD:9879, H-A:TYR:484:OH:4347, V-B:ALA:541:CB:9863, H-B:GLU:543:OE2:9881, V-A:LEU:475:CD2:4258, V-A:PRO:482:CG:4326, V-A:HIS:383:CE1:3393, V-A:ILE:369:CD1:3238, V-B:TYR:539:CD2:9845, V-A:ILE:369:CG2:3236, V-B:TYR:539:CE2:9847, V-B:TYR:539:CB:9842, V-A:PRO:482:CB:4325, V-A:ARG:545:CZ:4925, V-A:HIS:456:CE1:4069, V-A:GLU:543:CD:4907, V-B:HIS:456:CE1:9040, V-A:GLU:543:CG:4906, H-A:ASP:366:OD2:3214, V-A:GLU:543:CB:4905, H-A:ARG:545:NE:4923, V-A:TYR:484:CZ:4346, H-A:ASP:366:OD1:3213, V-A:ILE:369:CB:3235, V-A:ASP:366:CA:3209"]

$$$$
4dg_Grossjean_2025
     RDKit          3D

 46 49  0  0  0  0  0  0  0  0999 V2000
  133.6540  124.2420   60.5400 C   0  0  0  0  0  0  0  0  0  0  0  0
  132.8110  123.3310   61.4180 C   0  0  0  0  0  0  0  0  0  0  0  0
  132.5430  122.0350   60.9610 C   0  0  0  0  0  0  0  0  0  0  0  0
  131.7730  121.1480   61.7220 C   0  0  0  0  0  0  0  0  0  0  0  0
  131.4710  119.7510   61.2580 C   0  0  0  0  0  0  0  0  0  0  0  0
  132.3600  119.0630   60.4160 C   0  0  0  0  0  0  0  0  0  0  0  0
  132.0820  117.7690   59.9800 C   0  0  0  0  0  0  0  0  0  0  0  0
  130.9080  117.1420   60.3810 C   0  0  0  0  0  0  0  0  0  0  0  0
  130.0070  117.8020   61.2120 C   0  0  0  0  0  0  0  0  0  0  0  0
  130.2880  119.0950   61.6450 C   0  0  0  0  0  0  0  0  0  0  0  0
  131.2700  121.4950   62.9380 N   0  0  0  0  0  0  0  0  0  0  0  0
  131.5230  122.7280   63.3750 C   0  0  0  0  0  0  0  0  0  0  0  0
  130.9310  123.3040   64.9150 S   0  0  0  0  0  0  0  0  0  0  0  0
  131.6880  124.8770   64.6670 C   0  0  0  0  0  0  0  0  0  0  0  0
  131.5250  125.9360   65.6620 C   0  0  0  0  0  0  0  0  0  0  0  0
  132.4430  126.2490   66.4230 O   0  0  0  0  0  0  0  0  0  0  0  0
  130.3060  126.5130   65.7150 N   0  0  0  0  0  0  0  0  0  0  0  0
  129.9230  127.6020   66.6120 C   0  0  0  0  0  0  0  0  0  0  0  0
  129.5390  127.1300   68.0090 C   0  0  0  0  0  0  0  0  0  0  0  0
  129.1650  128.0640   68.9800 C   0  0  0  0  0  0  0  0  0  0  0  0
  128.7830  127.6340   70.2470 C   0  0  0  0  0  0  0  0  0  0  0  0
  128.7660  126.2710   70.5380 C   0  0  0  0  0  0  0  0  0  0  0  0
  129.1210  125.3340   69.5710 C   0  0  0  0  0  0  0  0  0  0  0  0
  129.5020  125.7640   68.3020 C   0  0  0  0  0  0  0  0  0  0  0  0
  132.3500  124.9350   63.4320 C   0  0  0  0  0  0  0  0  0  0  0  0
  133.0140  126.0440   62.9730 N   0  0  0  0  0  0  0  0  0  0  0  0
  132.2810  123.7120   62.6780 C   0  0  0  0  0  0  0  0  0  0  0  0
  134.2641  124.9013   61.1749 H   0  0  0  0  0  0  0  0  0  0  0  0
  134.3131  123.6319   59.9049 H   0  0  0  0  0  0  0  0  0  0  0  0
  132.9947  124.8519   59.9049 H   0  0  0  0  0  0  0  0  0  0  0  0
  132.9435  121.7092   59.9897 H   0  0  0  0  0  0  0  0  0  0  0  0
  133.2909  119.5536   60.0955 H   0  0  0  0  0  0  0  0  0  0  0  0
  132.7895  117.2452   59.3204 H   0  0  0  0  0  0  0  0  0  0  0  0
  130.6898  116.1192   60.0400 H   0  0  0  0  0  0  0  0  0  0  0  0
  129.0774  117.3042   61.5251 H   0  0  0  0  0  0  0  0  0  0  0  0
  129.5727  119.6127   62.3010 H   0  0  0  0  0  0  0  0  0  0  0  0
  129.6290  126.2610   65.0090 H   0  0  0  0  0  0  0  0  0  0  0  0
  130.7718  128.2961   66.6997 H   0  0  0  0  0  0  0  0  0  0  0  0
  129.0348  128.0834   66.1768 H   0  0  0  0  0  0  0  0  0  0  0  0
  129.1728  129.1380   68.7424 H   0  0  0  0  0  0  0  0  0  0  0  0
  128.4957  128.3666   71.0156 H   0  0  0  0  0  0  0  0  0  0  0  0
  128.4692  125.9321   71.5415 H   0  0  0  0  0  0  0  0  0  0  0  0
  129.1007  124.2600   69.8079 H   0  0  0  0  0  0  0  0  0  0  0  0
  129.7737  125.0284   67.5306 H   0  0  0  0  0  0  0  0  0  0  0  0
  134.0220  126.0950   62.9580 H   0  0  0  0  0  0  0  0  0  0  0  0
  132.5110  126.8500   62.6250 H   0  0  0  0  0  0  0  0  0  0  0  0
  1  2  1  0
  2  3  2  0
  3  4  1  0
  4  5  1  0
  5  6  2  0
  6  7  1  0
  7  8  2  0
  8  9  1  0
  9 10  2  0
  4 11  2  0
 11 12  1  0
 12 13  1  0
 13 14  1  0
 14 15  1  0
 15 16  2  0
 15 17  1  0
 17 18  1  0
 18 19  1  0
 19 20  2  0
 20 21  1  0
 21 22  2  0
 22 23  1  0
 23 24  2  0
 14 25  2  0
 25 26  1  0
 25 27  1  0
 27  2  1  0
 10  5  1  0
 27 12  2  0
 24 19  1  0
  1 28  1  0
  1 29  1  0
  1 30  1  0
  3 31  1  0
  6 32  1  0
  7 33  1  0
  8 34  1  0
  9 35  1  0
 10 36  1  0
 17 37  1  0
 18 38  1  0
 18 39  1  0
 20 40  1  0
 21 41  1  0
 22 42  1  0
 23 43  1  0
 24 44  1  0
 26 45  1  0
 26 46  1  0
M  END
>  <Binding energies>  (1) 
[-8.64]

>  <Ligand effiencies>  (1) 
[-0.28800000000000003]

>  <Interactions>  (1) 
["V-A:ASP:366:CG:3212, V-A:ASP:366:CB:3211, V-B:GLU:543:CD:9879, H-A:TYR:484:OH:4347, V-B:ALA:541:CB:9863, H-B:GLU:543:OE2:9881, V-B:TYR:539:C:9838, V-A:LEU:475:CD2:4258, V-A:PRO:482:CG:4326, V-A:HIS:383:CE1:3393, V-A:ILE:369:CD1:3238, V-B:TYR:539:CD2:9845, V-A:ILE:369:CG2:3236, V-B:TYR:539:CE2:9847, V-B:TYR:539:CB:9842, V-A:PRO:482:CB:4325, V-B:GLU:543:CG:9878, V-A:ARG:545:CZ:4925, V-A:HIS:456:CE1:4069, V-B:GLU:543:CB:9877, V-A:GLU:543:CD:4907, V-B:HIS:456:CE1:9040, V-A:HIS:456:CD2:4067, V-B:GLU:543:C:9873, H-A:ASP:366:OD2:3214, H-A:ARG:545:NE:4923, V-A:TYR:484:CZ:4346, V-A:TYR:484:CE2:4345, H-A:ASP:366:OD1:3213, V-B:GLU:543:CA:9875"]

$$$$
4dj_Grossjean_2025
     RDKit          3D

 39 42  0  0  0  0  0  0  0  0999 V2000
  133.9620  124.2110   60.4960 C   0  0  0  0  0  0  0  0  0  0  0  0
  133.1130  123.2810   61.3490 C   0  0  0  0  0  0  0  0  0  0  0  0
  132.8300  122.0040   60.8500 C   0  0  0  0  0  0  0  0  0  0  0  0
  132.0520  121.1010   61.5850 C   0  0  0  0  0  0  0  0  0  0  0  0
  131.7370  119.7220   61.0790 C   0  0  0  0  0  0  0  0  0  0  0  0
  130.5890  119.0400   61.5130 C   0  0  0  0  0  0  0  0  0  0  0  0
  130.2910  117.7620   61.0480 C   0  0  0  0  0  0  0  0  0  0  0  0
  131.1440  117.1420   60.1400 C   0  0  0  0  0  0  0  0  0  0  0  0
  132.2900  117.7920   59.6960 C   0  0  0  0  0  0  0  0  0  0  0  0
  132.5830  119.0700   60.1630 C   0  0  0  0  0  0  0  0  0  0  0  0
  131.5550  121.4140   62.8130 N   0  0  0  0  0  0  0  0  0  0  0  0
  131.8220  122.6300   63.2880 C   0  0  0  0  0  0  0  0  0  0  0  0
  131.2390  123.1660   64.8470 S   0  0  0  0  0  0  0  0  0  0  0  0
  132.0130  124.7400   64.6480 C   0  0  0  0  0  0  0  0  0  0  0  0
  131.8930  125.7610   65.6900 C   0  0  0  0  0  0  0  0  0  0  0  0
  132.8910  126.3500   66.1130 O   0  0  0  0  0  0  0  0  0  0  0  0
  130.6350  125.9890   66.1410 N   0  0  0  0  0  0  0  0  0  0  0  0
  130.2510  126.8950   67.1190 C   0  0  0  0  0  0  0  0  0  0  0  0
  130.5810  126.8980   68.3930 N   0  0  0  0  0  0  0  0  0  0  0  0
  130.0330  127.9120   69.0340 C   0  0  0  0  0  0  0  0  0  0  0  0
  129.2380  128.7630   68.2740 C   0  0  0  0  0  0  0  0  0  0  0  0
  129.2110  128.1950   66.6310 S   0  0  0  0  0  0  0  0  0  0  0  0
  132.6830  124.8210   63.4180 C   0  0  0  0  0  0  0  0  0  0  0  0
  133.3700  125.9320   62.9950 N   0  0  0  0  0  0  0  0  0  0  0  0
  132.5920  123.6270   62.6220 C   0  0  0  0  0  0  0  0  0  0  0  0
  134.5588  124.8648   61.1490 H   0  0  0  0  0  0  0  0  0  0  0  0
  134.6339  123.6149   59.8610 H   0  0  0  0  0  0  0  0  0  0  0  0
  133.3073  124.8260   59.8610 H   0  0  0  0  0  0  0  0  0  0  0  0
  133.2241  121.7059   59.8672 H   0  0  0  0  0  0  0  0  0  0  0  0
  129.9130  119.5241   62.2332 H   0  0  0  0  0  0  0  0  0  0  0  0
  129.3852  117.2446   61.3969 H   0  0  0  0  0  0  0  0  0  0  0  0
  130.9103  116.1322   59.7716 H   0  0  0  0  0  0  0  0  0  0  0  0
  132.9622  117.2984   58.9787 H   0  0  0  0  0  0  0  0  0  0  0  0
  133.4918  119.5792   59.8098 H   0  0  0  0  0  0  0  0  0  0  0  0
  129.8900  125.4440   65.7320 H   0  0  0  0  0  0  0  0  0  0  0  0
  130.1957  128.0754   70.1096 H   0  0  0  0  0  0  0  0  0  0  0  0
  128.7113  129.6519   68.6514 H   0  0  0  0  0  0  0  0  0  0  0  0
  132.8960  126.7710   62.6980 H   0  0  0  0  0  0  0  0  0  0  0  0
  134.3800  125.9440   62.9680 H   0  0  0  0  0  0  0  0  0  0  0  0
  1  2  1  0
  2  3  2  0
  3  4  1  0
  4  5  1  0
  5  6  2  0
  6  7  1  0
  7  8  2  0
  8  9  1  0
  9 10  2  0
  4 11  2  0
 11 12  1  0
 12 13  1  0
 13 14  1  0
 14 15  1  0
 15 16  2  0
 15 17  1  0
 17 18  1  0
 18 19  2  0
 19 20  1  0
 20 21  2  0
 21 22  1  0
 14 23  2  0
 23 24  1  0
 23 25  1  0
 25  2  1  0
 10  5  1  0
 25 12  2  0
 22 18  1  0
  1 26  1  0
  1 27  1  0
  1 28  1  0
  3 29  1  0
  6 30  1  0
  7 31  1  0
  8 32  1  0
  9 33  1  0
 10 34  1  0
 17 35  1  0
 20 36  1  0
 21 37  1  0
 24 38  1  0
 24 39  1  0
M  END
>  <Binding energies>  (1) 
[-8.21]

>  <Ligand effiencies>  (1) 
[-0.29321428571428576]

>  <Interactions>  (1) 
["V-A:ASP:366:CG:3212, V-A:ASP:366:CB:3211, V-B:GLU:543:CD:9879, H-A:TYR:484:OH:4347, V-B:ALA:541:CB:9863, H-B:GLU:543:OE2:9881, V-B:TYR:539:C:9838, V-A:LEU:475:CD2:4258, V-A:PRO:482:CG:4326, V-A:HIS:383:CE1:3393, V-A:ILE:369:CD1:3238, V-B:TYR:539:CD2:9845, V-A:ILE:369:CG2:3236, V-B:TYR:539:CE2:9847, V-B:TYR:539:CB:9842, V-A:PRO:482:CB:4325, V-A:ARG:545:CZ:4925, V-A:HIS:456:CE1:4069, V-A:GLU:543:CD:4907, V-A:GLU:543:CG:4906, H-A:ASP:366:OD2:3214, V-A:GLU:543:CB:4905, H-A:ARG:545:NH2:4927, H-A:ARG:545:NE:4923, V-A:TYR:484:CZ:4346, H-A:ASP:366:OD1:3213, V-A:ILE:369:CB:3235, V-A:ASP:366:CA:3209, V-A:ILE:369:CG1:3237"]

$$$$
4ea_Grossjean_2025
     RDKit          3D

 52 55  0  0  0  0  0  0  0  0999 V2000
  124.1700  124.6400   57.7590 C   0  0  0  0  0  0  0  0  0  0  0  0
  124.6260  123.2960   57.1810 C   0  0  0  0  0  0  0  0  0  0  0  0
  125.7490  123.5030   56.3350 O   0  0  0  0  0  0  0  0  0  0  0  0
  126.9050  122.8160   56.5220 C   0  0  0  0  0  0  0  0  0  0  0  0
  127.3230  121.9620   55.7330 O   0  0  0  0  0  0  0  0  0  0  0  0
  127.6240  123.1970   57.7830 C   0  0  0  0  0  0  0  0  0  0  0  0
  128.7630  124.0090   57.7010 C   0  0  0  0  0  0  0  0  0  0  0  0
  129.4520  124.3810   58.8520 C   0  0  0  0  0  0  0  0  0  0  0  0
  129.0190  123.9500   60.1070 C   0  0  0  0  0  0  0  0  0  0  0  0
  129.7940  124.3870   61.1990 N   0  0  0  0  0  0  0  0  0  0  0  0
  130.6290  125.4490   61.3140 C   0  0  0  0  0  0  0  0  0  0  0  0
  130.8560  126.2540   60.4110 O   0  0  0  0  0  0  0  0  0  0  0  0
  131.2760  125.5950   62.6210 C   0  0  0  0  0  0  0  0  0  0  0  0
  132.9700  125.1470   62.8350 S   0  0  0  0  0  0  0  0  0  0  0  0
  132.9260  125.5970   64.5230 C   0  0  0  0  0  0  0  0  0  0  0  0
  133.9970  125.4830   65.3110 N   0  0  0  0  0  0  0  0  0  0  0  0
  133.8310  125.8660   66.6010 C   0  0  0  0  0  0  0  0  0  0  0  0
  135.0610  125.7280   67.4790 C   0  0  0  0  0  0  0  0  0  0  0  0
  132.6330  126.3560   67.1160 C   0  0  0  0  0  0  0  0  0  0  0  0
  131.5130  126.4740   66.2870 C   0  0  0  0  0  0  0  0  0  0  0  0
  130.2470  126.9960   66.8480 C   0  0  0  0  0  0  0  0  0  0  0  0
  129.7200  126.4490   68.0230 C   0  0  0  0  0  0  0  0  0  0  0  0
  128.5310  126.9410   68.5530 C   0  0  0  0  0  0  0  0  0  0  0  0
  127.8650  127.9790   67.9060 C   0  0  0  0  0  0  0  0  0  0  0  0
  128.3780  128.5290   66.7330 C   0  0  0  0  0  0  0  0  0  0  0  0
  129.5680  128.0350   66.2040 C   0  0  0  0  0  0  0  0  0  0  0  0
  131.6450  126.0820   64.9260 C   0  0  0  0  0  0  0  0  0  0  0  0
  130.7220  126.0700   63.8200 C   0  0  0  0  0  0  0  0  0  0  0  0
  129.4230  126.4900   63.9480 N   0  0  0  0  0  0  0  0  0  0  0  0
  127.8790  123.1360   60.1980 C   0  0  0  0  0  0  0  0  0  0  0  0
  127.1920  122.7650   59.0460 C   0  0  0  0  0  0  0  0  0  0  0  0
  124.1866  124.5911   58.8578 H   0  0  0  0  0  0  0  0  0  0  0  0
  124.8486  125.4354   57.4171 H   0  0  0  0  0  0  0  0  0  0  0  0
  123.1475  124.8582   57.4171 H   0  0  0  0  0  0  0  0  0  0  0  0
  124.9047  122.6190   58.0020 H   0  0  0  0  0  0  0  0  0  0  0  0
  123.8059  122.8484   56.6004 H   0  0  0  0  0  0  0  0  0  0  0  0
  129.1158  124.3556   56.7185 H   0  0  0  0  0  0  0  0  0  0  0  0
  130.3443  125.0193   58.7719 H   0  0  0  0  0  0  0  0  0  0  0  0
  129.7030  123.8100   62.0210 H   0  0  0  0  0  0  0  0  0  0  0  0
  134.7619  125.7616   68.5370 H   0  0  0  0  0  0  0  0  0  0  0  0
  135.5562  124.7687   67.2682 H   0  0  0  0  0  0  0  0  0  0  0  0
  135.7565  126.5537   67.2682 H   0  0  0  0  0  0  0  0  0  0  0  0
  132.5680  126.6499   68.1740 H   0  0  0  0  0  0  0  0  0  0  0  0
  130.2473  125.6272   68.5296 H   0  0  0  0  0  0  0  0  0  0  0  0
  128.1192  126.5121   69.4785 H   0  0  0  0  0  0  0  0  0  0  0  0
  126.9253  128.3683   68.3249 H   0  0  0  0  0  0  0  0  0  0  0  0
  127.8462  129.3486   66.2277 H   0  0  0  0  0  0  0  0  0  0  0  0
  129.9751  128.4637   65.2764 H   0  0  0  0  0  0  0  0  0  0  0  0
  129.1030  127.3630   63.5510 H   0  0  0  0  0  0  0  0  0  0  0  0
  128.7380  125.9370   64.4450 H   0  0  0  0  0  0  0  0  0  0  0  0
  127.5280  122.7907   61.1817 H   0  0  0  0  0  0  0  0  0  0  0  0
  126.3003  122.1259   59.1266 H   0  0  0  0  0  0  0  0  0  0  0  0
  1  2  1  0
  2  3  1  0
  3  4  1  0
  4  5  2  0
  4  6  1  0
  6  7  2  0
  7  8  1  0
  8  9  2  0
  9 10  1  0
 10 11  1  0
 11 12  2  0
 11 13  1  0
 13 14  1  0
 14 15  1  0
 15 16  2  0
 16 17  1  0
 17 18  1  0
 17 19  2  0
 19 20  1  0
 20 21  1  0
 21 22  2  0
 22 23  1  0
 23 24  2  0
 24 25  1  0
 25 26  2  0
 20 27  2  0
 27 28  1  0
 28 29  1  0
  9 30  1  0
 30 31  2  0
 31  6  1  0
 28 13  2  0
 27 15  1  0
 26 21  1  0
  1 32  1  0
  1 33  1  0
  1 34  1  0
  2 35  1  0
  2 36  1  0
  7 37  1  0
  8 38  1  0
 10 39  1  0
 18 40  1  0
 18 41  1  0
 18 42  1  0
 19 43  1  0
 22 44  1  0
 23 45  1  0
 24 46  1  0
 25 47  1  0
 26 48  1  0
 29 49  1  0
 29 50  1  0
 30 51  1  0
 31 52  1  0
M  END
>  <Binding energies>  (1) 
[-9.15]

>  <Ligand effiencies>  (1) 
[-0.2691176470588235]

>  <Interactions>  (1) 
["V-A:ASP:366:CG:3212, V-B:GLU:543:CD:9879, V-B:PRO:540:N:9855, H-A:TYR:484:OH:4347, V-B:PRO:540:CA:9854, H-B:GLU:543:OE2:9881, H-B:GLU:543:OE1:9880, V-B:TYR:539:C:9838, V-B:TYR:539:CE2:9847, H-B:TYR:539:N:9841, V-B:MET:535:CE:9806, V-B:TYR:539:CZ:9848, V-B:PRO:540:CB:9856, H-A:GLY:454:N:4049, V-A:GLY:453:C:4041, V-A:ARG:545:CD:4922, V-B:TYR:531:CZ:9765, V-B:TYR:531:CE2:9764, V-B:LEU:363:CD1:8159, V-A:ARG:545:CZ:4925, V-A:ARG:545:CG:4921, V-A:HIS:456:CE1:4069, V-B:GLU:543:CB:9877, V-A:GLU:543:CD:4907, V-A:GLU:543:CG:4906, H-A:ARG:545:NH1:4926, H-A:ARG:545:NH2:4927, V-A:GLY:453:CA:4043, H-A:ARG:545:NE:4923, V-B:ASP:366:CB:8182, H-B:TYR:531:OH:9766, V-A:ILE:455:C:4051, V-A:ARG:545:CB:4920"]

$$$$
4eb_Grossjean_2025
     RDKit          3D

 49 52  0  0  0  0  0  0  0  0999 V2000
  124.6150  123.6160   57.5410 C   0  0  0  0  0  0  0  0  0  0  0  0
  125.5010  123.4760   56.4390 O   0  0  0  0  0  0  0  0  0  0  0  0
  126.7140  122.8830   56.5900 C   0  0  0  0  0  0  0  0  0  0  0  0
  127.1310  121.9910   55.8470 O   0  0  0  0  0  0  0  0  0  0  0  0
  127.4980  123.4240   57.7510 C   0  0  0  0  0  0  0  0  0  0  0  0
  128.0050  122.5330   58.7070 C   0  0  0  0  0  0  0  0  0  0  0  0
  128.7350  123.0030   59.7950 C   0  0  0  0  0  0  0  0  0  0  0  0
  128.9740  124.3690   59.9510 C   0  0  0  0  0  0  0  0  0  0  0  0
  129.7230  124.7280   61.0880 N   0  0  0  0  0  0  0  0  0  0  0  0
  130.4530  125.8420   61.3420 C   0  0  0  0  0  0  0  0  0  0  0  0
  130.5810  126.7820   60.5570 O   0  0  0  0  0  0  0  0  0  0  0  0
  131.1090  125.8740   62.6520 C   0  0  0  0  0  0  0  0  0  0  0  0
  132.7850  125.3470   62.8240 S   0  0  0  0  0  0  0  0  0  0  0  0
  132.7650  125.6830   64.5400 C   0  0  0  0  0  0  0  0  0  0  0  0
  133.8330  125.4740   65.3120 N   0  0  0  0  0  0  0  0  0  0  0  0
  133.6870  125.7740   66.6250 C   0  0  0  0  0  0  0  0  0  0  0  0
  134.9150  125.5290   67.4840 C   0  0  0  0  0  0  0  0  0  0  0  0
  132.5110  126.2730   67.1800 C   0  0  0  0  0  0  0  0  0  0  0  0
  131.3930  126.4900   66.3670 C   0  0  0  0  0  0  0  0  0  0  0  0
  130.1500  127.0210   66.9720 C   0  0  0  0  0  0  0  0  0  0  0  0
  129.5140  128.1320   66.4100 C   0  0  0  0  0  0  0  0  0  0  0  0
  128.3440  128.6310   66.9770 C   0  0  0  0  0  0  0  0  0  0  0  0
  127.8110  128.0190   68.1090 C   0  0  0  0  0  0  0  0  0  0  0  0
  128.4390  126.9130   68.6780 C   0  0  0  0  0  0  0  0  0  0  0  0
  129.6090  126.4160   68.1100 C   0  0  0  0  0  0  0  0  0  0  0  0
  131.5050  126.1880   64.9830 C   0  0  0  0  0  0  0  0  0  0  0  0
  130.5800  126.2870   63.8850 C   0  0  0  0  0  0  0  0  0  0  0  0
  129.2970  126.7460   64.0480 N   0  0  0  0  0  0  0  0  0  0  0  0
  128.4700  125.2680   58.9990 C   0  0  0  0  0  0  0  0  0  0  0  0
  127.7400  124.7970   57.9110 C   0  0  0  0  0  0  0  0  0  0  0  0
  125.1808  123.5266   58.4801 H   0  0  0  0  0  0  0  0  0  0  0  0
  124.1293  124.6020   57.4980 H   0  0  0  0  0  0  0  0  0  0  0  0
  123.8490  122.8278   57.4980 H   0  0  0  0  0  0  0  0  0  0  0  0
  127.8245  121.4535   58.5965 H   0  0  0  0  0  0  0  0  0  0  0  0
  129.1265  122.2922   60.5376 H   0  0  0  0  0  0  0  0  0  0  0  0
  129.7070  124.0390   61.8240 H   0  0  0  0  0  0  0  0  0  0  0  0
  134.6362  125.5846   68.5466 H   0  0  0  0  0  0  0  0  0  0  0  0
  135.3235  124.5317   67.2638 H   0  0  0  0  0  0  0  0  0  0  0  0
  135.6749  126.2932   67.2638 H   0  0  0  0  0  0  0  0  0  0  0  0
  132.4612  126.4962   68.2560 H   0  0  0  0  0  0  0  0  0  0  0  0
  129.9391  128.6135   65.5170 H   0  0  0  0  0  0  0  0  0  0  0  0
  127.8433  129.5041   66.5331 H   0  0  0  0  0  0  0  0  0  0  0  0
  126.8867  128.4121   68.5575 H   0  0  0  0  0  0  0  0  0  0  0  0
  128.0123  126.4346   69.5719 H   0  0  0  0  0  0  0  0  0  0  0  0
  130.1091  125.5447   68.5581 H   0  0  0  0  0  0  0  0  0  0  0  0
  128.8470  127.3210   63.3500 H   0  0  0  0  0  0  0  0  0  0  0  0
  128.7580  126.5240   64.8740 H   0  0  0  0  0  0  0  0  0  0  0  0
  128.6519  126.3469   59.1124 H   0  0  0  0  0  0  0  0  0  0  0  0
  127.3488  125.5086   57.1690 H   0  0  0  0  0  0  0  0  0  0  0  0
  1  2  1  0
  2  3  1  0
  3  4  2  0
  3  5  1  0
  5  6  2  0
  6  7  1  0
  7  8  2  0
  8  9  1  0
  9 10  1  0
 10 11  2  0
 10 12  1  0
 12 13  1  0
 13 14  1  0
 14 15  2  0
 15 16  1  0
 16 17  1  0
 16 18  2  0
 18 19  1  0
 19 20  1  0
 20 21  2  0
 21 22  1  0
 22 23  2  0
 23 24  1  0
 24 25  2  0
 19 26  2  0
 26 27  1  0
 27 28  1  0
  8 29  1  0
 29 30  2  0
 30  5  1  0
 27 12  2  0
 26 14  1  0
 25 20  1  0
  1 31  1  0
  1 32  1  0
  1 33  1  0
  6 34  1  0
  7 35  1  0
  9 36  1  0
 17 37  1  0
 17 38  1  0
 17 39  1  0
 18 40  1  0
 21 41  1  0
 22 42  1  0
 23 43  1  0
 24 44  1  0
 25 45  1  0
 28 46  1  0
 28 47  1  0
 29 48  1  0
 30 49  1  0
M  END
>  <Binding energies>  (1) 
[-8.92]

>  <Ligand effiencies>  (1) 
[-0.2703030303030303]

>  <Interactions>  (1) 
["V-A:ASP:366:CG:3212, V-B:GLU:543:CD:9879, V-B:PRO:540:N:9855, H-A:TYR:484:OH:4347, V-B:PRO:540:CA:9854, H-B:GLU:543:OE2:9881, H-B:GLU:543:OE1:9880, V-B:TYR:539:C:9838, V-B:TYR:539:CD2:9845, V-B:TYR:539:CE2:9847, V-A:GLY:454:CA:4048, H-B:TYR:539:N:9841, V-B:TYR:539:CG:9843, V-B:MET:535:CE:9806, V-B:PRO:540:CB:9856, H-A:GLY:454:N:4049, V-A:GLY:453:C:4041, V-A:ARG:545:CD:4922, V-B:TYR:531:CE2:9764, V-B:LEU:363:CD1:8159, V-A:ARG:545:CZ:4925, V-A:ARG:545:CG:4921, V-A:HIS:456:CE1:4069, V-B:GLU:543:CB:9877, V-A:GLU:543:CD:4907, V-A:GLU:543:CG:4906, H-A:ARG:545:NH2:4927, V-A:GLY:453:CA:4043, H-A:ARG:545:NE:4923, V-A:TYR:484:CZ:4346, H-B:TYR:531:OH:9766, V-A:ILE:455:C:4051, V-A:ARG:545:CB:4920, V-A:GLY:454:C:4046"]

$$$$
8a_Ghoteimi_2023
     RDKit          3D

 67 71  0  0  0  0  0  0  0  0999 V2000
  128.7540  133.1120   54.0900 C   0  0  0  0  0  0  0  0  0  0  0  0
  129.4360  132.5980   55.3620 C   0  0  0  0  0  0  0  0  0  0  0  0
  130.2580  133.6230   55.9050 O   0  0  0  0  0  0  0  0  0  0  0  0
  131.3650  133.3210   56.6330 C   0  0  0  0  0  0  0  0  0  0  0  0
  132.5140  133.5740   56.2580 O   0  0  0  0  0  0  0  0  0  0  0  0
  131.0520  132.6460   57.9370 C   0  0  0  0  0  0  0  0  0  0  0  0
  131.5840  131.3760   58.1930 C   0  0  0  0  0  0  0  0  0  0  0  0
  131.3120  130.7230   59.3920 C   0  0  0  0  0  0  0  0  0  0  0  0
  130.5030  131.3230   60.3580 C   0  0  0  0  0  0  0  0  0  0  0  0
  130.2920  130.5670   61.5290 N   0  0  0  0  0  0  0  0  0  0  0  0
  129.2020  129.8750   61.9410 C   0  0  0  0  0  0  0  0  0  0  0  0
  128.1490  129.7980   61.3090 O   0  0  0  0  0  0  0  0  0  0  0  0
  129.3480  129.1890   63.2290 C   0  0  0  0  0  0  0  0  0  0  0  0
  128.4830  129.7710   64.6510 S   0  0  0  0  0  0  0  0  0  0  0  0
  129.1760  128.5100   65.6450 C   0  0  0  0  0  0  0  0  0  0  0  0
  128.9040  128.4160   66.9470 N   0  0  0  0  0  0  0  0  0  0  0  0
  129.4990  127.4020   67.6290 C   0  0  0  0  0  0  0  0  0  0  0  0
  129.1960  127.3270   69.0910 C   0  0  0  0  0  0  0  0  0  0  0  0
  128.4340  126.2750   69.6190 C   0  0  0  0  0  0  0  0  0  0  0  0
  128.1450  126.2180   70.9800 C   0  0  0  0  0  0  0  0  0  0  0  0
  128.6110  127.2050   71.8460 C   0  0  0  0  0  0  0  0  0  0  0  0
  128.2740  127.0670   73.1790 O   0  0  0  0  0  0  0  0  0  0  0  0
  126.9190  127.2520   73.5740 C   0  0  0  0  0  0  0  0  0  0  0  0
  129.3790  128.2580   71.3290 C   0  0  0  0  0  0  0  0  0  0  0  0
  129.6640  128.3150   69.9660 C   0  0  0  0  0  0  0  0  0  0  0  0
  130.3530  126.4870   67.0100 C   0  0  0  0  0  0  0  0  0  0  0  0
  130.6280  126.5720   65.6410 C   0  0  0  0  0  0  0  0  0  0  0  0
  131.5180  125.5530   65.0270 C   0  0  0  0  0  0  0  0  0  0  0  0
  131.0790  124.2370   64.8750 C   0  0  0  0  0  0  0  0  0  0  0  0
  131.9020  123.2840   64.2810 C   0  0  0  0  0  0  0  0  0  0  0  0
  133.1750  123.6310   63.8260 C   0  0  0  0  0  0  0  0  0  0  0  0
  133.9200  122.6200   63.2500 O   0  0  0  0  0  0  0  0  0  0  0  0
  133.2850  121.7070   62.3630 C   0  0  0  0  0  0  0  0  0  0  0  0
  133.6150  124.9550   63.9710 C   0  0  0  0  0  0  0  0  0  0  0  0
  132.7890  125.9070   64.5640 C   0  0  0  0  0  0  0  0  0  0  0  0
  130.0340  127.6390   64.9110 C   0  0  0  0  0  0  0  0  0  0  0  0
  130.1280  128.0630   63.5360 C   0  0  0  0  0  0  0  0  0  0  0  0
  130.9260  127.4240   62.6210 N   0  0  0  0  0  0  0  0  0  0  0  0
  129.9700  132.5970   60.1120 C   0  0  0  0  0  0  0  0  0  0  0  0
  130.2430  133.2490   58.9120 C   0  0  0  0  0  0  0  0  0  0  0  0
  127.9032  133.7532   54.3637 H   0  0  0  0  0  0  0  0  0  0  0  0
  129.4752  133.6931   53.4965 H   0  0  0  0  0  0  0  0  0  0  0  0
  128.3940  132.2586   53.4965 H   0  0  0  0  0  0  0  0  0  0  0  0
  128.6708  132.3125   56.0988 H   0  0  0  0  0  0  0  0  0  0  0  0
  130.0547  131.7217   55.1184 H   0  0  0  0  0  0  0  0  0  0  0  0
  132.2223  130.8903   57.4402 H   0  0  0  0  0  0  0  0  0  0  0  0
  131.7381  129.7263   59.5795 H   0  0  0  0  0  0  0  0  0  0  0  0
  131.0900  130.5350   62.1450 H   0  0  0  0  0  0  0  0  0  0  0  0
  128.0602  125.4856   68.9504 H   0  0  0  0  0  0  0  0  0  0  0  0
  127.5433  125.3862   71.3750 H   0  0  0  0  0  0  0  0  0  0  0  0
  126.8551  127.2607   74.6721 H   0  0  0  0  0  0  0  0  0  0  0  0
  126.5489  128.2090   73.1776 H   0  0  0  0  0  0  0  0  0  0  0  0
  126.3059  126.4292   73.1776 H   0  0  0  0  0  0  0  0  0  0  0  0
  129.7578  129.0418   72.0015 H   0  0  0  0  0  0  0  0  0  0  0  0
  130.2650  129.1478   69.5720 H   0  0  0  0  0  0  0  0  0  0  0  0
  130.8162  125.6879   67.6074 H   0  0  0  0  0  0  0  0  0  0  0  0
  130.0767  123.9510   65.2266 H   0  0  0  0  0  0  0  0  0  0  0  0
  131.5461  122.2492   64.1694 H   0  0  0  0  0  0  0  0  0  0  0  0
  132.7521  120.9408   62.9452 H   0  0  0  0  0  0  0  0  0  0  0  0
  132.5686  122.2499   61.7290 H   0  0  0  0  0  0  0  0  0  0  0  0
  134.0433  121.2243   61.7290 H   0  0  0  0  0  0  0  0  0  0  0  0
  134.6155  125.2424   63.6153 H   0  0  0  0  0  0  0  0  0  0  0  0
  133.1390  126.9445   64.6688 H   0  0  0  0  0  0  0  0  0  0  0  0
  130.7010  126.4990   62.2810 H   0  0  0  0  0  0  0  0  0  0  0  0
  131.7610  127.8540   62.2520 H   0  0  0  0  0  0  0  0  0  0  0  0
  129.3353  133.0820   60.8683 H   0  0  0  0  0  0  0  0  0  0  0  0
  129.8199  134.2473   58.7266 H   0  0  0  0  0  0  0  0  0  0  0  0
  1  2  1  0
  2  3  1  0
  3  4  1  0
  4  5  2  0
  4  6  1  0
  6  7  2  0
  7  8  1  0
  8  9  2  0
  9 10  1  0
 10 11  1  0
 11 12  2  0
 11 13  1  0
 13 14  1  0
 14 15  1  0
 15 16  2  0
 16 17  1  0
 17 18  1  0
 18 19  2  0
 19 20  1  0
 20 21  2  0
 21 22  1  0
 22 23  1  0
 21 24  1  0
 24 25  2  0
 17 26  2  0
 26 27  1  0
 27 28  1  0
 28 29  2  0
 29 30  1  0
 30 31  2  0
 31 32  1  0
 32 33  1  0
 31 34  1  0
 34 35  2  0
 27 36  2  0
 36 37  1  0
 37 38  1  0
  9 39  1  0
 39 40  2  0
 40  6  1  0
 37 13  2  0
 36 15  1  0
 25 18  1  0
 35 28  1  0
  1 41  1  0
  1 42  1  0
  1 43  1  0
  2 44  1  0
  2 45  1  0
  7 46  1  0
  8 47  1  0
 10 48  1  0
 19 49  1  0
 20 50  1  0
 23 51  1  0
 23 52  1  0
 23 53  1  0
 24 54  1  0
 25 55  1  0
 26 56  1  0
 29 57  1  0
 30 58  1  0
 33 59  1  0
 33 60  1  0
 33 61  1  0
 34 62  1  0
 35 63  1  0
 38 64  1  0
 38 65  1  0
 39 66  1  0
 40 67  1  0
M  END
>  <Binding energies>  (1) 
[-9.17]

>  <Ligand effiencies>  (1) 
[-0.21325581395348836]

>  <Interactions>  (1) 
["V-A:TYR:539:CZ:4876, V-A:TYR:539:CE1:4874, H-A:GLU:543:OE2:4909, V-A:TYR:539:CE2:4875, V-A:PRO:540:CA:4882, V-B:GLU:543:CD:9879, V-A:LEU:475:CD2:4258, V-A:GLY:454:CA:4048, H-A:GLY:454:N:4049, V-A:ARG:545:CZ:4925, V-A:HIS:456:CE1:4069, V-B:GLU:543:CB:9877, V-A:GLU:543:CD:4907, V-B:HIS:456:CE1:9040, V-B:LYS:547:CE:9921, V-B:GLU:543:C:9873, V-A:GLU:543:CG:4906, H-A:ASP:366:OD2:3214, V-B:GLY:544:C:9883, V-A:PRO:540:N:4883, V-A:MET:535:CG:4832, V-A:PRO:540:CD:4886, H-A:TYR:539:N:4869, V-A:TYR:539:C:4866, V-A:MET:535:CB:4831, V-B:HIS:456:CD2:9038, V-B:HIS:456:CG:9036"]

$$$$
8b_Ghoteimi_2023
     RDKit          3D

 54 58  0  0  0  0  0  0  0  0999 V2000
  124.2120  132.3700   63.3910 C   0  0  0  0  0  0  0  0  0  0  0  0
  124.4580  131.3290   64.3300 O   0  0  0  0  0  0  0  0  0  0  0  0
  125.0480  130.1570   63.8960 C   0  0  0  0  0  0  0  0  0  0  0  0
  124.6680  129.6980   62.6370 C   0  0  0  0  0  0  0  0  0  0  0  0
  125.2090  128.5250   62.1180 C   0  0  0  0  0  0  0  0  0  0  0  0
  126.1460  127.7800   62.8480 C   0  0  0  0  0  0  0  0  0  0  0  0
  126.7290  126.5180   62.2960 C   0  0  0  0  0  0  0  0  0  0  0  0
  126.3330  126.0020   61.0580 C   0  0  0  0  0  0  0  0  0  0  0  0
  126.8940  124.8210   60.5640 C   0  0  0  0  0  0  0  0  0  0  0  0
  126.4440  124.2970   59.2530 C   0  0  0  0  0  0  0  0  0  0  0  0
  127.3640  124.0990   58.2230 C   0  0  0  0  0  0  0  0  0  0  0  0
  126.9420  123.5970   56.9950 C   0  0  0  0  0  0  0  0  0  0  0  0
  125.5980  123.2890   56.7780 C   0  0  0  0  0  0  0  0  0  0  0  0
  125.2700  122.7950   55.5300 O   0  0  0  0  0  0  0  0  0  0  0  0
  126.2590  122.1000   54.7770 C   0  0  0  0  0  0  0  0  0  0  0  0
  124.6740  123.4940   57.8150 C   0  0  0  0  0  0  0  0  0  0  0  0
  125.0980  123.9950   59.0430 C   0  0  0  0  0  0  0  0  0  0  0  0
  127.8800  124.1690   61.3520 C   0  0  0  0  0  0  0  0  0  0  0  0
  128.6510  122.9690   61.1540 C   0  0  0  0  0  0  0  0  0  0  0  0
  128.5240  122.1910   60.0320 N   0  0  0  0  0  0  0  0  0  0  0  0
  129.5340  122.6820   62.2070 C   0  0  0  0  0  0  0  0  0  0  0  0
  130.4630  121.5570   62.3360 C   0  0  0  0  0  0  0  0  0  0  0  0
  131.4250  121.6200   63.1050 O   0  0  0  0  0  0  0  0  0  0  0  0
  130.1820  120.4790   61.5600 N   0  0  0  0  0  0  0  0  0  0  0  0
  130.8870  119.2850   61.4860 C   0  0  0  0  0  0  0  0  0  0  0  0
  130.2680  118.0360   61.4780 C   0  0  0  0  0  0  0  0  0  0  0  0
  131.2980  117.1260   61.4000 C   0  0  0  0  0  0  0  0  0  0  0  0
  132.4760  117.7930   61.3600 O   0  0  0  0  0  0  0  0  0  0  0  0
  132.2020  119.1610   61.4140 N   0  0  0  0  0  0  0  0  0  0  0  0
  129.4300  123.9020   63.4770 S   0  0  0  0  0  0  0  0  0  0  0  0
  128.2090  124.7860   62.5930 C   0  0  0  0  0  0  0  0  0  0  0  0
  127.6730  125.9110   63.0650 N   0  0  0  0  0  0  0  0  0  0  0  0
  126.5260  128.2480   64.1130 C   0  0  0  0  0  0  0  0  0  0  0  0
  125.9860  129.4210   64.6350 C   0  0  0  0  0  0  0  0  0  0  0  0
  123.9913  133.3040   63.9285 H   0  0  0  0  0  0  0  0  0  0  0  0
  125.1014  132.5118   62.7594 H   0  0  0  0  0  0  0  0  0  0  0  0
  123.3532  132.0987   62.7594 H   0  0  0  0  0  0  0  0  0  0  0  0
  123.9341  130.2673   62.0477 H   0  0  0  0  0  0  0  0  0  0  0  0
  124.8972  128.1780   61.1218 H   0  0  0  0  0  0  0  0  0  0  0  0
  125.5716  126.5315   60.4665 H   0  0  0  0  0  0  0  0  0  0  0  0
  128.4255  124.3401   58.3816 H   0  0  0  0  0  0  0  0  0  0  0  0
  127.6740  123.4417   56.1888 H   0  0  0  0  0  0  0  0  0  0  0  0
  126.9623  121.6058   55.4634 H   0  0  0  0  0  0  0  0  0  0  0  0
  125.7729  121.3439   54.1430 H   0  0  0  0  0  0  0  0  0  0  0  0
  126.8057  122.8135   54.1430 H   0  0  0  0  0  0  0  0  0  0  0  0
  123.6113  123.2580   57.6568 H   0  0  0  0  0  0  0  0  0  0  0  0
  124.3687  124.1534   59.8511 H   0  0  0  0  0  0  0  0  0  0  0  0
  129.2470  122.1620   59.3270 H   0  0  0  0  0  0  0  0  0  0  0  0
  127.7040  121.6240   59.8690 H   0  0  0  0  0  0  0  0  0  0  0  0
  129.3680  120.5400   60.9680 H   0  0  0  0  0  0  0  0  0  0  0  0
  129.1897  117.8235   61.5241 H   0  0  0  0  0  0  0  0  0  0  0  0
  131.1827  116.0324   61.3743 H   0  0  0  0  0  0  0  0  0  0  0  0
  127.2615  127.6807   64.7023 H   0  0  0  0  0  0  0  0  0  0  0  0
  126.2962  129.7715   65.6304 H   0  0  0  0  0  0  0  0  0  0  0  0
  1  2  1  0
  2  3  1  0
  3  4  2  0
  4  5  1  0
  5  6  2  0
  6  7  1  0
  7  8  2  0
  8  9  1  0
  9 10  1  0
 10 11  2  0
 11 12  1  0
 12 13  2  0
 13 14  1  0
 14 15  1  0
 13 16  1  0
 16 17  2  0
  9 18  2  0
 18 19  1  0
 19 20  1  0
 19 21  2  0
 21 22  1  0
 22 23  2  0
 22 24  1  0
 24 25  1  0
 25 26  1  0
 26 27  2  0
 27 28  1  0
 28 29  1  0
 21 30  1  0
 30 31  1  0
 31 32  2  0
  6 33  1  0
 33 34  2  0
 34  3  1  0
 32  7  1  0
 17 10  1  0
 31 18  1  0
 29 25  2  0
  1 35  1  0
  1 36  1  0
  1 37  1  0
  4 38  1  0
  5 39  1  0
  8 40  1  0
 11 41  1  0
 12 42  1  0
 15 43  1  0
 15 44  1  0
 15 45  1  0
 16 46  1  0
 17 47  1  0
 20 48  1  0
 20 49  1  0
 24 50  1  0
 26 51  1  0
 27 52  1  0
 33 53  1  0
 34 54  1  0
M  END
>  <Binding energies>  (1) 
[-7.83]

>  <Ligand effiencies>  (1) 
[-0.21162162162162163]

>  <Interactions>  (1) 
["V-B:GLU:543:CD:9879, V-B:PRO:540:N:9855, V-B:ALA:541:CB:9863, V-B:PRO:540:CA:9854, V-B:TYR:539:C:9838, V-A:LEU:475:CD2:4258, V-A:PRO:482:CG:4326, V-A:HIS:383:CE1:3393, H-B:TYR:539:O:9839, V-B:TYR:539:CD2:9845, V-B:TYR:539:CE2:9847, V-B:MET:535:CE:9806, V-A:PRO:482:CB:4325, V-B:PRO:540:CB:9856, V-B:TYR:531:CZ:9765, V-B:TYR:531:CE2:9764, V-B:LEU:363:CD1:8159, V-B:ILE:538:CD1:9836, V-B:ILE:538:CG2:9834, V-B:ILE:538:CA:9831, V-B:ILE:538:CG1:9835, V-B:ILE:538:C:9829, V-B:ILE:538:CB:9833, H-B:TYR:531:OH:9766, V-B:ASP:366:CG:8183, V-B:MET:535:CG:9804, V-B:VAL:537:C:9821, V-B:ARG:545:CZ:9897, V-B:LEU:475:CD1:9228, V-B:GLY:454:CA:9019, H-B:GLY:454:N:9020"]

$$$$
8c_Ghoteimi_2023
     RDKit          3D

 54 58  0  0  0  0  0  0  0  0999 V2000
  124.3490  132.5330   63.5800 C   0  0  0  0  0  0  0  0  0  0  0  0
  124.5060  131.4440   64.4830 O   0  0  0  0  0  0  0  0  0  0  0  0
  125.0740  130.2680   64.0290 C   0  0  0  0  0  0  0  0  0  0  0  0
  124.6520  129.8140   62.7810 C   0  0  0  0  0  0  0  0  0  0  0  0
  125.1670  128.6370   62.2460 C   0  0  0  0  0  0  0  0  0  0  0  0
  126.1200  127.8840   62.9460 C   0  0  0  0  0  0  0  0  0  0  0  0
  126.6760  126.6160   62.3770 C   0  0  0  0  0  0  0  0  0  0  0  0
  126.2660  126.1240   61.1340 C   0  0  0  0  0  0  0  0  0  0  0  0
  126.8040  124.9370   60.6240 C   0  0  0  0  0  0  0  0  0  0  0  0
  126.3420  124.4390   59.3090 C   0  0  0  0  0  0  0  0  0  0  0  0
  127.2440  124.3100   58.2490 C   0  0  0  0  0  0  0  0  0  0  0  0
  126.8100  123.8320   57.0170 C   0  0  0  0  0  0  0  0  0  0  0  0
  125.4740  123.4800   56.8220 C   0  0  0  0  0  0  0  0  0  0  0  0
  125.1350  123.0130   55.5660 O   0  0  0  0  0  0  0  0  0  0  0  0
  126.1170  122.3380   54.7880 C   0  0  0  0  0  0  0  0  0  0  0  0
  124.5690  123.6140   57.8860 C   0  0  0  0  0  0  0  0  0  0  0  0
  125.0030  124.0910   59.1200 C   0  0  0  0  0  0  0  0  0  0  0  0
  127.7770  124.2560   61.4030 C   0  0  0  0  0  0  0  0  0  0  0  0
  128.5210  123.0430   61.1900 C   0  0  0  0  0  0  0  0  0  0  0  0
  128.3750  122.2790   60.0600 N   0  0  0  0  0  0  0  0  0  0  0  0
  129.3990  122.7230   62.2380 C   0  0  0  0  0  0  0  0  0  0  0  0
  130.3030  121.5760   62.3530 C   0  0  0  0  0  0  0  0  0  0  0  0
  131.2760  121.6140   63.1090 O   0  0  0  0  0  0  0  0  0  0  0  0
  129.9880  120.5080   61.5790 N   0  0  0  0  0  0  0  0  0  0  0  0
  130.6730  119.3040   61.5020 C   0  0  0  0  0  0  0  0  0  0  0  0
  130.2300  118.1020   61.8020 N   0  0  0  0  0  0  0  0  0  0  0  0
  131.1530  117.1820   61.6050 C   0  0  0  0  0  0  0  0  0  0  0  0
  132.3820  117.6340   61.1340 C   0  0  0  0  0  0  0  0  0  0  0  0
  132.3140  119.3600   60.9430 S   0  0  0  0  0  0  0  0  0  0  0  0
  129.3250  123.9310   63.5220 S   0  0  0  0  0  0  0  0  0  0  0  0
  128.1210  124.8520   62.6510 C   0  0  0  0  0  0  0  0  0  0  0  0
  127.6090  125.9810   63.1380 N   0  0  0  0  0  0  0  0  0  0  0  0
  126.5420  128.3490   64.1990 C   0  0  0  0  0  0  0  0  0  0  0  0
  126.0280  129.5250   64.7370 C   0  0  0  0  0  0  0  0  0  0  0  0
  124.2147  133.4647   64.1491 H   0  0  0  0  0  0  0  0  0  0  0  0
  125.2445  132.6161   62.9465 H   0  0  0  0  0  0  0  0  0  0  0  0
  123.4665  132.3598   62.9465 H   0  0  0  0  0  0  0  0  0  0  0  0
  123.9060  130.3904   62.2143 H   0  0  0  0  0  0  0  0  0  0  0  0
  124.8214  128.2927   61.2601 H   0  0  0  0  0  0  0  0  0  0  0  0
  125.5133  126.6753   60.5514 H   0  0  0  0  0  0  0  0  0  0  0  0
  128.2992  124.5871   58.3894 H   0  0  0  0  0  0  0  0  0  0  0  0
  127.5267  123.7305   56.1887 H   0  0  0  0  0  0  0  0  0  0  0  0
  126.8372  121.8429   55.4559 H   0  0  0  0  0  0  0  0  0  0  0  0
  125.6276  121.5845   54.1533 H   0  0  0  0  0  0  0  0  0  0  0  0
  126.6452  123.0648   54.1533 H   0  0  0  0  0  0  0  0  0  0  0  0
  123.5128  123.3412   57.7446 H   0  0  0  0  0  0  0  0  0  0  0  0
  124.2880  124.1941   59.9495 H   0  0  0  0  0  0  0  0  0  0  0  0
  127.9590  121.3580   60.0960 H   0  0  0  0  0  0  0  0  0  0  0  0
  128.6790  122.6070   59.1540 H   0  0  0  0  0  0  0  0  0  0  0  0
  129.1670  120.5840   60.9970 H   0  0  0  0  0  0  0  0  0  0  0  0
  130.9626  116.1166   61.8018 H   0  0  0  0  0  0  0  0  0  0  0  0
  133.2553  117.0011   60.9176 H   0  0  0  0  0  0  0  0  0  0  0  0
  127.2906  127.7759   64.7656 H   0  0  0  0  0  0  0  0  0  0  0  0
  126.3721  129.8728   65.7222 H   0  0  0  0  0  0  0  0  0  0  0  0
  1  2  1  0
  2  3  1  0
  3  4  2  0
  4  5  1  0
  5  6  2  0
  6  7  1  0
  7  8  2  0
  8  9  1  0
  9 10  1  0
 10 11  2  0
 11 12  1  0
 12 13  2  0
 13 14  1  0
 14 15  1  0
 13 16  1  0
 16 17  2  0
  9 18  2  0
 18 19  1  0
 19 20  1  0
 19 21  2  0
 21 22  1  0
 22 23  2  0
 22 24  1  0
 24 25  1  0
 25 26  2  0
 26 27  1  0
 27 28  2  0
 28 29  1  0
 21 30  1  0
 30 31  1  0
 31 32  2  0
  6 33  1  0
 33 34  2  0
 34  3  1  0
 32  7  1  0
 17 10  1  0
 31 18  1  0
 29 25  1  0
  1 35  1  0
  1 36  1  0
  1 37  1  0
  4 38  1  0
  5 39  1  0
  8 40  1  0
 11 41  1  0
 12 42  1  0
 15 43  1  0
 15 44  1  0
 15 45  1  0
 16 46  1  0
 17 47  1  0
 20 48  1  0
 20 49  1  0
 24 50  1  0
 27 51  1  0
 28 52  1  0
 33 53  1  0
 34 54  1  0
M  END
>  <Binding energies>  (1) 
[-8.25]

>  <Ligand effiencies>  (1) 
[-0.22297297297297297]

>  <Interactions>  (1) 
["V-B:GLU:543:CD:9879, V-B:PRO:540:N:9855, V-B:ALA:541:CB:9863, V-B:PRO:540:CA:9854, V-B:PRO:540:C:9852, V-B:TYR:539:C:9838, V-A:LEU:475:CD2:4258, V-A:PRO:482:CG:4326, V-A:HIS:383:CE1:3393, H-B:TYR:539:O:9839, V-B:TYR:539:CD2:9845, V-B:TYR:539:CE2:9847, V-A:SER:385:CA:3406, V-A:SER:385:CB:3408, V-B:MET:535:CE:9806, V-A:PRO:482:CB:4325, V-B:PRO:540:CB:9856, V-B:TYR:531:CZ:9765, V-B:TYR:531:CE2:9764, V-B:LEU:363:CD1:8159, V-B:ILE:538:CD1:9836, V-B:ILE:538:CG2:9834, V-B:ILE:538:CA:9831, V-B:ILE:538:CG1:9835, V-B:ILE:538:C:9829, V-B:ILE:538:CB:9833, H-B:TYR:531:OH:9766, V-B:ASP:366:CG:8183, V-B:MET:535:CG:9804, V-B:ARG:545:CZ:9897, V-B:LEU:475:CD1:9228, V-B:GLY:454:CA:9019, H-B:GLY:454:N:9020"]

$$$$
8d_Ghoteimi_2023
     RDKit          3D

 50 53  0  0  0  0  0  0  0  0999 V2000
  135.1430  127.6390   74.6420 C   0  0  0  0  0  0  0  0  0  0  0  0
  134.4310  128.1070   75.7790 O   0  0  0  0  0  0  0  0  0  0  0  0
  133.4240  127.3730   76.3210 C   0  0  0  0  0  0  0  0  0  0  0  0
  133.3770  127.0370   77.5070 O   0  0  0  0  0  0  0  0  0  0  0  0
  132.3800  127.0130   75.3380 C   0  0  0  0  0  0  0  0  0  0  0  0
  131.7200  128.2470   74.2630 S   0  0  0  0  0  0  0  0  0  0  0  0
  130.6550  127.0810   73.5130 C   0  0  0  0  0  0  0  0  0  0  0  0
  129.8180  127.4200   72.5320 N   0  0  0  0  0  0  0  0  0  0  0  0
  129.0350  126.4340   72.0170 C   0  0  0  0  0  0  0  0  0  0  0  0
  128.1020  126.8430   70.9220 C   0  0  0  0  0  0  0  0  0  0  0  0
  128.5580  127.5810   69.8200 C   0  0  0  0  0  0  0  0  0  0  0  0
  127.6850  127.9590   68.8030 C   0  0  0  0  0  0  0  0  0  0  0  0
  126.3360  127.6110   68.8610 C   0  0  0  0  0  0  0  0  0  0  0  0
  125.5450  128.0280   67.8090 O   0  0  0  0  0  0  0  0  0  0  0  0
  126.1440  128.7330   66.7260 C   0  0  0  0  0  0  0  0  0  0  0  0
  125.8700  126.8720   69.9580 C   0  0  0  0  0  0  0  0  0  0  0  0
  126.7470  126.4950   70.9720 C   0  0  0  0  0  0  0  0  0  0  0  0
  129.0860  125.1190   72.4880 C   0  0  0  0  0  0  0  0  0  0  0  0
  129.9660  124.7620   73.5150 C   0  0  0  0  0  0  0  0  0  0  0  0
  130.0030  123.3580   73.9860 C   0  0  0  0  0  0  0  0  0  0  0  0
  131.1670  122.6000   73.8440 C   0  0  0  0  0  0  0  0  0  0  0  0
  131.1980  121.2780   74.2780 C   0  0  0  0  0  0  0  0  0  0  0  0
  130.0730  120.6960   74.8630 C   0  0  0  0  0  0  0  0  0  0  0  0
  130.1960  119.3800   75.2630 O   0  0  0  0  0  0  0  0  0  0  0  0
  131.2950  119.0030   76.0830 C   0  0  0  0  0  0  0  0  0  0  0  0
  128.9040  121.4630   75.0080 C   0  0  0  0  0  0  0  0  0  0  0  0
  128.8740  122.7850   74.5720 C   0  0  0  0  0  0  0  0  0  0  0  0
  130.7950  125.7750   74.0650 C   0  0  0  0  0  0  0  0  0  0  0  0
  131.7870  125.7670   75.1050 C   0  0  0  0  0  0  0  0  0  0  0  0
  132.1120  124.6340   75.8060 N   0  0  0  0  0  0  0  0  0  0  0  0
  136.0203  127.0624   74.9705 H   0  0  0  0  0  0  0  0  0  0  0  0
  134.4867  126.9956   74.0376 H   0  0  0  0  0  0  0  0  0  0  0  0
  135.4733  128.4967   74.0376 H   0  0  0  0  0  0  0  0  0  0  0  0
  129.6189  127.8649   69.7582 H   0  0  0  0  0  0  0  0  0  0  0  0
  128.0628  128.5370   67.9467 H   0  0  0  0  0  0  0  0  0  0  0  0
  126.8088  129.5154   67.1208 H   0  0  0  0  0  0  0  0  0  0  0  0
  126.7274  128.0325   66.1104 H   0  0  0  0  0  0  0  0  0  0  0  0
  125.3585  129.1956   66.1104 H   0  0  0  0  0  0  0  0  0  0  0  0
  124.8086  126.5893   70.0177 H   0  0  0  0  0  0  0  0  0  0  0  0
  126.3688  125.9143   71.8262 H   0  0  0  0  0  0  0  0  0  0  0  0
  128.4272  124.3568   72.0464 H   0  0  0  0  0  0  0  0  0  0  0  0
  132.0618  123.0488   73.3880 H   0  0  0  0  0  0  0  0  0  0  0  0
  132.1178  120.6866   74.1587 H   0  0  0  0  0  0  0  0  0  0  0  0
  131.0127  119.0998   77.1417 H   0  0  0  0  0  0  0  0  0  0  0  0
  131.5698  117.9592   75.8708 H   0  0  0  0  0  0  0  0  0  0  0  0
  132.1526  119.6583   75.8708 H   0  0  0  0  0  0  0  0  0  0  0  0
  128.0096  121.0172   75.4676 H   0  0  0  0  0  0  0  0  0  0  0  0
  127.9564  123.3800   74.6901 H   0  0  0  0  0  0  0  0  0  0  0  0
  132.5930  123.8610   75.3670 H   0  0  0  0  0  0  0  0  0  0  0  0
  131.8890  124.5340   76.7860 H   0  0  0  0  0  0  0  0  0  0  0  0
  1  2  1  0
  2  3  1  0
  3  4  2  0
  3  5  1  0
  5  6  1  0
  6  7  1  0
  7  8  2  0
  8  9  1  0
  9 10  1  0
 10 11  2  0
 11 12  1  0
 12 13  2  0
 13 14  1  0
 14 15  1  0
 13 16  1  0
 16 17  2  0
  9 18  2  0
 18 19  1  0
 19 20  1  0
 20 21  2  0
 21 22  1  0
 22 23  2  0
 23 24  1  0
 24 25  1  0
 23 26  1  0
 26 27  2  0
 19 28  2  0
 28 29  1  0
 29 30  1  0
 29  5  2  0
 28  7  1  0
 17 10  1  0
 27 20  1  0
  1 31  1  0
  1 32  1  0
  1 33  1  0
 11 34  1  0
 12 35  1  0
 15 36  1  0
 15 37  1  0
 15 38  1  0
 16 39  1  0
 17 40  1  0
 18 41  1  0
 21 42  1  0
 22 43  1  0
 25 44  1  0
 25 45  1  0
 25 46  1  0
 26 47  1  0
 27 48  1  0
 30 49  1  0
 30 50  1  0
M  END
>  <Binding energies>  (1) 
[-6.88]

>  <Ligand effiencies>  (1) 
[-0.215]

>  <Interactions>  (1) 
["V-B:GLU:543:CD:9879, V-A:HIS:456:CE1:4069, V-B:GLU:543:CB:9877, V-B:HIS:456:CE1:9040, V-B:LYS:547:CE:9921, V-A:HIS:456:CD2:4067, V-B:GLU:543:C:9873, V-B:ARG:545:CG:9893, H-A:ASP:473:OD2:4241, V-A:ASP:473:CB:4238, V-A:GLY:544:C:4911, V-B:GLY:544:CA:9885, V-A:ASP:473:CG:4239, V-A:TYR:484:CB:4340, V-A:TYR:484:C:4336, V-A:ASP:485:CA:4352, V-B:GLY:544:C:9883, V-A:HIS:456:CB:4064, V-A:VAL:457:C:4072, V-A:HIS:456:CA:4062, V-A:HIS:456:C:4060, V-A:HIS:456:CG:4065, V-A:VAL:458:CG2:4086, V-B:ARG:545:CA:9890, V-A:TYR:484:CG:4341, V-A:PRO:486:CD:4365, V-A:ASP:485:C:4350, V-A:PRO:486:N:4362, V-A:ARG:545:C:4916"]

$$$$
9a_Ghoteimi_2023
     RDKit          3D

 85 91  0  0  0  0  0  0  0  0999 V2000
  125.8090  127.9960   75.0370 C   0  0  0  0  0  0  0  0  0  0  0  0
  126.4320  127.2620   73.8450 C   0  0  0  0  0  0  0  0  0  0  0  0
  127.6600  127.8890   73.4930 O   0  0  0  0  0  0  0  0  0  0  0  0
  128.7570  127.1540   73.1800 C   0  0  0  0  0  0  0  0  0  0  0  0
  129.5120  126.6640   74.0260 O   0  0  0  0  0  0  0  0  0  0  0  0
  128.9680  127.0000   71.7010 C   0  0  0  0  0  0  0  0  0  0  0  0
  129.4430  128.0890   70.9600 C   0  0  0  0  0  0  0  0  0  0  0  0
  129.6470  127.9780   69.5870 C   0  0  0  0  0  0  0  0  0  0  0  0
  129.3820  126.7780   68.9270 C   0  0  0  0  0  0  0  0  0  0  0  0
  129.6240  126.7820   67.5400 N   0  0  0  0  0  0  0  0  0  0  0  0
  130.5630  126.1300   66.8100 C   0  0  0  0  0  0  0  0  0  0  0  0
  131.4110  125.3760   67.2890 O   0  0  0  0  0  0  0  0  0  0  0  0
  130.5110  126.3710   65.3650 C   0  0  0  0  0  0  0  0  0  0  0  0
  130.1660  127.9860   64.7440 S   0  0  0  0  0  0  0  0  0  0  0  0
  130.3000  127.4280   63.0920 C   0  0  0  0  0  0  0  0  0  0  0  0
  130.1500  128.2580   62.0610 N   0  0  0  0  0  0  0  0  0  0  0  0
  130.2860  127.7260   60.8170 C   0  0  0  0  0  0  0  0  0  0  0  0
  130.1250  128.6770   59.6750 C   0  0  0  0  0  0  0  0  0  0  0  0
  130.9270  129.8200   59.5840 C   0  0  0  0  0  0  0  0  0  0  0  0
  130.7840  130.7110   58.5230 C   0  0  0  0  0  0  0  0  0  0  0  0
  129.8430  130.4840   57.5060 C   0  0  0  0  0  0  0  0  0  0  0  0
  129.6750  131.3790   56.4450 N   0  0  0  0  0  0  0  0  0  0  0  0
  128.3350  131.7110   55.9190 C   0  0  0  0  0  0  0  0  0  0  0  0
  128.3620  132.4120   54.5450 C   0  0  0  0  0  0  0  0  0  0  0  0
  129.1850  133.5650   54.6020 O   0  0  0  0  0  0  0  0  0  0  0  0
  130.5210  133.2330   54.9480 C   0  0  0  0  0  0  0  0  0  0  0  0
  130.5540  132.5620   56.3370 C   0  0  0  0  0  0  0  0  0  0  0  0
  129.0320  129.3440   57.6110 C   0  0  0  0  0  0  0  0  0  0  0  0
  129.1730  128.4560   58.6730 C   0  0  0  0  0  0  0  0  0  0  0  0
  130.5420  126.3690   60.6100 C   0  0  0  0  0  0  0  0  0  0  0  0
  130.6800  125.4900   61.6900 C   0  0  0  0  0  0  0  0  0  0  0  0
  130.9150  124.0500   61.4140 C   0  0  0  0  0  0  0  0  0  0  0  0
  132.2010  123.5790   61.1390 C   0  0  0  0  0  0  0  0  0  0  0  0
  132.4210  122.2270   60.8930 C   0  0  0  0  0  0  0  0  0  0  0  0
  131.3630  121.3050   60.9340 C   0  0  0  0  0  0  0  0  0  0  0  0
  131.5580  119.9460   60.6800 N   0  0  0  0  0  0  0  0  0  0  0  0
  130.8090  118.9510   61.4740 C   0  0  0  0  0  0  0  0  0  0  0  0
  130.8230  117.5380   60.8520 C   0  0  0  0  0  0  0  0  0  0  0  0
  132.1600  117.1130   60.6380 O   0  0  0  0  0  0  0  0  0  0  0  0
  132.8530  117.9840   59.7580 C   0  0  0  0  0  0  0  0  0  0  0  0
  132.8940  119.4090   60.3510 C   0  0  0  0  0  0  0  0  0  0  0  0
  130.0770  121.7890   61.2140 C   0  0  0  0  0  0  0  0  0  0  0  0
  129.8560  123.1410   61.4550 C   0  0  0  0  0  0  0  0  0  0  0  0
  130.5780  126.0330   63.0030 C   0  0  0  0  0  0  0  0  0  0  0  0
  130.7170  125.4580   64.3190 C   0  0  0  0  0  0  0  0  0  0  0  0
  131.0370  124.1400   64.5180 N   0  0  0  0  0  0  0  0  0  0  0  0
  128.9080  125.6800   69.6620 C   0  0  0  0  0  0  0  0  0  0  0  0
  128.7040  125.7930   71.0350 C   0  0  0  0  0  0  0  0  0  0  0  0
  126.1820  127.5565   75.9739 H   0  0  0  0  0  0  0  0  0  0  0  0
  126.0836  129.0604   74.9964 H   0  0  0  0  0  0  0  0  0  0  0  0
  124.7141  127.8980   74.9964 H   0  0  0  0  0  0  0  0  0  0  0  0
  126.6204  126.2131   74.1176 H   0  0  0  0  0  0  0  0  0  0  0  0
  125.7419  127.2992   72.9892 H   0  0  0  0  0  0  0  0  0  0  0  0
  129.6570  129.0413   71.4673 H   0  0  0  0  0  0  0  0  0  0  0  0
  130.0198  128.8429   69.0187 H   0  0  0  0  0  0  0  0  0  0  0  0
  128.9890  127.3640   67.0150 H   0  0  0  0  0  0  0  0  0  0  0  0
  131.6804  130.0175   60.3607 H   0  0  0  0  0  0  0  0  0  0  0  0
  131.4193  131.6080   58.4811 H   0  0  0  0  0  0  0  0  0  0  0  0
  127.7598  130.7784   55.8214 H   0  0  0  0  0  0  0  0  0  0  0  0
  127.8773  132.4153   56.6292 H   0  0  0  0  0  0  0  0  0  0  0  0
  128.7601  131.7178   53.7903 H   0  0  0  0  0  0  0  0  0  0  0  0
  127.3392  132.7130   54.2744 H   0  0  0  0  0  0  0  0  0  0  0  0
  130.9300  132.5396   54.1984 H   0  0  0  0  0  0  0  0  0  0  0  0
  131.1262  134.1512   54.9756 H   0  0  0  0  0  0  0  0  0  0  0  0
  131.5871  132.2476   56.5466 H   0  0  0  0  0  0  0  0  0  0  0  0
  130.1864  133.3035   57.0616 H   0  0  0  0  0  0  0  0  0  0  0  0
  128.2716  129.1488   56.8405 H   0  0  0  0  0  0  0  0  0  0  0  0
  128.5269  127.5673   58.7258 H   0  0  0  0  0  0  0  0  0  0  0  0
  130.6365  125.9855   59.5833 H   0  0  0  0  0  0  0  0  0  0  0  0
  133.0465  124.2823   61.1167 H   0  0  0  0  0  0  0  0  0  0  0  0
  133.4378  121.8759   60.6633 H   0  0  0  0  0  0  0  0  0  0  0  0
  131.2574  118.8955   62.4769 H   0  0  0  0  0  0  0  0  0  0  0  0
  129.7606  119.2824   61.5066 H   0  0  0  0  0  0  0  0  0  0  0  0
  130.3225  116.8351   61.5342 H   0  0  0  0  0  0  0  0  0  0  0  0
  130.2945  117.5637   59.8876 H   0  0  0  0  0  0  0  0  0  0  0  0
  133.8808  117.6180   59.6175 H   0  0  0  0  0  0  0  0  0  0  0  0
  132.3312  118.0101   58.7900 H   0  0  0  0  0  0  0  0  0  0  0  0
  133.4970  119.3867   61.2707 H   0  0  0  0  0  0  0  0  0  0  0  0
  133.3289  120.0673   59.5845 H   0  0  0  0  0  0  0  0  0  0  0  0
  129.2295  121.0883   61.2435 H   0  0  0  0  0  0  0  0  0  0  0  0
  128.8396  123.4966   61.6795 H   0  0  0  0  0  0  0  0  0  0  0  0
  131.6610  123.8490   65.2580 H   0  0  0  0  0  0  0  0  0  0  0  0
  130.6580  123.4120   63.9290 H   0  0  0  0  0  0  0  0  0  0  0  0
  128.6972  124.7282   69.1524 H   0  0  0  0  0  0  0  0  0  0  0  0
  128.3322  124.9276   71.6032 H   0  0  0  0  0  0  0  0  0  0  0  0
  1  2  1  0
  2  3  1  0
  3  4  1  0
  4  5  2  0
  4  6  1  0
  6  7  2  0
  7  8  1  0
  8  9  2  0
  9 10  1  0
 10 11  1  0
 11 12  2  0
 11 13  1  0
 13 14  1  0
 14 15  1  0
 15 16  2  0
 16 17  1  0
 17 18  1  0
 18 19  2  0
 19 20  1  0
 20 21  2  0
 21 22  1  0
 22 23  1  0
 23 24  1  0
 24 25  1  0
 25 26  1  0
 26 27  1  0
 21 28  1  0
 28 29  2  0
 17 30  2  0
 30 31  1  0
 31 32  1  0
 32 33  2  0
 33 34  1  0
 34 35  2  0
 35 36  1  0
 36 37  1  0
 37 38  1  0
 38 39  1  0
 39 40  1  0
 40 41  1  0
 35 42  1  0
 42 43  2  0
 31 44  2  0
 44 45  1  0
 45 46  1  0
  9 47  1  0
 47 48  2  0
 48  6  1  0
 45 13  2  0
 44 15  1  0
 29 18  1  0
 43 32  1  0
 27 22  1  0
 41 36  1  0
  1 49  1  0
  1 50  1  0
  1 51  1  0
  2 52  1  0
  2 53  1  0
  7 54  1  0
  8 55  1  0
 10 56  1  0
 19 57  1  0
 20 58  1  0
 23 59  1  0
 23 60  1  0
 24 61  1  0
 24 62  1  0
 26 63  1  0
 26 64  1  0
 27 65  1  0
 27 66  1  0
 28 67  1  0
 29 68  1  0
 30 69  1  0
 33 70  1  0
 34 71  1  0
 37 72  1  0
 37 73  1  0
 38 74  1  0
 38 75  1  0
 40 76  1  0
 40 77  1  0
 41 78  1  0
 41 79  1  0
 42 80  1  0
 43 81  1  0
 46 82  1  0
 46 83  1  0
 47 84  1  0
 48 85  1  0
M  END
>  <Binding energies>  (1) 
[-8.69]

>  <Ligand effiencies>  (1) 
[-0.1703921568627451]

>  <Interactions>  (1) 
["V-A:TYR:539:CZ:4876, V-A:TYR:539:CE1:4874, V-A:TYR:539:CE2:4875, V-A:TYR:531:CE2:4792, V-A:ILE:538:CA:4859, V-B:GLU:543:CD:9879, H-A:TYR:484:OH:4347, V-B:ALA:541:CB:9863, H-B:GLU:543:OE2:9881, V-A:LEU:475:CD2:4258, V-A:HIS:383:CE1:3393, V-B:TYR:539:CD2:9845, V-A:ILE:369:CG2:3236, V-B:TYR:539:CE2:9847, V-A:SER:385:CA:3406, V-A:PRO:482:CB:4325, H-A:HIS:383:ND1:3390, V-A:HIS:456:CE1:4069, V-B:GLU:543:CB:9877, V-A:GLU:543:CD:4907, V-B:HIS:456:CE1:9040, V-B:LYS:547:CE:9921, H-B:LYS:547:NZ:9922, V-B:GLU:543:C:9873, V-A:ILE:538:CB:4861, V-A:ILE:538:CG2:4862, V-B:GLY:544:C:9883, V-A:TYR:484:CE2:4345, V-A:MET:535:CG:4832, V-A:VAL:384:C:3396, H-A:TYR:539:OH:4877, V-B:GLU:543:CA:9875, V-B:HIS:456:CD2:9038, V-B:HIS:456:CG:9036, V-B:LYS:547:CD:9920, V-B:HIS:456:CB:9035"]

$$$$
9b_Ghoteimi_2023
     RDKit          3D

 72 78  0  0  0  0  0  0  0  0999 V2000
  131.3620  125.7660   61.3890 N   0  0  0  0  0  0  0  0  0  0  0  0
  131.4340  125.1630   62.6190 C   0  0  0  0  0  0  0  0  0  0  0  0
  131.9160  123.8600   62.8150 C   0  0  0  0  0  0  0  0  0  0  0  0
  132.4390  122.9200   61.8200 C   0  0  0  0  0  0  0  0  0  0  0  0
  133.0540  123.3280   60.8320 O   0  0  0  0  0  0  0  0  0  0  0  0
  132.1920  121.6100   62.0690 N   0  0  0  0  0  0  0  0  0  0  0  0
  132.5590  120.5170   61.2940 C   0  0  0  0  0  0  0  0  0  0  0  0
  131.7260  119.4190   61.0840 C   0  0  0  0  0  0  0  0  0  0  0  0
  132.4470  118.5720   60.2740 C   0  0  0  0  0  0  0  0  0  0  0  0
  133.6520  119.1320   60.0110 O   0  0  0  0  0  0  0  0  0  0  0  0
  133.7110  120.3640   60.6630 N   0  0  0  0  0  0  0  0  0  0  0  0
  131.8350  123.3990   64.5150 S   0  0  0  0  0  0  0  0  0  0  0  0
  131.1420  124.9430   64.9480 C   0  0  0  0  0  0  0  0  0  0  0  0
  130.7990  125.2270   66.2030 N   0  0  0  0  0  0  0  0  0  0  0  0
  130.2520  126.4500   66.4320 C   0  0  0  0  0  0  0  0  0  0  0  0
  129.8570  126.7350   67.8440 C   0  0  0  0  0  0  0  0  0  0  0  0
  129.2510  125.7530   68.6390 C   0  0  0  0  0  0  0  0  0  0  0  0
  128.8720  126.0290   69.9490 C   0  0  0  0  0  0  0  0  0  0  0  0
  129.0720  127.3000   70.5090 C   0  0  0  0  0  0  0  0  0  0  0  0
  128.6990  127.5910   71.8260 N   0  0  0  0  0  0  0  0  0  0  0  0
  129.6990  127.9790   72.8410 C   0  0  0  0  0  0  0  0  0  0  0  0
  129.0870  128.5910   74.1180 C   0  0  0  0  0  0  0  0  0  0  0  0
  128.1240  127.7060   74.6660 O   0  0  0  0  0  0  0  0  0  0  0  0
  127.0650  127.4600   73.7560 C   0  0  0  0  0  0  0  0  0  0  0  0
  127.6130  126.8170   72.4640 C   0  0  0  0  0  0  0  0  0  0  0  0
  129.6970  128.2730   69.7160 C   0  0  0  0  0  0  0  0  0  0  0  0
  130.0800  127.9960   68.4060 C   0  0  0  0  0  0  0  0  0  0  0  0
  130.0750  127.3900   65.4140 C   0  0  0  0  0  0  0  0  0  0  0  0
  130.4530  127.1030   64.0970 C   0  0  0  0  0  0  0  0  0  0  0  0
  130.2720  128.1480   63.0570 C   0  0  0  0  0  0  0  0  0  0  0  0
  129.0290  128.7590   62.8810 C   0  0  0  0  0  0  0  0  0  0  0  0
  128.8610  129.7510   61.9200 C   0  0  0  0  0  0  0  0  0  0  0  0
  129.9310  130.1610   61.1090 C   0  0  0  0  0  0  0  0  0  0  0  0
  129.7880  131.1660   60.1500 N   0  0  0  0  0  0  0  0  0  0  0  0
  129.0720  132.4060   60.5040 C   0  0  0  0  0  0  0  0  0  0  0  0
  128.6440  133.2350   59.2740 C   0  0  0  0  0  0  0  0  0  0  0  0
  129.7750  133.5220   58.4650 O   0  0  0  0  0  0  0  0  0  0  0  0
  130.4040  132.3370   58.0010 C   0  0  0  0  0  0  0  0  0  0  0  0
  130.8720  131.4830   59.1980 C   0  0  0  0  0  0  0  0  0  0  0  0
  131.1790  129.5530   61.3080 C   0  0  0  0  0  0  0  0  0  0  0  0
  131.3480  128.5590   62.2690 C   0  0  0  0  0  0  0  0  0  0  0  0
  130.9960  125.8160   63.8290 C   0  0  0  0  0  0  0  0  0  0  0  0
  130.6630  125.5050   60.7080 H   0  0  0  0  0  0  0  0  0  0  0  0
  132.0090  126.4950   61.1210 H   0  0  0  0  0  0  0  0  0  0  0  0
  131.6860  121.3910   62.9140 H   0  0  0  0  0  0  0  0  0  0  0  0
  130.7117  119.2634   61.4802 H   0  0  0  0  0  0  0  0  0  0  0  0
  132.1006  117.5972   59.9002 H   0  0  0  0  0  0  0  0  0  0  0  0
  129.0726  124.7509   68.2220 H   0  0  0  0  0  0  0  0  0  0  0  0
  128.4078  125.2376   70.5558 H   0  0  0  0  0  0  0  0  0  0  0  0
  130.2698  127.0827   73.1255 H   0  0  0  0  0  0  0  0  0  0  0  0
  130.3318  128.7552   72.3860 H   0  0  0  0  0  0  0  0  0  0  0  0
  129.8835  128.7653   74.8564 H   0  0  0  0  0  0  0  0  0  0  0  0
  128.5991  129.5436   73.8641 H   0  0  0  0  0  0  0  0  0  0  0  0
  126.3370  126.7788   74.2208 H   0  0  0  0  0  0  0  0  0  0  0  0
  126.5782  128.4138   73.5045 H   0  0  0  0  0  0  0  0  0  0  0  0
  127.9989  125.8170   72.7111 H   0  0  0  0  0  0  0  0  0  0  0  0
  126.7805  126.7817   71.7459 H   0  0  0  0  0  0  0  0  0  0  0  0
  129.8880  129.2717   70.1356 H   0  0  0  0  0  0  0  0  0  0  0  0
  130.5645  128.7797   67.8052 H   0  0  0  0  0  0  0  0  0  0  0  0
  129.6326  128.3690   65.6504 H   0  0  0  0  0  0  0  0  0  0  0  0
  128.1769  128.4541   63.5062 H   0  0  0  0  0  0  0  0  0  0  0  0
  127.8746  130.2212   61.7938 H   0  0  0  0  0  0  0  0  0  0  0  0
  128.1711  132.1382   61.0755 H   0  0  0  0  0  0  0  0  0  0  0  0
  129.7650  133.0268   61.0908 H   0  0  0  0  0  0  0  0  0  0  0  0
  127.9112  132.6629   58.6861 H   0  0  0  0  0  0  0  0  0  0  0  0
  128.1938  134.1794   59.6137 H   0  0  0  0  0  0  0  0  0  0  0  0
  129.6894  131.7578   57.3978 H   0  0  0  0  0  0  0  0  0  0  0  0
  131.2765  132.6081   57.3884 H   0  0  0  0  0  0  0  0  0  0  0  0
  131.2853  130.5391   58.8129 H   0  0  0  0  0  0  0  0  0  0  0  0
  131.6229  132.0725   59.7445 H   0  0  0  0  0  0  0  0  0  0  0  0
  132.0376  129.8659   60.6957 H   0  0  0  0  0  0  0  0  0  0  0  0
  132.3357  128.0951   62.4077 H   0  0  0  0  0  0  0  0  0  0  0  0
  1  2  1  0
  2  3  2  0
  3  4  1  0
  4  5  2  0
  4  6  1  0
  6  7  1  0
  7  8  1  0
  8  9  2  0
  9 10  1  0
 10 11  1  0
  3 12  1  0
 12 13  1  0
 13 14  2  0
 14 15  1  0
 15 16  1  0
 16 17  2  0
 17 18  1  0
 18 19  2  0
 19 20  1  0
 20 21  1  0
 21 22  1  0
 22 23  1  0
 23 24  1  0
 24 25  1  0
 19 26  1  0
 26 27  2  0
 15 28  2  0
 28 29  1  0
 29 30  1  0
 30 31  2  0
 31 32  1  0
 32 33  2  0
 33 34  1  0
 34 35  1  0
 35 36  1  0
 36 37  1  0
 37 38  1  0
 38 39  1  0
 33 40  1  0
 40 41  2  0
 29 42  2  0
 42  2  1  0
 11  7  2  0
 42 13  1  0
 27 16  1  0
 41 30  1  0
 25 20  1  0
 39 34  1  0
  1 43  1  0
  1 44  1  0
  6 45  1  0
  8 46  1  0
  9 47  1  0
 17 48  1  0
 18 49  1  0
 21 50  1  0
 21 51  1  0
 22 52  1  0
 22 53  1  0
 24 54  1  0
 24 55  1  0
 25 56  1  0
 25 57  1  0
 26 58  1  0
 27 59  1  0
 28 60  1  0
 31 61  1  0
 32 62  1  0
 35 63  1  0
 35 64  1  0
 36 65  1  0
 36 66  1  0
 38 67  1  0
 38 68  1  0
 39 69  1  0
 39 70  1  0
 40 71  1  0
 41 72  1  0
M  END
>  <Binding energies>  (1) 
[-8.08]

>  <Ligand effiencies>  (1) 
[-0.17955555555555555]

>  <Interactions>  (1) 
["V-A:ASP:366:CG:3212, V-A:TYR:539:CE1:4874, V-A:TYR:539:CD1:4872, V-B:GLU:543:CD:9879, H-A:TYR:484:OH:4347, V-A:LEU:475:CD2:4258, V-B:TYR:539:CD2:9845, V-B:GLU:543:CG:9878, V-A:HIS:456:CE1:4069, V-B:GLU:543:CB:9877, V-A:GLU:543:CD:4907, V-B:HIS:456:CE1:9040, V-B:LYS:547:CE:9921, H-B:LYS:547:NZ:9922, H-A:ASP:366:OD2:3214, V-A:GLU:543:CB:4905, V-B:GLY:544:C:9883, V-A:TYR:484:CE2:4345, H-A:ASP:366:OD1:3213, V-A:TYR:539:C:4866, V-B:HIS:456:CD2:9038, V-B:HIS:456:CG:9036"]

$$$$
9c_Ghoteimi_2023
     RDKit          3D

 72 78  0  0  0  0  0  0  0  0999 V2000
  131.3800  125.7840   61.3740 N   0  0  0  0  0  0  0  0  0  0  0  0
  131.4580  125.1970   62.6110 C   0  0  0  0  0  0  0  0  0  0  0  0
  131.9610  123.9040   62.8230 C   0  0  0  0  0  0  0  0  0  0  0  0
  132.5000  122.9610   61.8380 C   0  0  0  0  0  0  0  0  0  0  0  0
  133.2130  123.3540   60.9130 O   0  0  0  0  0  0  0  0  0  0  0  0
  132.1510  121.6640   62.0230 N   0  0  0  0  0  0  0  0  0  0  0  0
  132.5110  120.5820   61.2320 C   0  0  0  0  0  0  0  0  0  0  0  0
  133.6300  120.4050   60.5640 N   0  0  0  0  0  0  0  0  0  0  0  0
  133.6300  119.2580   59.9130 C   0  0  0  0  0  0  0  0  0  0  0  0
  132.4880  118.4740   60.0460 C   0  0  0  0  0  0  0  0  0  0  0  0
  131.3590  119.2930   61.0840 S   0  0  0  0  0  0  0  0  0  0  0  0
  131.8860  123.4600   64.5270 S   0  0  0  0  0  0  0  0  0  0  0  0
  131.1660  124.9980   64.9420 C   0  0  0  0  0  0  0  0  0  0  0  0
  130.8170  125.2900   66.1940 N   0  0  0  0  0  0  0  0  0  0  0  0
  130.2490  126.5060   66.4070 C   0  0  0  0  0  0  0  0  0  0  0  0
  129.8480  126.8000   67.8170 C   0  0  0  0  0  0  0  0  0  0  0  0
  130.0850  128.0540   68.3920 C   0  0  0  0  0  0  0  0  0  0  0  0
  129.7180  128.3190   69.7070 C   0  0  0  0  0  0  0  0  0  0  0  0
  129.1110  127.3340   70.5030 C   0  0  0  0  0  0  0  0  0  0  0  0
  128.7300  127.5880   71.8250 N   0  0  0  0  0  0  0  0  0  0  0  0
  129.7200  127.9770   72.8500 C   0  0  0  0  0  0  0  0  0  0  0  0
  129.0920  128.5510   74.1380 C   0  0  0  0  0  0  0  0  0  0  0  0
  128.1500  127.6320   74.6670 O   0  0  0  0  0  0  0  0  0  0  0  0
  127.0980  127.3810   73.7490 C   0  0  0  0  0  0  0  0  0  0  0  0
  127.6630  126.7750   72.4460 C   0  0  0  0  0  0  0  0  0  0  0  0
  128.8580  126.0860   69.9160 C   0  0  0  0  0  0  0  0  0  0  0  0
  129.2220  125.8230   68.5980 C   0  0  0  0  0  0  0  0  0  0  0  0
  130.0580  127.4320   65.3790 C   0  0  0  0  0  0  0  0  0  0  0  0
  130.4430  127.1370   64.0660 C   0  0  0  0  0  0  0  0  0  0  0  0
  130.2480  128.1660   63.0150 C   0  0  0  0  0  0  0  0  0  0  0  0
  128.9930  128.7440   62.8190 C   0  0  0  0  0  0  0  0  0  0  0  0
  128.8100  129.7220   61.8450 C   0  0  0  0  0  0  0  0  0  0  0  0
  129.8780  130.1460   61.0390 C   0  0  0  0  0  0  0  0  0  0  0  0
  129.7200  131.1340   60.0620 N   0  0  0  0  0  0  0  0  0  0  0  0
  129.0880  132.4160   60.4320 C   0  0  0  0  0  0  0  0  0  0  0  0
  128.6250  133.2410   59.2110 C   0  0  0  0  0  0  0  0  0  0  0  0
  129.7160  133.4540   58.3270 O   0  0  0  0  0  0  0  0  0  0  0  0
  130.2530  132.2300   57.8520 C   0  0  0  0  0  0  0  0  0  0  0  0
  130.7540  131.3750   59.0380 C   0  0  0  0  0  0  0  0  0  0  0  0
  131.1390  129.5720   61.2590 C   0  0  0  0  0  0  0  0  0  0  0  0
  131.3220  128.5950   62.2330 C   0  0  0  0  0  0  0  0  0  0  0  0
  131.0080  125.8540   63.8130 C   0  0  0  0  0  0  0  0  0  0  0  0
  130.6560  125.5400   60.7130 H   0  0  0  0  0  0  0  0  0  0  0  0
  132.0470  126.4840   61.0810 H   0  0  0  0  0  0  0  0  0  0  0  0
  131.5690  121.4490   62.8200 H   0  0  0  0  0  0  0  0  0  0  0  0
  134.4851  118.9388   59.2991 H   0  0  0  0  0  0  0  0  0  0  0  0
  132.3259  117.4950   59.5714 H   0  0  0  0  0  0  0  0  0  0  0  0
  130.5686  128.8413   67.7951 H   0  0  0  0  0  0  0  0  0  0  0  0
  129.9063  129.3166   70.1306 H   0  0  0  0  0  0  0  0  0  0  0  0
  130.3090  127.0875   73.1182 H   0  0  0  0  0  0  0  0  0  0  0  0
  130.3374  128.7751   72.4119 H   0  0  0  0  0  0  0  0  0  0  0  0
  129.8832  128.7305   74.8808 H   0  0  0  0  0  0  0  0  0  0  0  0
  128.5821  129.4966   73.9019 H   0  0  0  0  0  0  0  0  0  0  0  0
  126.3838  126.6754   74.1984 H   0  0  0  0  0  0  0  0  0  0  0  0
  126.5913  128.3288   73.5147 H   0  0  0  0  0  0  0  0  0  0  0  0
  128.0734  125.7805   72.6752 H   0  0  0  0  0  0  0  0  0  0  0  0
  126.8326  126.7313   71.7259 H   0  0  0  0  0  0  0  0  0  0  0  0
  128.3634  125.3011   70.5070 H   0  0  0  0  0  0  0  0  0  0  0  0
  129.0144  124.8333   68.1651 H   0  0  0  0  0  0  0  0  0  0  0  0
  129.5990  128.4060   65.6042 H   0  0  0  0  0  0  0  0  0  0  0  0
  128.1421  128.4246   63.4386 H   0  0  0  0  0  0  0  0  0  0  0  0
  127.8145  130.1686   61.7052 H   0  0  0  0  0  0  0  0  0  0  0  0
  128.2125  132.2047   61.0635 H   0  0  0  0  0  0  0  0  0  0  0  0
  129.8452  133.0128   60.9616 H   0  0  0  0  0  0  0  0  0  0  0  0
  127.8294  132.6950   58.6829 H   0  0  0  0  0  0  0  0  0  0  0  0
  128.2442  134.2137   59.5557 H   0  0  0  0  0  0  0  0  0  0  0  0
  129.4729  131.6769   57.3085 H   0  0  0  0  0  0  0  0  0  0  0  0
  131.0971  132.4436   57.1798 H   0  0  0  0  0  0  0  0  0  0  0  0
  131.0933  130.4036   58.6492 H   0  0  0  0  0  0  0  0  0  0  0  0
  131.5676  131.9350   59.5223 H   0  0  0  0  0  0  0  0  0  0  0  0
  131.9963  129.8992   60.6523 H   0  0  0  0  0  0  0  0  0  0  0  0
  132.3195  128.1579   62.3877 H   0  0  0  0  0  0  0  0  0  0  0  0
  1  2  1  0
  2  3  2  0
  3  4  1  0
  4  5  2  0
  4  6  1  0
  6  7  1  0
  7  8  2  0
  8  9  1  0
  9 10  2  0
 10 11  1  0
  3 12  1  0
 12 13  1  0
 13 14  2  0
 14 15  1  0
 15 16  1  0
 16 17  2  0
 17 18  1  0
 18 19  2  0
 19 20  1  0
 20 21  1  0
 21 22  1  0
 22 23  1  0
 23 24  1  0
 24 25  1  0
 19 26  1  0
 26 27  2  0
 15 28  2  0
 28 29  1  0
 29 30  1  0
 30 31  2  0
 31 32  1  0
 32 33  2  0
 33 34  1  0
 34 35  1  0
 35 36  1  0
 36 37  1  0
 37 38  1  0
 38 39  1  0
 33 40  1  0
 40 41  2  0
 29 42  2  0
 42  2  1  0
 11  7  1  0
 42 13  1  0
 27 16  1  0
 41 30  1  0
 25 20  1  0
 39 34  1  0
  1 43  1  0
  1 44  1  0
  6 45  1  0
  9 46  1  0
 10 47  1  0
 17 48  1  0
 18 49  1  0
 21 50  1  0
 21 51  1  0
 22 52  1  0
 22 53  1  0
 24 54  1  0
 24 55  1  0
 25 56  1  0
 25 57  1  0
 26 58  1  0
 27 59  1  0
 28 60  1  0
 31 61  1  0
 32 62  1  0
 35 63  1  0
 35 64  1  0
 36 65  1  0
 36 66  1  0
 38 67  1  0
 38 68  1  0
 39 69  1  0
 39 70  1  0
 40 71  1  0
 41 72  1  0
M  END
>  <Binding energies>  (1) 
[-8.36]

>  <Ligand effiencies>  (1) 
[-0.18577777777777776]

>  <Interactions>  (1) 
["V-A:ASP:366:CG:3212, V-A:TYR:539:CE1:4874, V-A:TYR:539:CD1:4872, V-B:GLU:543:CD:9879, H-A:TYR:484:OH:4347, V-A:LEU:475:CD2:4258, V-B:TYR:539:CD2:9845, V-A:ILE:369:CG2:3236, V-A:SER:385:CA:3406, V-B:GLU:543:CG:9878, V-A:HIS:456:CE1:4069, V-B:GLU:543:CB:9877, V-A:GLU:543:CD:4907, V-B:HIS:456:CE1:9040, V-B:LYS:547:CE:9921, H-B:LYS:547:NZ:9922, H-A:ASP:366:OD2:3214, V-A:GLU:543:CB:4905, V-A:TYR:484:CE2:4345, H-A:ASP:366:OD1:3213, V-A:TYR:539:C:4866, V-A:VAL:384:C:3396, V-B:HIS:456:CD2:9038, V-B:HIS:456:CG:9036"]

$$$$
9d_Ghoteimi_2023
     RDKit          3D

 68 73  0  0  0  0  0  0  0  0999 V2000
  135.1300  124.9200   76.4830 C   0  0  0  0  0  0  0  0  0  0  0  0
  133.8660  125.4690   76.8270 O   0  0  0  0  0  0  0  0  0  0  0  0
  133.4430  126.6390   76.2820 C   0  0  0  0  0  0  0  0  0  0  0  0
  133.9280  127.7410   76.5530 O   0  0  0  0  0  0  0  0  0  0  0  0
  132.3290  126.4600   75.3250 C   0  0  0  0  0  0  0  0  0  0  0  0
  131.8270  127.8050   74.3010 S   0  0  0  0  0  0  0  0  0  0  0  0
  130.6040  126.8170   73.5370 C   0  0  0  0  0  0  0  0  0  0  0  0
  129.8330  127.2930   72.5600 N   0  0  0  0  0  0  0  0  0  0  0  0
  128.9250  126.4400   72.0190 C   0  0  0  0  0  0  0  0  0  0  0  0
  128.0880  126.9880   70.9080 C   0  0  0  0  0  0  0  0  0  0  0  0
  126.7270  126.6780   70.8250 C   0  0  0  0  0  0  0  0  0  0  0  0
  125.9400  127.1810   69.7930 C   0  0  0  0  0  0  0  0  0  0  0  0
  126.4840  128.0250   68.8110 C   0  0  0  0  0  0  0  0  0  0  0  0
  125.7090  128.5250   67.7580 N   0  0  0  0  0  0  0  0  0  0  0  0
  124.4030  129.1680   68.0030 C   0  0  0  0  0  0  0  0  0  0  0  0
  123.5430  129.3400   66.7340 C   0  0  0  0  0  0  0  0  0  0  0  0
  124.2770  130.0390   65.7420 O   0  0  0  0  0  0  0  0  0  0  0  0
  125.4530  129.3370   65.3750 C   0  0  0  0  0  0  0  0  0  0  0  0
  126.3730  129.1630   66.6020 C   0  0  0  0  0  0  0  0  0  0  0  0
  127.8520  128.3200   68.8900 C   0  0  0  0  0  0  0  0  0  0  0  0
  128.6400  127.8140   69.9210 C   0  0  0  0  0  0  0  0  0  0  0  0
  128.7680  125.1290   72.4770 C   0  0  0  0  0  0  0  0  0  0  0  0
  129.5630  124.6300   73.5150 C   0  0  0  0  0  0  0  0  0  0  0  0
  129.3360  123.2370   73.9830 C   0  0  0  0  0  0  0  0  0  0  0  0
  130.3990  122.3370   74.0850 C   0  0  0  0  0  0  0  0  0  0  0  0
  130.1840  121.0390   74.5410 C   0  0  0  0  0  0  0  0  0  0  0  0
  128.9020  120.6120   74.9230 C   0  0  0  0  0  0  0  0  0  0  0  0
  128.6600  119.3130   75.3740 N   0  0  0  0  0  0  0  0  0  0  0  0
  127.5360  118.5510   74.7960 C   0  0  0  0  0  0  0  0  0  0  0  0
  127.6160  117.0360   75.0830 C   0  0  0  0  0  0  0  0  0  0  0  0
  127.7160  116.8100   76.4810 O   0  0  0  0  0  0  0  0  0  0  0  0
  128.8730  117.4240   77.0300 C   0  0  0  0  0  0  0  0  0  0  0  0
  128.8200  118.9490   76.7950 C   0  0  0  0  0  0  0  0  0  0  0  0
  127.8430  121.5240   74.8150 C   0  0  0  0  0  0  0  0  0  0  0  0
  128.0570  122.8210   74.3570 C   0  0  0  0  0  0  0  0  0  0  0  0
  130.5490  125.4940   74.0680 C   0  0  0  0  0  0  0  0  0  0  0  0
  131.5610  125.3160   75.0760 C   0  0  0  0  0  0  0  0  0  0  0  0
  131.7700  124.1230   75.7190 N   0  0  0  0  0  0  0  0  0  0  0  0
  135.6867  124.6782   77.4004 H   0  0  0  0  0  0  0  0  0  0  0  0
  134.9833  124.0045   75.8911 H   0  0  0  0  0  0  0  0  0  0  0  0
  135.6989  125.6521   75.8911 H   0  0  0  0  0  0  0  0  0  0  0  0
  126.2718  126.0273   71.5862 H   0  0  0  0  0  0  0  0  0  0  0  0
  124.8742  126.9130   69.7457 H   0  0  0  0  0  0  0  0  0  0  0  0
  123.8422  128.5508   68.7204 H   0  0  0  0  0  0  0  0  0  0  0  0
  124.6112  130.1776   68.3868 H   0  0  0  0  0  0  0  0  0  0  0  0
  123.2609  128.3493   66.3480 H   0  0  0  0  0  0  0  0  0  0  0  0
  122.6387  129.9136   66.9855 H   0  0  0  0  0  0  0  0  0  0  0  0
  125.1780  128.3465   64.9834 H   0  0  0  0  0  0  0  0  0  0  0  0
  125.9877  129.9100   64.6031 H   0  0  0  0  0  0  0  0  0  0  0  0
  127.2306  128.5404   66.3073 H   0  0  0  0  0  0  0  0  0  0  0  0
  126.6757  130.1710   66.9218 H   0  0  0  0  0  0  0  0  0  0  0  0
  128.3113  128.9624   68.1243 H   0  0  0  0  0  0  0  0  0  0  0  0
  129.7099  128.0665   69.9605 H   0  0  0  0  0  0  0  0  0  0  0  0
  128.0090  124.4804   72.0152 H   0  0  0  0  0  0  0  0  0  0  0  0
  131.4134  122.6558   73.8031 H   0  0  0  0  0  0  0  0  0  0  0  0
  131.0299  120.3386   74.6028 H   0  0  0  0  0  0  0  0  0  0  0  0
  126.5972  118.9378   75.2193 H   0  0  0  0  0  0  0  0  0  0  0  0
  127.5814  118.6795   73.7045 H   0  0  0  0  0  0  0  0  0  0  0  0
  126.7102  116.5444   74.6986 H   0  0  0  0  0  0  0  0  0  0  0  0
  128.5056  116.6215   74.5862 H   0  0  0  0  0  0  0  0  0  0  0  0
  128.9148  117.2227   78.1106 H   0  0  0  0  0  0  0  0  0  0  0  0
  129.7681  117.0129   76.5403 H   0  0  0  0  0  0  0  0  0  0  0  0
  127.9699  119.3603   77.3591 H   0  0  0  0  0  0  0  0  0  0  0  0
  129.7804  119.3654   77.1329 H   0  0  0  0  0  0  0  0  0  0  0  0
  126.8271  121.2099   75.0965 H   0  0  0  0  0  0  0  0  0  0  0  0
  127.2127  123.5228   74.2893 H   0  0  0  0  0  0  0  0  0  0  0  0
  131.0110  123.4890   75.9230 H   0  0  0  0  0  0  0  0  0  0  0  0
  132.6950  123.8340   76.0060 H   0  0  0  0  0  0  0  0  0  0  0  0
  1  2  1  0
  2  3  1  0
  3  4  2  0
  3  5  1  0
  5  6  1  0
  6  7  1  0
  7  8  2  0
  8  9  1  0
  9 10  1  0
 10 11  2  0
 11 12  1  0
 12 13  2  0
 13 14  1  0
 14 15  1  0
 15 16  1  0
 16 17  1  0
 17 18  1  0
 18 19  1  0
 13 20  1  0
 20 21  2  0
  9 22  2  0
 22 23  1  0
 23 24  1  0
 24 25  2  0
 25 26  1  0
 26 27  2  0
 27 28  1  0
 28 29  1  0
 29 30  1  0
 30 31  1  0
 31 32  1  0
 32 33  1  0
 27 34  1  0
 34 35  2  0
 23 36  2  0
 36 37  1  0
 37 38  1  0
 37  5  2  0
 36  7  1  0
 21 10  1  0
 35 24  1  0
 19 14  1  0
 33 28  1  0
  1 39  1  0
  1 40  1  0
  1 41  1  0
 11 42  1  0
 12 43  1  0
 15 44  1  0
 15 45  1  0
 16 46  1  0
 16 47  1  0
 18 48  1  0
 18 49  1  0
 19 50  1  0
 19 51  1  0
 20 52  1  0
 21 53  1  0
 22 54  1  0
 25 55  1  0
 26 56  1  0
 29 57  1  0
 29 58  1  0
 30 59  1  0
 30 60  1  0
 32 61  1  0
 32 62  1  0
 33 63  1  0
 33 64  1  0
 34 65  1  0
 35 66  1  0
 38 67  1  0
 38 68  1  0
M  END
>  <Binding energies>  (1) 
[-8.79]

>  <Ligand effiencies>  (1) 
[-0.21974999999999997]

>  <Interactions>  (1) 
["V-B:GLU:543:CD:9879, V-A:HIS:456:CE1:4069, V-B:GLU:543:CB:9877, V-B:HIS:456:CE1:9040, V-B:LYS:547:CE:9921, V-A:HIS:456:CD2:4067, V-B:ARG:545:CD:9894, V-B:GLU:543:C:9873, V-B:ARG:545:CG:9893, H-A:ASP:473:OD2:4241, V-A:ASP:473:CG:4239, V-A:TYR:484:CB:4340, H-B:TYR:484:OH:9318, V-B:GLY:544:C:9883, V-B:ARG:545:CZ:9897, V-A:HIS:456:CB:4064, V-A:VAL:457:C:4072, V-A:HIS:456:C:4060, V-A:VAL:457:CA:4074, V-A:HIS:456:CG:4065, V-A:VAL:458:CG2:4086, V-A:LYS:471:CD:4218, V-B:ARG:545:CA:9890, H-B:GLY:454:N:9020"]

$$$$
RR10_Rahimova_2017
     RDKit          3D

 66 70  0  0  0  0  0  0  0  0999 V2000
  132.0440  116.7690   58.1250 C   0  0  0  0  0  0  0  0  0  0  0  0
  132.3210  117.4720   59.4650 C   0  0  1  0  0  0  0  0  0  0  0  0
  132.5360  118.9920   59.2850 C   0  0  0  0  0  0  0  0  0  0  0  0
  132.8480  119.6720   60.6380 C   0  0  0  0  0  0  0  0  0  0  0  0
  131.7260  119.4380   61.6820 C   0  0  1  0  0  0  0  0  0  0  0  0
  130.4980  120.1440   61.2930 N   0  0  0  0  0  0  0  0  0  0  0  0
  130.0810  121.3190   61.7990 C   0  0  0  0  0  0  0  0  0  0  0  0
  130.7170  121.9490   62.6480 O   0  0  0  0  0  0  0  0  0  0  0  0
  128.7330  121.8600   61.2770 C   0  0  1  0  0  0  0  0  0  0  0  0
  128.1510  122.8670   62.3030 C   0  0  0  0  0  0  0  0  0  0  0  0
  126.8470  123.4820   61.7410 C   0  0  0  0  0  0  0  0  0  0  0  0
  127.0310  124.0660   60.3210 C   0  0  0  0  0  0  0  0  0  0  0  0
  127.6520  123.0620   59.4160 N   0  0  0  0  0  0  0  0  0  0  0  0
  127.6380  123.5100   57.7020 S   0  0  0  0  0  0  0  0  0  0  0  0
  126.2400  123.6480   57.2780 O   0  0  0  0  0  0  0  0  0  0  0  0
  128.5400  122.5970   56.9900 O   0  0  0  0  0  0  0  0  0  0  0  0
  128.3580  125.1510   57.6450 C   0  0  0  0  0  0  0  0  0  0  0  0
  128.0040  126.0180   56.6060 C   0  0  0  0  0  0  0  0  0  0  0  0
  128.5310  127.3090   56.5020 C   0  0  0  0  0  0  0  0  0  0  0  0
  129.4340  127.6960   57.4950 C   0  0  0  0  0  0  0  0  0  0  0  0
  130.1510  128.8430   57.7350 N   0  0  0  0  0  0  0  0  0  0  0  0
  130.8930  128.6480   58.8820 C   0  0  0  0  0  0  0  0  0  0  0  0
  131.8150  129.6830   59.4610 C   0  0  0  0  0  0  0  0  0  0  0  0
  131.7280  130.0330   60.8150 C   0  0  0  0  0  0  0  0  0  0  0  0
  132.5850  130.9890   61.3540 C   0  0  0  0  0  0  0  0  0  0  0  0
  133.5340  131.6020   60.5400 C   0  0  0  0  0  0  0  0  0  0  0  0
  133.6340  131.2650   59.1940 C   0  0  0  0  0  0  0  0  0  0  0  0
  132.7770  130.3080   58.6560 C   0  0  0  0  0  0  0  0  0  0  0  0
  130.6970  127.4560   59.3990 N   0  0  0  0  0  0  0  0  0  0  0  0
  129.8020  126.8420   58.5630 C   0  0  0  0  0  0  0  0  0  0  0  0
  129.2550  125.5530   58.6420 C   0  0  0  0  0  0  0  0  0  0  0  0
  128.9560  122.5490   59.9080 C   0  0  0  0  0  0  0  0  0  0  0  0
  131.5100  117.9080   61.8400 C   0  0  0  0  0  0  0  0  0  0  0  0
  131.1900  117.2260   60.4910 C   0  0  0  0  0  0  0  0  0  0  0  0
  131.6468  115.7610   58.3150 H   0  0  0  0  0  0  0  0  0  0  0  0
  131.3079  117.3509   57.5509 H   0  0  0  0  0  0  0  0  0  0  0  0
  132.9792  116.6924   57.5509 H   0  0  0  0  0  0  0  0  0  0  0  0
  133.2498  117.0301   59.8549 H   0  0  0  0  0  0  0  0  0  0  0  0
  133.3782  119.1571   58.5969 H   0  0  0  0  0  0  0  0  0  0  0  0
  131.6132  119.4304   58.8772 H   0  0  0  0  0  0  0  0  0  0  0  0
  133.7898  119.2622   61.0319 H   0  0  0  0  0  0  0  0  0  0  0  0
  132.9260  120.7551   60.4622 H   0  0  0  0  0  0  0  0  0  0  0  0
  132.0194  119.8507   62.6585 H   0  0  0  0  0  0  0  0  0  0  0  0
  129.8730  119.6380   60.6830 H   0  0  0  0  0  0  0  0  0  0  0  0
  128.0191  121.0331   61.1483 H   0  0  0  0  0  0  0  0  0  0  0  0
  127.9330  122.3445   63.2461 H   0  0  0  0  0  0  0  0  0  0  0  0
  128.8834  123.6668   62.4871 H   0  0  0  0  0  0  0  0  0  0  0  0
  126.0755  122.6988   61.7030 H   0  0  0  0  0  0  0  0  0  0  0  0
  126.5533  124.3074   62.4061 H   0  0  0  0  0  0  0  0  0  0  0  0
  126.0486  124.3553   59.9195 H   0  0  0  0  0  0  0  0  0  0  0  0
  127.6917  124.9434   60.3823 H   0  0  0  0  0  0  0  0  0  0  0  0
  127.2876  125.6730   55.8459 H   0  0  0  0  0  0  0  0  0  0  0  0
  128.2492  127.9846   55.6810 H   0  0  0  0  0  0  0  0  0  0  0  0
  130.1720  129.6990   57.1990 H   0  0  0  0  0  0  0  0  0  0  0  0
  130.9772  129.5490   61.4569 H   0  0  0  0  0  0  0  0  0  0  0  0
  132.5127  131.2587   62.4180 H   0  0  0  0  0  0  0  0  0  0  0  0
  134.2100  132.3588   60.9647 H   0  0  0  0  0  0  0  0  0  0  0  0
  134.3869  131.7524   58.5572 H   0  0  0  0  0  0  0  0  0  0  0  0
  132.8558  130.0409   57.5918 H   0  0  0  0  0  0  0  0  0  0  0  0
  129.5237  124.8755   59.4659 H   0  0  0  0  0  0  0  0  0  0  0  0
  129.3629  121.8222   59.1896 H   0  0  0  0  0  0  0  0  0  0  0  0
  129.6686  123.3797   60.0178 H   0  0  0  0  0  0  0  0  0  0  0  0
  132.4253  117.4612   62.2555 H   0  0  0  0  0  0  0  0  0  0  0  0
  130.6519  117.7536   62.5106 H   0  0  0  0  0  0  0  0  0  0  0  0
  131.0794  116.1435   60.6522 H   0  0  0  0  0  0  0  0  0  0  0  0
  130.2572  117.6532   60.0943 H   0  0  0  0  0  0  0  0  0  0  0  0
  1  2  1  0
  2  3  1  0
  3  4  1  0
  4  5  1  0
  5  6  1  0
  6  7  1  0
  7  8  2  0
  7  9  1  0
  9 10  1  0
 10 11  1  0
 11 12  1  0
 12 13  1  0
 13 14  1  0
 14 15  2  0
 14 16  2  0
 14 17  1  0
 17 18  2  0
 18 19  1  0
 19 20  2  0
 20 21  1  0
 21 22  1  0
 22 23  1  0
 23 24  2  0
 24 25  1  0
 25 26  2  0
 26 27  1  0
 27 28  2  0
 22 29  2  0
 29 30  1  0
 30 31  2  0
 13 32  1  0
  5 33  1  0
 33 34  1  0
 34  2  1  0
 32  9  1  0
 31 17  1  0
 30 20  1  0
 28 23  1  0
  1 35  1  0
  1 36  1  0
  1 37  1  0
  2 38  1  1
  3 39  1  0
  3 40  1  0
  4 41  1  0
  4 42  1  0
  5 43  1  1
  6 44  1  0
  9 45  1  6
 10 46  1  0
 10 47  1  0
 11 48  1  0
 11 49  1  0
 12 50  1  0
 12 51  1  0
 18 52  1  0
 19 53  1  0
 21 54  1  0
 24 55  1  0
 25 56  1  0
 26 57  1  0
 27 58  1  0
 28 59  1  0
 31 60  1  0
 32 61  1  0
 32 62  1  0
 33 63  1  0
 33 64  1  0
 34 65  1  0
 34 66  1  0
M  END
>  <Binding energies>  (1) 
[-9.75]

>  <Ligand effiencies>  (1) 
[-0.2708333333333333]

>  <Interactions>  (1) 
["V-A:LEU:363:CA:3184, V-A:ASP:366:CG:3212, V-A:ASN:362:C:3171, V-A:PRO:540:CB:4884, V-A:ASP:366:CB:3211, H-A:TYR:531:OH:4794, V-A:PRO:540:CA:4882, V-B:ALA:541:CB:9863, V-B:PRO:540:CA:9854, V-B:PRO:540:C:9852, V-B:TYR:539:C:9838, V-A:LEU:475:CD2:4258, V-A:HIS:383:CE1:3393, H-B:TYR:539:O:9839, V-B:TYR:539:CD2:9845, V-A:ILE:369:CG2:3236, V-B:TYR:539:CE2:9847, V-B:TYR:539:CB:9842, V-A:SER:385:CA:3406, V-A:SER:385:CB:3408, V-A:LEU:373:CD1:3279, V-B:TYR:539:CG:9843, V-B:MET:535:CE:9806, V-A:PRO:482:CB:4325, V-A:LEU:373:CG:3278, V-A:LEU:373:CD2:3280, H-B:TYR:531:OH:9766, V-A:ASN:362:CB:3175, V-A:HIS:383:CG:3389, V-A:HIS:383:CB:3388"]

$$$$
RR11_Rahimova_2017
     RDKit          3D

 55 60  0  0  0  0  0  0  0  0999 V2000
  134.2650  122.4340   62.2940 N   0  0  0  0  0  0  0  0  0  0  0  0
  133.5540  123.3050   63.1180 C   0  0  0  0  0  0  0  0  0  0  0  0
  133.9730  124.6270   63.2550 C   0  0  0  0  0  0  0  0  0  0  0  0
  133.2610  125.4960   64.0760 C   0  0  0  0  0  0  0  0  0  0  0  0
  132.1250  125.0530   64.7670 C   0  0  0  0  0  0  0  0  0  0  0  0
  131.3550  125.9930   65.6470 C   0  0  0  0  0  0  0  0  0  0  0  0
  131.5560  126.1330   66.9400 N   0  0  0  0  0  0  0  0  0  0  0  0
  130.6600  127.0880   67.3430 C   0  0  0  0  0  0  0  0  0  0  0  0
  130.4530  127.6240   68.6220 C   0  0  0  0  0  0  0  0  0  0  0  0
  129.4770  128.6150   68.7780 C   0  0  0  0  0  0  0  0  0  0  0  0
  129.2250  129.2120   70.1560 C   0  0  0  0  0  0  0  0  0  0  0  0
  129.4270  128.2080   71.2830 C   0  0  0  0  0  0  0  0  0  0  0  0
  129.8900  128.6540   72.5260 C   0  0  0  0  0  0  0  0  0  0  0  0
  130.0830  127.7740   73.5930 C   0  0  0  0  0  0  0  0  0  0  0  0
  129.7920  126.4180   73.3920 C   0  0  0  0  0  0  0  0  0  0  0  0
  129.9030  125.3670   74.2650 N   0  0  0  0  0  0  0  0  0  0  0  0
  129.5120  124.3090   73.5870 C   0  0  0  0  0  0  0  0  0  0  0  0
  129.4790  122.9120   74.1370 C   0  0  0  0  0  0  0  0  0  0  0  0
  130.6560  122.2970   74.5830 C   0  0  0  0  0  0  0  0  0  0  0  0
  130.6280  120.9970   75.0840 C   0  0  0  0  0  0  0  0  0  0  0  0
  129.4210  120.3040   75.1420 C   0  0  0  0  0  0  0  0  0  0  0  0
  129.3920  119.0020   75.6380 N   0  0  0  0  0  0  0  0  0  0  0  0
  128.2430  120.9050   74.7060 C   0  0  0  0  0  0  0  0  0  0  0  0
  128.2720  122.2040   74.2050 C   0  0  0  0  0  0  0  0  0  0  0  0
  129.1420  124.6300   72.2980 N   0  0  0  0  0  0  0  0  0  0  0  0
  129.3120  125.9840   72.1330 C   0  0  0  0  0  0  0  0  0  0  0  0
  129.1120  126.8610   71.0630 C   0  0  0  0  0  0  0  0  0  0  0  0
  128.7100  129.0400   67.6860 C   0  0  0  0  0  0  0  0  0  0  0  0
  128.8900  128.5220   66.4010 C   0  0  0  0  0  0  0  0  0  0  0  0
  129.8780  127.5460   66.2570 C   0  0  0  0  0  0  0  0  0  0  0  0
  130.3500  126.8190   65.1890 N   0  0  0  0  0  0  0  0  0  0  0  0
  131.7170  123.7200   64.6210 C   0  0  0  0  0  0  0  0  0  0  0  0
  132.4270  122.8490   63.8000 C   0  0  0  0  0  0  0  0  0  0  0  0
  133.9700  122.3040   61.3360 H   0  0  0  0  0  0  0  0  0  0  0  0
  135.0910  121.9760   62.6510 H   0  0  0  0  0  0  0  0  0  0  0  0
  134.8636  124.9823   62.7159 H   0  0  0  0  0  0  0  0  0  0  0  0
  133.5925  126.5393   64.1836 H   0  0  0  0  0  0  0  0  0  0  0  0
  131.0432  127.2742   69.4818 H   0  0  0  0  0  0  0  0  0  0  0  0
  129.9183  130.0526   70.3064 H   0  0  0  0  0  0  0  0  0  0  0  0
  128.1746  129.5369   70.1878 H   0  0  0  0  0  0  0  0  0  0  0  0
  130.1071  129.7232   72.6659 H   0  0  0  0  0  0  0  0  0  0  0  0
  130.4530  128.1351   74.5639 H   0  0  0  0  0  0  0  0  0  0  0  0
  131.6091  122.8442   74.5374 H   0  0  0  0  0  0  0  0  0  0  0  0
  131.5558  120.5197   75.4325 H   0  0  0  0  0  0  0  0  0  0  0  0
  129.3920  118.8500   76.6370 H   0  0  0  0  0  0  0  0  0  0  0  0
  129.3360  118.2250   74.9940 H   0  0  0  0  0  0  0  0  0  0  0  0
  127.2918  120.3550   74.7572 H   0  0  0  0  0  0  0  0  0  0  0  0
  127.3408  122.6774   73.8603 H   0  0  0  0  0  0  0  0  0  0  0  0
  128.8150  123.9490   71.6280 H   0  0  0  0  0  0  0  0  0  0  0  0
  128.7258  126.5101   70.0946 H   0  0  0  0  0  0  0  0  0  0  0  0
  127.9391  129.8083   67.8456 H   0  0  0  0  0  0  0  0  0  0  0  0
  128.2856  128.8648   65.5482 H   0  0  0  0  0  0  0  0  0  0  0  0
  130.0540  126.8500   64.2250 H   0  0  0  0  0  0  0  0  0  0  0  0
  130.8283  123.3594   65.1598 H   0  0  0  0  0  0  0  0  0  0  0  0
  132.1001  121.8045   63.6896 H   0  0  0  0  0  0  0  0  0  0  0  0
  1  2  1  0
  2  3  2  0
  3  4  1  0
  4  5  2  0
  5  6  1  0
  6  7  2  0
  7  8  1  0
  8  9  2  0
  9 10  1  0
 10 11  1  0
 11 12  1  0
 12 13  2  0
 13 14  1  0
 14 15  2  0
 15 16  1  0
 16 17  2  0
 17 18  1  0
 18 19  2  0
 19 20  1  0
 20 21  2  0
 21 22  1  0
 21 23  1  0
 23 24  2  0
 17 25  1  0
 25 26  1  0
 26 27  2  0
 10 28  2  0
 28 29  1  0
 29 30  2  0
 30 31  1  0
  5 32  1  0
 32 33  2  0
 33  2  1  0
 31  6  1  0
 30  8  1  0
 27 12  1  0
 26 15  1  0
 24 18  1  0
  1 34  1  0
  1 35  1  0
  3 36  1  0
  4 37  1  0
  9 38  1  0
 11 39  1  0
 11 40  1  0
 13 41  1  0
 14 42  1  0
 19 43  1  0
 20 44  1  0
 22 45  1  0
 22 46  1  0
 23 47  1  0
 24 48  1  0
 25 49  1  0
 27 50  1  0
 28 51  1  0
 29 52  1  0
 31 53  1  0
 32 54  1  0
 33 55  1  0
M  END
>  <Binding energies>  (1) 
[-8.61]

>  <Ligand effiencies>  (1) 
[-0.22076923076923075]

>  <Interactions>  (1) 
["V-A:ASP:366:CG:3212, V-B:GLU:543:CD:9879, H-A:TYR:484:OH:4347, H-B:GLU:543:OE2:9881, V-A:LEU:475:CD2:4258, V-A:ILE:369:CD1:3238, V-A:GLY:454:CA:4048, V-A:GLY:453:C:4041, V-A:ARG:545:CZ:4925, V-A:HIS:456:CE1:4069, H-A:HIS:456:NE2:4070, H-B:GLU:543:O:9874, V-A:GLU:543:CD:4907, V-B:HIS:456:CE1:9040, V-B:LYS:547:CE:9921, H-B:LYS:547:NZ:9922, V-A:HIS:456:CD2:4067, V-B:GLU:543:C:9873, V-A:GLU:543:CG:4906, V-A:ASP:473:CG:4239, V-A:TYR:484:CB:4340, V-A:TYR:484:C:4336, V-A:GLU:543:CB:4905, V-A:GLU:543:C:4901, V-A:GLY:453:CA:4043, H-A:SER:385:O:3405, H-A:ASP:485:OD2:4357, H-A:TYR:484:O:4337"]

$$$$
RR11_Rahimova_2017-again1
     RDKit          3D

 56 61  0  0  0  0  0  0  0  0999 V2000
  129.1000  118.9780   75.6130 N   0  0  0  0  0  0  0  0  0  0  0  0
  129.1700  120.2770   75.1110 C   0  0  0  0  0  0  0  0  0  0  0  0
  128.0200  120.8970   74.6280 C   0  0  0  0  0  0  0  0  0  0  0  0
  128.0930  122.1940   74.1240 C   0  0  0  0  0  0  0  0  0  0  0  0
  129.3140  122.8790   74.0990 C   0  0  0  0  0  0  0  0  0  0  0  0
  129.3930  124.2730   73.5470 C   0  0  0  0  0  0  0  0  0  0  0  0
  129.7140  125.3340   74.2540 N   0  0  0  0  0  0  0  0  0  0  0  0
  129.6450  126.3870   73.3800 C   0  0  0  0  0  0  0  0  0  0  0  0
  129.8850  127.7480   73.6090 C   0  0  0  0  0  0  0  0  0  0  0  0
  129.7300  128.6330   72.5410 C   0  0  0  0  0  0  0  0  0  0  0  0
  129.3440  128.1890   71.2710 C   0  0  0  0  0  0  0  0  0  0  0  0
  129.1850  129.1980   70.1420 C   0  0  0  0  0  0  0  0  0  0  0  0
  129.4470  128.5900   68.7710 C   0  0  0  0  0  0  0  0  0  0  0  0
  128.6800  129.0010   67.6750 C   0  0  0  0  0  0  0  0  0  0  0  0
  128.8730  128.4770   66.3940 C   0  0  0  0  0  0  0  0  0  0  0  0
  129.8790  127.5180   66.2550 C   0  0  0  0  0  0  0  0  0  0  0  0
  130.3250  126.7960   65.1550 N   0  0  0  0  0  0  0  0  0  0  0  0
  131.3500  125.9560   65.5250 C   0  0  0  0  0  0  0  0  0  0  0  0
  132.0900  125.0000   64.6460 C   0  0  0  0  0  0  0  0  0  0  0  0
  133.2220  125.4270   63.9420 C   0  0  0  0  0  0  0  0  0  0  0  0
  133.9200  124.5390   63.1280 C   0  0  0  0  0  0  0  0  0  0  0  0
  133.4890  123.2190   63.0150 C   0  0  0  0  0  0  0  0  0  0  0  0
  134.1920  122.3290   62.2030 N   0  0  0  0  0  0  0  0  0  0  0  0
  132.3630  122.7830   63.7110 C   0  0  0  0  0  0  0  0  0  0  0  0
  131.6650  123.6720   64.5240 C   0  0  0  0  0  0  0  0  0  0  0  0
  131.5530  126.1610   66.8700 N   0  0  0  0  0  0  0  0  0  0  0  0
  130.6620  127.1110   67.3480 C   0  0  0  0  0  0  0  0  0  0  0  0
  130.4690  127.6430   68.6260 C   0  0  0  0  0  0  0  0  0  0  0  0
  129.1210  126.8300   71.0110 C   0  0  0  0  0  0  0  0  0  0  0  0
  129.2700  125.9510   72.0870 C   0  0  0  0  0  0  0  0  0  0  0  0
  129.1240  124.5910   72.2330 N   0  0  0  0  0  0  0  0  0  0  0  0
  130.4620  122.2440   74.5900 C   0  0  0  0  0  0  0  0  0  0  0  0
  130.3910  120.9480   75.0950 C   0  0  0  0  0  0  0  0  0  0  0  0
  129.0960  118.8320   76.6120 H   0  0  0  0  0  0  0  0  0  0  0  0
  129.0940  118.1980   74.9720 H   0  0  0  0  0  0  0  0  0  0  0  0
  127.0576  120.3646   74.6444 H   0  0  0  0  0  0  0  0  0  0  0  0
  127.1846  122.6835   73.7429 H   0  0  0  0  0  0  0  0  0  0  0  0
  130.1873  128.1092   74.6031 H   0  0  0  0  0  0  0  0  0  0  0  0
  129.9157  129.7053   72.7012 H   0  0  0  0  0  0  0  0  0  0  0  0
  128.1576  129.5905   70.1626 H   0  0  0  0  0  0  0  0  0  0  0  0
  129.9273  129.9942   70.3003 H   0  0  0  0  0  0  0  0  0  0  0  0
  127.8997  129.7613   67.8268 H   0  0  0  0  0  0  0  0  0  0  0  0
  128.2635  128.8033   65.5384 H   0  0  0  0  0  0  0  0  0  0  0  0
  129.9760  126.8410   64.2090 H   0  0  0  0  0  0  0  0  0  0  0  0
  133.5618  126.4693   64.0323 H   0  0  0  0  0  0  0  0  0  0  0  0
  134.8088  124.8785   62.5759 H   0  0  0  0  0  0  0  0  0  0  0  0
  134.7840  121.6290   62.6280 H   0  0  0  0  0  0  0  0  0  0  0  0
  134.1250  122.4130   61.1990 H   0  0  0  0  0  0  0  0  0  0  0  0
  132.0268  121.7398   63.6183 H   0  0  0  0  0  0  0  0  0  0  0  0
  130.7755  123.3292   65.0729 H   0  0  0  0  0  0  0  0  0  0  0  0
  132.2580  125.6610   67.3910 H   0  0  0  0  0  0  0  0  0  0  0  0
  131.0909  127.3324   69.4785 H   0  0  0  0  0  0  0  0  0  0  0  0
  128.8422  126.4727   70.0087 H   0  0  0  0  0  0  0  0  0  0  0  0
  128.8600  123.9070   71.5390 H   0  0  0  0  0  0  0  0  0  0  0  0
  131.4265  122.7728   74.5766 H   0  0  0  0  0  0  0  0  0  0  0  0
  131.2961  120.4556   75.4801 H   0  0  0  0  0  0  0  0  0  0  0  0
  1  2  1  0
  2  3  2  0
  3  4  1  0
  4  5  2  0
  5  6  1  0
  6  7  2  0
  7  8  1  0
  8  9  2  0
  9 10  1  0
 10 11  2  0
 11 12  1  0
 12 13  1  0
 13 14  2  0
 14 15  1  0
 15 16  2  0
 16 17  1  0
 17 18  1  0
 18 19  1  0
 19 20  2  0
 20 21  1  0
 21 22  2  0
 22 23  1  0
 22 24  1  0
 24 25  2  0
 18 26  2  0
 26 27  1  0
 27 28  2  0
 11 29  1  0
 29 30  2  0
 30 31  1  0
  5 32  1  0
 32 33  2  0
 33  2  1  0
 31  6  1  0
 30  8  1  0
 28 13  1  0
 27 16  1  0
 25 19  1  0
  1 34  1  0
  1 35  1  0
  3 36  1  0
  4 37  1  0
  9 38  1  0
 10 39  1  0
 12 40  1  0
 12 41  1  0
 14 42  1  0
 15 43  1  0
 17 44  1  0
 20 45  1  0
 21 46  1  0
 23 47  1  0
 23 48  1  0
 24 49  1  0
 25 50  1  0
 26 51  1  0
 28 52  1  0
 29 53  1  0
 31 54  1  0
 32 55  1  0
 33 56  1  0
M  CHG  1  26   1
M  END
>  <Binding energies>  (1) 
[-9.52]

>  <Ligand effiencies>  (1) 
[-0.238]

>  <Interactions>  (1) 
["V-A:ASP:366:CG:3212, V-B:GLU:543:CD:9879, H-A:TYR:484:OH:4347, H-B:GLU:543:OE2:9881, V-A:LEU:475:CD2:4258, V-A:ILE:369:CD1:3238, V-A:GLY:454:CA:4048, V-A:GLY:453:C:4041, V-A:ARG:545:CZ:4925, V-A:HIS:456:CE1:4069, H-A:HIS:456:NE2:4070, H-B:GLU:543:O:9874, V-A:GLU:543:CD:4907, V-B:HIS:456:CE1:9040, V-B:LYS:547:CE:9921, H-B:LYS:547:NZ:9922, V-A:HIS:456:CD2:4067, V-B:GLU:543:C:9873, V-A:GLU:543:CG:4906, V-A:ASP:473:CG:4239, V-A:TYR:484:CB:4340, V-A:TYR:484:C:4336, V-A:GLU:543:CB:4905, V-A:GLU:543:C:4901, H-A:SER:385:O:3405, H-A:ASP:485:OD2:4357, H-A:TYR:484:O:4337"]

$$$$
RR11_Rahimova_2017-again2
     RDKit          3D

 57 62  0  0  0  0  0  0  0  0999 V2000
  134.7530  130.8330   57.3630 N   0  0  0  0  0  0  0  0  0  0  0  0
  133.5330  131.1580   57.9530 C   0  0  0  0  0  0  0  0  0  0  0  0
  133.1280  130.5060   59.1150 C   0  0  0  0  0  0  0  0  0  0  0  0
  131.9060  130.8270   59.7000 C   0  0  0  0  0  0  0  0  0  0  0  0
  131.0820  131.8040   59.1260 C   0  0  0  0  0  0  0  0  0  0  0  0
  129.7660  132.1420   59.7480 C   0  0  0  0  0  0  0  0  0  0  0  0
  129.3420  131.8030   61.0130 N   0  0  0  0  0  0  0  0  0  0  0  0
  128.0700  132.3110   61.2410 C   0  0  0  0  0  0  0  0  0  0  0  0
  127.2290  132.2460   62.3550 C   0  0  0  0  0  0  0  0  0  0  0  0
  125.9940  132.8990   62.2560 C   0  0  0  0  0  0  0  0  0  0  0  0
  125.0360  132.8680   63.4400 C   0  0  0  0  0  0  0  0  0  0  0  0
  125.1360  131.5790   64.2450 C   0  0  0  0  0  0  0  0  0  0  0  0
  124.3080  130.4970   63.9210 C   0  0  0  0  0  0  0  0  0  0  0  0
  124.3530  129.2910   64.6240 C   0  0  0  0  0  0  0  0  0  0  0  0
  125.2740  129.2100   65.6710 C   0  0  0  0  0  0  0  0  0  0  0  0
  125.5720  128.1890   66.5640 N   0  0  0  0  0  0  0  0  0  0  0  0
  126.5640  128.5900   67.4280 C   0  0  0  0  0  0  0  0  0  0  0  0
  127.1560  127.7940   68.5460 C   0  0  0  0  0  0  0  0  0  0  0  0
  126.3360  127.2720   69.5520 C   0  0  0  0  0  0  0  0  0  0  0  0
  126.8860  126.5210   70.5880 C   0  0  0  0  0  0  0  0  0  0  0  0
  128.2600  126.2890   70.6220 C   0  0  0  0  0  0  0  0  0  0  0  0
  128.8110  125.5330   71.6560 N   0  0  0  0  0  0  0  0  0  0  0  0
  129.0870  126.8080   69.6270 C   0  0  0  0  0  0  0  0  0  0  0  0
  128.5360  127.5580   68.5910 C   0  0  0  0  0  0  0  0  0  0  0  0
  126.8970  129.8740   67.0660 N   0  0  0  0  0  0  0  0  0  0  0  0
  126.1180  130.2860   65.9920 C   0  0  0  0  0  0  0  0  0  0  0  0
  126.0730  131.4890   65.2820 C   0  0  0  0  0  0  0  0  0  0  0  0
  125.6140  133.5580   61.0810 C   0  0  0  0  0  0  0  0  0  0  0  0
  126.4480  133.6200   59.9620 C   0  0  0  0  0  0  0  0  0  0  0  0
  127.6880  132.9850   60.0690 C   0  0  0  0  0  0  0  0  0  0  0  0
  128.7440  132.8630   59.1760 N   0  0  0  0  0  0  0  0  0  0  0  0
  131.5010  132.4560   57.9600 C   0  0  0  0  0  0  0  0  0  0  0  0
  132.7230  132.1350   57.3750 C   0  0  0  0  0  0  0  0  0  0  0  0
  135.1270  129.9010   57.4760 H   0  0  0  0  0  0  0  0  0  0  0  0
  135.2830  131.5490   56.8860 H   0  0  0  0  0  0  0  0  0  0  0  0
  133.7722  129.7390   59.5697 H   0  0  0  0  0  0  0  0  0  0  0  0
  131.5860  130.3111   60.6173 H   0  0  0  0  0  0  0  0  0  0  0  0
  129.9130  131.2660   61.6480 H   0  0  0  0  0  0  0  0  0  0  0  0
  127.5233  131.7069   63.2675 H   0  0  0  0  0  0  0  0  0  0  0  0
  125.2679  133.7151   64.1023 H   0  0  0  0  0  0  0  0  0  0  0  0
  124.0130  132.9312   63.0407 H   0  0  0  0  0  0  0  0  0  0  0  0
  123.5994  130.6003   63.0860 H   0  0  0  0  0  0  0  0  0  0  0  0
  123.6961  128.4473   64.3661 H   0  0  0  0  0  0  0  0  0  0  0  0
  125.1470  127.2740   66.6150 H   0  0  0  0  0  0  0  0  0  0  0  0
  125.2518  127.4555   69.5247 H   0  0  0  0  0  0  0  0  0  0  0  0
  126.2379  126.1121   71.3772 H   0  0  0  0  0  0  0  0  0  0  0  0
  129.2950  125.9980   72.4100 H   0  0  0  0  0  0  0  0  0  0  0  0
  128.7760  124.5250   71.6060 H   0  0  0  0  0  0  0  0  0  0  0  0
  130.1713  126.6257   69.6601 H   0  0  0  0  0  0  0  0  0  0  0  0
  129.1874  127.9669   67.8045 H   0  0  0  0  0  0  0  0  0  0  0  0
  127.6090  130.4050   67.5480 H   0  0  0  0  0  0  0  0  0  0  0  0
  126.7428  132.3267   65.5264 H   0  0  0  0  0  0  0  0  0  0  0  0
  124.6274  134.0424   61.0374 H   0  0  0  0  0  0  0  0  0  0  0  0
  126.1438  134.1424   59.0430 H   0  0  0  0  0  0  0  0  0  0  0  0
  128.8040  133.2330   58.2390 H   0  0  0  0  0  0  0  0  0  0  0  0
  130.8614  133.2259   57.5037 H   0  0  0  0  0  0  0  0  0  0  0  0
  133.0486  132.6506   56.4595 H   0  0  0  0  0  0  0  0  0  0  0  0
  1  2  1  0
  2  3  2  0
  3  4  1  0
  4  5  2  0
  5  6  1  0
  6  7  1  0
  7  8  1  0
  8  9  2  0
  9 10  1  0
 10 11  1  0
 11 12  1  0
 12 13  2  0
 13 14  1  0
 14 15  2  0
 15 16  1  0
 16 17  1  0
 17 18  1  0
 18 19  2  0
 19 20  1  0
 20 21  2  0
 21 22  1  0
 21 23  1  0
 23 24  2  0
 17 25  2  0
 25 26  1  0
 26 27  2  0
 10 28  2  0
 28 29  1  0
 29 30  2  0
 30 31  1  0
  5 32  1  0
 32 33  2  0
 33  2  1  0
 31  6  2  0
 30  8  1  0
 27 12  1  0
 26 15  1  0
 24 18  1  0
  1 34  1  0
  1 35  1  0
  3 36  1  0
  4 37  1  0
  7 38  1  0
  9 39  1  0
 11 40  1  0
 11 41  1  0
 13 42  1  0
 14 43  1  0
 16 44  1  0
 19 45  1  0
 20 46  1  0
 22 47  1  0
 22 48  1  0
 23 49  1  0
 24 50  1  0
 25 51  1  0
 27 52  1  0
 28 53  1  0
 29 54  1  0
 31 55  1  0
 32 56  1  0
 33 57  1  0
M  CHG  2  25   1  31   1
M  END
>  <Binding energies>  (1) 
[-8.95]

>  <Ligand effiencies>  (1) 
[-0.21829268292682924]

>  <Interactions>  (1) 
["V-A:LEU:363:CA:3184, V-A:ASP:366:CG:3212, V-A:PRO:540:CB:4884, V-A:TYR:539:CE1:4874, H-A:GLU:543:OE2:4909, V-A:TYR:539:CD1:4872, V-A:ASP:366:CB:3211, V-A:PRO:540:CA:4882, V-A:TYR:531:CE2:4792, V-A:TYR:531:CZ:4793, V-A:LEU:363:C:3182, V-A:LEU:363:CD1:3188, V-B:GLU:543:CD:9879, H-B:GLU:543:OE2:9881, H-B:GLU:543:OE1:9880, V-A:HIS:456:CE1:4069, H-A:HIS:456:NE2:4070, H-B:GLU:543:O:9874, V-B:GLU:543:CB:9877, V-B:HIS:456:CE1:9040, V-B:TYR:484:CZ:9317, V-A:HIS:456:CD2:4067, V-B:ARG:545:CD:9894, V-B:GLU:543:C:9873, V-B:ARG:545:CG:9893, H-B:TYR:484:OH:9318, V-B:GLY:544:C:9883, V-A:PRO:540:N:4883, V-A:TYR:539:C:4866, V-A:LEU:363:CB:3186, V-B:TYR:484:CE2:9316, V-B:ARG:545:CZ:9897, V-B:LEU:475:CD1:9228, V-B:GLY:454:CA:9019, H-A:TYR:539:O:4867, V-A:LEU:363:CG:3187, H-A:LEU:363:O:3183, H-A:ASN:362:O:3172"]

$$$$
RR12_Rahimova_2017
     RDKit          3D

 51 53  0  0  0  0  0  0  0  0999 V2000
  133.3000  123.9050   59.3160 C   0  0  0  0  0  0  0  0  0  0  0  0
  132.2890  123.4970   60.3960 C   0  0  0  0  0  0  0  0  0  0  0  0
  132.8460  122.4290   61.3550 C   0  0  0  0  0  0  0  0  0  0  0  0
  131.9730  121.2590   61.3920 N   0  0  0  0  0  0  0  0  0  0  0  0
  130.7480  121.1400   62.0300 C   0  0  0  0  0  0  0  0  0  0  0  0
  130.1170  122.2400   62.8650 C   0  0  0  0  0  0  0  0  0  0  0  0
  128.6090  122.3940   62.5910 C   0  0  0  0  0  0  0  0  0  0  0  0
  128.1460  123.8630   62.6190 C   0  0  0  0  0  0  0  0  0  0  0  0
  127.1310  124.1810   61.6150 N   0  0  0  0  0  0  0  0  0  0  0  0
  125.8500  123.7740   61.6560 C   0  0  0  0  0  0  0  0  0  0  0  0
  125.3930  123.0720   62.5610 O   0  0  0  0  0  0  0  0  0  0  0  0
  124.9670  124.2420   60.4930 C   0  0  0  0  0  0  0  0  0  0  0  0
  125.7930  124.7030   59.4230 O   0  0  0  0  0  0  0  0  0  0  0  0
  125.9910  123.8920   58.3220 C   0  0  0  0  0  0  0  0  0  0  0  0
  124.8920  123.7110   57.4790 C   0  0  0  0  0  0  0  0  0  0  0  0
  124.9950  122.9130   56.3430 C   0  0  0  0  0  0  0  0  0  0  0  0
  126.2040  122.2920   56.0450 C   0  0  0  0  0  0  0  0  0  0  0  0
  127.3100  122.4590   56.8760 C   0  0  0  0  0  0  0  0  0  0  0  0
  127.2050  123.2570   58.0130 C   0  0  0  0  0  0  0  0  0  0  0  0
  130.1850  119.9690   61.8590 N   0  0  0  0  0  0  0  0  0  0  0  0
  131.0480  119.2780   61.0550 C   0  0  0  0  0  0  0  0  0  0  0  0
  130.9320  117.9750   60.5490 C   0  0  0  0  0  0  0  0  0  0  0  0
  131.9560  117.4930   59.7330 C   0  0  0  0  0  0  0  0  0  0  0  0
  133.0670  118.2780   59.4250 C   0  0  0  0  0  0  0  0  0  0  0  0
  133.2130  119.5780   59.9140 C   0  0  0  0  0  0  0  0  0  0  0  0
  132.1850  120.0610   60.7330 C   0  0  0  0  0  0  0  0  0  0  0  0
  134.2184  124.2756   59.7947 H   0  0  0  0  0  0  0  0  0  0  0  0
  133.5393  123.0330   58.6896 H   0  0  0  0  0  0  0  0  0  0  0  0
  132.8670  124.6988   58.6896 H   0  0  0  0  0  0  0  0  0  0  0  0
  132.0187  124.3888   60.9805 H   0  0  0  0  0  0  0  0  0  0  0  0
  131.4145  123.0648   59.8876 H   0  0  0  0  0  0  0  0  0  0  0  0
  133.8453  122.1226   61.0122 H   0  0  0  0  0  0  0  0  0  0  0  0
  132.9029  122.8584   62.3661 H   0  0  0  0  0  0  0  0  0  0  0  0
  130.2601  122.0017   63.9293 H   0  0  0  0  0  0  0  0  0  0  0  0
  130.6053  123.1879   62.5948 H   0  0  0  0  0  0  0  0  0  0  0  0
  128.3870  121.9740   61.5988 H   0  0  0  0  0  0  0  0  0  0  0  0
  128.0706  121.8610   63.3885 H   0  0  0  0  0  0  0  0  0  0  0  0
  127.7283  124.0761   63.6141 H   0  0  0  0  0  0  0  0  0  0  0  0
  129.0269  124.4811   62.3911 H   0  0  0  0  0  0  0  0  0  0  0  0
  127.4330  124.7570   60.8420 H   0  0  0  0  0  0  0  0  0  0  0  0
  124.3474  123.4033   60.1426 H   0  0  0  0  0  0  0  0  0  0  0  0
  124.3168  125.0615   60.8333 H   0  0  0  0  0  0  0  0  0  0  0  0
  123.9370  124.2033   57.7148 H   0  0  0  0  0  0  0  0  0  0  0  0
  124.1251  122.7741   55.6843 H   0  0  0  0  0  0  0  0  0  0  0  0
  126.2874  121.6639   55.1458 H   0  0  0  0  0  0  0  0  0  0  0  0
  128.2618  121.9629   56.6353 H   0  0  0  0  0  0  0  0  0  0  0  0
  128.0762  123.3903   58.6713 H   0  0  0  0  0  0  0  0  0  0  0  0
  130.0585  117.3508   60.7887 H   0  0  0  0  0  0  0  0  0  0  0  0
  131.8857  116.4740   59.3246 H   0  0  0  0  0  0  0  0  0  0  0  0
  133.8520  117.8605   58.7773 H   0  0  0  0  0  0  0  0  0  0  0  0
  134.0919  120.1920   59.6680 H   0  0  0  0  0  0  0  0  0  0  0  0
  1  2  1  0
  2  3  1  0
  3  4  1  0
  4  5  1  0
  5  6  1  0
  6  7  1  0
  7  8  1  0
  8  9  1  0
  9 10  1  0
 10 11  2  0
 10 12  1  0
 12 13  1  0
 13 14  1  0
 14 15  2  0
 15 16  1  0
 16 17  2  0
 17 18  1  0
 18 19  2  0
  5 20  2  0
 20 21  1  0
 21 22  2  0
 22 23  1  0
 23 24  2  0
 24 25  1  0
 25 26  2  0
 26  4  1  0
 19 14  1  0
 26 21  1  0
  1 27  1  0
  1 28  1  0
  1 29  1  0
  2 30  1  0
  2 31  1  0
  3 32  1  0
  3 33  1  0
  6 34  1  0
  6 35  1  0
  7 36  1  0
  7 37  1  0
  8 38  1  0
  8 39  1  0
  9 40  1  0
 12 41  1  0
 12 42  1  0
 15 43  1  0
 16 44  1  0
 17 45  1  0
 18 46  1  0
 19 47  1  0
 22 48  1  0
 23 49  1  0
 24 50  1  0
 25 51  1  0
M  END
>  <Binding energies>  (1) 
[-7.66]

>  <Ligand effiencies>  (1) 
[-0.28370370370370374]

>  <Interactions>  (1) 
["V-A:ASP:366:CG:3212, V-B:GLU:543:CD:9879, V-B:PRO:540:N:9855, H-B:ALA:541:N:9862, V-B:ALA:541:CB:9863, V-B:PRO:540:CA:9854, V-B:ALA:541:CA:9861, V-B:TYR:539:C:9838, V-A:LEU:475:CD2:4258, V-A:HIS:383:CE1:3393, V-A:ILE:369:CD1:3238, V-B:TYR:539:CD2:9845, V-A:ILE:369:CG2:3236, V-B:TYR:539:CE2:9847, V-B:TYR:539:CB:9842, V-A:SER:385:CA:3406, V-B:TYR:539:CG:9843, V-B:MET:535:CE:9806, V-B:PRO:540:CB:9856, V-B:TYR:539:CA:9840, V-B:TYR:539:CD1:9844, V-B:TYR:531:CZ:9765, V-B:PRO:540:CD:9858, V-B:TYR:531:CE2:9764, V-B:LEU:363:CD1:8159, V-B:ILE:538:CA:9831, V-B:ILE:538:C:9829, V-A:LEU:373:CD2:3280, V-A:VAL:384:C:3396, V-A:ILE:369:CB:3235"]

$$$$
RR13_Rahimova_2017
     RDKit          3D

 84 90  0  0  0  0  0  0  0  0999 V2000
  127.4770  131.3710   58.4440 Cl  0  0  0  0  0  0  0  0  0  0  0  0
  127.6320  132.0960   60.0090 C   0  0  0  0  0  0  0  0  0  0  0  0
  126.5340  132.7970   60.5130 C   0  0  0  0  0  0  0  0  0  0  0  0
  126.6030  133.4210   61.7550 C   0  0  0  0  0  0  0  0  0  0  0  0
  127.7750  133.3500   62.5030 C   0  0  0  0  0  0  0  0  0  0  0  0
  128.8750  132.6530   62.0080 C   0  0  0  0  0  0  0  0  0  0  0  0
  128.8210  132.0070   60.7610 C   0  0  0  0  0  0  0  0  0  0  0  0
  130.0620  131.2620   60.2230 C   0  0  1  0  0  0  0  0  0  0  0  0
  131.3370  131.7190   60.9470 C   0  0  0  0  0  0  0  0  0  0  0  0
  131.4170  132.1990   62.1690 N   0  0  0  0  0  0  0  0  0  0  0  0
  132.7610  132.4960   62.3740 N   0  0  0  0  0  0  0  0  0  0  0  0
  133.4910  132.2010   61.2390 N   0  0  0  0  0  0  0  0  0  0  0  0
  132.5860  131.7460   60.3650 N   0  0  0  0  0  0  0  0  0  0  0  0
  133.0010  131.2930   59.0420 C   0  0  0  0  0  0  0  0  0  0  0  0
  133.2760  132.5010   58.1260 C   0  0  0  0  0  0  0  0  0  0  0  0
  132.0690  132.8610   57.2740 C   0  0  0  0  0  0  0  0  0  0  0  0
  130.8440  133.1470   57.8840 C   0  0  0  0  0  0  0  0  0  0  0  0
  129.7380  133.4690   57.1030 C   0  0  0  0  0  0  0  0  0  0  0  0
  129.8600  133.5060   55.7150 C   0  0  0  0  0  0  0  0  0  0  0  0
  131.0780  133.2220   55.1010 C   0  0  0  0  0  0  0  0  0  0  0  0
  132.1850  132.8980   55.8820 C   0  0  0  0  0  0  0  0  0  0  0  0
  129.9110  129.7870   60.2220 N   0  0  0  0  0  0  0  0  0  0  0  0
  130.7970  129.1750   61.2300 C   0  0  0  0  0  0  0  0  0  0  0  0
  130.5490  127.6520   61.3270 C   0  0  0  0  0  0  0  0  0  0  0  0
  130.8310  126.9960   60.0400 N   0  0  0  0  0  0  0  0  0  0  0  0
  130.6850  125.5240   60.1100 C   0  0  1  0  0  0  0  0  0  0  0  0
  129.4110  124.9490   59.4540 C   0  0  0  0  0  0  0  0  0  0  0  0
  129.4810  124.6270   58.0910 C   0  0  0  0  0  0  0  0  0  0  0  0
  128.3850  124.0870   57.4210 C   0  0  0  0  0  0  0  0  0  0  0  0
  127.1930  123.8660   58.1050 C   0  0  0  0  0  0  0  0  0  0  0  0
  127.0970  124.1940   59.4540 C   0  0  0  0  0  0  0  0  0  0  0  0
  128.1880  124.7390   60.1340 C   0  0  0  0  0  0  0  0  0  0  0  0
  127.9470  125.1770   61.7920 Cl  0  0  0  0  0  0  0  0  0  0  0  0
  131.9200  124.7730   59.6060 C   0  0  0  0  0  0  0  0  0  0  0  0
  132.5440  125.0050   58.4750 N   0  0  0  0  0  0  0  0  0  0  0  0
  133.6080  124.1100   58.4350 N   0  0  0  0  0  0  0  0  0  0  0  0
  133.6220  123.3400   59.5800 N   0  0  0  0  0  0  0  0  0  0  0  0
  132.5830  123.7810   60.2980 N   0  0  0  0  0  0  0  0  0  0  0  0
  132.2730  123.1700   61.5860 C   0  0  0  0  0  0  0  0  0  0  0  0
  131.0880  122.1970   61.4480 C   0  0  0  0  0  0  0  0  0  0  0  0
  131.5440  120.7740   61.1640 C   0  0  0  0  0  0  0  0  0  0  0  0
  130.6740  119.7040   61.3910 C   0  0  0  0  0  0  0  0  0  0  0  0
  131.0890  118.4020   61.1250 C   0  0  0  0  0  0  0  0  0  0  0  0
  132.3740  118.1740   60.6330 C   0  0  0  0  0  0  0  0  0  0  0  0
  133.2450  119.2370   60.4040 C   0  0  0  0  0  0  0  0  0  0  0  0
  132.8310  120.5390   60.6690 C   0  0  0  0  0  0  0  0  0  0  0  0
  129.9400  127.6070   59.0370 C   0  0  0  0  0  0  0  0  0  0  0  0
  130.2000  129.1270   58.9370 C   0  0  0  0  0  0  0  0  0  0  0  0
  125.6072  132.8563   59.9234 H   0  0  0  0  0  0  0  0  0  0  0  0
  125.7329  133.9694   62.1451 H   0  0  0  0  0  0  0  0  0  0  0  0
  127.8325  133.8439   63.4842 H   0  0  0  0  0  0  0  0  0  0  0  0
  129.7997  132.6076   62.6021 H   0  0  0  0  0  0  0  0  0  0  0  0
  130.1594  131.5399   59.1632 H   0  0  0  0  0  0  0  0  0  0  0  0
  133.9175  130.6919   59.1351 H   0  0  0  0  0  0  0  0  0  0  0  0
  132.1958  130.6861   58.6023 H   0  0  0  0  0  0  0  0  0  0  0  0
  133.5397  133.3670   58.7510 H   0  0  0  0  0  0  0  0  0  0  0  0
  134.0997  132.2312   57.4487 H   0  0  0  0  0  0  0  0  0  0  0  0
  130.7544  133.1176   58.9800 H   0  0  0  0  0  0  0  0  0  0  0  0
  128.7720  133.6933   57.5789 H   0  0  0  0  0  0  0  0  0  0  0  0
  128.9859  133.7620   55.0982 H   0  0  0  0  0  0  0  0  0  0  0  0
  131.1650  133.2535   54.0049 H   0  0  0  0  0  0  0  0  0  0  0  0
  133.1493  132.6716   55.4035 H   0  0  0  0  0  0  0  0  0  0  0  0
  131.8444  129.3523   60.9446 H   0  0  0  0  0  0  0  0  0  0  0  0
  130.5844  129.6298   62.2088 H   0  0  0  0  0  0  0  0  0  0  0  0
  131.2063  127.2277   62.1003 H   0  0  0  0  0  0  0  0  0  0  0  0
  129.4939  127.4814   61.5872 H   0  0  0  0  0  0  0  0  0  0  0  0
  130.5768  125.3474   61.1903 H   0  0  0  0  0  0  0  0  0  0  0  0
  130.4172  124.8037   57.5412 H   0  0  0  0  0  0  0  0  0  0  0  0
  128.4617  123.8357   56.3528 H   0  0  0  0  0  0  0  0  0  0  0  0
  126.3286  123.4330   57.5803 H   0  0  0  0  0  0  0  0  0  0  0  0
  126.1520  124.0222   59.9901 H   0  0  0  0  0  0  0  0  0  0  0  0
  133.1540  122.6191   61.9471 H   0  0  0  0  0  0  0  0  0  0  0  0
  132.0029  123.9617   62.3003 H   0  0  0  0  0  0  0  0  0  0  0  0
  130.5125  122.2043   62.3854 H   0  0  0  0  0  0  0  0  0  0  0  0
  130.4736  122.5309   60.5988 H   0  0  0  0  0  0  0  0  0  0  0  0
  129.6620  119.8905   61.7796 H   0  0  0  0  0  0  0  0  0  0  0  0
  130.4069  117.5574   61.3020 H   0  0  0  0  0  0  0  0  0  0  0  0
  132.7028  117.1453   60.4238 H   0  0  0  0  0  0  0  0  0  0  0  0
  134.2564  119.0478   60.0151 H   0  0  0  0  0  0  0  0  0  0  0  0
  133.5147  121.3818   60.4895 H   0  0  0  0  0  0  0  0  0  0  0  0
  130.1256  127.1427   58.0572 H   0  0  0  0  0  0  0  0  0  0  0  0
  128.8958  127.4439   59.3421 H   0  0  0  0  0  0  0  0  0  0  0  0
  131.2540  129.2970   58.6720 H   0  0  0  0  0  0  0  0  0  0  0  0
  129.5410  129.5499   58.1644 H   0  0  0  0  0  0  0  0  0  0  0  0
  1  2  1  0
  2  3  2  0
  3  4  1  0
  4  5  2  0
  5  6  1  0
  6  7  2  0
  7  8  1  0
  8  9  1  0
  9 10  2  0
 10 11  1  0
 11 12  2  0
 12 13  1  0
 13 14  1  0
 14 15  1  0
 15 16  1  0
 16 17  2  0
 17 18  1  0
 18 19  2  0
 19 20  1  0
 20 21  2  0
  8 22  1  0
 22 23  1  0
 23 24  1  0
 24 25  1  0
 25 26  1  0
 26 27  1  0
 27 28  2  0
 28 29  1  0
 29 30  2  0
 30 31  1  0
 31 32  2  0
 32 33  1  0
 26 34  1  0
 34 35  2  0
 35 36  1  0
 36 37  2  0
 37 38  1  0
 38 39  1  0
 39 40  1  0
 40 41  1  0
 41 42  2  0
 42 43  1  0
 43 44  2  0
 44 45  1  0
 45 46  2  0
 25 47  1  0
 47 48  1  0
  7  2  1  0
 13  9  1  0
 21 16  1  0
 48 22  1  0
 32 27  1  0
 38 34  1  0
 46 41  1  0
  3 49  1  0
  4 50  1  0
  5 51  1  0
  6 52  1  0
  8 53  1  6
 14 54  1  0
 14 55  1  0
 15 56  1  0
 15 57  1  0
 17 58  1  0
 18 59  1  0
 19 60  1  0
 20 61  1  0
 21 62  1  0
 23 63  1  0
 23 64  1  0
 24 65  1  0
 24 66  1  0
 26 67  1  1
 28 68  1  0
 29 69  1  0
 30 70  1  0
 31 71  1  0
 39 72  1  0
 39 73  1  0
 40 74  1  0
 40 75  1  0
 42 76  1  0
 43 77  1  0
 44 78  1  0
 45 79  1  0
 46 80  1  0
 47 81  1  0
 47 82  1  0
 48 83  1  0
 48 84  1  0
M  END
>  <Binding energies>  (1) 
[-13.67]

>  <Ligand effiencies>  (1) 
[-0.28479166666666667]

>  <Interactions>  (1) 
["V-A:LEU:363:CA:3184, V-A:TYR:539:CG:4871, V-A:TYR:539:CZ:4876, V-A:ASP:366:CG:3212, H-A:ALA:541:N:4890, V-A:PRO:540:CB:4884, V-A:TYR:539:CE1:4874, V-A:TYR:539:CD1:4872, V-A:PRO:540:CA:4882, V-A:TYR:531:CE2:4792, V-A:TYR:531:CZ:4793, V-A:ILE:538:CA:4859, V-A:LEU:363:CD1:3188, V-B:ALA:541:CB:9863, V-A:LEU:475:CD2:4258, V-B:TYR:539:CD2:9845, V-A:ILE:369:CG2:3236, V-B:TYR:539:CE2:9847, V-A:SER:385:CA:3406, V-A:SER:385:CB:3408, V-B:MET:535:CE:9806, H-B:TYR:539:OH:9849, V-B:TYR:539:CZ:9848, V-A:ILE:538:CB:4861, V-A:ILE:538:CG2:4862, V-A:PRO:540:N:4883, V-A:MET:535:CG:4832, V-A:PRO:540:CD:4886, V-A:ALA:541:CB:4891, V-A:TYR:539:C:4866, V-A:LEU:363:CB:3186, V-A:TYR:539:CA:4868, H-A:LEU:363:N:3185"]

$$$$
RR14_Rahimova_2017
     RDKit          3D

 76 80  0  0  0  0  0  0  0  0999 V2000
  131.0540  117.3380   59.9800 C   0  0  0  0  0  0  0  0  0  0  0  0
  130.7850  118.1800   61.0960 O   0  0  0  0  0  0  0  0  0  0  0  0
  131.3620  119.4340   61.1460 C   0  0  0  0  0  0  0  0  0  0  0  0
  130.5230  120.4920   61.4990 C   0  0  0  0  0  0  0  0  0  0  0  0
  131.0090  121.7940   61.5520 C   0  0  0  0  0  0  0  0  0  0  0  0
  132.3470  122.0530   61.2450 C   0  0  0  0  0  0  0  0  0  0  0  0
  132.8670  123.4860   61.2390 C   0  0  0  0  0  0  0  0  0  0  0  0
  132.8910  124.0870   59.9050 N   0  0  0  0  0  0  0  0  0  0  0  0
  133.9390  123.8960   59.0970 N   0  0  0  0  0  0  0  0  0  0  0  0
  133.6400  124.6180   57.9580 N   0  0  0  0  0  0  0  0  0  0  0  0
  132.4070  125.2460   58.1000 N   0  0  0  0  0  0  0  0  0  0  0  0
  131.9740  124.9140   59.2930 C   0  0  0  0  0  0  0  0  0  0  0  0
  130.6650  125.3830   59.9130 C   0  0  0  0  0  0  0  0  0  0  0  0
  129.8450  126.1650   58.9720 N   0  0  0  0  0  0  0  0  0  0  0  0
  128.6780  125.4070   58.5010 C   0  0  0  0  0  0  0  0  0  0  0  0
  128.3420  124.1860   59.3850 C   0  0  0  0  0  0  0  0  0  0  0  0
  128.3980  122.8410   58.6310 C   0  0  0  0  0  0  0  0  0  0  0  0
  127.1770  122.5500   57.8730 N   0  0  0  0  0  0  0  0  0  0  0  0
  127.4890  122.3800   56.4480 C   0  0  0  0  0  0  0  0  0  0  0  0
  126.2170  122.1230   55.6130 C   0  0  0  0  0  0  0  0  0  0  0  0
  125.2660  123.1590   55.8380 O   0  0  0  0  0  0  0  0  0  0  0  0
  124.8790  123.2470   57.2040 C   0  0  0  0  0  0  0  0  0  0  0  0
  126.1110  123.5400   58.0870 C   0  0  0  0  0  0  0  0  0  0  0  0
  129.4220  127.4260   59.5970 C   0  0  0  0  0  0  0  0  0  0  0  0
  129.8450  128.7050   58.8790 C   0  0  0  0  0  0  0  0  0  0  0  0
  131.0150  129.3210   59.1780 C   0  0  0  0  0  0  0  0  0  0  0  0
  131.4290  130.5810   58.5260 C   0  0  0  0  0  0  0  0  0  0  0  0
  132.6430  131.2350   58.7970 C   0  0  0  0  0  0  0  0  0  0  0  0
  133.6410  130.6790   59.8040 C   0  0  0  0  0  0  0  0  0  0  0  0
  132.9400  132.4220   58.1230 C   0  0  0  0  0  0  0  0  0  0  0  0
  132.0490  132.9560   57.1930 C   0  0  0  0  0  0  0  0  0  0  0  0
  130.8390  132.3110   56.9160 C   0  0  0  0  0  0  0  0  0  0  0  0
  129.8880  132.9180   55.8930 C   0  0  0  0  0  0  0  0  0  0  0  0
  130.5310  131.1180   57.5870 C   0  0  0  0  0  0  0  0  0  0  0  0
  129.3210  130.4340   57.3410 N   0  0  0  0  0  0  0  0  0  0  0  0
  128.9010  129.2790   57.9140 C   0  0  0  0  0  0  0  0  0  0  0  0
  127.8080  128.7970   57.6160 O   0  0  0  0  0  0  0  0  0  0  0  0
  133.2020  120.9980   60.9210 C   0  0  0  0  0  0  0  0  0  0  0  0
  132.7140  119.6960   60.8670 C   0  0  0  0  0  0  0  0  0  0  0  0
  131.3707  116.3467   60.3365 H   0  0  0  0  0  0  0  0  0  0  0  0
  130.1440  117.2350   59.3706 H   0  0  0  0  0  0  0  0  0  0  0  0
  131.8551  117.7817   59.3706 H   0  0  0  0  0  0  0  0  0  0  0  0
  129.4675  120.2942   61.7375 H   0  0  0  0  0  0  0  0  0  0  0  0
  130.3399  122.6198   61.8356 H   0  0  0  0  0  0  0  0  0  0  0  0
  132.2182  124.0956   61.8851 H   0  0  0  0  0  0  0  0  0  0  0  0
  133.9048  123.4577   61.6025 H   0  0  0  0  0  0  0  0  0  0  0  0
  130.0905  124.5015   60.2336 H   0  0  0  0  0  0  0  0  0  0  0  0
  130.9121  126.0351   60.7637 H   0  0  0  0  0  0  0  0  0  0  0  0
  127.8073  126.0791   58.4892 H   0  0  0  0  0  0  0  0  0  0  0  0
  128.9220  125.0249   57.4988 H   0  0  0  0  0  0  0  0  0  0  0  0
  129.0628  124.1492   60.2151 H   0  0  0  0  0  0  0  0  0  0  0  0
  127.3070  124.3164   59.7339 H   0  0  0  0  0  0  0  0  0  0  0  0
  129.2457  122.8684   57.9305 H   0  0  0  0  0  0  0  0  0  0  0  0
  128.5096  122.0486   59.3858 H   0  0  0  0  0  0  0  0  0  0  0  0
  127.9796  123.2928   56.0789 H   0  0  0  0  0  0  0  0  0  0  0  0
  128.1507  121.5075   56.3431 H   0  0  0  0  0  0  0  0  0  0  0  0
  126.4815  122.0976   54.5456 H   0  0  0  0  0  0  0  0  0  0  0  0
  125.7780  121.1601   55.9130 H   0  0  0  0  0  0  0  0  0  0  0  0
  124.1453  124.0579   57.3227 H   0  0  0  0  0  0  0  0  0  0  0  0
  124.4333  122.2903   57.5141 H   0  0  0  0  0  0  0  0  0  0  0  0
  126.4975  124.5399   57.8404 H   0  0  0  0  0  0  0  0  0  0  0  0
  125.7996  123.4886   59.1408 H   0  0  0  0  0  0  0  0  0  0  0  0
  128.3236  127.4206   59.6553 H   0  0  0  0  0  0  0  0  0  0  0  0
  129.9252  127.4552   60.5747 H   0  0  0  0  0  0  0  0  0  0  0  0
  131.6777  128.8683   59.9303 H   0  0  0  0  0  0  0  0  0  0  0  0
  133.2822  130.8789   60.8244 H   0  0  0  0  0  0  0  0  0  0  0  0
  133.7437  129.5937   59.6575 H   0  0  0  0  0  0  0  0  0  0  0  0
  134.6179  131.1629   59.6575 H   0  0  0  0  0  0  0  0  0  0  0  0
  133.8877  132.9413   58.3284 H   0  0  0  0  0  0  0  0  0  0  0  0
  132.2996  133.8923   56.6728 H   0  0  0  0  0  0  0  0  0  0  0  0
  129.0718  133.4389   56.4150 H   0  0  0  0  0  0  0  0  0  0  0  0
  130.4359  133.6338   55.2626 H   0  0  0  0  0  0  0  0  0  0  0  0
  129.4694  132.1197   55.2626 H   0  0  0  0  0  0  0  0  0  0  0  0
  128.6770  130.8300   56.6740 H   0  0  0  0  0  0  0  0  0  0  0  0
  134.2628  121.1963   60.7081 H   0  0  0  0  0  0  0  0  0  0  0  0
  133.3895  118.8684   60.6048 H   0  0  0  0  0  0  0  0  0  0  0  0
  1  2  1  0
  2  3  1  0
  3  4  2  0
  4  5  1  0
  5  6  2  0
  6  7  1  0
  7  8  1  0
  8  9  1  0
  9 10  2  0
 10 11  1  0
 11 12  2  0
 12 13  1  0
 13 14  1  0
 14 15  1  0
 15 16  1  0
 16 17  1  0
 17 18  1  0
 18 19  1  0
 19 20  1  0
 20 21  1  0
 21 22  1  0
 22 23  1  0
 14 24  1  0
 24 25  1  0
 25 26  2  0
 26 27  1  0
 27 28  2  0
 28 29  1  0
 28 30  1  0
 30 31  2  0
 31 32  1  0
 32 33  1  0
 32 34  2  0
 34 35  1  0
 35 36  1  0
 36 37  2  0
  6 38  1  0
 38 39  2  0
 39  3  1  0
 12  8  1  0
 23 18  1  0
 36 25  1  0
 34 27  1  0
  1 40  1  0
  1 41  1  0
  1 42  1  0
  4 43  1  0
  5 44  1  0
  7 45  1  0
  7 46  1  0
 13 47  1  0
 13 48  1  0
 15 49  1  0
 15 50  1  0
 16 51  1  0
 16 52  1  0
 17 53  1  0
 17 54  1  0
 19 55  1  0
 19 56  1  0
 20 57  1  0
 20 58  1  0
 22 59  1  0
 22 60  1  0
 23 61  1  0
 23 62  1  0
 24 63  1  0
 24 64  1  0
 26 65  1  0
 29 66  1  0
 29 67  1  0
 29 68  1  0
 30 69  1  0
 31 70  1  0
 33 71  1  0
 33 72  1  0
 33 73  1  0
 35 74  1  0
 38 75  1  0
 39 76  1  0
M  END
>  <Binding energies>  (1) 
[-11.1]

>  <Ligand effiencies>  (1) 
[-0.27749999999999997]

>  <Interactions>  (1) 
["V-A:LEU:363:CA:3184, V-A:ASP:366:CG:3212, V-A:ASN:362:C:3171, V-A:PRO:540:CB:4884, V-A:TYR:539:CE1:4874, V-A:ASP:366:CB:3211, H-A:TYR:531:OH:4794, V-A:PRO:540:CA:4882, V-A:TYR:531:CE2:4792, V-A:LEU:363:CD1:3188, V-B:PRO:540:N:9855, V-B:ALA:541:CB:9863, V-B:PRO:540:CA:9854, V-B:TYR:539:C:9838, V-A:LEU:475:CD2:4258, V-A:HIS:383:CE1:3393, V-A:ILE:369:CD1:3238, V-B:TYR:539:CD2:9845, V-A:ILE:369:CG2:3236, V-B:TYR:539:CE2:9847, V-B:TYR:539:CB:9842, V-A:SER:385:CA:3406, V-B:TYR:539:CG:9843, V-B:MET:535:CE:9806, H-B:TYR:539:OH:9849, V-B:TYR:539:CZ:9848, V-B:PRO:540:CB:9856, V-B:TYR:539:CA:9840, V-B:TYR:539:CD1:9844, V-B:PRO:540:CD:9858, V-B:TYR:531:CE2:9764, V-B:LEU:363:CD1:8159, V-B:ILE:538:CD1:9836, V-B:ILE:538:CG2:9834, V-B:ILE:538:CA:9831, V-B:TYR:539:CE1:9846, V-B:ILE:538:C:9829, H-B:TYR:531:OH:9766, V-A:PRO:540:N:4883, V-B:MET:535:CG:9804, V-A:PRO:540:CD:4886"]

$$$$
RR15_Rahimova_2017
     RDKit          3D

 85 89  0  0  0  0  0  0  0  0999 V2000
  123.9620  131.1220   56.0230 C   0  0  0  0  0  0  0  0  0  0  0  0
  125.1030  130.9880   55.1810 O   0  0  0  0  0  0  0  0  0  0  0  0
  126.1330  130.1430   55.5570 C   0  0  0  0  0  0  0  0  0  0  0  0
  125.9350  128.9320   56.2390 C   0  0  0  0  0  0  0  0  0  0  0  0
  127.0170  128.1290   56.5900 C   0  0  0  0  0  0  0  0  0  0  0  0
  128.3250  128.5110   56.2750 C   0  0  0  0  0  0  0  0  0  0  0  0
  129.4940  127.6470   56.6610 C   0  0  0  0  0  0  0  0  0  0  0  0
  130.3870  127.2100   55.7840 N   0  0  0  0  0  0  0  0  0  0  0  0
  131.2890  126.4520   56.5030 N   0  0  0  0  0  0  0  0  0  0  0  0
  130.8520  126.5520   57.7590 N   0  0  0  0  0  0  0  0  0  0  0  0
  131.4280  125.7610   58.8450 C   0  0  0  0  0  0  0  0  0  0  0  0
  130.4240  125.3470   59.9500 C   0  0  0  0  0  0  0  0  0  0  0  0
  129.6430  126.2000   60.3770 O   0  0  0  0  0  0  0  0  0  0  0  0
  130.4050  124.0540   60.3980 N   0  0  0  0  0  0  0  0  0  0  0  0
  129.4920  123.0520   59.8140 C   0  0  0  0  0  0  0  0  0  0  0  0
  128.7490  123.5520   58.5560 C   0  0  0  0  0  0  0  0  0  0  0  0
  128.3220  122.4400   57.5690 C   0  0  0  0  0  0  0  0  0  0  0  0
  126.8780  122.3940   57.3210 N   0  0  0  0  0  0  0  0  0  0  0  0
  126.1280  123.4540   58.0110 C   0  0  0  0  0  0  0  0  0  0  0  0
  124.6280  123.4130   57.6490 C   0  0  0  0  0  0  0  0  0  0  0  0
  124.4620  123.4680   56.2360 O   0  0  0  0  0  0  0  0  0  0  0  0
  125.1010  122.3830   55.5720 C   0  0  0  0  0  0  0  0  0  0  0  0
  126.6150  122.3980   55.8750 C   0  0  0  0  0  0  0  0  0  0  0  0
  131.4120  123.5010   61.3550 C   0  0  2  0  0  0  0  0  0  0  0  0
  132.3990  122.4730   60.7170 C   0  0  0  0  0  0  0  0  0  0  0  0
  133.4340  122.8450   60.1640 O   0  0  0  0  0  0  0  0  0  0  0  0
  132.0580  121.1790   60.8520 N   0  0  0  0  0  0  0  0  0  0  0  0
  132.8710  120.0450   60.4300 C   0  0  0  0  0  0  0  0  0  0  0  0
  132.4280  118.7490   61.1340 C   0  0  2  0  0  0  0  0  0  0  0  0
  132.1620  117.5510   60.2060 C   0  0  0  0  0  0  0  0  0  0  0  0
  130.6590  117.4950   60.0820 C   0  0  0  0  0  0  0  0  0  0  0  0
  130.2260  117.9760   61.4560 C   0  0  0  0  0  0  0  0  0  0  0  0
  131.1470  119.0300   61.7160 O   0  0  0  0  0  0  0  0  0  0  0  0
  130.7480  123.1120   62.6710 C   0  0  0  0  0  0  0  0  0  0  0  0
  131.5700  122.7140   63.7320 C   0  0  0  0  0  0  0  0  0  0  0  0
  131.0190  122.3480   64.9560 C   0  0  0  0  0  0  0  0  0  0  0  0
  129.6380  122.3790   65.1300 C   0  0  0  0  0  0  0  0  0  0  0  0
  129.1030  122.0240   66.3190 F   0  0  0  0  0  0  0  0  0  0  0  0
  128.8050  122.7740   64.0860 C   0  0  0  0  0  0  0  0  0  0  0  0
  129.3570  123.1390   62.8620 C   0  0  0  0  0  0  0  0  0  0  0  0
  129.7190  127.2510   57.9000 N   0  0  0  0  0  0  0  0  0  0  0  0
  128.5190  129.7190   55.5930 C   0  0  0  0  0  0  0  0  0  0  0  0
  127.4370  130.5390   55.2280 C   0  0  0  0  0  0  0  0  0  0  0  0
  127.5780  131.7380   54.5510 O   0  0  0  0  0  0  0  0  0  0  0  0
  128.7340  132.5390   54.7700 C   0  0  0  0  0  0  0  0  0  0  0  0
  124.2772  131.0850   57.0762 H   0  0  0  0  0  0  0  0  0  0  0  0
  123.4686  132.0843   55.8215 H   0  0  0  0  0  0  0  0  0  0  0  0
  123.2591  130.3002   55.8215 H   0  0  0  0  0  0  0  0  0  0  0  0
  124.9145  128.6142   56.4988 H   0  0  0  0  0  0  0  0  0  0  0  0
  126.8408  127.1823   57.1217 H   0  0  0  0  0  0  0  0  0  0  0  0
  131.8566  124.8454   58.4115 H   0  0  0  0  0  0  0  0  0  0  0  0
  132.1774  126.4025   59.3318 H   0  0  0  0  0  0  0  0  0  0  0  0
  130.0799  122.1634   59.5406 H   0  0  0  0  0  0  0  0  0  0  0  0
  128.7277  122.8304   60.5734 H   0  0  0  0  0  0  0  0  0  0  0  0
  127.8441  124.0854   58.8826 H   0  0  0  0  0  0  0  0  0  0  0  0
  129.4585  124.1928   58.0119 H   0  0  0  0  0  0  0  0  0  0  0  0
  128.8336  122.6115   56.6104 H   0  0  0  0  0  0  0  0  0  0  0  0
  128.5999  121.4795   58.0275 H   0  0  0  0  0  0  0  0  0  0  0  0
  126.2373  123.3201   59.0973 H   0  0  0  0  0  0  0  0  0  0  0  0
  126.5332  124.4261   57.6936 H   0  0  0  0  0  0  0  0  0  0  0  0
  124.1874  122.4802   58.0307 H   0  0  0  0  0  0  0  0  0  0  0  0
  124.1250  124.2792   58.1037 H   0  0  0  0  0  0  0  0  0  0  0  0
  124.6683  121.4348   55.9236 H   0  0  0  0  0  0  0  0  0  0  0  0
  124.9483  122.4825   54.4872 H   0  0  0  0  0  0  0  0  0  0  0  0
  127.0777  121.5069   55.4257 H   0  0  0  0  0  0  0  0  0  0  0  0
  127.0415  123.3188   55.4505 H   0  0  0  0  0  0  0  0  0  0  0  0
  132.1146  124.3020   61.6282 H   0  0  0  0  0  0  0  0  0  0  0  0
  131.2060  120.9550   61.3440 H   0  0  0  0  0  0  0  0  0  0  0  0
  132.7689  119.9154   59.3424 H   0  0  0  0  0  0  0  0  0  0  0  0
  133.9179  120.2475   60.7001 H   0  0  0  0  0  0  0  0  0  0  0  0
  133.2437  118.4777   61.8204 H   0  0  0  0  0  0  0  0  0  0  0  0
  132.6276  117.7104   59.2222 H   0  0  0  0  0  0  0  0  0  0  0  0
  132.5842  116.6149   60.6003 H   0  0  0  0  0  0  0  0  0  0  0  0
  130.2957  118.1646   59.2885 H   0  0  0  0  0  0  0  0  0  0  0  0
  130.2673  116.5041   59.8087 H   0  0  0  0  0  0  0  0  0  0  0  0
  129.1907  118.3474   61.4395 H   0  0  0  0  0  0  0  0  0  0  0  0
  130.2355  117.1857   62.2211 H   0  0  0  0  0  0  0  0  0  0  0  0
  132.6614  122.6904   63.5967 H   0  0  0  0  0  0  0  0  0  0  0  0
  131.6725  122.0351   65.7837 H   0  0  0  0  0  0  0  0  0  0  0  0
  127.7145  122.7973   64.2286 H   0  0  0  0  0  0  0  0  0  0  0  0
  128.6988  123.4511   62.0377 H   0  0  0  0  0  0  0  0  0  0  0  0
  129.5416  130.0333   55.3371 H   0  0  0  0  0  0  0  0  0  0  0  0
  128.9006  132.6545   55.8512 H   0  0  0  0  0  0  0  0  0  0  0  0
  129.6089  132.0525   54.3140 H   0  0  0  0  0  0  0  0  0  0  0  0
  128.5858  133.5290   54.3140 H   0  0  0  0  0  0  0  0  0  0  0  0
  1  2  1  0
  2  3  1  0
  3  4  2  0
  4  5  1  0
  5  6  2  0
  6  7  1  0
  7  8  1  0
  8  9  2  0
  9 10  1  0
 10 11  1  0
 11 12  1  0
 12 13  2  0
 12 14  1  0
 14 15  1  0
 15 16  1  0
 16 17  1  0
 17 18  1  0
 18 19  1  0
 19 20  1  0
 20 21  1  0
 21 22  1  0
 22 23  1  0
 14 24  1  0
 24 25  1  0
 25 26  2  0
 25 27  1  0
 27 28  1  0
 28 29  1  0
 29 30  1  0
 30 31  1  0
 31 32  1  0
 32 33  1  0
 24 34  1  0
 34 35  2  0
 35 36  1  0
 36 37  2  0
 37 38  1  0
 37 39  1  0
 39 40  2  0
 10 41  1  0
  6 42  1  0
 42 43  2  0
 43 44  1  0
 44 45  1  0
 43  3  1  0
 41  7  2  0
 23 18  1  0
 33 29  1  0
 40 34  1  0
  1 46  1  0
  1 47  1  0
  1 48  1  0
  4 49  1  0
  5 50  1  0
 11 51  1  0
 11 52  1  0
 15 53  1  0
 15 54  1  0
 16 55  1  0
 16 56  1  0
 17 57  1  0
 17 58  1  0
 19 59  1  0
 19 60  1  0
 20 61  1  0
 20 62  1  0
 22 63  1  0
 22 64  1  0
 23 65  1  0
 23 66  1  0
 24 67  1  1
 27 68  1  0
 28 69  1  0
 28 70  1  0
 29 71  1  1
 30 72  1  0
 30 73  1  0
 31 74  1  0
 31 75  1  0
 32 76  1  0
 32 77  1  0
 35 78  1  0
 36 79  1  0
 39 80  1  0
 40 81  1  0
 42 82  1  0
 45 83  1  0
 45 84  1  0
 45 85  1  0
M  END
>  <Binding energies>  (1) 
[-10.12]

>  <Ligand effiencies>  (1) 
[-0.21999999999999997]

>  <Interactions>  (1) 
["V-A:TYR:539:CZ:4876, V-A:ASP:366:CG:3212, V-A:TYR:539:CE1:4874, V-A:ASP:366:CB:3211, H-A:TYR:531:OH:4794, V-A:TYR:539:CE2:4875, V-B:GLU:543:CD:9879, V-B:PRO:540:N:9855, V-B:ALA:541:CB:9863, V-B:PRO:540:CA:9854, V-B:TYR:539:C:9838, V-A:LEU:475:CD2:4258, V-A:PRO:482:CG:4326, V-A:HIS:383:CE1:3393, V-B:TYR:539:CD2:9845, V-A:ILE:369:CG2:3236, V-B:TYR:539:CE2:9847, V-B:TYR:539:CB:9842, V-A:SER:385:CA:3406, V-A:SER:385:CB:3408, H-B:TYR:539:N:9841, V-B:TYR:539:CG:9843, V-B:MET:535:CE:9806, H-B:TYR:539:OH:9849, V-B:TYR:539:CZ:9848, V-A:PRO:482:CB:4325, V-B:GLU:543:CG:9878, V-A:LEU:475:CD1:4257, V-B:PRO:540:CB:9856, V-B:TYR:539:CA:9840, V-B:TYR:539:CD1:9844, V-B:TYR:531:CZ:9765, V-B:TYR:531:CE2:9764, V-B:LEU:363:CD1:8159, V-B:ILE:538:CD1:9836, V-B:ILE:538:CG2:9834, V-B:GLU:543:CB:9877, V-B:ILE:538:CA:9831, V-B:TYR:539:CE1:9846, V-B:ILE:538:CB:9833, V-A:TYR:484:CZ:4346, V-A:TYR:484:CE2:4345, V-A:MET:535:CE:4834, H-B:TYR:531:OH:9766, V-B:MET:535:CG:9804, V-A:MET:535:CG:4832, V-B:TYR:531:CE1:9763, H-A:TYR:539:OH:4877, V-B:GLU:543:CA:9875, V-A:TYR:484:CD2:4343, V-B:ASN:370:CB:8215, V-B:ASN:370:CA:8213"]

$$$$
RR16_Rahimova_2017
     RDKit          3D

 80 85  0  0  0  0  0  0  0  0999 V2000
  129.2010  128.2340   74.9260 O   0  0  0  0  0  0  0  0  0  0  0  0
  129.8830  127.1810   74.1650 S   0  0  0  0  0  0  0  0  0  0  0  0
  129.5920  125.7640   74.4130 O   0  0  0  0  0  0  0  0  0  0  0  0
  131.6200  127.4260   74.3570 N   0  0  0  0  0  0  0  0  0  0  0  0
  132.2180  127.6200   75.6990 C   0  0  0  0  0  0  0  0  0  0  0  0
  132.2190  126.2670   76.4570 C   0  0  0  0  0  0  0  0  0  0  0  0
  133.0090  125.1040   75.8250 C   0  0  0  0  0  0  0  0  0  0  0  0
  134.4900  125.0580   76.2370 C   0  0  0  0  0  0  0  0  0  0  0  0
  135.2960  126.3480   75.9900 C   0  0  0  0  0  0  0  0  0  0  0  0
  134.7080  127.3660   74.9930 C   0  0  0  0  0  0  0  0  0  0  0  0
  133.5990  128.2940   75.5270 C   0  0  0  0  0  0  0  0  0  0  0  0
  129.5750  127.5110   72.4340 C   0  0  0  0  0  0  0  0  0  0  0  0
  130.1830  128.6010   71.8050 C   0  0  0  0  0  0  0  0  0  0  0  0
  129.8410  128.9180   70.4940 C   0  0  0  0  0  0  0  0  0  0  0  0
  128.8950  128.1460   69.8170 C   0  0  0  0  0  0  0  0  0  0  0  0
  128.3490  128.6340   68.1820 S   0  0  0  0  0  0  0  0  0  0  0  0
  128.7190  130.0440   67.9990 O   0  0  0  0  0  0  0  0  0  0  0  0
  126.9500  128.2110   68.0410 O   0  0  0  0  0  0  0  0  0  0  0  0
  129.3370  127.6520   67.0830 N   0  0  0  0  0  0  0  0  0  0  0  0
  129.4300  128.1830   65.6990 C   0  0  0  0  0  0  0  0  0  0  0  0
  130.0320  127.1240   64.7530 C   0  0  0  0  0  0  0  0  0  0  0  0
  131.3810  126.5800   65.2840 C   0  0  0  0  0  0  0  0  0  0  0  0
  131.9730  125.4930   64.3840 C   0  0  0  0  0  0  0  0  0  0  0  0
  133.3280  125.5470   64.0260 C   0  0  0  0  0  0  0  0  0  0  0  0
  133.9110  124.5740   63.2140 C   0  0  0  0  0  0  0  0  0  0  0  0
  135.2380  124.6410   62.8770 O   0  0  0  0  0  0  0  0  0  0  0  0
  133.1020  123.5220   62.7560 C   0  0  0  0  0  0  0  0  0  0  0  0
  133.3950  122.4390   61.9780 N   0  0  0  0  0  0  0  0  0  0  0  0
  132.2420  121.6950   61.8530 N   0  0  0  0  0  0  0  0  0  0  0  0
  131.2500  122.3330   62.5040 N   0  0  0  0  0  0  0  0  0  0  0  0
  129.9310  121.7250   62.6080 C   0  0  0  0  0  0  0  0  0  0  0  0
  128.8680  122.4910   61.8340 C   0  0  0  0  0  0  0  0  0  0  0  0
  127.9200  123.2600   62.5170 C   0  0  0  0  0  0  0  0  0  0  0  0
  126.9580  123.9810   61.8090 C   0  0  0  0  0  0  0  0  0  0  0  0
  126.9400  123.9380   60.4140 C   0  0  0  0  0  0  0  0  0  0  0  0
  127.8830  123.1750   59.7270 C   0  0  0  0  0  0  0  0  0  0  0  0
  127.8700  123.1280   58.0020 Cl  0  0  0  0  0  0  0  0  0  0  0  0
  128.8440  122.4500   60.4360 C   0  0  0  0  0  0  0  0  0  0  0  0
  131.7340  123.4790   63.1150 C   0  0  0  0  0  0  0  0  0  0  0  0
  131.1480  124.4560   63.9260 C   0  0  0  0  0  0  0  0  0  0  0  0
  131.2970  126.1480   66.7720 C   0  0  0  0  0  0  0  0  0  0  0  0
  130.6450  127.2340   67.6510 C   0  0  0  0  0  0  0  0  0  0  0  0
  128.3190  127.0320   70.4330 C   0  0  0  0  0  0  0  0  0  0  0  0
  128.6580  126.7170   71.7450 C   0  0  0  0  0  0  0  0  0  0  0  0
  132.2290  127.0230   73.6400 H   0  0  0  0  0  0  0  0  0  0  0  0
  131.6300  128.3006   76.3323 H   0  0  0  0  0  0  0  0  0  0  0  0
  132.6408  126.4484   77.4566 H   0  0  0  0  0  0  0  0  0  0  0  0
  131.1702  125.9356   76.4453 H   0  0  0  0  0  0  0  0  0  0  0  0
  132.5357  124.1587   76.1290 H   0  0  0  0  0  0  0  0  0  0  0  0
  132.9859  125.2578   74.7361 H   0  0  0  0  0  0  0  0  0  0  0  0
  134.5340  124.8335   77.3130 H   0  0  0  0  0  0  0  0  0  0  0  0
  134.9532  124.2901   75.6000 H   0  0  0  0  0  0  0  0  0  0  0  0
  135.4074  126.8590   76.9577 H   0  0  0  0  0  0  0  0  0  0  0  0
  136.2364  126.0110   75.5296 H   0  0  0  0  0  0  0  0  0  0  0  0
  135.5333  128.0015   74.6393 H   0  0  0  0  0  0  0  0  0  0  0  0
  134.2275  126.7607   74.2102 H   0  0  0  0  0  0  0  0  0  0  0  0
  133.9169  128.6785   76.5074 H   0  0  0  0  0  0  0  0  0  0  0  0
  133.4666  129.0845   74.7736 H   0  0  0  0  0  0  0  0  0  0  0  0
  130.9280  129.2051   72.3435 H   0  0  0  0  0  0  0  0  0  0  0  0
  130.3148  129.7746   69.9923 H   0  0  0  0  0  0  0  0  0  0  0  0
  128.4236  128.4529   65.3465 H   0  0  0  0  0  0  0  0  0  0  0  0
  130.0815  129.0693   65.7012 H   0  0  0  0  0  0  0  0  0  0  0  0
  129.3236  126.2879   64.6575 H   0  0  0  0  0  0  0  0  0  0  0  0
  130.2149  127.6002   63.7784 H   0  0  0  0  0  0  0  0  0  0  0  0
  132.0905  127.4198   65.2472 H   0  0  0  0  0  0  0  0  0  0  0  0
  133.9470  126.3781   64.3950 H   0  0  0  0  0  0  0  0  0  0  0  0
  135.4230  125.2870   62.1930 H   0  0  0  0  0  0  0  0  0  0  0  0
  129.9839  120.6999   62.2125 H   0  0  0  0  0  0  0  0  0  0  0  0
  129.6424  121.7374   63.6694 H   0  0  0  0  0  0  0  0  0  0  0  0
  127.9330  123.2964   63.6163 H   0  0  0  0  0  0  0  0  0  0  0  0
  126.2136  124.5834   62.3503 H   0  0  0  0  0  0  0  0  0  0  0  0
  126.1812  124.5066   59.8563 H   0  0  0  0  0  0  0  0  0  0  0  0
  129.5846  121.8446   59.8928 H   0  0  0  0  0  0  0  0  0  0  0  0
  130.0820  124.4126   64.1940 H   0  0  0  0  0  0  0  0  0  0  0  0
  130.6986  125.2277   66.8417 H   0  0  0  0  0  0  0  0  0  0  0  0
  132.3215  125.9840   67.1373 H   0  0  0  0  0  0  0  0  0  0  0  0
  130.4879  126.8334   68.6633 H   0  0  0  0  0  0  0  0  0  0  0  0
  131.3115  128.1084   67.6866 H   0  0  0  0  0  0  0  0  0  0  0  0
  127.6005  126.4066   69.8829 H   0  0  0  0  0  0  0  0  0  0  0  0
  128.2043  125.8444   72.2376 H   0  0  0  0  0  0  0  0  0  0  0  0
  1  2  2  0
  2  3  2  0
  2  4  1  0
  4  5  1  0
  5  6  1  0
  6  7  1  0
  7  8  1  0
  8  9  1  0
  9 10  1  0
 10 11  1  0
  2 12  1  0
 12 13  2  0
 13 14  1  0
 14 15  2  0
 15 16  1  0
 16 17  2  0
 16 18  2  0
 16 19  1  0
 19 20  1  0
 20 21  1  0
 21 22  1  0
 22 23  1  0
 23 24  2  0
 24 25  1  0
 25 26  1  0
 25 27  2  0
 27 28  1  0
 28 29  2  0
 29 30  1  0
 30 31  1  0
 31 32  1  0
 32 33  2  0
 33 34  1  0
 34 35  2  0
 35 36  1  0
 36 37  1  0
 36 38  2  0
 30 39  1  0
 39 40  2  0
 22 41  1  0
 41 42  1  0
 15 43  1  0
 43 44  2  0
 11  5  1  0
 44 12  1  0
 42 19  1  0
 40 23  1  0
 39 27  1  0
 38 32  1  0
  4 45  1  0
  5 46  1  0
  6 47  1  0
  6 48  1  0
  7 49  1  0
  7 50  1  0
  8 51  1  0
  8 52  1  0
  9 53  1  0
  9 54  1  0
 10 55  1  0
 10 56  1  0
 11 57  1  0
 11 58  1  0
 13 59  1  0
 14 60  1  0
 20 61  1  0
 20 62  1  0
 21 63  1  0
 21 64  1  0
 22 65  1  0
 24 66  1  0
 26 67  1  0
 31 68  1  0
 31 69  1  0
 33 70  1  0
 34 71  1  0
 35 72  1  0
 38 73  1  0
 40 74  1  0
 41 75  1  0
 41 76  1  0
 42 77  1  0
 42 78  1  0
 43 79  1  0
 44 80  1  0
M  END
>  <Binding energies>  (1) 
[-10.49]

>  <Ligand effiencies>  (1) 
[-0.21854166666666666]

>  <Interactions>  (1) 
["V-A:ASP:366:CG:3212, V-B:ALA:541:CB:9863, V-B:PRO:540:CA:9854, V-B:TYR:539:C:9838, V-A:LEU:475:CD2:4258, V-B:TYR:539:CD2:9845, V-B:TYR:539:CE2:9847, V-A:GLY:454:CA:4048, H-A:GLY:454:N:4049, V-A:GLY:453:C:4041, V-A:ARG:545:CZ:4925, V-A:HIS:456:CE1:4069, H-A:HIS:456:NE2:4070, V-A:GLU:543:CD:4907, V-B:HIS:456:CE1:9040, H-B:LYS:547:NZ:9922, V-A:GLU:543:CG:4906, H-A:ASP:366:OD2:3214, V-A:LYS:547:CE:4949, V-A:GLU:543:CB:4905, V-A:GLU:543:C:4901, H-A:ARG:545:NH1:4926, H-B:TYR:484:OH:9318, H-A:ASP:366:OD1:3213, V-A:HIS:456:CB:4064, V-A:VAL:457:C:4072, V-A:HIS:456:CA:4062, V-A:LYS:547:CD:4948, V-A:HIS:456:C:4060, V-A:VAL:457:CA:4074, V-A:HIS:456:CG:4065, V-A:VAL:458:CG2:4086, H-A:HIS:456:ND1:4066, V-A:LYS:547:CG:4947, H-A:GLY:544:O:4912"]

$$$$
RR17_Rahimova_2017
     RDKit          3D

 63 66  0  0  0  0  0  0  0  0999 V2000
  131.7230  116.7160   62.1810 C   0  0  0  0  0  0  0  0  0  0  0  0
  130.6810  117.2740   61.2060 C   0  0  0  0  0  0  0  0  0  0  0  0
  130.2270  118.5330   61.6950 O   0  0  0  0  0  0  0  0  0  0  0  0
  130.9150  119.6820   61.3510 C   0  0  0  0  0  0  0  0  0  0  0  0
  130.2040  120.8790   61.4200 C   0  0  0  0  0  0  0  0  0  0  0  0
  130.8120  122.0860   61.0910 C   0  0  0  0  0  0  0  0  0  0  0  0
  132.1530  122.1210   60.6820 C   0  0  0  0  0  0  0  0  0  0  0  0
  132.7830  123.4380   60.3350 C   0  0  0  0  0  0  0  0  0  0  0  0
  132.8830  123.8370   59.1710 O   0  0  0  0  0  0  0  0  0  0  0  0
  133.3260  124.2870   61.5060 C   0  0  0  0  0  0  0  0  0  0  0  0
  133.3970  123.3390   63.0690 S   0  0  0  0  0  0  0  0  0  0  0  0
  132.9550  124.6120   64.2170 C   0  0  0  0  0  0  0  0  0  0  0  0
  133.8010  125.3580   64.8880 N   0  0  0  0  0  0  0  0  0  0  0  0
  133.0650  126.2380   65.6710 N   0  0  0  0  0  0  0  0  0  0  0  0
  131.7990  125.9920   65.4420 C   0  0  0  0  0  0  0  0  0  0  0  0
  130.6430  126.7400   66.0890 C   0  0  0  0  0  0  0  0  0  0  0  0
  130.9450  127.2540   67.4230 N   0  0  0  0  0  0  0  0  0  0  0  0
  130.1100  127.0670   68.5390 C   0  0  0  0  0  0  0  0  0  0  0  0
  129.9130  128.1590   69.3840 C   0  0  0  0  0  0  0  0  0  0  0  0
  129.1030  128.0410   70.5090 C   0  0  0  0  0  0  0  0  0  0  0  0
  128.4760  126.8260   70.8020 C   0  0  0  0  0  0  0  0  0  0  0  0
  127.5950  126.7120   72.0460 C   0  0  0  0  0  0  0  0  0  0  0  0
  126.3030  126.9010   71.7690 F   0  0  0  0  0  0  0  0  0  0  0  0
  127.7250  125.5050   72.5980 F   0  0  0  0  0  0  0  0  0  0  0  0
  127.9710  127.6320   72.9340 F   0  0  0  0  0  0  0  0  0  0  0  0
  128.6670  125.7320   69.9520 C   0  0  0  0  0  0  0  0  0  0  0  0
  129.4760  125.8510   68.8260 C   0  0  0  0  0  0  0  0  0  0  0  0
  131.6580  124.9610   64.5360 N   0  0  0  0  0  0  0  0  0  0  0  0
  130.4680  124.4170   64.0310 C   0  0  0  0  0  0  0  0  0  0  0  0
  129.9220  123.2820   64.6300 C   0  0  0  0  0  0  0  0  0  0  0  0
  128.7430  122.7400   64.1260 C   0  0  0  0  0  0  0  0  0  0  0  0
  128.1070  123.3320   63.0230 C   0  0  0  0  0  0  0  0  0  0  0  0
  126.9360  122.8650   62.4570 O   0  0  0  0  0  0  0  0  0  0  0  0
  125.7430  123.6270   62.6000 C   0  0  0  0  0  0  0  0  0  0  0  0
  128.6690  124.4670   62.4350 C   0  0  0  0  0  0  0  0  0  0  0  0
  129.8470  125.0140   62.9340 C   0  0  0  0  0  0  0  0  0  0  0  0
  132.8680  120.9170   60.6140 C   0  0  0  0  0  0  0  0  0  0  0  0
  132.2580  119.7100   60.9450 C   0  0  0  0  0  0  0  0  0  0  0  0
  131.3906  116.8940   63.2144 H   0  0  0  0  0  0  0  0  0  0  0  0
  131.8392  115.6349   62.0143 H   0  0  0  0  0  0  0  0  0  0  0  0
  132.6872  117.2185   62.0143 H   0  0  0  0  0  0  0  0  0  0  0  0
  131.1357  117.4046   60.2129 H   0  0  0  0  0  0  0  0  0  0  0  0
  129.8344  116.5767   61.1222 H   0  0  0  0  0  0  0  0  0  0  0  0
  129.1510  120.8690   61.7380 H   0  0  0  0  0  0  0  0  0  0  0  0
  130.2360  123.0212   61.1521 H   0  0  0  0  0  0  0  0  0  0  0  0
  134.3398  124.6316   61.2539 H   0  0  0  0  0  0  0  0  0  0  0  0
  132.6415  125.1351   61.6552 H   0  0  0  0  0  0  0  0  0  0  0  0
  130.3746  127.5889   65.4430 H   0  0  0  0  0  0  0  0  0  0  0  0
  129.8194  126.0197   66.2025 H   0  0  0  0  0  0  0  0  0  0  0  0
  131.6780  127.9440   67.4980 H   0  0  0  0  0  0  0  0  0  0  0  0
  130.4008  129.1190   69.1597 H   0  0  0  0  0  0  0  0  0  0  0  0
  128.9552  128.9072   71.1708 H   0  0  0  0  0  0  0  0  0  0  0  0
  128.1756  124.7733   70.1744 H   0  0  0  0  0  0  0  0  0  0  0  0
  129.6182  124.9877   68.1592 H   0  0  0  0  0  0  0  0  0  0  0  0
  130.4195  122.8184   65.4946 H   0  0  0  0  0  0  0  0  0  0  0  0
  128.3079  121.8445   64.5937 H   0  0  0  0  0  0  0  0  0  0  0  0
  125.5234  123.7673   63.6687 H   0  0  0  0  0  0  0  0  0  0  0  0
  125.8751  124.6083   62.1209 H   0  0  0  0  0  0  0  0  0  0  0  0
  124.9082  123.0945   62.1209 H   0  0  0  0  0  0  0  0  0  0  0  0
  128.1758  124.9330   61.5692 H   0  0  0  0  0  0  0  0  0  0  0  0
  130.2845  125.9090   62.4677 H   0  0  0  0  0  0  0  0  0  0  0  0
  133.9210  120.9260   60.2961 H   0  0  0  0  0  0  0  0  0  0  0  0
  132.8319  118.7733   60.8880 H   0  0  0  0  0  0  0  0  0  0  0  0
  1  2  1  0
  2  3  1  0
  3  4  1  0
  4  5  2  0
  5  6  1  0
  6  7  2  0
  7  8  1  0
  8  9  2  0
  8 10  1  0
 10 11  1  0
 11 12  1  0
 12 13  2  0
 13 14  1  0
 14 15  2  0
 15 16  1  0
 16 17  1  0
 17 18  1  0
 18 19  2  0
 19 20  1  0
 20 21  2  0
 21 22  1  0
 22 23  1  0
 22 24  1  0
 22 25  1  0
 21 26  1  0
 26 27  2  0
 15 28  1  0
 28 29  1  0
 29 30  2  0
 30 31  1  0
 31 32  2  0
 32 33  1  0
 33 34  1  0
 32 35  1  0
 35 36  2  0
  7 37  1  0
 37 38  2  0
 38  4  1  0
 28 12  1  0
 36 29  1  0
 27 18  1  0
  1 39  1  0
  1 40  1  0
  1 41  1  0
  2 42  1  0
  2 43  1  0
  5 44  1  0
  6 45  1  0
 10 46  1  0
 10 47  1  0
 16 48  1  0
 16 49  1  0
 17 50  1  0
 19 51  1  0
 20 52  1  0
 26 53  1  0
 27 54  1  0
 30 55  1  0
 31 56  1  0
 34 57  1  0
 34 58  1  0
 34 59  1  0
 35 60  1  0
 36 61  1  0
 37 62  1  0
 38 63  1  0
M  END
>  <Binding energies>  (1) 
[-9.79]

>  <Ligand effiencies>  (1) 
[-0.251025641025641]

>  <Interactions>  (1) 
["V-A:ASP:366:CG:3212, V-B:GLU:543:CD:9879, H-B:ALA:541:N:9862, H-A:TYR:484:OH:4347, V-B:ALA:541:CB:9863, V-B:ALA:541:CA:9861, V-A:LEU:475:CD2:4258, V-A:PRO:482:CG:4326, V-A:HIS:383:CE1:3393, V-A:ILE:369:CD1:3238, V-B:TYR:539:CD2:9845, V-A:ILE:369:CG2:3236, V-B:TYR:539:CE2:9847, V-A:SER:385:CB:3408, V-A:GLY:454:CA:4048, V-A:THR:477:CG2:4272, H-B:TYR:539:OH:9849, V-A:PRO:482:CB:4325, V-B:GLU:543:CG:9878, H-A:GLY:454:N:4049, V-A:HIS:456:CE1:4069, H-A:GLU:543:OE1:4908, V-B:GLU:543:CB:9877, V-A:GLU:543:CD:4907, V-B:HIS:456:CE1:9040, V-B:LYS:547:CE:9921, V-B:GLU:543:C:9873, V-B:GLY:544:CA:9885, V-A:GLU:543:CB:4905, H-A:ARG:545:NH2:4927, H-A:ARG:545:NE:4923, V-B:GLY:544:C:9883, V-A:TYR:484:CE2:4345, V-B:GLU:543:CA:9875, V-B:HIS:456:CD2:9038, V-B:ARG:545:CA:9890"]

$$$$
RR18_Rahimova_2017
     RDKit          3D

 56 61  0  0  0  0  0  0  0  0999 V2000
  130.0170  127.6660   59.8930 C   0  0  0  0  0  0  0  0  0  0  0  0
  129.8830  127.9200   61.3740 C   0  0  0  0  0  0  0  0  0  0  0  0
  130.0270  127.1340   62.5060 C   0  0  0  0  0  0  0  0  0  0  0  0
  129.7690  127.9550   63.6020 C   0  0  0  0  0  0  0  0  0  0  0  0
  129.4770  129.2140   63.1020 C   0  0  0  0  0  0  0  0  0  0  0  0
  129.1190  130.5510   63.7450 C   0  0  1  0  0  0  0  0  0  0  0  0
  128.9850  131.6800   62.6790 C   0  0  0  0  0  0  0  0  0  0  0  0
  130.1460  132.1070   61.9060 C   0  0  0  0  0  0  0  0  0  0  0  0
  130.9980  132.8650   62.3760 O   0  0  0  0  0  0  0  0  0  0  0  0
  130.2030  131.5890   60.6570 N   0  0  0  0  0  0  0  0  0  0  0  0
  131.1500  131.7860   59.6290 C   0  0  0  0  0  0  0  0  0  0  0  0
  130.8430  132.3980   58.4000 C   0  0  0  0  0  0  0  0  0  0  0  0
  131.8240  132.5570   57.4230 C   0  0  0  0  0  0  0  0  0  0  0  0
  133.1190  132.1020   57.6520 C   0  0  0  0  0  0  0  0  0  0  0  0
  133.4340  131.4830   58.8590 C   0  0  0  0  0  0  0  0  0  0  0  0
  132.4610  131.3180   59.8500 C   0  0  0  0  0  0  0  0  0  0  0  0
  132.8560  130.6290   61.1530 C   0  0  0  0  0  0  0  0  0  0  0  0
  127.7480  132.1790   62.4170 C   0  0  0  0  0  0  0  0  0  0  0  0
  126.6170  131.8520   63.1020 N   0  0  0  0  0  0  0  0  0  0  0  0
  126.6990  131.0810   64.1230 C   0  0  0  0  0  0  0  0  0  0  0  0
  125.3650  130.6950   65.1840 S   0  0  0  0  0  0  0  0  0  0  0  0
  126.4160  129.6800   66.2220 C   0  0  0  0  0  0  0  0  0  0  0  0
  126.0470  128.9870   67.3550 C   0  0  0  0  0  0  0  0  0  0  0  0
  124.6790  129.0990   67.8810 C   0  0  0  0  0  0  0  0  0  0  0  0
  123.7140  129.7290   67.4510 O   0  0  0  0  0  0  0  0  0  0  0  0
  124.6230  128.3730   69.0020 N   0  0  0  0  0  0  0  0  0  0  0  0
  125.7960  127.7440   69.2870 C   0  0  0  0  0  0  0  0  0  0  0  0
  126.0760  126.9040   70.3650 C   0  0  0  0  0  0  0  0  0  0  0  0
  127.3410  126.3300   70.4590 C   0  0  0  0  0  0  0  0  0  0  0  0
  128.2940  126.5960   69.4770 C   0  0  0  0  0  0  0  0  0  0  0  0
  127.9900  127.4420   68.4080 C   0  0  0  0  0  0  0  0  0  0  0  0
  126.7240  128.0510   68.3070 C   0  0  0  0  0  0  0  0  0  0  0  0
  127.7690  129.7170   65.6670 C   0  0  0  0  0  0  0  0  0  0  0  0
  128.7670  129.1820   66.1410 O   0  0  0  0  0  0  0  0  0  0  0  0
  127.8350  130.4570   64.5270 N   0  0  0  0  0  0  0  0  0  0  0  0
  129.5480  129.1830   61.7440 O   0  0  0  0  0  0  0  0  0  0  0  0
  130.5246  126.7038   59.7305 H   0  0  0  0  0  0  0  0  0  0  0  0
  129.0177  127.6354   59.4343 H   0  0  0  0  0  0  0  0  0  0  0  0
  130.6064  128.4736   59.4343 H   0  0  0  0  0  0  0  0  0  0  0  0
  130.2937  126.0672   62.5341 H   0  0  0  0  0  0  0  0  0  0  0  0
  129.7926  127.6601   64.6615 H   0  0  0  0  0  0  0  0  0  0  0  0
  129.9421  130.8013   64.4305 H   0  0  0  0  0  0  0  0  0  0  0  0
  129.4870  130.9160   60.4290 H   0  0  0  0  0  0  0  0  0  0  0  0
  129.8200  132.7540   58.2086 H   0  0  0  0  0  0  0  0  0  0  0  0
  131.5741  133.0433   56.4685 H   0  0  0  0  0  0  0  0  0  0  0  0
  133.8927  132.2311   56.8808 H   0  0  0  0  0  0  0  0  0  0  0  0
  134.4576  131.1205   59.0346 H   0  0  0  0  0  0  0  0  0  0  0  0
  132.5105  131.2317   62.0058 H   0  0  0  0  0  0  0  0  0  0  0  0
  132.3920  129.6326   61.1962 H   0  0  0  0  0  0  0  0  0  0  0  0
  133.9503  130.5260   61.1962 H   0  0  0  0  0  0  0  0  0  0  0  0
  127.6534  132.8996   61.5913 H   0  0  0  0  0  0  0  0  0  0  0  0
  123.7870  128.2870   69.5620 H   0  0  0  0  0  0  0  0  0  0  0  0
  125.3104  126.6986   71.1277 H   0  0  0  0  0  0  0  0  0  0  0  0
  127.5872  125.6700   71.3038 H   0  0  0  0  0  0  0  0  0  0  0  0
  129.2913  126.1369   69.5444 H   0  0  0  0  0  0  0  0  0  0  0  0
  128.7488  127.6351   67.6353 H   0  0  0  0  0  0  0  0  0  0  0  0
  1  2  1  0
  2  3  2  0
  3  4  1  0
  4  5  2  0
  5  6  1  0
  6  7  1  0
  7  8  1  0
  8  9  2  0
  8 10  1  0
 10 11  1  0
 11 12  2  0
 12 13  1  0
 13 14  2  0
 14 15  1  0
 15 16  2  0
 16 17  1  0
  7 18  2  0
 18 19  1  0
 19 20  2  0
 20 21  1  0
 21 22  1  0
 22 23  2  0
 23 24  1  0
 24 25  2  0
 24 26  1  0
 26 27  1  0
 27 28  2  0
 28 29  1  0
 29 30  2  0
 30 31  1  0
 31 32  2  0
 22 33  1  0
 33 34  2  0
 33 35  1  0
  5 36  1  0
 36  2  1  0
 35  6  1  0
 16 11  1  0
 35 20  1  0
 32 23  1  0
 32 27  1  0
  1 37  1  0
  1 38  1  0
  1 39  1  0
  3 40  1  0
  4 41  1  0
  6 42  1  1
 10 43  1  0
 12 44  1  0
 13 45  1  0
 14 46  1  0
 15 47  1  0
 17 48  1  0
 17 49  1  0
 17 50  1  0
 18 51  1  0
 26 52  1  0
 28 53  1  0
 29 54  1  0
 30 55  1  0
 31 56  1  0
M  END
>  <Binding energies>  (1) 
[-9.5]

>  <Ligand effiencies>  (1) 
[-0.25]

>  <Interactions>  (1) 
["V-A:LEU:363:CA:3184, V-A:ASP:366:CG:3212, H-A:ALA:541:N:4890, V-A:PRO:540:CB:4884, V-A:PRO:540:CA:4882, V-A:TYR:531:CE2:4792, V-A:TYR:531:CZ:4793, V-A:LEU:363:CD1:3188, V-B:GLU:543:CD:9879, V-B:GLU:543:CB:9877, V-A:GLU:543:CD:4907, V-B:HIS:456:CE1:9040, V-B:ARG:545:CD:9894, V-B:GLU:543:C:9873, V-A:GLU:543:CG:4906, V-B:ARG:545:CG:9893, H-B:TYR:484:OH:9318, V-B:GLY:544:C:9883, V-A:PRO:540:N:4883, V-B:GLU:543:CA:9875, V-B:ARG:545:CA:9890, H-B:GLY:454:N:9020, V-B:ARG:545:CB:9892, H-B:ILE:455:N:9025, H-B:ILE:455:O:9023"]

$$$$
RR19_Rahimova_2017
     RDKit          3D

 72 77  0  0  0  0  0  0  0  0999 V2000
  133.7440  124.2020   58.6220 O   0  0  0  0  0  0  0  0  0  0  0  0
  132.7530  124.4120   59.3270 C   0  0  0  0  0  0  0  0  0  0  0  0
  131.8290  125.3870   59.1340 N   0  0  0  0  0  0  0  0  0  0  0  0
  131.5670  126.2330   58.0850 C   0  0  0  0  0  0  0  0  0  0  0  0
  132.2390  126.1190   56.5350 S   0  0  0  0  0  0  0  0  0  0  0  0
  130.6690  127.1850   58.5020 N   0  0  0  0  0  0  0  0  0  0  0  0
  129.9790  128.1530   57.8480 C   0  0  0  0  0  0  0  0  0  0  0  0
  129.8750  128.2790   56.6260 O   0  0  0  0  0  0  0  0  0  0  0  0
  129.2960  129.1800   58.7870 C   0  0  2  0  0  0  0  0  0  0  0  0
  128.2620  130.1130   58.0910 C   0  0  0  0  0  0  0  0  0  0  0  0
  128.8610  131.2150   57.2320 C   0  0  0  0  0  0  0  0  0  0  0  0
  128.7540  131.1740   55.8250 C   0  0  0  0  0  0  0  0  0  0  0  0
  129.2360  132.2280   55.0610 C   0  0  0  0  0  0  0  0  0  0  0  0
  129.8090  133.3350   55.6760 C   0  0  0  0  0  0  0  0  0  0  0  0
  129.8940  133.4020   57.0610 C   0  0  0  0  0  0  0  0  0  0  0  0
  129.4150  132.3600   57.8430 C   0  0  0  0  0  0  0  0  0  0  0  0
  130.3020  129.9580   59.5600 N   0  0  0  0  0  0  0  0  0  0  0  0
  131.5910  130.0730   59.1310 C   0  0  0  0  0  0  0  0  0  0  0  0
  132.0930  129.5620   58.1280 O   0  0  0  0  0  0  0  0  0  0  0  0
  132.2630  130.9460   60.1250 C   0  0  0  0  0  0  0  0  0  0  0  0
  133.5800  131.3990   60.2020 C   0  0  0  0  0  0  0  0  0  0  0  0
  133.9410  132.2340   61.2650 C   0  0  0  0  0  0  0  0  0  0  0  0
  132.9910  132.6020   62.2280 C   0  0  0  0  0  0  0  0  0  0  0  0
  131.6740  132.1370   62.1330 C   0  0  0  0  0  0  0  0  0  0  0  0
  131.3360  131.3040   61.0650 C   0  0  0  0  0  0  0  0  0  0  0  0
  130.0450  130.6710   60.6970 C   0  0  0  0  0  0  0  0  0  0  0  0
  128.9700  130.7770   61.2890 O   0  0  0  0  0  0  0  0  0  0  0  0
  132.4970  123.5200   60.5710 C   0  0  2  0  0  0  0  0  0  0  0  0
  131.3150  122.5230   60.3990 C   0  0  0  0  0  0  0  0  0  0  0  0
  131.6620  121.0880   60.7540 C   0  0  0  0  0  0  0  0  0  0  0  0
  130.6550  120.2060   61.2030 C   0  0  0  0  0  0  0  0  0  0  0  0
  130.9550  118.8690   61.4300 C   0  0  0  0  0  0  0  0  0  0  0  0
  132.2350  118.3870   61.1910 C   0  0  0  0  0  0  0  0  0  0  0  0
  133.2260  119.2350   60.7110 C   0  0  0  0  0  0  0  0  0  0  0  0
  132.9470  120.5760   60.4790 C   0  0  0  0  0  0  0  0  0  0  0  0
  132.3770  124.2940   61.8400 N   0  0  0  0  0  0  0  0  0  0  0  0
  131.2690  125.0320   62.1270 C   0  0  0  0  0  0  0  0  0  0  0  0
  130.2680  125.1800   61.4250 O   0  0  0  0  0  0  0  0  0  0  0  0
  131.5230  125.6190   63.4670 C   0  0  0  0  0  0  0  0  0  0  0  0
  130.7430  126.4630   64.2590 C   0  0  0  0  0  0  0  0  0  0  0  0
  131.2420  126.8640   65.5030 C   0  0  0  0  0  0  0  0  0  0  0  0
  132.4980  126.4200   65.9370 C   0  0  0  0  0  0  0  0  0  0  0  0
  133.2650  125.5720   65.1290 C   0  0  0  0  0  0  0  0  0  0  0  0
  132.7500  125.1850   63.8900 C   0  0  0  0  0  0  0  0  0  0  0  0
  133.3140  124.3100   62.8340 C   0  0  0  0  0  0  0  0  0  0  0  0
  134.3950  123.7210   62.8520 O   0  0  0  0  0  0  0  0  0  0  0  0
  131.1400  125.4340   59.8700 H   0  0  0  0  0  0  0  0  0  0  0  0
  130.5730  127.2360   59.5050 H   0  0  0  0  0  0  0  0  0  0  0  0
  128.7013  128.5760   59.4881 H   0  0  0  0  0  0  0  0  0  0  0  0
  127.6207  129.4914   57.4488 H   0  0  0  0  0  0  0  0  0  0  0  0
  127.7145  130.6194   58.8996 H   0  0  0  0  0  0  0  0  0  0  0  0
  128.2886  130.3067   55.3340 H   0  0  0  0  0  0  0  0  0  0  0  0
  129.1642  132.1870   53.9641 H   0  0  0  0  0  0  0  0  0  0  0  0
  130.1970  134.1619   55.0631 H   0  0  0  0  0  0  0  0  0  0  0  0
  130.3429  134.2846   57.5400 H   0  0  0  0  0  0  0  0  0  0  0  0
  129.4673  132.4268   58.9397 H   0  0  0  0  0  0  0  0  0  0  0  0
  134.3197  131.1057   59.4425 H   0  0  0  0  0  0  0  0  0  0  0  0
  134.9741  132.6031   61.3454 H   0  0  0  0  0  0  0  0  0  0  0  0
  133.2815  133.2586   63.0614 H   0  0  0  0  0  0  0  0  0  0  0  0
  130.9219  132.4218   62.8835 H   0  0  0  0  0  0  0  0  0  0  0  0
  133.4079  122.9089   60.6535 H   0  0  0  0  0  0  0  0  0  0  0  0
  130.4892  122.8500   61.0479 H   0  0  0  0  0  0  0  0  0  0  0  0
  131.0440  122.5309   59.3329 H   0  0  0  0  0  0  0  0  0  0  0  0
  129.6337  120.5775   61.3729 H   0  0  0  0  0  0  0  0  0  0  0  0
  130.1745  118.1885   61.8010 H   0  0  0  0  0  0  0  0  0  0  0  0
  132.4659  117.3287   61.3825 H   0  0  0  0  0  0  0  0  0  0  0  0
  134.2347  118.8430   60.5141 H   0  0  0  0  0  0  0  0  0  0  0  0
  133.7290  121.2390   60.0805 H   0  0  0  0  0  0  0  0  0  0  0  0
  129.7568  126.8056   63.9125 H   0  0  0  0  0  0  0  0  0  0  0  0
  130.6456  127.5308   66.1431 H   0  0  0  0  0  0  0  0  0  0  0  0
  132.8831  126.7390   66.9167 H   0  0  0  0  0  0  0  0  0  0  0  0
  134.2517  125.2183   65.4628 H   0  0  0  0  0  0  0  0  0  0  0  0
  1  2  2  0
  2  3  1  0
  3  4  1  0
  4  5  2  0
  4  6  1  0
  6  7  1  0
  7  8  2  0
  7  9  1  0
  9 10  1  0
 10 11  1  0
 11 12  2  0
 12 13  1  0
 13 14  2  0
 14 15  1  0
 15 16  2  0
  9 17  1  0
 17 18  1  0
 18 19  2  0
 18 20  1  0
 20 21  2  0
 21 22  1  0
 22 23  2  0
 23 24  1  0
 24 25  2  0
 25 26  1  0
 26 27  2  0
  2 28  1  0
 28 29  1  0
 29 30  1  0
 30 31  2  0
 31 32  1  0
 32 33  2  0
 33 34  1  0
 34 35  2  0
 28 36  1  0
 36 37  1  0
 37 38  2  0
 37 39  1  0
 39 40  2  0
 40 41  1  0
 41 42  2  0
 42 43  1  0
 43 44  2  0
 44 45  1  0
 45 46  2  0
 16 11  1  0
 26 17  1  0
 35 30  1  0
 45 36  1  0
 25 20  1  0
 44 39  1  0
  3 47  1  0
  6 48  1  0
  9 49  1  1
 10 50  1  0
 10 51  1  0
 12 52  1  0
 13 53  1  0
 14 54  1  0
 15 55  1  0
 16 56  1  0
 21 57  1  0
 22 58  1  0
 23 59  1  0
 24 60  1  0
 28 61  1  1
 29 62  1  0
 29 63  1  0
 31 64  1  0
 32 65  1  0
 33 66  1  0
 34 67  1  0
 35 68  1  0
 40 69  1  0
 41 70  1  0
 42 71  1  0
 43 72  1  0
M  END
>  <Binding energies>  (1) 
[-11.59]

>  <Ligand effiencies>  (1) 
[-0.24145833333333333]

>  <Interactions>  (1) 
["V-A:LEU:363:CA:3184, V-A:TYR:539:CG:4871, V-A:TYR:539:CZ:4876, V-A:ASP:366:CG:3212, V-A:ASN:362:C:3171, V-A:PRO:540:CB:4884, V-A:TYR:539:CE1:4874, V-A:TYR:539:CD1:4872, V-A:ASP:366:CB:3211, H-A:TYR:531:OH:4794, V-A:PRO:540:CA:4882, V-A:TYR:531:CZ:4793, V-A:ILE:538:CA:4859, V-B:ALA:541:CB:9863, V-A:LEU:475:CD2:4258, V-B:TYR:539:CD2:9845, V-A:ILE:369:CG2:3236, V-B:TYR:539:CE2:9847, V-A:SER:385:CA:3406, V-A:SER:385:CB:3408, H-B:TYR:539:OH:9849, H-A:GLY:454:N:4049, V-A:ARG:545:CZ:4925, V-A:GLU:543:CD:4907, H-A:ASP:366:OD2:3214, V-A:TYR:531:CE1:4791, V-A:PRO:540:N:4883, V-A:MET:535:CG:4832, V-A:TYR:539:C:4866, V-A:ASN:362:CB:3175, V-A:ALA:541:C:4887, V-A:PRO:540:C:4880, V-A:ASN:370:CB:3244, V-A:ASN:362:CA:3173"]

$$$$
RR19_Rahimova_2017-again1
     RDKit          3D

 71 76  0  0  0  0  0  0  0  0999 V2000
  133.3120  124.2940   59.1130 O   0  0  0  0  0  0  0  0  0  0  0  0
  132.3100  124.2410   59.8310 C   0  0  0  0  0  0  0  0  0  0  0  0
  131.1410  124.8860   59.6070 N   0  0  0  0  0  0  0  0  0  0  0  0
  130.6680  125.6110   58.5490 C   0  0  0  0  0  0  0  0  0  0  0  0
  131.4330  126.0830   57.1290 S   0  0  0  0  0  0  0  0  0  0  0  0
  129.3300  125.8570   58.8040 N   0  0  0  0  0  0  0  0  0  0  0  0
  128.4760  125.1360   59.4550 C   0  0  0  0  0  0  0  0  0  0  0  0
  128.6340  124.0780   60.0960 O   0  0  0  0  0  0  0  0  0  0  0  0
  127.0000  125.6570   59.4280 C   0  0  2  0  0  0  0  0  0  0  0  0
  125.9790  124.4750   59.3400 C   0  0  0  0  0  0  0  0  0  0  0  0
  126.0350  123.6850   58.0350 C   0  0  0  0  0  0  0  0  0  0  0  0
  127.2370  123.1030   57.6230 C   0  0  0  0  0  0  0  0  0  0  0  0
  127.2860  122.3700   56.4410 C   0  0  0  0  0  0  0  0  0  0  0  0
  126.1320  122.2220   55.6710 C   0  0  0  0  0  0  0  0  0  0  0  0
  124.9310  122.8030   56.0740 C   0  0  0  0  0  0  0  0  0  0  0  0
  124.8830  123.5380   57.2560 C   0  0  0  0  0  0  0  0  0  0  0  0
  126.7690  126.7570   58.4340 N   0  0  0  0  0  0  0  0  0  0  0  0
  126.0480  127.8680   58.7530 C   0  0  0  0  0  0  0  0  0  0  0  0
  125.4990  128.1210   59.8260 O   0  0  0  0  0  0  0  0  0  0  0  0
  126.0600  128.7110   57.5290 C   0  0  0  0  0  0  0  0  0  0  0  0
  125.4830  129.9550   57.2700 C   0  0  0  0  0  0  0  0  0  0  0  0
  125.6610  130.5240   56.0050 C   0  0  0  0  0  0  0  0  0  0  0  0
  126.4060  129.8540   55.0260 C   0  0  0  0  0  0  0  0  0  0  0  0
  126.9770  128.6080   55.3060 C   0  0  0  0  0  0  0  0  0  0  0  0
  126.7870  128.0560   56.5740 C   0  0  0  0  0  0  0  0  0  0  0  0
  127.2600  126.7780   57.1570 C   0  0  0  0  0  0  0  0  0  0  0  0
  127.9490  125.9210   56.6040 O   0  0  0  0  0  0  0  0  0  0  0  0
  132.3340  123.3740   61.1250 C   0  0  2  0  0  0  0  0  0  0  0  0
  131.2520  122.2570   61.1500 C   0  0  0  0  0  0  0  0  0  0  0  0
  131.8110  120.8530   61.0040 C   0  0  0  0  0  0  0  0  0  0  0  0
  130.9670  119.7350   61.1720 C   0  0  0  0  0  0  0  0  0  0  0  0
  131.4550  118.4550   60.9410 C   0  0  0  0  0  0  0  0  0  0  0  0
  132.7660  118.2710   60.5170 C   0  0  0  0  0  0  0  0  0  0  0  0
  133.5960  119.3650   60.3110 C   0  0  0  0  0  0  0  0  0  0  0  0
  133.1270  120.6530   60.5360 C   0  0  0  0  0  0  0  0  0  0  0  0
  132.3500  124.1690   62.3900 N   0  0  0  0  0  0  0  0  0  0  0  0
  131.2060  124.6810   62.9260 C   0  0  0  0  0  0  0  0  0  0  0  0
  130.0730  124.6440   62.4450 O   0  0  0  0  0  0  0  0  0  0  0  0
  131.6110  125.2850   64.2190 C   0  0  0  0  0  0  0  0  0  0  0  0
  130.8610  125.9390   65.1980 C   0  0  0  0  0  0  0  0  0  0  0  0
  131.5140  126.3970   66.3480 C   0  0  0  0  0  0  0  0  0  0  0  0
  132.8930  126.2000   66.5020 C   0  0  0  0  0  0  0  0  0  0  0  0
  133.6280  125.5440   65.5090 C   0  0  0  0  0  0  0  0  0  0  0  0
  132.9570  125.0940   64.3710 C   0  0  0  0  0  0  0  0  0  0  0  0
  133.4480  124.3540   63.1820 C   0  0  0  0  0  0  0  0  0  0  0  0
  134.6000  123.9770   62.9630 O   0  0  0  0  0  0  0  0  0  0  0  0
  130.4480  124.7330   60.3240 H   0  0  0  0  0  0  0  0  0  0  0  0
  126.8122  126.1467   60.3949 H   0  0  0  0  0  0  0  0  0  0  0  0
  126.1832  123.7823   60.1698 H   0  0  0  0  0  0  0  0  0  0  0  0
  124.9761  124.9239   59.3908 H   0  0  0  0  0  0  0  0  0  0  0  0
  128.1443  123.2243   58.2330 H   0  0  0  0  0  0  0  0  0  0  0  0
  128.2303  121.9094   56.1153 H   0  0  0  0  0  0  0  0  0  0  0  0
  126.1704  121.6415   54.7374 H   0  0  0  0  0  0  0  0  0  0  0  0
  124.0254  122.6816   55.4615 H   0  0  0  0  0  0  0  0  0  0  0  0
  123.9390  124.0028   57.5768 H   0  0  0  0  0  0  0  0  0  0  0  0
  124.9009  130.4766   58.0440 H   0  0  0  0  0  0  0  0  0  0  0  0
  125.2136  131.5028   55.7775 H   0  0  0  0  0  0  0  0  0  0  0  0
  126.5424  130.3091   54.0339 H   0  0  0  0  0  0  0  0  0  0  0  0
  127.5632  128.0746   54.5432 H   0  0  0  0  0  0  0  0  0  0  0  0
  133.3056  122.8601   61.0806 H   0  0  0  0  0  0  0  0  0  0  0  0
  130.7144  122.3175   62.1078 H   0  0  0  0  0  0  0  0  0  0  0  0
  130.5956  122.4300   60.2844 H   0  0  0  0  0  0  0  0  0  0  0  0
  129.9223  119.8769   61.4860 H   0  0  0  0  0  0  0  0  0  0  0  0
  130.8014  117.5836   61.0942 H   0  0  0  0  0  0  0  0  0  0  0  0
  133.1477  117.2540   60.3439 H   0  0  0  0  0  0  0  0  0  0  0  0
  134.6298  119.2110   59.9680 H   0  0  0  0  0  0  0  0  0  0  0  0
  133.7816  121.5171   60.3493 H   0  0  0  0  0  0  0  0  0  0  0  0
  129.7793  126.0912   65.0683 H   0  0  0  0  0  0  0  0  0  0  0  0
  130.9430  126.9134   67.1337 H   0  0  0  0  0  0  0  0  0  0  0  0
  133.3999  126.5631   67.4082 H   0  0  0  0  0  0  0  0  0  0  0  0
  134.7107  125.3863   65.6225 H   0  0  0  0  0  0  0  0  0  0  0  0
  1  2  2  0
  2  3  1  0
  3  4  1  0
  4  5  2  0
  4  6  1  0
  6  7  2  0
  7  8  1  0
  7  9  1  0
  9 10  1  0
 10 11  1  0
 11 12  2  0
 12 13  1  0
 13 14  2  0
 14 15  1  0
 15 16  2  0
  9 17  1  0
 17 18  1  0
 18 19  2  0
 18 20  1  0
 20 21  2  0
 21 22  1  0
 22 23  2  0
 23 24  1  0
 24 25  2  0
 25 26  1  0
 26 27  2  0
  2 28  1  0
 28 29  1  0
 29 30  1  0
 30 31  2  0
 31 32  1  0
 32 33  2  0
 33 34  1  0
 34 35  2  0
 28 36  1  0
 36 37  1  0
 37 38  2  0
 37 39  1  0
 39 40  2  0
 40 41  1  0
 41 42  2  0
 42 43  1  0
 43 44  2  0
 44 45  1  0
 45 46  2  0
 16 11  1  0
 26 17  1  0
 35 30  1  0
 45 36  1  0
 25 20  1  0
 44 39  1  0
  3 47  1  0
  9 48  1  1
 10 49  1  0
 10 50  1  0
 12 51  1  0
 13 52  1  0
 14 53  1  0
 15 54  1  0
 16 55  1  0
 21 56  1  0
 22 57  1  0
 23 58  1  0
 24 59  1  0
 28 60  1  6
 29 61  1  0
 29 62  1  0
 31 63  1  0
 32 64  1  0
 33 65  1  0
 34 66  1  0
 35 67  1  0
 40 68  1  0
 41 69  1  0
 42 70  1  0
 43 71  1  0
M  CHG  1   8  -1
M  END
>  <Binding energies>  (1) 
[-10.88]

>  <Ligand effiencies>  (1) 
[-0.23148936170212767]

>  <Interactions>  (1) 
["V-A:ASP:366:CG:3212, V-B:PRO:540:N:9855, V-B:PRO:540:CA:9854, V-B:TYR:539:C:9838, V-A:LEU:475:CD2:4258, V-B:TYR:539:CD2:9845, V-A:ILE:369:CG2:3236, V-B:TYR:539:CE2:9847, V-A:SER:385:CA:3406, V-A:SER:385:CB:3408, V-A:GLY:454:CA:4048, V-B:TYR:539:CG:9843, V-B:MET:535:CE:9806, H-B:TYR:539:OH:9849, V-B:PRO:540:CB:9856, H-A:GLY:454:N:4049, V-B:TYR:539:CA:9840, V-A:ARG:545:CD:4922, V-B:TYR:539:CD1:9844, V-B:TYR:531:CZ:9765, V-B:TYR:531:CE2:9764, V-B:LEU:363:CD1:8159, V-A:ARG:545:CZ:4925, V-B:ILE:538:CD1:9836, V-A:ARG:545:CG:4921, V-B:ILE:538:CG2:9834, V-B:ILE:538:CA:9831, V-B:TYR:539:CE1:9846, V-B:ILE:538:C:9829, V-A:MET:535:CE:4834, H-B:TYR:531:OH:9766, V-B:MET:535:CG:9804, V-B:TYR:531:CE1:9763"]

$$$$
RR1_Rahimova_2017
     RDKit          3D

 68 71  0  0  0  0  0  0  0  0999 V2000
  125.0940  122.3640   55.6200 C   0  0  0  0  0  0  0  0  0  0  0  0
  126.4830  122.3690   55.9290 O   0  0  0  0  0  0  0  0  0  0  0  0
  126.8900  122.7290   57.1990 C   0  0  0  0  0  0  0  0  0  0  0  0
  126.0450  123.2820   58.1740 C   0  0  0  0  0  0  0  0  0  0  0  0
  126.5470  123.6220   59.4260 C   0  0  0  0  0  0  0  0  0  0  0  0
  127.8940  123.4120   59.7290 C   0  0  0  0  0  0  0  0  0  0  0  0
  128.3160  123.8300   61.0050 N   0  0  0  0  0  0  0  0  0  0  0  0
  127.8280  123.4970   62.2190 C   0  0  0  0  0  0  0  0  0  0  0  0
  126.8390  122.7880   62.4070 O   0  0  0  0  0  0  0  0  0  0  0  0
  128.6080  124.0850   63.4050 C   0  0  0  0  0  0  0  0  0  0  0  0
  129.2020  122.8690   64.6330 S   0  0  0  0  0  0  0  0  0  0  0  0
  130.5180  122.1880   63.6800 C   0  0  0  0  0  0  0  0  0  0  0  0
  130.3680  121.2460   62.7850 N   0  0  0  0  0  0  0  0  0  0  0  0
  131.5960  121.0550   62.3150 C   0  0  0  0  0  0  0  0  0  0  0  0
  131.8970  120.0530   61.2370 C   0  0  0  0  0  0  0  0  0  0  0  0
  131.0910  118.9210   61.0400 C   0  0  0  0  0  0  0  0  0  0  0  0
  131.3970  118.0050   60.0310 C   0  0  0  0  0  0  0  0  0  0  0  0
  132.5150  118.2450   59.2340 C   0  0  0  0  0  0  0  0  0  0  0  0
  133.3170  119.3280   59.3970 N   0  0  0  0  0  0  0  0  0  0  0  0
  133.0000  120.2060   60.3820 C   0  0  0  0  0  0  0  0  0  0  0  0
  132.5330  121.8100   62.8570 N   0  0  0  0  0  0  0  0  0  0  0  0
  131.8420  122.5390   63.7380 N   0  0  0  0  0  0  0  0  0  0  0  0
  132.5140  123.5480   64.5570 C   0  0  0  0  0  0  0  0  0  0  0  0
  132.6590  124.9300   63.8960 C   0  0  0  0  0  0  0  0  0  0  0  0
  133.7760  125.4120   63.6760 O   0  0  0  0  0  0  0  0  0  0  0  0
  131.4970  125.5420   63.5970 N   0  0  0  0  0  0  0  0  0  0  0  0
  131.5480  126.7220   62.8680 N   0  0  0  0  0  0  0  0  0  0  0  0
  130.4950  127.0190   62.0760 C   0  0  0  0  0  0  0  0  0  0  0  0
  129.4490  126.3620   62.0380 O   0  0  0  0  0  0  0  0  0  0  0  0
  130.6480  128.2610   61.2210 C   0  0  0  0  0  0  0  0  0  0  0  0
  130.4710  128.1810   59.8350 C   0  0  0  0  0  0  0  0  0  0  0  0
  130.6180  129.3060   59.0300 C   0  0  0  0  0  0  0  0  0  0  0  0
  130.9560  130.5490   59.5880 C   0  0  0  0  0  0  0  0  0  0  0  0
  131.1310  131.7020   58.8430 O   0  0  0  0  0  0  0  0  0  0  0  0
  130.0840  132.6630   58.7830 C   0  0  0  0  0  0  0  0  0  0  0  0
  131.1450  130.6480   60.9730 C   0  0  0  0  0  0  0  0  0  0  0  0
  131.4970  131.8920   61.4710 O   0  0  0  0  0  0  0  0  0  0  0  0
  132.8340  132.1270   61.8960 C   0  0  0  0  0  0  0  0  0  0  0  0
  130.9860  129.5050   61.7770 C   0  0  0  0  0  0  0  0  0  0  0  0
  128.7410  122.8580   58.7570 C   0  0  0  0  0  0  0  0  0  0  0  0
  128.2350  122.5180   57.5060 C   0  0  0  0  0  0  0  0  0  0  0  0
  124.5109  122.3619   56.5527 H   0  0  0  0  0  0  0  0  0  0  0  0
  124.8455  123.2613   55.0342 H   0  0  0  0  0  0  0  0  0  0  0  0
  124.8519  121.4650   55.0342 H   0  0  0  0  0  0  0  0  0  0  0  0
  124.9814  123.4472   57.9471 H   0  0  0  0  0  0  0  0  0  0  0  0
  125.8786  124.0592   60.1824 H   0  0  0  0  0  0  0  0  0  0  0  0
  129.0710  124.5010   60.9950 H   0  0  0  0  0  0  0  0  0  0  0  0
  129.4830  124.6182   63.0048 H   0  0  0  0  0  0  0  0  0  0  0  0
  127.9006  124.7354   63.9403 H   0  0  0  0  0  0  0  0  0  0  0  0
  130.2143  118.7545   61.6832 H   0  0  0  0  0  0  0  0  0  0  0  0
  130.7706  117.1154   59.8692 H   0  0  0  0  0  0  0  0  0  0  0  0
  132.7580  117.5255   58.4383 H   0  0  0  0  0  0  0  0  0  0  0  0
  133.6437  121.0875   60.5182 H   0  0  0  0  0  0  0  0  0  0  0  0
  131.9380  123.6726   65.4858 H   0  0  0  0  0  0  0  0  0  0  0  0
  133.5364  123.1779   64.7238 H   0  0  0  0  0  0  0  0  0  0  0  0
  130.5940  125.0880   63.5740 H   0  0  0  0  0  0  0  0  0  0  0  0
  132.4930  126.9430   62.5900 H   0  0  0  0  0  0  0  0  0  0  0  0
  130.2121  127.2155   59.3759 H   0  0  0  0  0  0  0  0  0  0  0  0
  130.4676  129.2206   57.9437 H   0  0  0  0  0  0  0  0  0  0  0  0
  129.7819  132.9403   59.8037 H   0  0  0  0  0  0  0  0  0  0  0  0
  130.4376  133.5576   58.2494 H   0  0  0  0  0  0  0  0  0  0  0  0
  129.2229  132.2343   58.2494 H   0  0  0  0  0  0  0  0  0  0  0  0
  132.8735  132.1339   62.9953 H   0  0  0  0  0  0  0  0  0  0  0  0
  133.4867  131.3298   61.5107 H   0  0  0  0  0  0  0  0  0  0  0  0
  133.1757  133.0990   61.5107 H   0  0  0  0  0  0  0  0  0  0  0  0
  131.1295  129.5875   62.8645 H   0  0  0  0  0  0  0  0  0  0  0  0
  129.8046  122.6925   58.9838 H   0  0  0  0  0  0  0  0  0  0  0  0
  128.9027  122.0780   56.7506 H   0  0  0  0  0  0  0  0  0  0  0  0
  1  2  1  0
  2  3  1  0
  3  4  2  0
  4  5  1  0
  5  6  2  0
  6  7  1  0
  7  8  1  0
  8  9  2  0
  8 10  1  0
 10 11  1  0
 11 12  1  0
 12 13  2  0
 13 14  1  0
 14 15  1  0
 15 16  2  0
 16 17  1  0
 17 18  2  0
 18 19  1  0
 19 20  2  0
 14 21  2  0
 21 22  1  0
 22 23  1  0
 23 24  1  0
 24 25  2  0
 24 26  1  0
 26 27  1  0
 27 28  1  0
 28 29  2  0
 28 30  1  0
 30 31  2  0
 31 32  1  0
 32 33  2  0
 33 34  1  0
 34 35  1  0
 33 36  1  0
 36 37  1  0
 37 38  1  0
 36 39  2  0
  6 40  1  0
 40 41  2  0
 41  3  1  0
 22 12  1  0
 39 30  1  0
 20 15  1  0
  1 42  1  0
  1 43  1  0
  1 44  1  0
  4 45  1  0
  5 46  1  0
  7 47  1  0
 10 48  1  0
 10 49  1  0
 16 50  1  0
 17 51  1  0
 18 52  1  0
 20 53  1  0
 23 54  1  0
 23 55  1  0
 26 56  1  0
 27 57  1  0
 31 58  1  0
 32 59  1  0
 35 60  1  0
 35 61  1  0
 35 62  1  0
 38 63  1  0
 38 64  1  0
 38 65  1  0
 39 66  1  0
 40 67  1  0
 41 68  1  0
M  END
>  <Binding energies>  (1) 
[-9.37]

>  <Ligand effiencies>  (1) 
[-0.21295454545454542]

>  <Interactions>  (1) 
["V-A:ASP:366:CG:3212, H-A:ALA:541:N:4890, V-A:PRO:540:CB:4884, V-A:PRO:540:CA:4882, V-B:GLU:543:CD:9879, V-B:PRO:540:N:9855, H-B:ALA:541:N:9862, V-B:ALA:541:CB:9863, V-B:PRO:540:CA:9854, H-B:GLU:543:OE2:9881, V-B:TYR:539:C:9838, V-A:LEU:475:CD2:4258, V-B:TYR:539:CD2:9845, V-A:ILE:369:CG2:3236, V-B:TYR:539:CE2:9847, V-B:TYR:539:CB:9842, V-A:GLY:454:CA:4048, H-B:TYR:539:N:9841, V-B:TYR:539:CG:9843, V-B:MET:535:CE:9806, V-B:TYR:539:CZ:9848, V-B:PRO:540:CB:9856, H-A:GLY:454:N:4049, V-B:TYR:539:CA:9840, V-B:TYR:539:CD1:9844, V-B:PRO:540:CD:9858, V-B:TYR:531:CE2:9764, V-B:LEU:363:CD1:8159, V-B:ILE:538:CD1:9836, V-B:ILE:538:CG2:9834, V-A:GLU:543:CD:4907, H-A:ASP:366:OD2:3214, H-A:ARG:545:NH1:4926, H-A:ARG:545:NH2:4927, V-B:ILE:538:CA:9831, V-B:TYR:539:CE1:9846, V-B:ILE:538:CB:9833, V-A:LEU:373:CG:3278, V-A:LEU:373:CD2:3280, H-A:ASP:366:OD1:3213, V-A:PRO:540:N:4883, V-A:TYR:539:C:4866, V-A:ASN:362:CB:3175"]

$$$$
RR20_Rahimova_2017
     RDKit          3D

 68 73  0  0  0  0  0  0  0  0999 V2000
  133.4160  130.7010   61.4730 C   0  0  0  0  0  0  0  0  0  0  0  0
  133.0340  131.2340   60.1040 C   0  0  0  0  0  0  0  0  0  0  0  0
  131.9710  132.1290   59.9800 C   0  0  0  0  0  0  0  0  0  0  0  0
  131.6240  132.6260   58.7260 C   0  0  0  0  0  0  0  0  0  0  0  0
  132.3290  132.2240   57.5860 C   0  0  0  0  0  0  0  0  0  0  0  0
  131.9500  132.7920   56.2370 C   0  0  0  0  0  0  0  0  0  0  0  0
  132.8520  133.2680   55.5430 O   0  0  0  0  0  0  0  0  0  0  0  0
  130.6460  132.7460   55.8340 N   0  0  0  0  0  0  0  0  0  0  0  0
  130.2050  133.3690   54.5750 C   0  0  0  0  0  0  0  0  0  0  0  0
  128.7470  132.9830   54.3940 C   0  0  0  0  0  0  0  0  0  0  0  0
  128.5760  131.8590   55.3700 C   0  0  0  0  0  0  0  0  0  0  0  0
  127.4620  131.0480   55.5900 C   0  0  0  0  0  0  0  0  0  0  0  0
  127.4340  130.1510   56.6650 C   0  0  0  0  0  0  0  0  0  0  0  0
  126.2380  129.2700   56.8970 C   0  0  0  0  0  0  0  0  0  0  0  0
  126.4010  128.1640   57.6060 N   0  0  0  0  0  0  0  0  0  0  0  0
  125.2920  127.4850   57.7610 C   0  0  0  0  0  0  0  0  0  0  0  0
  125.1090  126.2940   58.4470 N   0  0  0  0  0  0  0  0  0  0  0  0
  125.6180  125.0810   58.1240 C   0  0  0  0  0  0  0  0  0  0  0  0
  126.3530  124.8780   57.1560 O   0  0  0  0  0  0  0  0  0  0  0  0
  125.2780  123.8820   59.0410 C   0  0  0  0  0  0  0  0  0  0  0  0
  126.4620  123.3180   59.7150 N   0  0  0  0  0  0  0  0  0  0  0  0
  127.7150  123.6500   59.0210 C   0  0  0  0  0  0  0  0  0  0  0  0
  128.8830  122.8240   59.6060 C   0  0  0  0  0  0  0  0  0  0  0  0
  128.8970  122.8090   61.1340 C   0  0  0  0  0  0  0  0  0  0  0  0
  130.0130  122.3470   61.8400 C   0  0  0  0  0  0  0  0  0  0  0  0
  130.0120  122.2970   63.2320 C   0  0  0  0  0  0  0  0  0  0  0  0
  128.8880  122.7130   63.9380 C   0  0  0  0  0  0  0  0  0  0  0  0
  127.7730  123.1840   63.2480 C   0  0  0  0  0  0  0  0  0  0  0  0
  127.7610  123.2380   61.8500 C   0  0  0  0  0  0  0  0  0  0  0  0
  126.5590  123.8090   61.0950 C   0  0  0  0  0  0  0  0  0  0  0  0
  123.9170  128.1860   57.0020 S   0  0  0  0  0  0  0  0  0  0  0  0
  124.9260  129.4910   56.4260 C   0  0  0  0  0  0  0  0  0  0  0  0
  124.3450  130.5840   55.5560 C   0  0  0  0  0  0  0  0  0  0  0  0
  128.5260  130.1290   57.5470 C   0  0  0  0  0  0  0  0  0  0  0  0
  129.6320  130.9530   57.3410 C   0  0  0  0  0  0  0  0  0  0  0  0
  129.6840  131.7830   56.2140 C   0  0  0  0  0  0  0  0  0  0  0  0
  133.4140  131.3480   57.7230 C   0  0  0  0  0  0  0  0  0  0  0  0
  133.7620  130.8510   58.9760 C   0  0  0  0  0  0  0  0  0  0  0  0
  132.9634  131.3325   62.2517 H   0  0  0  0  0  0  0  0  0  0  0  0
  133.0507  129.6689   61.5797 H   0  0  0  0  0  0  0  0  0  0  0  0
  134.5107  130.7153   61.5797 H   0  0  0  0  0  0  0  0  0  0  0  0
  131.4076  132.4418   60.8715 H   0  0  0  0  0  0  0  0  0  0  0  0
  130.7912  133.3384   58.6312 H   0  0  0  0  0  0  0  0  0  0  0  0
  130.3043  134.4628   54.6364 H   0  0  0  0  0  0  0  0  0  0  0  0
  130.8162  133.0290   53.7260 H   0  0  0  0  0  0  0  0  0  0  0  0
  128.0815  133.8241   54.6381 H   0  0  0  0  0  0  0  0  0  0  0  0
  128.4963  132.7032   53.3601 H   0  0  0  0  0  0  0  0  0  0  0  0
  126.5978  131.1139   54.9127 H   0  0  0  0  0  0  0  0  0  0  0  0
  124.5250  126.3430   59.2710 H   0  0  0  0  0  0  0  0  0  0  0  0
  124.5651  124.2186   59.8082 H   0  0  0  0  0  0  0  0  0  0  0  0
  124.8538  123.0912   58.4048 H   0  0  0  0  0  0  0  0  0  0  0  0
  127.6089  123.4218   57.9502 H   0  0  0  0  0  0  0  0  0  0  0  0
  127.9284  124.7205   59.1570 H   0  0  0  0  0  0  0  0  0  0  0  0
  128.7947  121.7883   59.2461 H   0  0  0  0  0  0  0  0  0  0  0  0
  129.8191  123.2960   59.2729 H   0  0  0  0  0  0  0  0  0  0  0  0
  130.9053  122.0181   61.2871 H   0  0  0  0  0  0  0  0  0  0  0  0
  130.8975  121.9296   63.7714 H   0  0  0  0  0  0  0  0  0  0  0  0
  128.8795  122.6703   65.0371 H   0  0  0  0  0  0  0  0  0  0  0  0
  126.8890  123.5184   63.8107 H   0  0  0  0  0  0  0  0  0  0  0  0
  125.6415  123.5274   61.6325 H   0  0  0  0  0  0  0  0  0  0  0  0
  126.6887  124.9003   61.0474 H   0  0  0  0  0  0  0  0  0  0  0  0
  123.9243  131.3755   56.1936 H   0  0  0  0  0  0  0  0  0  0  0  0
  125.1372  131.0072   54.9209 H   0  0  0  0  0  0  0  0  0  0  0  0
  123.5511  130.1640   54.9209 H   0  0  0  0  0  0  0  0  0  0  0  0
  128.5090  129.4516   58.4135 H   0  0  0  0  0  0  0  0  0  0  0  0
  130.4623  130.9511   58.0625 H   0  0  0  0  0  0  0  0  0  0  0  0
  133.9936  131.0516   56.8363 H   0  0  0  0  0  0  0  0  0  0  0  0
  134.6097  130.1573   59.0772 H   0  0  0  0  0  0  0  0  0  0  0  0
  1  2  1  0
  2  3  2  0
  3  4  1  0
  4  5  2  0
  5  6  1  0
  6  7  2  0
  6  8  1  0
  8  9  1  0
  9 10  1  0
 10 11  1  0
 11 12  2  0
 12 13  1  0
 13 14  1  0
 14 15  1  0
 15 16  2  0
 16 17  1  0
 17 18  1  0
 18 19  2  0
 18 20  1  0
 20 21  1  0
 21 22  1  0
 22 23  1  0
 23 24  1  0
 24 25  2  0
 25 26  1  0
 26 27  2  0
 27 28  1  0
 28 29  2  0
 29 30  1  0
 16 31  1  0
 31 32  1  0
 32 33  1  0
 13 34  2  0
 34 35  1  0
 35 36  2  0
  5 37  1  0
 37 38  2  0
 38  2  1  0
 36  8  1  0
 36 11  1  0
 32 14  2  0
 30 21  1  0
 29 24  1  0
  1 39  1  0
  1 40  1  0
  1 41  1  0
  3 42  1  0
  4 43  1  0
  9 44  1  0
  9 45  1  0
 10 46  1  0
 10 47  1  0
 12 48  1  0
 17 49  1  0
 20 50  1  0
 20 51  1  0
 22 52  1  0
 22 53  1  0
 23 54  1  0
 23 55  1  0
 25 56  1  0
 26 57  1  0
 27 58  1  0
 28 59  1  0
 30 60  1  0
 30 61  1  0
 33 62  1  0
 33 63  1  0
 33 64  1  0
 34 65  1  0
 35 66  1  0
 37 67  1  0
 38 68  1  0
M  END
>  <Binding energies>  (1) 
[-11.23]

>  <Ligand effiencies>  (1) 
[-0.28794871794871796]

>  <Interactions>  (1) 
["V-A:LEU:363:CA:3184, V-A:TYR:539:CZ:4876, V-A:ASP:366:CG:3212, V-A:ASN:362:C:3171, V-A:PRO:540:CB:4884, V-A:TYR:539:CE1:4874, V-A:ASP:366:CB:3211, V-A:TYR:539:CE2:4875, V-A:PRO:540:CA:4882, V-A:TYR:531:CE2:4792, V-A:TYR:531:CZ:4793, V-A:ILE:538:CA:4859, V-A:LEU:363:CD1:3188, V-B:GLU:543:CD:9879, V-B:ALA:541:CB:9863, V-B:PRO:540:CA:9854, V-B:ALA:541:CA:9861, V-B:TYR:539:C:9838, V-A:LEU:475:CD2:4258, V-B:TYR:539:CD2:9845, V-B:TYR:539:CE2:9847, V-B:GLU:543:CG:9878, V-B:PRO:540:CB:9856, V-B:TYR:531:CZ:9765, V-A:ARG:545:CZ:4925, V-A:ILE:538:CB:4861, V-A:ILE:538:CG2:4862, V-B:ASP:366:CB:8182, H-B:TYR:531:OH:9766, V-A:PRO:540:N:4883, V-B:ASP:366:CG:8183, V-A:MET:535:CG:4832, V-B:TYR:531:CE1:9763, V-A:TYR:539:C:4866, V-A:ASN:362:CB:3175, H-B:ASP:366:OD1:8184, V-A:MET:535:CB:4831, V-B:ASN:370:CB:8215, V-B:TYR:531:CD1:9761, V-B:ASP:366:C:8178, V-B:ASP:366:CA:8180"]

$$$$
RR20_Rahimova_2017-again1
     RDKit          3D

 68 73  0  0  0  0  0  0  0  0999 V2000
  134.7500  125.2800   76.4740 C   0  0  0  0  0  0  0  0  0  0  0  0
  133.6470  126.0220   75.7410 C   0  0  0  0  0  0  0  0  0  0  0  0
  133.8490  127.3410   75.3320 C   0  0  0  0  0  0  0  0  0  0  0  0
  132.8410  128.0200   74.6530 C   0  0  0  0  0  0  0  0  0  0  0  0
  131.6190  127.3910   74.3870 C   0  0  0  0  0  0  0  0  0  0  0  0
  130.5420  128.1390   73.6330 C   0  0  0  0  0  0  0  0  0  0  0  0
  130.3510  129.3200   73.9280 O   0  0  0  0  0  0  0  0  0  0  0  0
  129.8500  127.4960   72.6470 N   0  0  0  0  0  0  0  0  0  0  0  0
  128.9570  126.3650   72.9490 C   0  0  0  0  0  0  0  0  0  0  0  0
  128.2560  126.0130   71.6470 C   0  0  0  0  0  0  0  0  0  0  0  0
  128.5260  127.2130   70.7890 C   0  0  0  0  0  0  0  0  0  0  0  0
  128.0620  127.4970   69.5050 C   0  0  0  0  0  0  0  0  0  0  0  0
  128.5590  128.5990   68.7920 C   0  0  0  0  0  0  0  0  0  0  0  0
  128.0640  128.9020   67.4070 C   0  0  0  0  0  0  0  0  0  0  0  0
  128.9590  129.1240   66.4570 N   0  0  0  0  0  0  0  0  0  0  0  0
  128.4390  129.3890   65.2830 C   0  0  0  0  0  0  0  0  0  0  0  0
  129.0730  129.7040   64.1100 N   0  0  0  0  0  0  0  0  0  0  0  0
  128.7100  129.2980   62.9400 C   0  0  0  0  0  0  0  0  0  0  0  0
  127.7270  128.6310   62.5650 O   0  0  0  0  0  0  0  0  0  0  0  0
  129.6630  129.7270   61.8060 C   0  0  0  0  0  0  0  0  0  0  0  0
  130.4500  131.0020   62.2280 N   0  0  2  0  0  0  0  0  0  0  0  0
  129.6320  132.2950   62.0290 C   0  0  0  0  0  0  0  0  0  0  0  0
  129.3700  132.5270   60.5300 C   0  0  0  0  0  0  0  0  0  0  0  0
  130.6270  132.4030   59.6740 C   0  0  0  0  0  0  0  0  0  0  0  0
  130.6570  132.9760   58.3970 C   0  0  0  0  0  0  0  0  0  0  0  0
  131.7690  132.8420   57.5700 C   0  0  0  0  0  0  0  0  0  0  0  0
  132.8750  132.1280   58.0140 C   0  0  0  0  0  0  0  0  0  0  0  0
  132.8650  131.5630   59.2870 C   0  0  0  0  0  0  0  0  0  0  0  0
  131.7610  131.6940   60.1360 C   0  0  0  0  0  0  0  0  0  0  0  0
  131.8360  131.0930   61.5450 C   0  0  0  0  0  0  0  0  0  0  0  0
  126.7150  129.4040   65.2910 S   0  0  0  0  0  0  0  0  0  0  0  0
  126.7220  128.9800   66.9850 C   0  0  0  0  0  0  0  0  0  0  0  0
  125.4200  128.7470   67.7240 C   0  0  0  0  0  0  0  0  0  0  0  0
  129.5650  129.3760   69.3820 C   0  0  0  0  0  0  0  0  0  0  0  0
  130.0440  129.0840   70.6590 C   0  0  0  0  0  0  0  0  0  0  0  0
  129.4840  128.0290   71.3910 C   0  0  0  0  0  0  0  0  0  0  0  0
  131.4360  126.0570   74.7740 C   0  0  0  0  0  0  0  0  0  0  0  0
  132.4440  125.3780   75.4530 C   0  0  0  0  0  0  0  0  0  0  0  0
  134.6009  125.3803   77.5592 H   0  0  0  0  0  0  0  0  0  0  0  0
  134.7229  124.2158   76.1970 H   0  0  0  0  0  0  0  0  0  0  0  0
  135.7255  125.7062   76.1970 H   0  0  0  0  0  0  0  0  0  0  0  0
  134.8038  127.8436   75.5459 H   0  0  0  0  0  0  0  0  0  0  0  0
  133.0057  129.0565   74.3237 H   0  0  0  0  0  0  0  0  0  0  0  0
  129.5404  125.5058   73.3115 H   0  0  0  0  0  0  0  0  0  0  0  0
  128.2325  126.6272   73.7341 H   0  0  0  0  0  0  0  0  0  0  0  0
  128.6829  125.1027   71.2007 H   0  0  0  0  0  0  0  0  0  0  0  0
  127.1842  125.8003   71.7733 H   0  0  0  0  0  0  0  0  0  0  0  0
  127.2989  126.8509   69.0464 H   0  0  0  0  0  0  0  0  0  0  0  0
  130.3727  128.9125   61.5985 H   0  0  0  0  0  0  0  0  0  0  0  0
  129.0747  129.9473   60.9030 H   0  0  0  0  0  0  0  0  0  0  0  0
  130.6080  130.9140   63.2240 H   0  0  0  0  0  0  0  0  0  0  0  0
  128.6712  132.2030   62.5567 H   0  0  0  0  0  0  0  0  0  0  0  0
  130.1993  133.1467   62.4324 H   0  0  0  0  0  0  0  0  0  0  0  0
  128.6367  131.7836   60.1841 H   0  0  0  0  0  0  0  0  0  0  0  0
  128.9987  133.5564   60.4185 H   0  0  0  0  0  0  0  0  0  0  0  0
  129.7848  133.5433   58.0400 H   0  0  0  0  0  0  0  0  0  0  0  0
  131.7719  133.2994   56.5696 H   0  0  0  0  0  0  0  0  0  0  0  0
  133.7541  132.0095   57.3635 H   0  0  0  0  0  0  0  0  0  0  0  0
  133.7452  131.0010   59.6326 H   0  0  0  0  0  0  0  0  0  0  0  0
  132.2609  130.0809   61.4741 H   0  0  0  0  0  0  0  0  0  0  0  0
  132.4659  131.7556   62.1567 H   0  0  0  0  0  0  0  0  0  0  0  0
  125.6028  128.7797   68.8082 H   0  0  0  0  0  0  0  0  0  0  0  0
  124.6977  129.5302   67.4502 H   0  0  0  0  0  0  0  0  0  0  0  0
  125.0142  127.7620   67.4502 H   0  0  0  0  0  0  0  0  0  0  0  0
  129.9836  130.2299   68.8291 H   0  0  0  0  0  0  0  0  0  0  0  0
  130.8605  129.6814   71.0908 H   0  0  0  0  0  0  0  0  0  0  0  0
  130.4916  125.5438   74.5403 H   0  0  0  0  0  0  0  0  0  0  0  0
  132.2916  124.3335   75.7624 H   0  0  0  0  0  0  0  0  0  0  0  0
  1  2  1  0
  2  3  2  0
  3  4  1  0
  4  5  2  0
  5  6  1  0
  6  7  2  0
  6  8  1  0
  8  9  1  0
  9 10  1  0
 10 11  1  0
 11 12  2  0
 12 13  1  0
 13 14  1  0
 14 15  1  0
 15 16  2  0
 16 17  1  0
 17 18  2  0
 18 19  1  0
 18 20  1  0
 20 21  1  0
 21 22  1  0
 22 23  1  0
 23 24  1  0
 24 25  2  0
 25 26  1  0
 26 27  2  0
 27 28  1  0
 28 29  2  0
 29 30  1  0
 16 31  1  0
 31 32  1  0
 32 33  1  0
 13 34  2  0
 34 35  1  0
 35 36  2  0
  5 37  1  0
 37 38  2  0
 38  2  1  0
 36  8  1  0
 36 11  1  0
 32 14  2  0
 30 21  1  0
 29 24  1  0
  1 39  1  0
  1 40  1  0
  1 41  1  0
  3 42  1  0
  4 43  1  0
  9 44  1  0
  9 45  1  0
 10 46  1  0
 10 47  1  0
 12 48  1  0
 20 49  1  0
 20 50  1  0
 21 51  1  1
 22 52  1  0
 22 53  1  0
 23 54  1  0
 23 55  1  0
 25 56  1  0
 26 57  1  0
 27 58  1  0
 28 59  1  0
 30 60  1  0
 30 61  1  0
 33 62  1  0
 33 63  1  0
 33 64  1  0
 34 65  1  0
 35 66  1  0
 37 67  1  0
 38 68  1  0
M  CHG  2  19  -1  21   1
M  END
>  <Binding energies>  (1) 
[-10.2]

>  <Ligand effiencies>  (1) 
[-0.2615384615384615]

>  <Interactions>  (1) 
["V-A:LEU:363:CA:3184, V-A:PRO:540:CB:4884, H-A:GLU:543:OE2:4909, V-A:PRO:540:CA:4882, V-A:LEU:363:CD1:3188, V-B:GLU:543:CD:9879, V-A:HIS:456:CE1:4069, H-A:GLU:543:OE1:4908, V-B:GLU:543:CB:9877, V-A:GLU:543:CD:4907, V-B:HIS:456:CE1:9040, V-B:GLU:543:C:9873, V-A:GLU:543:CG:4906, V-B:ARG:545:CG:9893, V-A:GLY:544:C:4911, H-A:LYS:547:NZ:4950, V-A:GLU:543:CB:4905, V-A:GLU:543:C:4901, V-A:PRO:540:N:4883, V-A:ALA:541:CB:4891, V-A:TYR:539:C:4866, V-A:GLU:543:CA:4903, V-A:HIS:456:CB:4064, V-A:VAL:457:C:4072, V-A:HIS:456:C:4060, V-A:HIS:456:CG:4065, V-A:VAL:458:CG2:4086"]

$$$$
RR21_Rahimova_2017
     RDKit          3D

 62 67  0  0  0  0  0  0  0  0999 V2000
  134.5780  125.3960   67.0180 C   0  0  0  0  0  0  0  0  0  0  0  0
  133.5960  125.4680   65.9880 O   0  0  0  0  0  0  0  0  0  0  0  0
  132.4070  126.1290   66.2330 C   0  0  0  0  0  0  0  0  0  0  0  0
  131.9590  126.5010   67.5110 C   0  0  0  0  0  0  0  0  0  0  0  0
  130.7460  127.1690   67.6720 C   0  0  0  0  0  0  0  0  0  0  0  0
  129.9530  127.4870   66.5630 C   0  0  0  0  0  0  0  0  0  0  0  0
  128.6530  128.2090   66.7370 C   0  0  0  0  0  0  0  0  0  0  0  0
  128.2000  128.9870   65.7730 N   0  0  0  0  0  0  0  0  0  0  0  0
  127.0350  129.4940   66.2020 N   0  0  0  0  0  0  0  0  0  0  0  0
  126.2620  130.3660   65.3920 C   0  0  0  0  0  0  0  0  0  0  0  0
  126.7270  131.6520   65.0760 C   0  0  0  0  0  0  0  0  0  0  0  0
  125.9620  132.4970   64.2760 C   0  0  0  0  0  0  0  0  0  0  0  0
  124.7320  132.0600   63.7890 C   0  0  0  0  0  0  0  0  0  0  0  0
  124.2590  130.7870   64.0970 C   0  0  0  0  0  0  0  0  0  0  0  0
  125.0210  129.9400   64.8970 C   0  0  0  0  0  0  0  0  0  0  0  0
  126.7400  129.0130   67.4530 C   0  0  0  0  0  0  0  0  0  0  0  0
  127.7780  128.1810   67.8480 C   0  0  0  0  0  0  0  0  0  0  0  0
  127.8930  127.4070   69.0740 C   0  0  0  0  0  0  0  0  0  0  0  0
  128.6850  127.6470   70.1450 C   0  0  0  0  0  0  0  0  0  0  0  0
  129.8360  128.9820   70.3740 S   0  0  0  0  0  0  0  0  0  0  0  0
  130.2210  128.3570   71.9710 C   0  0  0  0  0  0  0  0  0  0  0  0
  131.0470  128.8510   72.8410 N   0  0  0  0  0  0  0  0  0  0  0  0
  131.2590  128.2500   74.1120 C   0  0  0  0  0  0  0  0  0  0  0  0
  132.0060  128.6660   74.9970 O   0  0  0  0  0  0  0  0  0  0  0  0
  130.4570  126.9960   74.3320 C   0  0  0  0  0  0  0  0  0  0  0  0
  130.6180  126.2470   75.6610 C   0  0  0  0  0  0  0  0  0  0  0  0
  130.6350  124.7260   75.5290 C   0  0  0  0  0  0  0  0  0  0  0  0
  130.2610  123.9250   76.6110 C   0  0  0  0  0  0  0  0  0  0  0  0
  130.2610  122.5380   76.4840 C   0  0  0  0  0  0  0  0  0  0  0  0
  130.6320  121.9490   75.2740 C   0  0  0  0  0  0  0  0  0  0  0  0
  130.6180  120.4370   75.1370 C   0  0  0  0  0  0  0  0  0  0  0  0
  130.9950  122.7480   74.1870 C   0  0  0  0  0  0  0  0  0  0  0  0
  130.9960  124.1340   74.3140 C   0  0  0  0  0  0  0  0  0  0  0  0
  129.6420  126.5120   73.4530 N   0  0  0  0  0  0  0  0  0  0  0  0
  129.5200  127.2130   72.2470 N   0  0  0  0  0  0  0  0  0  0  0  0
  128.6650  126.7580   71.2980 C   0  0  0  0  0  0  0  0  0  0  0  0
  127.9690  125.7410   71.4060 O   0  0  0  0  0  0  0  0  0  0  0  0
  130.3960  127.1110   65.2900 C   0  0  0  0  0  0  0  0  0  0  0  0
  131.6090  126.4410   65.1270 C   0  0  0  0  0  0  0  0  0  0  0  0
  132.0090  126.0930   63.8820 F   0  0  0  0  0  0  0  0  0  0  0  0
  134.0830  125.4323   67.9997 H   0  0  0  0  0  0  0  0  0  0  0  0
  135.1388  124.4543   66.9247 H   0  0  0  0  0  0  0  0  0  0  0  0
  135.2702  126.2458   66.9247 H   0  0  0  0  0  0  0  0  0  0  0  0
  132.5711  126.2630   68.3934 H   0  0  0  0  0  0  0  0  0  0  0  0
  130.4085  127.4491   68.6808 H   0  0  0  0  0  0  0  0  0  0  0  0
  127.6990  131.9936   65.4615 H   0  0  0  0  0  0  0  0  0  0  0  0
  126.3272  133.5049   64.0297 H   0  0  0  0  0  0  0  0  0  0  0  0
  124.1289  132.7268   63.1553 H   0  0  0  0  0  0  0  0  0  0  0  0
  123.2858  130.4516   63.7092 H   0  0  0  0  0  0  0  0  0  0  0  0
  124.6488  128.9342   65.1414 H   0  0  0  0  0  0  0  0  0  0  0  0
  125.8391  129.2460   68.0395 H   0  0  0  0  0  0  0  0  0  0  0  0
  127.2553  126.5131   69.1391 H   0  0  0  0  0  0  0  0  0  0  0  0
  131.5656  126.5631   76.1216 H   0  0  0  0  0  0  0  0  0  0  0  0
  129.7392  126.4995   76.2725 H   0  0  0  0  0  0  0  0  0  0  0  0
  129.9665  124.3899   77.5634 H   0  0  0  0  0  0  0  0  0  0  0  0
  129.9689  121.9072   77.3365 H   0  0  0  0  0  0  0  0  0  0  0  0
  130.6138  119.9783   76.1368 H   0  0  0  0  0  0  0  0  0  0  0  0
  129.7169  120.1269   74.5875 H   0  0  0  0  0  0  0  0  0  0  0  0
  131.5132  120.1103   74.5875 H   0  0  0  0  0  0  0  0  0  0  0  0
  131.2797  122.2823   73.2320 H   0  0  0  0  0  0  0  0  0  0  0  0
  131.2808  124.7642   73.4586 H   0  0  0  0  0  0  0  0  0  0  0  0
  129.7815  127.3461   64.4085 H   0  0  0  0  0  0  0  0  0  0  0  0
  1  2  1  0
  2  3  1  0
  3  4  2  0
  4  5  1  0
  5  6  2  0
  6  7  1  0
  7  8  2  0
  8  9  1  0
  9 10  1  0
 10 11  2  0
 11 12  1  0
 12 13  2  0
 13 14  1  0
 14 15  2  0
  9 16  1  0
 16 17  2  0
 17 18  1  0
 18 19  2  0
 19 20  1  0
 20 21  1  0
 21 22  2  0
 22 23  1  0
 23 24  2  0
 23 25  1  0
 25 26  1  0
 26 27  1  0
 27 28  2  0
 28 29  1  0
 29 30  2  0
 30 31  1  0
 30 32  1  0
 32 33  2  0
 25 34  2  0
 34 35  1  0
 35 36  1  0
 36 37  2  0
  6 38  1  0
 38 39  2  0
 39 40  1  0
 39  3  1  0
 17  7  1  0
 36 19  1  0
 15 10  1  0
 35 21  1  0
 33 27  1  0
  1 41  1  0
  1 42  1  0
  1 43  1  0
  4 44  1  0
  5 45  1  0
 11 46  1  0
 12 47  1  0
 13 48  1  0
 14 49  1  0
 15 50  1  0
 16 51  1  0
 18 52  1  0
 26 53  1  0
 26 54  1  0
 28 55  1  0
 29 56  1  0
 31 57  1  0
 31 58  1  0
 31 59  1  0
 32 60  1  0
 33 61  1  0
 38 62  1  0
M  END
>  <Binding energies>  (1) 
[-9.42]

>  <Ligand effiencies>  (1) 
[-0.2355]

>  <Interactions>  (1) 
["V-B:GLU:543:CD:9879, H-A:TYR:484:OH:4347, V-A:GLY:454:CA:4048, H-A:GLY:454:N:4049, V-A:GLY:453:C:4041, V-A:ARG:545:CD:4922, V-A:ARG:545:CZ:4925, V-A:ARG:545:CG:4921, V-A:HIS:456:CE1:4069, V-B:GLU:543:CB:9877, V-A:GLU:543:CD:4907, V-B:HIS:456:CE1:9040, V-A:HIS:456:CD2:4067, V-A:ASP:473:CG:4239, V-A:TYR:484:CB:4340, V-A:TYR:484:C:4336, H-A:LYS:547:NZ:4950, V-A:GLU:543:CB:4905, V-A:GLU:543:C:4901, V-A:GLY:453:CA:4043, H-A:ARG:545:NE:4923, V-A:HIS:456:CB:4064, V-A:HIS:456:CG:4065, H-A:HIS:456:ND1:4066, V-B:LEU:475:CD1:9228, V-B:GLY:454:CA:9019, V-A:GLY:454:C:4046"]

$$$$
RR22_Rahimova_2017
     RDKit          3D

 49 54  0  0  0  0  0  0  0  0999 V2000
  126.1090  123.1190   61.9850 O   0  0  0  0  0  0  0  0  0  0  0  0
  127.2350  123.5350   61.7180 C   0  0  0  0  0  0  0  0  0  0  0  0
  128.2970  123.7120   62.5870 N   0  0  0  0  0  0  0  0  0  0  0  0
  129.5700  124.1510   62.1010 C   0  0  1  0  0  0  0  0  0  0  0  0
  129.8770  125.3240   62.8600 O   0  0  0  0  0  0  0  0  0  0  0  0
  131.0390  125.3270   63.6330 C   0  0  0  0  0  0  0  0  0  0  0  0
  131.1220  126.3040   64.6260 C   0  0  0  0  0  0  0  0  0  0  0  0
  132.2700  126.3960   65.4130 C   0  0  0  0  0  0  0  0  0  0  0  0
  133.3350  125.5190   65.2010 C   0  0  0  0  0  0  0  0  0  0  0  0
  133.2520  124.5430   64.2070 C   0  0  0  0  0  0  0  0  0  0  0  0
  132.0970  124.4220   63.4270 C   0  0  0  0  0  0  0  0  0  0  0  0
  131.9250  123.4290   62.3000 C   0  0  1  0  0  0  0  0  0  0  0  0
  132.5760  122.0610   62.3140 C   0  0  0  0  0  0  0  0  0  0  0  0
  131.5470  121.2740   61.4970 C   0  0  0  0  0  0  0  0  0  0  0  0
  131.8530  119.9730   60.8680 C   0  0  0  0  0  0  0  0  0  0  0  0
  131.0460  118.8530   61.1170 C   0  0  0  0  0  0  0  0  0  0  0  0
  131.3380  117.6300   60.5200 C   0  0  0  0  0  0  0  0  0  0  0  0
  132.4370  117.5180   59.6740 C   0  0  0  0  0  0  0  0  0  0  0  0
  133.2480  118.6200   59.4170 C   0  0  0  0  0  0  0  0  0  0  0  0
  132.9570  119.8450   60.0110 C   0  0  0  0  0  0  0  0  0  0  0  0
  130.4200  121.8790   61.4670 N   0  0  0  0  0  0  0  0  0  0  0  0
  130.5450  123.0570   62.2240 N   0  0  0  0  0  0  0  0  0  0  0  0
  129.3570  124.5940   60.6610 C   0  0  0  0  0  0  0  0  0  0  0  0
  130.2370  125.3760   59.9930 C   0  0  0  0  0  0  0  0  0  0  0  0
  130.1650  125.8590   58.6000 C   0  0  0  0  0  0  0  0  0  0  0  0
  128.9550  126.0990   57.9330 C   0  0  0  0  0  0  0  0  0  0  0  0
  128.9650  126.5550   56.6140 C   0  0  0  0  0  0  0  0  0  0  0  0
  130.1950  126.7560   55.9890 C   0  0  0  0  0  0  0  0  0  0  0  0
  131.3800  126.5240   56.6060 N   0  0  0  0  0  0  0  0  0  0  0  0
  131.3500  126.0810   57.8890 C   0  0  0  0  0  0  0  0  0  0  0  0
  127.7890  124.0340   60.0600 S   0  0  0  0  0  0  0  0  0  0  0  0
  128.1810  123.5780   63.5800 H   0  0  0  0  0  0  0  0  0  0  0  0
  130.2850  126.9992   64.7876 H   0  0  0  0  0  0  0  0  0  0  0  0
  132.3361  127.1603   66.2013 H   0  0  0  0  0  0  0  0  0  0  0  0
  134.2417  125.5974   65.8188 H   0  0  0  0  0  0  0  0  0  0  0  0
  134.1005  123.8642   64.0357 H   0  0  0  0  0  0  0  0  0  0  0  0
  132.4061  124.0077   61.4977 H   0  0  0  0  0  0  0  0  0  0  0  0
  133.5624  122.0724   61.8274 H   0  0  0  0  0  0  0  0  0  0  0  0
  132.7841  121.6551   63.3150 H   0  0  0  0  0  0  0  0  0  0  0  0
  130.1783  118.9416   61.7872 H   0  0  0  0  0  0  0  0  0  0  0  0
  130.7017  116.7545   60.7165 H   0  0  0  0  0  0  0  0  0  0  0  0
  132.6670  116.5503   59.2042 H   0  0  0  0  0  0  0  0  0  0  0  0
  134.1152  118.5232   58.7473 H   0  0  0  0  0  0  0  0  0  0  0  0
  133.5957  120.7172   59.8076 H   0  0  0  0  0  0  0  0  0  0  0  0
  131.1224  125.6934   60.5633 H   0  0  0  0  0  0  0  0  0  0  0  0
  127.9987  125.9280   58.4490 H   0  0  0  0  0  0  0  0  0  0  0  0
  128.0238  126.7514   56.0796 H   0  0  0  0  0  0  0  0  0  0  0  0
  130.2045  127.1185   54.9505 H   0  0  0  0  0  0  0  0  0  0  0  0
  132.3066  125.8865   58.3960 H   0  0  0  0  0  0  0  0  0  0  0  0
  1  2  2  0
  2  3  1  0
  3  4  1  0
  4  5  1  1
  5  6  1  0
  6  7  2  0
  7  8  1  0
  8  9  2  0
  9 10  1  0
 10 11  2  0
 11 12  1  0
 12 13  1  0
 13 14  1  0
 14 15  1  0
 15 16  2  0
 16 17  1  0
 17 18  2  0
 18 19  1  0
 19 20  2  0
 14 21  2  0
 21 22  1  0
  4 23  1  0
 23 24  2  0
 24 25  1  0
 25 26  2  0
 26 27  1  0
 27 28  2  0
 28 29  1  0
 29 30  2  0
 23 31  1  0
 31  2  1  0
 22  4  1  0
 30 25  1  0
 11  6  1  0
 22 12  1  0
 20 15  1  0
  3 32  1  0
  7 33  1  0
  8 34  1  0
  9 35  1  0
 10 36  1  0
 12 37  1  6
 13 38  1  0
 13 39  1  0
 16 40  1  0
 17 41  1  0
 18 42  1  0
 19 43  1  0
 20 44  1  0
 24 45  1  0
 26 46  1  0
 27 47  1  0
 28 48  1  0
 30 49  1  0
M  END
>  <Binding energies>  (1) 
[-9.29]

>  <Ligand effiencies>  (1) 
[-0.2903125]

>  <Interactions>  (1) 
["H-A:TYR:531:OH:4794, H-B:ALA:541:N:9862, V-B:PRO:540:CA:9854, H-B:GLU:543:OE2:9881, V-A:LEU:475:CD2:4258, V-A:HIS:383:CE1:3393, V-B:TYR:539:CD2:9845, V-A:ILE:369:CG2:3236, V-B:TYR:539:CE2:9847, V-A:SER:385:CA:3406, V-A:GLY:454:CA:4048, V-B:MET:535:CE:9806, H-B:TYR:539:OH:9849, V-A:ARG:545:CZ:4925, V-A:GLU:543:CD:4907, V-A:LEU:373:CD2:3280, V-A:MET:535:CE:4834, V-A:TYR:531:CE1:4791, V-A:VAL:384:C:3396"]

$$$$
RR23_Rahimova_2017
     RDKit          3D

 65 70  0  0  0  0  0  0  0  0999 V2000
  132.4700  117.4790   58.9770 C   0  0  0  0  0  0  0  0  0  0  0  0
  132.1420  118.5950   59.9520 C   0  0  0  0  0  0  0  0  0  0  0  0
  130.9700  118.5400   60.7080 C   0  0  0  0  0  0  0  0  0  0  0  0
  130.6750  119.5610   61.6090 C   0  0  0  0  0  0  0  0  0  0  0  0
  131.5430  120.6490   61.7520 C   0  0  0  0  0  0  0  0  0  0  0  0
  131.2140  121.7360   62.7500 C   0  0  0  0  0  0  0  0  0  0  0  0
  132.0900  122.0530   63.5580 O   0  0  0  0  0  0  0  0  0  0  0  0
  129.9840  122.3300   62.7140 N   0  0  0  0  0  0  0  0  0  0  0  0
  129.4790  123.1240   63.8460 C   0  0  0  0  0  0  0  0  0  0  0  0
  128.1660  123.7370   63.3850 C   0  0  0  0  0  0  0  0  0  0  0  0
  128.2140  123.5500   61.8990 C   0  0  0  0  0  0  0  0  0  0  0  0
  127.3170  123.9960   60.9280 C   0  0  0  0  0  0  0  0  0  0  0  0
  127.4500  123.5800   59.5950 C   0  0  0  0  0  0  0  0  0  0  0  0
  126.4850  124.0470   58.4950 C   0  0  2  0  0  0  0  0  0  0  0  0
  126.6600  125.4470   58.1720 N   0  0  0  0  0  0  0  0  0  0  0  0
  125.5670  125.9930   57.8190 C   0  0  0  0  0  0  0  0  0  0  0  0
  125.3500  127.2900   57.4730 N   0  0  0  0  0  0  0  0  0  0  0  0
  126.2070  128.3370   57.5540 C   0  0  0  0  0  0  0  0  0  0  0  0
  127.3790  128.2760   57.9300 O   0  0  0  0  0  0  0  0  0  0  0  0
  125.6290  129.6990   57.1360 C   0  0  0  0  0  0  0  0  0  0  0  0
  126.7240  130.5540   56.6250 N   0  0  0  0  0  0  0  0  0  0  0  0
  126.7220  130.7680   55.2520 N   0  0  0  0  0  0  0  0  0  0  0  0
  127.6270  131.4960   54.6800 N   0  0  0  0  0  0  0  0  0  0  0  0
  128.6310  132.0870   55.4500 C   0  0  0  0  0  0  0  0  0  0  0  0
  129.5930  132.8650   54.8020 C   0  0  0  0  0  0  0  0  0  0  0  0
  130.6100  133.4690   55.5440 C   0  0  0  0  0  0  0  0  0  0  0  0
  130.6660  133.2960   56.9290 C   0  0  0  0  0  0  0  0  0  0  0  0
  129.7060  132.5180   57.5790 C   0  0  0  0  0  0  0  0  0  0  0  0
  128.6860  131.9140   56.8340 C   0  0  0  0  0  0  0  0  0  0  0  0
  127.6390  131.0650   57.5180 C   0  0  0  0  0  0  0  0  0  0  0  0
  127.6180  130.8480   58.7330 O   0  0  0  0  0  0  0  0  0  0  0  0
  124.1160  124.9490   57.7800 S   0  0  0  0  0  0  0  0  0  0  0  0
  124.9970  123.7370   58.7800 C   0  0  2  0  0  0  0  0  0  0  0  0
  124.5320  123.8610   60.2460 C   0  0  0  0  0  0  0  0  0  0  0  0
  128.4670  122.6760   59.2680 C   0  0  0  0  0  0  0  0  0  0  0  0
  129.3520  122.2130   60.2430 C   0  0  0  0  0  0  0  0  0  0  0  0
  129.2620  122.6950   61.5550 C   0  0  0  0  0  0  0  0  0  0  0  0
  132.7310  120.6830   61.0100 C   0  0  0  0  0  0  0  0  0  0  0  0
  133.0260  119.6630   60.1100 C   0  0  0  0  0  0  0  0  0  0  0  0
  132.7371  116.5702   59.5363 H   0  0  0  0  0  0  0  0  0  0  0  0
  131.5936  117.2757   58.3441 H   0  0  0  0  0  0  0  0  0  0  0  0
  133.3170  117.7822   58.3441 H   0  0  0  0  0  0  0  0  0  0  0  0
  130.2798  117.6913   60.5926 H   0  0  0  0  0  0  0  0  0  0  0  0
  129.7555  119.5115   62.2107 H   0  0  0  0  0  0  0  0  0  0  0  0
  129.3114  122.4775   64.7200 H   0  0  0  0  0  0  0  0  0  0  0  0
  130.1999  123.8998   64.1434 H   0  0  0  0  0  0  0  0  0  0  0  0
  127.3067  123.2081   63.8231 H   0  0  0  0  0  0  0  0  0  0  0  0
  128.0469  124.7879   63.6874 H   0  0  0  0  0  0  0  0  0  0  0  0
  126.5008  124.6777   61.2093 H   0  0  0  0  0  0  0  0  0  0  0  0
  126.7615  123.4464   57.6159 H   0  0  0  0  0  0  0  0  0  0  0  0
  124.4180  127.5140   57.1580 H   0  0  0  0  0  0  0  0  0  0  0  0
  124.8767  129.5533   56.3469 H   0  0  0  0  0  0  0  0  0  0  0  0
  125.1555  130.1824   58.0033 H   0  0  0  0  0  0  0  0  0  0  0  0
  129.5497  133.0014   53.7113 H   0  0  0  0  0  0  0  0  0  0  0  0
  131.3690  134.0826   55.0366 H   0  0  0  0  0  0  0  0  0  0  0  0
  131.4689  133.7742   57.5093 H   0  0  0  0  0  0  0  0  0  0  0  0
  129.7508  132.3805   58.6695 H   0  0  0  0  0  0  0  0  0  0  0  0
  124.8064  122.6791   58.5463 H   0  0  0  0  0  0  0  0  0  0  0  0
  125.3736  123.6366   60.9178 H   0  0  0  0  0  0  0  0  0  0  0  0
  124.1769  124.8852   60.4326 H   0  0  0  0  0  0  0  0  0  0  0  0
  123.7140  123.1496   60.4326 H   0  0  0  0  0  0  0  0  0  0  0  0
  128.5702  122.3262   58.2302 H   0  0  0  0  0  0  0  0  0  0  0  0
  130.1197  121.4700   59.9811 H   0  0  0  0  0  0  0  0  0  0  0  0
  133.4336  121.5194   61.1393 H   0  0  0  0  0  0  0  0  0  0  0  0
  133.9559  119.6988   59.5234 H   0  0  0  0  0  0  0  0  0  0  0  0
  1  2  1  0
  2  3  2  0
  3  4  1  0
  4  5  2  0
  5  6  1  0
  6  7  2  0
  6  8  1  0
  8  9  1  0
  9 10  1  0
 10 11  1  0
 11 12  2  0
 12 13  1  0
 13 14  1  0
 14 15  1  0
 15 16  2  0
 16 17  1  0
 17 18  1  0
 18 19  2  0
 18 20  1  0
 20 21  1  0
 21 22  1  0
 22 23  2  0
 23 24  1  0
 24 25  2  0
 25 26  1  0
 26 27  2  0
 27 28  1  0
 28 29  2  0
 29 30  1  0
 30 31  2  0
 16 32  1  0
 32 33  1  0
 33 34  1  0
 13 35  2  0
 35 36  1  0
 36 37  2  0
  5 38  1  0
 38 39  2  0
 39  2  1  0
 37  8  1  0
 37 11  1  0
 33 14  1  0
 30 21  1  0
 29 24  1  0
  1 40  1  0
  1 41  1  0
  1 42  1  0
  3 43  1  0
  4 44  1  0
  9 45  1  0
  9 46  1  0
 10 47  1  0
 10 48  1  0
 12 49  1  0
 14 50  1  6
 17 51  1  0
 20 52  1  0
 20 53  1  0
 25 54  1  0
 26 55  1  0
 27 56  1  0
 28 57  1  0
 33 58  1  6
 34 59  1  0
 34 60  1  0
 34 61  1  0
 35 62  1  0
 36 63  1  0
 38 64  1  0
 39 65  1  0
M  END
>  <Binding energies>  (1) 
[-10.88]

>  <Ligand effiencies>  (1) 
[-0.272]

>  <Interactions>  (1) 
["V-A:TYR:539:CZ:4876, V-A:TYR:539:CE1:4874, V-A:TYR:539:CD1:4872, V-A:ILE:538:CA:4859, V-B:GLU:543:CD:9879, V-B:PRO:540:N:9855, V-B:ALA:541:CB:9863, V-B:PRO:540:CA:9854, V-B:TYR:539:C:9838, V-A:LEU:475:CD2:4258, V-A:HIS:383:CE1:3393, V-B:TYR:539:CD2:9845, V-A:ILE:369:CG2:3236, V-B:TYR:539:CE2:9847, V-B:TYR:539:CB:9842, V-A:SER:385:CA:3406, V-A:LEU:373:CD1:3279, V-B:TYR:539:CG:9843, V-B:GLU:543:CG:9878, V-B:PRO:540:CB:9856, V-B:TYR:531:CZ:9765, V-A:ILE:538:CB:4861, V-A:ILE:538:CG2:4862, V-B:ASP:366:CB:8182, V-A:LEU:373:CG:3278, V-A:LEU:373:CD2:3280, H-B:TYR:531:OH:9766, V-A:PRO:540:N:4883, V-A:MET:535:CG:4832, V-B:TYR:531:CE1:9763, V-A:TYR:539:C:4866, H-A:TYR:539:OH:4877, V-A:MET:535:CB:4831"]

$$$$
RR24_Rahimova_2017
     RDKit          3D

 65 71  0  0  0  0  0  0  0  0999 V2000
  126.0750  123.5640   58.0730 C   0  0  0  0  0  0  0  0  0  0  0  0
  125.9740  124.5610   59.2370 C   0  0  2  0  0  0  0  0  0  0  0  0
  125.0370  124.0760   60.3820 C   0  0  0  0  0  0  0  0  0  0  0  0
  123.9600  123.5140   60.1550 O   0  0  0  0  0  0  0  0  0  0  0  0
  125.5310  124.3670   61.6210 O   0  0  0  0  0  0  0  0  0  0  0  0
  126.7260  123.8160   62.0230 C   0  0  0  0  0  0  0  0  0  0  0  0
  126.8760  123.3970   63.3460 C   0  0  0  0  0  0  0  0  0  0  0  0
  128.0780  122.8300   63.7620 C   0  0  0  0  0  0  0  0  0  0  0  0
  129.1300  122.6720   62.8560 C   0  0  0  0  0  0  0  0  0  0  0  0
  130.4580  122.0640   63.3240 C   0  0  1  0  0  0  0  0  0  0  0  0
  131.0310  121.0640   62.2930 C   0  0  0  0  0  0  0  0  0  0  0  0
  132.2970  121.1280   61.8420 C   0  0  0  0  0  0  0  0  0  0  0  0
  133.1770  122.0940   62.2640 N   0  0  0  0  0  0  0  0  0  0  0  0
  132.8020  123.0520   63.1770 C   0  0  0  0  0  0  0  0  0  0  0  0
  133.7900  123.9270   63.4960 N   0  0  0  0  0  0  0  0  0  0  0  0
  133.5830  124.9890   64.3220 C   0  0  0  0  0  0  0  0  0  0  0  0
  134.3960  125.9150   64.3290 O   0  0  0  0  0  0  0  0  0  0  0  0
  132.3530  124.9760   64.9620 N   0  0  0  0  0  0  0  0  0  0  0  0
  132.1130  126.0580   65.9390 C   0  0  0  0  0  0  0  0  0  0  0  0
  131.2800  124.1370   64.7130 C   0  0  0  0  0  0  0  0  0  0  0  0
  130.1900  124.2170   65.2880 O   0  0  0  0  0  0  0  0  0  0  0  0
  131.5520  123.1050   63.7070 C   0  0  0  0  0  0  0  0  0  0  0  0
  132.5600  120.0660   60.8850 C   0  0  0  0  0  0  0  0  0  0  0  0
  133.6880  119.7110   60.1440 C   0  0  0  0  0  0  0  0  0  0  0  0
  133.6210  118.6090   59.2870 C   0  0  0  0  0  0  0  0  0  0  0  0
  132.4370  117.8730   59.1770 C   0  0  0  0  0  0  0  0  0  0  0  0
  131.3110  118.2340   59.9220 C   0  0  0  0  0  0  0  0  0  0  0  0
  131.3830  119.3370   60.7750 C   0  0  0  0  0  0  0  0  0  0  0  0
  130.3620  119.9290   61.6650 C   0  0  0  0  0  0  0  0  0  0  0  0
  129.2000  119.5840   61.8680 O   0  0  0  0  0  0  0  0  0  0  0  0
  128.9700  123.0760   61.5260 C   0  0  0  0  0  0  0  0  0  0  0  0
  127.7690  123.6410   61.1090 C   0  0  0  0  0  0  0  0  0  0  0  0
  125.6340  125.9370   58.7690 N   0  0  0  0  0  0  0  0  0  0  0  0
  126.3510  127.0240   59.1690 C   0  0  0  0  0  0  0  0  0  0  0  0
  127.3180  127.0420   59.9330 O   0  0  0  0  0  0  0  0  0  0  0  0
  125.7210  128.1850   58.4910 C   0  0  0  0  0  0  0  0  0  0  0  0
  126.0320  129.5440   58.5300 C   0  0  0  0  0  0  0  0  0  0  0  0
  125.2550  130.4300   57.7740 C   0  0  0  0  0  0  0  0  0  0  0  0
  124.1930  129.9520   56.9970 C   0  0  0  0  0  0  0  0  0  0  0  0
  123.8970  128.5840   56.9710 C   0  0  0  0  0  0  0  0  0  0  0  0
  124.6820  127.7170   57.7330 C   0  0  0  0  0  0  0  0  0  0  0  0
  124.6190  126.2440   57.9040 C   0  0  0  0  0  0  0  0  0  0  0  0
  123.8240  125.4660   57.3760 O   0  0  0  0  0  0  0  0  0  0  0  0
  126.1783  122.5440   58.4718 H   0  0  0  0  0  0  0  0  0  0  0  0
  125.1659  123.6264   57.4568 H   0  0  0  0  0  0  0  0  0  0  0  0
  126.9531  123.8075   57.4568 H   0  0  0  0  0  0  0  0  0  0  0  0
  126.9798  124.6120   59.6794 H   0  0  0  0  0  0  0  0  0  0  0  0
  126.0463  123.5144   64.0586 H   0  0  0  0  0  0  0  0  0  0  0  0
  128.1996  122.5058   64.8061 H   0  0  0  0  0  0  0  0  0  0  0  0
  130.1943  121.5312   64.2495 H   0  0  0  0  0  0  0  0  0  0  0  0
  134.1190  122.1040   61.9010 H   0  0  0  0  0  0  0  0  0  0  0  0
  134.7140  123.8300   63.1040 H   0  0  0  0  0  0  0  0  0  0  0  0
  132.2019  125.6570   66.9594 H   0  0  0  0  0  0  0  0  0  0  0  0
  132.8560  126.8558   65.7925 H   0  0  0  0  0  0  0  0  0  0  0  0
  131.1023  126.4668   65.7925 H   0  0  0  0  0  0  0  0  0  0  0  0
  134.6182  120.2913   60.2333 H   0  0  0  0  0  0  0  0  0  0  0  0
  134.5029  118.3195   58.6968 H   0  0  0  0  0  0  0  0  0  0  0  0
  132.3917  117.0062   58.5012 H   0  0  0  0  0  0  0  0  0  0  0  0
  130.3790  117.6559   59.8373 H   0  0  0  0  0  0  0  0  0  0  0  0
  129.7945  122.9468   60.8095 H   0  0  0  0  0  0  0  0  0  0  0  0
  127.6403  123.9497   60.0611 H   0  0  0  0  0  0  0  0  0  0  0  0
  126.8693  129.9117   59.1413 H   0  0  0  0  0  0  0  0  0  0  0  0
  125.4800  131.5066   57.7906 H   0  0  0  0  0  0  0  0  0  0  0  0
  123.5885  130.6544   56.4044 H   0  0  0  0  0  0  0  0  0  0  0  0
  123.0640  128.2007   56.3634 H   0  0  0  0  0  0  0  0  0  0  0  0
  1  2  1  0
  2  3  1  0
  3  4  2  0
  3  5  1  0
  5  6  1  0
  6  7  2  0
  7  8  1  0
  8  9  2  0
  9 10  1  0
 10 11  1  0
 11 12  2  0
 12 13  1  0
 13 14  1  0
 14 15  1  0
 15 16  1  0
 16 17  2  0
 16 18  1  0
 18 19  1  0
 18 20  1  0
 20 21  2  0
 20 22  1  0
 12 23  1  0
 23 24  2  0
 24 25  1  0
 25 26  2  0
 26 27  1  0
 27 28  2  0
 28 29  1  0
 29 30  2  0
  9 31  1  0
 31 32  2  0
  2 33  1  0
 33 34  1  0
 34 35  2  0
 34 36  1  0
 36 37  2  0
 37 38  1  0
 38 39  2  0
 39 40  1  0
 40 41  2  0
 41 42  1  0
 42 43  2  0
 32  6  1  0
 42 33  1  0
 22 10  1  0
 28 23  1  0
 41 36  1  0
 29 11  1  0
 22 14  2  0
  1 44  1  0
  1 45  1  0
  1 46  1  0
  2 47  1  1
  7 48  1  0
  8 49  1  0
 10 50  1  1
 13 51  1  0
 15 52  1  0
 19 53  1  0
 19 54  1  0
 19 55  1  0
 24 56  1  0
 25 57  1  0
 26 58  1  0
 27 59  1  0
 31 60  1  0
 32 61  1  0
 37 62  1  0
 38 63  1  0
 39 64  1  0
 40 65  1  0
M  END
>  <Binding energies>  (1) 
[-10.15]

>  <Ligand effiencies>  (1) 
[-0.22555555555555556]

>  <Interactions>  (1) 
["V-B:GLU:543:CD:9879, H-B:ALA:541:N:9862, H-A:TYR:484:OH:4347, V-B:ALA:541:CB:9863, V-B:PRO:540:CA:9854, V-B:ALA:541:CA:9861, V-A:LEU:475:CD2:4258, V-B:TYR:539:CD2:9845, V-A:ILE:369:CG2:3236, V-B:TYR:539:CE2:9847, V-B:TYR:539:CB:9842, V-A:SER:385:CA:3406, V-A:GLY:454:CA:4048, V-A:LEU:373:CD1:3279, V-B:TYR:539:CG:9843, V-B:GLU:543:CG:9878, V-B:ALA:541:C:9859, V-B:PRO:540:CB:9856, H-A:GLY:454:N:4049, V-A:GLY:453:C:4041, V-B:TYR:531:CZ:9765, V-A:ARG:545:CZ:4925, H-A:ARG:545:NH1:4926, H-A:ARG:545:NH2:4927, H-B:ARG:545:NH2:9899, H-A:ARG:545:NE:4923, V-B:ASP:366:CB:8182, V-A:LEU:373:CG:3278, V-A:LEU:373:CD2:3280, H-B:TYR:531:OH:9766, H-A:ASP:366:OD1:3213, V-B:ASP:366:CG:8183, V-B:TYR:531:CE1:9763, V-A:VAL:384:C:3396, H-A:SER:385:O:3405, V-B:TYR:531:CD1:9761, V-B:ASP:366:C:8178, V-B:ASP:366:CA:8180"]

$$$$
RR24_Rahimova_2017-again1
     RDKit          3D

 63 69  0  0  0  0  0  0  0  0999 V2000
  123.6670  124.4280   57.9820 C   0  0  0  0  0  0  0  0  0  0  0  0
  124.8880  123.8630   58.7200 C   0  0  2  0  0  0  0  0  0  0  0  0
  124.7320  123.8720   60.2690 C   0  0  0  0  0  0  0  0  0  0  0  0
  123.8020  123.2860   60.8360 O   0  0  0  0  0  0  0  0  0  0  0  0
  125.7010  124.6040   60.8920 O   0  0  0  0  0  0  0  0  0  0  0  0
  126.7810  123.9630   61.4550 C   0  0  0  0  0  0  0  0  0  0  0  0
  127.8290  123.5330   60.6390 C   0  0  0  0  0  0  0  0  0  0  0  0
  128.9330  122.9020   61.2040 C   0  0  0  0  0  0  0  0  0  0  0  0
  129.0000  122.7040   62.5870 C   0  0  0  0  0  0  0  0  0  0  0  0
  130.2160  122.0080   63.2140 C   0  0  1  0  0  0  0  0  0  0  0  0
  130.8650  121.0110   62.2260 C   0  0  0  0  0  0  0  0  0  0  0  0
  130.4120  119.8740   61.6530 C   0  0  0  0  0  0  0  0  0  0  0  0
  129.2570  119.3450   61.8750 O   0  0  0  0  0  0  0  0  0  0  0  0
  131.4070  119.3430   60.7220 C   0  0  0  0  0  0  0  0  0  0  0  0
  131.4150  118.2180   59.8870 C   0  0  0  0  0  0  0  0  0  0  0  0
  132.5280  117.9630   59.0860 C   0  0  0  0  0  0  0  0  0  0  0  0
  133.6270  118.8240   59.1180 C   0  0  0  0  0  0  0  0  0  0  0  0
  133.6150  119.9430   59.9520 C   0  0  0  0  0  0  0  0  0  0  0  0
  132.4980  120.1990   60.7510 C   0  0  0  0  0  0  0  0  0  0  0  0
  132.2040  121.2490   61.7110 C   0  0  0  0  0  0  0  0  0  0  0  0
  132.9260  122.2300   62.1040 N   0  0  0  0  0  0  0  0  0  0  0  0
  132.5250  123.0540   63.1140 C   0  0  0  0  0  0  0  0  0  0  0  0
  133.4930  123.9350   63.5000 N   0  0  0  0  0  0  0  0  0  0  0  0
  133.2370  124.7820   64.4340 C   0  0  0  0  0  0  0  0  0  0  0  0
  134.1880  125.5370   64.7000 O   0  0  0  0  0  0  0  0  0  0  0  0
  132.0030  124.8290   65.0810 N   0  0  0  0  0  0  0  0  0  0  0  0
  131.6780  125.7930   66.1590 C   0  0  0  0  0  0  0  0  0  0  0  0
  130.9720  123.9650   64.7680 C   0  0  0  0  0  0  0  0  0  0  0  0
  129.8730  123.9580   65.3310 O   0  0  0  0  0  0  0  0  0  0  0  0
  131.2840  123.0200   63.6910 C   0  0  0  0  0  0  0  0  0  0  0  0
  127.9540  123.1470   63.4020 C   0  0  0  0  0  0  0  0  0  0  0  0
  126.8500  123.7810   62.8390 C   0  0  0  0  0  0  0  0  0  0  0  0
  126.1590  124.5080   58.2750 N   0  0  0  0  0  0  0  0  0  0  0  0
  126.3170  125.8610   58.2950 C   0  0  0  0  0  0  0  0  0  0  0  0
  125.4950  126.7060   58.6530 O   0  0  0  0  0  0  0  0  0  0  0  0
  127.6920  126.1050   57.7920 C   0  0  0  0  0  0  0  0  0  0  0  0
  128.3950  127.2950   57.5920 C   0  0  0  0  0  0  0  0  0  0  0  0
  129.7010  127.2240   57.0970 C   0  0  0  0  0  0  0  0  0  0  0  0
  130.2840  125.9830   56.8120 C   0  0  0  0  0  0  0  0  0  0  0  0
  129.5640  124.8020   57.0200 C   0  0  0  0  0  0  0  0  0  0  0  0
  128.2610  124.8930   57.5130 C   0  0  0  0  0  0  0  0  0  0  0  0
  127.2670  123.8380   57.8330 C   0  0  0  0  0  0  0  0  0  0  0  0
  127.4100  122.6200   57.7250 O   0  0  0  0  0  0  0  0  0  0  0  0
  122.9226  124.7725   58.7149 H   0  0  0  0  0  0  0  0  0  0  0  0
  123.9788  125.2734   57.3510 H   0  0  0  0  0  0  0  0  0  0  0  0
  123.2244  123.6432   57.3510 H   0  0  0  0  0  0  0  0  0  0  0  0
  124.9468  122.8020   58.4357 H   0  0  0  0  0  0  0  0  0  0  0  0
  127.7821  123.6927   59.5517 H   0  0  0  0  0  0  0  0  0  0  0  0
  129.7561  122.5576   60.5606 H   0  0  0  0  0  0  0  0  0  0  0  0
  129.8391  121.4593   64.0897 H   0  0  0  0  0  0  0  0  0  0  0  0
  130.5490  117.5401   59.8633 H   0  0  0  0  0  0  0  0  0  0  0  0
  132.5401  117.0818   58.4277 H   0  0  0  0  0  0  0  0  0  0  0  0
  134.5032  118.6200   58.4851 H   0  0  0  0  0  0  0  0  0  0  0  0
  134.4812  120.6204   59.9801 H   0  0  0  0  0  0  0  0  0  0  0  0
  131.8386  125.3167   67.1375 H   0  0  0  0  0  0  0  0  0  0  0  0
  132.3282  126.6758   66.0698 H   0  0  0  0  0  0  0  0  0  0  0  0
  130.6260  126.1019   66.0698 H   0  0  0  0  0  0  0  0  0  0  0  0
  128.0035  122.9943   64.4902 H   0  0  0  0  0  0  0  0  0  0  0  0
  126.0328  124.1384   63.4827 H   0  0  0  0  0  0  0  0  0  0  0  0
  127.9318  128.2666   57.8188 H   0  0  0  0  0  0  0  0  0  0  0  0
  130.2737  128.1483   56.9305 H   0  0  0  0  0  0  0  0  0  0  0  0
  131.3119  125.9368   56.4231 H   0  0  0  0  0  0  0  0  0  0  0  0
  130.0146  123.8229   56.8000 H   0  0  0  0  0  0  0  0  0  0  0  0
  1  2  1  0
  2  3  1  0
  3  4  2  0
  3  5  1  0
  5  6  1  0
  6  7  2  0
  7  8  1  0
  8  9  2  0
  9 10  1  0
 10 11  1  0
 11 12  2  0
 12 13  1  0
 12 14  1  0
 14 15  2  0
 15 16  1  0
 16 17  2  0
 17 18  1  0
 18 19  2  0
 19 20  1  0
 20 21  2  0
 21 22  1  0
 22 23  1  0
 23 24  2  0
 24 25  1  0
 24 26  1  0
 26 27  1  0
 26 28  1  0
 28 29  2  0
 28 30  1  0
  9 31  1  0
 31 32  2  0
  2 33  1  0
 33 34  1  0
 34 35  2  0
 34 36  1  0
 36 37  2  0
 37 38  1  0
 38 39  2  0
 39 40  1  0
 40 41  2  0
 41 42  1  0
 42 43  2  0
 32  6  1  0
 42 33  1  0
 30 10  1  0
 41 36  1  0
 20 11  1  0
 30 22  2  0
 19 14  1  0
  1 44  1  0
  1 45  1  0
  1 46  1  0
  2 47  1  6
  7 48  1  0
  8 49  1  0
 10 50  1  1
 15 51  1  0
 16 52  1  0
 17 53  1  0
 18 54  1  0
 27 55  1  0
 27 56  1  0
 27 57  1  0
 31 58  1  0
 32 59  1  0
 37 60  1  0
 38 61  1  0
 39 62  1  0
 40 63  1  0
M  CHG  2  13  -1  25  -1
M  END
>  <Binding energies>  (1) 
[-9.51]

>  <Ligand effiencies>  (1) 
[-0.22116279069767442]

>  <Interactions>  (1) 
["V-B:GLU:543:CD:9879, H-B:ALA:541:N:9862, H-A:TYR:484:OH:4347, V-B:ALA:541:CB:9863, V-B:PRO:540:CA:9854, V-B:ALA:541:CA:9861, V-A:LEU:475:CD2:4258, V-B:TYR:539:CD2:9845, V-A:ILE:369:CG2:3236, V-B:TYR:539:CE2:9847, V-B:TYR:539:CB:9842, V-A:SER:385:CA:3406, V-A:GLY:454:CA:4048, V-A:LEU:373:CD1:3279, V-B:TYR:539:CG:9843, V-B:MET:535:CE:9806, V-B:TYR:539:CZ:9848, V-B:GLU:543:CG:9878, V-B:PRO:540:CB:9856, H-A:GLY:454:N:4049, V-B:TYR:531:CE2:9764, V-B:LEU:363:CD1:8159, H-A:ARG:545:NH1:4926, H-A:ARG:545:NH2:4927, H-A:ARG:545:NE:4923, V-B:ASP:366:CB:8182, V-A:LEU:373:CG:3278, V-A:LEU:373:CD2:3280, H-B:TYR:531:OH:9766, V-A:VAL:384:C:3396, V-B:LEU:363:CA:8155"]

$$$$
RR25_Rahimova_2017
     RDKit          3D

 63 68  0  0  0  0  0  0  0  0999 V2000
  128.1060  122.7620   58.0840 O   0  0  0  0  0  0  0  0  0  0  0  0
  127.9920  122.9170   59.3000 C   0  0  0  0  0  0  0  0  0  0  0  0
  128.7320  122.0730   60.0910 O   0  0  0  0  0  0  0  0  0  0  0  0
  128.8860  122.3020   61.4460 C   0  0  0  0  0  0  0  0  0  0  0  0
  130.0320  121.7820   62.0440 C   0  0  0  0  0  0  0  0  0  0  0  0
  130.2460  121.9680   63.4080 C   0  0  0  0  0  0  0  0  0  0  0  0
  129.3200  122.6720   64.1920 C   0  0  0  0  0  0  0  0  0  0  0  0
  129.5540  122.8760   65.6430 N   0  0  0  0  0  0  0  0  0  0  0  0
  130.1830  123.8680   66.0030 O   0  0  0  0  0  0  0  0  0  0  0  0
  129.1110  122.0470   66.4320 O   0  0  0  0  0  0  0  0  0  0  0  0
  128.1650  123.1770   63.5720 C   0  0  0  0  0  0  0  0  0  0  0  0
  127.9310  122.9920   62.2070 C   0  0  0  0  0  0  0  0  0  0  0  0
  126.7060  123.5280   61.4890 C   0  0  0  0  0  0  0  0  0  0  0  0
  127.0890  123.9460   60.0410 C   0  0  2  0  0  0  0  0  0  0  0  0
  125.8360  124.4080   59.2410 C   0  0  0  0  0  0  0  0  0  0  0  0
  124.7820  123.8190   59.4960 O   0  0  0  0  0  0  0  0  0  0  0  0
  125.8670  125.4860   58.4000 N   0  0  0  0  0  0  0  0  0  0  0  0
  127.1210  126.0190   57.8270 C   0  0  0  0  0  0  0  0  0  0  0  0
  127.0230  127.5570   57.7480 C   0  0  0  0  0  0  0  0  0  0  0  0
  125.8330  127.9790   57.0040 N   0  0  0  0  0  0  0  0  0  0  0  0
  125.8070  129.4360   56.8130 C   0  0  0  0  0  0  0  0  0  0  0  0
  126.4740  130.2090   57.9820 C   0  0  0  0  0  0  0  0  0  0  0  0
  127.7670  130.8840   57.6690 N   0  0  0  0  0  0  0  0  0  0  0  0
  128.7170  130.8290   58.6680 C   0  0  0  0  0  0  0  0  0  0  0  0
  128.5150  130.2940   59.7650 O   0  0  0  0  0  0  0  0  0  0  0  0
  130.0470  131.4610   58.3090 C   0  0  0  0  0  0  0  0  0  0  0  0
  131.0930  131.4390   59.2410 C   0  0  0  0  0  0  0  0  0  0  0  0
  132.3320  132.0030   58.9420 C   0  0  0  0  0  0  0  0  0  0  0  0
  132.5660  132.6030   57.7060 C   0  0  0  0  0  0  0  0  0  0  0  0
  131.5390  132.6500   56.7330 C   0  0  0  0  0  0  0  0  0  0  0  0
  131.7090  133.2420   55.4590 C   0  0  0  0  0  0  0  0  0  0  0  0
  130.6560  133.2510   54.5450 C   0  0  0  0  0  0  0  0  0  0  0  0
  129.4250  132.6830   54.8660 C   0  0  0  0  0  0  0  0  0  0  0  0
  129.2110  132.0860   56.1150 C   0  0  0  0  0  0  0  0  0  0  0  0
  130.2780  132.0720   57.0500 C   0  0  0  0  0  0  0  0  0  0  0  0
  127.8590  131.4710   56.4240 C   0  0  0  0  0  0  0  0  0  0  0  0
  126.9310  131.4870   55.6090 O   0  0  0  0  0  0  0  0  0  0  0  0
  124.6270  127.5020   57.6820 C   0  0  0  0  0  0  0  0  0  0  0  0
  124.6040  125.9580   57.7880 C   0  0  0  0  0  0  0  0  0  0  0  0
  130.7654  121.2264   61.4411 H   0  0  0  0  0  0  0  0  0  0  0  0
  131.1528  121.5575   63.8762 H   0  0  0  0  0  0  0  0  0  0  0  0
  127.4290  123.7300   64.1741 H   0  0  0  0  0  0  0  0  0  0  0  0
  125.9328  122.7465   61.4517 H   0  0  0  0  0  0  0  0  0  0  0  0
  126.3198  124.4038   62.0311 H   0  0  0  0  0  0  0  0  0  0  0  0
  127.7439  124.8260   60.1226 H   0  0  0  0  0  0  0  0  0  0  0  0
  127.9690  125.7359   58.4679 H   0  0  0  0  0  0  0  0  0  0  0  0
  127.2754  125.6041   56.8200 H   0  0  0  0  0  0  0  0  0  0  0  0
  126.9709  127.9653   58.7681 H   0  0  0  0  0  0  0  0  0  0  0  0
  127.9123  127.9342   57.2218 H   0  0  0  0  0  0  0  0  0  0  0  0
  126.3409  129.6778   55.8821 H   0  0  0  0  0  0  0  0  0  0  0  0
  124.7522  129.7453   56.7713 H   0  0  0  0  0  0  0  0  0  0  0  0
  125.7665  130.9794   58.3226 H   0  0  0  0  0  0  0  0  0  0  0  0
  126.7133  129.4490   58.7404 H   0  0  0  0  0  0  0  0  0  0  0  0
  130.9340  130.9697   60.2231 H   0  0  0  0  0  0  0  0  0  0  0  0
  133.1363  131.9742   59.6919 H   0  0  0  0  0  0  0  0  0  0  0  0
  133.5508  133.0409   57.4861 H   0  0  0  0  0  0  0  0  0  0  0  0
  132.6739  133.6961   55.1891 H   0  0  0  0  0  0  0  0  0  0  0  0
  130.7992  133.7129   53.5570 H   0  0  0  0  0  0  0  0  0  0  0  0
  128.6095  132.7036   54.1281 H   0  0  0  0  0  0  0  0  0  0  0  0
  124.5945  127.9296   58.6950 H   0  0  0  0  0  0  0  0  0  0  0  0
  123.7538  127.8188   57.0928 H   0  0  0  0  0  0  0  0  0  0  0  0
  123.7546  125.6461   58.4135 H   0  0  0  0  0  0  0  0  0  0  0  0
  124.4988  125.5232   56.7831 H   0  0  0  0  0  0  0  0  0  0  0  0
  1  2  2  0
  2  3  1  0
  3  4  1  0
  4  5  2  0
  5  6  1  0
  6  7  2  0
  7  8  1  0
  8  9  2  0
  8 10  1  0
  7 11  1  0
 11 12  2  0
 12 13  1  0
 13 14  1  0
 14 15  1  0
 15 16  2  0
 15 17  1  0
 17 18  1  0
 18 19  1  0
 19 20  1  0
 20 21  1  0
 21 22  1  0
 22 23  1  0
 23 24  1  0
 24 25  2  0
 24 26  1  0
 26 27  2  0
 27 28  1  0
 28 29  2  0
 29 30  1  0
 30 31  2  0
 31 32  1  0
 32 33  2  0
 33 34  1  0
 34 35  2  0
 34 36  1  0
 36 37  2  0
 20 38  1  0
 38 39  1  0
 14  2  1  0
 39 17  1  0
 12  4  1  0
 36 23  1  0
 35 26  1  0
 35 30  1  0
  5 40  1  0
  6 41  1  0
 11 42  1  0
 13 43  1  0
 13 44  1  0
 14 45  1  1
 18 46  1  0
 18 47  1  0
 19 48  1  0
 19 49  1  0
 21 50  1  0
 21 51  1  0
 22 52  1  0
 22 53  1  0
 27 54  1  0
 28 55  1  0
 29 56  1  0
 31 57  1  0
 32 58  1  0
 33 59  1  0
 38 60  1  0
 38 61  1  0
 39 62  1  0
 39 63  1  0
M  CHG  2   8   1  10  -1
M  END
>  <Binding energies>  (1) 
[-10.27]

>  <Ligand effiencies>  (1) 
[-0.2633333333333333]

>  <Interactions>  (1) 
["V-A:TYR:539:CZ:4876, V-A:PRO:540:CB:4884, V-A:TYR:539:CE1:4874, V-A:PRO:540:CA:4882, V-A:TYR:531:CE2:4792, V-A:TYR:531:CZ:4793, V-A:ILE:538:CA:4859, V-A:LEU:363:CD1:3188, V-B:GLU:543:CD:9879, V-B:PRO:540:N:9855, H-A:TYR:484:OH:4347, V-B:ALA:541:CB:9863, V-B:PRO:540:CA:9854, V-B:TYR:539:C:9838, V-A:LEU:475:CD2:4258, V-B:TYR:539:CD2:9845, V-B:GLU:543:CG:9878, V-A:LEU:475:CD1:4257, V-B:TYR:531:CZ:9765, V-B:TYR:531:CE2:9764, V-A:ILE:538:CB:4861, V-A:ILE:538:CG2:4862, V-B:ASP:366:CB:8182, V-A:TYR:484:CZ:4346, V-A:TYR:484:CE2:4345, H-B:TYR:531:OH:9766, V-A:PRO:540:N:4883, V-B:ASP:366:CG:8183, V-A:MET:535:CG:4832, V-B:TYR:531:CE1:9763, H-A:TYR:539:OH:4877, V-A:MET:535:CB:4831"]

$$$$
RR26_Rahimova_2017
     RDKit          3D

 59 65  0  0  0  0  0  0  0  0999 V2000
  133.4390  120.0620   60.7990 C   0  0  0  0  0  0  0  0  0  0  0  0
  132.2830  119.0940   61.0190 C   0  0  0  0  0  0  0  0  0  0  0  0
  132.5370  117.7220   60.9070 C   0  0  0  0  0  0  0  0  0  0  0  0
  131.5280  116.7900   61.1370 C   0  0  0  0  0  0  0  0  0  0  0  0
  130.2530  117.2220   61.4890 C   0  0  0  0  0  0  0  0  0  0  0  0
  129.9880  118.5850   61.6050 C   0  0  0  0  0  0  0  0  0  0  0  0
  130.9900  119.5390   61.3690 C   0  0  0  0  0  0  0  0  0  0  0  0
  130.6160  120.9870   61.5000 C   0  0  0  0  0  0  0  0  0  0  0  0
  131.4580  121.9700   61.1930 N   0  0  0  0  0  0  0  0  0  0  0  0
  130.7370  123.0300   61.4380 C   0  0  0  0  0  0  0  0  0  0  0  0
  130.9740  124.7360   61.3450 S   0  0  0  0  0  0  0  0  0  0  0  0
  129.2840  124.9800   61.9250 C   0  0  0  0  0  0  0  0  0  0  0  0
  128.6450  126.1510   62.1450 C   0  0  0  0  0  0  0  0  0  0  0  0
  129.1570  127.4990   61.9630 C   0  0  0  0  0  0  0  0  0  0  0  0
  130.2940  127.8990   61.2770 C   0  0  0  0  0  0  0  0  0  0  0  0
  130.3600  129.2680   61.3310 N   0  0  0  0  0  0  0  0  0  0  0  0
  131.3430  130.1220   60.7670 C   0  0  0  0  0  0  0  0  0  0  0  0
  131.8770  131.1880   61.5050 C   0  0  0  0  0  0  0  0  0  0  0  0
  132.8380  132.0200   60.9380 C   0  0  0  0  0  0  0  0  0  0  0  0
  133.2710  131.7880   59.6350 C   0  0  0  0  0  0  0  0  0  0  0  0
  132.7510  130.7310   58.8920 C   0  0  0  0  0  0  0  0  0  0  0  0
  131.7870  129.8990   59.4550 C   0  0  0  0  0  0  0  0  0  0  0  0
  129.3020  129.7590   61.9940 N   0  0  0  0  0  0  0  0  0  0  0  0
  128.5840  128.7220   62.3790 C   0  0  0  0  0  0  0  0  0  0  0  0
  127.3260  128.9370   63.1620 C   0  0  0  0  0  0  0  0  0  0  0  0
  126.1240  129.2420   62.5050 C   0  0  0  0  0  0  0  0  0  0  0  0
  124.9460  129.4470   63.2270 C   0  0  0  0  0  0  0  0  0  0  0  0
  124.9630  129.3490   64.6160 C   0  0  0  0  0  0  0  0  0  0  0  0
  126.1540  129.0260   65.2830 C   0  0  0  0  0  0  0  0  0  0  0  0
  127.3290  128.8280   64.5610 C   0  0  0  0  0  0  0  0  0  0  0  0
  126.2270  128.9610   66.6610 O   0  0  0  0  0  0  0  0  0  0  0  0
  124.9590  128.8070   67.3080 C   0  0  0  0  0  0  0  0  0  0  0  0
  123.9130  129.7660   66.6880 C   0  0  0  0  0  0  0  0  0  0  0  0
  123.7670  129.5110   65.2870 O   0  0  0  0  0  0  0  0  0  0  0  0
  128.5960  123.7170   62.1770 C   0  0  0  0  0  0  0  0  0  0  0  0
  127.4480  123.5240   62.5810 O   0  0  0  0  0  0  0  0  0  0  0  0
  129.5070  122.6950   61.8680 N   0  0  0  0  0  0  0  0  0  0  0  0
  129.4130  121.3630   61.9090 N   0  0  0  0  0  0  0  0  0  0  0  0
  133.8320  120.3911   61.7723 H   0  0  0  0  0  0  0  0  0  0  0  0
  134.2364  119.5583   60.2329 H   0  0  0  0  0  0  0  0  0  0  0  0
  133.0832  120.9355   60.2329 H   0  0  0  0  0  0  0  0  0  0  0  0
  133.5449  117.3761   60.6342 H   0  0  0  0  0  0  0  0  0  0  0  0
  131.7385  115.7147   61.0406 H   0  0  0  0  0  0  0  0  0  0  0  0
  129.4550  116.4882   61.6755 H   0  0  0  0  0  0  0  0  0  0  0  0
  128.9781  118.9184   61.8858 H   0  0  0  0  0  0  0  0  0  0  0  0
  127.6090  126.0739   62.5066 H   0  0  0  0  0  0  0  0  0  0  0  0
  131.0155  127.2355   60.7777 H   0  0  0  0  0  0  0  0  0  0  0  0
  131.5354  131.3673   62.5351 H   0  0  0  0  0  0  0  0  0  0  0  0
  133.2539  132.8577   61.5170 H   0  0  0  0  0  0  0  0  0  0  0  0
  134.0310  132.4459   59.1883 H   0  0  0  0  0  0  0  0  0  0  0  0
  133.1006  130.5541   57.8641 H   0  0  0  0  0  0  0  0  0  0  0  0
  131.3726  129.0649   58.8698 H   0  0  0  0  0  0  0  0  0  0  0  0
  126.1094  129.3206   61.4079 H   0  0  0  0  0  0  0  0  0  0  0  0
  124.0096  129.6847   62.7010 H   0  0  0  0  0  0  0  0  0  0  0  0
  128.2626  128.5853   65.0897 H   0  0  0  0  0  0  0  0  0  0  0  0
  124.6148  127.7692   67.1873 H   0  0  0  0  0  0  0  0  0  0  0  0
  125.0730  129.0474   68.3753 H   0  0  0  0  0  0  0  0  0  0  0  0
  122.9439  129.6155   67.1862 H   0  0  0  0  0  0  0  0  0  0  0  0
  124.2542  130.8024   66.8272 H   0  0  0  0  0  0  0  0  0  0  0  0
  1  2  1  0
  2  3  2  0
  3  4  1  0
  4  5  2  0
  5  6  1  0
  6  7  2  0
  7  8  1  0
  8  9  1  0
  9 10  2  0
 10 11  1  0
 11 12  1  0
 12 13  2  0
 13 14  1  0
 14 15  2  0
 15 16  1  0
 16 17  1  0
 17 18  2  0
 18 19  1  0
 19 20  2  0
 20 21  1  0
 21 22  2  0
 16 23  1  0
 23 24  2  0
 24 25  1  0
 25 26  2  0
 26 27  1  0
 27 28  2  0
 28 29  1  0
 29 30  2  0
 29 31  1  0
 31 32  1  0
 32 33  1  0
 33 34  1  0
 12 35  1  0
 35 36  2  0
 35 37  1  0
 37 38  1  0
  7  2  1  0
 38  8  2  0
 37 10  1  0
 24 14  1  0
 30 25  1  0
 22 17  1  0
 34 28  1  0
  1 39  1  0
  1 40  1  0
  1 41  1  0
  3 42  1  0
  4 43  1  0
  5 44  1  0
  6 45  1  0
 13 46  1  0
 15 47  1  0
 18 48  1  0
 19 49  1  0
 20 50  1  0
 21 51  1  0
 22 52  1  0
 26 53  1  0
 27 54  1  0
 30 55  1  0
 32 56  1  0
 32 57  1  0
 33 58  1  0
 33 59  1  0
M  END
>  <Binding energies>  (1) 
[-9.45]

>  <Ligand effiencies>  (1) 
[-0.24868421052631576]

>  <Interactions>  (1) 
["V-A:LEU:363:CA:3184, V-A:ASP:366:CG:3212, V-A:ASN:362:C:3171, V-A:PRO:540:CB:4884, V-A:ASP:366:CB:3211, V-A:PRO:540:CA:4882, V-B:GLU:543:CD:9879, H-B:ALA:541:N:9862, V-B:ALA:541:CB:9863, V-B:TYR:539:C:9838, V-A:LEU:475:CD2:4258, V-A:PRO:482:CG:4326, V-A:HIS:383:CE1:3393, V-B:TYR:539:CD2:9845, V-A:ILE:369:CG2:3236, V-A:SER:385:CA:3406, V-A:SER:385:CB:3408, V-A:THR:477:CG2:4272, V-A:PRO:482:CB:4325, V-B:ARG:545:CD:9894, V-B:ARG:545:CG:9893, H-B:ARG:545:NH2:9899, H-B:TYR:484:OH:9318, H-B:ARG:545:NE:9895, V-B:ARG:545:CZ:9897, V-B:GLY:454:CA:9019, H-B:GLY:454:N:9020, H-B:ARG:545:NH1:9898"]

$$$$
RR27_Rahimova_2017
     RDKit          3D

 66 71  0  0  0  0  0  0  0  0999 V2000
  129.4760  122.0090   59.6150 O   0  0  0  0  0  0  0  0  0  0  0  0
  128.7630  122.9140   60.0570 C   0  0  0  0  0  0  0  0  0  0  0  0
  128.3500  124.0670   59.0960 C   0  0  0  0  0  0  0  0  0  0  0  0
  127.2760  123.6480   58.0750 C   0  0  0  0  0  0  0  0  0  0  0  0
  127.5650  122.7820   57.0090 C   0  0  0  0  0  0  0  0  0  0  0  0
  126.5700  122.4220   56.1060 C   0  0  0  0  0  0  0  0  0  0  0  0
  125.2810  122.9250   56.2630 C   0  0  0  0  0  0  0  0  0  0  0  0
  124.9800  123.7860   57.3140 C   0  0  0  0  0  0  0  0  0  0  0  0
  125.9750  124.1460   58.2170 C   0  0  0  0  0  0  0  0  0  0  0  0
  129.5780  124.7740   58.4920 C   0  0  0  0  0  0  0  0  0  0  0  0
  129.4970  125.5000   57.2960 C   0  0  0  0  0  0  0  0  0  0  0  0
  130.6300  126.1180   56.7720 C   0  0  0  0  0  0  0  0  0  0  0  0
  131.8470  126.0080   57.4380 C   0  0  0  0  0  0  0  0  0  0  0  0
  131.9450  125.2810   58.6210 C   0  0  0  0  0  0  0  0  0  0  0  0
  130.8130  124.6630   59.1430 C   0  0  0  0  0  0  0  0  0  0  0  0
  128.2140  122.8470   61.3040 N   0  0  0  0  0  0  0  0  0  0  0  0
  127.5770  123.9920   61.9720 C   0  0  0  0  0  0  0  0  0  0  0  0
  128.6960  124.7590   62.7110 C   0  0  0  0  0  0  0  0  0  0  0  0
  129.5060  123.8490   63.6890 C   0  0  0  0  0  0  0  0  0  0  0  0
  130.7050  124.5380   64.3670 C   0  0  0  0  0  0  0  0  0  0  0  0
  131.8990  124.4650   63.7100 N   0  0  0  0  0  0  0  0  0  0  0  0
  132.9850  125.0800   64.2540 C   0  0  0  0  0  0  0  0  0  0  0  0
  134.2330  125.0810   63.6870 O   0  0  0  0  0  0  0  0  0  0  0  0
  132.8320  125.7660   65.4740 C   0  0  0  0  0  0  0  0  0  0  0  0
  133.6850  126.4740   66.2690 N   0  0  0  0  0  0  0  0  0  0  0  0
  132.9600  126.9160   67.3590 N   0  0  0  0  0  0  0  0  0  0  0  0
  131.6840  126.4940   67.2340 N   0  0  0  0  0  0  0  0  0  0  0  0
  130.6970  126.8000   68.2660 C   0  0  0  0  0  0  0  0  0  0  0  0
  129.4520  127.4990   67.7350 C   0  0  0  0  0  0  0  0  0  0  0  0
  129.4970  128.1890   66.5190 C   0  0  0  0  0  0  0  0  0  0  0  0
  128.3530  128.8200   66.0280 C   0  0  0  0  0  0  0  0  0  0  0  0
  127.1590  128.7610   66.7460 C   0  0  0  0  0  0  0  0  0  0  0  0
  127.1050  128.0650   67.9550 C   0  0  0  0  0  0  0  0  0  0  0  0
  125.6210  127.9680   68.8320 Cl  0  0  0  0  0  0  0  0  0  0  0  0
  128.2500  127.4410   68.4510 C   0  0  0  0  0  0  0  0  0  0  0  0
  131.5510  125.7610   66.0660 C   0  0  0  0  0  0  0  0  0  0  0  0
  130.4720  125.1600   65.5580 N   0  0  0  0  0  0  0  0  0  0  0  0
  129.8660  122.4760   63.0420 C   0  0  0  0  0  0  0  0  0  0  0  0
  128.6860  121.8390   62.2660 C   0  0  0  0  0  0  0  0  0  0  0  0
  127.8447  124.8334   59.7020 H   0  0  0  0  0  0  0  0  0  0  0  0
  128.5839  122.3858   56.8869 H   0  0  0  0  0  0  0  0  0  0  0  0
  126.8003  121.7431   55.2717 H   0  0  0  0  0  0  0  0  0  0  0  0
  124.4937  122.6392   55.5499 H   0  0  0  0  0  0  0  0  0  0  0  0
  123.9597  124.1802   57.4302 H   0  0  0  0  0  0  0  0  0  0  0  0
  125.7382  124.8265   59.0482 H   0  0  0  0  0  0  0  0  0  0  0  0
  128.5349  125.5821   56.7690 H   0  0  0  0  0  0  0  0  0  0  0  0
  130.5631  126.6908   55.8353 H   0  0  0  0  0  0  0  0  0  0  0  0
  132.7401  126.5003   57.0256 H   0  0  0  0  0  0  0  0  0  0  0  0
  132.9112  125.1956   59.1398 H   0  0  0  0  0  0  0  0  0  0  0  0
  130.8887  124.0826   60.0744 H   0  0  0  0  0  0  0  0  0  0  0  0
  127.0980  124.6455   61.2281 H   0  0  0  0  0  0  0  0  0  0  0  0
  126.7997  123.6560   62.6741 H   0  0  0  0  0  0  0  0  0  0  0  0
  129.3878  125.1773   61.9650 H   0  0  0  0  0  0  0  0  0  0  0  0
  128.2182  125.5481   63.3101 H   0  0  0  0  0  0  0  0  0  0  0  0
  128.8225  123.6406   64.5253 H   0  0  0  0  0  0  0  0  0  0  0  0
  134.3220  125.7330   62.9890 H   0  0  0  0  0  0  0  0  0  0  0  0
  130.3894  125.8576   68.7426 H   0  0  0  0  0  0  0  0  0  0  0  0
  131.1765  127.4917   68.9742 H   0  0  0  0  0  0  0  0  0  0  0  0
  130.4363  128.2344   65.9484 H   0  0  0  0  0  0  0  0  0  0  0  0
  128.3933  129.3647   65.0732 H   0  0  0  0  0  0  0  0  0  0  0  0
  126.2596  129.2629   66.3597 H   0  0  0  0  0  0  0  0  0  0  0  0
  128.2084  126.9012   69.4085 H   0  0  0  0  0  0  0  0  0  0  0  0
  130.7026  122.6271   62.3439 H   0  0  0  0  0  0  0  0  0  0  0  0
  130.1290  121.7884   63.8593 H   0  0  0  0  0  0  0  0  0  0  0  0
  129.0255  120.9380   61.7340 H   0  0  0  0  0  0  0  0  0  0  0  0
  127.8792  121.5405   62.9515 H   0  0  0  0  0  0  0  0  0  0  0  0
  1  2  2  0
  2  3  1  0
  3  4  1  0
  4  5  2  0
  5  6  1  0
  6  7  2  0
  7  8  1  0
  8  9  2  0
  3 10  1  0
 10 11  2  0
 11 12  1  0
 12 13  2  0
 13 14  1  0
 14 15  2  0
  2 16  1  0
 16 17  1  0
 17 18  1  0
 18 19  1  0
 19 20  1  0
 20 21  2  0
 21 22  1  0
 22 23  1  0
 22 24  2  0
 24 25  1  0
 25 26  2  0
 26 27  1  0
 27 28  1  0
 28 29  1  0
 29 30  2  0
 30 31  1  0
 31 32  2  0
 32 33  1  0
 33 34  1  0
 33 35  2  0
 27 36  1  0
 36 37  2  0
 19 38  1  0
 38 39  1  0
  9  4  1  0
 15 10  1  0
 39 16  1  0
 37 20  1  0
 36 24  1  0
 35 29  1  0
  3 40  1  0
  5 41  1  0
  6 42  1  0
  7 43  1  0
  8 44  1  0
  9 45  1  0
 11 46  1  0
 12 47  1  0
 13 48  1  0
 14 49  1  0
 15 50  1  0
 17 51  1  0
 17 52  1  0
 18 53  1  0
 18 54  1  0
 19 55  1  0
 23 56  1  0
 28 57  1  0
 28 58  1  0
 30 59  1  0
 31 60  1  0
 32 61  1  0
 35 62  1  0
 38 63  1  0
 38 64  1  0
 39 65  1  0
 39 66  1  0
M  END
>  <Binding energies>  (1) 
[-10.87]

>  <Ligand effiencies>  (1) 
[-0.27175]

>  <Interactions>  (1) 
["V-A:ASP:366:CG:3212, V-A:ASP:366:CB:3211, V-B:GLU:543:CD:9879, V-B:PRO:540:N:9855, H-A:TYR:484:OH:4347, V-B:ALA:541:CB:9863, V-B:PRO:540:CA:9854, V-B:ALA:541:CA:9861, V-B:PRO:540:C:9852, V-B:TYR:539:C:9838, V-B:TYR:539:CD2:9845, V-B:TYR:539:CE2:9847, V-B:TYR:539:CG:9843, V-B:MET:535:CE:9806, V-B:TYR:539:CZ:9848, V-B:PRO:540:CB:9856, H-A:GLY:454:N:4049, V-B:TYR:539:CD1:9844, V-B:TYR:531:CZ:9765, V-B:TYR:531:CE2:9764, V-B:LEU:363:CD1:8159, V-A:ARG:545:CZ:4925, V-A:HIS:456:CE1:4069, V-B:GLU:543:CB:9877, V-A:GLU:543:CD:4907, V-B:HIS:456:CE1:9040, V-A:GLU:543:CG:4906, V-B:ARG:545:CG:9893, H-A:ASP:366:OD2:3214, V-A:GLU:543:CB:4905, H-A:ARG:545:NH1:4926, H-A:ARG:545:NH2:4927, V-B:ILE:538:CA:9831, H-A:ARG:545:NE:4923, H-A:ASP:366:OD1:3213, V-B:ARG:545:CA:9890"]

$$$$
RR27_Rahimova_2017-again1
     RDKit          3D

 66 71  0  0  0  0  0  0  0  0999 V2000
  128.0030  121.5630   61.0700 O   0  0  0  0  0  0  0  0  0  0  0  0
  127.9170  122.6790   60.5470 C   0  0  0  0  0  0  0  0  0  0  0  0
  128.4720  122.8600   59.1020 C   0  0  0  0  0  0  0  0  0  0  0  0
  129.4580  124.0390   58.9920 C   0  0  0  0  0  0  0  0  0  0  0  0
  130.6440  124.0910   59.7400 C   0  0  0  0  0  0  0  0  0  0  0  0
  131.5100  125.1730   59.6120 C   0  0  0  0  0  0  0  0  0  0  0  0
  131.1960  126.2090   58.7370 C   0  0  0  0  0  0  0  0  0  0  0  0
  130.0240  126.1710   57.9870 C   0  0  0  0  0  0  0  0  0  0  0  0
  129.1580  125.0890   58.1150 C   0  0  0  0  0  0  0  0  0  0  0  0
  127.3470  122.8920   58.0500 C   0  0  0  0  0  0  0  0  0  0  0  0
  126.0700  123.3820   58.3600 C   0  0  0  0  0  0  0  0  0  0  0  0
  125.0630  123.3820   57.3980 C   0  0  0  0  0  0  0  0  0  0  0  0
  125.3290  122.8970   56.1210 C   0  0  0  0  0  0  0  0  0  0  0  0
  126.5910  122.4060   55.7990 C   0  0  0  0  0  0  0  0  0  0  0  0
  127.5960  122.3980   56.7630 C   0  0  0  0  0  0  0  0  0  0  0  0
  127.2120  123.6850   61.1410 N   0  0  0  0  0  0  0  0  0  0  0  0
  127.2960  125.0930   60.7290 C   0  0  0  0  0  0  0  0  0  0  0  0
  128.5070  125.7250   61.4550 C   0  0  0  0  0  0  0  0  0  0  0  0
  128.6510  125.3670   62.9710 C   0  0  0  0  0  0  0  0  0  0  0  0
  130.0910  125.4630   63.4870 C   0  0  0  0  0  0  0  0  0  0  0  0
  131.0710  124.9620   62.8020 N   0  0  0  0  0  0  0  0  0  0  0  0
  132.3060  125.1000   63.3600 C   0  0  0  0  0  0  0  0  0  0  0  0
  132.5980  125.7130   64.5680 C   0  0  0  0  0  0  0  0  0  0  0  0
  133.8960  125.6600   64.8100 N   0  0  0  0  0  0  0  0  0  0  0  0
  134.4920  124.9990   63.7400 N   0  0  0  0  0  0  0  0  0  0  0  0
  133.5170  124.6860   62.8700 N   0  0  0  0  0  0  0  0  0  0  0  0
  133.8140  123.9610   61.6410 C   0  0  0  0  0  0  0  0  0  0  0  0
  133.1000  122.6200   61.5430 C   0  0  0  0  0  0  0  0  0  0  0  0
  131.9290  122.3940   62.2730 C   0  0  0  0  0  0  0  0  0  0  0  0
  131.2780  121.1620   62.1930 C   0  0  0  0  0  0  0  0  0  0  0  0
  131.7930  120.1530   61.3800 C   0  0  0  0  0  0  0  0  0  0  0  0
  132.9580  120.3740   60.6450 C   0  0  0  0  0  0  0  0  0  0  0  0
  133.5960  119.1230   59.6440 Cl  0  0  0  0  0  0  0  0  0  0  0  0
  133.6090  121.6050   60.7240 C   0  0  0  0  0  0  0  0  0  0  0  0
  131.5100  126.2930   65.3570 C   0  0  0  0  0  0  0  0  0  0  0  0
  131.5730  126.8740   66.4380 O   0  0  0  0  0  0  0  0  0  0  0  0
  130.3110  126.1020   64.7030 N   0  0  0  0  0  0  0  0  0  0  0  0
  127.9430  124.0550   63.4360 C   0  0  0  0  0  0  0  0  0  0  0  0
  126.7830  123.5530   62.5410 C   0  0  0  0  0  0  0  0  0  0  0  0
  129.0685  121.9651   58.8709 H   0  0  0  0  0  0  0  0  0  0  0  0
  130.8907  123.2719   60.4315 H   0  0  0  0  0  0  0  0  0  0  0  0
  132.4389  125.2093   60.2000 H   0  0  0  0  0  0  0  0  0  0  0  0
  131.8798  127.0649   58.6374 H   0  0  0  0  0  0  0  0  0  0  0  0
  129.7833  126.9925   57.2962 H   0  0  0  0  0  0  0  0  0  0  0  0
  128.2313  125.0583   57.5231 H   0  0  0  0  0  0  0  0  0  0  0  0
  125.8626  123.7685   59.3688 H   0  0  0  0  0  0  0  0  0  0  0  0
  124.0617  123.7637   57.6465 H   0  0  0  0  0  0  0  0  0  0  0  0
  124.5351  122.9017   55.3596 H   0  0  0  0  0  0  0  0  0  0  0  0
  126.7937  122.0257   54.7869 H   0  0  0  0  0  0  0  0  0  0  0  0
  128.5910  122.0015   56.5124 H   0  0  0  0  0  0  0  0  0  0  0  0
  127.4373  125.1567   59.6400 H   0  0  0  0  0  0  0  0  0  0  0  0
  126.3698  125.6262   60.9896 H   0  0  0  0  0  0  0  0  0  0  0  0
  129.4207  125.3923   60.9408 H   0  0  0  0  0  0  0  0  0  0  0  0
  128.3452  126.8124   61.4176 H   0  0  0  0  0  0  0  0  0  0  0  0
  128.0759  126.1675   63.4593 H   0  0  0  0  0  0  0  0  0  0  0  0
  133.5076  124.5825   60.7867 H   0  0  0  0  0  0  0  0  0  0  0  0
  134.8945  123.7547   61.6385 H   0  0  0  0  0  0  0  0  0  0  0  0
  131.5195  123.1899   62.9125 H   0  0  0  0  0  0  0  0  0  0  0  0
  130.3588  120.9870   62.7713 H   0  0  0  0  0  0  0  0  0  0  0  0
  131.2802  119.1818   61.3181 H   0  0  0  0  0  0  0  0  0  0  0  0
  134.5254  121.7789   60.1409 H   0  0  0  0  0  0  0  0  0  0  0  0
  129.5050  126.4730   65.1830 H   0  0  0  0  0  0  0  0  0  0  0  0
  128.7024  123.2604   63.4791 H   0  0  0  0  0  0  0  0  0  0  0  0
  127.4848  124.2946   64.4069 H   0  0  0  0  0  0  0  0  0  0  0  0
  126.5631  122.4994   62.7681 H   0  0  0  0  0  0  0  0  0  0  0  0
  125.8721  124.1422   62.7229 H   0  0  0  0  0  0  0  0  0  0  0  0
  1  2  2  0
  2  3  1  0
  3  4  1  0
  4  5  2  0
  5  6  1  0
  6  7  2  0
  7  8  1  0
  8  9  2  0
  3 10  1  0
 10 11  2  0
 11 12  1  0
 12 13  2  0
 13 14  1  0
 14 15  2  0
  2 16  1  0
 16 17  1  0
 17 18  1  0
 18 19  1  0
 19 20  1  0
 20 21  2  0
 21 22  1  0
 22 23  2  0
 23 24  1  0
 24 25  2  0
 25 26  1  0
 26 27  1  0
 27 28  1  0
 28 29  2  0
 29 30  1  0
 30 31  2  0
 31 32  1  0
 32 33  1  0
 32 34  2  0
 23 35  1  0
 35 36  2  0
 35 37  1  0
 19 38  1  0
 38 39  1  0
  9  4  1  0
 15 10  1  0
 39 16  1  0
 37 20  1  0
 26 22  1  0
 34 28  1  0
  3 40  1  0
  5 41  1  0
  6 42  1  0
  7 43  1  0
  8 44  1  0
  9 45  1  0
 11 46  1  0
 12 47  1  0
 13 48  1  0
 14 49  1  0
 15 50  1  0
 17 51  1  0
 17 52  1  0
 18 53  1  0
 18 54  1  0
 19 55  1  0
 27 56  1  0
 27 57  1  0
 29 58  1  0
 30 59  1  0
 31 60  1  0
 34 61  1  0
 37 62  1  0
 38 63  1  0
 38 64  1  0
 39 65  1  0
 39 66  1  0
M  END
>  <Binding energies>  (1) 
[-11.33]

>  <Ligand effiencies>  (1) 
[-0.28325]

>  <Interactions>  (1) 
["V-A:ASP:366:CG:3212, V-A:ASP:366:CB:3211, V-B:GLU:543:CD:9879, V-B:PRO:540:N:9855, H-B:ALA:541:N:9862, V-B:PRO:540:CA:9854, H-B:GLU:543:OE2:9881, V-B:PRO:540:C:9852, V-B:TYR:539:C:9838, V-A:LEU:475:CD2:4258, V-A:ILE:369:CD1:3238, V-B:TYR:539:CD2:9845, V-A:ILE:369:CG2:3236, V-B:TYR:539:CE2:9847, V-A:SER:385:CA:3406, V-B:TYR:539:CG:9843, V-B:MET:535:CE:9806, V-B:TYR:539:CZ:9848, V-B:GLU:543:CG:9878, V-B:PRO:540:CB:9856, H-A:GLY:454:N:4049, V-B:TYR:539:CA:9840, V-B:TYR:539:CD1:9844, V-B:TYR:531:CZ:9765, V-B:TYR:531:CE2:9764, V-B:LEU:363:CD1:8159, V-A:ARG:545:CZ:4925, V-B:ILE:538:CD1:9836, H-A:ARG:545:NH1:4926, H-A:ARG:545:NH2:4927, V-B:ILE:538:CA:9831, V-B:TYR:539:CE1:9846, H-A:ARG:545:NE:4923, V-A:LEU:373:CD2:3280, V-B:MET:535:CG:9804, V-A:VAL:384:C:3396"]

$$$$
RR28_Rahimova_2017
     RDKit          3D

 82 85  0  0  0  0  0  0  0  0999 V2000
  133.9950  119.5050   60.3880 C   0  0  0  0  0  0  0  0  0  0  0  0
  132.8490  120.4890   60.5920 C   0  0  0  0  0  0  0  0  0  0  0  0
  131.6930  120.1290   60.3770 O   0  0  0  0  0  0  0  0  0  0  0  0
  133.1900  121.7270   61.0060 N   0  0  0  0  0  0  0  0  0  0  0  0
  132.3020  122.8790   61.2770 C   0  0  0  0  0  0  0  0  0  0  0  0
  132.3710  123.8430   60.0580 C   0  0  0  0  0  0  0  0  0  0  0  0
  131.2310  124.5770   59.6950 C   0  0  0  0  0  0  0  0  0  0  0  0
  131.2540  125.4450   58.6080 C   0  0  0  0  0  0  0  0  0  0  0  0
  132.4200  125.5990   57.8560 C   0  0  0  0  0  0  0  0  0  0  0  0
  132.4260  126.5540   56.6630 C   0  0  0  0  0  0  0  0  0  0  0  0
  133.1980  126.1150   55.6670 F   0  0  0  0  0  0  0  0  0  0  0  0
  131.1900  126.7080   56.1880 F   0  0  0  0  0  0  0  0  0  0  0  0
  132.8860  127.7420   57.0550 F   0  0  0  0  0  0  0  0  0  0  0  0
  133.5620  124.8740   58.2060 C   0  0  0  0  0  0  0  0  0  0  0  0
  133.5370  124.0050   59.2940 C   0  0  0  0  0  0  0  0  0  0  0  0
  132.6820  123.5580   62.6410 C   0  0  0  0  0  0  0  0  0  0  0  0
  132.4300  122.6480   63.8700 C   0  0  0  0  0  0  0  0  0  0  0  0
  130.9980  122.3080   63.8500 N   0  0  0  0  0  0  0  0  0  0  0  0
  130.1040  123.0550   64.5550 C   0  0  0  0  0  0  0  0  0  0  0  0
  130.4630  123.9210   65.3560 O   0  0  0  0  0  0  0  0  0  0  0  0
  128.6000  122.6970   64.4710 C   0  0  0  0  0  0  0  0  0  0  0  0
  128.0120  122.5640   63.0400 C   0  0  0  0  0  0  0  0  0  0  0  0
  126.8710  123.5530   62.7050 C   0  0  0  0  0  0  0  0  0  0  0  0
  125.8040  123.4330   63.3140 O   0  0  0  0  0  0  0  0  0  0  0  0
  127.1080  124.6000   61.8650 N   0  0  0  0  0  0  0  0  0  0  0  0
  128.2080  124.6230   60.8940 C   0  0  0  0  0  0  0  0  0  0  0  0
  127.6920  123.9060   59.6270 C   0  0  0  0  0  0  0  0  0  0  0  0
  126.3840  124.5170   59.0140 C   0  0  0  0  0  0  0  0  0  0  0  0
  125.7810  123.5390   58.0850 N   0  0  0  0  0  0  0  0  0  0  0  0
  126.3950  122.8100   57.1300 C   0  0  0  0  0  0  0  0  0  0  0  0
  125.5020  121.8880   56.3060 C   0  0  0  0  0  0  0  0  0  0  0  0
  127.6020  122.8540   56.8990 O   0  0  0  0  0  0  0  0  0  0  0  0
  126.8010  125.7690   58.1750 C   0  0  0  0  0  0  0  0  0  0  0  0
  126.0160  126.9320   58.1000 C   0  0  0  0  0  0  0  0  0  0  0  0
  126.4240  128.0250   57.3420 C   0  0  0  0  0  0  0  0  0  0  0  0
  127.6280  127.9840   56.6350 C   0  0  0  0  0  0  0  0  0  0  0  0
  128.0910  129.1780   55.8010 C   0  0  0  0  0  0  0  0  0  0  0  0
  127.9120  130.3170   56.4710 F   0  0  0  0  0  0  0  0  0  0  0  0
  129.3890  129.0430   55.5290 F   0  0  0  0  0  0  0  0  0  0  0  0
  127.4290  129.2720   54.6460 F   0  0  0  0  0  0  0  0  0  0  0  0
  128.4150  126.8330   56.6910 C   0  0  0  0  0  0  0  0  0  0  0  0
  128.0040  125.7410   57.4510 C   0  0  0  0  0  0  0  0  0  0  0  0
  125.3800  124.8590   60.1820 C   0  0  0  0  0  0  0  0  0  0  0  0
  126.0070  125.4820   61.4580 C   0  0  0  0  0  0  0  0  0  0  0  0
  130.6090  121.4910   62.6920 C   0  0  0  0  0  0  0  0  0  0  0  0
  130.8350  122.3590   61.4270 C   0  0  0  0  0  0  0  0  0  0  0  0
  134.3760  119.1779   61.3667 H   0  0  0  0  0  0  0  0  0  0  0  0
  133.6329  118.6321   59.8250 H   0  0  0  0  0  0  0  0  0  0  0  0
  134.8031  119.9949   59.8250 H   0  0  0  0  0  0  0  0  0  0  0  0
  134.1740  121.9140   61.1300 H   0  0  0  0  0  0  0  0  0  0  0  0
  130.3055  124.4642   60.2787 H   0  0  0  0  0  0  0  0  0  0  0  0
  130.3502  126.0120   58.3402 H   0  0  0  0  0  0  0  0  0  0  0  0
  134.4852  124.9902   57.6194 H   0  0  0  0  0  0  0  0  0  0  0  0
  134.4423  123.4386   59.5578 H   0  0  0  0  0  0  0  0  0  0  0  0
  133.7497  123.8211   62.6145 H   0  0  0  0  0  0  0  0  0  0  0  0
  132.0395  124.4437   62.7542 H   0  0  0  0  0  0  0  0  0  0  0  0
  133.0387  121.7346   63.7980 H   0  0  0  0  0  0  0  0  0  0  0  0
  132.7056  123.1567   64.8055 H   0  0  0  0  0  0  0  0  0  0  0  0
  128.4533  121.7362   64.9860 H   0  0  0  0  0  0  0  0  0  0  0  0
  128.0675  123.5410   64.9337 H   0  0  0  0  0  0  0  0  0  0  0  0
  128.8273  122.7278   62.3200 H   0  0  0  0  0  0  0  0  0  0  0  0
  127.5719  121.5575   62.9820 H   0  0  0  0  0  0  0  0  0  0  0  0
  128.4837  125.6612   60.6571 H   0  0  0  0  0  0  0  0  0  0  0  0
  129.1027  124.1248   61.2956 H   0  0  0  0  0  0  0  0  0  0  0  0
  128.4818  123.9506   58.8626 H   0  0  0  0  0  0  0  0  0  0  0  0
  127.4416  122.8791   59.9318 H   0  0  0  0  0  0  0  0  0  0  0  0
  124.7800  123.4420   58.1620 H   0  0  0  0  0  0  0  0  0  0  0  0
  124.8975  121.2639   56.9807 H   0  0  0  0  0  0  0  0  0  0  0  0
  124.8371  122.4924   55.6715 H   0  0  0  0  0  0  0  0  0  0  0  0
  126.1274  121.2427   55.6715 H   0  0  0  0  0  0  0  0  0  0  0  0
  125.0640  126.9790   58.6492 H   0  0  0  0  0  0  0  0  0  0  0  0
  125.7950  128.9264   57.2992 H   0  0  0  0  0  0  0  0  0  0  0  0
  129.3622  126.7882   56.1335 H   0  0  0  0  0  0  0  0  0  0  0  0
  128.6334  124.8395   57.4849 H   0  0  0  0  0  0  0  0  0  0  0  0
  124.6377  125.5700   59.7903 H   0  0  0  0  0  0  0  0  0  0  0  0
  124.9561  123.8952   60.5003 H   0  0  0  0  0  0  0  0  0  0  0  0
  126.3905  126.4893   61.2382 H   0  0  0  0  0  0  0  0  0  0  0  0
  125.2594  125.5749   62.2595 H   0  0  0  0  0  0  0  0  0  0  0  0
  131.2301  120.5844   62.6438 H   0  0  0  0  0  0  0  0  0  0  0  0
  129.5577  121.1767   62.7692 H   0  0  0  0  0  0  0  0  0  0  0  0
  130.5885  121.7541   60.5419 H   0  0  0  0  0  0  0  0  0  0  0  0
  130.1881  123.2434   61.5235 H   0  0  0  0  0  0  0  0  0  0  0  0
  1  2  1  0
  2  3  2  0
  2  4  1  0
  4  5  1  0
  5  6  1  0
  6  7  2  0
  7  8  1  0
  8  9  2  0
  9 10  1  0
 10 11  1  0
 10 12  1  0
 10 13  1  0
  9 14  1  0
 14 15  2  0
  5 16  1  0
 16 17  1  0
 17 18  1  0
 18 19  1  0
 19 20  2  0
 19 21  1  0
 21 22  1  0
 22 23  1  0
 23 24  2  0
 23 25  1  0
 25 26  1  0
 26 27  1  0
 27 28  1  0
 28 29  1  0
 29 30  1  0
 30 31  1  0
 30 32  2  0
 28 33  1  0
 33 34  2  0
 34 35  1  0
 35 36  2  0
 36 37  1  0
 37 38  1  0
 37 39  1  0
 37 40  1  0
 36 41  1  0
 41 42  2  0
 28 43  1  0
 43 44  1  0
 18 45  1  0
 45 46  1  0
 46  5  1  0
 15  6  1  0
 44 25  1  0
 42 33  1  0
  1 47  1  0
  1 48  1  0
  1 49  1  0
  4 50  1  0
  7 51  1  0
  8 52  1  0
 14 53  1  0
 15 54  1  0
 16 55  1  0
 16 56  1  0
 17 57  1  0
 17 58  1  0
 21 59  1  0
 21 60  1  0
 22 61  1  0
 22 62  1  0
 26 63  1  0
 26 64  1  0
 27 65  1  0
 27 66  1  0
 29 67  1  0
 31 68  1  0
 31 69  1  0
 31 70  1  0
 34 71  1  0
 35 72  1  0
 41 73  1  0
 42 74  1  0
 43 75  1  0
 43 76  1  0
 44 77  1  0
 44 78  1  0
 45 79  1  0
 45 80  1  0
 46 81  1  0
 46 82  1  0
M  END
>  <Binding energies>  (1) 
[-8.98]

>  <Ligand effiencies>  (1) 
[-0.18708333333333335]

>  <Interactions>  (1) 
["V-A:ASP:366:CG:3212, V-A:ASP:366:CB:3211, V-A:TYR:531:CZ:4793, V-B:GLU:543:CD:9879, V-B:PRO:540:N:9855, H-B:ALA:541:N:9862, H-A:TYR:484:OH:4347, V-B:ALA:541:CB:9863, V-B:PRO:540:CA:9854, V-B:ALA:541:CA:9861, V-A:LEU:475:CD2:4258, V-A:ILE:369:CD1:3238, V-A:SER:385:C:3404, V-B:TYR:539:CD2:9845, V-A:ILE:369:CG2:3236, V-B:TYR:539:CE2:9847, V-A:SER:385:CA:3406, V-A:SER:385:CB:3408, V-A:GLY:454:CA:4048, V-B:MET:535:CE:9806, V-B:TYR:539:CZ:9848, V-B:GLU:543:CG:9878, V-B:ALA:541:C:9859, V-B:PRO:540:CB:9856, V-B:PRO:540:CD:9858, V-B:LEU:363:CD1:8159, V-B:ILE:538:CD1:9836, V-B:ILE:538:CG2:9834, H-B:ARG:545:NH2:9899, V-B:ILE:538:CA:9831, V-B:ILE:538:C:9829, V-A:MET:535:CE:4834, V-A:TYR:531:CE1:4791, V-B:ASP:366:CG:8183, V-B:TYR:531:CE1:9763, V-A:VAL:384:C:3396, V-B:PRO:540:CG:9857, V-A:ILE:369:CB:3235, V-A:ASP:366:CA:3209, V-A:ASP:366:C:3207, H-A:SER:385:O:3405, V-A:ASN:370:CB:3244, V-A:ASN:370:CG:3245, V-A:TYR:531:CD1:4789, V-A:ASN:370:CA:3242"]

$$$$
RR29_Rahimova_2017
     RDKit          3D

 35 36  0  0  0  0  0  0  0  0999 V2000
  128.3130  122.7550   63.6420 C   0  0  0  0  0  0  0  0  0  0  0  0
  128.9790  123.9610   62.9950 C   0  0  0  0  0  0  0  0  0  0  0  0
  128.4700  124.2340   61.5620 C   0  0  0  0  0  0  0  0  0  0  0  0
  128.4770  122.9540   60.7000 C   0  0  0  0  0  0  0  0  0  0  0  0
  127.6270  123.0970   59.4470 C   0  0  0  0  0  0  0  0  0  0  0  0
  126.4940  123.9350   59.4580 C   0  0  0  0  0  0  0  0  0  0  0  0
  125.6970  124.0820   58.3140 C   0  0  0  0  0  0  0  0  0  0  0  0
  126.0610  123.3640   57.1810 C   0  0  0  0  0  0  0  0  0  0  0  0
  127.1570  122.5480   57.1650 C   0  0  0  0  0  0  0  0  0  0  0  0
  127.9720  122.3910   58.2810 C   0  0  0  0  0  0  0  0  0  0  0  0
  127.2940  122.0020   55.9280 O   0  0  0  0  0  0  0  0  0  0  0  0
  126.1220  122.3380   55.2340 C   0  0  0  0  0  0  0  0  0  0  0  0
  125.4760  123.3550   55.9530 O   0  0  0  0  0  0  0  0  0  0  0  0
  129.8650  124.6040   63.6610 N   0  0  0  0  0  0  0  0  0  0  0  0
  130.5300  125.6430   63.0470 N   0  0  0  0  0  0  0  0  0  0  0  0
  130.6850  126.8610   63.5900 C   0  0  0  0  0  0  0  0  0  0  0  0
  130.2370  127.2220   64.7940 N   0  0  0  0  0  0  0  0  0  0  0  0
  131.3310  127.7750   62.8810 N   0  0  0  0  0  0  0  0  0  0  0  0
  128.3657  122.8504   64.7366 H   0  0  0  0  0  0  0  0  0  0  0  0
  127.2598  122.7057   63.3285 H   0  0  0  0  0  0  0  0  0  0  0  0
  128.8322  121.8373   63.3285 H   0  0  0  0  0  0  0  0  0  0  0  0
  127.4419  124.6213   61.6167 H   0  0  0  0  0  0  0  0  0  0  0  0
  129.1430  124.9668   61.0930 H   0  0  0  0  0  0  0  0  0  0  0  0
  129.5127  122.7342   60.4016 H   0  0  0  0  0  0  0  0  0  0  0  0
  128.0513  122.1393   61.3041 H   0  0  0  0  0  0  0  0  0  0  0  0
  126.2315  124.4809   60.3762 H   0  0  0  0  0  0  0  0  0  0  0  0
  124.8163  124.7411   58.3132 H   0  0  0  0  0  0  0  0  0  0  0  0
  128.8560  121.7370   58.2524 H   0  0  0  0  0  0  0  0  0  0  0  0
  126.3739  122.6951   54.2245 H   0  0  0  0  0  0  0  0  0  0  0  0
  125.4670  121.4596   55.1370 H   0  0  0  0  0  0  0  0  0  0  0  0
  130.8910  125.4650   62.1210 H   0  0  0  0  0  0  0  0  0  0  0  0
  130.6410  128.0160   65.2690 H   0  0  0  0  0  0  0  0  0  0  0  0
  129.4990  126.6880   65.2300 H   0  0  0  0  0  0  0  0  0  0  0  0
  131.4060  127.6760   61.8780 H   0  0  0  0  0  0  0  0  0  0  0  0
  131.7420  128.5720   63.3430 H   0  0  0  0  0  0  0  0  0  0  0  0
  1  2  1  0
  2  3  1  0
  3  4  1  0
  4  5  1  0
  5  6  2  0
  6  7  1  0
  7  8  2  0
  8  9  1  0
  9 10  2  0
  9 11  1  0
 11 12  1  0
 12 13  1  0
  2 14  2  0
 14 15  1  0
 15 16  1  0
 16 17  1  0
 16 18  2  0
 10  5  1  0
 13  8  1  0
  1 19  1  0
  1 20  1  0
  1 21  1  0
  3 22  1  0
  3 23  1  0
  4 24  1  0
  4 25  1  0
  6 26  1  0
  7 27  1  0
 10 28  1  0
 12 29  1  0
 12 30  1  0
 15 31  1  0
 17 32  1  0
 17 33  1  0
 18 34  1  0
 18 35  1  0
M  CHG  1  18   1
M  END
>  <Binding energies>  (1) 
[-7.95]

>  <Ligand effiencies>  (1) 
[-0.3456521739130435]

>  <Interactions>  (1) 
["H-A:GLU:543:OE2:4909, V-B:GLU:543:CD:9879, V-B:PRO:540:N:9855, V-B:ALA:541:CB:9863, V-B:PRO:540:CA:9854, H-B:GLU:543:OE2:9881, V-B:ALA:541:CA:9861, V-B:TYR:539:C:9838, V-B:TYR:539:CD2:9845, V-B:TYR:539:CE2:9847, H-B:TYR:539:N:9841, V-B:TYR:539:CG:9843, V-B:MET:535:CE:9806, V-B:GLU:543:CG:9878, V-B:ALA:541:C:9859, V-B:PRO:540:CB:9856, V-B:TYR:539:CA:9840, V-B:TYR:531:CE2:9764, V-A:ARG:545:CZ:4925, V-B:ILE:538:CD1:9836, H-A:GLU:543:OE1:4908, V-B:ILE:538:CG2:9834, V-A:GLU:543:CD:4907, H-A:ASP:366:OD2:3214, V-B:ILE:538:CA:9831, V-B:ILE:538:C:9829, V-B:ILE:538:CB:9833, H-B:TYR:531:OH:9766, V-B:MET:535:CG:9804"]

$$$$
RR29_Rahimova_2017-again1
     RDKit          3D

 34 35  0  0  0  0  0  0  0  0999 V2000
  129.2160  123.3460   63.7790 C   0  0  0  0  0  0  0  0  0  0  0  0
  128.0760  123.0870   62.8060 C   0  0  0  0  0  0  0  0  0  0  0  0
  128.5460  122.8520   61.3570 C   0  0  0  0  0  0  0  0  0  0  0  0
  128.4680  124.1460   60.5200 C   0  0  0  0  0  0  0  0  0  0  0  0
  127.6100  123.9770   59.2750 C   0  0  0  0  0  0  0  0  0  0  0  0
  126.4960  124.8140   59.0710 C   0  0  0  0  0  0  0  0  0  0  0  0
  125.6930  124.6760   57.9300 C   0  0  0  0  0  0  0  0  0  0  0  0
  126.0320  123.6820   57.0200 C   0  0  0  0  0  0  0  0  0  0  0  0
  127.1110  122.8650   57.2150 C   0  0  0  0  0  0  0  0  0  0  0  0
  127.9300  122.9860   58.3320 C   0  0  0  0  0  0  0  0  0  0  0  0
  127.2260  122.0150   56.1620 O   0  0  0  0  0  0  0  0  0  0  0  0
  126.0550  122.1840   55.4090 C   0  0  0  0  0  0  0  0  0  0  0  0
  125.4380  123.3680   55.8390 O   0  0  0  0  0  0  0  0  0  0  0  0
  126.8650  123.1010   63.2390 N   0  0  0  0  0  0  0  0  0  0  0  0
  125.9220  122.9040   62.3740 N   0  0  0  0  0  0  0  0  0  0  0  0
  125.3230  123.9390   61.9090 C   0  0  0  0  0  0  0  0  0  0  0  0
  125.5590  125.3050   62.2280 N   0  0  0  0  0  0  0  0  0  0  0  0
  124.2880  123.8190   60.9580 N   0  0  0  0  0  0  0  0  0  0  0  0
  128.8439  123.2615   64.8107 H   0  0  0  0  0  0  0  0  0  0  0  0
  130.0133  122.6061   63.6150 H   0  0  0  0  0  0  0  0  0  0  0  0
  129.6153  124.3578   63.6150 H   0  0  0  0  0  0  0  0  0  0  0  0
  129.5875  122.4983   61.3720 H   0  0  0  0  0  0  0  0  0  0  0  0
  127.8846  122.1031   60.8969 H   0  0  0  0  0  0  0  0  0  0  0  0
  128.0361  124.9440   61.1417 H   0  0  0  0  0  0  0  0  0  0  0  0
  129.4879  124.3983   60.1943 H   0  0  0  0  0  0  0  0  0  0  0  0
  126.2528  125.5857   59.8162 H   0  0  0  0  0  0  0  0  0  0  0  0
  124.8257  125.3311   57.7612 H   0  0  0  0  0  0  0  0  0  0  0  0
  128.7998  122.3275   58.4727 H   0  0  0  0  0  0  0  0  0  0  0  0
  126.3044  122.2584   54.3402 H   0  0  0  0  0  0  0  0  0  0  0  0
  125.3807  121.3261   55.5479 H   0  0  0  0  0  0  0  0  0  0  0  0
  126.2620  125.5860   62.8970 H   0  0  0  0  0  0  0  0  0  0  0  0
  125.0320  126.0580   61.8120 H   0  0  0  0  0  0  0  0  0  0  0  0
  123.9770  122.9230   60.6130 H   0  0  0  0  0  0  0  0  0  0  0  0
  123.8010  124.6190   60.5830 H   0  0  0  0  0  0  0  0  0  0  0  0
  1  2  1  0
  2  3  1  0
  3  4  1  0
  4  5  1  0
  5  6  2  0
  6  7  1  0
  7  8  2  0
  8  9  1  0
  9 10  2  0
  9 11  1  0
 11 12  1  0
 12 13  1  0
  2 14  2  0
 14 15  1  0
 15 16  2  0
 16 17  1  0
 16 18  1  0
 10  5  1  0
 13  8  1  0
  1 19  1  0
  1 20  1  0
  1 21  1  0
  3 22  1  0
  3 23  1  0
  4 24  1  0
  4 25  1  0
  6 26  1  0
  7 27  1  0
 10 28  1  0
 12 29  1  0
 12 30  1  0
 17 31  1  0
 17 32  1  0
 18 33  1  0
 18 34  1  0
M  END
>  <Binding energies>  (1) 
[-7.36]

>  <Ligand effiencies>  (1) 
[-0.33454545454545453]

>  <Interactions>  (1) 
["V-B:GLU:543:CD:9879, V-B:PRO:540:N:9855, H-B:ALA:541:N:9862, V-B:ALA:541:CB:9863, V-B:PRO:540:CA:9854, H-B:GLU:543:OE2:9881, H-B:GLU:543:OE1:9880, V-B:TYR:539:C:9838, V-B:TYR:539:CD2:9845, V-B:TYR:539:CE2:9847, H-B:TYR:539:N:9841, V-B:MET:535:CE:9806, V-B:PRO:540:CB:9856, V-B:ILE:538:CD1:9836, V-B:ILE:538:CG2:9834, V-B:ILE:538:CA:9831, V-B:ILE:538:C:9829, V-B:ILE:538:CB:9833, H-B:TYR:531:OH:9766, V-B:ASP:366:CG:8183, V-B:MET:535:CG:9804, V-B:ARG:545:CZ:9897, H-B:ASP:366:OD2:8185, H-B:ASP:366:OD1:8184"]

$$$$
RR2_Rahimova_2017
     RDKit          3D

 76 80  0  0  0  0  0  0  0  0999 V2000
  125.3690  128.7260   67.0760 C   0  0  0  0  0  0  0  0  0  0  0  0
  125.5200  129.1040   65.7120 O   0  0  0  0  0  0  0  0  0  0  0  0
  126.6680  128.7380   65.0340 C   0  0  0  0  0  0  0  0  0  0  0  0
  126.6920  128.2830   63.7080 C   0  0  0  0  0  0  0  0  0  0  0  0
  127.8980  127.9330   63.1080 C   0  0  0  0  0  0  0  0  0  0  0  0
  129.1040  128.0240   63.8160 C   0  0  0  0  0  0  0  0  0  0  0  0
  130.4030  127.6280   63.1410 C   0  0  0  0  0  0  0  0  0  0  0  0
  130.8610  128.3150   62.2210 O   0  0  0  0  0  0  0  0  0  0  0  0
  130.9880  126.4990   63.6020 N   0  0  0  0  0  0  0  0  0  0  0  0
  132.1320  126.0410   62.9570 N   0  0  0  0  0  0  0  0  0  0  0  0
  132.3240  124.7090   62.8680 C   0  0  0  0  0  0  0  0  0  0  0  0
  131.6600  123.8590   63.4680 O   0  0  0  0  0  0  0  0  0  0  0  0
  133.4480  124.2650   61.9230 C   0  0  0  0  0  0  0  0  0  0  0  0
  132.9420  123.0890   60.6150 S   0  0  0  0  0  0  0  0  0  0  0  0
  132.4040  124.2100   59.3590 C   0  0  0  0  0  0  0  0  0  0  0  0
  133.2280  124.8110   58.5380 N   0  0  0  0  0  0  0  0  0  0  0  0
  132.4760  125.6640   57.7430 N   0  0  0  0  0  0  0  0  0  0  0  0
  131.2200  125.5260   58.0940 C   0  0  0  0  0  0  0  0  0  0  0  0
  130.0980  126.2730   57.4480 C   0  0  0  0  0  0  0  0  0  0  0  0
  128.9550  126.5860   58.1870 C   0  0  0  0  0  0  0  0  0  0  0  0
  127.9030  127.2750   57.5920 C   0  0  0  0  0  0  0  0  0  0  0  0
  127.9920  127.6740   56.2530 C   0  0  0  0  0  0  0  0  0  0  0  0
  126.9580  128.3610   55.5990 N   0  0  0  0  0  0  0  0  0  0  0  0
  126.5170  130.0560   55.9050 S   0  0  0  0  0  0  0  0  0  0  0  0
  125.8650  130.0720   57.2200 O   0  0  0  0  0  0  0  0  0  0  0  0
  125.8260  130.5690   54.7160 O   0  0  0  0  0  0  0  0  0  0  0  0
  128.0750  130.9190   56.0920 C   0  0  0  0  0  0  0  0  0  0  0  0
  128.5110  131.8200   55.1170 C   0  0  0  0  0  0  0  0  0  0  0  0
  129.7320  132.4700   55.2740 C   0  0  0  0  0  0  0  0  0  0  0  0
  130.5140  132.2230   56.4050 C   0  0  0  0  0  0  0  0  0  0  0  0
  131.8530  132.9210   56.5660 C   0  0  0  0  0  0  0  0  0  0  0  0
  130.0780  131.3180   57.3760 C   0  0  0  0  0  0  0  0  0  0  0  0
  128.8580  130.6680   57.2200 C   0  0  0  0  0  0  0  0  0  0  0  0
  129.1350  127.3630   55.5170 C   0  0  0  0  0  0  0  0  0  0  0  0
  130.1850  126.6690   56.1100 C   0  0  0  0  0  0  0  0  0  0  0  0
  131.1010  124.6120   59.1280 N   0  0  0  0  0  0  0  0  0  0  0  0
  129.9360  124.2140   59.8170 C   0  0  0  0  0  0  0  0  0  0  0  0
  129.6290  124.7860   61.0520 C   0  0  0  0  0  0  0  0  0  0  0  0
  128.4750  124.3930   61.7250 C   0  0  0  0  0  0  0  0  0  0  0  0
  127.6260  123.4310   61.1770 C   0  0  0  0  0  0  0  0  0  0  0  0
  126.5070  123.1050   61.9190 O   0  0  0  0  0  0  0  0  0  0  0  0
  126.0430  124.0130   62.9130 C   0  0  0  0  0  0  0  0  0  0  0  0
  127.9440  122.8600   59.9340 C   0  0  0  0  0  0  0  0  0  0  0  0
  129.0940  123.2520   59.2560 C   0  0  0  0  0  0  0  0  0  0  0  0
  129.0720  128.4850   65.1410 C   0  0  0  0  0  0  0  0  0  0  0  0
  127.8650  128.8360   65.7390 C   0  0  0  0  0  0  0  0  0  0  0  0
  125.6988  129.5515   67.7239 H   0  0  0  0  0  0  0  0  0  0  0  0
  124.3117  128.5004   67.2791 H   0  0  0  0  0  0  0  0  0  0  0  0
  125.9798  127.8340   67.2791 H   0  0  0  0  0  0  0  0  0  0  0  0
  125.7537  128.2023   63.1396 H   0  0  0  0  0  0  0  0  0  0  0  0
  127.9047  127.5808   62.0659 H   0  0  0  0  0  0  0  0  0  0  0  0
  130.4420  125.7370   63.9790 H   0  0  0  0  0  0  0  0  0  0  0  0
  132.5080  126.7030   62.2930 H   0  0  0  0  0  0  0  0  0  0  0  0
  133.8576  125.1619   61.4353 H   0  0  0  0  0  0  0  0  0  0  0  0
  134.1811  123.7329   62.5470 H   0  0  0  0  0  0  0  0  0  0  0  0
  128.8863  126.2867   59.2433 H   0  0  0  0  0  0  0  0  0  0  0  0
  126.9994  127.5068   58.1748 H   0  0  0  0  0  0  0  0  0  0  0  0
  126.4440  127.8660   54.8850 H   0  0  0  0  0  0  0  0  0  0  0  0
  127.8919  132.0149   54.2289 H   0  0  0  0  0  0  0  0  0  0  0  0
  130.0810  133.1779   54.5078 H   0  0  0  0  0  0  0  0  0  0  0  0
  132.0788  133.0387   57.6361 H   0  0  0  0  0  0  0  0  0  0  0  0
  132.6402  132.3185   56.0893 H   0  0  0  0  0  0  0  0  0  0  0  0
  131.8099  133.9114   56.0893 H   0  0  0  0  0  0  0  0  0  0  0  0
  130.6984  131.1198   58.2624 H   0  0  0  0  0  0  0  0  0  0  0  0
  128.5109  129.9573   57.9844 H   0  0  0  0  0  0  0  0  0  0  0  0
  129.2068  127.6679   54.4625 H   0  0  0  0  0  0  0  0  0  0  0  0
  131.0856  126.4314   55.5248 H   0  0  0  0  0  0  0  0  0  0  0  0
  130.2949  125.5432   61.4916 H   0  0  0  0  0  0  0  0  0  0  0  0
  128.2306  124.8451   62.6975 H   0  0  0  0  0  0  0  0  0  0  0  0
  126.2529  123.6022   63.9116 H   0  0  0  0  0  0  0  0  0  0  0  0
  126.5586  124.9778   62.7976 H   0  0  0  0  0  0  0  0  0  0  0  0
  124.9590  124.1604   62.7976 H   0  0  0  0  0  0  0  0  0  0  0  0
  127.2813  122.0999   59.4947 H   0  0  0  0  0  0  0  0  0  0  0  0
  129.3390  122.8054   58.2811 H   0  0  0  0  0  0  0  0  0  0  0  0
  130.0085  128.5697   65.7118 H   0  0  0  0  0  0  0  0  0  0  0  0
  127.8566  129.1944   66.7789 H   0  0  0  0  0  0  0  0  0  0  0  0
  1  2  1  0
  2  3  1  0
  3  4  2  0
  4  5  1  0
  5  6  2  0
  6  7  1  0
  7  8  2  0
  7  9  1  0
  9 10  1  0
 10 11  1  0
 11 12  2  0
 11 13  1  0
 13 14  1  0
 14 15  1  0
 15 16  2  0
 16 17  1  0
 17 18  2  0
 18 19  1  0
 19 20  2  0
 20 21  1  0
 21 22  2  0
 22 23  1  0
 23 24  1  0
 24 25  2  0
 24 26  2  0
 24 27  1  0
 27 28  2  0
 28 29  1  0
 29 30  2  0
 30 31  1  0
 30 32  1  0
 32 33  2  0
 22 34  1  0
 34 35  2  0
 18 36  1  0
 36 37  1  0
 37 38  2  0
 38 39  1  0
 39 40  2  0
 40 41  1  0
 41 42  1  0
 40 43  1  0
 43 44  2  0
  6 45  1  0
 45 46  2  0
 46  3  1  0
 36 15  1  0
 44 37  1  0
 35 19  1  0
 33 27  1  0
  1 47  1  0
  1 48  1  0
  1 49  1  0
  4 50  1  0
  5 51  1  0
  9 52  1  0
 10 53  1  0
 13 54  1  0
 13 55  1  0
 20 56  1  0
 21 57  1  0
 23 58  1  0
 28 59  1  0
 29 60  1  0
 31 61  1  0
 31 62  1  0
 31 63  1  0
 32 64  1  0
 33 65  1  0
 34 66  1  0
 35 67  1  0
 38 68  1  0
 39 69  1  0
 42 70  1  0
 42 71  1  0
 42 72  1  0
 43 73  1  0
 44 74  1  0
 45 75  1  0
 46 76  1  0
M  END
>  <Binding energies>  (1) 
[-10.23]

>  <Ligand effiencies>  (1) 
[-0.20877551020408164]

>  <Interactions>  (1) 
["V-A:TYR:539:CZ:4876, V-A:ASP:366:CG:3212, V-A:TYR:539:CE1:4874, V-A:TYR:531:CE2:4792, V-A:TYR:531:CZ:4793, V-A:LEU:363:CD1:3188, V-B:GLU:543:CD:9879, V-B:PRO:540:N:9855, H-B:ALA:541:N:9862, V-B:PRO:540:CA:9854, H-B:GLU:543:OE2:9881, V-B:TYR:539:C:9838, V-A:ILE:369:CD1:3238, V-B:TYR:539:CD2:9845, V-B:TYR:539:CE2:9847, V-B:MET:535:CE:9806, H-B:TYR:539:OH:9849, V-B:TYR:539:CZ:9848, V-B:GLU:543:CG:9878, V-B:TYR:531:CZ:9765, V-A:ARG:545:CZ:4925, V-A:GLU:543:CD:4907, V-A:GLU:543:CG:4906, V-B:ARG:545:CG:9893, H-A:ASP:366:OD2:3214, H-A:ARG:545:NH2:4927, H-B:TYR:484:OH:9318, V-A:MET:535:CE:4834, H-B:TYR:531:OH:9766, V-A:TYR:531:CE1:4791, H-A:ASP:366:OD1:3213, V-A:MET:535:CG:4832, V-B:TYR:531:CE1:9763, H-A:TYR:539:OH:4877"]

$$$$
RR30_Rahimova_2017
     RDKit          3D

 29 30  0  0  0  0  0  0  0  0999 V2000
  123.5560  122.1370   62.6200 C   0  0  0  0  0  0  0  0  0  0  0  0
  123.9000  123.5980   62.2920 C   0  0  0  0  0  0  0  0  0  0  0  0
  125.3910  123.8570   62.3280 C   0  0  0  0  0  0  0  0  0  0  0  0
  126.0100  125.0060   62.4350 N   0  0  0  0  0  0  0  0  0  0  0  0
  127.3710  124.7100   62.4120 N   0  0  0  0  0  0  0  0  0  0  0  0
  127.4560  123.4100   62.2830 C   0  0  0  0  0  0  0  0  0  0  0  0
  128.9210  122.4310   62.2060 S   0  0  0  0  0  0  0  0  0  0  0  0
  129.8630  123.3740   60.9660 C   0  0  0  0  0  0  0  0  0  0  0  0
  129.0780  123.5660   59.6650 C   0  0  0  0  0  0  0  0  0  0  0  0
  129.0210  124.6870   59.1560 O   0  0  0  0  0  0  0  0  0  0  0  0
  128.4610  122.4650   59.1800 N   0  0  0  0  0  0  0  0  0  0  0  0
  127.6940  122.3920   58.0270 C   0  0  0  0  0  0  0  0  0  0  0  0
  128.0530  121.9670   56.8360 N   0  0  0  0  0  0  0  0  0  0  0  0
  127.0150  122.0390   55.9150 N   0  0  0  0  0  0  0  0  0  0  0  0
  125.9000  122.5120   56.4220 C   0  0  0  0  0  0  0  0  0  0  0  0
  124.6340  122.6870   55.6160 C   0  0  0  0  0  0  0  0  0  0  0  0
  126.0400  122.9140   58.1120 S   0  0  0  0  0  0  0  0  0  0  0  0
  126.2420  122.8050   62.2280 O   0  0  0  0  0  0  0  0  0  0  0  0
  123.5246  122.0038   63.7115 H   0  0  0  0  0  0  0  0  0  0  0  0
  122.5743  121.8864   62.1917 H   0  0  0  0  0  0  0  0  0  0  0  0
  124.3228  121.4747   62.1917 H   0  0  0  0  0  0  0  0  0  0  0  0
  123.5240  123.8329   61.2853 H   0  0  0  0  0  0  0  0  0  0  0  0
  123.4284  124.2351   63.0547 H   0  0  0  0  0  0  0  0  0  0  0  0
  130.1056  124.3628   61.3824 H   0  0  0  0  0  0  0  0  0  0  0  0
  130.7738  122.8043   60.7295 H   0  0  0  0  0  0  0  0  0  0  0  0
  128.5550  121.6060   59.7020 H   0  0  0  0  0  0  0  0  0  0  0  0
  123.7788  122.8052   56.2976 H   0  0  0  0  0  0  0  0  0  0  0  0
  124.7238  123.5813   54.9818 H   0  0  0  0  0  0  0  0  0  0  0  0
  124.4778  121.8019   54.9818 H   0  0  0  0  0  0  0  0  0  0  0  0
  1  2  1  0
  2  3  1  0
  3  4  2  0
  4  5  1  0
  5  6  2  0
  6  7  1  0
  7  8  1  0
  8  9  1  0
  9 10  2  0
  9 11  1  0
 11 12  1  0
 12 13  2  0
 13 14  1  0
 14 15  2  0
 15 16  1  0
 15 17  1  0
  6 18  1  0
 18  3  1  0
 17 12  1  0
  1 19  1  0
  1 20  1  0
  1 21  1  0
  2 22  1  0
  2 23  1  0
  8 24  1  0
  8 25  1  0
 11 26  1  0
 16 27  1  0
 16 28  1  0
 16 29  1  0
M  END
>  <Binding energies>  (1) 
[-6.8]

>  <Ligand effiencies>  (1) 
[-0.35789473684210527]

>  <Interactions>  (1) 
["V-B:PRO:540:N:9855, H-B:ALA:541:N:9862, V-B:PRO:540:CA:9854, V-B:PRO:540:C:9852, V-B:TYR:539:C:9838, H-B:TYR:539:O:9839, V-B:TYR:539:CD2:9845, V-B:TYR:539:CE2:9847, H-B:TYR:539:N:9841, V-B:TYR:539:CG:9843, V-B:MET:535:CE:9806, V-B:ALA:541:C:9859, V-B:PRO:540:CB:9856, V-B:ASN:362:CB:8146, V-B:TYR:539:CA:9840, V-B:TYR:531:CZ:9765, V-B:PRO:540:CD:9858, V-B:TYR:531:CE2:9764, V-B:LEU:363:CD1:8159, V-B:ILE:538:CD1:9836, V-B:ILE:538:CG2:9834, H-B:ARG:545:NH2:9899, V-B:ARG:545:CZ:9897, V-B:ASN:362:CG:8147, V-B:ASN:359:CB:8121"]

$$$$
RR31_Rahimova_2017
     RDKit          3D

 44 45  0  0  0  0  0  0  0  0999 V2000
  132.1980  117.2310   58.9490 C   0  0  0  0  0  0  0  0  0  0  0  0
  132.3500  118.4760   59.8140 C   0  0  0  0  0  0  0  0  0  0  0  0
  133.4430  119.3190   59.6080 C   0  0  0  0  0  0  0  0  0  0  0  0
  133.6080  120.4670   60.3800 C   0  0  0  0  0  0  0  0  0  0  0  0
  132.6810  120.8110   61.3770 C   0  0  0  0  0  0  0  0  0  0  0  0
  132.8380  121.9530   62.1660 N   0  0  0  0  0  0  0  0  0  0  0  0
  133.1350  121.8710   63.6090 C   0  0  0  0  0  0  0  0  0  0  0  0
  132.8690  123.1830   64.3830 C   0  0  0  0  0  0  0  0  0  0  0  0
  133.6120  124.2990   63.7930 N   0  0  0  0  0  0  0  0  0  0  0  0
  133.4070  125.5520   64.5270 C   0  0  0  0  0  0  0  0  0  0  0  0
  132.0850  125.5760   65.3210 C   0  0  0  0  0  0  0  0  0  0  0  0
  131.0080  126.4290   64.6330 C   0  0  0  0  0  0  0  0  0  0  0  0
  130.0370  126.9890   65.6790 N   0  0  0  0  0  0  0  0  0  0  0  0
  133.1460  124.4550   62.4150 C   0  0  0  0  0  0  0  0  0  0  0  0
  133.4310  123.1770   61.5920 C   0  0  0  0  0  0  0  0  0  0  0  0
  131.5920  119.9500   61.5790 C   0  0  0  0  0  0  0  0  0  0  0  0
  131.4150  118.7930   60.8110 C   0  0  0  0  0  0  0  0  0  0  0  0
  130.2130  117.8980   61.0830 C   0  0  0  0  0  0  0  0  0  0  0  0
  132.0901  116.3469   59.5946 H   0  0  0  0  0  0  0  0  0  0  0  0
  131.3056  117.3325   58.3140 H   0  0  0  0  0  0  0  0  0  0  0  0
  133.0886  117.1148   58.3140 H   0  0  0  0  0  0  0  0  0  0  0  0
  134.1806  119.0749   58.8293 H   0  0  0  0  0  0  0  0  0  0  0  0
  134.4795  121.1151   60.2055 H   0  0  0  0  0  0  0  0  0  0  0  0
  132.5093  121.0789   64.0462 H   0  0  0  0  0  0  0  0  0  0  0  0
  134.2109  121.6609   63.7004 H   0  0  0  0  0  0  0  0  0  0  0  0
  131.7930  123.4090   64.3492 H   0  0  0  0  0  0  0  0  0  0  0  0
  133.2018  123.0506   65.4230 H   0  0  0  0  0  0  0  0  0  0  0  0
  134.2413  125.6862   65.2312 H   0  0  0  0  0  0  0  0  0  0  0  0
  133.3605  126.3636   63.7859 H   0  0  0  0  0  0  0  0  0  0  0  0
  131.7118  124.5458   65.4183 H   0  0  0  0  0  0  0  0  0  0  0  0
  132.2910  126.0228   66.3049 H   0  0  0  0  0  0  0  0  0  0  0  0
  131.4888  127.2620   64.0991 H   0  0  0  0  0  0  0  0  0  0  0  0
  130.4507  125.8025   63.9211 H   0  0  0  0  0  0  0  0  0  0  0  0
  129.1640  127.2470   65.2400 H   0  0  0  0  0  0  0  0  0  0  0  0
  130.4330  127.8080   66.1190 H   0  0  0  0  0  0  0  0  0  0  0  0
  129.8510  126.2960   66.3890 H   0  0  0  0  0  0  0  0  0  0  0  0
  132.0629  124.6469   62.4199 H   0  0  0  0  0  0  0  0  0  0  0  0
  133.6817  125.2982   61.9545 H   0  0  0  0  0  0  0  0  0  0  0  0
  133.0232  123.3182   60.5802 H   0  0  0  0  0  0  0  0  0  0  0  0
  134.5216  123.0339   61.5907 H   0  0  0  0  0  0  0  0  0  0  0  0
  130.8575  120.1904   62.3618 H   0  0  0  0  0  0  0  0  0  0  0  0
  130.0722  117.7932   62.1689 H   0  0  0  0  0  0  0  0  0  0  0  0
  129.3130  118.3476   60.6383 H   0  0  0  0  0  0  0  0  0  0  0  0
  130.3857  116.9069   60.6383 H   0  0  0  0  0  0  0  0  0  0  0  0
  1  2  1  0
  2  3  2  0
  3  4  1  0
  4  5  2  0
  5  6  1  0
  6  7  1  0
  7  8  1  0
  8  9  1  0
  9 10  1  0
 10 11  1  0
 11 12  1  0
 12 13  1  0
  9 14  1  0
 14 15  1  0
  5 16  1  0
 16 17  2  0
 17 18  1  0
 17  2  1  0
 15  6  1  0
  1 19  1  0
  1 20  1  0
  1 21  1  0
  3 22  1  0
  4 23  1  0
  7 24  1  0
  7 25  1  0
  8 26  1  0
  8 27  1  0
 10 28  1  0
 10 29  1  0
 11 30  1  0
 11 31  1  0
 12 32  1  0
 12 33  1  0
 13 34  1  0
 13 35  1  0
 13 36  1  0
 14 37  1  0
 14 38  1  0
 15 39  1  0
 15 40  1  0
 16 41  1  0
 18 42  1  0
 18 43  1  0
 18 44  1  0
M  CHG  1  13   1
M  END
>  <Binding energies>  (1) 
[-7.75]

>  <Ligand effiencies>  (1) 
[-0.36904761904761907]

>  <Interactions>  (1) 
["V-A:ASP:366:CG:3212, H-A:GLU:543:OE2:4909, V-B:GLU:543:CD:9879, H-B:GLU:543:OE2:9881, V-B:TYR:539:C:9838, V-A:LEU:475:CD2:4258, V-A:PRO:482:CG:4326, V-A:HIS:383:CE1:3393, V-A:ILE:369:CD1:3238, V-B:TYR:539:CD2:9845, V-A:ILE:369:CG2:3236, V-B:TYR:539:CE2:9847, V-B:TYR:539:CB:9842, V-A:SER:385:CA:3406, V-A:GLY:454:CA:4048, V-A:LEU:373:CD1:3279, V-B:TYR:539:CG:9843, V-A:PRO:482:CB:4325, H-A:GLY:454:N:4049, V-A:ARG:545:CZ:4925, H-A:GLU:543:OE1:4908, V-A:GLU:543:CD:4907, V-A:LEU:373:CG:3278, V-A:LEU:373:CD2:3280, V-A:HIS:383:CG:3389"]

$$$$
RR32_Rahimova_2017
     RDKit          3D

 37 39  0  0  0  0  0  0  0  0999 V2000
  123.6470  124.0690   59.2720 C   0  0  0  0  0  0  0  0  0  0  0  0
  125.0920  123.6110   59.1130 C   0  0  0  0  0  0  0  0  0  0  0  0
  125.9090  123.5980   60.2440 C   0  0  0  0  0  0  0  0  0  0  0  0
  127.2330  123.1820   60.1370 C   0  0  0  0  0  0  0  0  0  0  0  0
  128.0400  123.1710   61.2620 N   0  0  0  0  0  0  0  0  0  0  0  0
  127.4030  123.4880   62.5530 C   0  0  0  0  0  0  0  0  0  0  0  0
  128.4150  123.6270   63.7150 C   0  0  0  0  0  0  0  0  0  0  0  0
  129.1860  122.3930   63.8650 N   0  0  0  0  0  0  0  0  0  0  0  0
  130.1170  122.5120   64.9810 C   0  0  0  0  0  0  0  0  0  0  0  0
  129.9140  122.1610   62.6190 C   0  0  0  0  0  0  0  0  0  0  0  0
  128.9250  122.0040   61.4400 C   0  0  0  0  0  0  0  0  0  0  0  0
  127.7830  122.7830   58.9610 N   0  0  0  0  0  0  0  0  0  0  0  0
  127.0120  122.7880   57.8390 C   0  0  0  0  0  0  0  0  0  0  0  0
  127.6120  122.3690   56.6260 C   0  0  0  0  0  0  0  0  0  0  0  0
  126.8730  122.3540   55.4490 C   0  0  0  0  0  0  0  0  0  0  0  0
  125.5400  122.7470   55.4480 C   0  0  0  0  0  0  0  0  0  0  0  0
  124.9210  123.1640   56.6220 C   0  0  0  0  0  0  0  0  0  0  0  0
  125.6390  123.1970   57.8530 C   0  0  0  0  0  0  0  0  0  0  0  0
  123.4025  124.1465   60.3417 H   0  0  0  0  0  0  0  0  0  0  0  0
  123.5192  125.0517   58.7945 H   0  0  0  0  0  0  0  0  0  0  0  0
  122.9764  123.3394   58.7945 H   0  0  0  0  0  0  0  0  0  0  0  0
  125.5078  123.9157   61.2177 H   0  0  0  0  0  0  0  0  0  0  0  0
  126.8571  124.4374   62.4496 H   0  0  0  0  0  0  0  0  0  0  0  0
  126.7338  122.6510   62.8012 H   0  0  0  0  0  0  0  0  0  0  0  0
  129.1009  124.4601   63.5016 H   0  0  0  0  0  0  0  0  0  0  0  0
  127.8654  123.8219   64.6477 H   0  0  0  0  0  0  0  0  0  0  0  0
  129.5638  122.4413   65.9291 H   0  0  0  0  0  0  0  0  0  0  0  0
  130.8586  121.7013   64.9279 H   0  0  0  0  0  0  0  0  0  0  0  0
  130.6309  123.4831   64.9279 H   0  0  0  0  0  0  0  0  0  0  0  0
  130.5793  123.0148   62.4232 H   0  0  0  0  0  0  0  0  0  0  0  0
  130.5040  121.2377   62.7162 H   0  0  0  0  0  0  0  0  0  0  0  0
  129.5036  121.8602   60.5156 H   0  0  0  0  0  0  0  0  0  0  0  0
  128.2833  121.1396   61.6656 H   0  0  0  0  0  0  0  0  0  0  0  0
  128.6660  122.0546   56.6156 H   0  0  0  0  0  0  0  0  0  0  0  0
  127.3468  122.0286   54.5111 H   0  0  0  0  0  0  0  0  0  0  0  0
  124.9681  122.7281   54.5086 H   0  0  0  0  0  0  0  0  0  0  0  0
  123.8652  123.4718   56.6001 H   0  0  0  0  0  0  0  0  0  0  0  0
  1  2  1  0
  2  3  2  0
  3  4  1  0
  4  5  1  0
  5  6  1  0
  6  7  1  0
  7  8  1  0
  8  9  1  0
  8 10  1  0
 10 11  1  0
  4 12  2  0
 12 13  1  0
 13 14  2  0
 14 15  1  0
 15 16  2  0
 16 17  1  0
 17 18  2  0
 18  2  1  0
 11  5  1  0
 18 13  1  0
  1 19  1  0
  1 20  1  0
  1 21  1  0
  3 22  1  0
  6 23  1  0
  6 24  1  0
  7 25  1  0
  7 26  1  0
  9 27  1  0
  9 28  1  0
  9 29  1  0
 10 30  1  0
 10 31  1  0
 11 32  1  0
 11 33  1  0
 14 34  1  0
 15 35  1  0
 16 36  1  0
 17 37  1  0
M  END
>  <Binding energies>  (1) 
[-6.48]

>  <Ligand effiencies>  (1) 
[-0.36000000000000004]

>  <Interactions>  (1) 
["V-B:GLU:543:CD:9879, V-B:PRO:540:N:9855, V-B:ALA:541:CB:9863, V-B:PRO:540:CA:9854, V-B:PRO:540:C:9852, V-B:TYR:539:C:9838, V-A:LEU:475:CD2:4258, V-B:TYR:539:CD2:9845, V-B:TYR:539:CE2:9847, V-B:TYR:539:CG:9843, V-B:MET:535:CE:9806, V-B:TYR:539:CZ:9848, V-B:GLU:543:CG:9878, V-A:LEU:475:CD1:4257, V-B:PRO:540:CB:9856, V-B:TYR:539:CA:9840, V-B:TYR:539:CD1:9844, V-B:TYR:531:CZ:9765, V-B:PRO:540:CD:9858, V-B:TYR:531:CE2:9764, V-B:LEU:363:CD1:8159, V-B:ILE:538:CD1:9836, V-B:ILE:538:CA:9831, V-B:TYR:539:CE1:9846, V-B:ILE:538:C:9829, V-B:ASP:366:CB:8182, V-A:TYR:484:CZ:4346, V-A:TYR:484:CE2:4345, V-B:ASP:366:CG:8183, V-B:MET:535:CG:9804, V-B:LEU:363:CA:8155, V-B:LEU:363:CB:8157"]

$$$$
RR32_Rahimova_2017-again1
     RDKit          3D

 38 40  0  0  0  0  0  0  0  0999 V2000
  133.9880  121.5950   61.3420 C   0  0  0  0  0  0  0  0  0  0  0  0
  132.5550  121.1570   61.6080 C   0  0  0  0  0  0  0  0  0  0  0  0
  131.6670  122.0140   62.2600 C   0  0  0  0  0  0  0  0  0  0  0  0
  130.3490  121.6120   62.4990 C   0  0  0  0  0  0  0  0  0  0  0  0
  129.4450  122.4500   63.1590 N   0  0  0  0  0  0  0  0  0  0  0  0
  129.4940  122.5930   64.6280 C   0  0  0  0  0  0  0  0  0  0  0  0
  130.4960  123.6790   65.0860 C   0  0  0  0  0  0  0  0  0  0  0  0
  130.0520  125.0340   64.5010 N   0  0  0  0  0  0  0  0  0  0  0  0
  131.0270  126.1540   64.9130 C   0  0  0  0  0  0  0  0  0  0  0  0
  129.9820  124.9100   62.9660 C   0  0  0  0  0  0  0  0  0  0  0  0
  129.0180  123.7540   62.6080 C   0  0  0  0  0  0  0  0  0  0  0  0
  129.9080  120.3760   62.1330 N   0  0  0  0  0  0  0  0  0  0  0  0
  130.7500  119.5200   61.4940 C   0  0  0  0  0  0  0  0  0  0  0  0
  130.2530  118.2500   61.1140 C   0  0  0  0  0  0  0  0  0  0  0  0
  131.0790  117.3430   60.4550 C   0  0  0  0  0  0  0  0  0  0  0  0
  132.3990  117.6720   60.1640 C   0  0  0  0  0  0  0  0  0  0  0  0
  132.9170  118.9130   60.5270 C   0  0  0  0  0  0  0  0  0  0  0  0
  132.1040  119.8660   61.2000 C   0  0  0  0  0  0  0  0  0  0  0  0
  134.5066  121.7535   62.2990 H   0  0  0  0  0  0  0  0  0  0  0  0
  134.5091  120.8151   60.7673 H   0  0  0  0  0  0  0  0  0  0  0  0
  133.9841  122.5330   60.7673 H   0  0  0  0  0  0  0  0  0  0  0  0
  132.0048  123.0085   62.5868 H   0  0  0  0  0  0  0  0  0  0  0  0
  128.4910  122.8639   64.9894 H   0  0  0  0  0  0  0  0  0  0  0  0
  129.8294  121.6322   65.0456 H   0  0  0  0  0  0  0  0  0  0  0  0
  130.5059  123.7348   66.1845 H   0  0  0  0  0  0  0  0  0  0  0  0
  131.5078  123.4302   64.7333 H   0  0  0  0  0  0  0  0  0  0  0  0
  129.1280  125.2460   64.8490 H   0  0  0  0  0  0  0  0  0  0  0  0
  131.0769  126.2114   66.0104 H   0  0  0  0  0  0  0  0  0  0  0  0
  132.0274  125.9353   64.5114 H   0  0  0  0  0  0  0  0  0  0  0  0
  130.6726  127.1148   64.5114 H   0  0  0  0  0  0  0  0  0  0  0  0
  129.6090  125.8507   62.5348 H   0  0  0  0  0  0  0  0  0  0  0  0
  130.9832  124.7042   62.5594 H   0  0  0  0  0  0  0  0  0  0  0  0
  128.0213  123.9931   63.0073 H   0  0  0  0  0  0  0  0  0  0  0  0
  129.0115  123.6603   61.5120 H   0  0  0  0  0  0  0  0  0  0  0  0
  129.2112  117.9789   61.3400 H   0  0  0  0  0  0  0  0  0  0  0  0
  130.6847  116.3587   60.1623 H   0  0  0  0  0  0  0  0  0  0  0  0
  133.0395  116.9455   59.6425 H   0  0  0  0  0  0  0  0  0  0  0  0
  133.9632  119.1578   60.2912 H   0  0  0  0  0  0  0  0  0  0  0  0
  1  2  1  0
  2  3  2  0
  3  4  1  0
  4  5  1  0
  5  6  1  0
  6  7  1  0
  7  8  1  0
  8  9  1  0
  8 10  1  0
 10 11  1  0
  4 12  2  0
 12 13  1  0
 13 14  2  0
 14 15  1  0
 15 16  2  0
 16 17  1  0
 17 18  2  0
 18  2  1  0
 11  5  1  0
 18 13  1  0
  1 19  1  0
  1 20  1  0
  1 21  1  0
  3 22  1  0
  6 23  1  0
  6 24  1  0
  7 25  1  0
  7 26  1  0
  8 27  1  0
  9 28  1  0
  9 29  1  0
  9 30  1  0
 10 31  1  0
 10 32  1  0
 11 33  1  0
 11 34  1  0
 14 35  1  0
 15 36  1  0
 16 37  1  0
 17 38  1  0
M  CHG  1   8   1
M  END
>  <Binding energies>  (1) 
[-7.08]

>  <Ligand effiencies>  (1) 
[-0.3726315789473684]

>  <Interactions>  (1) 
["V-B:GLU:543:CD:9879, V-B:ALA:541:CB:9863, H-B:GLU:543:OE2:9881, H-B:GLU:543:OE1:9880, V-B:TYR:539:C:9838, V-A:LEU:475:CD2:4258, V-A:PRO:482:CG:4326, V-A:HIS:383:CE1:3393, V-A:ILE:369:CD1:3238, V-B:TYR:539:CD2:9845, V-A:ILE:369:CG2:3236, V-B:TYR:539:CB:9842, V-A:SER:385:CA:3406, V-A:SER:385:CB:3408, V-A:PRO:482:CB:4325, V-B:GLU:543:CG:9878, V-A:TYR:484:CZ:4346, V-A:TYR:484:CE2:4345"]

$$$$
RR32_Rahimova_2017-again2
     RDKit          3D

 39 41  0  0  0  0  0  0  0  0999 V2000
  133.9840  121.5300   61.5140 C   0  0  0  0  0  0  0  0  0  0  0  0
  132.5250  121.1040   61.6140 C   0  0  0  0  0  0  0  0  0  0  0  0
  131.5810  121.9620   62.1880 C   0  0  0  0  0  0  0  0  0  0  0  0
  130.2350  121.5850   62.2940 C   0  0  0  0  0  0  0  0  0  0  0  0
  129.2210  122.4370   62.8630 N   0  0  0  0  0  0  0  0  0  0  0  0
  129.1110  122.6130   64.3350 C   0  0  0  0  0  0  0  0  0  0  0  0
  130.0710  123.7280   64.8290 C   0  0  0  0  0  0  0  0  0  0  0  0
  129.7190  125.0610   64.1250 N   0  0  0  0  0  0  0  0  0  0  0  0
  130.6890  126.1810   64.5470 C   0  0  0  0  0  0  0  0  0  0  0  0
  129.7260  124.8720   62.5890 C   0  0  0  0  0  0  0  0  0  0  0  0
  128.7810  123.6990   62.2140 C   0  0  0  0  0  0  0  0  0  0  0  0
  129.8790  120.3750   61.8180 N   0  0  0  0  0  0  0  0  0  0  0  0
  130.7350  119.4670   61.2380 C   0  0  0  0  0  0  0  0  0  0  0  0
  130.2570  118.2220   60.7720 C   0  0  0  0  0  0  0  0  0  0  0  0
  131.1520  117.3290   60.1870 C   0  0  0  0  0  0  0  0  0  0  0  0
  132.5000  117.6550   60.0610 C   0  0  0  0  0  0  0  0  0  0  0  0
  132.9860  118.8810   60.5170 C   0  0  0  0  0  0  0  0  0  0  0  0
  132.1110  119.8270   61.1220 C   0  0  0  0  0  0  0  0  0  0  0  0
  134.4006  121.6516   62.5248 H   0  0  0  0  0  0  0  0  0  0  0  0
  134.5543  120.7609   60.9725 H   0  0  0  0  0  0  0  0  0  0  0  0
  134.0508  122.4852   60.9725 H   0  0  0  0  0  0  0  0  0  0  0  0
  131.8994  122.9465   62.5615 H   0  0  0  0  0  0  0  0  0  0  0  0
  128.0768  122.8886   64.5892 H   0  0  0  0  0  0  0  0  0  0  0  0
  129.3863  121.6675   64.8251 H   0  0  0  0  0  0  0  0  0  0  0  0
  129.9639  123.8485   65.9171 H   0  0  0  0  0  0  0  0  0  0  0  0
  131.1085  123.4505   64.5913 H   0  0  0  0  0  0  0  0  0  0  0  0
  128.7790  125.3150   64.4000 H   0  0  0  0  0  0  0  0  0  0  0  0
  130.7339  126.2328   65.6449 H   0  0  0  0  0  0  0  0  0  0  0  0
  131.6918  125.9669   64.1487 H   0  0  0  0  0  0  0  0  0  0  0  0
  130.3339  127.1429   64.1487 H   0  0  0  0  0  0  0  0  0  0  0  0
  129.3770  125.7952   62.1033 H   0  0  0  0  0  0  0  0  0  0  0  0
  130.7476  124.6462   62.2494 H   0  0  0  0  0  0  0  0  0  0  0  0
  127.7601  123.9383   62.5464 H   0  0  0  0  0  0  0  0  0  0  0  0
  128.8068  123.5613   61.1230 H   0  0  0  0  0  0  0  0  0  0  0  0
  128.9060  120.1180   61.8880 H   0  0  0  0  0  0  0  0  0  0  0  0
  129.1928  117.9613   60.8697 H   0  0  0  0  0  0  0  0  0  0  0  0
  130.7903  116.3568   59.8210 H   0  0  0  0  0  0  0  0  0  0  0  0
  133.1909  116.9365   59.5958 H   0  0  0  0  0  0  0  0  0  0  0  0
  134.0545  119.1185   60.4080 H   0  0  0  0  0  0  0  0  0  0  0  0
  1  2  1  0
  2  3  2  0
  3  4  1  0
  4  5  1  0
  5  6  1  0
  6  7  1  0
  7  8  1  0
  8  9  1  0
  8 10  1  0
 10 11  1  0
  4 12  2  0
 12 13  1  0
 13 14  2  0
 14 15  1  0
 15 16  2  0
 16 17  1  0
 17 18  2  0
 18  2  1  0
 11  5  1  0
 18 13  1  0
  1 19  1  0
  1 20  1  0
  1 21  1  0
  3 22  1  0
  6 23  1  0
  6 24  1  0
  7 25  1  0
  7 26  1  0
  8 27  1  0
  9 28  1  0
  9 29  1  0
  9 30  1  0
 10 31  1  0
 10 32  1  0
 11 33  1  0
 11 34  1  0
 12 35  1  0
 14 36  1  0
 15 37  1  0
 16 38  1  0
 17 39  1  0
M  CHG  2   8   1  12   1
M  END
>  <Binding energies>  (1) 
[-7.21]

>  <Ligand effiencies>  (1) 
[-0.3605]

>  <Interactions>  (1) 
["V-B:GLU:543:CD:9879, V-B:ALA:541:CB:9863, H-B:GLU:543:OE2:9881, H-B:GLU:543:OE1:9880, V-B:TYR:539:C:9838, V-A:LEU:475:CD2:4258, V-A:PRO:482:CG:4326, V-A:HIS:383:CE1:3393, H-B:TYR:539:O:9839, V-A:ILE:369:CD1:3238, V-A:SER:385:C:3404, V-B:TYR:539:CD2:9845, V-A:ILE:369:CG2:3236, V-B:TYR:539:CB:9842, V-A:SER:385:CA:3406, V-A:SER:385:CB:3408, V-B:GLU:543:CG:9878"]

$$$$
RR33_Rahimova_2017
     RDKit          3D

 36 37  0  0  0  0  0  0  0  0999 V2000
  132.8080  125.7530   57.5480 C   0  0  0  0  0  0  0  0  0  0  0  0
  133.6500  124.6100   58.1230 C   0  0  0  0  0  0  0  0  0  0  0  0
  132.8530  123.8750   59.0480 O   0  0  0  0  0  0  0  0  0  0  0  0
  132.7790  124.2940   60.3620 C   0  0  0  0  0  0  0  0  0  0  0  0
  133.8640  123.9740   61.1780 C   0  0  0  0  0  0  0  0  0  0  0  0
  133.8770  124.3510   62.5180 C   0  0  0  0  0  0  0  0  0  0  0  0
  132.8010  125.0580   63.0630 C   0  0  0  0  0  0  0  0  0  0  0  0
  132.8170  125.4620   64.5030 C   0  0  0  0  0  0  0  0  0  0  0  0
  131.8220  125.9520   65.2090 N   0  0  0  0  0  0  0  0  0  0  0  0
  132.3190  126.1500   66.4210 C   0  0  0  0  0  0  0  0  0  0  0  0
  131.4560  126.7040   67.5340 C   0  0  0  0  0  0  0  0  0  0  0  0
  130.0520  126.3990   67.2960 N   0  0  0  0  0  0  0  0  0  0  0  0
  129.5530  125.4690   68.2950 C   0  0  0  0  0  0  0  0  0  0  0  0
  133.6540  125.7680   66.4460 C   0  0  0  0  0  0  0  0  0  0  0  0
  134.7430  125.7410   67.4910 C   0  0  0  0  0  0  0  0  0  0  0  0
  133.9700  125.3260   65.2070 O   0  0  0  0  0  0  0  0  0  0  0  0
  131.7140  125.3850   62.2480 C   0  0  0  0  0  0  0  0  0  0  0  0
  131.6990  125.0060   60.9070 C   0  0  0  0  0  0  0  0  0  0  0  0
  132.3755  126.3401   58.3716 H   0  0  0  0  0  0  0  0  0  0  0  0
  133.4450  126.4026   56.9297 H   0  0  0  0  0  0  0  0  0  0  0  0
  131.9988  125.3372   56.9297 H   0  0  0  0  0  0  0  0  0  0  0  0
  133.9787  123.9469   57.3092 H   0  0  0  0  0  0  0  0  0  0  0  0
  134.5358  125.0171   58.6327 H   0  0  0  0  0  0  0  0  0  0  0  0
  134.7165  123.4191   60.7592 H   0  0  0  0  0  0  0  0  0  0  0  0
  134.7382  124.0913   63.1512 H   0  0  0  0  0  0  0  0  0  0  0  0
  131.7663  126.2552   68.4892 H   0  0  0  0  0  0  0  0  0  0  0  0
  131.5802  127.7964   67.5679 H   0  0  0  0  0  0  0  0  0  0  0  0
  129.9530  125.9820   66.3810 H   0  0  0  0  0  0  0  0  0  0  0  0
  129.7642  125.8626   69.3002 H   0  0  0  0  0  0  0  0  0  0  0  0
  128.4671  125.3449   68.1705 H   0  0  0  0  0  0  0  0  0  0  0  0
  130.0500  124.4956   68.1705 H   0  0  0  0  0  0  0  0  0  0  0  0
  134.2898  125.7522   68.4932 H   0  0  0  0  0  0  0  0  0  0  0  0
  135.3441  124.8277   67.3706 H   0  0  0  0  0  0  0  0  0  0  0  0
  135.3886  126.6234   67.3706 H   0  0  0  0  0  0  0  0  0  0  0  0
  130.8651  125.9449   62.6674 H   0  0  0  0  0  0  0  0  0  0  0  0
  130.8380  125.2657   60.2735 H   0  0  0  0  0  0  0  0  0  0  0  0
  1  2  1  0
  2  3  1  0
  3  4  1  0
  4  5  2  0
  5  6  1  0
  6  7  2  0
  7  8  1  0
  8  9  2  0
  9 10  1  0
 10 11  1  0
 11 12  1  0
 12 13  1  0
 10 14  2  0
 14 15  1  0
 14 16  1  0
  7 17  1  0
 17 18  2  0
 18  4  1  0
 16  8  1  0
  1 19  1  0
  1 20  1  0
  1 21  1  0
  2 22  1  0
  2 23  1  0
  5 24  1  0
  6 25  1  0
 11 26  1  0
 11 27  1  0
 12 28  1  0
 13 29  1  0
 13 30  1  0
 13 31  1  0
 15 32  1  0
 15 33  1  0
 15 34  1  0
 17 35  1  0
 18 36  1  0
M  END
>  <Binding energies>  (1) 
[-5.27]

>  <Ligand effiencies>  (1) 
[-0.27736842105263154]

>  <Interactions>  (1) 
["V-A:ASP:366:CG:3212, V-A:ASP:366:CB:3211, V-B:GLU:543:CD:9879, H-A:TYR:484:OH:4347, H-B:GLU:543:OE2:9881, V-A:ILE:369:CD1:3238, V-A:ILE:369:CG2:3236, V-B:TYR:539:CE2:9847, H-B:TYR:539:OH:9849, V-B:TYR:539:CZ:9848, V-B:GLU:543:CG:9878, H-A:GLY:454:N:4049, V-A:ARG:545:CD:4922, V-A:ARG:545:CZ:4925, V-A:ARG:545:CG:4921, V-A:HIS:456:CE1:4069, V-B:GLU:543:CB:9877, H-A:ARG:545:NE:4923, V-A:TYR:484:CZ:4346, V-A:TYR:484:CE2:4345, V-A:ILE:369:CB:3235, V-A:ASP:366:CA:3209, V-A:ASP:366:C:3207, V-A:ILE:455:C:4051, V-A:ARG:545:CB:4920"]

$$$$
RR33_Rahimova_2017-again1
     RDKit          3D

 37 38  0  0  0  0  0  0  0  0999 V2000
  132.8680  118.2490   58.9110 C   0  0  0  0  0  0  0  0  0  0  0  0
  132.7280  119.0070   60.2350 C   0  0  0  0  0  0  0  0  0  0  0  0
  133.2540  120.3200   60.0700 O   0  0  0  0  0  0  0  0  0  0  0  0
  133.1110  121.2420   61.0900 C   0  0  0  0  0  0  0  0  0  0  0  0
  132.6950  122.5210   60.7190 C   0  0  0  0  0  0  0  0  0  0  0  0
  132.5210  123.5160   61.6770 C   0  0  0  0  0  0  0  0  0  0  0  0
  132.7650  123.2440   63.0270 C   0  0  0  0  0  0  0  0  0  0  0  0
  132.5790  124.3100   64.0590 C   0  0  0  0  0  0  0  0  0  0  0  0
  131.5130  125.0520   64.2640 N   0  0  0  0  0  0  0  0  0  0  0  0
  131.8230  125.8430   65.2800 C   0  0  0  0  0  0  0  0  0  0  0  0
  130.8360  126.8650   65.8080 C   0  0  0  0  0  0  0  0  0  0  0  0
  129.6330  126.9430   64.8540 N   0  0  0  0  0  0  0  0  0  0  0  0
  129.7920  127.9970   63.7490 C   0  0  0  0  0  0  0  0  0  0  0  0
  133.1220  125.5750   65.6950 C   0  0  0  0  0  0  0  0  0  0  0  0
  134.0420  126.1150   66.7620 C   0  0  0  0  0  0  0  0  0  0  0  0
  133.6030  124.5850   64.9070 O   0  0  0  0  0  0  0  0  0  0  0  0
  133.1820  121.9630   63.4030 C   0  0  0  0  0  0  0  0  0  0  0  0
  133.3540  120.9680   62.4440 C   0  0  0  0  0  0  0  0  0  0  0  0
  133.0643  117.1862   59.1159 H   0  0  0  0  0  0  0  0  0  0  0  0
  131.9369  118.3451   58.3332 H   0  0  0  0  0  0  0  0  0  0  0  0
  133.7033  118.6714   58.3332 H   0  0  0  0  0  0  0  0  0  0  0  0
  131.6663  119.0667   60.5163 H   0  0  0  0  0  0  0  0  0  0  0  0
  133.2799  118.4802   61.0274 H   0  0  0  0  0  0  0  0  0  0  0  0
  132.5027  122.7453   59.6594 H   0  0  0  0  0  0  0  0  0  0  0  0
  132.1905  124.5196   61.3711 H   0  0  0  0  0  0  0  0  0  0  0  0
  130.4934  126.5632   66.8088 H   0  0  0  0  0  0  0  0  0  0  0  0
  131.3217  127.8498   65.8728 H   0  0  0  0  0  0  0  0  0  0  0  0
  129.4960  126.0390   64.4270 H   0  0  0  0  0  0  0  0  0  0  0  0
  128.8070  127.1600   65.3940 H   0  0  0  0  0  0  0  0  0  0  0  0
  129.9413  128.9868   64.2051 H   0  0  0  0  0  0  0  0  0  0  0  0
  130.6624  127.7457   63.1251 H   0  0  0  0  0  0  0  0  0  0  0  0
  128.8862  128.0137   63.1251 H   0  0  0  0  0  0  0  0  0  0  0  0
  133.6331  125.8750   67.7546 H   0  0  0  0  0  0  0  0  0  0  0  0
  135.0365  125.6573   66.6547 H   0  0  0  0  0  0  0  0  0  0  0  0
  134.1272  127.2064   66.6547 H   0  0  0  0  0  0  0  0  0  0  0  0
  133.3753  121.7401   64.4627 H   0  0  0  0  0  0  0  0  0  0  0  0
  133.6817  119.9634   62.7495 H   0  0  0  0  0  0  0  0  0  0  0  0
  1  2  1  0
  2  3  1  0
  3  4  1  0
  4  5  2  0
  5  6  1  0
  6  7  2  0
  7  8  1  0
  8  9  2  0
  9 10  1  0
 10 11  1  0
 11 12  1  0
 12 13  1  0
 10 14  2  0
 14 15  1  0
 14 16  1  0
  7 17  1  0
 17 18  2  0
 18  4  1  0
 16  8  1  0
  1 19  1  0
  1 20  1  0
  1 21  1  0
  2 22  1  0
  2 23  1  0
  5 24  1  0
  6 25  1  0
 11 26  1  0
 11 27  1  0
 12 28  1  0
 12 29  1  0
 13 30  1  0
 13 31  1  0
 13 32  1  0
 15 33  1  0
 15 34  1  0
 15 35  1  0
 17 36  1  0
 18 37  1  0
M  CHG  1  12   1
M  END
>  <Binding energies>  (1) 
[-6.48]

>  <Ligand effiencies>  (1) 
[-0.324]

>  <Interactions>  (1) 
["V-B:GLU:543:CD:9879, H-A:TYR:484:OH:4347, H-B:GLU:543:OE2:9881, H-B:GLU:543:OE1:9880, V-A:LEU:475:CD2:4258, V-A:SER:385:C:3404, V-B:TYR:539:CD2:9845, V-A:ILE:369:CG2:3236, V-B:TYR:539:CE2:9847, V-B:TYR:539:CB:9842, V-A:SER:385:CA:3406, V-A:SER:385:CB:3408, V-A:GLY:454:CA:4048, V-A:LEU:373:CD1:3279, V-B:TYR:539:CG:9843, H-A:GLY:454:N:4049, V-A:ARG:545:CD:4922, V-A:ARG:545:CZ:4925, V-A:ARG:545:CG:4921, V-A:GLU:543:CD:4907, V-A:LEU:373:CG:3278, V-A:LEU:373:CD2:3280"]

$$$$
RR3_Rahimova_2017
     RDKit          3D

 63 69  0  0  0  0  0  0  0  0999 V2000
  131.3250  133.6120   55.7230 C   0  0  0  0  0  0  0  0  0  0  0  0
  129.9870  133.2330   55.7570 C   0  0  0  0  0  0  0  0  0  0  0  0
  129.5020  132.5090   56.8430 C   0  0  0  0  0  0  0  0  0  0  0  0
  130.3460  132.1570   57.9070 C   0  0  0  0  0  0  0  0  0  0  0  0
  129.8230  131.3800   59.0750 C   0  0  0  0  0  0  0  0  0  0  0  0
  130.6920  130.8700   60.0480 C   0  0  0  0  0  0  0  0  0  0  0  0
  130.2060  130.1440   61.1320 C   0  0  0  0  0  0  0  0  0  0  0  0
  128.8350  129.9050   61.2640 C   0  0  0  0  0  0  0  0  0  0  0  0
  128.3060  129.1210   62.4240 C   0  0  0  0  0  0  0  0  0  0  0  0
  128.4030  129.6100   63.6550 N   0  0  0  0  0  0  0  0  0  0  0  0
  127.8240  128.7420   64.4490 C   0  0  0  0  0  0  0  0  0  0  0  0
  127.7010  128.8780   65.8980 C   0  0  0  0  0  0  0  0  0  0  0  0
  126.6800  129.5340   66.5660 C   0  0  0  0  0  0  0  0  0  0  0  0
  126.8760  129.4590   67.9200 N   0  0  0  0  0  0  0  0  0  0  0  0
  128.0300  128.7560   68.1880 C   0  0  0  0  0  0  0  0  0  0  0  0
  128.6350  128.4240   69.4050 C   0  0  0  0  0  0  0  0  0  0  0  0
  129.8200  127.6910   69.3440 C   0  0  0  0  0  0  0  0  0  0  0  0
  130.3820  127.3040   68.1320 C   0  0  0  0  0  0  0  0  0  0  0  0
  129.7790  127.6340   66.9190 C   0  0  0  0  0  0  0  0  0  0  0  0
  128.5820  128.3730   66.9250 C   0  0  0  0  0  0  0  0  0  0  0  0
  127.3500  127.6720   63.7420 N   0  0  0  0  0  0  0  0  0  0  0  0
  127.6650  127.8710   62.4220 C   0  0  0  0  0  0  0  0  0  0  0  0
  127.3550  126.8730   61.3550 C   0  0  0  0  0  0  0  0  0  0  0  0
  127.9240  127.0030   60.0880 C   0  0  0  0  0  0  0  0  0  0  0  0
  127.6280  126.0830   59.0870 C   0  0  0  0  0  0  0  0  0  0  0  0
  126.7590  125.0090   59.3300 C   0  0  0  0  0  0  0  0  0  0  0  0
  126.4270  124.0320   58.2470 C   0  0  0  0  0  0  0  0  0  0  0  0
  127.4360  123.2860   57.6170 C   0  0  0  0  0  0  0  0  0  0  0  0
  127.1250  122.3740   56.6110 C   0  0  0  0  0  0  0  0  0  0  0  0
  125.8010  122.1970   56.2240 C   0  0  0  0  0  0  0  0  0  0  0  0
  124.7860  122.9250   56.8360 C   0  0  0  0  0  0  0  0  0  0  0  0
  125.0990  123.8370   57.8400 C   0  0  0  0  0  0  0  0  0  0  0  0
  126.2070  124.8800   60.6130 C   0  0  0  0  0  0  0  0  0  0  0  0
  126.5020  125.7990   61.6160 C   0  0  0  0  0  0  0  0  0  0  0  0
  127.9600  130.4210   60.3060 C   0  0  0  0  0  0  0  0  0  0  0  0
  128.4490  131.1450   59.2230 C   0  0  0  0  0  0  0  0  0  0  0  0
  131.6910  132.5490   57.8510 C   0  0  0  0  0  0  0  0  0  0  0  0
  132.1800  133.2730   56.7670 C   0  0  0  0  0  0  0  0  0  0  0  0
  131.7095  134.1833   54.8653 H   0  0  0  0  0  0  0  0  0  0  0  0
  129.3149  133.5041   54.9294 H   0  0  0  0  0  0  0  0  0  0  0  0
  128.4439  132.2093   56.8670 H   0  0  0  0  0  0  0  0  0  0  0  0
  131.7738  131.0456   59.9543 H   0  0  0  0  0  0  0  0  0  0  0  0
  130.9044  129.7565   61.8884 H   0  0  0  0  0  0  0  0  0  0  0  0
  125.8341  130.0418   66.0796 H   0  0  0  0  0  0  0  0  0  0  0  0
  126.2390  129.8740   68.5840 H   0  0  0  0  0  0  0  0  0  0  0  0
  128.1958  128.7274   70.3668 H   0  0  0  0  0  0  0  0  0  0  0  0
  130.3243  127.4111   70.2807 H   0  0  0  0  0  0  0  0  0  0  0  0
  131.3188  126.7274   68.1305 H   0  0  0  0  0  0  0  0  0  0  0  0
  130.2341  127.3201   65.9680 H   0  0  0  0  0  0  0  0  0  0  0  0
  126.8780  126.8660   64.1260 H   0  0  0  0  0  0  0  0  0  0  0  0
  128.6101  127.8370   59.8792 H   0  0  0  0  0  0  0  0  0  0  0  0
  128.0816  126.1995   58.0917 H   0  0  0  0  0  0  0  0  0  0  0  0
  128.4841  123.4233   57.9213 H   0  0  0  0  0  0  0  0  0  0  0  0
  127.9241  121.7957   56.1243 H   0  0  0  0  0  0  0  0  0  0  0  0
  125.5551  121.4772   55.4294 H   0  0  0  0  0  0  0  0  0  0  0  0
  123.7400  122.7806   56.5278 H   0  0  0  0  0  0  0  0  0  0  0  0
  124.2941  124.4124   58.3206 H   0  0  0  0  0  0  0  0  0  0  0  0
  125.5308  124.0399   60.8298 H   0  0  0  0  0  0  0  0  0  0  0  0
  126.0619  125.6787   62.6169 H   0  0  0  0  0  0  0  0  0  0  0  0
  126.8775  130.2541   60.4081 H   0  0  0  0  0  0  0  0  0  0  0  0
  127.7476  131.5384   58.4725 H   0  0  0  0  0  0  0  0  0  0  0  0
  132.3690  132.2809   58.6747 H   0  0  0  0  0  0  0  0  0  0  0  0
  133.2371  133.5755   56.7361 H   0  0  0  0  0  0  0  0  0  0  0  0
  1  2  2  0
  2  3  1  0
  3  4  2  0
  4  5  1  0
  5  6  2  0
  6  7  1  0
  7  8  2  0
  8  9  1  0
  9 10  1  0
 10 11  2  0
 11 12  1  0
 12 13  2  0
 13 14  1  0
 14 15  1  0
 15 16  2  0
 16 17  1  0
 17 18  2  0
 18 19  1  0
 19 20  2  0
 11 21  1  0
 21 22  1  0
 22 23  1  0
 23 24  2  0
 24 25  1  0
 25 26  2  0
 26 27  1  0
 27 28  2  0
 28 29  1  0
 29 30  2  0
 30 31  1  0
 31 32  2  0
 26 33  1  0
 33 34  2  0
  8 35  1  0
 35 36  2  0
  4 37  1  0
 37 38  2  0
 38  1  1  0
 36  5  1  0
 22  9  2  0
 34 23  1  0
 20 12  1  0
 32 27  1  0
 20 15  1  0
  1 39  1  0
  2 40  1  0
  3 41  1  0
  6 42  1  0
  7 43  1  0
 13 44  1  0
 14 45  1  0
 16 46  1  0
 17 47  1  0
 18 48  1  0
 19 49  1  0
 21 50  1  0
 24 51  1  0
 25 52  1  0
 28 53  1  0
 29 54  1  0
 30 55  1  0
 31 56  1  0
 32 57  1  0
 33 58  1  0
 34 59  1  0
 35 60  1  0
 36 61  1  0
 37 62  1  0
 38 63  1  0
M  END
>  <Binding energies>  (1) 
[-10.55]

>  <Ligand effiencies>  (1) 
[-0.26375000000000004]

>  <Interactions>  (1) 
["V-A:PRO:540:CB:4884, V-A:TYR:539:CE1:4874, V-A:TYR:539:CD1:4872, V-A:PRO:540:CA:4882, V-A:TYR:531:CE2:4792, V-A:ILE:538:CA:4859, V-A:LEU:363:CD1:3188, V-B:GLU:543:CD:9879, V-B:PRO:540:N:9855, H-B:GLU:543:OE2:9881, H-B:GLU:543:OE1:9880, V-B:TYR:539:C:9838, V-B:TYR:539:CG:9843, V-B:MET:535:CE:9806, V-B:PRO:540:CB:9856, V-B:TYR:539:CA:9840, V-B:TYR:539:CD1:9844, V-B:PRO:540:CD:9858, V-B:TYR:531:CE2:9764, V-B:LEU:363:CD1:8159, V-A:HIS:456:CE1:4069, V-B:ILE:538:CG2:9834, V-A:GLU:543:CD:4907, V-B:HIS:456:CE1:9040, V-B:TYR:484:CZ:9317, V-A:ILE:538:CB:4861, V-A:ILE:538:CG2:4862, V-B:ILE:538:CA:9831, H-B:TYR:484:OH:9318, V-A:PRO:540:N:4883, V-A:PRO:540:CD:4886, V-B:TYR:484:CE2:9316"]

$$$$
RR4_Rahimova_2017
     RDKit          3D

 66 70  0  0  0  0  0  0  0  0999 V2000
  125.7630  122.0010   55.8140 C   0  0  0  0  0  0  0  0  0  0  0  0
  125.7280  122.4630   57.1600 O   0  0  0  0  0  0  0  0  0  0  0  0
  125.4710  123.7980   57.4080 C   0  0  0  0  0  0  0  0  0  0  0  0
  126.5790  124.6300   57.5570 C   0  0  0  0  0  0  0  0  0  0  0  0
  126.4170  125.9880   57.8090 C   0  0  0  0  0  0  0  0  0  0  0  0
  125.1400  126.5570   57.9210 C   0  0  0  0  0  0  0  0  0  0  0  0
  124.9690  128.0240   58.1940 C   0  0  0  0  0  0  0  0  0  0  0  0
  125.1110  128.5790   59.4690 C   0  0  0  0  0  0  0  0  0  0  0  0
  124.9450  129.9560   59.6720 C   0  0  0  0  0  0  0  0  0  0  0  0
  125.1400  130.4810   61.0570 C   0  0  0  0  0  0  0  0  0  0  0  0
  126.3080  131.1760   61.3860 C   0  0  0  0  0  0  0  0  0  0  0  0
  126.4920  131.6790   62.6710 C   0  0  0  0  0  0  0  0  0  0  0  0
  125.5130  131.5030   63.6480 C   0  0  0  0  0  0  0  0  0  0  0  0
  125.7830  132.0370   64.8940 O   0  0  0  0  0  0  0  0  0  0  0  0
  127.1340  132.1170   65.3380 C   0  0  0  0  0  0  0  0  0  0  0  0
  124.3380  130.8110   63.3210 C   0  0  0  0  0  0  0  0  0  0  0  0
  124.1550  130.3090   62.0350 C   0  0  0  0  0  0  0  0  0  0  0  0
  124.6030  130.7650   58.5600 C   0  0  0  0  0  0  0  0  0  0  0  0
  124.4190  132.2110   58.7160 C   0  0  0  0  0  0  0  0  0  0  0  0
  124.2730  133.3520   58.8390 N   0  0  0  0  0  0  0  0  0  0  0  0
  124.4460  130.1330   57.3050 C   0  0  0  0  0  0  0  0  0  0  0  0
  124.0070  130.9880   55.8070 S   0  0  0  0  0  0  0  0  0  0  0  0
  125.2870  130.6200   54.5610 C   0  0  0  0  0  0  0  0  0  0  0  0
  126.6980  130.4290   55.1330 C   0  0  0  0  0  0  0  0  0  0  0  0
  127.3400  129.4050   54.8880 O   0  0  0  0  0  0  0  0  0  0  0  0
  127.1360  131.4460   55.9100 N   0  0  0  0  0  0  0  0  0  0  0  0
  128.3630  131.5720   56.5660 C   0  0  0  0  0  0  0  0  0  0  0  0
  128.7020  130.8100   58.0970 S   0  0  0  0  0  0  0  0  0  0  0  0
  130.3080  131.4700   58.1340 C   0  0  0  0  0  0  0  0  0  0  0  0
  130.5690  132.2560   57.0000 C   0  0  0  0  0  0  0  0  0  0  0  0
  129.4720  132.2990   56.1060 C   0  0  0  0  0  0  0  0  0  0  0  0
  129.4920  133.0320   54.8440 C   0  0  0  0  0  0  0  0  0  0  0  0
  129.5080  133.6130   53.8430 N   0  0  0  0  0  0  0  0  0  0  0  0
  131.9340  132.9180   56.7800 C   0  0  0  0  0  0  0  0  0  0  0  0
  133.0020  132.2860   57.7010 C   0  0  0  0  0  0  0  0  0  0  0  0
  132.5000  132.1250   59.1460 C   0  0  0  0  0  0  0  0  0  0  0  0
  131.3060  131.1530   59.2400 C   0  0  0  0  0  0  0  0  0  0  0  0
  124.6430  128.8050   57.1320 N   0  0  0  0  0  0  0  0  0  0  0  0
  124.0300  125.7110   57.7660 C   0  0  0  0  0  0  0  0  0  0  0  0
  124.1880  124.3510   57.5150 C   0  0  0  0  0  0  0  0  0  0  0  0
  125.8461  120.9042   55.8049 H   0  0  0  0  0  0  0  0  0  0  0  0
  124.8394  122.3031   55.2985 H   0  0  0  0  0  0  0  0  0  0  0  0
  126.6306  122.4388   55.2985 H   0  0  0  0  0  0  0  0  0  0  0  0
  127.5916  124.2084   57.4745 H   0  0  0  0  0  0  0  0  0  0  0  0
  127.3054  126.6267   57.9224 H   0  0  0  0  0  0  0  0  0  0  0  0
  125.3555  127.9286   60.3217 H   0  0  0  0  0  0  0  0  0  0  0  0
  127.0870  131.3263   60.6240 H   0  0  0  0  0  0  0  0  0  0  0  0
  127.4176  132.2199   62.9176 H   0  0  0  0  0  0  0  0  0  0  0  0
  127.1591  132.1185   66.4377 H   0  0  0  0  0  0  0  0  0  0  0  0
  127.6962  131.2506   64.9596 H   0  0  0  0  0  0  0  0  0  0  0  0
  127.5901  133.0437   64.9596 H   0  0  0  0  0  0  0  0  0  0  0  0
  123.5582  130.6642   64.0829 H   0  0  0  0  0  0  0  0  0  0  0  0
  123.2275  129.7724   61.7861 H   0  0  0  0  0  0  0  0  0  0  0  0
  125.0008  129.6958   54.0375 H   0  0  0  0  0  0  0  0  0  0  0  0
  125.3357  131.4948   53.8958 H   0  0  0  0  0  0  0  0  0  0  0  0
  126.5080  132.2280   56.0290 H   0  0  0  0  0  0  0  0  0  0  0  0
  132.2361  132.7828   55.7310 H   0  0  0  0  0  0  0  0  0  0  0  0
  131.8504  133.9887   57.0180 H   0  0  0  0  0  0  0  0  0  0  0  0
  133.2689  131.2947   57.3060 H   0  0  0  0  0  0  0  0  0  0  0  0
  133.8733  132.9572   57.7186 H   0  0  0  0  0  0  0  0  0  0  0  0
  133.3221  131.7382   59.7661 H   0  0  0  0  0  0  0  0  0  0  0  0
  132.1633  133.1107   59.4997 H   0  0  0  0  0  0  0  0  0  0  0  0
  131.6643  130.1193   59.1259 H   0  0  0  0  0  0  0  0  0  0  0  0
  130.8174  131.2645   60.2192 H   0  0  0  0  0  0  0  0  0  0  0  0
  123.0164  126.1310   57.8444 H   0  0  0  0  0  0  0  0  0  0  0  0
  123.3027  123.7083   57.4003 H   0  0  0  0  0  0  0  0  0  0  0  0
  1  2  1  0
  2  3  1  0
  3  4  2  0
  4  5  1  0
  5  6  2  0
  6  7  1  0
  7  8  2  0
  8  9  1  0
  9 10  1  0
 10 11  2  0
 11 12  1  0
 12 13  2  0
 13 14  1  0
 14 15  1  0
 13 16  1  0
 16 17  2  0
  9 18  2  0
 18 19  1  0
 19 20  3  0
 18 21  1  0
 21 22  1  0
 22 23  1  0
 23 24  1  0
 24 25  2  0
 24 26  1  0
 26 27  1  0
 27 28  1  0
 28 29  1  0
 29 30  2  0
 30 31  1  0
 31 32  1  0
 32 33  3  0
 30 34  1  0
 34 35  1  0
 35 36  1  0
 36 37  1  0
 21 38  2  0
  6 39  1  0
 39 40  2  0
 40  3  1  0
 38  7  1  0
 17 10  1  0
 31 27  2  0
 37 29  1  0
  1 41  1  0
  1 42  1  0
  1 43  1  0
  4 44  1  0
  5 45  1  0
  8 46  1  0
 11 47  1  0
 12 48  1  0
 15 49  1  0
 15 50  1  0
 15 51  1  0
 16 52  1  0
 17 53  1  0
 23 54  1  0
 23 55  1  0
 26 56  1  0
 34 57  1  0
 34 58  1  0
 35 59  1  0
 35 60  1  0
 36 61  1  0
 36 62  1  0
 37 63  1  0
 37 64  1  0
 39 65  1  0
 40 66  1  0
M  END
>  <Binding energies>  (1) 
[-9.84]

>  <Ligand effiencies>  (1) 
[-0.24]

>  <Interactions>  (1) 
["V-A:LEU:363:CA:3184, V-A:TYR:539:CZ:4876, V-A:PRO:540:CB:4884, V-A:TYR:539:CE1:4874, V-A:PRO:540:CA:4882, V-A:TYR:531:CE2:4792, V-A:ILE:538:CA:4859, V-A:LEU:363:CD1:3188, V-B:PRO:540:N:9855, V-B:MET:535:CE:9806, V-B:TYR:531:CZ:9765, V-B:PRO:540:CD:9858, V-B:TYR:531:CE2:9764, V-B:LEU:363:CD1:8159, V-B:ILE:538:CD1:9836, V-B:ILE:538:CG2:9834, V-B:ILE:538:CA:9831, V-B:ILE:538:C:9829, V-B:ILE:538:CB:9833, V-B:ASP:366:CB:8182, H-B:TYR:484:OH:9318, H-B:TYR:531:OH:9766, V-A:PRO:540:N:4883, V-B:ASP:366:CG:8183, V-A:MET:535:CG:4832, V-B:TYR:531:CE1:9763, H-A:TYR:539:OH:4877, V-B:LEU:475:CD1:9228, V-B:ILE:369:CG2:8207, V-B:ILE:369:CB:8206"]

$$$$
RR5_Rahimova_2017
     RDKit          3D

 77 82  0  0  0  0  0  0  0  0999 V2000
  128.7010  126.0620   57.4340 O   0  0  0  0  0  0  0  0  0  0  0  0
  128.8650  125.6520   58.5820 C   0  0  0  0  0  0  0  0  0  0  0  0
  130.2660  125.7080   59.2210 C   0  0  0  0  0  0  0  0  0  0  0  0
  131.2270  126.7600   58.5600 C   0  0  2  0  0  0  0  0  0  0  0  0
  130.5750  128.0100   58.1190 N   0  0  0  0  0  0  0  0  0  0  0  0
  129.9030  128.8330   59.0120 C   0  0  0  0  0  0  0  0  0  0  0  0
  129.8030  128.6720   60.2300 O   0  0  0  0  0  0  0  0  0  0  0  0
  129.3540  129.8470   58.3210 O   0  0  0  0  0  0  0  0  0  0  0  0
  128.7640  130.9630   58.9820 C   0  0  0  0  0  0  0  0  0  0  0  0
  129.7190  132.1780   58.9670 C   0  0  0  0  0  0  0  0  0  0  0  0
  131.0420  131.9210   59.6660 C   0  0  0  0  0  0  0  0  0  0  0  0
  131.2890  131.5310   60.9860 C   0  0  0  0  0  0  0  0  0  0  0  0
  132.6010  131.3280   61.4160 C   0  0  0  0  0  0  0  0  0  0  0  0
  133.6660  131.5150   60.5330 C   0  0  0  0  0  0  0  0  0  0  0  0
  133.4210  131.9070   59.2150 C   0  0  0  0  0  0  0  0  0  0  0  0
  132.1080  132.1100   58.7870 C   0  0  0  0  0  0  0  0  0  0  0  0
  131.5690  132.5250   57.4830 C   0  0  0  0  0  0  0  0  0  0  0  0
  132.2080  132.8480   56.2840 C   0  0  0  0  0  0  0  0  0  0  0  0
  131.4490  133.2400   55.1800 C   0  0  0  0  0  0  0  0  0  0  0  0
  130.0570  133.3050   55.2750 C   0  0  0  0  0  0  0  0  0  0  0  0
  129.4220  132.9770   56.4730 C   0  0  0  0  0  0  0  0  0  0  0  0
  130.1780  132.5820   57.5790 C   0  0  0  0  0  0  0  0  0  0  0  0
  132.0000  126.1290   57.3750 C   0  0  0  0  0  0  0  0  0  0  0  0
  132.9710  125.4080   57.4880 O   0  0  0  0  0  0  0  0  0  0  0  0
  131.4120  126.4920   56.1980 O   0  0  0  0  0  0  0  0  0  0  0  0
  127.8830  125.1670   59.3760 N   0  0  0  0  0  0  0  0  0  0  0  0
  126.4200  124.9420   59.1780 C   0  0  0  0  0  0  0  0  0  0  0  0
  125.9100  126.3820   58.8350 C   0  0  0  0  0  0  0  0  0  0  0  0
  125.0460  126.6160   57.7530 C   0  0  0  0  0  0  0  0  0  0  0  0
  124.5980  127.9010   57.4580 C   0  0  0  0  0  0  0  0  0  0  0  0
  125.0160  128.9760   58.2360 C   0  0  0  0  0  0  0  0  0  0  0  0
  125.8690  128.7740   59.3140 C   0  0  0  0  0  0  0  0  0  0  0  0
  126.3080  127.4880   59.6140 C   0  0  0  0  0  0  0  0  0  0  0  0
  126.2580  123.9460   57.9810 C   0  0  0  0  0  0  0  0  0  0  0  0
  125.0040  123.6720   57.4130 C   0  0  0  0  0  0  0  0  0  0  0  0
  124.8810  122.7670   56.3610 C   0  0  0  0  0  0  0  0  0  0  0  0
  126.0100  122.1230   55.8660 C   0  0  0  0  0  0  0  0  0  0  0  0
  127.2640  122.3810   56.4090 C   0  0  0  0  0  0  0  0  0  0  0  0
  127.3860  123.2920   57.4540 C   0  0  0  0  0  0  0  0  0  0  0  0
  125.8730  124.4120   60.5460 C   0  0  0  0  0  0  0  0  0  0  0  0
  124.5690  123.8950   60.6530 C   0  0  0  0  0  0  0  0  0  0  0  0
  124.0740  123.4300   61.8690 C   0  0  0  0  0  0  0  0  0  0  0  0
  124.8790  123.4680   63.0010 C   0  0  0  0  0  0  0  0  0  0  0  0
  126.1770  123.9610   62.9240 C   0  0  0  0  0  0  0  0  0  0  0  0
  126.6670  124.4250   61.7070 C   0  0  0  0  0  0  0  0  0  0  0  0
  130.1513  125.9643   60.2845 H   0  0  0  0  0  0  0  0  0  0  0  0
  130.7244  124.7193   59.0711 H   0  0  0  0  0  0  0  0  0  0  0  0
  131.9202  127.0488   59.3638 H   0  0  0  0  0  0  0  0  0  0  0  0
  130.4740  128.1720   57.1280 H   0  0  0  0  0  0  0  0  0  0  0  0
  127.8291  131.2329   58.4691 H   0  0  0  0  0  0  0  0  0  0  0  0
  128.5615  130.6868   60.0273 H   0  0  0  0  0  0  0  0  0  0  0  0
  129.1017  132.9429   59.4610 H   0  0  0  0  0  0  0  0  0  0  0  0
  130.4512  131.3846   61.6836 H   0  0  0  0  0  0  0  0  0  0  0  0
  132.7966  131.0198   62.4537 H   0  0  0  0  0  0  0  0  0  0  0  0
  134.6988  131.3535   60.8755 H   0  0  0  0  0  0  0  0  0  0  0  0
  134.2587  132.0550   58.5176 H   0  0  0  0  0  0  0  0  0  0  0  0
  133.3042  132.7938   56.2099 H   0  0  0  0  0  0  0  0  0  0  0  0
  131.9477  133.4980   54.2341 H   0  0  0  0  0  0  0  0  0  0  0  0
  129.4608  133.6152   54.4042 H   0  0  0  0  0  0  0  0  0  0  0  0
  128.3257  133.0295   56.5466 H   0  0  0  0  0  0  0  0  0  0  0  0
  130.4610  126.3630   56.2110 H   0  0  0  0  0  0  0  0  0  0  0  0
  128.2120  124.7850   60.2500 H   0  0  0  0  0  0  0  0  0  0  0  0
  124.7182  125.7715   57.1291 H   0  0  0  0  0  0  0  0  0  0  0  0
  123.9150  128.0658   56.6116 H   0  0  0  0  0  0  0  0  0  0  0  0
  124.6691  129.9920   57.9962 H   0  0  0  0  0  0  0  0  0  0  0  0
  126.1958  129.6266   59.9274 H   0  0  0  0  0  0  0  0  0  0  0  0
  126.9767  127.3316   60.4733 H   0  0  0  0  0  0  0  0  0  0  0  0
  124.1083  124.1776   57.8029 H   0  0  0  0  0  0  0  0  0  0  0  0
  123.8931  122.5622   55.9228 H   0  0  0  0  0  0  0  0  0  0  0  0
  125.9103  121.4045   55.0391 H   0  0  0  0  0  0  0  0  0  0  0  0
  128.1539  121.8683   56.0150 H   0  0  0  0  0  0  0  0  0  0  0  0
  128.3802  123.5038   57.8743 H   0  0  0  0  0  0  0  0  0  0  0  0
  123.9284  123.8573   59.7596 H   0  0  0  0  0  0  0  0  0  0  0  0
  123.0497  123.0342   61.9330 H   0  0  0  0  0  0  0  0  0  0  0  0
  124.4874  123.1062   63.9632 H   0  0  0  0  0  0  0  0  0  0  0  0
  126.8134  123.9841   63.8209 H   0  0  0  0  0  0  0  0  0  0  0  0
  127.6961  124.8097   61.6518 H   0  0  0  0  0  0  0  0  0  0  0  0
  1  2  2  0
  2  3  1  0
  3  4  1  0
  4  5  1  0
  5  6  1  0
  6  7  2  0
  6  8  1  0
  8  9  1  0
  9 10  1  0
 10 11  1  0
 11 12  2  0
 12 13  1  0
 13 14  2  0
 14 15  1  0
 15 16  2  0
 16 17  1  0
 17 18  2  0
 18 19  1  0
 19 20  2  0
 20 21  1  0
 21 22  2  0
  4 23  1  0
 23 24  2  0
 23 25  1  0
  2 26  1  0
 26 27  1  0
 27 28  1  0
 28 29  2  0
 29 30  1  0
 30 31  2  0
 31 32  1  0
 32 33  2  0
 27 34  1  0
 34 35  2  0
 35 36  1  0
 36 37  2  0
 37 38  1  0
 38 39  2  0
 27 40  1  0
 40 41  2  0
 41 42  1  0
 42 43  2  0
 43 44  1  0
 44 45  2  0
 22 10  1  0
 33 28  1  0
 39 34  1  0
 45 40  1  0
 16 11  1  0
 22 17  1  0
  3 46  1  0
  3 47  1  0
  4 48  1  1
  5 49  1  0
  9 50  1  0
  9 51  1  0
 10 52  1  0
 12 53  1  0
 13 54  1  0
 14 55  1  0
 15 56  1  0
 18 57  1  0
 19 58  1  0
 20 59  1  0
 21 60  1  0
 25 61  1  0
 26 62  1  0
 29 63  1  0
 30 64  1  0
 31 65  1  0
 32 66  1  0
 33 67  1  0
 35 68  1  0
 36 69  1  0
 37 70  1  0
 38 71  1  0
 39 72  1  0
 41 73  1  0
 42 74  1  0
 43 75  1  0
 44 76  1  0
 45 77  1  0
M  END
>  <Binding energies>  (1) 
[-12.07]

>  <Ligand effiencies>  (1) 
[-0.25145833333333334]

>  <Interactions>  (1) 
["V-A:LEU:363:CA:3184, V-A:TYR:539:CZ:4876, V-A:ASP:366:CG:3212, V-A:ASN:362:C:3171, V-A:PRO:540:CB:4884, V-A:TYR:539:CE1:4874, V-A:TYR:539:CD1:4872, V-A:ASP:366:CB:3211, H-A:TYR:531:OH:4794, V-A:PRO:540:CA:4882, V-A:TYR:531:CE2:4792, V-A:TYR:531:CZ:4793, V-A:ILE:538:CA:4859, V-A:LEU:363:CD1:3188, V-B:GLU:543:CD:9879, V-B:PRO:540:N:9855, V-B:PRO:540:CA:9854, V-B:TYR:539:C:9838, V-B:TYR:539:CG:9843, V-B:MET:535:CE:9806, H-B:TYR:539:OH:9849, V-B:GLU:543:CG:9878, V-B:ALA:541:C:9859, V-B:PRO:540:CB:9856, V-B:ASN:362:CB:8146, V-B:TYR:539:CA:9840, V-B:TYR:539:CD1:9844, V-B:TYR:531:CZ:9765, V-B:PRO:540:CD:9858, V-B:TYR:531:CE2:9764, V-B:LEU:363:CD1:8159, V-B:ILE:538:CD1:9836, V-B:ILE:538:CG2:9834, V-A:ILE:538:CB:4861, V-A:ILE:538:CG2:4862, V-B:ILE:538:CA:9831, V-B:TYR:539:CE1:9846, V-B:ILE:538:C:9829, V-B:ASP:366:CB:8182, V-A:PRO:540:N:4883, V-B:ASP:366:CG:8183, V-B:TYR:531:CE1:9763, V-A:ASN:362:CB:3175"]

$$$$
RR5_Rahimova_2017-again1
     RDKit          3D

 76 81  0  0  0  0  0  0  0  0999 V2000
  128.9240  124.3490   60.3770 O   0  0  0  0  0  0  0  0  0  0  0  0
  128.4920  123.2240   60.1230 C   0  0  0  0  0  0  0  0  0  0  0  0
  127.2360  123.0940   59.2360 C   0  0  0  0  0  0  0  0  0  0  0  0
  127.2980  123.7710   57.8280 C   0  0  2  0  0  0  0  0  0  0  0  0
  126.3870  124.9350   57.8100 N   0  0  0  0  0  0  0  0  0  0  0  0
  126.1950  125.7290   58.9360 C   0  0  0  0  0  0  0  0  0  0  0  0
  126.7110  125.5660   60.0460 O   0  0  0  0  0  0  0  0  0  0  0  0
  125.3430  126.7230   58.6230 O   0  0  0  0  0  0  0  0  0  0  0  0
  125.3950  127.9730   59.3030 C   0  0  0  0  0  0  0  0  0  0  0  0
  126.2750  128.9660   58.5200 C   0  0  0  0  0  0  0  0  0  0  0  0
  127.4340  128.3060   57.7940 C   0  0  0  0  0  0  0  0  0  0  0  0
  128.4930  127.5500   58.3050 C   0  0  0  0  0  0  0  0  0  0  0  0
  129.4520  127.0200   57.4400 C   0  0  0  0  0  0  0  0  0  0  0  0
  129.3580  127.2480   56.0650 C   0  0  0  0  0  0  0  0  0  0  0  0
  128.3060  128.0070   55.5520 C   0  0  0  0  0  0  0  0  0  0  0  0
  127.3470  128.5350   56.4190 C   0  0  0  0  0  0  0  0  0  0  0  0
  126.1610  129.3650   56.1600 C   0  0  0  0  0  0  0  0  0  0  0  0
  125.6400  129.8760   54.9690 C   0  0  0  0  0  0  0  0  0  0  0  0
  124.4870  130.6630   55.0010 C   0  0  0  0  0  0  0  0  0  0  0  0
  123.8590  130.9360   56.2180 C   0  0  0  0  0  0  0  0  0  0  0  0
  124.3820  130.4230   57.4070 C   0  0  0  0  0  0  0  0  0  0  0  0
  125.5350  129.6320   57.3780 C   0  0  0  0  0  0  0  0  0  0  0  0
  126.9710  122.7510   56.6640 C   0  0  0  0  0  0  0  0  0  0  0  0
  126.0980  123.1500   55.8570 O   0  0  0  0  0  0  0  0  0  0  0  0
  127.6320  121.6850   56.6430 O   0  0  0  0  0  0  0  0  0  0  0  0
  129.1360  122.0930   60.4810 N   0  0  0  0  0  0  0  0  0  0  0  0
  130.3610  121.9220   61.3040 C   0  0  0  0  0  0  0  0  0  0  0  0
  130.9310  120.4790   61.1240 C   0  0  0  0  0  0  0  0  0  0  0  0
  132.1960  120.2690   60.5470 C   0  0  0  0  0  0  0  0  0  0  0  0
  132.7110  118.9850   60.3970 C   0  0  0  0  0  0  0  0  0  0  0  0
  131.9700  117.8900   60.8270 C   0  0  0  0  0  0  0  0  0  0  0  0
  130.7170  118.0700   61.4060 C   0  0  0  0  0  0  0  0  0  0  0  0
  130.2030  119.3550   61.5540 C   0  0  0  0  0  0  0  0  0  0  0  0
  131.5610  122.8430   60.9110 C   0  0  0  0  0  0  0  0  0  0  0  0
  132.6630  122.9970   61.7710 C   0  0  0  0  0  0  0  0  0  0  0  0
  133.7330  123.8170   61.4250 C   0  0  0  0  0  0  0  0  0  0  0  0
  133.7190  124.4920   60.2090 C   0  0  0  0  0  0  0  0  0  0  0  0
  132.6450  124.3480   59.3350 C   0  0  0  0  0  0  0  0  0  0  0  0
  131.5770  123.5270   59.6850 C   0  0  0  0  0  0  0  0  0  0  0  0
  129.8680  122.1420   62.7760 C   0  0  0  0  0  0  0  0  0  0  0  0
  130.7360  122.0080   63.8740 C   0  0  0  0  0  0  0  0  0  0  0  0
  130.2870  122.2240   65.1730 C   0  0  0  0  0  0  0  0  0  0  0  0
  128.9650  122.5920   65.3940 C   0  0  0  0  0  0  0  0  0  0  0  0
  128.0910  122.7550   64.3250 C   0  0  0  0  0  0  0  0  0  0  0  0
  128.5420  122.5370   63.0260 C   0  0  0  0  0  0  0  0  0  0  0  0
  127.0461  122.0215   59.0822 H   0  0  0  0  0  0  0  0  0  0  0  0
  126.4420  123.6278   59.7789 H   0  0  0  0  0  0  0  0  0  0  0  0
  128.3262  124.1171   57.6462 H   0  0  0  0  0  0  0  0  0  0  0  0
  125.9480  125.1930   56.9380 H   0  0  0  0  0  0  0  0  0  0  0  0
  124.3774  128.3810   59.3925 H   0  0  0  0  0  0  0  0  0  0  0  0
  125.8268  127.8208   60.3032 H   0  0  0  0  0  0  0  0  0  0  0  0
  126.5977  129.6624   59.3079 H   0  0  0  0  0  0  0  0  0  0  0  0
  128.5706  127.3729   59.3879 H   0  0  0  0  0  0  0  0  0  0  0  0
  130.2831  126.4218   57.8418 H   0  0  0  0  0  0  0  0  0  0  0  0
  130.1147  126.8284   55.3858 H   0  0  0  0  0  0  0  0  0  0  0  0
  128.2322  128.1887   54.4696 H   0  0  0  0  0  0  0  0  0  0  0  0
  126.1354  129.6596   54.0110 H   0  0  0  0  0  0  0  0  0  0  0  0
  124.0728  131.0685   54.0661 H   0  0  0  0  0  0  0  0  0  0  0  0
  122.9508  131.5562   56.2402 H   0  0  0  0  0  0  0  0  0  0  0  0
  123.8876  130.6408   58.3652 H   0  0  0  0  0  0  0  0  0  0  0  0
  128.6580  121.2290   60.2740 H   0  0  0  0  0  0  0  0  0  0  0  0
  132.7874  121.1327   60.2091 H   0  0  0  0  0  0  0  0  0  0  0  0
  133.7005  118.8369   59.9400 H   0  0  0  0  0  0  0  0  0  0  0  0
  132.3766  116.8747   60.7089 H   0  0  0  0  0  0  0  0  0  0  0  0
  130.1354  117.2002   61.7452 H   0  0  0  0  0  0  0  0  0  0  0  0
  129.2133  119.4934   62.0138 H   0  0  0  0  0  0  0  0  0  0  0  0
  132.6795  122.4613   62.7316 H   0  0  0  0  0  0  0  0  0  0  0  0
  134.5860  123.9307   62.1102 H   0  0  0  0  0  0  0  0  0  0  0  0
  134.5620  125.1438   59.9361 H   0  0  0  0  0  0  0  0  0  0  0  0
  132.6405  124.8805   58.3725 H   0  0  0  0  0  0  0  0  0  0  0  0
  130.7321  123.4122   58.9901 H   0  0  0  0  0  0  0  0  0  0  0  0
  131.7860  121.7281   63.7034 H   0  0  0  0  0  0  0  0  0  0  0  0
  130.9758  122.1040   66.0222 H   0  0  0  0  0  0  0  0  0  0  0  0
  128.6078  122.7554   66.4215 H   0  0  0  0  0  0  0  0  0  0  0  0
  127.0480  123.0548   64.5048 H   0  0  0  0  0  0  0  0  0  0  0  0
  127.8502  122.6760   62.1822 H   0  0  0  0  0  0  0  0  0  0  0  0
  1  2  2  0
  2  3  1  0
  3  4  1  0
  4  5  1  0
  5  6  1  0
  6  7  2  0
  6  8  1  0
  8  9  1  0
  9 10  1  0
 10 11  1  0
 11 12  2  0
 12 13  1  0
 13 14  2  0
 14 15  1  0
 15 16  2  0
 16 17  1  0
 17 18  2  0
 18 19  1  0
 19 20  2  0
 20 21  1  0
 21 22  2  0
  4 23  1  0
 23 24  2  0
 23 25  1  0
  2 26  1  0
 26 27  1  0
 27 28  1  0
 28 29  2  0
 29 30  1  0
 30 31  2  0
 31 32  1  0
 32 33  2  0
 27 34  1  0
 34 35  2  0
 35 36  1  0
 36 37  2  0
 37 38  1  0
 38 39  2  0
 27 40  1  0
 40 41  2  0
 41 42  1  0
 42 43  2  0
 43 44  1  0
 44 45  2  0
 22 10  1  0
 33 28  1  0
 39 34  1  0
 45 40  1  0
 16 11  1  0
 22 17  1  0
  3 46  1  0
  3 47  1  0
  4 48  1  6
  5 49  1  0
  9 50  1  0
  9 51  1  0
 10 52  1  0
 12 53  1  0
 13 54  1  0
 14 55  1  0
 15 56  1  0
 18 57  1  0
 19 58  1  0
 20 59  1  0
 21 60  1  0
 26 61  1  0
 29 62  1  0
 30 63  1  0
 31 64  1  0
 32 65  1  0
 33 66  1  0
 35 67  1  0
 36 68  1  0
 37 69  1  0
 38 70  1  0
 39 71  1  0
 41 72  1  0
 42 73  1  0
 43 74  1  0
 44 75  1  0
 45 76  1  0
M  CHG  1  25  -1
M  END
>  <Binding energies>  (1) 
[-11.29]

>  <Ligand effiencies>  (1) 
[-0.24021276595744678]

>  <Interactions>  (1) 
["V-A:ASP:366:CG:3212, V-A:ASP:366:CB:3211, V-B:GLU:543:CD:9879, V-B:PRO:540:N:9855, V-B:ALA:541:CB:9863, V-B:PRO:540:CA:9854, V-B:ALA:541:CA:9861, V-B:TYR:539:C:9838, V-A:LEU:475:CD2:4258, V-A:PRO:482:CG:4326, H-B:TYR:539:O:9839, V-A:ILE:369:CD1:3238, V-B:TYR:539:CD2:9845, V-A:ILE:369:CG2:3236, V-B:TYR:539:CE2:9847, V-A:SER:385:CA:3406, H-B:TYR:539:N:9841, V-B:MET:535:CE:9806, V-B:TYR:539:CZ:9848, V-A:PRO:482:CB:4325, V-B:GLU:543:CG:9878, V-A:LEU:475:CD1:4257, V-B:ALA:541:C:9859, V-B:PRO:540:CB:9856, V-B:TYR:531:CZ:9765, V-B:ASP:366:CB:8182, V-A:TYR:484:CZ:4346, V-A:TYR:484:CE2:4345, V-A:MET:535:CE:4834, H-B:TYR:531:OH:9766, V-B:ASP:366:CG:8183, V-B:TYR:531:CE1:9763, V-A:ILE:369:CB:3235, V-A:ASP:366:CA:3209, V-B:ASN:370:CB:8215, V-B:ASN:370:CA:8213, V-B:ASN:370:CG:8216, V-B:TYR:531:CD1:9761"]

$$$$
RR6_Rahimova_2017
     RDKit          3D

 63 66  0  0  0  0  0  0  0  0999 V2000
  131.8410  116.8340   61.8980 C   0  0  0  0  0  0  0  0  0  0  0  0
  131.6310  117.3550   60.5930 O   0  0  0  0  0  0  0  0  0  0  0  0
  132.4120  118.3540   60.1060 C   0  0  0  0  0  0  0  0  0  0  0  0
  133.1820  118.2090   59.1510 O   0  0  0  0  0  0  0  0  0  0  0  0
  132.2440  119.6520   60.8420 C   0  0  0  0  0  0  0  0  0  0  0  0
  133.3410  120.4490   61.2020 C   0  0  0  0  0  0  0  0  0  0  0  0
  133.1530  121.6440   61.8920 C   0  0  0  0  0  0  0  0  0  0  0  0
  131.8590  122.0620   62.2370 C   0  0  0  0  0  0  0  0  0  0  0  0
  131.5590  123.2340   62.9560 N   0  0  0  0  0  0  0  0  0  0  0  0
  132.3970  124.1160   63.5440 C   0  0  0  0  0  0  0  0  0  0  0  0
  133.6260  124.0440   63.5400 O   0  0  0  0  0  0  0  0  0  0  0  0
  131.7240  125.2520   64.3210 C   0  0  0  0  0  0  0  0  0  0  0  0
  129.9200  125.3470   64.0640 S   0  0  0  0  0  0  0  0  0  0  0  0
  129.6640  125.6830   62.3340 C   0  0  0  0  0  0  0  0  0  0  0  0
  130.2400  126.8290   61.8980 N   0  0  0  0  0  0  0  0  0  0  0  0
  130.1390  127.1780   60.5910 C   0  0  0  0  0  0  0  0  0  0  0  0
  130.8570  128.4290   60.1760 C   0  0  0  0  0  0  0  0  0  0  0  0
  131.0070  129.5040   61.0660 C   0  0  0  0  0  0  0  0  0  0  0  0
  131.6610  130.6700   60.6780 C   0  0  0  0  0  0  0  0  0  0  0  0
  132.1840  130.7800   59.3900 C   0  0  0  0  0  0  0  0  0  0  0  0
  132.8880  132.0570   58.9670 C   0  0  0  0  0  0  0  0  0  0  0  0
  132.0470  129.7240   58.4920 C   0  0  0  0  0  0  0  0  0  0  0  0
  131.3930  128.5610   58.8860 C   0  0  0  0  0  0  0  0  0  0  0  0
  129.4350  126.3740   59.6890 C   0  0  0  0  0  0  0  0  0  0  0  0
  128.8260  125.1860   60.1170 C   0  0  0  0  0  0  0  0  0  0  0  0
  128.1060  124.3660   59.0970 C   0  0  0  0  0  0  0  0  0  0  0  0
  128.7070  123.2220   58.5630 C   0  0  0  0  0  0  0  0  0  0  0  0
  128.0360  122.4430   57.6240 C   0  0  0  0  0  0  0  0  0  0  0  0
  126.7520  122.7880   57.2050 C   0  0  0  0  0  0  0  0  0  0  0  0
  126.1630  121.9560   56.2730 O   0  0  0  0  0  0  0  0  0  0  0  0
  125.0210  122.4150   55.5570 C   0  0  0  0  0  0  0  0  0  0  0  0
  126.1420  123.9320   57.7420 C   0  0  0  0  0  0  0  0  0  0  0  0
  126.8160  124.7080   58.6820 C   0  0  0  0  0  0  0  0  0  0  0  0
  128.9360  124.8270   61.4830 C   0  0  0  0  0  0  0  0  0  0  0  0
  128.2990  123.6130   62.0030 C   0  0  0  0  0  0  0  0  0  0  0  0
  127.7980  122.6540   62.4130 N   0  0  0  0  0  0  0  0  0  0  0  0
  130.7650  121.2800   61.8650 C   0  0  0  0  0  0  0  0  0  0  0  0
  130.9550  120.0840   61.1780 C   0  0  0  0  0  0  0  0  0  0  0  0
  131.5391  117.5831   62.6448 H   0  0  0  0  0  0  0  0  0  0  0  0
  131.2402  115.9220   62.0298 H   0  0  0  0  0  0  0  0  0  0  0  0
  132.9063  116.5935   62.0298 H   0  0  0  0  0  0  0  0  0  0  0  0
  134.3589  120.1271   60.9369 H   0  0  0  0  0  0  0  0  0  0  0  0
  134.0209  122.2614   62.1671 H   0  0  0  0  0  0  0  0  0  0  0  0
  130.5740  123.3810   63.1180 H   0  0  0  0  0  0  0  0  0  0  0  0
  131.9146  125.0998   65.3936 H   0  0  0  0  0  0  0  0  0  0  0  0
  132.1522  126.1943   63.9486 H   0  0  0  0  0  0  0  0  0  0  0  0
  130.6016  129.4239   62.0854 H   0  0  0  0  0  0  0  0  0  0  0  0
  131.7652  131.5044   61.3872 H   0  0  0  0  0  0  0  0  0  0  0  0
  133.1975  132.6184   59.8609 H   0  0  0  0  0  0  0  0  0  0  0  0
  133.7748  131.8053   58.3668 H   0  0  0  0  0  0  0  0  0  0  0  0
  132.2017  132.6725   58.3668 H   0  0  0  0  0  0  0  0  0  0  0  0
  132.4548  129.8094   57.4740 H   0  0  0  0  0  0  0  0  0  0  0  0
  131.2942  127.7293   58.1728 H   0  0  0  0  0  0  0  0  0  0  0  0
  129.3584  126.6764   58.6342 H   0  0  0  0  0  0  0  0  0  0  0  0
  129.7182  122.9351   58.8874 H   0  0  0  0  0  0  0  0  0  0  0  0
  128.5231  121.5481   57.2094 H   0  0  0  0  0  0  0  0  0  0  0  0
  124.2431  122.7277   56.2691 H   0  0  0  0  0  0  0  0  0  0  0  0
  125.3038  123.2693   54.9244 H   0  0  0  0  0  0  0  0  0  0  0  0
  124.6339  121.6026   54.9244 H   0  0  0  0  0  0  0  0  0  0  0  0
  125.1294  124.2165   57.4199 H   0  0  0  0  0  0  0  0  0  0  0  0
  126.3277  125.5996   59.1023 H   0  0  0  0  0  0  0  0  0  0  0  0
  129.7463  121.6104   62.1160 H   0  0  0  0  0  0  0  0  0  0  0  0
  130.0847  119.4729   60.8966 H   0  0  0  0  0  0  0  0  0  0  0  0
  1  2  1  0
  2  3  1  0
  3  4  2  0
  3  5  1  0
  5  6  2  0
  6  7  1  0
  7  8  2  0
  8  9  1  0
  9 10  1  0
 10 11  2  0
 10 12  1  0
 12 13  1  0
 13 14  1  0
 14 15  2  0
 15 16  1  0
 16 17  1  0
 17 18  2  0
 18 19  1  0
 19 20  2  0
 20 21  1  0
 20 22  1  0
 22 23  2  0
 16 24  2  0
 24 25  1  0
 25 26  1  0
 26 27  2  0
 27 28  1  0
 28 29  2  0
 29 30  1  0
 30 31  1  0
 29 32  1  0
 32 33  2  0
 25 34  2  0
 34 35  1  0
 35 36  3  0
  8 37  1  0
 37 38  2  0
 38  5  1  0
 34 14  1  0
 23 17  1  0
 33 26  1  0
  1 39  1  0
  1 40  1  0
  1 41  1  0
  6 42  1  0
  7 43  1  0
  9 44  1  0
 12 45  1  0
 12 46  1  0
 18 47  1  0
 19 48  1  0
 21 49  1  0
 21 50  1  0
 21 51  1  0
 22 52  1  0
 23 53  1  0
 24 54  1  0
 27 55  1  0
 28 56  1  0
 31 57  1  0
 31 58  1  0
 31 59  1  0
 32 60  1  0
 33 61  1  0
 37 62  1  0
 38 63  1  0
M  END
>  <Binding energies>  (1) 
[-8.84]

>  <Ligand effiencies>  (1) 
[-0.22666666666666666]

>  <Interactions>  (1) 
["V-A:LEU:363:CA:3184, V-A:ASP:366:CG:3212, V-A:PRO:540:CB:4884, V-A:ASP:366:CB:3211, V-A:PRO:540:CA:4882, V-A:TYR:531:CZ:4793, V-B:PRO:540:N:9855, H-B:ALA:541:N:9862, V-B:ALA:541:CB:9863, V-B:PRO:540:CA:9854, V-B:TYR:539:C:9838, V-A:LEU:475:CD2:4258, V-A:HIS:383:CE1:3393, V-B:TYR:539:CD2:9845, V-A:ILE:369:CG2:3236, V-B:TYR:539:CE2:9847, V-A:SER:385:CA:3406, V-A:SER:385:CB:3408, H-B:TYR:539:N:9841, V-B:TYR:539:CG:9843, V-A:THR:477:CG2:4272, V-B:MET:535:CE:9806, V-B:TYR:539:CZ:9848, V-A:PRO:482:CB:4325, H-A:HIS:383:ND1:3390, H-A:GLY:454:N:4049, V-B:TYR:539:CA:9840, V-B:TYR:539:CD1:9844, V-B:TYR:531:CE2:9764, V-B:LEU:363:CD1:8159, V-B:ILE:538:CD1:9836, V-B:ILE:538:CG2:9834, V-B:ILE:538:CA:9831, V-B:TYR:539:CE1:9846, V-B:ILE:538:CB:9833"]

$$$$
RR7_Rahimova_2017
     RDKit          3D

 80 86  0  0  0  0  0  0  0  0999 V2000
  129.1190  124.0140   57.8170 C   0  0  0  0  0  0  0  0  0  0  0  0
  130.2030  124.8230   57.3710 O   0  0  0  0  0  0  0  0  0  0  0  0
  130.2390  126.1570   57.7300 C   0  0  0  0  0  0  0  0  0  0  0  0
  129.5170  127.0380   56.9270 C   0  0  0  0  0  0  0  0  0  0  0  0
  129.4900  128.3990   57.2130 C   0  0  0  0  0  0  0  0  0  0  0  0
  130.1980  128.9160   58.3080 C   0  0  0  0  0  0  0  0  0  0  0  0
  130.1590  130.4330   58.6720 C   0  0  0  0  0  0  0  0  0  0  0  0
  129.0080  130.6170   59.5260 O   0  0  0  0  0  0  0  0  0  0  0  0
  128.2120  129.4900   59.9100 C   0  0  0  0  0  0  0  0  0  0  0  0
  128.1330  129.4320   61.4440 C   0  0  1  0  0  0  0  0  0  0  0  0
  127.9690  128.0610   61.7970 O   0  0  0  0  0  0  0  0  0  0  0  0
  128.9990  127.6080   62.6280 C   0  0  1  0  0  0  0  0  0  0  0  0
  129.2790  126.2100   62.3600 N   0  0  0  0  0  0  0  0  0  0  0  0
  130.4760  125.6410   61.9620 C   0  0  0  0  0  0  0  0  0  0  0  0
  130.4390  124.3500   61.7440 N   0  0  0  0  0  0  0  0  0  0  0  0
  129.1280  124.0200   61.9590 C   0  0  0  0  0  0  0  0  0  0  0  0
  128.4380  122.7950   61.8750 C   0  0  0  0  0  0  0  0  0  0  0  0
  129.1570  121.6380   61.5200 N   0  0  0  0  0  0  0  0  0  0  0  0
  130.2760  121.1240   62.0830 C   0  0  0  0  0  0  0  0  0  0  0  0
  130.8730  121.6340   63.0340 O   0  0  0  0  0  0  0  0  0  0  0  0
  130.8060  119.8560   61.4470 C   0  0  0  0  0  0  0  0  0  0  0  0
  132.0330  119.8810   60.7670 C   0  0  0  0  0  0  0  0  0  0  0  0
  132.5410  118.7250   60.1800 C   0  0  0  0  0  0  0  0  0  0  0  0
  131.8290  117.5340   60.2730 C   0  0  0  0  0  0  0  0  0  0  0  0
  130.6120  117.4870   60.9470 C   0  0  0  0  0  0  0  0  0  0  0  0
  130.1020  118.6430   61.5340 C   0  0  0  0  0  0  0  0  0  0  0  0
  127.0960  122.7650   62.1350 N   0  0  0  0  0  0  0  0  0  0  0  0
  126.4880  123.9350   62.4650 C   0  0  0  0  0  0  0  0  0  0  0  0
  127.0560  125.1650   62.5780 N   0  0  0  0  0  0  0  0  0  0  0  0
  128.3710  125.1630   62.3250 C   0  0  0  0  0  0  0  0  0  0  0  0
  130.1650  128.5570   62.3770 C   0  0  0  0  0  0  0  0  0  0  0  0
  129.4130  129.8620   62.1760 C   0  0  2  0  0  0  0  0  0  0  0  0
  129.1390  130.5120   63.4060 O   0  0  0  0  0  0  0  0  0  0  0  0
  131.4030  130.8770   59.4870 C   0  0  0  0  0  0  0  0  0  0  0  0
  131.2560  131.7150   60.6040 C   0  0  0  0  0  0  0  0  0  0  0  0
  132.3650  132.1300   61.3330 C   0  0  0  0  0  0  0  0  0  0  0  0
  133.6360  131.7120   60.9520 C   0  0  0  0  0  0  0  0  0  0  0  0
  133.8060  130.8820   59.8480 C   0  0  0  0  0  0  0  0  0  0  0  0
  132.6960  130.4680   59.1180 C   0  0  0  0  0  0  0  0  0  0  0  0
  130.0750  131.4150   57.4700 C   0  0  0  0  0  0  0  0  0  0  0  0
  131.0920  132.3570   57.2500 C   0  0  0  0  0  0  0  0  0  0  0  0
  131.0210  133.2470   56.1820 C   0  0  0  0  0  0  0  0  0  0  0  0
  129.9240  133.2100   55.3260 C   0  0  0  0  0  0  0  0  0  0  0  0
  128.8980  132.2940   55.5330 C   0  0  0  0  0  0  0  0  0  0  0  0
  128.9710  131.4050   56.6010 C   0  0  0  0  0  0  0  0  0  0  0  0
  130.9120  128.0230   59.1210 C   0  0  0  0  0  0  0  0  0  0  0  0
  130.9380  126.6610   58.8360 C   0  0  0  0  0  0  0  0  0  0  0  0
  129.1002  124.0000   58.9167 H   0  0  0  0  0  0  0  0  0  0  0  0
  128.1726  124.4284   57.4394 H   0  0  0  0  0  0  0  0  0  0  0  0
  129.2470  122.9888   57.4394 H   0  0  0  0  0  0  0  0  0  0  0  0
  128.9628  126.6532   56.0582 H   0  0  0  0  0  0  0  0  0  0  0  0
  128.9068  129.0776   56.5732 H   0  0  0  0  0  0  0  0  0  0  0  0
  127.1997  129.5941   59.4923 H   0  0  0  0  0  0  0  0  0  0  0  0
  128.6677  128.5653   59.5263 H   0  0  0  0  0  0  0  0  0  0  0  0
  127.3192  130.1132   61.7334 H   0  0  0  0  0  0  0  0  0  0  0  0
  128.7475  127.6275   63.6987 H   0  0  0  0  0  0  0  0  0  0  0  0
  131.3952  126.2322   61.8373 H   0  0  0  0  0  0  0  0  0  0  0  0
  128.7760  121.1340   60.7320 H   0  0  0  0  0  0  0  0  0  0  0  0
  132.5985  120.8219   60.6970 H   0  0  0  0  0  0  0  0  0  0  0  0
  133.5016  118.7537   59.6449 H   0  0  0  0  0  0  0  0  0  0  0  0
  132.2312  116.6209   59.8098 H   0  0  0  0  0  0  0  0  0  0  0  0
  130.0551  116.5409   61.0159 H   0  0  0  0  0  0  0  0  0  0  0  0
  129.1417  118.6059   62.0692 H   0  0  0  0  0  0  0  0  0  0  0  0
  125.4076  123.8801   62.6644 H   0  0  0  0  0  0  0  0  0  0  0  0
  130.8429  128.6068   63.2418 H   0  0  0  0  0  0  0  0  0  0  0  0
  130.8213  128.2700   61.5422 H   0  0  0  0  0  0  0  0  0  0  0  0
  129.9923  130.6033   61.6060 H   0  0  0  0  0  0  0  0  0  0  0  0
  129.9610  130.8710   63.7510 H   0  0  0  0  0  0  0  0  0  0  0  0
  130.2517  132.0471   60.9059 H   0  0  0  0  0  0  0  0  0  0  0  0
  132.2379  132.7858   62.2069 H   0  0  0  0  0  0  0  0  0  0  0  0
  134.5137  132.0402   61.5281 H   0  0  0  0  0  0  0  0  0  0  0  0
  134.8140  130.5544   59.5535 H   0  0  0  0  0  0  0  0  0  0  0  0
  132.8318  129.8144   58.2438 H   0  0  0  0  0  0  0  0  0  0  0  0
  131.9559  132.3924   57.9300 H   0  0  0  0  0  0  0  0  0  0  0  0
  131.8278  133.9759   56.0153 H   0  0  0  0  0  0  0  0  0  0  0  0
  129.8681  133.9103   54.4796 H   0  0  0  0  0  0  0  0  0  0  0  0
  128.0321  132.2724   54.8550 H   0  0  0  0  0  0  0  0  0  0  0  0
  128.1550  130.6862   56.7668 H   0  0  0  0  0  0  0  0  0  0  0  0
  131.4589  128.4046   59.9958 H   0  0  0  0  0  0  0  0  0  0  0  0
  131.5092  125.9772   59.4810 H   0  0  0  0  0  0  0  0  0  0  0  0
  1  2  1  0
  2  3  1  0
  3  4  2  0
  4  5  1  0
  5  6  2  0
  6  7  1  0
  7  8  1  0
  8  9  1  0
  9 10  1  0
 10 11  1  0
 11 12  1  0
 12 13  1  0
 13 14  1  0
 14 15  2  0
 15 16  1  0
 16 17  2  0
 17 18  1  0
 18 19  1  0
 19 20  2  0
 19 21  1  0
 21 22  2  0
 22 23  1  0
 23 24  2  0
 24 25  1  0
 25 26  2  0
 17 27  1  0
 27 28  2  0
 28 29  1  0
 29 30  2  0
 12 31  1  0
 31 32  1  0
 32 33  1  0
  7 34  1  0
 34 35  2  0
 35 36  1  0
 36 37  2  0
 37 38  1  0
 38 39  2  0
  7 40  1  0
 40 41  2  0
 41 42  1  0
 42 43  2  0
 43 44  1  0
 44 45  2  0
  6 46  1  0
 46 47  2  0
 47  3  1  0
 32 10  1  0
 39 34  1  0
 45 40  1  0
 30 13  1  0
 30 16  1  0
 26 21  1  0
  1 48  1  0
  1 49  1  0
  1 50  1  0
  4 51  1  0
  5 52  1  0
  9 53  1  0
  9 54  1  0
 10 55  1  1
 12 56  1  1
 14 57  1  0
 18 58  1  0
 22 59  1  0
 23 60  1  0
 24 61  1  0
 25 62  1  0
 26 63  1  0
 28 64  1  0
 31 65  1  0
 31 66  1  0
 32 67  1  6
 33 68  1  0
 35 69  1  0
 36 70  1  0
 37 71  1  0
 38 72  1  0
 39 73  1  0
 41 74  1  0
 42 75  1  0
 43 76  1  0
 44 77  1  0
 45 78  1  0
 46 79  1  0
 47 80  1  0
M  END
>  <Binding energies>  (1) 
[-10.54]

>  <Ligand effiencies>  (1) 
[-0.2151020408163265]

>  <Interactions>  (1) 
["V-A:LEU:363:CA:3184, V-A:TYR:539:CZ:4876, V-A:ASP:366:CG:3212, V-A:ASN:362:C:3171, V-A:PRO:540:CB:4884, V-A:TYR:539:CE1:4874, H-A:GLU:543:OE2:4909, V-A:ASP:366:CB:3211, V-A:PRO:540:CA:4882, V-A:ILE:538:CA:4859, V-B:GLU:543:CD:9879, H-B:ALA:541:N:9862, V-B:ALA:541:CB:9863, V-B:PRO:540:CA:9854, V-B:PRO:540:C:9852, V-B:TYR:539:C:9838, V-A:LEU:475:CD2:4258, V-A:PRO:482:CG:4326, V-A:HIS:383:CE1:3393, H-B:TYR:539:O:9839, V-B:TYR:539:CD2:9845, V-B:TYR:539:CE2:9847, V-B:MET:535:CE:9806, H-B:TYR:539:OH:9849, V-B:TYR:539:CZ:9848, V-A:PRO:482:CB:4325, H-A:GLU:543:OE1:4908, V-A:ILE:538:CB:4861, V-A:ASN:362:CB:3175, V-A:PRO:540:C:4880, V-A:ASN:362:CA:3173"]

$$$$
RR8_A_Rahimova_2017
     RDKit          3D

 73 77  0  0  0  0  0  0  0  0999 V2000
  125.1020  123.2150   62.2860 O   0  0  0  0  0  0  0  0  0  0  0  0
  125.8650  123.8550   61.5540 C   0  0  0  0  0  0  0  0  0  0  0  0
  126.6390  124.9040   61.9730 O   0  0  0  0  0  0  0  0  0  0  0  0
  127.7610  124.6080   62.7590 C   0  0  1  0  0  0  0  0  0  0  0  0
  127.5340  123.5040   63.5870 O   0  0  0  0  0  0  0  0  0  0  0  0
  128.6900  122.6790   63.6990 C   0  0  2  0  0  0  0  0  0  0  0  0
  129.0410  122.5260   65.1890 C   0  0  0  0  0  0  0  0  0  0  0  0
  130.3160  123.1080   65.4210 O   0  0  0  0  0  0  0  0  0  0  0  0
  131.4060  122.2250   65.1850 C   0  0  0  0  0  0  0  0  0  0  0  0
  132.4310  122.9010   64.2870 C   0  0  0  0  0  0  0  0  0  0  0  0
  133.2450  122.1290   63.4550 C   0  0  0  0  0  0  0  0  0  0  0  0
  134.1810  122.7450   62.6270 C   0  0  0  0  0  0  0  0  0  0  0  0
  134.2970  124.1340   62.6310 C   0  0  0  0  0  0  0  0  0  0  0  0
  133.4850  124.9120   63.4530 C   0  0  0  0  0  0  0  0  0  0  0  0
  132.5490  124.2960   64.2790 C   0  0  0  0  0  0  0  0  0  0  0  0
  129.7390  123.4030   62.8440 C   0  0  1  0  0  0  0  0  0  0  0  0
  130.5680  122.5120   62.1000 O   0  0  0  0  0  0  0  0  0  0  0  0
  129.9180  121.3630   61.5700 C   0  0  0  0  0  0  0  0  0  0  0  0
  130.9460  120.2900   61.2410 C   0  0  0  0  0  0  0  0  0  0  0  0
  132.2020  120.6600   60.7490 C   0  0  0  0  0  0  0  0  0  0  0  0
  133.1440  119.6840   60.4370 C   0  0  0  0  0  0  0  0  0  0  0  0
  132.8280  118.3380   60.6150 C   0  0  0  0  0  0  0  0  0  0  0  0
  131.5780  117.9600   61.0970 C   0  0  0  0  0  0  0  0  0  0  0  0
  130.6340  118.9360   61.4080 C   0  0  0  0  0  0  0  0  0  0  0  0
  128.9010  124.1800   61.8460 C   0  0  2  0  0  0  0  0  0  0  0  0
  129.6440  125.2710   61.3080 O   0  0  0  0  0  0  0  0  0  0  0  0
  129.6690  125.3590   59.8870 C   0  0  0  0  0  0  0  0  0  0  0  0
  131.0780  125.1010   59.3760 C   0  0  0  0  0  0  0  0  0  0  0  0
  131.8770  124.1230   59.9780 C   0  0  0  0  0  0  0  0  0  0  0  0
  133.1630  123.8840   59.5000 C   0  0  0  0  0  0  0  0  0  0  0  0
  133.6460  124.6200   58.4210 C   0  0  0  0  0  0  0  0  0  0  0  0
  132.8550  125.5920   57.8130 C   0  0  0  0  0  0  0  0  0  0  0  0
  131.5680  125.8320   58.2900 C   0  0  0  0  0  0  0  0  0  0  0  0
  126.0470  123.5480   60.0960 C   0  0  0  0  0  0  0  0  0  0  0  0
  127.2510  123.0320   59.5910 C   0  0  0  0  0  0  0  0  0  0  0  0
  127.3900  122.7590   58.2330 C   0  0  0  0  0  0  0  0  0  0  0  0
  126.3310  122.9930   57.3460 C   0  0  0  0  0  0  0  0  0  0  0  0
  126.4790  122.6990   55.9000 N   0  0  0  0  0  0  0  0  0  0  0  0
  125.6710  123.1860   55.1140 O   0  0  0  0  0  0  0  0  0  0  0  0
  127.4070  121.9810   55.5370 O   0  0  0  0  0  0  0  0  0  0  0  0
  125.1310  123.5100   57.8500 C   0  0  0  0  0  0  0  0  0  0  0  0
  124.9910  123.7840   59.2070 C   0  0  0  0  0  0  0  0  0  0  0  0
  127.9845  125.5062   63.3533 H   0  0  0  0  0  0  0  0  0  0  0  0
  128.5812  121.6458   63.3375 H   0  0  0  0  0  0  0  0  0  0  0  0
  128.2840  123.0376   65.8016 H   0  0  0  0  0  0  0  0  0  0  0  0
  129.0616  121.4603   65.4606 H   0  0  0  0  0  0  0  0  0  0  0  0
  131.8772  121.9620   66.1436 H   0  0  0  0  0  0  0  0  0  0  0  0
  131.0356  121.3141   64.6921 H   0  0  0  0  0  0  0  0  0  0  0  0
  133.1470  121.0334   63.4535 H   0  0  0  0  0  0  0  0  0  0  0  0
  134.8251  122.1383   61.9735 H   0  0  0  0  0  0  0  0  0  0  0  0
  135.0370  124.6206   61.9786 H   0  0  0  0  0  0  0  0  0  0  0  0
  133.5829  126.0076   63.4494 H   0  0  0  0  0  0  0  0  0  0  0  0
  131.9014  124.9059   64.9261 H   0  0  0  0  0  0  0  0  0  0  0  0
  130.4084  124.0004   63.4803 H   0  0  0  0  0  0  0  0  0  0  0  0
  129.2073  120.9713   62.3126 H   0  0  0  0  0  0  0  0  0  0  0  0
  129.3810  121.6428   60.6517 H   0  0  0  0  0  0  0  0  0  0  0  0
  132.4455  121.7235   60.6085 H   0  0  0  0  0  0  0  0  0  0  0  0
  134.1329  119.9733   60.0519 H   0  0  0  0  0  0  0  0  0  0  0  0
  133.5739  117.5669   60.3721 H   0  0  0  0  0  0  0  0  0  0  0  0
  131.3367  116.8953   61.2317 H   0  0  0  0  0  0  0  0  0  0  0  0
  129.6432  118.6424   61.7849 H   0  0  0  0  0  0  0  0  0  0  0  0
  128.5704  123.6355   60.9492 H   0  0  0  0  0  0  0  0  0  0  0  0
  128.9846  124.6093   59.4632 H   0  0  0  0  0  0  0  0  0  0  0  0
  129.3524  126.3672   59.5814 H   0  0  0  0  0  0  0  0  0  0  0  0
  131.4896  123.5430   60.8286 H   0  0  0  0  0  0  0  0  0  0  0  0
  133.7944  123.1173   59.9726 H   0  0  0  0  0  0  0  0  0  0  0  0
  134.6625  124.4319   58.0450 H   0  0  0  0  0  0  0  0  0  0  0  0
  133.2445  126.1674   56.9603 H   0  0  0  0  0  0  0  0  0  0  0  0
  130.9378  126.5965   57.8121 H   0  0  0  0  0  0  0  0  0  0  0  0
  128.0918  122.8418   60.2743 H   0  0  0  0  0  0  0  0  0  0  0  0
  128.3402  122.3558   57.8528 H   0  0  0  0  0  0  0  0  0  0  0  0
  124.2908  123.7014   57.1663 H   0  0  0  0  0  0  0  0  0  0  0  0
  124.0413  124.1901   59.5853 H   0  0  0  0  0  0  0  0  0  0  0  0
  1  2  2  0
  2  3  1  0
  3  4  1  0
  4  5  1  0
  5  6  1  0
  6  7  1  0
  7  8  1  0
  8  9  1  0
  9 10  1  0
 10 11  2  0
 11 12  1  0
 12 13  2  0
 13 14  1  0
 14 15  2  0
  6 16  1  0
 16 17  1  0
 17 18  1  0
 18 19  1  0
 19 20  2  0
 20 21  1  0
 21 22  2  0
 22 23  1  0
 23 24  2  0
 16 25  1  0
 25 26  1  0
 26 27  1  0
 27 28  1  0
 28 29  2  0
 29 30  1  0
 30 31  2  0
 31 32  1  0
 32 33  2  0
  2 34  1  0
 34 35  2  0
 35 36  1  0
 36 37  2  0
 37 38  1  0
 38 39  2  0
 38 40  1  0
 37 41  1  0
 41 42  2  0
 25  4  1  0
 33 28  1  0
 42 34  1  0
 15 10  1  0
 24 19  1  0
  4 43  1  1
  6 44  1  6
  7 45  1  0
  7 46  1  0
  9 47  1  0
  9 48  1  0
 11 49  1  0
 12 50  1  0
 13 51  1  0
 14 52  1  0
 15 53  1  0
 16 54  1  1
 18 55  1  0
 18 56  1  0
 20 57  1  0
 21 58  1  0
 22 59  1  0
 23 60  1  0
 24 61  1  0
 25 62  1  6
 27 63  1  0
 27 64  1  0
 29 65  1  0
 30 66  1  0
 31 67  1  0
 32 68  1  0
 33 69  1  0
 35 70  1  0
 36 71  1  0
 41 72  1  0
 42 73  1  0
M  CHG  2  38   1  40  -1
M  END
>  <Binding energies>  (1) 
[-11.38]

>  <Ligand effiencies>  (1) 
[-0.27095238095238094]

>  <Interactions>  (1) 
["V-A:ASP:366:CG:3212, V-A:ASP:366:CB:3211, V-B:GLU:543:CD:9879, V-B:PRO:540:N:9855, H-B:ALA:541:N:9862, H-A:TYR:484:OH:4347, V-B:ALA:541:CB:9863, V-B:PRO:540:CA:9854, V-B:ALA:541:CA:9861, V-B:TYR:539:C:9838, V-A:LEU:475:CD2:4258, V-A:ILE:369:CD1:3238, V-B:TYR:539:CD2:9845, V-A:ILE:369:CG2:3236, V-B:TYR:539:CE2:9847, V-A:SER:385:CA:3406, V-A:SER:385:CB:3408, V-A:GLY:454:CA:4048, H-B:TYR:539:N:9841, V-B:MET:535:CE:9806, V-B:TYR:539:CZ:9848, V-B:GLU:543:CG:9878, V-A:LEU:475:CD1:4257, V-B:PRO:540:CB:9856, V-A:GLY:453:C:4041, V-B:LEU:363:CD1:8159, V-B:ILE:538:CA:9831, V-A:GLY:453:CA:4043, V-A:TYR:484:CZ:4346, V-A:TYR:484:CE2:4345, H-B:TYR:531:OH:9766, V-B:MET:535:CG:9804, V-A:ILE:369:CB:3235, V-A:LEU:475:CG:4256, V-A:ASP:366:CA:3209, V-A:ASP:366:C:3207"]

$$$$
RR8_B_Rahimova_2017
     RDKit          3D

 73 77  0  0  0  0  0  0  0  0999 V2000
  128.6460  125.5260   63.3350 O   0  0  0  0  0  0  0  0  0  0  0  0
  128.4640  125.3030   62.1340 C   0  0  0  0  0  0  0  0  0  0  0  0
  127.2390  125.0910   61.5640 O   0  0  0  0  0  0  0  0  0  0  0  0
  126.6440  123.8260   61.7210 C   0  0  2  0  0  0  0  0  0  0  0  0
  126.8760  123.2940   62.9940 O   0  0  0  0  0  0  0  0  0  0  0  0
  128.0540  122.4890   63.0170 C   0  0  2  0  0  0  0  0  0  0  0  0
  129.0370  123.0480   64.0620 C   0  0  0  0  0  0  0  0  0  0  0  0
  130.0260  122.0660   64.3450 O   0  0  0  0  0  0  0  0  0  0  0  0
  131.1170  122.5250   65.1300 C   0  0  0  0  0  0  0  0  0  0  0  0
  132.2260  123.0110   64.2100 C   0  0  0  0  0  0  0  0  0  0  0  0
  132.8630  122.1090   63.3530 C   0  0  0  0  0  0  0  0  0  0  0  0
  133.8960  122.5420   62.5260 C   0  0  0  0  0  0  0  0  0  0  0  0
  134.2880  123.8790   62.5570 C   0  0  0  0  0  0  0  0  0  0  0  0
  133.6540  124.7860   63.4040 C   0  0  0  0  0  0  0  0  0  0  0  0
  132.6230  124.3520   64.2330 C   0  0  0  0  0  0  0  0  0  0  0  0
  128.5520  122.5040   61.5680 C   0  0  1  0  0  0  0  0  0  0  0  0
  129.1230  121.2350   61.2370 O   0  0  0  0  0  0  0  0  0  0  0  0
  130.5460  121.1740   61.1160 C   0  0  0  0  0  0  0  0  0  0  0  0
  131.0650  119.7390   61.1160 C   0  0  0  0  0  0  0  0  0  0  0  0
  130.2290  118.6910   61.5120 C   0  0  0  0  0  0  0  0  0  0  0  0
  130.6950  117.3800   61.4790 C   0  0  0  0  0  0  0  0  0  0  0  0
  131.9970  117.1210   61.0550 C   0  0  0  0  0  0  0  0  0  0  0  0
  132.8370  118.1610   60.6630 C   0  0  0  0  0  0  0  0  0  0  0  0
  132.3700  119.4730   60.6920 C   0  0  0  0  0  0  0  0  0  0  0  0
  127.3000  122.8320   60.7630 C   0  0  2  0  0  0  0  0  0  0  0  0
  127.6530  123.3960   59.5020 O   0  0  0  0  0  0  0  0  0  0  0  0
  126.6130  124.0840   58.8250 C   0  0  0  0  0  0  0  0  0  0  0  0
  126.3200  123.3470   57.5290 C   0  0  0  0  0  0  0  0  0  0  0  0
  127.3560  122.7470   56.8090 C   0  0  0  0  0  0  0  0  0  0  0  0
  127.0780  122.0900   55.6130 C   0  0  0  0  0  0  0  0  0  0  0  0
  125.7690  122.0370   55.1410 C   0  0  0  0  0  0  0  0  0  0  0  0
  124.7310  122.6320   55.8560 C   0  0  0  0  0  0  0  0  0  0  0  0
  125.0070  123.2880   57.0520 C   0  0  0  0  0  0  0  0  0  0  0  0
  129.5840  125.1980   61.1390 C   0  0  0  0  0  0  0  0  0  0  0  0
  130.8180  124.6220   61.4730 C   0  0  0  0  0  0  0  0  0  0  0  0
  131.8400  124.5470   60.5340 C   0  0  0  0  0  0  0  0  0  0  0  0
  131.6600  125.0540   59.2410 C   0  0  0  0  0  0  0  0  0  0  0  0
  132.7620  124.9960   58.2480 N   0  0  0  0  0  0  0  0  0  0  0  0
  133.6120  124.1180   58.3630 O   0  0  0  0  0  0  0  0  0  0  0  0
  132.7810  125.8260   57.3420 O   0  0  0  0  0  0  0  0  0  0  0  0
  130.4250  125.6240   58.9060 C   0  0  0  0  0  0  0  0  0  0  0  0
  129.3990  125.6930   59.8420 C   0  0  0  0  0  0  0  0  0  0  0  0
  125.5680  123.9648   61.5397 H   0  0  0  0  0  0  0  0  0  0  0  0
  127.9005  121.4463   63.3320 H   0  0  0  0  0  0  0  0  0  0  0  0
  129.5201  123.9533   63.6656 H   0  0  0  0  0  0  0  0  0  0  0  0
  128.4926  123.3010   64.9837 H   0  0  0  0  0  0  0  0  0  0  0  0
  130.7843  123.3524   65.7741 H   0  0  0  0  0  0  0  0  0  0  0  0
  131.4916  121.7033   65.7581 H   0  0  0  0  0  0  0  0  0  0  0  0
  132.5477  121.0554   63.3319 H   0  0  0  0  0  0  0  0  0  0  0  0
  134.3996  121.8331   61.8523 H   0  0  0  0  0  0  0  0  0  0  0  0
  135.1060  124.2218   61.9064 H   0  0  0  0  0  0  0  0  0  0  0  0
  133.9668  125.8405   63.4176 H   0  0  0  0  0  0  0  0  0  0  0  0
  132.1211  125.0632   64.9055 H   0  0  0  0  0  0  0  0  0  0  0  0
  129.3512  123.2332   61.3690 H   0  0  0  0  0  0  0  0  0  0  0  0
  130.8421  121.6575   60.1734 H   0  0  0  0  0  0  0  0  0  0  0  0
  130.9806  121.6896   61.9851 H   0  0  0  0  0  0  0  0  0  0  0  0
  129.2036  118.9023   61.8494 H   0  0  0  0  0  0  0  0  0  0  0  0
  130.0388  116.5523   61.7861 H   0  0  0  0  0  0  0  0  0  0  0  0
  132.3652  116.0848   61.0296 H   0  0  0  0  0  0  0  0  0  0  0  0
  133.8640  117.9471   60.3322 H   0  0  0  0  0  0  0  0  0  0  0  0
  133.0273  120.2986   60.3816 H   0  0  0  0  0  0  0  0  0  0  0  0
  126.6501  121.9882   60.4882 H   0  0  0  0  0  0  0  0  0  0  0  0
  125.7103  124.1053   59.4533 H   0  0  0  0  0  0  0  0  0  0  0  0
  126.9184  125.1191   58.6123 H   0  0  0  0  0  0  0  0  0  0  0  0
  128.3884  122.7934   57.1857 H   0  0  0  0  0  0  0  0  0  0  0  0
  127.8898  121.6145   55.0430 H   0  0  0  0  0  0  0  0  0  0  0  0
  125.5520  121.5204   54.1944 H   0  0  0  0  0  0  0  0  0  0  0  0
  123.6995  122.5834   55.4771 H   0  0  0  0  0  0  0  0  0  0  0  0
  124.1928  123.7597   57.6216 H   0  0  0  0  0  0  0  0  0  0  0  0
  130.9786  124.2262   62.4867 H   0  0  0  0  0  0  0  0  0  0  0  0
  132.7996  124.0849   60.8091 H   0  0  0  0  0  0  0  0  0  0  0  0
  130.2653  126.0209   57.8926 H   0  0  0  0  0  0  0  0  0  0  0  0
  128.4339  126.1401   59.5614 H   0  0  0  0  0  0  0  0  0  0  0  0
  1  2  2  0
  2  3  1  0
  3  4  1  0
  4  5  1  0
  5  6  1  0
  6  7  1  0
  7  8  1  0
  8  9  1  0
  9 10  1  0
 10 11  2  0
 11 12  1  0
 12 13  2  0
 13 14  1  0
 14 15  2  0
  6 16  1  0
 16 17  1  0
 17 18  1  0
 18 19  1  0
 19 20  2  0
 20 21  1  0
 21 22  2  0
 22 23  1  0
 23 24  2  0
 16 25  1  0
 25 26  1  0
 26 27  1  0
 27 28  1  0
 28 29  2  0
 29 30  1  0
 30 31  2  0
 31 32  1  0
 32 33  2  0
  2 34  1  0
 34 35  2  0
 35 36  1  0
 36 37  2  0
 37 38  1  0
 38 39  2  0
 38 40  1  0
 37 41  1  0
 41 42  2  0
 25  4  1  0
 33 28  1  0
 42 34  1  0
 15 10  1  0
 24 19  1  0
  4 43  1  6
  6 44  1  1
  7 45  1  0
  7 46  1  0
  9 47  1  0
  9 48  1  0
 11 49  1  0
 12 50  1  0
 13 51  1  0
 14 52  1  0
 15 53  1  0
 16 54  1  1
 18 55  1  0
 18 56  1  0
 20 57  1  0
 21 58  1  0
 22 59  1  0
 23 60  1  0
 24 61  1  0
 25 62  1  6
 27 63  1  0
 27 64  1  0
 29 65  1  0
 30 66  1  0
 31 67  1  0
 32 68  1  0
 33 69  1  0
 35 70  1  0
 36 71  1  0
 41 72  1  0
 42 73  1  0
M  CHG  2  38   1  40  -1
M  END
>  <Binding energies>  (1) 
[-10.24]

>  <Ligand effiencies>  (1) 
[-0.2438095238095238]

>  <Interactions>  (1) 
["V-A:ASP:366:CG:3212, V-A:ASP:366:CB:3211, V-B:GLU:543:CD:9879, V-B:PRO:540:N:9855, H-B:ALA:541:N:9862, V-B:ALA:541:CB:9863, V-B:PRO:540:CA:9854, V-B:ALA:541:CA:9861, V-B:PRO:540:C:9852, V-B:TYR:539:C:9838, V-A:LEU:475:CD2:4258, V-A:PRO:482:CG:4326, V-A:HIS:383:CE1:3393, V-A:ILE:369:CD1:3238, V-B:TYR:539:CD2:9845, V-B:TYR:539:CE2:9847, V-A:SER:385:CA:3406, V-A:SER:385:CB:3408, V-A:GLY:454:CA:4048, V-A:THR:477:CG2:4272, V-B:MET:535:CE:9806, H-B:TYR:539:OH:9849, V-B:TYR:539:CZ:9848, V-A:PRO:482:CB:4325, V-B:GLU:543:CG:9878, V-A:LEU:475:CD1:4257, V-B:ALA:541:C:9859, V-B:PRO:540:CB:9856, V-A:GLY:453:C:4041, V-B:TYR:539:CD1:9844, V-B:TYR:531:CZ:9765, V-B:TYR:531:CE2:9764, V-B:LEU:363:CD1:8159, V-B:ILE:538:CD1:9836, V-B:ILE:538:CG2:9834, V-B:ILE:538:CA:9831, V-B:TYR:539:CE1:9846, V-B:ILE:538:CG1:9835, V-B:ILE:538:C:9829, V-B:ILE:538:CB:9833, V-A:TYR:484:CZ:4346, V-A:TYR:484:CE2:4345, V-B:MET:535:CG:9804, V-A:VAL:384:C:3396, V-A:ASP:366:CA:3209"]

$$$$
RR9_Rahimova_2017
     RDKit          3D

 64 68  0  0  0  0  0  0  0  0999 V2000
  124.6560  130.9160   55.5980 C   0  0  0  0  0  0  0  0  0  0  0  0
  125.0350  130.8330   54.1160 C   0  0  0  0  0  0  0  0  0  0  0  0
  126.4500  130.9430   53.9990 O   0  0  0  0  0  0  0  0  0  0  0  0
  127.2600  130.1280   54.7660 C   0  0  0  0  0  0  0  0  0  0  0  0
  126.9940  128.7610   54.7160 C   0  0  0  0  0  0  0  0  0  0  0  0
  127.7560  127.8630   55.4570 C   0  0  0  0  0  0  0  0  0  0  0  0
  128.8080  128.3090   56.2710 C   0  0  0  0  0  0  0  0  0  0  0  0
  129.6300  127.3460   57.0760 C   0  0  0  0  0  0  0  0  0  0  0  0
  129.1370  126.7630   58.2540 C   0  0  0  0  0  0  0  0  0  0  0  0
  129.9060  125.8510   58.9980 C   0  0  0  0  0  0  0  0  0  0  0  0
  129.2850  125.1850   60.1950 C   0  0  0  0  0  0  0  0  0  0  0  0
  129.9840  124.8310   61.1450 O   0  0  0  0  0  0  0  0  0  0  0  0
  127.9520  124.9920   60.1320 N   0  0  0  0  0  0  0  0  0  0  0  0
  127.1430  124.2530   61.1070 C   0  0  0  0  0  0  0  0  0  0  0  0
  125.9520  123.5060   60.4630 C   0  0  0  0  0  0  0  0  0  0  0  0
  126.0920  123.2550   58.9660 C   0  0  0  0  0  0  0  0  0  0  0  0
  127.2900  122.7550   58.4470 C   0  0  0  0  0  0  0  0  0  0  0  0
  127.4030  122.4940   57.0840 C   0  0  0  0  0  0  0  0  0  0  0  0
  126.3190  122.7380   56.2430 C   0  0  0  0  0  0  0  0  0  0  0  0
  125.1230  123.2400   56.7530 C   0  0  0  0  0  0  0  0  0  0  0  0
  125.0090  123.5000   58.1160 C   0  0  0  0  0  0  0  0  0  0  0  0
  131.2090  125.5850   58.5100 C   0  0  0  0  0  0  0  0  0  0  0  0
  132.3700  124.8080   58.8770 C   0  0  0  0  0  0  0  0  0  0  0  0
  132.6110  123.9810   60.0960 C   0  0  0  0  0  0  0  0  0  0  0  0
  131.8410  122.8400   60.3370 C   0  0  0  0  0  0  0  0  0  0  0  0
  132.0560  122.0790   61.4830 C   0  0  0  0  0  0  0  0  0  0  0  0
  133.0470  122.4560   62.3920 C   0  0  0  0  0  0  0  0  0  0  0  0
  133.2700  121.6370   63.6510 C   0  0  0  0  0  0  0  0  0  0  0  0
  133.8170  123.5960   62.1570 C   0  0  0  0  0  0  0  0  0  0  0  0
  133.6010  124.3530   61.0090 C   0  0  0  0  0  0  0  0  0  0  0  0
  133.3060  124.9180   57.9610 N   0  0  0  0  0  0  0  0  0  0  0  0
  132.8690  125.7720   57.0230 N   0  0  0  0  0  0  0  0  0  0  0  0
  131.6020  126.2220   57.3080 C   0  0  0  0  0  0  0  0  0  0  0  0
  130.8750  127.0790   56.5920 N   0  0  0  0  0  0  0  0  0  0  0  0
  129.0680  129.6860   56.3180 C   0  0  0  0  0  0  0  0  0  0  0  0
  128.3070  130.5870   55.5760 C   0  0  0  0  0  0  0  0  0  0  0  0
  125.5453  130.7212   56.2154 H   0  0  0  0  0  0  0  0  0  0  0  0
  124.2674  131.9205   55.8214 H   0  0  0  0  0  0  0  0  0  0  0  0
  123.8831  130.1658   55.8214 H   0  0  0  0  0  0  0  0  0  0  0  0
  124.7034  129.8690   53.7027 H   0  0  0  0  0  0  0  0  0  0  0  0
  124.5488  131.6474   53.5589 H   0  0  0  0  0  0  0  0  0  0  0  0
  126.1739  128.3883   54.0848 H   0  0  0  0  0  0  0  0  0  0  0  0
  127.5303  126.7877   55.4038 H   0  0  0  0  0  0  0  0  0  0  0  0
  128.1272  127.0254   58.6025 H   0  0  0  0  0  0  0  0  0  0  0  0
  127.4500  125.3920   59.3530 H   0  0  0  0  0  0  0  0  0  0  0  0
  127.7871  123.5171   61.6107 H   0  0  0  0  0  0  0  0  0  0  0  0
  126.7275  124.9871   61.8130 H   0  0  0  0  0  0  0  0  0  0  0  0
  125.8458  122.5331   60.9651 H   0  0  0  0  0  0  0  0  0  0  0  0
  125.0733  124.1558   60.5883 H   0  0  0  0  0  0  0  0  0  0  0  0
  128.1433  122.5678   59.1154 H   0  0  0  0  0  0  0  0  0  0  0  0
  128.3431  122.0972   56.6732 H   0  0  0  0  0  0  0  0  0  0  0  0
  126.4081  122.5324   55.1661 H   0  0  0  0  0  0  0  0  0  0  0  0
  124.2727  123.4300   56.0815 H   0  0  0  0  0  0  0  0  0  0  0  0
  124.0680  123.8977   58.5238 H   0  0  0  0  0  0  0  0  0  0  0  0
  131.0626  122.5421   59.6191 H   0  0  0  0  0  0  0  0  0  0  0  0
  131.4467  121.1829   61.6720 H   0  0  0  0  0  0  0  0  0  0  0  0
  133.0979  122.2689   64.5348 H   0  0  0  0  0  0  0  0  0  0  0  0
  132.5702  120.7884   63.6652 H   0  0  0  0  0  0  0  0  0  0  0  0
  134.3034  121.2603   63.6652 H   0  0  0  0  0  0  0  0  0  0  0  0
  134.5926  123.8956   62.8772 H   0  0  0  0  0  0  0  0  0  0  0  0
  134.2123  125.2478   60.8198 H   0  0  0  0  0  0  0  0  0  0  0  0
  133.4500  126.0070   56.2300 H   0  0  0  0  0  0  0  0  0  0  0  0
  129.8859  130.0610   56.9508 H   0  0  0  0  0  0  0  0  0  0  0  0
  128.5292  131.6632   55.6264 H   0  0  0  0  0  0  0  0  0  0  0  0
  1  2  1  0
  2  3  1  0
  3  4  1  0
  4  5  2  0
  5  6  1  0
  6  7  2  0
  7  8  1  0
  8  9  2  0
  9 10  1  0
 10 11  1  0
 11 12  2  0
 11 13  1  0
 13 14  1  0
 14 15  1  0
 15 16  1  0
 16 17  2  0
 17 18  1  0
 18 19  2  0
 19 20  1  0
 20 21  2  0
 10 22  2  0
 22 23  1  0
 23 24  1  0
 24 25  2  0
 25 26  1  0
 26 27  2  0
 27 28  1  0
 27 29  1  0
 29 30  2  0
 23 31  2  0
 31 32  1  0
 32 33  1  0
 33 34  2  0
  7 35  1  0
 35 36  2  0
 36  4  1  0
 34  8  1  0
 21 16  1  0
 33 22  1  0
 30 24  1  0
  1 37  1  0
  1 38  1  0
  1 39  1  0
  2 40  1  0
  2 41  1  0
  5 42  1  0
  6 43  1  0
  9 44  1  0
 13 45  1  0
 14 46  1  0
 14 47  1  0
 15 48  1  0
 15 49  1  0
 17 50  1  0
 18 51  1  0
 19 52  1  0
 20 53  1  0
 21 54  1  0
 25 55  1  0
 26 56  1  0
 28 57  1  0
 28 58  1  0
 28 59  1  0
 29 60  1  0
 30 61  1  0
 32 62  1  0
 35 63  1  0
 36 64  1  0
M  END
>  <Binding energies>  (1) 
[-9.27]

>  <Ligand effiencies>  (1) 
[-0.2439473684210526]

>  <Interactions>  (1) 
["V-A:ASP:366:CG:3212, V-A:ASP:366:CB:3211, H-A:TYR:531:OH:4794, V-B:PRO:540:N:9855, V-B:PRO:540:CA:9854, V-B:TYR:539:C:9838, V-A:LEU:475:CD2:4258, V-A:ILE:369:CD1:3238, V-B:TYR:539:CD2:9845, V-B:TYR:539:CE2:9847, V-A:GLY:454:CA:4048, V-B:TYR:539:CG:9843, V-B:MET:535:CE:9806, H-B:TYR:539:OH:9849, V-B:TYR:539:CZ:9848, V-B:PRO:540:CB:9856, V-B:TYR:539:CA:9840, V-B:TYR:539:CD1:9844, V-B:TYR:531:CZ:9765, V-B:TYR:531:CE2:9764, V-B:LEU:363:CD1:8159, V-A:MET:535:CE:4834, H-A:ASP:366:O:3208, V-A:TYR:531:CE1:4791, V-B:TYR:531:CE1:9763, H-A:TYR:539:OH:4877, V-A:ASP:366:CA:3209, V-A:ASP:366:C:3207, V-A:ASN:370:CB:3244, V-B:ASN:370:CB:8215, H-B:LYS:534:NZ:9794, V-B:ASN:370:CG:8216, V-B:TYR:531:CD1:9761"]

$$$$
1a_Ghoteimi_2023
     RDKit          3D

 67 70  0  0  0  0  0  0  0  0999 V2000
  131.2370  128.7650   73.1280 C   0  0  0  0  0  0  0  0  0  0  0  0
  129.8860  128.6250   73.8360 C   0  0  0  0  0  0  0  0  0  0  0  0
  129.3430  127.3390   73.5640 O   0  0  0  0  0  0  0  0  0  0  0  0
  128.2970  127.1850   72.7120 C   0  0  0  0  0  0  0  0  0  0  0  0
  127.1160  127.2030   73.0740 O   0  0  0  0  0  0  0  0  0  0  0  0
  128.7190  126.9960   71.2840 C   0  0  0  0  0  0  0  0  0  0  0  0
  128.7190  125.7340   70.6710 C   0  0  0  0  0  0  0  0  0  0  0  0
  129.1190  125.5890   69.3450 C   0  0  0  0  0  0  0  0  0  0  0  0
  129.5230  126.7100   68.6040 C   0  0  0  0  0  0  0  0  0  0  0  0
  129.9500  126.6780   67.2630 N   0  0  0  0  0  0  0  0  0  0  0  0
  131.1820  126.4620   66.7520 C   0  0  0  0  0  0  0  0  0  0  0  0
  132.1980  126.2270   67.4060 O   0  0  0  0  0  0  0  0  0  0  0  0
  131.2790  126.5150   65.2270 C   0  0  0  0  0  0  0  0  0  0  0  0
  132.7160  125.5890   64.6120 S   0  0  0  0  0  0  0  0  0  0  0  0
  132.1770  124.7620   63.1340 C   0  0  0  0  0  0  0  0  0  0  0  0
  131.7970  125.6020   62.1410 N   0  0  0  0  0  0  0  0  0  0  0  0
  131.3680  125.0960   60.9550 C   0  0  0  0  0  0  0  0  0  0  0  0
  130.9850  126.0910   59.8990 C   0  0  0  0  0  0  0  0  0  0  0  0
  130.2080  127.2200   60.2070 C   0  0  0  0  0  0  0  0  0  0  0  0
  129.8550  128.1420   59.2250 C   0  0  0  0  0  0  0  0  0  0  0  0
  130.2650  127.9640   57.9060 C   0  0  0  0  0  0  0  0  0  0  0  0
  129.8700  128.9300   56.9990 O   0  0  0  0  0  0  0  0  0  0  0  0
  129.4500  130.2020   57.4790 C   0  0  0  0  0  0  0  0  0  0  0  0
  131.0370  126.8400   57.5810 C   0  0  0  0  0  0  0  0  0  0  0  0
  131.3880  125.9210   58.5650 C   0  0  0  0  0  0  0  0  0  0  0  0
  131.3120  123.7120   60.7500 C   0  0  0  0  0  0  0  0  0  0  0  0
  131.6760  122.8230   61.7700 C   0  0  0  0  0  0  0  0  0  0  0  0
  131.5610  121.3600   61.4910 C   0  0  0  0  0  0  0  0  0  0  0  0
  132.6280  120.6510   60.9280 C   0  0  0  0  0  0  0  0  0  0  0  0
  132.5180  119.2850   60.6840 C   0  0  0  0  0  0  0  0  0  0  0  0
  131.3460  118.5990   61.0040 C   0  0  0  0  0  0  0  0  0  0  0  0
  131.3290  117.2460   60.7280 O   0  0  0  0  0  0  0  0  0  0  0  0
  130.2430  116.7030   59.9860 C   0  0  0  0  0  0  0  0  0  0  0  0
  130.2770  119.3050   61.5770 C   0  0  0  0  0  0  0  0  0  0  0  0
  130.3890  120.6720   61.8190 C   0  0  0  0  0  0  0  0  0  0  0  0
  132.1270  123.3580   63.0010 C   0  0  0  0  0  0  0  0  0  0  0  0
  132.5350  122.4780   64.1010 C   0  0  0  0  0  0  0  0  0  0  0  0
  132.8580  121.7820   64.9680 N   0  0  0  0  0  0  0  0  0  0  0  0
  129.5280  127.9650   69.2120 C   0  0  0  0  0  0  0  0  0  0  0  0
  129.1280  128.1090   70.5390 C   0  0  0  0  0  0  0  0  0  0  0  0
  132.0372  128.8479   73.8782 H   0  0  0  0  0  0  0  0  0  0  0  0
  131.4146  127.8804   72.4987 H   0  0  0  0  0  0  0  0  0  0  0  0
  131.2294  129.6672   72.4987 H   0  0  0  0  0  0  0  0  0  0  0  0
  130.0258  128.7427   74.9207 H   0  0  0  0  0  0  0  0  0  0  0  0
  129.1967  129.4005   73.4706 H   0  0  0  0  0  0  0  0  0  0  0  0
  128.3999  124.8505   71.2434 H   0  0  0  0  0  0  0  0  0  0  0  0
  129.1182  124.5933   68.8774 H   0  0  0  0  0  0  0  0  0  0  0  0
  129.2080  126.8070   66.5920 H   0  0  0  0  0  0  0  0  0  0  0  0
  130.3645  126.0811   64.7964 H   0  0  0  0  0  0  0  0  0  0  0  0
  131.3954  127.5670   64.9273 H   0  0  0  0  0  0  0  0  0  0  0  0
  129.8724  127.3786   61.2425 H   0  0  0  0  0  0  0  0  0  0  0  0
  129.2470  129.0185   59.4934 H   0  0  0  0  0  0  0  0  0  0  0  0
  129.4515  130.1976   58.5790 H   0  0  0  0  0  0  0  0  0  0  0  0
  130.1398  130.9775   57.1145 H   0  0  0  0  0  0  0  0  0  0  0  0
  128.4341  130.4143   57.1145 H   0  0  0  0  0  0  0  0  0  0  0  0
  131.3668  126.6838   56.5433 H   0  0  0  0  0  0  0  0  0  0  0  0
  131.9932  125.0439   58.2923 H   0  0  0  0  0  0  0  0  0  0  0  0
  130.9788  123.3187   59.7783 H   0  0  0  0  0  0  0  0  0  0  0  0
  133.5607  121.1771   60.6764 H   0  0  0  0  0  0  0  0  0  0  0  0
  133.3625  118.7416   60.2350 H   0  0  0  0  0  0  0  0  0  0  0  0
  129.4795  116.3212   60.6797 H   0  0  0  0  0  0  0  0  0  0  0  0
  129.8033  117.4873   59.3523 H   0  0  0  0  0  0  0  0  0  0  0  0
  130.6067  115.8807   59.3523 H   0  0  0  0  0  0  0  0  0  0  0  0
  129.3474  118.7769   61.8359 H   0  0  0  0  0  0  0  0  0  0  0  0
  129.5471  121.2156   62.2726 H   0  0  0  0  0  0  0  0  0  0  0  0
  129.8500  128.8476   68.6399 H   0  0  0  0  0  0  0  0  0  0  0  0
  129.1335  129.1053   71.0053 H   0  0  0  0  0  0  0  0  0  0  0  0
  1  2  1  0
  2  3  1  0
  3  4  1  0
  4  5  2  0
  4  6  1  0
  6  7  2  0
  7  8  1  0
  8  9  2  0
  9 10  1  0
 10 11  1  0
 11 12  2  0
 11 13  1  0
 13 14  1  0
 14 15  1  0
 15 16  2  0
 16 17  1  0
 17 18  1  0
 18 19  2  0
 19 20  1  0
 20 21  2  0
 21 22  1  0
 22 23  1  0
 21 24  1  0
 24 25  2  0
 17 26  2  0
 26 27  1  0
 27 28  1  0
 28 29  2  0
 29 30  1  0
 30 31  2  0
 31 32  1  0
 32 33  1  0
 31 34  1  0
 34 35  2  0
 27 36  2  0
 36 37  1  0
 37 38  3  0
  9 39  1  0
 39 40  2  0
 40  6  1  0
 36 15  1  0
 25 18  1  0
 35 28  1  0
  1 41  1  0
  1 42  1  0
  1 43  1  0
  2 44  1  0
  2 45  1  0
  7 46  1  0
  8 47  1  0
 10 48  1  0
 13 49  1  0
 13 50  1  0
 19 51  1  0
 20 52  1  0
 23 53  1  0
 23 54  1  0
 23 55  1  0
 24 56  1  0
 25 57  1  0
 26 58  1  0
 29 59  1  0
 30 60  1  0
 33 61  1  0
 33 62  1  0
 33 63  1  0
 34 64  1  0
 35 65  1  0
 39 66  1  0
 40 67  1  0
M  END
>  <Binding energies>  (1) 
[-7.92]

>  <Ligand effiencies>  (1) 
[-0.19317073170731708]

>  <Interactions>  (1) 
["V-A:ASP:366:CG:3212, V-A:ASP:366:CB:3211, H-A:TYR:531:OH:4794, V-B:GLU:543:CD:9879, H-A:TYR:484:OH:4347, V-B:ALA:541:CB:9863, H-B:GLU:543:OE2:9881, V-A:LEU:475:CD2:4258, V-A:PRO:482:CG:4326, V-A:HIS:383:CE1:3393, V-B:TYR:539:CD2:9845, V-A:ILE:369:CG2:3236, V-B:TYR:539:CE2:9847, V-B:TYR:539:CB:9842, V-A:SER:385:CA:3406, V-A:GLY:454:CA:4048, V-B:VAL:344:CG1:7971, H-A:HIS:383:ND1:3390, H-A:GLY:454:N:4049, V-A:HIS:456:CE1:4069, V-B:GLU:543:CB:9877, V-A:GLU:543:CD:4907, V-B:HIS:456:CE1:9040, V-B:GLU:543:C:9873, V-A:GLY:544:C:4911, V-A:GLY:544:CA:4913, H-A:ARG:545:NH2:4927, V-A:TYR:484:CE2:4345, V-B:GLU:543:CA:9875"]

$$$$
1a_Grossjean_2025
     RDKit          3D

 45 46  0  0  0  0  0  0  0  0999 V2000
  123.7130  123.9650   58.6340 C   0  0  0  0  0  0  0  0  0  0  0  0
  125.1010  124.4610   58.2190 C   0  0  0  0  0  0  0  0  0  0  0  0
  125.4480  123.8990   56.9600 O   0  0  0  0  0  0  0  0  0  0  0  0
  126.4240  122.9590   56.8570 C   0  0  0  0  0  0  0  0  0  0  0  0
  126.3120  121.9340   56.1790 O   0  0  0  0  0  0  0  0  0  0  0  0
  127.6480  123.2850   57.6640 C   0  0  0  0  0  0  0  0  0  0  0  0
  127.9960  122.4590   58.7410 C   0  0  0  0  0  0  0  0  0  0  0  0
  129.1220  122.7370   59.5100 C   0  0  0  0  0  0  0  0  0  0  0  0
  129.9210  123.8440   59.2230 C   0  0  0  0  0  0  0  0  0  0  0  0
  131.0330  124.0300   60.0680 N   0  0  0  0  0  0  0  0  0  0  0  0
  132.3340  124.2210   59.7610 C   0  0  0  0  0  0  0  0  0  0  0  0
  132.8010  124.2690   58.6230 O   0  0  0  0  0  0  0  0  0  0  0  0
  133.2720  124.3860   60.9590 C   0  0  0  0  0  0  0  0  0  0  0  0
  133.7370  122.7880   61.6910 S   0  0  0  0  0  0  0  0  0  0  0  0
  132.2790  121.7700   61.7210 C   0  0  0  0  0  0  0  0  0  0  0  0
  131.2000  122.3740   62.2780 N   0  0  0  0  0  0  0  0  0  0  0  0
  130.0370  121.6860   62.3570 C   0  0  0  0  0  0  0  0  0  0  0  0
  128.8780  122.4210   63.0040 C   0  0  0  0  0  0  0  0  0  0  0  0
  129.8990  120.3850   61.8790 C   0  0  0  0  0  0  0  0  0  0  0  0
  131.0000  119.7590   61.2840 C   0  0  0  0  0  0  0  0  0  0  0  0
  130.8210  118.3380   60.7530 C   0  0  0  0  0  0  0  0  0  0  0  0
  132.2240  120.4600   61.1870 C   0  0  0  0  0  0  0  0  0  0  0  0
  133.3770  119.8440   60.5240 C   0  0  0  0  0  0  0  0  0  0  0  0
  134.2850  119.3550   60.0000 N   0  0  0  0  0  0  0  0  0  0  0  0
  129.5850  124.6720   58.1410 C   0  0  0  0  0  0  0  0  0  0  0  0
  128.4580  124.3930   57.3730 C   0  0  0  0  0  0  0  0  0  0  0  0
  123.6453  123.9408   59.7316 H   0  0  0  0  0  0  0  0  0  0  0  0
  122.9461  124.6447   58.2342 H   0  0  0  0  0  0  0  0  0  0  0  0
  123.5505  122.9532   58.2342 H   0  0  0  0  0  0  0  0  0  0  0  0
  125.0900  125.5581   58.1403 H   0  0  0  0  0  0  0  0  0  0  0  0
  125.8406  124.1550   58.9736 H   0  0  0  0  0  0  0  0  0  0  0  0
  127.3742  121.5838   58.9805 H   0  0  0  0  0  0  0  0  0  0  0  0
  129.3842  122.0784   60.3511 H   0  0  0  0  0  0  0  0  0  0  0  0
  130.8010  124.0520   61.0500 H   0  0  0  0  0  0  0  0  0  0  0  0
  134.1845  124.9023   60.6262 H   0  0  0  0  0  0  0  0  0  0  0  0
  132.7408  124.9678   61.7267 H   0  0  0  0  0  0  0  0  0  0  0  0
  128.9714  122.3618   64.0984 H   0  0  0  0  0  0  0  0  0  0  0  0
  128.8922  123.4755   62.6913 H   0  0  0  0  0  0  0  0  0  0  0  0
  127.9302  121.9586   62.6913 H   0  0  0  0  0  0  0  0  0  0  0  0
  128.9381  119.8571   61.9680 H   0  0  0  0  0  0  0  0  0  0  0  0
  130.7330  117.6392   61.5979 H   0  0  0  0  0  0  0  0  0  0  0  0
  129.9095  118.2880   60.1393 H   0  0  0  0  0  0  0  0  0  0  0  0
  131.6917  118.0635   60.1393 H   0  0  0  0  0  0  0  0  0  0  0  0
  130.2128  125.5424   57.8995 H   0  0  0  0  0  0  0  0  0  0  0  0
  128.1996  125.0487   56.5284 H   0  0  0  0  0  0  0  0  0  0  0  0
  1  2  1  0
  2  3  1  0
  3  4  1  0
  4  5  2  0
  4  6  1  0
  6  7  2  0
  7  8  1  0
  8  9  2  0
  9 10  1  0
 10 11  1  0
 11 12  2  0
 11 13  1  0
 13 14  1  0
 14 15  1  0
 15 16  2  0
 16 17  1  0
 17 18  1  0
 17 19  2  0
 19 20  1  0
 20 21  1  0
 20 22  2  0
 22 23  1  0
 23 24  3  0
  9 25  1  0
 25 26  2  0
 26  6  1  0
 22 15  1  0
  1 27  1  0
  1 28  1  0
  1 29  1  0
  2 30  1  0
  2 31  1  0
  7 32  1  0
  8 33  1  0
 10 34  1  0
 13 35  1  0
 13 36  1  0
 18 37  1  0
 18 38  1  0
 18 39  1  0
 19 40  1  0
 21 41  1  0
 21 42  1  0
 21 43  1  0
 25 44  1  0
 26 45  1  0
M  END
>  <Binding energies>  (1) 
[-8.17]

>  <Ligand effiencies>  (1) 
[-0.3025925925925926]

>  <Interactions>  (1) 
["V-A:ASP:366:CG:3212, V-B:PRO:540:N:9855, V-B:ALA:541:CB:9863, V-B:PRO:540:CA:9854, V-B:ALA:541:CA:9861, V-B:TYR:539:C:9838, V-A:LEU:475:CD2:4258, V-A:ILE:369:CD1:3238, V-B:TYR:539:CD2:9845, V-A:ILE:369:CG2:3236, V-B:TYR:539:CE2:9847, V-B:TYR:539:CB:9842, V-A:SER:385:CA:3406, H-B:TYR:539:N:9841, V-B:TYR:539:CG:9843, V-B:MET:535:CE:9806, H-B:TYR:539:OH:9849, V-B:TYR:539:CZ:9848, V-B:PRO:540:CB:9856, V-B:LEU:363:CD1:8159, H-B:TYR:531:OH:9766, V-B:LEU:363:CA:8155, V-B:LEU:363:CB:8157"]

$$$$
1aa_Ghoteimi_2023
     RDKit          3D

 67 70  0  0  0  0  0  0  0  0999 V2000
  130.8840  117.4850   60.8830 C   0  0  0  0  0  0  0  0  0  0  0  0
  132.1710  118.0900   60.3150 C   0  0  0  0  0  0  0  0  0  0  0  0
  132.1360  119.5040   60.4630 O   0  0  0  0  0  0  0  0  0  0  0  0
  133.2090  120.1850   60.9400 C   0  0  0  0  0  0  0  0  0  0  0  0
  134.3730  119.9420   60.6070 O   0  0  0  0  0  0  0  0  0  0  0  0
  132.8400  121.2660   61.9150 C   0  0  0  0  0  0  0  0  0  0  0  0
  131.5090  121.5020   62.2930 C   0  0  0  0  0  0  0  0  0  0  0  0
  131.1970  122.5120   63.2010 C   0  0  0  0  0  0  0  0  0  0  0  0
  132.2150  123.3050   63.7500 C   0  0  0  0  0  0  0  0  0  0  0  0
  132.0200  124.3500   64.6710 N   0  0  0  0  0  0  0  0  0  0  0  0
  132.8640  125.3230   65.0860 C   0  0  0  0  0  0  0  0  0  0  0  0
  134.0210  125.4650   64.6910 O   0  0  0  0  0  0  0  0  0  0  0  0
  132.3310  126.3220   66.1240 C   0  0  0  0  0  0  0  0  0  0  0  0
  131.0900  125.8610   66.6740 O   0  0  0  0  0  0  0  0  0  0  0  0
  130.2150  126.7530   67.2770 C   0  0  0  0  0  0  0  0  0  0  0  0
  130.0800  126.7010   68.6310 N   0  0  0  0  0  0  0  0  0  0  0  0
  129.2220  127.5490   69.2580 C   0  0  0  0  0  0  0  0  0  0  0  0
  129.1330  127.4300   70.7520 C   0  0  0  0  0  0  0  0  0  0  0  0
  129.7500  128.3710   71.5900 C   0  0  0  0  0  0  0  0  0  0  0  0
  129.6700  128.2620   72.9750 C   0  0  0  0  0  0  0  0  0  0  0  0
  128.9710  127.2120   73.5660 C   0  0  0  0  0  0  0  0  0  0  0  0
  128.9460  127.1840   74.9470 O   0  0  0  0  0  0  0  0  0  0  0  0
  128.9620  128.4120   75.6670 C   0  0  0  0  0  0  0  0  0  0  0  0
  128.3440  126.2660   72.7430 C   0  0  0  0  0  0  0  0  0  0  0  0
  128.4250  126.3790   71.3580 C   0  0  0  0  0  0  0  0  0  0  0  0
  128.4880  128.4910   68.5260 C   0  0  0  0  0  0  0  0  0  0  0  0
  128.6170  128.5730   67.1330 C   0  0  0  0  0  0  0  0  0  0  0  0
  127.8150  129.6050   66.4120 C   0  0  0  0  0  0  0  0  0  0  0  0
  126.5990  129.2600   65.8130 C   0  0  0  0  0  0  0  0  0  0  0  0
  125.8410  130.2190   65.1470 C   0  0  0  0  0  0  0  0  0  0  0  0
  126.2770  131.5410   65.0710 C   0  0  0  0  0  0  0  0  0  0  0  0
  125.4600  132.4230   64.3910 O   0  0  0  0  0  0  0  0  0  0  0  0
  124.5010  131.9130   63.4720 C   0  0  0  0  0  0  0  0  0  0  0  0
  127.4920  131.8940   65.6780 C   0  0  0  0  0  0  0  0  0  0  0  0
  128.2500  130.9330   66.3430 C   0  0  0  0  0  0  0  0  0  0  0  0
  129.4990  127.6720   66.4910 C   0  0  0  0  0  0  0  0  0  0  0  0
  129.6650  127.6530   65.0370 C   0  0  0  0  0  0  0  0  0  0  0  0
  129.7990  127.6360   63.8880 N   0  0  0  0  0  0  0  0  0  0  0  0
  133.5390  123.0730   63.3740 C   0  0  0  0  0  0  0  0  0  0  0  0
  133.8500  122.0650   62.4670 C   0  0  0  0  0  0  0  0  0  0  0  0
  130.9240  117.5038   61.9821 H   0  0  0  0  0  0  0  0  0  0  0  0
  130.0197  118.0711   60.5374 H   0  0  0  0  0  0  0  0  0  0  0  0
  130.7839  116.4455   60.5374 H   0  0  0  0  0  0  0  0  0  0  0  0
  133.0374  117.6858   60.8591 H   0  0  0  0  0  0  0  0  0  0  0  0
  132.2562  117.8351   59.2483 H   0  0  0  0  0  0  0  0  0  0  0  0
  130.7044  120.8837   61.8684 H   0  0  0  0  0  0  0  0  0  0  0  0
  130.1497  122.6877   63.4878 H   0  0  0  0  0  0  0  0  0  0  0  0
  131.0950  124.3710   65.0790 H   0  0  0  0  0  0  0  0  0  0  0  0
  133.0677  126.4303   66.9337 H   0  0  0  0  0  0  0  0  0  0  0  0
  132.1634  127.2912   65.6314 H   0  0  0  0  0  0  0  0  0  0  0  0
  130.3063  129.2090   71.1447 H   0  0  0  0  0  0  0  0  0  0  0  0
  130.1638  129.0127   73.6096 H   0  0  0  0  0  0  0  0  0  0  0  0
  128.9593  128.2038   76.7471 H   0  0  0  0  0  0  0  0  0  0  0  0
  129.8676  128.9788   75.4051 H   0  0  0  0  0  0  0  0  0  0  0  0
  128.0715  129.0022   75.4051 H   0  0  0  0  0  0  0  0  0  0  0  0
  127.7862  125.4317   73.1932 H   0  0  0  0  0  0  0  0  0  0  0  0
  127.9248  125.6306   70.7257 H   0  0  0  0  0  0  0  0  0  0  0  0
  127.8030  129.1737   69.0502 H   0  0  0  0  0  0  0  0  0  0  0  0
  126.2387  128.2222   65.8687 H   0  0  0  0  0  0  0  0  0  0  0  0
  124.8893  129.9311   64.6764 H   0  0  0  0  0  0  0  0  0  0  0  0
  123.6624  131.4670   64.0269 H   0  0  0  0  0  0  0  0  0  0  0  0
  124.1279  132.7318   62.8393 H   0  0  0  0  0  0  0  0  0  0  0  0
  124.9713  131.1458   62.8393 H   0  0  0  0  0  0  0  0  0  0  0  0
  127.8473  132.9339   65.6285 H   0  0  0  0  0  0  0  0  0  0  0  0
  129.1993  131.2208   66.8183 H   0  0  0  0  0  0  0  0  0  0  0  0
  134.3431  123.6922   63.7983 H   0  0  0  0  0  0  0  0  0  0  0  0
  134.8982  121.8937   62.1807 H   0  0  0  0  0  0  0  0  0  0  0  0
  1  2  1  0
  2  3  1  0
  3  4  1  0
  4  5  2  0
  4  6  1  0
  6  7  2  0
  7  8  1  0
  8  9  2  0
  9 10  1  0
 10 11  1  0
 11 12  2  0
 11 13  1  0
 13 14  1  0
 14 15  1  0
 15 16  2  0
 16 17  1  0
 17 18  1  0
 18 19  2  0
 19 20  1  0
 20 21  2  0
 21 22  1  0
 22 23  1  0
 21 24  1  0
 24 25  2  0
 17 26  2  0
 26 27  1  0
 27 28  1  0
 28 29  2  0
 29 30  1  0
 30 31  2  0
 31 32  1  0
 32 33  1  0
 31 34  1  0
 34 35  2  0
 27 36  2  0
 36 37  1  0
 37 38  3  0
  9 39  1  0
 39 40  2  0
 40  6  1  0
 36 15  1  0
 25 18  1  0
 35 28  1  0
  1 41  1  0
  1 42  1  0
  1 43  1  0
  2 44  1  0
  2 45  1  0
  7 46  1  0
  8 47  1  0
 10 48  1  0
 13 49  1  0
 13 50  1  0
 19 51  1  0
 20 52  1  0
 23 53  1  0
 23 54  1  0
 23 55  1  0
 24 56  1  0
 25 57  1  0
 26 58  1  0
 29 59  1  0
 30 60  1  0
 33 61  1  0
 33 62  1  0
 33 63  1  0
 34 64  1  0
 35 65  1  0
 39 66  1  0
 40 67  1  0
M  END
>  <Binding energies>  (1) 
[-8.54]

>  <Ligand effiencies>  (1) 
[-0.20829268292682926]

>  <Interactions>  (1) 
["V-B:GLU:543:CD:9879, H-A:TYR:484:OH:4347, H-B:GLU:543:OE2:9881, V-A:LEU:475:CD2:4258, V-A:HIS:383:CE1:3393, V-A:ILE:369:CD1:3238, V-B:TYR:539:CD2:9845, V-A:ILE:369:CG2:3236, V-A:SER:385:CA:3406, V-A:GLY:454:CA:4048, V-A:PRO:482:CB:4325, H-A:GLY:454:N:4049, V-A:ARG:545:CZ:4925, V-A:HIS:456:CE1:4069, V-A:GLU:543:CD:4907, V-B:HIS:456:CE1:9040, V-B:TYR:484:CZ:9317, H-B:LYS:547:NZ:9922, V-A:GLU:543:CG:4906, V-A:GLU:543:CB:4905, H-A:ARG:545:NH1:4926, H-A:ARG:545:NH2:4927, H-A:ARG:545:NE:4923, V-B:TYR:484:CE2:9316, V-B:GLY:454:CA:9019"]

$$$$
1b_Ghoteimi_2023
     RDKit          3D

 54 57  0  0  0  0  0  0  0  0999 V2000
  129.8730  125.8930   68.1400 C   0  0  0  0  0  0  0  0  0  0  0  0
  130.2490  127.1280   67.5420 O   0  0  0  0  0  0  0  0  0  0  0  0
  130.2500  127.2370   66.1650 C   0  0  0  0  0  0  0  0  0  0  0  0
  131.2040  126.4860   65.4800 C   0  0  0  0  0  0  0  0  0  0  0  0
  131.2810  126.5330   64.0910 C   0  0  0  0  0  0  0  0  0  0  0  0
  130.4030  127.3310   63.3430 C   0  0  0  0  0  0  0  0  0  0  0  0
  130.4900  127.3810   61.8430 C   0  0  0  0  0  0  0  0  0  0  0  0
  130.5240  128.5790   61.1220 C   0  0  0  0  0  0  0  0  0  0  0  0
  130.6100  128.5710   59.7240 C   0  0  0  0  0  0  0  0  0  0  0  0
  130.6360  129.8870   59.0200 C   0  0  0  0  0  0  0  0  0  0  0  0
  129.4590  130.4330   58.5000 C   0  0  0  0  0  0  0  0  0  0  0  0
  129.4800  131.6560   57.8350 C   0  0  0  0  0  0  0  0  0  0  0  0
  130.6760  132.3550   57.6740 C   0  0  0  0  0  0  0  0  0  0  0  0
  130.6010  133.5600   57.0010 O   0  0  0  0  0  0  0  0  0  0  0  0
  130.3120  133.5590   55.6070 C   0  0  0  0  0  0  0  0  0  0  0  0
  131.8620  131.8070   58.1870 C   0  0  0  0  0  0  0  0  0  0  0  0
  131.8370  130.5840   58.8500 C   0  0  0  0  0  0  0  0  0  0  0  0
  130.6750  127.3210   59.0600 C   0  0  0  0  0  0  0  0  0  0  0  0
  130.8620  127.2590   57.6070 C   0  0  0  0  0  0  0  0  0  0  0  0
  131.0100  127.2110   56.4600 N   0  0  0  0  0  0  0  0  0  0  0  0
  130.6160  126.1490   59.8460 C   0  0  0  0  0  0  0  0  0  0  0  0
  130.6750  124.4960   59.1850 S   0  0  0  0  0  0  0  0  0  0  0  0
  129.5170  123.4650   60.1460 C   0  0  0  0  0  0  0  0  0  0  0  0
  128.1940  123.1400   59.4370 C   0  0  0  0  0  0  0  0  0  0  0  0
  127.1500  123.0150   60.0800 O   0  0  0  0  0  0  0  0  0  0  0  0
  128.2920  123.0080   58.0950 N   0  0  0  0  0  0  0  0  0  0  0  0
  127.2670  122.7190   57.2020 C   0  0  0  0  0  0  0  0  0  0  0  0
  125.9570  123.1620   57.3780 C   0  0  0  0  0  0  0  0  0  0  0  0
  125.2650  122.6710   56.2940 C   0  0  0  0  0  0  0  0  0  0  0  0
  126.1150  121.9720   55.5050 O   0  0  0  0  0  0  0  0  0  0  0  0
  127.3810  122.0100   56.0910 N   0  0  0  0  0  0  0  0  0  0  0  0
  130.5460  126.1860   61.1990 N   0  0  0  0  0  0  0  0  0  0  0  0
  129.4470  128.0840   64.0430 C   0  0  0  0  0  0  0  0  0  0  0  0
  129.3670  128.0410   65.4310 C   0  0  0  0  0  0  0  0  0  0  0  0
  129.9031  125.9917   69.2351 H   0  0  0  0  0  0  0  0  0  0  0  0
  128.8534  125.6278   67.8236 H   0  0  0  0  0  0  0  0  0  0  0  0
  130.5718  125.1046   67.8236 H   0  0  0  0  0  0  0  0  0  0  0  0
  131.9030  125.8499   66.0428 H   0  0  0  0  0  0  0  0  0  0  0  0
  132.0433  125.9342   63.5712 H   0  0  0  0  0  0  0  0  0  0  0  0
  130.4827  129.5382   61.6589 H   0  0  0  0  0  0  0  0  0  0  0  0
  128.5084  129.8920   58.6171 H   0  0  0  0  0  0  0  0  0  0  0  0
  128.5454  132.0744   57.4332 H   0  0  0  0  0  0  0  0  0  0  0  0
  129.2221  133.5552   55.4585 H   0  0  0  0  0  0  0  0  0  0  0  0
  130.7422  134.4586   55.1427 H   0  0  0  0  0  0  0  0  0  0  0  0
  130.7484  132.6624   55.1427 H   0  0  0  0  0  0  0  0  0  0  0  0
  132.8133  132.3456   58.0646 H   0  0  0  0  0  0  0  0  0  0  0  0
  132.7722  130.1604   59.2450 H   0  0  0  0  0  0  0  0  0  0  0  0
  130.0202  122.5155   60.3810 H   0  0  0  0  0  0  0  0  0  0  0  0
  129.2513  124.0516   61.0378 H   0  0  0  0  0  0  0  0  0  0  0  0
  129.2030  123.1430   57.6820 H   0  0  0  0  0  0  0  0  0  0  0  0
  125.5619  123.7717   58.2040 H   0  0  0  0  0  0  0  0  0  0  0  0
  124.1929  122.8223   56.0998 H   0  0  0  0  0  0  0  0  0  0  0  0
  128.7470  128.7210   63.4824 H   0  0  0  0  0  0  0  0  0  0  0  0
  128.6077  128.6403   65.9548 H   0  0  0  0  0  0  0  0  0  0  0  0
  1  2  1  0
  2  3  1  0
  3  4  2  0
  4  5  1  0
  5  6  2  0
  6  7  1  0
  7  8  2  0
  8  9  1  0
  9 10  1  0
 10 11  2  0
 11 12  1  0
 12 13  2  0
 13 14  1  0
 14 15  1  0
 13 16  1  0
 16 17  2  0
  9 18  2  0
 18 19  1  0
 19 20  3  0
 18 21  1  0
 21 22  1  0
 22 23  1  0
 23 24  1  0
 24 25  2  0
 24 26  1  0
 26 27  1  0
 27 28  1  0
 28 29  2  0
 29 30  1  0
 30 31  1  0
 21 32  2  0
  6 33  1  0
 33 34  2  0
 34  3  1  0
 32  7  1  0
 17 10  1  0
 31 27  2  0
  1 35  1  0
  1 36  1  0
  1 37  1  0
  4 38  1  0
  5 39  1  0
  8 40  1  0
 11 41  1  0
 12 42  1  0
 15 43  1  0
 15 44  1  0
 15 45  1  0
 16 46  1  0
 17 47  1  0
 23 48  1  0
 23 49  1  0
 26 50  1  0
 28 51  1  0
 29 52  1  0
 33 53  1  0
 34 54  1  0
M  END
>  <Binding energies>  (1) 
[-8.63]

>  <Ligand effiencies>  (1) 
[-0.24657142857142858]

>  <Interactions>  (1) 
["H-A:TYR:531:OH:4794, V-A:ILE:538:CA:4859, V-B:GLU:543:CD:9879, V-B:PRO:540:N:9855, V-B:PRO:540:CA:9854, V-B:TYR:539:C:9838, V-B:TYR:539:CD2:9845, V-B:TYR:539:CE2:9847, H-B:TYR:539:N:9841, V-B:TYR:539:CG:9843, V-B:MET:535:CE:9806, H-B:TYR:539:OH:9849, V-B:TYR:539:CZ:9848, V-B:PRO:540:CB:9856, V-B:PRO:540:CD:9858, V-B:TYR:531:CE2:9764, V-B:LEU:363:CD1:8159, V-A:HIS:456:CE1:4069, V-B:GLU:543:CB:9877, V-A:GLU:543:CD:4907, V-A:ILE:538:CB:4861, V-A:ILE:538:CG2:4862, V-A:TYR:484:CE2:4345, H-A:TYR:539:N:4869, V-A:ILE:538:C:4857"]

$$$$
1b_Grossjean_2025
     RDKit          3D

 42 43  0  0  0  0  0  0  0  0999 V2000
  124.5970  123.9900   58.1170 C   0  0  0  0  0  0  0  0  0  0  0  0
  125.4120  123.9270   56.9540 O   0  0  0  0  0  0  0  0  0  0  0  0
  126.3810  122.9850   56.8310 C   0  0  0  0  0  0  0  0  0  0  0  0
  126.2810  121.9960   56.0980 O   0  0  0  0  0  0  0  0  0  0  0  0
  127.5950  123.2690   57.6690 C   0  0  0  0  0  0  0  0  0  0  0  0
  127.9570  122.4530   58.7510 C   0  0  0  0  0  0  0  0  0  0  0  0
  129.0870  122.7440   59.5090 C   0  0  0  0  0  0  0  0  0  0  0  0
  129.8770  123.8530   59.2050 C   0  0  0  0  0  0  0  0  0  0  0  0
  130.9940  124.0510   60.0390 N   0  0  0  0  0  0  0  0  0  0  0  0
  132.2960  124.2260   59.7230 C   0  0  0  0  0  0  0  0  0  0  0  0
  132.7590  124.2500   58.5840 O   0  0  0  0  0  0  0  0  0  0  0  0
  133.2380  124.4190   60.9130 C   0  0  0  0  0  0  0  0  0  0  0  0
  133.6940  122.8400   61.6900 S   0  0  0  0  0  0  0  0  0  0  0  0
  132.2360  121.8190   61.7120 C   0  0  0  0  0  0  0  0  0  0  0  0
  131.1750  122.3960   62.3280 N   0  0  0  0  0  0  0  0  0  0  0  0
  130.0120  121.7070   62.4010 C   0  0  0  0  0  0  0  0  0  0  0  0
  128.8640  122.4200   63.0900 C   0  0  0  0  0  0  0  0  0  0  0  0
  129.8650  120.4230   61.8780 C   0  0  0  0  0  0  0  0  0  0  0  0
  130.9600  119.8120   61.2610 C   0  0  0  0  0  0  0  0  0  0  0  0
  130.7800  118.3980   60.7090 C   0  0  0  0  0  0  0  0  0  0  0  0
  132.1850  120.5120   61.1730 C   0  0  0  0  0  0  0  0  0  0  0  0
  133.3580  119.8750   60.5700 C   0  0  0  0  0  0  0  0  0  0  0  0
  134.2820  119.3690   60.0930 N   0  0  0  0  0  0  0  0  0  0  0  0
  129.5220  124.6740   58.1250 C   0  0  0  0  0  0  0  0  0  0  0  0
  128.3920  124.3810   57.3670 C   0  0  0  0  0  0  0  0  0  0  0  0
  125.2327  123.9409   59.0133 H   0  0  0  0  0  0  0  0  0  0  0  0
  124.0330  124.9344   58.1188 H   0  0  0  0  0  0  0  0  0  0  0  0
  123.8946  123.1435   58.1188 H   0  0  0  0  0  0  0  0  0  0  0  0
  127.3426  121.5759   59.0023 H   0  0  0  0  0  0  0  0  0  0  0  0
  129.3595  122.0948   60.3542 H   0  0  0  0  0  0  0  0  0  0  0  0
  130.7750  124.0490   61.0250 H   0  0  0  0  0  0  0  0  0  0  0  0
  134.1531  124.9191   60.5631 H   0  0  0  0  0  0  0  0  0  0  0  0
  132.7128  125.0264   61.6648 H   0  0  0  0  0  0  0  0  0  0  0  0
  128.9867  122.3438   64.1805 H   0  0  0  0  0  0  0  0  0  0  0  0
  128.8603  123.4796   62.7946 H   0  0  0  0  0  0  0  0  0  0  0  0
  127.9126  121.9536   62.7946 H   0  0  0  0  0  0  0  0  0  0  0  0
  128.9009  119.8983   61.9500 H   0  0  0  0  0  0  0  0  0  0  0  0
  130.6895  117.6873   61.5437 H   0  0  0  0  0  0  0  0  0  0  0  0
  129.8695  118.3580   60.0930 H   0  0  0  0  0  0  0  0  0  0  0  0
  131.6514  118.1312   60.0930 H   0  0  0  0  0  0  0  0  0  0  0  0
  130.1376  125.5511   57.8765 H   0  0  0  0  0  0  0  0  0  0  0  0
  128.1216  125.0300   56.5210 H   0  0  0  0  0  0  0  0  0  0  0  0
  1  2  1  0
  2  3  1  0
  3  4  2  0
  3  5  1  0
  5  6  2  0
  6  7  1  0
  7  8  2  0
  8  9  1  0
  9 10  1  0
 10 11  2  0
 10 12  1  0
 12 13  1  0
 13 14  1  0
 14 15  2  0
 15 16  1  0
 16 17  1  0
 16 18  2  0
 18 19  1  0
 19 20  1  0
 19 21  2  0
 21 22  1  0
 22 23  3  0
  8 24  1  0
 24 25  2  0
 25  5  1  0
 21 14  1  0
  1 26  1  0
  1 27  1  0
  1 28  1  0
  6 29  1  0
  7 30  1  0
  9 31  1  0
 12 32  1  0
 12 33  1  0
 17 34  1  0
 17 35  1  0
 17 36  1  0
 18 37  1  0
 20 38  1  0
 20 39  1  0
 20 40  1  0
 24 41  1  0
 25 42  1  0
M  END
>  <Binding energies>  (1) 
[-7.85]

>  <Ligand effiencies>  (1) 
[-0.3019230769230769]

>  <Interactions>  (1) 
["V-A:ASP:366:CG:3212, V-B:PRO:540:N:9855, V-B:ALA:541:CB:9863, V-B:PRO:540:CA:9854, V-B:ALA:541:CA:9861, V-B:TYR:539:C:9838, V-A:LEU:475:CD2:4258, V-A:ILE:369:CD1:3238, V-B:TYR:539:CD2:9845, V-A:ILE:369:CG2:3236, V-B:TYR:539:CE2:9847, V-B:TYR:539:CB:9842, V-A:SER:385:CA:3406, H-B:TYR:539:N:9841, V-B:TYR:539:CG:9843, V-B:MET:535:CE:9806, H-B:TYR:539:OH:9849, V-B:TYR:539:CZ:9848, V-B:PRO:540:CB:9856, V-B:LEU:363:CD1:8159, H-B:TYR:531:OH:9766, H-A:SER:385:N:3407"]

$$$$
1c_Ghoteimi_2023
     RDKit          3D

 54 57  0  0  0  0  0  0  0  0999 V2000
  128.9020  127.4820   55.4990 C   0  0  0  0  0  0  0  0  0  0  0  0
  130.2490  127.5690   55.9520 O   0  0  0  0  0  0  0  0  0  0  0  0
  130.6360  126.8430   57.0620 C   0  0  0  0  0  0  0  0  0  0  0  0
  129.7630  126.8450   58.1470 C   0  0  0  0  0  0  0  0  0  0  0  0
  130.0750  126.1430   59.3080 C   0  0  0  0  0  0  0  0  0  0  0  0
  131.2710  125.4170   59.4190 C   0  0  0  0  0  0  0  0  0  0  0  0
  131.6130  124.6620   60.6710 C   0  0  0  0  0  0  0  0  0  0  0  0
  131.6630  125.2690   61.9300 C   0  0  0  0  0  0  0  0  0  0  0  0
  131.9600  124.5180   63.0740 C   0  0  0  0  0  0  0  0  0  0  0  0
  131.9300  125.2180   64.3930 C   0  0  0  0  0  0  0  0  0  0  0  0
  133.1140  125.4720   65.0900 C   0  0  0  0  0  0  0  0  0  0  0  0
  133.0820  126.1050   66.3290 C   0  0  0  0  0  0  0  0  0  0  0  0
  131.8680  126.4900   66.8960 C   0  0  0  0  0  0  0  0  0  0  0  0
  131.9320  127.1120   68.1290 O   0  0  0  0  0  0  0  0  0  0  0  0
  130.8790  127.9860   68.5220 C   0  0  0  0  0  0  0  0  0  0  0  0
  130.6760  126.2300   66.2020 C   0  0  0  0  0  0  0  0  0  0  0  0
  130.7100  125.5970   64.9630 C   0  0  0  0  0  0  0  0  0  0  0  0
  132.2370  123.1390   62.9210 C   0  0  0  0  0  0  0  0  0  0  0  0
  132.5880  122.3050   64.0750 C   0  0  0  0  0  0  0  0  0  0  0  0
  132.8640  121.6480   64.9870 N   0  0  0  0  0  0  0  0  0  0  0  0
  132.1520  122.5880   61.6250 C   0  0  0  0  0  0  0  0  0  0  0  0
  132.3080  120.8440   61.3100 S   0  0  0  0  0  0  0  0  0  0  0  0
  130.6910  120.1410   61.7700 C   0  0  0  0  0  0  0  0  0  0  0  0
  129.6750  121.2250   62.1480 C   0  0  0  0  0  0  0  0  0  0  0  0
  129.6720  121.6830   63.2910 O   0  0  0  0  0  0  0  0  0  0  0  0
  128.8670  121.6310   61.1440 N   0  0  0  0  0  0  0  0  0  0  0  0
  127.9770  122.6930   61.1760 C   0  0  0  0  0  0  0  0  0  0  0  0
  127.2440  123.1020   62.1900 N   0  0  0  0  0  0  0  0  0  0  0  0
  126.5390  124.1710   61.8750 C   0  0  0  0  0  0  0  0  0  0  0  0
  126.6950  124.6520   60.5790 C   0  0  0  0  0  0  0  0  0  0  0  0
  127.8270  123.6410   59.7320 S   0  0  0  0  0  0  0  0  0  0  0  0
  131.8400  123.3290   60.5350 N   0  0  0  0  0  0  0  0  0  0  0  0
  132.1400  125.4160   58.3180 C   0  0  0  0  0  0  0  0  0  0  0  0
  131.8330  126.1180   57.1560 C   0  0  0  0  0  0  0  0  0  0  0  0
  128.2258  127.4383   56.3655 H   0  0  0  0  0  0  0  0  0  0  0  0
  128.6619  128.3665   54.8907 H   0  0  0  0  0  0  0  0  0  0  0  0
  128.7776  126.5740   54.8907 H   0  0  0  0  0  0  0  0  0  0  0  0
  128.8188  127.4061   58.0861 H   0  0  0  0  0  0  0  0  0  0  0  0
  129.3715  126.1576   60.1535 H   0  0  0  0  0  0  0  0  0  0  0  0
  131.4670  126.3474   62.0225 H   0  0  0  0  0  0  0  0  0  0  0  0
  134.0785  125.1694   64.6562 H   0  0  0  0  0  0  0  0  0  0  0  0
  134.0219  126.3031   66.8651 H   0  0  0  0  0  0  0  0  0  0  0  0
  130.8281  128.0283   69.6200 H   0  0  0  0  0  0  0  0  0  0  0  0
  131.0713  128.9936   68.1248 H   0  0  0  0  0  0  0  0  0  0  0  0
  129.9241  127.6114   68.1248 H   0  0  0  0  0  0  0  0  0  0  0  0
  129.7114  126.5276   66.6390 H   0  0  0  0  0  0  0  0  0  0  0  0
  129.7707  125.3932   64.4280 H   0  0  0  0  0  0  0  0  0  0  0  0
  130.2977  119.5689   60.9168 H   0  0  0  0  0  0  0  0  0  0  0  0
  130.8404  119.4968   62.6490 H   0  0  0  0  0  0  0  0  0  0  0  0
  128.9650  121.1690   60.2530 H   0  0  0  0  0  0  0  0  0  0  0  0
  125.8650  124.6554   62.5969 H   0  0  0  0  0  0  0  0  0  0  0  0
  126.1842  125.5306   60.1581 H   0  0  0  0  0  0  0  0  0  0  0  0
  133.0815  124.8500   58.3739 H   0  0  0  0  0  0  0  0  0  0  0  0
  132.5326  126.1041   56.3072 H   0  0  0  0  0  0  0  0  0  0  0  0
  1  2  1  0
  2  3  1  0
  3  4  2  0
  4  5  1  0
  5  6  2  0
  6  7  1  0
  7  8  2  0
  8  9  1  0
  9 10  1  0
 10 11  2  0
 11 12  1  0
 12 13  2  0
 13 14  1  0
 14 15  1  0
 13 16  1  0
 16 17  2  0
  9 18  2  0
 18 19  1  0
 19 20  3  0
 18 21  1  0
 21 22  1  0
 22 23  1  0
 23 24  1  0
 24 25  2  0
 24 26  1  0
 26 27  1  0
 27 28  2  0
 28 29  1  0
 29 30  2  0
 30 31  1  0
 21 32  2  0
  6 33  1  0
 33 34  2  0
 34  3  1  0
 32  7  1  0
 17 10  1  0
 31 27  1  0
  1 35  1  0
  1 36  1  0
  1 37  1  0
  4 38  1  0
  5 39  1  0
  8 40  1  0
 11 41  1  0
 12 42  1  0
 15 43  1  0
 15 44  1  0
 15 45  1  0
 16 46  1  0
 17 47  1  0
 23 48  1  0
 23 49  1  0
 26 50  1  0
 29 51  1  0
 30 52  1  0
 33 53  1  0
 34 54  1  0
M  END
>  <Binding energies>  (1) 
[-7.53]

>  <Ligand effiencies>  (1) 
[-0.21514285714285716]

>  <Interactions>  (1) 
["V-A:ASP:366:CG:3212, V-A:ASP:366:CB:3211, H-A:TYR:531:OH:4794, H-B:ALA:541:N:9862, H-A:TYR:484:OH:4347, V-B:ALA:541:CB:9863, V-B:PRO:540:CA:9854, V-B:PRO:540:C:9852, V-B:TYR:539:C:9838, V-A:LEU:475:CD2:4258, H-B:TYR:539:O:9839, V-B:TYR:539:CD2:9845, V-B:TYR:539:CE2:9847, V-A:GLY:454:CA:4048, V-B:MET:535:CE:9806, V-B:TYR:539:CZ:9848, H-A:GLY:454:N:4049, V-A:ARG:545:CD:4922, V-A:ARG:545:CZ:4925, V-A:ARG:545:CG:4921, V-A:HIS:456:CE1:4069, V-A:GLU:543:CD:4907, V-A:GLU:543:CB:4905, V-A:MET:535:CE:4834"]

$$$$
1c_Grossjean_2025
     RDKit          3D

 40 41  0  0  0  0  0  0  0  0999 V2000
  125.0520  122.0580   55.6530 C   0  0  0  0  0  0  0  0  0  0  0  0
  125.9740  123.1190   55.8770 O   0  0  0  0  0  0  0  0  0  0  0  0
  126.6110  123.2100   57.1000 C   0  0  0  0  0  0  0  0  0  0  0  0
  125.9100  123.8520   58.1200 C   0  0  0  0  0  0  0  0  0  0  0  0
  126.4670  123.9920   59.3880 C   0  0  0  0  0  0  0  0  0  0  0  0
  127.7460  123.4790   59.6520 C   0  0  0  0  0  0  0  0  0  0  0  0
  128.4070  123.5750   60.8920 N   0  0  0  0  0  0  0  0  0  0  0  0
  127.9630  123.2560   62.1270 C   0  0  0  0  0  0  0  0  0  0  0  0
  126.8550  122.7870   62.3890 O   0  0  0  0  0  0  0  0  0  0  0  0
  128.9540  123.5070   63.2650 C   0  0  0  0  0  0  0  0  0  0  0  0
  129.8630  121.9990   63.7160 S   0  0  0  0  0  0  0  0  0  0  0  0
  131.3150  121.8900   62.6910 C   0  0  0  0  0  0  0  0  0  0  0  0
  132.1310  122.9710   62.7930 N   0  0  0  0  0  0  0  0  0  0  0  0
  133.2670  123.0010   62.0580 C   0  0  0  0  0  0  0  0  0  0  0  0
  134.1320  124.2360   62.2330 C   0  0  0  0  0  0  0  0  0  0  0  0
  133.6300  121.9730   61.1930 C   0  0  0  0  0  0  0  0  0  0  0  0
  132.7860  120.8660   61.0600 C   0  0  0  0  0  0  0  0  0  0  0  0
  133.1970  119.7590   60.0910 C   0  0  0  0  0  0  0  0  0  0  0  0
  131.5910  120.8130   61.8160 C   0  0  0  0  0  0  0  0  0  0  0  0
  130.6680  119.6880   61.6500 C   0  0  0  0  0  0  0  0  0  0  0  0
  129.9390  118.7990   61.5190 N   0  0  0  0  0  0  0  0  0  0  0  0
  128.4550  122.8460   58.6310 C   0  0  0  0  0  0  0  0  0  0  0  0
  127.8950  122.7080   57.3640 C   0  0  0  0  0  0  0  0  0  0  0  0
  124.7074  121.6615   56.6195 H   0  0  0  0  0  0  0  0  0  0  0  0
  124.1901  122.4354   55.0832 H   0  0  0  0  0  0  0  0  0  0  0  0
  125.5460  121.2572   55.0832 H   0  0  0  0  0  0  0  0  0  0  0  0
  124.9051  124.2525   57.9204 H   0  0  0  0  0  0  0  0  0  0  0  0
  125.9048  124.5045   60.1825 H   0  0  0  0  0  0  0  0  0  0  0  0
  129.3650  123.8830   60.8300 H   0  0  0  0  0  0  0  0  0  0  0  0
  129.6744  124.2748   62.9465 H   0  0  0  0  0  0  0  0  0  0  0  0
  128.3850  123.8388   64.1460 H   0  0  0  0  0  0  0  0  0  0  0  0
  134.2724  124.4364   63.3054 H   0  0  0  0  0  0  0  0  0  0  0  0
  135.1109  124.0680   61.7602 H   0  0  0  0  0  0  0  0  0  0  0  0
  133.6396  125.0985   61.7602 H   0  0  0  0  0  0  0  0  0  0  0  0
  134.5682  122.0305   60.6216 H   0  0  0  0  0  0  0  0  0  0  0  0
  133.5246  118.8765   60.6601 H   0  0  0  0  0  0  0  0  0  0  0  0
  132.3392  119.4890   59.4575 H   0  0  0  0  0  0  0  0  0  0  0  0
  134.0232  120.1143   59.4575 H   0  0  0  0  0  0  0  0  0  0  0  0
  129.4634  122.4532   58.8283 H   0  0  0  0  0  0  0  0  0  0  0  0
  128.4608  122.2037   56.5668 H   0  0  0  0  0  0  0  0  0  0  0  0
  1  2  1  0
  2  3  1  0
  3  4  2  0
  4  5  1  0
  5  6  2  0
  6  7  1  0
  7  8  1  0
  8  9  2  0
  8 10  1  0
 10 11  1  0
 11 12  1  0
 12 13  2  0
 13 14  1  0
 14 15  1  0
 14 16  2  0
 16 17  1  0
 17 18  1  0
 17 19  2  0
 19 20  1  0
 20 21  3  0
  6 22  1  0
 22 23  2  0
 23  3  1  0
 19 12  1  0
  1 24  1  0
  1 25  1  0
  1 26  1  0
  4 27  1  0
  5 28  1  0
  7 29  1  0
 10 30  1  0
 10 31  1  0
 15 32  1  0
 15 33  1  0
 15 34  1  0
 16 35  1  0
 18 36  1  0
 18 37  1  0
 18 38  1  0
 22 39  1  0
 23 40  1  0
M  END
>  <Binding energies>  (1) 
[-7.46]

>  <Ligand effiencies>  (1) 
[-0.31083333333333335]

>  <Interactions>  (1) 
["V-A:ASP:366:CG:3212, V-B:GLU:543:CD:9879, V-B:PRO:540:N:9855, H-B:ALA:541:N:9862, V-B:ALA:541:CB:9863, V-B:PRO:540:CA:9854, V-B:TYR:539:C:9838, V-A:LEU:475:CD2:4258, V-A:ILE:369:CD1:3238, V-B:TYR:539:CD2:9845, V-A:ILE:369:CG2:3236, V-B:TYR:539:CE2:9847, V-A:SER:385:CA:3406, V-B:TYR:539:CG:9843, V-B:MET:535:CE:9806, V-B:TYR:539:CZ:9848, V-B:PRO:540:CB:9856, V-B:TYR:539:CD1:9844, V-B:PRO:540:CD:9858, V-B:TYR:531:CE2:9764, V-B:LEU:363:CD1:8159, V-B:ILE:538:CD1:9836, V-B:ILE:538:CG2:9834, V-B:ILE:538:CA:9831, V-B:TYR:539:CE1:9846, V-B:ILE:538:CB:9833, H-B:TYR:531:OH:9766"]

$$$$
1d_Ghoteimi_2023
     RDKit          3D

 50 52  0  0  0  0  0  0  0  0999 V2000
  124.6350  129.5240   64.1540 C   0  0  0  0  0  0  0  0  0  0  0  0
  123.8600  129.9430   65.2670 O   0  0  0  0  0  0  0  0  0  0  0  0
  124.1610  129.5160   66.5110 C   0  0  0  0  0  0  0  0  0  0  0  0
  123.5450  129.7850   67.5430 O   0  0  0  0  0  0  0  0  0  0  0  0
  125.4020  128.6260   66.5340 C   0  0  0  0  0  0  0  0  0  0  0  0
  126.8240  129.6820   66.9440 S   0  0  0  0  0  0  0  0  0  0  0  0
  128.1400  128.6030   67.4630 C   0  0  0  0  0  0  0  0  0  0  0  0
  128.1730  128.3860   68.7990 N   0  0  0  0  0  0  0  0  0  0  0  0
  129.1300  127.5850   69.3330 C   0  0  0  0  0  0  0  0  0  0  0  0
  129.0930  127.3920   70.8210 C   0  0  0  0  0  0  0  0  0  0  0  0
  129.7250  128.2960   71.6890 C   0  0  0  0  0  0  0  0  0  0  0  0
  129.6950  128.1130   73.0680 C   0  0  0  0  0  0  0  0  0  0  0  0
  129.0340  127.0200   73.6230 C   0  0  0  0  0  0  0  0  0  0  0  0
  129.0590  126.9160   75.0010 O   0  0  0  0  0  0  0  0  0  0  0  0
  130.3040  127.0250   75.6820 C   0  0  0  0  0  0  0  0  0  0  0  0
  128.3980  126.1080   72.7700 C   0  0  0  0  0  0  0  0  0  0  0  0
  128.4290  126.2950   71.3910 C   0  0  0  0  0  0  0  0  0  0  0  0
  130.0820  126.9680   68.5120 C   0  0  0  0  0  0  0  0  0  0  0  0
  130.0810  127.1860   67.1290 C   0  0  0  0  0  0  0  0  0  0  0  0
  131.1300  126.5020   66.3130 C   0  0  0  0  0  0  0  0  0  0  0  0
  130.7880  125.8710   65.1130 C   0  0  0  0  0  0  0  0  0  0  0  0
  131.7600  125.2320   64.3480 C   0  0  0  0  0  0  0  0  0  0  0  0
  133.0910  125.2160   64.7620 C   0  0  0  0  0  0  0  0  0  0  0  0
  133.9850  124.5530   63.9440 O   0  0  0  0  0  0  0  0  0  0  0  0
  133.7810  124.5680   62.5350 C   0  0  0  0  0  0  0  0  0  0  0  0
  133.4410  125.8590   65.9590 C   0  0  0  0  0  0  0  0  0  0  0  0
  132.4680  126.4980   66.7220 C   0  0  0  0  0  0  0  0  0  0  0  0
  129.0950  128.0450   66.5820 C   0  0  0  0  0  0  0  0  0  0  0  0
  129.1100  128.3910   65.1580 C   0  0  0  0  0  0  0  0  0  0  0  0
  129.1230  128.6640   64.0330 N   0  0  0  0  0  0  0  0  0  0  0  0
  125.5505  129.0290   64.5102 H   0  0  0  0  0  0  0  0  0  0  0  0
  124.0504  128.8191   63.5447 H   0  0  0  0  0  0  0  0  0  0  0  0
  124.9047  130.3992   63.5447 H   0  0  0  0  0  0  0  0  0  0  0  0
  125.2863  127.8398   67.2946 H   0  0  0  0  0  0  0  0  0  0  0  0
  125.5487  128.1403   65.5580 H   0  0  0  0  0  0  0  0  0  0  0  0
  130.2539  129.1654   71.2713 H   0  0  0  0  0  0  0  0  0  0  0  0
  130.1976  128.8377   73.7254 H   0  0  0  0  0  0  0  0  0  0  0  0
  130.1304  127.0098   76.7681 H   0  0  0  0  0  0  0  0  0  0  0  0
  130.9502  126.1800   75.4021 H   0  0  0  0  0  0  0  0  0  0  0  0
  130.7936  127.9694   75.4021 H   0  0  0  0  0  0  0  0  0  0  0  0
  127.8714  125.2396   73.1925 H   0  0  0  0  0  0  0  0  0  0  0  0
  127.9238  125.5697   70.7362 H   0  0  0  0  0  0  0  0  0  0  0  0
  130.8382  126.3054   68.9582 H   0  0  0  0  0  0  0  0  0  0  0  0
  129.7427  125.8795   64.7707 H   0  0  0  0  0  0  0  0  0  0  0  0
  131.4752  124.7354   63.4087 H   0  0  0  0  0  0  0  0  0  0  0  0
  132.7049  124.6471   62.3211 H   0  0  0  0  0  0  0  0  0  0  0  0
  134.3061  125.4300   62.0976 H   0  0  0  0  0  0  0  0  0  0  0  0
  134.1744  123.6385   62.0976 H   0  0  0  0  0  0  0  0  0  0  0  0
  134.4882  125.8581   66.2956 H   0  0  0  0  0  0  0  0  0  0  0  0
  132.7537  127.0048   67.6556 H   0  0  0  0  0  0  0  0  0  0  0  0
  1  2  1  0
  2  3  1  0
  3  4  2  0
  3  5  1  0
  5  6  1  0
  6  7  1  0
  7  8  2  0
  8  9  1  0
  9 10  1  0
 10 11  2  0
 11 12  1  0
 12 13  2  0
 13 14  1  0
 14 15  1  0
 13 16  1  0
 16 17  2  0
  9 18  2  0
 18 19  1  0
 19 20  1  0
 20 21  2  0
 21 22  1  0
 22 23  2  0
 23 24  1  0
 24 25  1  0
 23 26  1  0
 26 27  2  0
 19 28  2  0
 28 29  1  0
 29 30  3  0
 28  7  1  0
 17 10  1  0
 27 20  1  0
  1 31  1  0
  1 32  1  0
  1 33  1  0
  5 34  1  0
  5 35  1  0
 11 36  1  0
 12 37  1  0
 15 38  1  0
 15 39  1  0
 15 40  1  0
 16 41  1  0
 17 42  1  0
 18 43  1  0
 21 44  1  0
 22 45  1  0
 25 46  1  0
 25 47  1  0
 25 48  1  0
 26 49  1  0
 27 50  1  0
M  END
>  <Binding energies>  (1) 
[-7.75]

>  <Ligand effiencies>  (1) 
[-0.25833333333333336]

>  <Interactions>  (1) 
["V-A:ASP:366:CG:3212, V-B:GLU:543:CD:9879, V-A:ILE:369:CD1:3238, H-A:GLY:454:N:4049, V-A:ARG:545:CD:4922, V-A:ARG:545:CZ:4925, V-A:ARG:545:CG:4921, V-A:HIS:456:CE1:4069, V-A:GLU:543:CD:4907, V-B:HIS:456:CE1:9040, H-B:LYS:547:NZ:9922, V-B:ARG:545:CD:9894, V-A:GLU:543:CG:4906, V-B:ARG:545:CG:9893, H-B:TYR:484:OH:9318, V-B:ARG:545:CZ:9897, H-B:GLY:454:N:9020, H-B:ILE:455:N:9025"]

$$$$
1d_Grossjean_2025
     RDKit          3D

 36 37  0  0  0  0  0  0  0  0999 V2000
  124.3280  123.4990   63.3430 C   0  0  0  0  0  0  0  0  0  0  0  0
  124.8480  123.5390   61.9200 C   0  0  0  0  0  0  0  0  0  0  0  0
  124.0160  123.8510   60.8470 C   0  0  0  0  0  0  0  0  0  0  0  0
  124.5540  123.8820   59.5550 C   0  0  0  0  0  0  0  0  0  0  0  0
  123.6260  124.2420   58.3970 C   0  0  0  0  0  0  0  0  0  0  0  0
  125.9250  123.5880   59.3700 C   0  0  0  0  0  0  0  0  0  0  0  0
  126.5200  123.6620   58.0340 C   0  0  0  0  0  0  0  0  0  0  0  0
  126.9870  123.7210   56.9770 N   0  0  0  0  0  0  0  0  0  0  0  0
  126.6890  123.2580   60.5140 C   0  0  0  0  0  0  0  0  0  0  0  0
  128.4220  122.8610   60.4650 S   0  0  0  0  0  0  0  0  0  0  0  0
  129.0010  122.7440   62.1850 C   0  0  0  0  0  0  0  0  0  0  0  0
  130.0140  121.6150   62.3770 C   0  0  0  0  0  0  0  0  0  0  0  0
  130.8190  121.6800   63.3070 O   0  0  0  0  0  0  0  0  0  0  0  0
  129.9190  120.5970   61.4940 N   0  0  0  0  0  0  0  0  0  0  0  0
  130.6940  119.4280   61.3780 C   0  0  0  0  0  0  0  0  0  0  0  0
  132.0240  119.6190   60.9940 C   0  0  0  0  0  0  0  0  0  0  0  0
  132.8800  118.5300   60.8550 C   0  0  0  0  0  0  0  0  0  0  0  0
  132.4070  117.2450   61.1070 C   0  0  0  0  0  0  0  0  0  0  0  0
  131.0860  117.0410   61.4990 C   0  0  0  0  0  0  0  0  0  0  0  0
  130.2280  118.1280   61.6380 C   0  0  0  0  0  0  0  0  0  0  0  0
  126.1620  123.2510   61.7650 N   0  0  0  0  0  0  0  0  0  0  0  0
  125.1731  123.5640   64.0442 H   0  0  0  0  0  0  0  0  0  0  0  0
  123.6479  124.3475   63.5088 H   0  0  0  0  0  0  0  0  0  0  0  0
  123.7856  122.5565   63.5088 H   0  0  0  0  0  0  0  0  0  0  0  0
  122.9508  124.0700   61.0128 H   0  0  0  0  0  0  0  0  0  0  0  0
  122.6699  124.6129   58.7950 H   0  0  0  0  0  0  0  0  0  0  0  0
  124.0946  125.0236   57.7809 H   0  0  0  0  0  0  0  0  0  0  0  0
  123.4450  123.3489   57.7809 H   0  0  0  0  0  0  0  0  0  0  0  0
  129.4746  123.6965   62.4651 H   0  0  0  0  0  0  0  0  0  0  0  0
  128.1298  122.5283   62.8210 H   0  0  0  0  0  0  0  0  0  0  0  0
  129.1740  120.6650   60.8160 H   0  0  0  0  0  0  0  0  0  0  0  0
  132.3967  120.6357   60.8005 H   0  0  0  0  0  0  0  0  0  0  0  0
  133.9249  118.6840   60.5476 H   0  0  0  0  0  0  0  0  0  0  0  0
  133.0821  116.3837   60.9956 H   0  0  0  0  0  0  0  0  0  0  0  0
  130.7215  116.0225   61.6984 H   0  0  0  0  0  0  0  0  0  0  0  0
  129.1855  117.9696   61.9513 H   0  0  0  0  0  0  0  0  0  0  0  0
  1  2  1  0
  2  3  2  0
  3  4  1  0
  4  5  1  0
  4  6  2  0
  6  7  1  0
  7  8  3  0
  6  9  1  0
  9 10  1  0
 10 11  1  0
 11 12  1  0
 12 13  2  0
 12 14  1  0
 14 15  1  0
 15 16  2  0
 16 17  1  0
 17 18  2  0
 18 19  1  0
 19 20  2  0
  9 21  2  0
 21  2  1  0
 20 15  1  0
  1 22  1  0
  1 23  1  0
  1 24  1  0
  3 25  1  0
  5 26  1  0
  5 27  1  0
  5 28  1  0
 11 29  1  0
 11 30  1  0
 14 31  1  0
 16 32  1  0
 17 33  1  0
 18 34  1  0
 19 35  1  0
 20 36  1  0
M  END
>  <Binding energies>  (1) 
[-7.95]

>  <Ligand effiencies>  (1) 
[-0.3613636363636364]

>  <Interactions>  (1) 
["V-B:GLU:543:CD:9879, H-B:ALA:541:N:9862, V-B:ALA:541:CB:9863, V-B:PRO:540:CA:9854, V-B:PRO:540:C:9852, V-B:TYR:539:C:9838, V-A:LEU:475:CD2:4258, V-A:PRO:482:CG:4326, V-A:HIS:383:CE1:3393, H-B:TYR:539:O:9839, V-B:TYR:539:CD2:9845, V-A:SER:385:CA:3406, V-A:SER:385:CB:3408, V-A:THR:477:CG2:4272, V-A:PRO:482:CB:4325, V-B:ALA:541:C:9859, V-B:PRO:540:CB:9856, V-B:ASN:362:CB:8146, V-B:LEU:363:CD1:8159, V-B:ASP:366:CB:8182, H-B:TYR:531:OH:9766, V-B:ASP:366:CG:8183, V-B:LEU:363:CA:8155, V-B:ARG:545:CZ:9897, V-B:ASN:362:CG:8147, V-B:LEU:363:CB:8157"]

$$$$
1e_Grossjean_2025
     RDKit          3D

 38 39  0  0  0  0  0  0  0  0999 V2000
  129.8430  117.0610   60.7040 C   0  0  0  0  0  0  0  0  0  0  0  0
  131.0580  117.9190   60.4060 C   0  0  0  0  0  0  0  0  0  0  0  0
  132.0040  117.5400   59.4500 C   0  0  0  0  0  0  0  0  0  0  0  0
  133.0970  118.3790   59.2310 C   0  0  0  0  0  0  0  0  0  0  0  0
  133.2190  119.5620   59.9630 C   0  0  0  0  0  0  0  0  0  0  0  0
  132.2320  119.8840   60.9020 C   0  0  0  0  0  0  0  0  0  0  0  0
  132.4140  121.0820   61.6170 N   0  0  0  0  0  0  0  0  0  0  0  0
  133.2490  121.3240   62.6510 C   0  0  0  0  0  0  0  0  0  0  0  0
  134.0060  120.4950   63.1570 O   0  0  0  0  0  0  0  0  0  0  0  0
  133.2000  122.7410   63.2270 C   0  0  0  0  0  0  0  0  0  0  0  0
  133.1270  124.0040   61.9210 S   0  0  0  0  0  0  0  0  0  0  0  0
  131.5270  123.9240   61.1390 C   0  0  0  0  0  0  0  0  0  0  0  0
  130.5450  123.4790   61.9640 N   0  0  0  0  0  0  0  0  0  0  0  0
  129.2850  123.3730   61.4810 C   0  0  0  0  0  0  0  0  0  0  0  0
  128.2410  122.8770   62.4620 C   0  0  0  0  0  0  0  0  0  0  0  0
  128.9560  123.6900   60.1650 C   0  0  0  0  0  0  0  0  0  0  0  0
  129.9640  124.1260   59.2990 C   0  0  0  0  0  0  0  0  0  0  0  0
  129.5810  124.4510   57.8560 C   0  0  0  0  0  0  0  0  0  0  0  0
  131.2880  124.2420   59.7810 C   0  0  0  0  0  0  0  0  0  0  0  0
  132.3660  124.6400   58.8720 C   0  0  0  0  0  0  0  0  0  0  0  0
  133.2150  124.9550   58.1510 N   0  0  0  0  0  0  0  0  0  0  0  0
  131.1610  119.0660   61.1250 N   0  0  0  0  0  0  0  0  0  0  0  0
  129.7157  116.9711   61.7929 H   0  0  0  0  0  0  0  0  0  0  0  0
  128.9480  117.5285   60.2676 H   0  0  0  0  0  0  0  0  0  0  0  0
  129.9842  116.0612   60.2676 H   0  0  0  0  0  0  0  0  0  0  0  0
  131.8898  116.6036   58.8842 H   0  0  0  0  0  0  0  0  0  0  0  0
  133.8593  118.1098   58.4850 H   0  0  0  0  0  0  0  0  0  0  0  0
  134.0778  120.2308   59.8041 H   0  0  0  0  0  0  0  0  0  0  0  0
  131.7980  121.8340   61.3450 H   0  0  0  0  0  0  0  0  0  0  0  0
  132.3073  122.8354   63.8628 H   0  0  0  0  0  0  0  0  0  0  0  0
  134.1203  122.9044   63.8070 H   0  0  0  0  0  0  0  0  0  0  0  0
  128.5947  123.0450   63.4900 H   0  0  0  0  0  0  0  0  0  0  0  0
  127.3000  123.4243   62.3039 H   0  0  0  0  0  0  0  0  0  0  0  0
  128.0708  121.8018   62.3039 H   0  0  0  0  0  0  0  0  0  0  0  0
  127.9182  123.5987   59.8120 H   0  0  0  0  0  0  0  0  0  0  0  0
  128.7423  125.1627   57.8507 H   0  0  0  0  0  0  0  0  0  0  0  0
  130.4436  124.8970   57.3392 H   0  0  0  0  0  0  0  0  0  0  0  0
  129.2814  123.5273   57.3392 H   0  0  0  0  0  0  0  0  0  0  0  0
  1  2  1  0
  2  3  2  0
  3  4  1  0
  4  5  2  0
  5  6  1  0
  6  7  1  0
  7  8  1  0
  8  9  2  0
  8 10  1  0
 10 11  1  0
 11 12  1  0
 12 13  2  0
 13 14  1  0
 14 15  1  0
 14 16  2  0
 16 17  1  0
 17 18  1  0
 17 19  2  0
 19 20  1  0
 20 21  3  0
  6 22  2  0
 22  2  1  0
 19 12  1  0
  1 23  1  0
  1 24  1  0
  1 25  1  0
  3 26  1  0
  4 27  1  0
  5 28  1  0
  7 29  1  0
 10 30  1  0
 10 31  1  0
 15 32  1  0
 15 33  1  0
 15 34  1  0
 16 35  1  0
 18 36  1  0
 18 37  1  0
 18 38  1  0
M  END
>  <Binding energies>  (1) 
[-6.69]

>  <Ligand effiencies>  (1) 
[-0.2908695652173913]

>  <Interactions>  (1) 
["V-A:ASP:366:CG:3212, V-A:ASP:366:CB:3211, V-B:ALA:541:CB:9863, V-B:TYR:539:C:9838, V-A:LEU:475:CD2:4258, V-A:PRO:482:CG:4326, V-A:HIS:383:CE1:3393, V-B:TYR:539:CD2:9845, V-A:ILE:369:CG2:3236, V-B:TYR:539:CE2:9847, V-B:TYR:539:CB:9842, V-A:SER:385:CA:3406, V-A:GLY:454:CA:4048, V-B:VAL:344:CG1:7971, V-B:TYR:539:CG:9843, V-B:MET:535:CE:9806, H-B:TYR:539:OH:9849, V-B:TYR:539:CZ:9848, V-A:PRO:482:CB:4325, V-A:LEU:373:CG:3278, V-A:LEU:373:CD2:3280, V-A:VAL:384:C:3396"]

$$$$
1f_Grossjean_2025
     RDKit          3D

 35 36  0  0  0  0  0  0  0  0999 V2000
  133.9620  124.1450   61.8500 C   0  0  0  0  0  0  0  0  0  0  0  0
  133.1800  122.8520   61.7110 C   0  0  0  0  0  0  0  0  0  0  0  0
  133.7540  121.7080   61.1620 C   0  0  0  0  0  0  0  0  0  0  0  0
  132.9800  120.5480   61.0480 C   0  0  0  0  0  0  0  0  0  0  0  0
  133.6260  119.3120   60.4260 C   0  0  0  0  0  0  0  0  0  0  0  0
  131.6410  120.5630   61.4990 C   0  0  0  0  0  0  0  0  0  0  0  0
  130.7980  119.3750   61.3370 C   0  0  0  0  0  0  0  0  0  0  0  0
  130.1340  118.4370   61.2080 N   0  0  0  0  0  0  0  0  0  0  0  0
  131.1490  121.7610   62.0700 C   0  0  0  0  0  0  0  0  0  0  0  0
  129.4930  121.9680   62.6910 S   0  0  0  0  0  0  0  0  0  0  0  0
  128.7810  123.4730   61.9430 C   0  0  0  0  0  0  0  0  0  0  0  0
  127.5910  123.2280   61.0030 C   0  0  0  0  0  0  0  0  0  0  0  0
  126.4650  123.0280   61.4600 O   0  0  0  0  0  0  0  0  0  0  0  0
  127.9050  123.2280   59.6900 N   0  0  0  0  0  0  0  0  0  0  0  0
  127.0740  123.0450   58.5680 C   0  0  0  0  0  0  0  0  0  0  0  0
  125.7450  123.4920   58.4500 C   0  0  0  0  0  0  0  0  0  0  0  0
  125.0340  123.2450   57.2730 C   0  0  0  0  0  0  0  0  0  0  0  0
  125.6710  122.5580   56.2390 C   0  0  0  0  0  0  0  0  0  0  0  0
  126.9520  122.1210   56.3250 N   0  0  0  0  0  0  0  0  0  0  0  0
  127.6300  122.3690   57.4760 C   0  0  0  0  0  0  0  0  0  0  0  0
  131.9010  122.8870   62.1530 N   0  0  0  0  0  0  0  0  0  0  0  0
  134.1018  124.3761   62.9163 H   0  0  0  0  0  0  0  0  0  0  0  0
  134.9441  124.0333   61.3672 H   0  0  0  0  0  0  0  0  0  0  0  0
  133.4070  124.9629   61.3672 H   0  0  0  0  0  0  0  0  0  0  0  0
  134.8004  121.7163   60.8230 H   0  0  0  0  0  0  0  0  0  0  0  0
  133.9768  118.6408   61.2238 H   0  0  0  0  0  0  0  0  0  0  0  0
  132.8873  118.7864   59.8031 H   0  0  0  0  0  0  0  0  0  0  0  0
  134.4793  119.6184   59.8031 H   0  0  0  0  0  0  0  0  0  0  0  0
  128.4436  124.1320   62.7566 H   0  0  0  0  0  0  0  0  0  0  0  0
  129.5760  123.9157   61.3249 H   0  0  0  0  0  0  0  0  0  0  0  0
  128.8800  123.3640   59.4660 H   0  0  0  0  0  0  0  0  0  0  0  0
  125.2682  124.0333   59.2804 H   0  0  0  0  0  0  0  0  0  0  0  0
  123.9936  123.5851   57.1637 H   0  0  0  0  0  0  0  0  0  0  0  0
  125.1096  122.3623   55.3135 H   0  0  0  0  0  0  0  0  0  0  0  0
  128.6703  122.0202   57.5536 H   0  0  0  0  0  0  0  0  0  0  0  0
  1  2  1  0
  2  3  2  0
  3  4  1  0
  4  5  1  0
  4  6  2  0
  6  7  1  0
  7  8  3  0
  6  9  1  0
  9 10  1  0
 10 11  1  0
 11 12  1  0
 12 13  2  0
 12 14  1  0
 14 15  1  0
 15 16  2  0
 16 17  1  0
 17 18  2  0
 18 19  1  0
 19 20  2  0
  9 21  2  0
 21  2  1  0
 20 15  1  0
  1 22  1  0
  1 23  1  0
  1 24  1  0
  3 25  1  0
  5 26  1  0
  5 27  1  0
  5 28  1  0
 11 29  1  0
 11 30  1  0
 14 31  1  0
 16 32  1  0
 17 33  1  0
 18 34  1  0
 20 35  1  0
M  END
>  <Binding energies>  (1) 
[-7.48]

>  <Ligand effiencies>  (1) 
[-0.34]

>  <Interactions>  (1) 
["V-A:ASP:366:CG:3212, V-B:PRO:540:N:9855, H-B:ALA:541:N:9862, V-B:ALA:541:CB:9863, V-B:PRO:540:CA:9854, V-B:TYR:539:C:9838, V-A:LEU:475:CD2:4258, V-A:ILE:369:CD1:3238, V-B:TYR:539:CD2:9845, V-A:ILE:369:CG2:3236, V-B:TYR:539:CE2:9847, V-A:SER:385:CA:3406, V-A:SER:385:CB:3408, H-B:TYR:539:N:9841, V-B:TYR:539:CG:9843, V-B:MET:535:CE:9806, V-B:PRO:540:CB:9856, V-B:TYR:539:CA:9840, V-B:TYR:539:CD1:9844, V-B:PRO:540:CD:9858, V-B:TYR:531:CE2:9764, V-B:LEU:363:CD1:8159, V-A:VAL:384:C:3396"]

$$$$
1g_Grossjean_2025
     RDKit          3D

 39 40  0  0  0  0  0  0  0  0999 V2000
  129.6210  116.8510   60.6290 C   0  0  0  0  0  0  0  0  0  0  0  0
  130.6000  118.0080   60.6940 C   0  0  0  0  0  0  0  0  0  0  0  0
  131.7970  117.9930   59.9820 C   0  0  0  0  0  0  0  0  0  0  0  0
  132.6680  119.0820   60.0940 C   0  0  0  0  0  0  0  0  0  0  0  0
  133.9820  119.0360   59.3150 C   0  0  0  0  0  0  0  0  0  0  0  0
  132.3100  120.1730   60.9170 C   0  0  0  0  0  0  0  0  0  0  0  0
  133.2300  121.3000   61.0910 C   0  0  0  0  0  0  0  0  0  0  0  0
  133.9590  122.1890   61.2270 N   0  0  0  0  0  0  0  0  0  0  0  0
  131.0630  120.1140   61.5840 C   0  0  0  0  0  0  0  0  0  0  0  0
  130.4520  121.4000   62.6500 S   0  0  0  0  0  0  0  0  0  0  0  0
  128.8440  121.9320   61.9870 C   0  0  0  0  0  0  0  0  0  0  0  0
  129.0000  122.8520   60.7750 C   0  0  0  0  0  0  0  0  0  0  0  0
  129.6750  123.8790   60.8630 O   0  0  0  0  0  0  0  0  0  0  0  0
  128.3640  122.4720   59.6540 N   0  0  0  0  0  0  0  0  0  0  0  0
  128.4230  123.1670   58.3680 C   0  0  0  0  0  0  0  0  0  0  0  0
  127.1770  122.9970   57.5050 C   0  0  0  0  0  0  0  0  0  0  0  0
  125.9380  123.4490   57.9710 C   0  0  0  0  0  0  0  0  0  0  0  0
  124.8000  123.2950   57.1830 C   0  0  0  0  0  0  0  0  0  0  0  0
  124.9060  122.6930   55.9300 C   0  0  0  0  0  0  0  0  0  0  0  0
  126.1370  122.2450   55.4580 C   0  0  0  0  0  0  0  0  0  0  0  0
  127.2750  122.3970   56.2460 C   0  0  0  0  0  0  0  0  0  0  0  0
  130.2350  119.0430   61.4870 N   0  0  0  0  0  0  0  0  0  0  0  0
  129.3557  116.5374   61.6494 H   0  0  0  0  0  0  0  0  0  0  0  0
  128.7131  117.1685   60.0952 H   0  0  0  0  0  0  0  0  0  0  0  0
  130.0844  116.0082   60.0952 H   0  0  0  0  0  0  0  0  0  0  0  0
  132.0538  117.1370   59.3407 H   0  0  0  0  0  0  0  0  0  0  0  0
  134.8256  119.0065   60.0203 H   0  0  0  0  0  0  0  0  0  0  0  0
  134.0017  118.1366   58.6820 H   0  0  0  0  0  0  0  0  0  0  0  0
  134.0645  119.9318   58.6820 H   0  0  0  0  0  0  0  0  0  0  0  0
  128.2719  121.0420   61.6860 H   0  0  0  0  0  0  0  0  0  0  0  0
  128.3207  122.4937   62.7748 H   0  0  0  0  0  0  0  0  0  0  0  0
  127.8490  121.6030   59.6650 H   0  0  0  0  0  0  0  0  0  0  0  0
  128.5634  124.2405   58.5627 H   0  0  0  0  0  0  0  0  0  0  0  0
  129.2578  122.7215   57.8072 H   0  0  0  0  0  0  0  0  0  0  0  0
  125.8625  123.9259   58.9594 H   0  0  0  0  0  0  0  0  0  0  0  0
  123.8233  123.6463   57.5471 H   0  0  0  0  0  0  0  0  0  0  0  0
  124.0074  122.5706   55.3075 H   0  0  0  0  0  0  0  0  0  0  0  0
  126.2102  121.7731   54.4671 H   0  0  0  0  0  0  0  0  0  0  0  0
  128.2502  122.0453   55.8782 H   0  0  0  0  0  0  0  0  0  0  0  0
  1  2  1  0
  2  3  2  0
  3  4  1  0
  4  5  1  0
  4  6  2  0
  6  7  1  0
  7  8  3  0
  6  9  1  0
  9 10  1  0
 10 11  1  0
 11 12  1  0
 12 13  2  0
 12 14  1  0
 14 15  1  0
 15 16  1  0
 16 17  2  0
 17 18  1  0
 18 19  2  0
 19 20  1  0
 20 21  2  0
  9 22  2  0
 22  2  1  0
 21 16  1  0
  1 23  1  0
  1 24  1  0
  1 25  1  0
  3 26  1  0
  5 27  1  0
  5 28  1  0
  5 29  1  0
 11 30  1  0
 11 31  1  0
 14 32  1  0
 15 33  1  0
 15 34  1  0
 17 35  1  0
 18 36  1  0
 19 37  1  0
 20 38  1  0
 21 39  1  0
M  END
>  <Binding energies>  (1) 
[-7.91]

>  <Ligand effiencies>  (1) 
[-0.34391304347826085]

>  <Interactions>  (1) 
["V-B:PRO:540:N:9855, V-B:ALA:541:CB:9863, V-B:PRO:540:CA:9854, V-B:ALA:541:CA:9861, V-B:PRO:540:C:9852, V-B:TYR:539:C:9838, V-A:LEU:475:CD2:4258, V-A:PRO:482:CG:4326, V-A:HIS:383:CE1:3393, H-B:TYR:539:O:9839, V-B:TYR:539:CD2:9845, V-A:ILE:369:CG2:3236, V-B:TYR:539:CE2:9847, V-B:TYR:539:CB:9842, V-A:SER:385:CA:3406, V-B:VAL:344:CG1:7971, V-B:TYR:539:CG:9843, V-B:MET:535:CE:9806, V-B:TYR:539:CZ:9848, V-A:PRO:482:CB:4325, V-B:PRO:540:CB:9856, V-B:TYR:539:CD1:9844, V-B:TYR:531:CZ:9765, V-B:TYR:531:CE2:9764, V-B:LEU:363:CD1:8159, V-B:ILE:538:CD1:9836, V-B:ILE:538:CG2:9834, V-B:ILE:538:CA:9831, V-B:TYR:539:CE1:9846, V-B:ILE:538:C:9829, V-A:LEU:373:CG:3278, V-A:LEU:373:CD2:3280, V-B:MET:535:CG:9804, V-A:VAL:384:C:3396"]

$$$$
1h_Grossjean_2025
     RDKit          3D

 51 52  0  0  0  0  0  0  0  0999 V2000
  126.1090  122.2560   55.9370 C   0  0  0  0  0  0  0  0  0  0  0  0
  126.4500  123.6180   56.1670 O   0  0  0  0  0  0  0  0  0  0  0  0
  127.0380  123.9770   57.3660 C   0  0  0  0  0  0  0  0  0  0  0  0
  128.3020  124.5790   57.4700 C   0  0  0  0  0  0  0  0  0  0  0  0
  128.8390  124.9020   58.7170 C   0  0  0  0  0  0  0  0  0  0  0  0
  130.2040  125.5770   58.8140 C   0  0  0  0  0  0  0  0  0  0  0  0
  131.2320  124.7530   59.4500 N   0  0  0  0  0  0  0  0  0  0  0  0
  132.4630  124.5270   58.9570 C   0  0  0  0  0  0  0  0  0  0  0  0
  132.8790  125.0190   57.9090 O   0  0  0  0  0  0  0  0  0  0  0  0
  133.3620  123.5960   59.7710 C   0  0  0  0  0  0  0  0  0  0  0  0
  133.4100  124.0600   61.5290 S   0  0  0  0  0  0  0  0  0  0  0  0
  131.8960  123.4990   62.2900 C   0  0  0  0  0  0  0  0  0  0  0  0
  131.0330  122.8400   61.4730 N   0  0  0  0  0  0  0  0  0  0  0  0
  129.8680  122.3830   61.9870 C   0  0  0  0  0  0  0  0  0  0  0  0
  128.9600  121.6540   61.0140 C   0  0  0  0  0  0  0  0  0  0  0  0
  129.5130  122.5620   63.3220 C   0  0  0  0  0  0  0  0  0  0  0  0
  130.3910  123.2410   64.1740 C   0  0  0  0  0  0  0  0  0  0  0  0
  129.9840  123.4250   65.6340 C   0  0  0  0  0  0  0  0  0  0  0  0
  131.6150  123.7270   63.6570 C   0  0  0  0  0  0  0  0  0  0  0  0
  132.5530  124.4440   64.5250 C   0  0  0  0  0  0  0  0  0  0  0  0
  133.2940  125.0100   65.2110 N   0  0  0  0  0  0  0  0  0  0  0  0
  128.0960  124.6570   59.8720 C   0  0  0  0  0  0  0  0  0  0  0  0
  126.8270  124.0610   59.7980 C   0  0  0  0  0  0  0  0  0  0  0  0
  126.0370  123.7870   60.8990 O   0  0  0  0  0  0  0  0  0  0  0  0
  126.5510  124.0240   62.2050 C   0  0  0  0  0  0  0  0  0  0  0  0
  126.3140  123.7160   58.5390 C   0  0  0  0  0  0  0  0  0  0  0  0
  125.0710  123.1380   58.4500 O   0  0  0  0  0  0  0  0  0  0  0  0
  123.9950  124.0610   58.5480 C   0  0  0  0  0  0  0  0  0  0  0  0
  125.9804  121.7424   56.9012 H   0  0  0  0  0  0  0  0  0  0  0  0
  125.1702  122.2044   55.3660 H   0  0  0  0  0  0  0  0  0  0  0  0
  126.9127  121.7682   55.3660 H   0  0  0  0  0  0  0  0  0  0  0  0
  128.8760  124.7987   56.5577 H   0  0  0  0  0  0  0  0  0  0  0  0
  130.5402  125.8250   57.7964 H   0  0  0  0  0  0  0  0  0  0  0  0
  130.0741  126.4677   59.4463 H   0  0  0  0  0  0  0  0  0  0  0  0
  130.9660  124.2970   60.3120 H   0  0  0  0  0  0  0  0  0  0  0  0
  132.9792  122.5683   59.6853 H   0  0  0  0  0  0  0  0  0  0  0  0
  134.3836  123.6749   59.3709 H   0  0  0  0  0  0  0  0  0  0  0  0
  128.2221  121.0615   61.5747 H   0  0  0  0  0  0  0  0  0  0  0  0
  128.4376  122.3864   60.3810 H   0  0  0  0  0  0  0  0  0  0  0  0
  129.5622  120.9857   60.3810 H   0  0  0  0  0  0  0  0  0  0  0  0
  128.5557  122.1749   63.7012 H   0  0  0  0  0  0  0  0  0  0  0  0
  130.7899  123.0607   66.2880 H   0  0  0  0  0  0  0  0  0  0  0  0
  129.8044  124.4919   65.8329 H   0  0  0  0  0  0  0  0  0  0  0  0
  129.0644  122.8551   65.8329 H   0  0  0  0  0  0  0  0  0  0  0  0
  128.5095  124.9342   60.8529 H   0  0  0  0  0  0  0  0  0  0  0  0
  125.8193  123.6866   62.9538 H   0  0  0  0  0  0  0  0  0  0  0  0
  127.4915  123.4687   62.3352 H   0  0  0  0  0  0  0  0  0  0  0  0
  126.7394  125.0999   62.3352 H   0  0  0  0  0  0  0  0  0  0  0  0
  123.7716  124.2526   59.6079 H   0  0  0  0  0  0  0  0  0  0  0  0
  124.2750  125.0041   58.0560 H   0  0  0  0  0  0  0  0  0  0  0  0
  123.1054  123.6407   58.0560 H   0  0  0  0  0  0  0  0  0  0  0  0
  1  2  1  0
  2  3  1  0
  3  4  2  0
  4  5  1  0
  5  6  1  0
  6  7  1  0
  7  8  1  0
  8  9  2  0
  8 10  1  0
 10 11  1  0
 11 12  1  0
 12 13  2  0
 13 14  1  0
 14 15  1  0
 14 16  2  0
 16 17  1  0
 17 18  1  0
 17 19  2  0
 19 20  1  0
 20 21  3  0
  5 22  2  0
 22 23  1  0
 23 24  1  0
 24 25  1  0
 23 26  2  0
 26 27  1  0
 27 28  1  0
 26  3  1  0
 19 12  1  0
  1 29  1  0
  1 30  1  0
  1 31  1  0
  4 32  1  0
  6 33  1  0
  6 34  1  0
  7 35  1  0
 10 36  1  0
 10 37  1  0
 15 38  1  0
 15 39  1  0
 15 40  1  0
 16 41  1  0
 18 42  1  0
 18 43  1  0
 18 44  1  0
 22 45  1  0
 25 46  1  0
 25 47  1  0
 25 48  1  0
 28 49  1  0
 28 50  1  0
 28 51  1  0
M  END
>  <Binding energies>  (1) 
[-6.23]

>  <Ligand effiencies>  (1) 
[-0.21482758620689657]

>  <Interactions>  (1) 
["V-A:ASP:366:CG:3212, V-A:ASP:366:CB:3211, V-B:GLU:543:CD:9879, H-A:TYR:484:OH:4347, V-B:ALA:541:CB:9863, V-B:PRO:540:CA:9854, V-B:PRO:540:C:9852, V-B:TYR:539:C:9838, V-A:ILE:369:CD1:3238, V-B:TYR:539:CD2:9845, V-A:ILE:369:CG2:3236, V-B:TYR:539:CE2:9847, V-B:MET:535:CE:9806, H-B:TYR:539:OH:9849, V-B:TYR:539:CZ:9848, V-B:GLU:543:CG:9878, V-B:PRO:540:CB:9856, H-A:GLY:454:N:4049, V-B:PRO:540:CD:9858, V-B:LEU:363:CD1:8159, V-B:ILE:538:CD1:9836, V-B:ILE:538:CG2:9834, V-B:ILE:538:CA:9831, V-B:ILE:538:C:9829, V-A:TYR:484:CZ:4346, V-A:TYR:484:CE2:4345, H-B:TYR:531:OH:9766, V-B:LEU:363:CA:8155, V-A:ILE:369:CB:3235"]

$$$$
1i_Grossjean_2025
     RDKit          3D

 32 33  0  0  0  0  0  0  0  0999 V2000
  129.8080  116.9000   60.7430 C   0  0  0  0  0  0  0  0  0  0  0  0
  130.6670  118.1450   60.8620 C   0  0  0  0  0  0  0  0  0  0  0  0
  131.9700  118.1810   60.3710 C   0  0  0  0  0  0  0  0  0  0  0  0
  132.7130  119.3590   60.5000 C   0  0  0  0  0  0  0  0  0  0  0  0
  134.1340  119.3800   59.9390 C   0  0  0  0  0  0  0  0  0  0  0  0
  132.1270  120.4810   61.1310 C   0  0  0  0  0  0  0  0  0  0  0  0
  132.8690  121.7400   61.2320 C   0  0  0  0  0  0  0  0  0  0  0  0
  133.4560  122.7340   61.3090 N   0  0  0  0  0  0  0  0  0  0  0  0
  130.8070  120.3450   61.6220 C   0  0  0  0  0  0  0  0  0  0  0  0
  129.9170  121.6510   62.4410 S   0  0  0  0  0  0  0  0  0  0  0  0
  129.6840  122.9950   61.2400 C   0  0  0  0  0  0  0  0  0  0  0  0
  128.4100  122.8120   60.4120 C   0  0  0  0  0  0  0  0  0  0  0  0
  127.3290  122.6780   60.9880 O   0  0  0  0  0  0  0  0  0  0  0  0
  128.5810  122.8170   59.0720 N   0  0  0  0  0  0  0  0  0  0  0  0
  127.6030  122.6680   58.0990 C   0  0  0  0  0  0  0  0  0  0  0  0
  126.3250  123.2120   58.2140 C   0  0  0  0  0  0  0  0  0  0  0  0
  125.6730  122.8430   57.0610 C   0  0  0  0  0  0  0  0  0  0  0  0
  126.5130  122.1120   56.2910 O   0  0  0  0  0  0  0  0  0  0  0  0
  127.7340  122.0060   56.9610 N   0  0  0  0  0  0  0  0  0  0  0  0
  130.0870  119.2040   61.4740 N   0  0  0  0  0  0  0  0  0  0  0  0
  129.5542  116.5322   61.7481 H   0  0  0  0  0  0  0  0  0  0  0  0
  128.8842  117.1427   60.1973 H   0  0  0  0  0  0  0  0  0  0  0  0
  130.3628  116.1225   60.1973 H   0  0  0  0  0  0  0  0  0  0  0  0
  132.4087  117.2952   59.8884 H   0  0  0  0  0  0  0  0  0  0  0  0
  134.8558  119.3907   60.7690 H   0  0  0  0  0  0  0  0  0  0  0  0
  134.2979  118.4842   59.3220 H   0  0  0  0  0  0  0  0  0  0  0  0
  134.2714  120.2803   59.3220 H   0  0  0  0  0  0  0  0  0  0  0  0
  129.6199  123.9493   61.7834 H   0  0  0  0  0  0  0  0  0  0  0  0
  130.5408  122.9855   60.5502 H   0  0  0  0  0  0  0  0  0  0  0  0
  129.5260  122.9070   58.7260 H   0  0  0  0  0  0  0  0  0  0  0  0
  125.9244  123.8079   59.0473 H   0  0  0  0  0  0  0  0  0  0  0  0
  124.6347  123.1006   56.8051 H   0  0  0  0  0  0  0  0  0  0  0  0
  1  2  1  0
  2  3  2  0
  3  4  1  0
  4  5  1  0
  4  6  2  0
  6  7  1  0
  7  8  3  0
  6  9  1  0
  9 10  1  0
 10 11  1  0
 11 12  1  0
 12 13  2  0
 12 14  1  0
 14 15  1  0
 15 16  1  0
 16 17  2  0
 17 18  1  0
 18 19  1  0
  9 20  2  0
 20  2  1  0
 19 15  2  0
  1 21  1  0
  1 22  1  0
  1 23  1  0
  3 24  1  0
  5 25  1  0
  5 26  1  0
  5 27  1  0
 11 28  1  0
 11 29  1  0
 14 30  1  0
 16 31  1  0
 17 32  1  0
M  END
>  <Binding energies>  (1) 
[-7.83]

>  <Ligand effiencies>  (1) 
[-0.3728571428571429]

>  <Interactions>  (1) 
["V-B:PRO:540:N:9855, H-B:ALA:541:N:9862, V-B:ALA:541:CB:9863, V-B:PRO:540:CA:9854, V-B:TYR:539:C:9838, V-A:LEU:475:CD2:4258, V-A:PRO:482:CG:4326, V-A:HIS:383:CE1:3393, H-B:TYR:539:O:9839, V-B:TYR:539:CD2:9845, V-A:ILE:369:CG2:3236, V-B:TYR:539:CE2:9847, V-B:TYR:539:CB:9842, V-A:SER:385:CA:3406, V-A:SER:385:CB:3408, H-B:TYR:539:N:9841, V-B:VAL:344:CG1:7971, V-A:PRO:482:CB:4325, V-B:PRO:540:CB:9856, V-B:PRO:540:CD:9858, V-A:VAL:384:C:3396"]

$$$$
1j_Grossjean_2025
     RDKit          3D

 32 33  0  0  0  0  0  0  0  0999 V2000
  129.7840  116.6230   60.7590 C   0  0  0  0  0  0  0  0  0  0  0  0
  130.6740  117.8520   60.7350 C   0  0  0  0  0  0  0  0  0  0  0  0
  131.8940  117.8560   60.0620 C   0  0  0  0  0  0  0  0  0  0  0  0
  132.6650  119.0220   60.0620 C   0  0  0  0  0  0  0  0  0  0  0  0
  133.9910  119.0080   59.3030 C   0  0  0  0  0  0  0  0  0  0  0  0
  132.1940  120.1630   60.7510 C   0  0  0  0  0  0  0  0  0  0  0  0
  132.9610  121.4110   60.7210 C   0  0  0  0  0  0  0  0  0  0  0  0
  133.5690  122.3950   60.6940 N   0  0  0  0  0  0  0  0  0  0  0  0
  130.9570  120.0600   61.4300 C   0  0  0  0  0  0  0  0  0  0  0  0
  130.2150  121.3920   62.3470 S   0  0  0  0  0  0  0  0  0  0  0  0
  129.9160  122.7610   61.1890 C   0  0  0  0  0  0  0  0  0  0  0  0
  128.5620  122.6350   60.4890 C   0  0  0  0  0  0  0  0  0  0  0  0
  127.5570  122.3870   61.1570 O   0  0  0  0  0  0  0  0  0  0  0  0
  128.5790  122.8140   59.1500 N   0  0  0  0  0  0  0  0  0  0  0  0
  127.4910  122.7450   58.2910 C   0  0  0  0  0  0  0  0  0  0  0  0
  127.3690  122.0180   57.2010 N   0  0  0  0  0  0  0  0  0  0  0  0
  126.1960  122.1990   56.6280 C   0  0  0  0  0  0  0  0  0  0  0  0
  125.3330  123.0900   57.2600 C   0  0  0  0  0  0  0  0  0  0  0  0
  126.1110  123.7190   58.6810 S   0  0  0  0  0  0  0  0  0  0  0  0
  130.2050  118.9310   61.4050 N   0  0  0  0  0  0  0  0  0  0  0  0
  129.5786  116.3393   61.8018 H   0  0  0  0  0  0  0  0  0  0  0  0
  128.8367  116.8462   60.2463 H   0  0  0  0  0  0  0  0  0  0  0  0
  130.2916  115.7926   60.2463 H   0  0  0  0  0  0  0  0  0  0  0  0
  132.2453  116.9547   59.5383 H   0  0  0  0  0  0  0  0  0  0  0  0
  134.8244  118.9992   60.0209 H   0  0  0  0  0  0  0  0  0  0  0  0
  134.0422  118.1093   58.6708 H   0  0  0  0  0  0  0  0  0  0  0  0
  134.0611  119.9055   58.6708 H   0  0  0  0  0  0  0  0  0  0  0  0
  129.9407  123.7091   61.7462 H   0  0  0  0  0  0  0  0  0  0  0  0
  130.7005  122.7313   60.4185 H   0  0  0  0  0  0  0  0  0  0  0  0
  129.4720  122.9880   58.7140 H   0  0  0  0  0  0  0  0  0  0  0  0
  125.9147  121.6755   55.7024 H   0  0  0  0  0  0  0  0  0  0  0  0
  124.3220  123.3533   56.9156 H   0  0  0  0  0  0  0  0  0  0  0  0
  1  2  1  0
  2  3  2  0
  3  4  1  0
  4  5  1  0
  4  6  2  0
  6  7  1  0
  7  8  3  0
  6  9  1  0
  9 10  1  0
 10 11  1  0
 11 12  1  0
 12 13  2  0
 12 14  1  0
 14 15  1  0
 15 16  2  0
 16 17  1  0
 17 18  2  0
 18 19  1  0
  9 20  2  0
 20  2  1  0
 19 15  1  0
  1 21  1  0
  1 22  1  0
  1 23  1  0
  3 24  1  0
  5 25  1  0
  5 26  1  0
  5 27  1  0
 11 28  1  0
 11 29  1  0
 14 30  1  0
 17 31  1  0
 18 32  1  0
M  END
>  <Binding energies>  (1) 
[-7.3]

>  <Ligand effiencies>  (1) 
[-0.3476190476190476]

>  <Interactions>  (1) 
["V-B:PRO:540:N:9855, H-B:ALA:541:N:9862, V-B:PRO:540:CA:9854, V-B:TYR:539:C:9838, V-A:LEU:475:CD2:4258, V-A:PRO:482:CG:4326, V-A:HIS:383:CE1:3393, V-B:TYR:539:CD2:9845, V-A:ILE:369:CG2:3236, V-B:TYR:539:CE2:9847, V-B:TYR:539:CB:9842, V-A:SER:385:CA:3406, H-B:TYR:539:N:9841, V-B:VAL:344:CG1:7971, V-A:PRO:482:CB:4325, V-B:PRO:540:CB:9856, V-B:PRO:540:CD:9858, V-B:LEU:363:CD1:8159, V-B:ILE:538:CA:9831, V-A:LEU:373:CG:3278, V-A:LEU:373:CD2:3280, V-A:VAL:384:C:3396"]

$$$$
1k_Grossjean_2025
     RDKit          3D

 50 50  0  0  0  0  0  0  0  0999 V2000
  125.5080  122.3810   56.3120 C   0  0  0  0  0  0  0  0  0  0  0  0
  126.8820  122.0400   56.2290 O   0  0  0  0  0  0  0  0  0  0  0  0
  127.6270  122.4050   57.3830 C   0  0  0  0  0  0  0  0  0  0  0  0
  126.9580  123.6070   58.0650 C   0  0  0  0  0  0  0  0  0  0  0  0
  126.3210  123.1770   59.2620 O   0  0  0  0  0  0  0  0  0  0  0  0
  126.3350  124.1500   60.2970 C   0  0  0  0  0  0  0  0  0  0  0  0
  125.8910  123.5000   61.6140 C   0  0  0  0  0  0  0  0  0  0  0  0
  127.0210  122.9340   62.2670 O   0  0  0  0  0  0  0  0  0  0  0  0
  127.5140  123.7230   63.3420 C   0  0  0  0  0  0  0  0  0  0  0  0
  128.6740  122.9850   64.0350 C   0  0  0  0  0  0  0  0  0  0  0  0
  129.8530  122.8010   63.1870 N   0  0  0  0  0  0  0  0  0  0  0  0
  130.9840  122.1760   63.5580 C   0  0  0  0  0  0  0  0  0  0  0  0
  131.1430  121.6770   64.6740 O   0  0  0  0  0  0  0  0  0  0  0  0
  132.0910  122.1210   62.4930 C   0  0  0  0  0  0  0  0  0  0  0  0
  133.3510  123.4410   62.5940 S   0  0  0  0  0  0  0  0  0  0  0  0
  132.8340  124.6540   63.8010 C   0  0  0  0  0  0  0  0  0  0  0  0
  133.6210  124.7670   64.9020 N   0  0  0  0  0  0  0  0  0  0  0  0
  133.2810  125.6600   65.8590 C   0  0  0  0  0  0  0  0  0  0  0  0
  134.2040  125.7210   67.0610 C   0  0  0  0  0  0  0  0  0  0  0  0
  132.1580  126.4790   65.7590 C   0  0  0  0  0  0  0  0  0  0  0  0
  131.3440  126.3780   64.6260 C   0  0  0  0  0  0  0  0  0  0  0  0
  130.1180  127.2830   64.5360 C   0  0  0  0  0  0  0  0  0  0  0  0
  131.6790  125.4480   63.6170 C   0  0  0  0  0  0  0  0  0  0  0  0
  130.8410  125.3180   62.4210 C   0  0  0  0  0  0  0  0  0  0  0  0
  130.1790  125.2150   61.4770 N   0  0  0  0  0  0  0  0  0  0  0  0
  125.2117  122.4545   57.3688 H   0  0  0  0  0  0  0  0  0  0  0  0
  125.3396  123.3482   55.8158 H   0  0  0  0  0  0  0  0  0  0  0  0
  124.9069  121.6048   55.8158 H   0  0  0  0  0  0  0  0  0  0  0  0
  127.6581  121.5569   58.0828 H   0  0  0  0  0  0  0  0  0  0  0  0
  128.6518  122.6745   57.0878 H   0  0  0  0  0  0  0  0  0  0  0  0
  127.7198  124.3631   58.3059 H   0  0  0  0  0  0  0  0  0  0  0  0
  126.2099  124.0443   57.3874 H   0  0  0  0  0  0  0  0  0  0  0  0
  127.3532  124.5504   60.4104 H   0  0  0  0  0  0  0  0  0  0  0  0
  125.6463  124.9686   60.0409 H   0  0  0  0  0  0  0  0  0  0  0  0
  125.4353  124.2617   62.2637 H   0  0  0  0  0  0  0  0  0  0  0  0
  125.1548  122.7102   61.4036 H   0  0  0  0  0  0  0  0  0  0  0  0
  127.8737  124.6872   62.9535 H   0  0  0  0  0  0  0  0  0  0  0  0
  126.7061  123.8967   64.0680 H   0  0  0  0  0  0  0  0  0  0  0  0
  128.9723  123.5642   64.9213 H   0  0  0  0  0  0  0  0  0  0  0  0
  128.3053  121.9805   64.2902 H   0  0  0  0  0  0  0  0  0  0  0  0
  129.7980  123.1870   62.2560 H   0  0  0  0  0  0  0  0  0  0  0  0
  132.6058  121.1537   62.5898 H   0  0  0  0  0  0  0  0  0  0  0  0
  131.5854  122.2613   61.5262 H   0  0  0  0  0  0  0  0  0  0  0  0
  133.6070  125.6815   67.9841 H   0  0  0  0  0  0  0  0  0  0  0  0
  134.8964  124.8667   67.0353 H   0  0  0  0  0  0  0  0  0  0  0  0
  134.7780  126.6590   67.0353 H   0  0  0  0  0  0  0  0  0  0  0  0
  131.9154  127.1940   66.5589 H   0  0  0  0  0  0  0  0  0  0  0  0
  129.7743  127.5367   65.5497 H   0  0  0  0  0  0  0  0  0  0  0  0
  130.3815  128.2048   63.9967 H   0  0  0  0  0  0  0  0  0  0  0  0
  129.3147  126.7596   63.9967 H   0  0  0  0  0  0  0  0  0  0  0  0
  1  2  1  0
  2  3  1  0
  3  4  1  0
  4  5  1  0
  5  6  1  0
  6  7  1  0
  7  8  1  0
  8  9  1  0
  9 10  1  0
 10 11  1  0
 11 12  1  0
 12 13  2  0
 12 14  1  0
 14 15  1  0
 15 16  1  0
 16 17  2  0
 17 18  1  0
 18 19  1  0
 18 20  2  0
 20 21  1  0
 21 22  1  0
 21 23  2  0
 23 24  1  0
 24 25  3  0
 23 16  1  0
  1 26  1  0
  1 27  1  0
  1 28  1  0
  3 29  1  0
  3 30  1  0
  4 31  1  0
  4 32  1  0
  6 33  1  0
  6 34  1  0
  7 35  1  0
  7 36  1  0
  9 37  1  0
  9 38  1  0
 10 39  1  0
 10 40  1  0
 11 41  1  0
 14 42  1  0
 14 43  1  0
 19 44  1  0
 19 45  1  0
 19 46  1  0
 20 47  1  0
 22 48  1  0
 22 49  1  0
 22 50  1  0
M  END
>  <Binding energies>  (1) 
[-5.81]

>  <Ligand effiencies>  (1) 
[-0.22346153846153843]

>  <Interactions>  (1) 
["V-B:GLU:543:CD:9879, V-B:PRO:540:N:9855, H-B:ALA:541:N:9862, H-A:TYR:484:OH:4347, V-B:ALA:541:CB:9863, V-B:PRO:540:CA:9854, V-B:PRO:540:C:9852, V-B:TYR:539:C:9838, V-A:LEU:475:CD2:4258, V-B:TYR:539:CD2:9845, V-B:TYR:539:CE2:9847, H-B:TYR:539:N:9841, V-B:TYR:539:CG:9843, V-B:MET:535:CE:9806, V-B:GLU:543:CG:9878, V-B:PRO:540:CB:9856, H-A:GLY:454:N:4049, V-B:TYR:539:CA:9840, V-A:ARG:545:CD:4922, V-B:TYR:539:CD1:9844, V-B:PRO:540:CD:9858, V-B:LEU:363:CD1:8159, V-A:ARG:545:CZ:4925, V-A:ARG:545:CG:4921, V-B:ILE:538:CG2:9834, V-A:GLU:543:CD:4907, V-B:ILE:538:CA:9831"]

$$$$
1l_Grossjean_2025
     RDKit          3D

 30 30  0  0  0  0  0  0  0  0999 V2000
  128.0190  122.3780   57.0000 C   0  0  0  0  0  0  0  0  0  0  0  0
  126.7960  121.6570   56.9970 O   0  0  0  0  0  0  0  0  0  0  0  0
  125.7940  122.4170   57.5990 N   0  0  0  0  0  0  0  0  0  0  0  0
  125.0220  123.2080   56.8280 C   0  0  0  0  0  0  0  0  0  0  0  0
  124.9880  123.1400   55.5970 O   0  0  0  0  0  0  0  0  0  0  0  0
  124.1530  124.2160   57.5940 C   0  0  0  0  0  0  0  0  0  0  0  0
  123.9610  123.8720   59.3760 S   0  0  0  0  0  0  0  0  0  0  0  0
  125.5720  123.9720   60.1380 C   0  0  0  0  0  0  0  0  0  0  0  0
  126.5720  124.4390   59.3460 N   0  0  0  0  0  0  0  0  0  0  0  0
  127.8200  124.5400   59.8600 C   0  0  0  0  0  0  0  0  0  0  0  0
  128.8820  125.0690   58.9140 C   0  0  0  0  0  0  0  0  0  0  0  0
  128.1240  124.1840   61.1720 C   0  0  0  0  0  0  0  0  0  0  0  0
  127.1030  123.7030   61.9980 C   0  0  0  0  0  0  0  0  0  0  0  0
  127.4580  123.3200   63.4340 C   0  0  0  0  0  0  0  0  0  0  0  0
  125.7930  123.5900   61.4820 C   0  0  0  0  0  0  0  0  0  0  0  0
  124.7030  123.0880   62.3260 C   0  0  0  0  0  0  0  0  0  0  0  0
  123.8450  122.6930   62.9920 N   0  0  0  0  0  0  0  0  0  0  0  0
  128.3330  122.5631   58.0379 H   0  0  0  0  0  0  0  0  0  0  0  0
  128.7919  121.7911   56.4822 H   0  0  0  0  0  0  0  0  0  0  0  0
  127.8797  123.3385   56.4822 H   0  0  0  0  0  0  0  0  0  0  0  0
  125.9850  122.5970   58.5740 H   0  0  0  0  0  0  0  0  0  0  0  0
  124.6091  125.2111   57.4859 H   0  0  0  0  0  0  0  0  0  0  0  0
  123.1456  124.1473   57.1575 H   0  0  0  0  0  0  0  0  0  0  0  0
  129.7173  125.4851   59.4963 H   0  0  0  0  0  0  0  0  0  0  0  0
  129.2497  124.2488   58.2800 H   0  0  0  0  0  0  0  0  0  0  0  0
  128.4488  125.8566   58.2800 H   0  0  0  0  0  0  0  0  0  0  0  0
  129.1516  124.2797   61.5526 H   0  0  0  0  0  0  0  0  0  0  0  0
  126.8806  123.9429   64.1330 H   0  0  0  0  0  0  0  0  0  0  0  0
  127.2158  122.2601   63.6014 H   0  0  0  0  0  0  0  0  0  0  0  0
  128.5332  123.4812   63.6014 H   0  0  0  0  0  0  0  0  0  0  0  0
  1  2  1  0
  2  3  1  0
  3  4  1  0
  4  5  2  0
  4  6  1  0
  6  7  1  0
  7  8  1  0
  8  9  2  0
  9 10  1  0
 10 11  1  0
 10 12  2  0
 12 13  1  0
 13 14  1  0
 13 15  2  0
 15 16  1  0
 16 17  3  0
 15  8  1  0
  1 18  1  0
  1 19  1  0
  1 20  1  0
  3 21  1  0
  6 22  1  0
  6 23  1  0
 11 24  1  0
 11 25  1  0
 11 26  1  0
 12 27  1  0
 14 28  1  0
 14 29  1  0
 14 30  1  0
M  END
>  <Binding energies>  (1) 
[-6.07]

>  <Ligand effiencies>  (1) 
[-0.33722222222222226]

>  <Interactions>  (1) 
["V-B:GLU:543:CD:9879, V-B:PRO:540:N:9855, H-B:ALA:541:N:9862, V-B:ALA:541:CB:9863, V-B:PRO:540:CA:9854, V-B:ALA:541:CA:9861, V-B:PRO:540:C:9852, V-B:TYR:539:C:9838, V-B:TYR:539:CD2:9845, V-B:TYR:539:CE2:9847, H-B:TYR:539:N:9841, V-B:TYR:539:CG:9843, V-B:MET:535:CE:9806, V-B:TYR:539:CZ:9848, V-B:GLU:543:CG:9878, V-B:ALA:541:C:9859, V-B:PRO:540:CB:9856, V-B:ASN:362:CB:8146, V-B:TYR:539:CA:9840, V-B:TYR:539:CD1:9844, V-B:TYR:531:CZ:9765, V-B:PRO:540:CD:9858, V-B:TYR:531:CE2:9764, V-B:LEU:363:CD1:8159, V-B:TYR:539:CE1:9846, H-B:TYR:531:OH:9766, H-B:ASN:362:ND2:8149, V-B:PRO:540:CG:9857"]

$$$$
1m_Grossjean_2025
     RDKit          3D

 35 35  0  0  0  0  0  0  0  0999 V2000
  125.0210  122.3080   55.5820 C   0  0  0  0  0  0  0  0  0  0  0  0
  125.9400  123.1590   56.2520 O   0  0  0  0  0  0  0  0  0  0  0  0
  126.9300  122.6410   57.0080 C   0  0  0  0  0  0  0  0  0  0  0  0
  127.9000  122.0070   56.5830 O   0  0  0  0  0  0  0  0  0  0  0  0
  126.7160  122.9450   58.5050 C   0  0  0  0  0  0  0  0  0  0  0  0
  127.9710  122.9370   59.2730 N   0  0  0  0  0  0  0  0  0  0  0  0
  128.0710  122.8700   60.6140 C   0  0  0  0  0  0  0  0  0  0  0  0
  127.0900  122.8220   61.3590 O   0  0  0  0  0  0  0  0  0  0  0  0
  129.5010  122.8650   61.1710 C   0  0  0  0  0  0  0  0  0  0  0  0
  129.8380  121.5510   62.3930 S   0  0  0  0  0  0  0  0  0  0  0  0
  130.7640  120.2670   61.5800 C   0  0  0  0  0  0  0  0  0  0  0  0
  130.0910  119.0920   61.4800 N   0  0  0  0  0  0  0  0  0  0  0  0
  130.6960  118.0450   60.8740 C   0  0  0  0  0  0  0  0  0  0  0  0
  129.8750  116.7720   60.7830 C   0  0  0  0  0  0  0  0  0  0  0  0
  131.9870  118.1180   60.3560 C   0  0  0  0  0  0  0  0  0  0  0  0
  132.7000  119.3150   60.4770 C   0  0  0  0  0  0  0  0  0  0  0  0
  134.1200  119.3680   59.9170 C   0  0  0  0  0  0  0  0  0  0  0  0
  132.0900  120.4240   61.1070 C   0  0  0  0  0  0  0  0  0  0  0  0
  132.8360  121.6710   61.2880 C   0  0  0  0  0  0  0  0  0  0  0  0
  133.4260  122.6560   61.4300 N   0  0  0  0  0  0  0  0  0  0  0  0
  124.4249  121.7560   56.3235 H   0  0  0  0  0  0  0  0  0  0  0  0
  124.3530  122.9135   54.9518 H   0  0  0  0  0  0  0  0  0  0  0  0
  125.5735  121.5955   54.9518 H   0  0  0  0  0  0  0  0  0  0  0  0
  126.2525  123.9381   58.5993 H   0  0  0  0  0  0  0  0  0  0  0  0
  126.0715  122.1535   58.9151 H   0  0  0  0  0  0  0  0  0  0  0  0
  128.8210  123.0020   58.7320 H   0  0  0  0  0  0  0  0  0  0  0  0
  130.1966  122.7363   60.3286 H   0  0  0  0  0  0  0  0  0  0  0  0
  129.6328  123.8214   61.6982 H   0  0  0  0  0  0  0  0  0  0  0  0
  129.6429  116.4122   61.7962 H   0  0  0  0  0  0  0  0  0  0  0  0
  128.9387  116.9773   60.2434 H   0  0  0  0  0  0  0  0  0  0  0  0
  130.4483  116.0038   60.2434 H   0  0  0  0  0  0  0  0  0  0  0  0
  132.4390  117.2469   59.8591 H   0  0  0  0  0  0  0  0  0  0  0  0
  134.8409  119.3949   60.7474 H   0  0  0  0  0  0  0  0  0  0  0  0
  134.3044  118.4761   59.3001 H   0  0  0  0  0  0  0  0  0  0  0  0
  134.2374  120.2712   59.3001 H   0  0  0  0  0  0  0  0  0  0  0  0
  1  2  1  0
  2  3  1  0
  3  4  2  0
  3  5  1  0
  5  6  1  0
  6  7  1  0
  7  8  2  0
  7  9  1  0
  9 10  1  0
 10 11  1  0
 11 12  2  0
 12 13  1  0
 13 14  1  0
 13 15  2  0
 15 16  1  0
 16 17  1  0
 16 18  2  0
 18 19  1  0
 19 20  3  0
 18 11  1  0
  1 21  1  0
  1 22  1  0
  1 23  1  0
  5 24  1  0
  5 25  1  0
  6 26  1  0
  9 27  1  0
  9 28  1  0
 14 29  1  0
 14 30  1  0
 14 31  1  0
 15 32  1  0
 17 33  1  0
 17 34  1  0
 17 35  1  0
M  END
>  <Binding energies>  (1) 
[-7.04]

>  <Ligand effiencies>  (1) 
[-0.3352380952380952]

>  <Interactions>  (1) 
["V-B:PRO:540:N:9855, H-B:ALA:541:N:9862, V-B:ALA:541:CB:9863, V-B:PRO:540:CA:9854, V-B:TYR:539:C:9838, V-A:LEU:475:CD2:4258, V-A:PRO:482:CG:4326, V-A:HIS:383:CE1:3393, H-B:TYR:539:O:9839, V-B:TYR:539:CD2:9845, V-A:ILE:369:CG2:3236, V-B:TYR:539:CE2:9847, V-B:TYR:539:CB:9842, V-A:SER:385:CA:3406, H-B:TYR:539:N:9841, V-B:VAL:344:CG1:7971, V-B:MET:535:CE:9806, V-A:PRO:482:CB:4325, V-B:PRO:540:CB:9856, V-B:PRO:540:CD:9858, V-B:TYR:531:CE2:9764, V-B:LEU:363:CD1:8159, V-B:ILE:538:CD1:9836, V-B:ILE:538:CG2:9834, V-B:ILE:538:CA:9831, V-B:ILE:538:CB:9833, H-B:TYR:531:OH:9766, V-A:VAL:384:C:3396"]

$$$$
1n_Grossjean_2025
     RDKit          3D

 48 49  0  0  0  0  0  0  0  0999 V2000
  123.5940  124.9980   57.7520 C   0  0  0  0  0  0  0  0  0  0  0  0
  124.5200  123.7810   57.8440 C   0  0  0  0  0  0  0  0  0  0  0  0
  125.5810  123.9220   56.9070 O   0  0  0  0  0  0  0  0  0  0  0  0
  126.5500  122.9780   56.7960 C   0  0  0  0  0  0  0  0  0  0  0  0
  126.4670  122.0040   56.0420 O   0  0  0  0  0  0  0  0  0  0  0  0
  127.7390  123.2420   57.6740 C   0  0  0  0  0  0  0  0  0  0  0  0
  128.0300  122.4430   58.7910 C   0  0  0  0  0  0  0  0  0  0  0  0
  129.1390  122.7180   59.5860 C   0  0  0  0  0  0  0  0  0  0  0  0
  129.9730  123.7960   59.2890 C   0  0  0  0  0  0  0  0  0  0  0  0
  131.0620  123.9850   60.1620 N   0  0  0  0  0  0  0  0  0  0  0  0
  132.3860  124.0280   59.8960 C   0  0  0  0  0  0  0  0  0  0  0  0
  132.8930  123.9090   58.7800 O   0  0  0  0  0  0  0  0  0  0  0  0
  133.3000  124.2480   61.1080 C   0  0  0  0  0  0  0  0  0  0  0  0
  133.8200  122.9300   61.7210 C   0  0  0  0  0  0  0  0  0  0  0  0
  132.6930  122.1600   62.9210 S   0  0  0  0  0  0  0  0  0  0  0  0
  131.3920  123.3250   63.2640 C   0  0  0  0  0  0  0  0  0  0  0  0
  130.1770  122.9320   62.8050 N   0  0  0  0  0  0  0  0  0  0  0  0
  129.1090  123.7340   63.0240 C   0  0  0  0  0  0  0  0  0  0  0  0
  127.7820  123.2260   62.4930 C   0  0  0  0  0  0  0  0  0  0  0  0
  129.2060  124.9510   63.6960 C   0  0  0  0  0  0  0  0  0  0  0  0
  130.4590  125.3740   64.1550 C   0  0  0  0  0  0  0  0  0  0  0  0
  130.5440  126.7170   64.8780 C   0  0  0  0  0  0  0  0  0  0  0  0
  131.5890  124.5550   63.9340 C   0  0  0  0  0  0  0  0  0  0  0  0
  132.9170  125.0020   64.3600 C   0  0  0  0  0  0  0  0  0  0  0  0
  133.9650  125.3580   64.6960 N   0  0  0  0  0  0  0  0  0  0  0  0
  129.6950  124.5930   58.1690 C   0  0  0  0  0  0  0  0  0  0  0  0
  128.5870  124.3150   57.3730 C   0  0  0  0  0  0  0  0  0  0  0  0
  123.3347  125.3388   58.7652 H   0  0  0  0  0  0  0  0  0  0  0  0
  124.1060  125.8083   57.2124 H   0  0  0  0  0  0  0  0  0  0  0  0
  122.6765  124.7206   57.2124 H   0  0  0  0  0  0  0  0  0  0  0  0
  124.9349  123.7117   58.8604 H   0  0  0  0  0  0  0  0  0  0  0  0
  123.9498  122.8678   57.6183 H   0  0  0  0  0  0  0  0  0  0  0  0
  127.3769  121.5935   59.0398 H   0  0  0  0  0  0  0  0  0  0  0  0
  129.3594  122.0805   60.4549 H   0  0  0  0  0  0  0  0  0  0  0  0
  130.7970  124.1500   61.1220 H   0  0  0  0  0  0  0  0  0  0  0  0
  134.1634  124.8511   60.7906 H   0  0  0  0  0  0  0  0  0  0  0  0
  132.7042  124.7565   61.8803 H   0  0  0  0  0  0  0  0  0  0  0  0
  133.9915  122.2149   60.9030 H   0  0  0  0  0  0  0  0  0  0  0  0
  134.7382  123.1822   62.2717 H   0  0  0  0  0  0  0  0  0  0  0  0
  127.1222  122.9734   63.3361 H   0  0  0  0  0  0  0  0  0  0  0  0
  127.3097  124.0069   61.8789 H   0  0  0  0  0  0  0  0  0  0  0  0
  127.9519  122.3293   61.8789 H   0  0  0  0  0  0  0  0  0  0  0  0
  128.3119  125.5696   63.8631 H   0  0  0  0  0  0  0  0  0  0  0  0
  130.5334  126.5495   65.9651 H   0  0  0  0  0  0  0  0  0  0  0  0
  131.4763  127.2276   64.5947 H   0  0  0  0  0  0  0  0  0  0  0  0
  129.6836  127.3410   64.5947 H   0  0  0  0  0  0  0  0  0  0  0  0
  130.3529  125.4385   57.9192 H   0  0  0  0  0  0  0  0  0  0  0  0
  128.3752  124.9458   56.4971 H   0  0  0  0  0  0  0  0  0  0  0  0
  1  2  1  0
  2  3  1  0
  3  4  1  0
  4  5  2  0
  4  6  1  0
  6  7  2  0
  7  8  1  0
  8  9  2  0
  9 10  1  0
 10 11  1  0
 11 12  2  0
 11 13  1  0
 13 14  1  0
 14 15  1  0
 15 16  1  0
 16 17  2  0
 17 18  1  0
 18 19  1  0
 18 20  2  0
 20 21  1  0
 21 22  1  0
 21 23  2  0
 23 24  1  0
 24 25  3  0
  9 26  1  0
 26 27  2  0
 27  6  1  0
 23 16  1  0
  1 28  1  0
  1 29  1  0
  1 30  1  0
  2 31  1  0
  2 32  1  0
  7 33  1  0
  8 34  1  0
 10 35  1  0
 13 36  1  0
 13 37  1  0
 14 38  1  0
 14 39  1  0
 19 40  1  0
 19 41  1  0
 19 42  1  0
 20 43  1  0
 22 44  1  0
 22 45  1  0
 22 46  1  0
 26 47  1  0
 27 48  1  0
M  END
>  <Binding energies>  (1) 
[-7.63]

>  <Ligand effiencies>  (1) 
[-0.2725]

>  <Interactions>  (1) 
["V-A:ASP:366:CG:3212, V-B:GLU:543:CD:9879, V-B:PRO:540:N:9855, V-B:ALA:541:CB:9863, V-B:PRO:540:CA:9854, V-B:TYR:539:C:9838, V-A:ILE:369:CD1:3238, V-B:TYR:539:CD2:9845, V-B:TYR:539:CE2:9847, H-B:TYR:539:N:9841, V-B:TYR:539:CG:9843, V-B:MET:535:CE:9806, H-B:TYR:539:OH:9849, V-B:TYR:539:CZ:9848, V-B:PRO:540:CB:9856, H-A:GLY:454:N:4049, V-B:TYR:531:CZ:9765, V-B:TYR:531:CE2:9764, V-B:LEU:363:CD1:8159, V-A:GLU:543:CD:4907, H-A:ARG:545:NH1:4926, H-A:ARG:545:NH2:4927, V-B:ASP:366:CB:8182, H-B:TYR:531:OH:9766, V-B:ASP:366:CG:8183, V-B:LEU:363:CA:8155"]

$$$$
1o_Grossjean_2025
     RDKit          3D

 45 46  0  0  0  0  0  0  0  0999 V2000
  125.8990  122.0190   55.5110 C   0  0  0  0  0  0  0  0  0  0  0  0
  126.0880  123.2160   56.2530 O   0  0  0  0  0  0  0  0  0  0  0  0
  125.5250  123.3740   57.4790 C   0  0  0  0  0  0  0  0  0  0  0  0
  124.3110  123.5100   57.6580 O   0  0  0  0  0  0  0  0  0  0  0  0
  126.5270  123.3640   58.5980 C   0  0  0  0  0  0  0  0  0  0  0  0
  127.8260  122.8650   58.4270 C   0  0  0  0  0  0  0  0  0  0  0  0
  128.7320  122.8730   59.4850 C   0  0  0  0  0  0  0  0  0  0  0  0
  128.3570  123.3720   60.7330 C   0  0  0  0  0  0  0  0  0  0  0  0
  129.3530  123.3410   61.7290 N   0  0  0  0  0  0  0  0  0  0  0  0
  129.9840  122.2850   62.2890 C   0  0  0  0  0  0  0  0  0  0  0  0
  129.8150  121.1070   61.9720 O   0  0  0  0  0  0  0  0  0  0  0  0
  131.0070  122.6290   63.3820 C   0  0  0  0  0  0  0  0  0  0  0  0
  132.4290  122.8640   62.8350 C   0  0  0  0  0  0  0  0  0  0  0  0
  132.8970  124.6160   62.7220 S   0  0  0  0  0  0  0  0  0  0  0  0
  132.6960  125.3590   64.3290 C   0  0  0  0  0  0  0  0  0  0  0  0
  133.8130  125.2940   65.0970 N   0  0  0  0  0  0  0  0  0  0  0  0
  133.7830  125.8340   66.3380 C   0  0  0  0  0  0  0  0  0  0  0  0
  135.0730  125.7370   67.1310 C   0  0  0  0  0  0  0  0  0  0  0  0
  132.6460  126.4430   66.8640 C   0  0  0  0  0  0  0  0  0  0  0  0
  131.4810  126.4920   66.0920 C   0  0  0  0  0  0  0  0  0  0  0  0
  130.2440  127.1530   66.6970 C   0  0  0  0  0  0  0  0  0  0  0  0
  131.4880  125.9310   64.7940 C   0  0  0  0  0  0  0  0  0  0  0  0
  130.2610  125.9210   63.9940 C   0  0  0  0  0  0  0  0  0  0  0  0
  129.2910  125.9150   63.3630 N   0  0  0  0  0  0  0  0  0  0  0  0
  127.0610  123.8780   60.9100 C   0  0  0  0  0  0  0  0  0  0  0  0
  126.1570  123.8700   59.8510 C   0  0  0  0  0  0  0  0  0  0  0  0
  125.7658  121.1752   56.2040 H   0  0  0  0  0  0  0  0  0  0  0  0
  125.0053  122.1177   54.8773 H   0  0  0  0  0  0  0  0  0  0  0  0
  126.7796  121.8375   54.8773 H   0  0  0  0  0  0  0  0  0  0  0  0
  128.1322  122.4640   57.4495 H   0  0  0  0  0  0  0  0  0  0  0  0
  129.7498  122.4834   59.3357 H   0  0  0  0  0  0  0  0  0  0  0  0
  129.6470  124.2520   62.0480 H   0  0  0  0  0  0  0  0  0  0  0  0
  130.6750  123.5434   63.8954 H   0  0  0  0  0  0  0  0  0  0  0  0
  131.0585  121.7665   64.0627 H   0  0  0  0  0  0  0  0  0  0  0  0
  133.1436  122.3573   63.5002 H   0  0  0  0  0  0  0  0  0  0  0  0
  132.4463  122.4632   61.8108 H   0  0  0  0  0  0  0  0  0  0  0  0
  134.8442  125.7542   68.2068 H   0  0  0  0  0  0  0  0  0  0  0  0
  135.5876  124.7976   66.8805 H   0  0  0  0  0  0  0  0  0  0  0  0
  135.7223  126.5889   66.8805 H   0  0  0  0  0  0  0  0  0  0  0  0
  132.6643  126.8797   67.8734 H   0  0  0  0  0  0  0  0  0  0  0  0
  130.3094  127.1181   67.7945 H   0  0  0  0  0  0  0  0  0  0  0  0
  130.1892  128.2006   66.3661 H   0  0  0  0  0  0  0  0  0  0  0  0
  129.3426  126.6163   66.3661 H   0  0  0  0  0  0  0  0  0  0  0  0
  126.7581  124.2819   61.8873 H   0  0  0  0  0  0  0  0  0  0  0  0
  125.1413  124.2652   59.9998 H   0  0  0  0  0  0  0  0  0  0  0  0
  1  2  1  0
  2  3  1  0
  3  4  2  0
  3  5  1  0
  5  6  2  0
  6  7  1  0
  7  8  2  0
  8  9  1  0
  9 10  1  0
 10 11  2  0
 10 12  1  0
 12 13  1  0
 13 14  1  0
 14 15  1  0
 15 16  2  0
 16 17  1  0
 17 18  1  0
 17 19  2  0
 19 20  1  0
 20 21  1  0
 20 22  2  0
 22 23  1  0
 23 24  3  0
  8 25  1  0
 25 26  2  0
 26  5  1  0
 22 15  1  0
  1 27  1  0
  1 28  1  0
  1 29  1  0
  6 30  1  0
  7 31  1  0
  9 32  1  0
 12 33  1  0
 12 34  1  0
 13 35  1  0
 13 36  1  0
 18 37  1  0
 18 38  1  0
 18 39  1  0
 19 40  1  0
 21 41  1  0
 21 42  1  0
 21 43  1  0
 25 44  1  0
 26 45  1  0
M  END
>  <Binding energies>  (1) 
[-7.24]

>  <Ligand effiencies>  (1) 
[-0.26814814814814814]

>  <Interactions>  (1) 
["V-B:PRO:540:N:9855, H-A:TYR:484:OH:4347, V-B:ALA:541:CB:9863, V-B:PRO:540:CA:9854, V-B:TYR:539:C:9838, V-A:LEU:475:CD2:4258, V-B:TYR:539:CD2:9845, V-B:TYR:539:CE2:9847, V-A:GLY:454:CA:4048, V-B:MET:535:CE:9806, V-B:PRO:540:CB:9856, H-A:GLY:454:N:4049, V-A:GLY:453:C:4041, V-A:ARG:545:CD:4922, V-B:PRO:540:CD:9858, V-A:ARG:545:CZ:4925, V-B:ILE:538:CD1:9836, V-A:ARG:545:CG:4921, V-A:HIS:456:CE1:4069, V-B:ILE:538:CG2:9834, V-A:GLU:543:CD:4907, V-B:ILE:538:CA:9831, V-A:GLY:453:CA:4043, V-B:ILE:538:C:9829, V-B:ILE:538:CB:9833, H-B:TYR:531:OH:9766, V-B:MET:535:CG:9804, V-A:ILE:455:C:4051, V-A:ARG:545:CB:4920"]

$$$$
1p_Grossjean_2025
     RDKit          3D

 35 36  0  0  0  0  0  0  0  0999 V2000
  129.8850  116.8690   60.7510 C   0  0  0  0  0  0  0  0  0  0  0  0
  130.7410  118.1140   60.8890 C   0  0  0  0  0  0  0  0  0  0  0  0
  132.0380  118.1650   60.3820 C   0  0  0  0  0  0  0  0  0  0  0  0
  132.7870  119.3350   60.5490 C   0  0  0  0  0  0  0  0  0  0  0  0
  134.2120  119.3650   59.9990 C   0  0  0  0  0  0  0  0  0  0  0  0
  132.2080  120.4370   61.2190 C   0  0  0  0  0  0  0  0  0  0  0  0
  132.9870  121.6540   61.4490 C   0  0  0  0  0  0  0  0  0  0  0  0
  133.6040  122.6170   61.6310 N   0  0  0  0  0  0  0  0  0  0  0  0
  130.8770  120.3030   61.6810 C   0  0  0  0  0  0  0  0  0  0  0  0
  129.9960  121.5920   62.5330 S   0  0  0  0  0  0  0  0  0  0  0  0
  128.7680  122.2490   61.3670 C   0  0  0  0  0  0  0  0  0  0  0  0
  129.2860  123.4230   60.5140 C   0  0  0  0  0  0  0  0  0  0  0  0
  128.5200  123.6090   59.1960 C   0  0  0  0  0  0  0  0  0  0  0  0
  128.5070  124.7150   58.6520 O   0  0  0  0  0  0  0  0  0  0  0  0
  127.9120  122.5030   58.7120 N   0  0  0  0  0  0  0  0  0  0  0  0
  127.1610  122.3970   57.5480 C   0  0  0  0  0  0  0  0  0  0  0  0
  125.8100  122.7350   57.4800 C   0  0  0  0  0  0  0  0  0  0  0  0
  125.4450  122.4930   56.1750 C   0  0  0  0  0  0  0  0  0  0  0  0
  126.5190  122.0310   55.4940 O   0  0  0  0  0  0  0  0  0  0  0  0
  127.6010  121.9730   56.3750 N   0  0  0  0  0  0  0  0  0  0  0  0
  130.1660  119.1560   61.5320 N   0  0  0  0  0  0  0  0  0  0  0  0
  129.6247  116.4904   61.7504 H   0  0  0  0  0  0  0  0  0  0  0  0
  128.9648  117.1158   60.2013 H   0  0  0  0  0  0  0  0  0  0  0  0
  130.4449  116.0981   60.2013 H   0  0  0  0  0  0  0  0  0  0  0  0
  132.4668  117.2980   59.8581 H   0  0  0  0  0  0  0  0  0  0  0  0
  134.9273  119.3801   60.8346 H   0  0  0  0  0  0  0  0  0  0  0  0
  134.3863  118.4703   59.3832 H   0  0  0  0  0  0  0  0  0  0  0  0
  134.3485  120.2662   59.3832 H   0  0  0  0  0  0  0  0  0  0  0  0
  128.4629  121.4370   60.6906 H   0  0  0  0  0  0  0  0  0  0  0  0
  127.9305  122.6342   61.9671 H   0  0  0  0  0  0  0  0  0  0  0  0
  129.1949  124.3477   61.1028 H   0  0  0  0  0  0  0  0  0  0  0  0
  130.3298  123.1958   60.2516 H   0  0  0  0  0  0  0  0  0  0  0  0
  127.9970  121.6540   59.2520 H   0  0  0  0  0  0  0  0  0  0  0  0
  125.1734  123.1133   58.2934 H   0  0  0  0  0  0  0  0  0  0  0  0
  124.4412  122.6500   55.7534 H   0  0  0  0  0  0  0  0  0  0  0  0
  1  2  1  0
  2  3  2  0
  3  4  1  0
  4  5  1  0
  4  6  2  0
  6  7  1  0
  7  8  3  0
  6  9  1  0
  9 10  1  0
 10 11  1  0
 11 12  1  0
 12 13  1  0
 13 14  2  0
 13 15  1  0
 15 16  1  0
 16 17  1  0
 17 18  2  0
 18 19  1  0
 19 20  1  0
  9 21  2  0
 21  2  1  0
 20 16  2  0
  1 22  1  0
  1 23  1  0
  1 24  1  0
  3 25  1  0
  5 26  1  0
  5 27  1  0
  5 28  1  0
 11 29  1  0
 11 30  1  0
 12 31  1  0
 12 32  1  0
 15 33  1  0
 17 34  1  0
 18 35  1  0
M  END
>  <Binding energies>  (1) 
[-8.13]

>  <Ligand effiencies>  (1) 
[-0.36954545454545457]

>  <Interactions>  (1) 
["V-B:PRO:540:N:9855, V-B:ALA:541:CB:9863, V-B:PRO:540:CA:9854, V-B:TYR:539:C:9838, V-A:LEU:475:CD2:4258, V-A:PRO:482:CG:4326, V-A:HIS:383:CE1:3393, H-B:TYR:539:O:9839, V-A:SER:385:C:3404, V-B:TYR:539:CD2:9845, V-A:ILE:369:CG2:3236, V-B:TYR:539:CE2:9847, V-B:TYR:539:CB:9842, V-A:SER:385:CA:3406, V-A:SER:385:CB:3408, H-B:TYR:539:N:9841, V-B:VAL:344:CG1:7971, V-A:PRO:482:CB:4325, V-B:PRO:540:CB:9856, V-B:TYR:539:CA:9840, V-B:PRO:540:CD:9858, V-B:TYR:531:CE2:9764, V-B:LEU:363:CD1:8159, V-B:ILE:538:CD1:9836, V-B:ILE:538:CG2:9834, V-A:VAL:384:C:3396"]

$$$$
1q_Grossjean_2025
     RDKit          3D

 38 38  0  0  0  0  0  0  0  0999 V2000
  134.1900  125.7520   67.1740 C   0  0  0  0  0  0  0  0  0  0  0  0
  134.3880  126.0030   65.7910 O   0  0  0  0  0  0  0  0  0  0  0  0
  133.5820  125.4290   64.8640 C   0  0  0  0  0  0  0  0  0  0  0  0
  133.9500  124.9620   63.7850 O   0  0  0  0  0  0  0  0  0  0  0  0
  132.0870  125.4210   65.2500 C   0  0  0  0  0  0  0  0  0  0  0  0
  131.3330  124.3350   64.6060 N   0  0  0  0  0  0  0  0  0  0  0  0
  130.3160  123.6450   65.1570 C   0  0  0  0  0  0  0  0  0  0  0  0
  129.8960  123.8600   66.2960 O   0  0  0  0  0  0  0  0  0  0  0  0
  129.6800  122.5630   64.2730 C   0  0  0  0  0  0  0  0  0  0  0  0
  128.6940  123.1050   63.2190 C   0  0  0  0  0  0  0  0  0  0  0  0
  128.6750  122.1430   61.6770 S   0  0  0  0  0  0  0  0  0  0  0  0
  130.1660  121.1720   61.5960 C   0  0  0  0  0  0  0  0  0  0  0  0
  129.9360  119.8360   61.5260 N   0  0  0  0  0  0  0  0  0  0  0  0
  130.9940  118.9940   61.4620 C   0  0  0  0  0  0  0  0  0  0  0  0
  130.6580  117.5160   61.4030 C   0  0  0  0  0  0  0  0  0  0  0  0
  132.3130  119.4440   61.4540 C   0  0  0  0  0  0  0  0  0  0  0  0
  132.5610  120.8190   61.5000 C   0  0  0  0  0  0  0  0  0  0  0  0
  134.0160  121.2870   61.4730 C   0  0  0  0  0  0  0  0  0  0  0  0
  131.4730  121.7180   61.5650 C   0  0  0  0  0  0  0  0  0  0  0  0
  131.7130  123.1620   61.5560 C   0  0  0  0  0  0  0  0  0  0  0  0
  131.9070  124.3030   61.5490 N   0  0  0  0  0  0  0  0  0  0  0  0
  134.7647  126.4805   67.7648 H   0  0  0  0  0  0  0  0  0  0  0  0
  133.1208  125.8468   67.4145 H   0  0  0  0  0  0  0  0  0  0  0  0
  134.5311  124.7342   67.4145 H   0  0  0  0  0  0  0  0  0  0  0  0
  132.0073  125.3041   66.3409 H   0  0  0  0  0  0  0  0  0  0  0  0
  131.6533  126.3716   64.9060 H   0  0  0  0  0  0  0  0  0  0  0  0
  131.6340  124.0790   63.6760 H   0  0  0  0  0  0  0  0  0  0  0  0
  130.4859  122.0287   63.7485 H   0  0  0  0  0  0  0  0  0  0  0  0
  129.0996  121.9103   64.9417 H   0  0  0  0  0  0  0  0  0  0  0  0
  127.6820  123.0911   63.6500 H   0  0  0  0  0  0  0  0  0  0  0  0
  129.0250  124.1217   62.9606 H   0  0  0  0  0  0  0  0  0  0  0  0
  130.5678  117.1194   62.4250 H   0  0  0  0  0  0  0  0  0  0  0  0
  129.7055  117.3775   60.8706 H   0  0  0  0  0  0  0  0  0  0  0  0
  131.4570  116.9793   60.8706 H   0  0  0  0  0  0  0  0  0  0  0  0
  133.1467  118.7277   61.4121 H   0  0  0  0  0  0  0  0  0  0  0  0
  134.3824  121.4049   62.5035 H   0  0  0  0  0  0  0  0  0  0  0  0
  134.6313  120.5414   60.9481 H   0  0  0  0  0  0  0  0  0  0  0  0
  134.0813  122.2515   60.9481 H   0  0  0  0  0  0  0  0  0  0  0  0
  1  2  1  0
  2  3  1  0
  3  4  2  0
  3  5  1  0
  5  6  1  0
  6  7  1  0
  7  8  2  0
  7  9  1  0
  9 10  1  0
 10 11  1  0
 11 12  1  0
 12 13  2  0
 13 14  1  0
 14 15  1  0
 14 16  2  0
 16 17  1  0
 17 18  1  0
 17 19  2  0
 19 20  1  0
 20 21  3  0
 19 12  1  0
  1 22  1  0
  1 23  1  0
  1 24  1  0
  5 25  1  0
  5 26  1  0
  6 27  1  0
  9 28  1  0
  9 29  1  0
 10 30  1  0
 10 31  1  0
 15 32  1  0
 15 33  1  0
 15 34  1  0
 16 35  1  0
 18 36  1  0
 18 37  1  0
 18 38  1  0
M  END
>  <Binding energies>  (1) 
[-5.78]

>  <Ligand effiencies>  (1) 
[-0.26272727272727275]

>  <Interactions>  (1) 
["H-B:ALA:541:N:9862, H-A:TYR:484:OH:4347, V-B:ALA:541:CB:9863, V-A:LEU:475:CD2:4258, V-A:PRO:482:CG:4326, V-A:HIS:383:CE1:3393, V-A:ILE:369:CD1:3238, V-A:SER:385:C:3404, V-B:TYR:539:CD2:9845, V-A:ILE:369:CG2:3236, V-A:SER:385:CA:3406, V-A:SER:385:CB:3408, V-A:GLY:454:CA:4048, V-A:PRO:482:CB:4325, H-A:GLY:454:N:4049, V-A:ARG:545:CD:4922, V-A:ARG:545:CZ:4925, V-A:ARG:545:CG:4921, H-A:ARG:545:NH1:4926, H-A:ARG:545:NH2:4927, H-A:ARG:545:NE:4923, V-A:TYR:484:CZ:4346, V-A:TYR:484:CE2:4345"]

$$$$
2a_Ghoteimi_2023
     RDKit          3D

 85 90  0  0  0  0  0  0  0  0999 V2000
  133.5710  131.0000   59.1250 C   0  0  0  0  0  0  0  0  0  0  0  0
  132.5640  131.2680   58.0030 C   0  0  0  0  0  0  0  0  0  0  0  0
  132.0650  132.5930   58.1230 O   0  0  0  0  0  0  0  0  0  0  0  0
  131.0030  133.0130   57.3880 C   0  0  0  0  0  0  0  0  0  0  0  0
  131.1140  133.6180   56.3170 O   0  0  0  0  0  0  0  0  0  0  0  0
  129.6790  132.6610   58.0050 C   0  0  0  0  0  0  0  0  0  0  0  0
  128.7050  131.9320   57.3070 C   0  0  0  0  0  0  0  0  0  0  0  0
  127.4900  131.6220   57.9080 C   0  0  0  0  0  0  0  0  0  0  0  0
  127.2220  132.0270   59.2170 C   0  0  0  0  0  0  0  0  0  0  0  0
  125.9600  131.6630   59.7240 N   0  0  0  0  0  0  0  0  0  0  0  0
  124.7370  131.7690   59.1590 C   0  0  0  0  0  0  0  0  0  0  0  0
  124.5060  132.2750   58.0610 O   0  0  0  0  0  0  0  0  0  0  0  0
  123.5770  131.2390   60.0120 C   0  0  0  0  0  0  0  0  0  0  0  0
  123.7730  131.5100   61.8030 S   0  0  0  0  0  0  0  0  0  0  0  0
  124.7970  130.1760   62.3810 C   0  0  0  0  0  0  0  0  0  0  0  0
  125.0000  129.2040   61.4620 N   0  0  0  0  0  0  0  0  0  0  0  0
  125.7580  128.1270   61.7880 C   0  0  0  0  0  0  0  0  0  0  0  0
  125.9310  127.0880   60.7270 C   0  0  0  0  0  0  0  0  0  0  0  0
  125.5290  127.3250   59.4070 C   0  0  0  0  0  0  0  0  0  0  0  0
  125.6820  126.3500   58.4250 C   0  0  0  0  0  0  0  0  0  0  0  0
  126.2500  125.1040   58.7240 C   0  0  0  0  0  0  0  0  0  0  0  0
  126.3700  124.1230   57.7340 N   0  0  0  0  0  0  0  0  0  0  0  0
  125.1800  123.5170   57.1020 C   0  0  0  0  0  0  0  0  0  0  0  0
  125.4910  122.7410   55.8050 C   0  0  0  0  0  0  0  0  0  0  0  0
  126.4880  121.7620   56.0520 O   0  0  0  0  0  0  0  0  0  0  0  0
  127.6960  122.3560   56.5010 C   0  0  0  0  0  0  0  0  0  0  0  0
  127.4540  123.1220   57.8180 C   0  0  0  0  0  0  0  0  0  0  0  0
  126.6410  124.8660   60.0520 C   0  0  0  0  0  0  0  0  0  0  0  0
  126.4900  125.8420   61.0320 C   0  0  0  0  0  0  0  0  0  0  0  0
  126.3440  128.0110   63.0510 C   0  0  0  0  0  0  0  0  0  0  0  0
  126.1480  129.0060   64.0190 C   0  0  0  0  0  0  0  0  0  0  0  0
  126.7980  128.8150   65.3510 C   0  0  0  0  0  0  0  0  0  0  0  0
  126.0170  128.6510   66.4970 C   0  0  0  0  0  0  0  0  0  0  0  0
  126.6130  128.4930   67.7450 C   0  0  0  0  0  0  0  0  0  0  0  0
  128.0090  128.4910   67.8830 C   0  0  0  0  0  0  0  0  0  0  0  0
  128.6270  128.3520   69.1290 N   0  0  0  0  0  0  0  0  0  0  0  0
  128.0430  127.4340   70.1280 C   0  0  0  0  0  0  0  0  0  0  0  0
  129.0150  127.0830   71.2750 C   0  0  0  0  0  0  0  0  0  0  0  0
  129.4840  128.2710   71.8950 O   0  0  0  0  0  0  0  0  0  0  0  0
  130.1730  129.1050   70.9770 C   0  0  0  0  0  0  0  0  0  0  0  0
  129.2350  129.5060   69.8200 C   0  0  0  0  0  0  0  0  0  0  0  0
  128.7860  128.6680   66.7290 C   0  0  0  0  0  0  0  0  0  0  0  0
  128.1900  128.8280   65.4820 C   0  0  0  0  0  0  0  0  0  0  0  0
  125.3550  130.1290   63.6780 C   0  0  0  0  0  0  0  0  0  0  0  0
  125.1600  131.2280   64.6280 C   0  0  0  0  0  0  0  0  0  0  0  0
  125.0060  132.0940   65.3810 N   0  0  0  0  0  0  0  0  0  0  0  0
  128.1880  132.7640   59.9180 C   0  0  0  0  0  0  0  0  0  0  0  0
  129.4050  133.0730   59.3160 C   0  0  0  0  0  0  0  0  0  0  0  0
  133.0778  131.1313   60.0994 H   0  0  0  0  0  0  0  0  0  0  0  0
  133.9483  129.9702   59.0408 H   0  0  0  0  0  0  0  0  0  0  0  0
  134.4103  131.7060   59.0408 H   0  0  0  0  0  0  0  0  0  0  0  0
  133.0603  131.1496   57.0285 H   0  0  0  0  0  0  0  0  0  0  0  0
  131.7310  130.5535   58.0786 H   0  0  0  0  0  0  0  0  0  0  0  0
  128.9038  131.6030   56.2763 H   0  0  0  0  0  0  0  0  0  0  0  0
  126.7337  131.0530   57.3475 H   0  0  0  0  0  0  0  0  0  0  0  0
  125.9850  131.2900   60.6610 H   0  0  0  0  0  0  0  0  0  0  0  0
  122.6539  131.7414   59.6872 H   0  0  0  0  0  0  0  0  0  0  0  0
  123.5490  130.1498   59.8610 H   0  0  0  0  0  0  0  0  0  0  0  0
  125.0856  128.2961   59.1418 H   0  0  0  0  0  0  0  0  0  0  0  0
  125.3516  126.5611   57.3973 H   0  0  0  0  0  0  0  0  0  0  0  0
  124.7217  122.8217   57.8207 H   0  0  0  0  0  0  0  0  0  0  0  0
  124.5072  124.3429   56.8278 H   0  0  0  0  0  0  0  0  0  0  0  0
  124.5755  122.2465   55.4480 H   0  0  0  0  0  0  0  0  0  0  0  0
  125.8569  123.4444   55.0425 H   0  0  0  0  0  0  0  0  0  0  0  0
  128.4467  121.5700   56.6702 H   0  0  0  0  0  0  0  0  0  0  0  0
  128.0562  123.0601   55.7365 H   0  0  0  0  0  0  0  0  0  0  0  0
  127.1940  122.3937   58.6003 H   0  0  0  0  0  0  0  0  0  0  0  0
  128.3802  123.6703   58.0451 H   0  0  0  0  0  0  0  0  0  0  0  0
  127.0739  123.8914   60.3217 H   0  0  0  0  0  0  0  0  0  0  0  0
  126.8148  125.6311   62.0616 H   0  0  0  0  0  0  0  0  0  0  0  0
  126.9633  127.1332   63.2874 H   0  0  0  0  0  0  0  0  0  0  0  0
  124.9202  128.6466   66.4127 H   0  0  0  0  0  0  0  0  0  0  0  0
  125.9801  128.3679   68.6360 H   0  0  0  0  0  0  0  0  0  0  0  0
  127.1503  127.9099   70.5599 H   0  0  0  0  0  0  0  0  0  0  0  0
  127.8009  126.4960   69.6069 H   0  0  0  0  0  0  0  0  0  0  0  0
  128.4916  126.4656   72.0199 H   0  0  0  0  0  0  0  0  0  0  0  0
  129.8714  126.5274   70.8652 H   0  0  0  0  0  0  0  0  0  0  0  0
  130.5181  130.0111   71.4966 H   0  0  0  0  0  0  0  0  0  0  0  0
  131.0350  128.5570   70.5689 H   0  0  0  0  0  0  0  0  0  0  0  0
  128.4280  130.1329   70.2271 H   0  0  0  0  0  0  0  0  0  0  0  0
  129.8458  130.0423   69.0788 H   0  0  0  0  0  0  0  0  0  0  0  0
  129.8829  128.6805   66.8109 H   0  0  0  0  0  0  0  0  0  0  0  0
  128.8198  128.9660   64.5908 H   0  0  0  0  0  0  0  0  0  0  0  0
  127.9836  133.0986   60.9457 H   0  0  0  0  0  0  0  0  0  0  0  0
  130.1590  133.6464   59.8753 H   0  0  0  0  0  0  0  0  0  0  0  0
  1  2  1  0
  2  3  1  0
  3  4  1  0
  4  5  2  0
  4  6  1  0
  6  7  2  0
  7  8  1  0
  8  9  2  0
  9 10  1  0
 10 11  1  0
 11 12  2  0
 11 13  1  0
 13 14  1  0
 14 15  1  0
 15 16  2  0
 16 17  1  0
 17 18  1  0
 18 19  2  0
 19 20  1  0
 20 21  2  0
 21 22  1  0
 22 23  1  0
 23 24  1  0
 24 25  1  0
 25 26  1  0
 26 27  1  0
 21 28  1  0
 28 29  2  0
 17 30  2  0
 30 31  1  0
 31 32  1  0
 32 33  2  0
 33 34  1  0
 34 35  2  0
 35 36  1  0
 36 37  1  0
 37 38  1  0
 38 39  1  0
 39 40  1  0
 40 41  1  0
 35 42  1  0
 42 43  2  0
 31 44  2  0
 44 45  1  0
 45 46  3  0
  9 47  1  0
 47 48  2  0
 48  6  1  0
 44 15  1  0
 29 18  1  0
 43 32  1  0
 27 22  1  0
 41 36  1  0
  1 49  1  0
  1 50  1  0
  1 51  1  0
  2 52  1  0
  2 53  1  0
  7 54  1  0
  8 55  1  0
 10 56  1  0
 13 57  1  0
 13 58  1  0
 19 59  1  0
 20 60  1  0
 23 61  1  0
 23 62  1  0
 24 63  1  0
 24 64  1  0
 26 65  1  0
 26 66  1  0
 27 67  1  0
 27 68  1  0
 28 69  1  0
 29 70  1  0
 30 71  1  0
 33 72  1  0
 34 73  1  0
 37 74  1  0
 37 75  1  0
 38 76  1  0
 38 77  1  0
 40 78  1  0
 40 79  1  0
 41 80  1  0
 41 81  1  0
 42 82  1  0
 43 83  1  0
 47 84  1  0
 48 85  1  0
M  END
>  <Binding energies>  (1) 
[-11.07]

>  <Ligand effiencies>  (1) 
[-0.2259183673469388]

>  <Interactions>  (1) 
["V-A:LEU:363:CA:3184, V-A:ASN:362:C:3171, V-A:TYR:539:CE1:4874, V-A:TYR:539:CD1:4872, V-A:ASP:366:CB:3211, V-A:PRO:540:CA:4882, V-A:TYR:531:CE2:4792, V-A:TYR:531:CZ:4793, V-B:GLU:543:CD:9879, V-B:PRO:540:N:9855, V-B:PRO:540:CA:9854, V-B:TYR:539:C:9838, V-B:TYR:539:CD2:9845, V-B:TYR:539:CE2:9847, H-B:TYR:539:N:9841, V-B:TYR:539:CG:9843, V-B:MET:535:CE:9806, V-B:TYR:539:CZ:9848, V-B:PRO:540:CB:9856, V-B:TYR:539:CA:9840, V-B:TYR:539:CD1:9844, V-B:TYR:531:CZ:9765, V-B:TYR:531:CE2:9764, V-B:LEU:363:CD1:8159, V-B:ILE:538:CD1:9836, V-A:HIS:456:CE1:4069, V-A:GLU:543:CD:4907, V-B:HIS:456:CE1:9040, V-A:GLU:543:CG:4906, V-A:GLU:543:CB:4905, V-A:GLU:543:C:4901, V-B:TYR:539:CE1:9846, V-B:ASP:366:CB:8182, H-B:TYR:484:OH:9318, V-A:PRO:540:N:4883, V-B:ASP:366:CG:8183, V-B:MET:535:CG:9804, H-A:TYR:539:N:4869, V-A:TYR:539:C:4866, V-B:TYR:484:CE2:9316, V-A:GLU:543:CA:4903, V-B:GLY:454:CA:9019, V-B:ILE:369:CG2:8207, H-B:GLY:454:N:9020, V-B:ILE:369:CB:8206"]

$$$$
2a_Grossjean_2025
     RDKit          3D

 45 46  0  0  0  0  0  0  0  0999 V2000
  124.6310  123.9020   59.8470 C   0  0  0  0  0  0  0  0  0  0  0  0
  124.3200  124.1200   58.3640 C   0  0  0  0  0  0  0  0  0  0  0  0
  124.8350  123.0290   57.6100 O   0  0  0  0  0  0  0  0  0  0  0  0
  125.9230  123.1810   56.8110 C   0  0  0  0  0  0  0  0  0  0  0  0
  125.8730  123.1450   55.5780 O   0  0  0  0  0  0  0  0  0  0  0  0
  127.1910  123.4180   57.5800 C   0  0  0  0  0  0  0  0  0  0  0  0
  127.6510  122.5140   58.5490 C   0  0  0  0  0  0  0  0  0  0  0  0
  128.8300  122.7640   59.2450 C   0  0  0  0  0  0  0  0  0  0  0  0
  129.5680  123.9220   58.9950 C   0  0  0  0  0  0  0  0  0  0  0  0
  130.7350  124.0780   59.7660 N   0  0  0  0  0  0  0  0  0  0  0  0
  131.9840  124.4250   59.3900 C   0  0  0  0  0  0  0  0  0  0  0  0
  132.3460  124.6530   58.2350 O   0  0  0  0  0  0  0  0  0  0  0  0
  133.0100  124.5300   60.5230 C   0  0  0  0  0  0  0  0  0  0  0  0
  133.5590  122.9080   61.1520 S   0  0  0  0  0  0  0  0  0  0  0  0
  132.1410  121.8460   61.4030 C   0  0  0  0  0  0  0  0  0  0  0  0
  131.0480  122.4420   61.9440 N   0  0  0  0  0  0  0  0  0  0  0  0
  129.9430  121.6970   62.1730 C   0  0  0  0  0  0  0  0  0  0  0  0
  128.7720  122.4260   62.8050 C   0  0  0  0  0  0  0  0  0  0  0  0
  129.8760  120.3400   61.8670 C   0  0  0  0  0  0  0  0  0  0  0  0
  130.9910  119.7060   61.2980 C   0  0  0  0  0  0  0  0  0  0  0  0
  130.9000  118.2040   60.9650 C   0  0  0  0  0  0  0  0  0  0  0  0
  131.7660  117.5170   61.7100 F   0  0  0  0  0  0  0  0  0  0  0  0
  129.6670  117.7570   61.2090 F   0  0  0  0  0  0  0  0  0  0  0  0
  131.1750  117.9430   59.6840 F   0  0  0  0  0  0  0  0  0  0  0  0
  132.1570  120.4750   61.0570 C   0  0  0  0  0  0  0  0  0  0  0  0
  133.3520  119.8620   60.4670 C   0  0  0  0  0  0  0  0  0  0  0  0
  134.2950  119.3780   60.0020 N   0  0  0  0  0  0  0  0  0  0  0  0
  129.1190  124.8260   58.0220 C   0  0  0  0  0  0  0  0  0  0  0  0
  127.9420  124.5720   57.3230 C   0  0  0  0  0  0  0  0  0  0  0  0
  123.8828  124.4265   60.4595 H   0  0  0  0  0  0  0  0  0  0  0  0
  124.6013  122.8260   60.0736 H   0  0  0  0  0  0  0  0  0  0  0  0
  125.6324  124.2969   60.0736 H   0  0  0  0  0  0  0  0  0  0  0  0
  123.2310  124.1829   58.2224 H   0  0  0  0  0  0  0  0  0  0  0  0
  124.7867  125.0560   58.0235 H   0  0  0  0  0  0  0  0  0  0  0  0
  127.0755  121.6007   58.7603 H   0  0  0  0  0  0  0  0  0  0  0  0
  129.1828  122.0436   59.9977 H   0  0  0  0  0  0  0  0  0  0  0  0
  130.5920  123.9530   60.7570 H   0  0  0  0  0  0  0  0  0  0  0  0
  133.8891  125.0750   60.1486 H   0  0  0  0  0  0  0  0  0  0  0  0
  132.5215  125.0546   61.3573 H   0  0  0  0  0  0  0  0  0  0  0  0
  128.8557  122.3739   63.9006 H   0  0  0  0  0  0  0  0  0  0  0  0
  128.7803  123.4788   62.4863 H   0  0  0  0  0  0  0  0  0  0  0  0
  127.8310  121.9539   62.4863 H   0  0  0  0  0  0  0  0  0  0  0  0
  128.9571  119.7702   62.0696 H   0  0  0  0  0  0  0  0  0  0  0  0
  129.6975  125.7374   57.8105 H   0  0  0  0  0  0  0  0  0  0  0  0
  127.5979  125.2859   56.5601 H   0  0  0  0  0  0  0  0  0  0  0  0
  1  2  1  0
  2  3  1  0
  3  4  1  0
  4  5  2  0
  4  6  1  0
  6  7  2  0
  7  8  1  0
  8  9  2  0
  9 10  1  0
 10 11  1  0
 11 12  2  0
 11 13  1  0
 13 14  1  0
 14 15  1  0
 15 16  2  0
 16 17  1  0
 17 18  1  0
 17 19  2  0
 19 20  1  0
 20 21  1  0
 21 22  1  0
 21 23  1  0
 21 24  1  0
 20 25  2  0
 25 26  1  0
 26 27  3  0
  9 28  1  0
 28 29  2  0
 29  6  1  0
 25 15  1  0
  1 30  1  0
  1 31  1  0
  1 32  1  0
  2 33  1  0
  2 34  1  0
  7 35  1  0
  8 36  1  0
 10 37  1  0
 13 38  1  0
 13 39  1  0
 18 40  1  0
 18 41  1  0
 18 42  1  0
 19 43  1  0
 28 44  1  0
 29 45  1  0
M  END
>  <Binding energies>  (1) 
[-7.69]

>  <Ligand effiencies>  (1) 
[-0.25633333333333336]

>  <Interactions>  (1) 
["V-A:ASP:366:CG:3212, V-A:ASP:366:CB:3211, V-B:PRO:540:N:9855, V-B:ALA:541:CB:9863, V-B:PRO:540:CA:9854, V-B:ALA:541:CA:9861, V-B:TYR:539:C:9838, V-A:LEU:475:CD2:4258, V-A:PRO:482:CG:4326, V-A:HIS:383:CE1:3393, V-A:ILE:369:CD1:3238, V-B:TYR:539:CD2:9845, V-A:ILE:369:CG2:3236, V-B:TYR:539:CE2:9847, V-B:TYR:539:CB:9842, V-A:SER:385:CA:3406, V-A:SER:385:CB:3408, V-B:TYR:539:CG:9843, V-B:MET:535:CE:9806, H-B:TYR:539:OH:9849, V-B:TYR:539:CZ:9848, V-A:PRO:482:CB:4325, V-B:PRO:540:CB:9856, V-B:LEU:363:CD1:8159, H-B:TYR:531:OH:9766"]

$$$$
2aa_Ghoteimi_2023
     RDKit          3D

 85 90  0  0  0  0  0  0  0  0999 V2000
  129.7990  123.9740   73.1250 C   0  0  0  0  0  0  0  0  0  0  0  0
  130.2280  125.3700   73.5900 C   0  0  0  0  0  0  0  0  0  0  0  0
  129.1910  125.9430   74.3760 O   0  0  0  0  0  0  0  0  0  0  0  0
  128.3800  126.9100   73.8720 C   0  0  0  0  0  0  0  0  0  0  0  0
  127.6510  127.6190   74.5730 O   0  0  0  0  0  0  0  0  0  0  0  0
  128.4700  127.0410   72.3790 C   0  0  0  0  0  0  0  0  0  0  0  0
  127.6400  126.3060   71.5200 C   0  0  0  0  0  0  0  0  0  0  0  0
  127.7440  126.4530   70.1400 C   0  0  0  0  0  0  0  0  0  0  0  0
  128.6840  127.3270   69.5900 C   0  0  0  0  0  0  0  0  0  0  0  0
  128.7020  127.3990   68.1840 N   0  0  0  0  0  0  0  0  0  0  0  0
  128.7290  128.4800   67.3740 C   0  0  0  0  0  0  0  0  0  0  0  0
  128.7740  129.6510   67.7560 O   0  0  0  0  0  0  0  0  0  0  0  0
  128.7260  128.1540   65.8740 C   0  0  0  0  0  0  0  0  0  0  0  0
  130.0480  127.7960   65.4570 O   0  0  0  0  0  0  0  0  0  0  0  0
  130.2700  127.3330   64.1670 C   0  0  0  0  0  0  0  0  0  0  0  0
  130.3570  128.2510   63.1640 N   0  0  0  0  0  0  0  0  0  0  0  0
  130.5770  127.8330   61.8920 C   0  0  0  0  0  0  0  0  0  0  0  0
  130.6550  128.8960   60.8420 C   0  0  0  0  0  0  0  0  0  0  0  0
  130.5600  128.5690   59.4860 C   0  0  0  0  0  0  0  0  0  0  0  0
  130.6250  129.5560   58.5050 C   0  0  0  0  0  0  0  0  0  0  0  0
  130.7740  130.9090   58.8460 C   0  0  0  0  0  0  0  0  0  0  0  0
  130.8540  131.9120   57.8720 N   0  0  0  0  0  0  0  0  0  0  0  0
  132.1430  132.2820   57.2530 C   0  0  0  0  0  0  0  0  0  0  0  0
  132.1030  133.6190   56.4830 C   0  0  0  0  0  0  0  0  0  0  0  0
  131.0650  133.5920   55.5170 O   0  0  0  0  0  0  0  0  0  0  0  0
  129.7960  133.4020   56.1230 C   0  0  0  0  0  0  0  0  0  0  0  0
  129.7680  132.0580   56.8820 C   0  0  0  0  0  0  0  0  0  0  0  0
  130.8910  131.2290   60.2060 C   0  0  0  0  0  0  0  0  0  0  0  0
  130.8280  130.2420   61.1860 C   0  0  0  0  0  0  0  0  0  0  0  0
  130.7010  126.4740   61.5890 C   0  0  0  0  0  0  0  0  0  0  0  0
  130.6050  125.5090   62.6000 C   0  0  0  0  0  0  0  0  0  0  0  0
  130.7200  124.0710   62.2120 C   0  0  0  0  0  0  0  0  0  0  0  0
  129.5900  123.2490   62.2030 C   0  0  0  0  0  0  0  0  0  0  0  0
  129.6940  121.9040   61.8620 C   0  0  0  0  0  0  0  0  0  0  0  0
  130.9350  121.3370   61.5320 C   0  0  0  0  0  0  0  0  0  0  0  0
  131.0620  119.9890   61.1820 N   0  0  0  0  0  0  0  0  0  0  0  0
  130.2320  118.9490   61.8180 C   0  0  0  0  0  0  0  0  0  0  0  0
  130.2560  117.6000   61.0680 C   0  0  0  0  0  0  0  0  0  0  0  0
  131.5960  117.1550   60.9140 O   0  0  0  0  0  0  0  0  0  0  0  0
  132.3730  118.0830   60.1740 C   0  0  0  0  0  0  0  0  0  0  0  0
  132.4050  119.4440   60.9000 C   0  0  0  0  0  0  0  0  0  0  0  0
  132.0620  122.1700   61.5360 C   0  0  0  0  0  0  0  0  0  0  0  0
  131.9580  123.5150   61.8770 C   0  0  0  0  0  0  0  0  0  0  0  0
  130.3980  125.9530   63.9270 C   0  0  0  0  0  0  0  0  0  0  0  0
  130.3350  125.0200   65.0540 C   0  0  0  0  0  0  0  0  0  0  0  0
  130.2860  124.2820   65.9440 N   0  0  0  0  0  0  0  0  0  0  0  0
  129.5130  128.0700   70.4430 C   0  0  0  0  0  0  0  0  0  0  0  0
  129.4040  127.9240   71.8230 C   0  0  0  0  0  0  0  0  0  0  0  0
  129.6039  123.3393   74.0020 H   0  0  0  0  0  0  0  0  0  0  0  0
  128.8841  124.0542   72.5197 H   0  0  0  0  0  0  0  0  0  0  0  0
  130.6011  123.5266   72.5197 H   0  0  0  0  0  0  0  0  0  0  0  0
  131.1448  125.2909   74.1927 H   0  0  0  0  0  0  0  0  0  0  0  0
  130.4211  126.0069   72.7141 H   0  0  0  0  0  0  0  0  0  0  0  0
  126.9011  125.6079   71.9403 H   0  0  0  0  0  0  0  0  0  0  0  0
  127.0811  125.8767   69.4779 H   0  0  0  0  0  0  0  0  0  0  0  0
  128.7380  126.5000   67.7250 H   0  0  0  0  0  0  0  0  0  0  0  0
  128.0421  127.3138   65.6835 H   0  0  0  0  0  0  0  0  0  0  0  0
  128.3916  129.0368   65.3093 H   0  0  0  0  0  0  0  0  0  0  0  0
  130.4321  127.5175   59.1895 H   0  0  0  0  0  0  0  0  0  0  0  0
  130.5584  129.2698   57.4450 H   0  0  0  0  0  0  0  0  0  0  0  0
  132.8992  132.3620   58.0479 H   0  0  0  0  0  0  0  0  0  0  0  0
  132.3837  131.4974   56.5205 H   0  0  0  0  0  0  0  0  0  0  0  0
  131.9208  134.4414   57.1904 H   0  0  0  0  0  0  0  0  0  0  0  0
  133.0661  133.7711   55.9737 H   0  0  0  0  0  0  0  0  0  0  0  0
  129.6032  134.2230   56.8292 H   0  0  0  0  0  0  0  0  0  0  0  0
  129.0214  133.3913   55.3420 H   0  0  0  0  0  0  0  0  0  0  0  0
  128.8054  131.9764   57.4080 H   0  0  0  0  0  0  0  0  0  0  0  0
  129.9064  131.2636   56.1338 H   0  0  0  0  0  0  0  0  0  0  0  0
  131.0351  132.2780   60.5039 H   0  0  0  0  0  0  0  0  0  0  0  0
  130.9154  130.5238   62.2457 H   0  0  0  0  0  0  0  0  0  0  0  0
  130.8752  126.1601   60.5492 H   0  0  0  0  0  0  0  0  0  0  0  0
  128.6086  123.6693   62.4681 H   0  0  0  0  0  0  0  0  0  0  0  0
  128.7909  121.2761   61.8509 H   0  0  0  0  0  0  0  0  0  0  0  0
  130.6017  118.7855   62.8410 H   0  0  0  0  0  0  0  0  0  0  0  0
  129.1929  119.3096   61.8033 H   0  0  0  0  0  0  0  0  0  0  0  0
  129.6877  116.8535   61.6423 H   0  0  0  0  0  0  0  0  0  0  0  0
  129.8018  117.7304   60.0747 H   0  0  0  0  0  0  0  0  0  0  0  0
  133.3992  117.6999   60.0733 H   0  0  0  0  0  0  0  0  0  0  0  0
  131.9243  118.2159   59.1785 H   0  0  0  0  0  0  0  0  0  0  0  0
  132.9377  119.3180   61.8541 H   0  0  0  0  0  0  0  0  0  0  0  0
  132.9115  120.1567   60.2325 H   0  0  0  0  0  0  0  0  0  0  0  0
  133.0438  121.7542   61.2654 H   0  0  0  0  0  0  0  0  0  0  0  0
  132.8585  124.1467   61.8830 H   0  0  0  0  0  0  0  0  0  0  0  0
  130.2502  128.7689   70.0210 H   0  0  0  0  0  0  0  0  0  0  0  0
  130.0594  128.5092   72.4848 H   0  0  0  0  0  0  0  0  0  0  0  0
  1  2  1  0
  2  3  1  0
  3  4  1  0
  4  5  2  0
  4  6  1  0
  6  7  2  0
  7  8  1  0
  8  9  2  0
  9 10  1  0
 10 11  1  0
 11 12  2  0
 11 13  1  0
 13 14  1  0
 14 15  1  0
 15 16  2  0
 16 17  1  0
 17 18  1  0
 18 19  2  0
 19 20  1  0
 20 21  2  0
 21 22  1  0
 22 23  1  0
 23 24  1  0
 24 25  1  0
 25 26  1  0
 26 27  1  0
 21 28  1  0
 28 29  2  0
 17 30  2  0
 30 31  1  0
 31 32  1  0
 32 33  2  0
 33 34  1  0
 34 35  2  0
 35 36  1  0
 36 37  1  0
 37 38  1  0
 38 39  1  0
 39 40  1  0
 40 41  1  0
 35 42  1  0
 42 43  2  0
 31 44  2  0
 44 45  1  0
 45 46  3  0
  9 47  1  0
 47 48  2  0
 48  6  1  0
 44 15  1  0
 29 18  1  0
 43 32  1  0
 27 22  1  0
 41 36  1  0
  1 49  1  0
  1 50  1  0
  1 51  1  0
  2 52  1  0
  2 53  1  0
  7 54  1  0
  8 55  1  0
 10 56  1  0
 13 57  1  0
 13 58  1  0
 19 59  1  0
 20 60  1  0
 23 61  1  0
 23 62  1  0
 24 63  1  0
 24 64  1  0
 26 65  1  0
 26 66  1  0
 27 67  1  0
 27 68  1  0
 28 69  1  0
 29 70  1  0
 30 71  1  0
 33 72  1  0
 34 73  1  0
 37 74  1  0
 37 75  1  0
 38 76  1  0
 38 77  1  0
 40 78  1  0
 40 79  1  0
 41 80  1  0
 41 81  1  0
 42 82  1  0
 43 83  1  0
 47 84  1  0
 48 85  1  0
M  END
>  <Binding energies>  (1) 
[-10.89]

>  <Ligand effiencies>  (1) 
[-0.22224489795918367]

>  <Interactions>  (1) 
["V-A:TYR:539:CG:4871, V-A:TYR:539:CZ:4876, V-A:TYR:539:CE1:4874, V-A:TYR:539:CD1:4872, V-A:TYR:531:CE2:4792, V-A:TYR:531:CZ:4793, V-A:ILE:538:CA:4859, V-A:LEU:363:CD1:3188, V-B:GLU:543:CD:9879, H-A:TYR:484:OH:4347, V-B:ALA:541:CB:9863, H-B:GLU:543:OE2:9881, V-A:LEU:475:CD2:4258, V-A:PRO:482:CG:4326, V-A:HIS:383:CE1:3393, V-B:TYR:539:CD2:9845, V-A:PRO:482:CB:4325, H-A:HIS:383:ND1:3390, V-A:HIS:456:CE1:4069, V-B:GLU:543:CB:9877, V-A:GLU:543:CD:4907, V-B:HIS:456:CE1:9040, V-B:LYS:547:CE:9921, H-B:LYS:547:NZ:9922, V-A:HIS:456:CD2:4067, V-B:GLU:543:C:9873, V-A:ILE:538:CB:4861, H-A:ARG:545:NH2:4927, V-B:GLY:544:C:9883, V-A:PRO:540:N:4883, V-A:PRO:540:CD:4886, H-A:TYR:539:N:4869, V-A:HIS:456:CG:4065"]

$$$$
2b_Ghoteimi_2023
     RDKit          3D

 72 77  0  0  0  0  0  0  0  0999 V2000
  125.8710  132.3750   65.6160 N   0  0  0  0  0  0  0  0  0  0  0  0
  125.9350  131.4860   64.8780 C   0  0  0  0  0  0  0  0  0  0  0  0
  126.0170  130.3570   63.9470 C   0  0  0  0  0  0  0  0  0  0  0  0
  126.4780  129.0920   64.3900 C   0  0  0  0  0  0  0  0  0  0  0  0
  126.9040  128.8070   65.7920 C   0  0  0  0  0  0  0  0  0  0  0  0
  128.2600  128.7340   66.1160 C   0  0  0  0  0  0  0  0  0  0  0  0
  128.6620  128.4680   67.4220 C   0  0  0  0  0  0  0  0  0  0  0  0
  127.7170  128.2490   68.4370 C   0  0  0  0  0  0  0  0  0  0  0  0
  128.0950  127.9930   69.7560 N   0  0  0  0  0  0  0  0  0  0  0  0
  127.7000  126.7160   70.3830 C   0  0  0  0  0  0  0  0  0  0  0  0
  127.8420  126.7200   71.9200 C   0  0  0  0  0  0  0  0  0  0  0  0
  129.1640  127.0810   72.2870 O   0  0  0  0  0  0  0  0  0  0  0  0
  129.5060  128.3740   71.8120 C   0  0  0  0  0  0  0  0  0  0  0  0
  129.4150  128.4080   70.2720 C   0  0  0  0  0  0  0  0  0  0  0  0
  126.3580  128.3210   68.1010 C   0  0  0  0  0  0  0  0  0  0  0  0
  125.9560  128.5910   66.7970 C   0  0  0  0  0  0  0  0  0  0  0  0
  126.5350  128.0420   63.4650 C   0  0  0  0  0  0  0  0  0  0  0  0
  126.1140  128.2370   62.1460 C   0  0  0  0  0  0  0  0  0  0  0  0
  126.1260  127.1410   61.1280 C   0  0  0  0  0  0  0  0  0  0  0  0
  126.1190  127.4370   59.7610 C   0  0  0  0  0  0  0  0  0  0  0  0
  126.1460  126.4220   58.8080 C   0  0  0  0  0  0  0  0  0  0  0  0
  126.1690  125.0710   59.1870 C   0  0  0  0  0  0  0  0  0  0  0  0
  126.2270  124.0410   58.2410 N   0  0  0  0  0  0  0  0  0  0  0  0
  125.0560  123.7610   57.3850 C   0  0  0  0  0  0  0  0  0  0  0  0
  125.1170  122.3850   56.6860 C   0  0  0  0  0  0  0  0  0  0  0  0
  126.3250  122.2670   55.9500 O   0  0  0  0  0  0  0  0  0  0  0  0
  127.4600  122.3720   56.7940 C   0  0  0  0  0  0  0  0  0  0  0  0
  127.4690  123.7450   57.5000 C   0  0  0  0  0  0  0  0  0  0  0  0
  126.1840  124.7790   60.5580 C   0  0  0  0  0  0  0  0  0  0  0  0
  126.1590  125.7940   61.5100 C   0  0  0  0  0  0  0  0  0  0  0  0
  125.6720  129.4490   61.7250 N   0  0  0  0  0  0  0  0  0  0  0  0
  125.6390  130.4880   62.5920 C   0  0  0  0  0  0  0  0  0  0  0  0
  125.0380  132.0000   61.8700 S   0  0  0  0  0  0  0  0  0  0  0  0
  126.3440  132.6460   60.7820 C   0  0  0  0  0  0  0  0  0  0  0  0
  127.6940  132.7370   61.4960 C   0  0  0  0  0  0  0  0  0  0  0  0
  127.7480  133.2240   62.6260 O   0  0  0  0  0  0  0  0  0  0  0  0
  128.7520  132.2650   60.8010 N   0  0  0  0  0  0  0  0  0  0  0  0
  130.0760  132.2170   61.2130 C   0  0  0  0  0  0  0  0  0  0  0  0
  131.0730  131.5580   60.4950 C   0  0  0  0  0  0  0  0  0  0  0  0
  132.2230  131.7430   61.2260 C   0  0  0  0  0  0  0  0  0  0  0  0
  131.9340  132.4760   62.3270 O   0  0  0  0  0  0  0  0  0  0  0  0
  130.5690  132.7720   62.3070 N   0  0  0  0  0  0  0  0  0  0  0  0
  129.0170  128.8879   65.3329 H   0  0  0  0  0  0  0  0  0  0  0  0
  129.7348  128.4289   67.6620 H   0  0  0  0  0  0  0  0  0  0  0  0
  126.6488  126.5135   70.1302 H   0  0  0  0  0  0  0  0  0  0  0  0
  128.3768  125.9401   69.9956 H   0  0  0  0  0  0  0  0  0  0  0  0
  127.1346  127.4451   72.3487 H   0  0  0  0  0  0  0  0  0  0  0  0
  127.6244  125.7125   72.3041 H   0  0  0  0  0  0  0  0  0  0  0  0
  128.8105  129.1139   72.2350 H   0  0  0  0  0  0  0  0  0  0  0  0
  130.5347  128.6128   72.1197 H   0  0  0  0  0  0  0  0  0  0  0  0
  129.6154  129.4351   69.9329 H   0  0  0  0  0  0  0  0  0  0  0  0
  130.1557  127.6923   69.8858 H   0  0  0  0  0  0  0  0  0  0  0  0
  125.5981  128.1616   68.8802 H   0  0  0  0  0  0  0  0  0  0  0  0
  124.8840  128.6349   66.5545 H   0  0  0  0  0  0  0  0  0  0  0  0
  126.9133  127.0577   63.7781 H   0  0  0  0  0  0  0  0  0  0  0  0
  126.0918  128.4869   59.4339 H   0  0  0  0  0  0  0  0  0  0  0  0
  126.1494  126.6837   57.7396 H   0  0  0  0  0  0  0  0  0  0  0  0
  124.1519  123.7936   58.0107 H   0  0  0  0  0  0  0  0  0  0  0  0
  125.0443  124.5250   56.5937 H   0  0  0  0  0  0  0  0  0  0  0  0
  125.0732  121.5891   57.4441 H   0  0  0  0  0  0  0  0  0  0  0  0
  124.2643  122.2919   55.9974 H   0  0  0  0  0  0  0  0  0  0  0  0
  127.4264  121.5739   57.5503 H   0  0  0  0  0  0  0  0  0  0  0  0
  128.3716  122.2728   56.1865 H   0  0  0  0  0  0  0  0  0  0  0  0
  128.3094  123.7649   58.2094 H   0  0  0  0  0  0  0  0  0  0  0  0
  127.5637  124.5091   56.7144 H   0  0  0  0  0  0  0  0  0  0  0  0
  126.2161  123.7298   60.8870 H   0  0  0  0  0  0  0  0  0  0  0  0
  126.1653  125.5342   62.5789 H   0  0  0  0  0  0  0  0  0  0  0  0
  126.4458  131.9776   59.9143 H   0  0  0  0  0  0  0  0  0  0  0  0
  126.0555  133.6611   60.4716 H   0  0  0  0  0  0  0  0  0  0  0  0
  128.5690  131.8760   59.8880 H   0  0  0  0  0  0  0  0  0  0  0  0
  130.9634  131.0087   59.5483 H   0  0  0  0  0  0  0  0  0  0  0  0
  133.2180  131.3573   60.9590 H   0  0  0  0  0  0  0  0  0  0  0  0
  1  2  3  0
  2  3  1  0
  3  4  2  0
  4  5  1  0
  5  6  2  0
  6  7  1  0
  7  8  2  0
  8  9  1  0
  9 10  1  0
 10 11  1  0
 11 12  1  0
 12 13  1  0
 13 14  1  0
  8 15  1  0
 15 16  2  0
  4 17  1  0
 17 18  2  0
 18 19  1  0
 19 20  2  0
 20 21  1  0
 21 22  2  0
 22 23  1  0
 23 24  1  0
 24 25  1  0
 25 26  1  0
 26 27  1  0
 27 28  1  0
 22 29  1  0
 29 30  2  0
 18 31  1  0
 31 32  2  0
 32 33  1  0
 33 34  1  0
 34 35  1  0
 35 36  2  0
 35 37  1  0
 37 38  1  0
 38 39  1  0
 39 40  2  0
 40 41  1  0
 41 42  1  0
 32  3  1  0
 42 38  2  0
 16  5  1  0
 30 19  1  0
 14  9  1  0
 28 23  1  0
  6 43  1  0
  7 44  1  0
 10 45  1  0
 10 46  1  0
 11 47  1  0
 11 48  1  0
 13 49  1  0
 13 50  1  0
 14 51  1  0
 14 52  1  0
 15 53  1  0
 16 54  1  0
 17 55  1  0
 20 56  1  0
 21 57  1  0
 24 58  1  0
 24 59  1  0
 25 60  1  0
 25 61  1  0
 27 62  1  0
 27 63  1  0
 28 64  1  0
 28 65  1  0
 29 66  1  0
 30 67  1  0
 34 68  1  0
 34 69  1  0
 37 70  1  0
 39 71  1  0
 40 72  1  0
M  END
>  <Binding energies>  (1) 
[-9.96]

>  <Ligand effiencies>  (1) 
[-0.2316279069767442]

>  <Interactions>  (1) 
["H-A:ALA:541:N:4890, V-A:PRO:540:CB:4884, V-A:PRO:540:CA:4882, V-B:GLU:543:CD:9879, V-B:PRO:540:N:9855, V-B:TYR:539:C:9838, V-B:TYR:539:CD2:9845, H-B:TYR:539:N:9841, V-B:TYR:539:CG:9843, V-B:MET:535:CE:9806, V-B:PRO:540:CB:9856, V-B:TYR:539:CA:9840, V-B:TYR:539:CD1:9844, V-B:TYR:531:CZ:9765, V-B:PRO:540:CD:9858, V-B:TYR:531:CE2:9764, V-B:LEU:363:CD1:8159, V-A:HIS:456:CE1:4069, V-B:ILE:538:CG2:9834, V-B:GLU:543:CB:9877, V-A:GLU:543:CD:4907, V-B:HIS:456:CE1:9040, V-B:GLU:543:C:9873, V-B:TYR:539:CE1:9846, H-B:TYR:484:OH:9318, V-B:ASP:366:CG:8183, V-B:PRO:540:CG:9857"]

$$$$
2b_Grossjean_2025
     RDKit          3D

 42 43  0  0  0  0  0  0  0  0999 V2000
  124.6570  123.9670   58.0730 C   0  0  0  0  0  0  0  0  0  0  0  0
  125.6500  124.0000   57.0570 O   0  0  0  0  0  0  0  0  0  0  0  0
  126.6060  123.0390   56.9820 C   0  0  0  0  0  0  0  0  0  0  0  0
  126.4770  122.0000   56.3280 O   0  0  0  0  0  0  0  0  0  0  0  0
  127.8370  123.3650   57.7790 C   0  0  0  0  0  0  0  0  0  0  0  0
  128.2290  122.5960   58.8850 C   0  0  0  0  0  0  0  0  0  0  0  0
  129.3750  122.9260   59.6030 C   0  0  0  0  0  0  0  0  0  0  0  0
  130.1530  124.0220   59.2310 C   0  0  0  0  0  0  0  0  0  0  0  0
  131.2860  124.2690   60.0290 N   0  0  0  0  0  0  0  0  0  0  0  0
  132.5960  124.2260   59.7040 C   0  0  0  0  0  0  0  0  0  0  0  0
  133.0460  123.9210   58.5980 O   0  0  0  0  0  0  0  0  0  0  0  0
  133.5620  124.5740   60.8400 C   0  0  0  0  0  0  0  0  0  0  0  0
  133.0620  123.8740   62.4470 S   0  0  0  0  0  0  0  0  0  0  0  0
  131.8370  122.5950   62.2010 C   0  0  0  0  0  0  0  0  0  0  0  0
  130.5610  122.9320   62.5170 N   0  0  0  0  0  0  0  0  0  0  0  0
  129.5840  122.0120   62.3610 C   0  0  0  0  0  0  0  0  0  0  0  0
  128.1890  122.4630   62.7480 C   0  0  0  0  0  0  0  0  0  0  0  0
  129.8300  120.7300   61.8780 C   0  0  0  0  0  0  0  0  0  0  0  0
  131.1400  120.3610   61.5380 C   0  0  0  0  0  0  0  0  0  0  0  0
  131.3950  118.9400   61.0010 C   0  0  0  0  0  0  0  0  0  0  0  0
  132.0670  119.0000   59.8510 F   0  0  0  0  0  0  0  0  0  0  0  0
  132.1090  118.2380   61.8830 F   0  0  0  0  0  0  0  0  0  0  0  0
  130.2670  118.2640   60.7720 F   0  0  0  0  0  0  0  0  0  0  0  0
  132.1770  121.3150   61.7030 C   0  0  0  0  0  0  0  0  0  0  0  0
  133.5650  120.9820   61.3700 C   0  0  0  0  0  0  0  0  0  0  0  0
  134.6610  120.7190   61.1050 N   0  0  0  0  0  0  0  0  0  0  0  0
  129.7640  124.8000   58.1310 C   0  0  0  0  0  0  0  0  0  0  0  0
  128.6170  124.4700   57.4140 C   0  0  0  0  0  0  0  0  0  0  0  0
  125.1419  123.9831   59.0602 H   0  0  0  0  0  0  0  0  0  0  0  0
  124.0004  124.8438   57.9726 H   0  0  0  0  0  0  0  0  0  0  0  0
  124.0601  123.0485   57.9726 H   0  0  0  0  0  0  0  0  0  0  0  0
  127.6267  121.7264   59.1868 H   0  0  0  0  0  0  0  0  0  0  0  0
  129.6693  122.3174   60.4708 H   0  0  0  0  0  0  0  0  0  0  0  0
  131.0760  124.4590   60.9980 H   0  0  0  0  0  0  0  0  0  0  0  0
  134.5582  124.1843   60.5836 H   0  0  0  0  0  0  0  0  0  0  0  0
  133.5615  125.6689   60.9458 H   0  0  0  0  0  0  0  0  0  0  0  0
  128.1035  122.4906   63.8443 H   0  0  0  0  0  0  0  0  0  0  0  0
  128.0020  123.4674   62.3402 H   0  0  0  0  0  0  0  0  0  0  0  0
  127.4494  121.7582   62.3402 H   0  0  0  0  0  0  0  0  0  0  0  0
  129.0042  120.0123   61.7639 H   0  0  0  0  0  0  0  0  0  0  0  0
  130.3656  125.6718   57.8343 H   0  0  0  0  0  0  0  0  0  0  0  0
  128.3198  125.0840   56.5510 H   0  0  0  0  0  0  0  0  0  0  0  0
  1  2  1  0
  2  3  1  0
  3  4  2  0
  3  5  1  0
  5  6  2  0
  6  7  1  0
  7  8  2  0
  8  9  1  0
  9 10  1  0
 10 11  2  0
 10 12  1  0
 12 13  1  0
 13 14  1  0
 14 15  2  0
 15 16  1  0
 16 17  1  0
 16 18  2  0
 18 19  1  0
 19 20  1  0
 20 21  1  0
 20 22  1  0
 20 23  1  0
 19 24  2  0
 24 25  1  0
 25 26  3  0
  8 27  1  0
 27 28  2  0
 28  5  1  0
 24 14  1  0
  1 29  1  0
  1 30  1  0
  1 31  1  0
  6 32  1  0
  7 33  1  0
  9 34  1  0
 12 35  1  0
 12 36  1  0
 17 37  1  0
 17 38  1  0
 17 39  1  0
 18 40  1  0
 27 41  1  0
 28 42  1  0
M  END
>  <Binding energies>  (1) 
[-6.76]

>  <Ligand effiencies>  (1) 
[-0.23310344827586207]

>  <Interactions>  (1) 
["V-A:ASP:366:CG:3212, V-A:ASP:366:CB:3211, V-B:PRO:540:N:9855, V-B:ALA:541:CB:9863, V-B:PRO:540:CA:9854, V-B:ALA:541:CA:9861, V-B:TYR:539:C:9838, V-A:LEU:475:CD2:4258, V-A:ILE:369:CD1:3238, V-B:TYR:539:CD2:9845, V-A:ILE:369:CG2:3236, V-B:TYR:539:CE2:9847, V-B:TYR:539:CB:9842, V-A:SER:385:CA:3406, V-A:SER:385:CB:3408, H-B:TYR:539:N:9841, V-B:TYR:539:CG:9843, V-B:MET:535:CE:9806, H-B:TYR:539:OH:9849, V-B:TYR:539:CZ:9848, V-B:PRO:540:CB:9856, V-B:LEU:363:CD1:8159, H-B:TYR:531:OH:9766"]

$$$$
2c_Ghoteimi_2023
     RDKit          3D

 72 77  0  0  0  0  0  0  0  0999 V2000
  126.9140  132.6140   65.4460 N   0  0  0  0  0  0  0  0  0  0  0  0
  126.8710  131.7200   64.7130 C   0  0  0  0  0  0  0  0  0  0  0  0
  126.8160  130.5830   63.7880 C   0  0  0  0  0  0  0  0  0  0  0  0
  127.0560  129.2650   64.2510 C   0  0  0  0  0  0  0  0  0  0  0  0
  127.3760  128.9270   65.6700 C   0  0  0  0  0  0  0  0  0  0  0  0
  128.7040  128.7590   66.0690 C   0  0  0  0  0  0  0  0  0  0  0  0
  129.0120  128.4480   67.3910 C   0  0  0  0  0  0  0  0  0  0  0  0
  127.9990  128.2820   68.3490 C   0  0  0  0  0  0  0  0  0  0  0  0
  128.2860  127.9910   69.6840 N   0  0  0  0  0  0  0  0  0  0  0  0
  127.9220  126.6670   70.2290 C   0  0  0  0  0  0  0  0  0  0  0  0
  127.9340  126.6190   71.7720 C   0  0  0  0  0  0  0  0  0  0  0  0
  129.1990  127.0380   72.2610 O   0  0  0  0  0  0  0  0  0  0  0  0
  129.5020  128.3660   71.8640 C   0  0  0  0  0  0  0  0  0  0  0  0
  129.5300  128.4610   70.3240 C   0  0  0  0  0  0  0  0  0  0  0  0
  126.6690  128.4490   67.9370 C   0  0  0  0  0  0  0  0  0  0  0  0
  126.3620  128.7620   66.6160 C   0  0  0  0  0  0  0  0  0  0  0  0
  126.9880  128.2130   63.3290 C   0  0  0  0  0  0  0  0  0  0  0  0
  126.6660  128.4620   61.9910 C   0  0  0  0  0  0  0  0  0  0  0  0
  126.5650  127.3720   60.9730 C   0  0  0  0  0  0  0  0  0  0  0  0
  126.5520  127.6700   59.6070 C   0  0  0  0  0  0  0  0  0  0  0  0
  126.4630  126.6590   58.6530 C   0  0  0  0  0  0  0  0  0  0  0  0
  126.3730  125.3100   59.0320 C   0  0  0  0  0  0  0  0  0  0  0  0
  126.3090  124.2810   58.0870 N   0  0  0  0  0  0  0  0  0  0  0  0
  127.4100  123.3010   57.9910 C   0  0  0  0  0  0  0  0  0  0  0  0
  127.3960  122.4800   56.6840 C   0  0  0  0  0  0  0  0  0  0  0  0
  126.1400  121.8430   56.5240 O   0  0  0  0  0  0  0  0  0  0  0  0
  125.0840  122.7880   56.4520 C   0  0  0  0  0  0  0  0  0  0  0  0
  125.0300  123.6230   57.7490 C   0  0  0  0  0  0  0  0  0  0  0  0
  126.4000  125.0160   60.4030 C   0  0  0  0  0  0  0  0  0  0  0  0
  126.4900  126.0270   61.3560 C   0  0  0  0  0  0  0  0  0  0  0  0
  126.4350  129.7250   61.5510 N   0  0  0  0  0  0  0  0  0  0  0  0
  126.5250  130.7630   62.4170 C   0  0  0  0  0  0  0  0  0  0  0  0
  126.2030  132.3440   61.6690 S   0  0  0  0  0  0  0  0  0  0  0  0
  127.0910  132.3880   60.0830 C   0  0  0  0  0  0  0  0  0  0  0  0
  128.5070  131.8210   60.2020 C   0  0  0  0  0  0  0  0  0  0  0  0
  128.7330  130.6730   59.8160 O   0  0  0  0  0  0  0  0  0  0  0  0
  129.4240  132.6520   60.7430 N   0  0  0  0  0  0  0  0  0  0  0  0
  130.7700  132.3850   60.9420 C   0  0  0  0  0  0  0  0  0  0  0  0
  131.4590  132.4950   62.0580 N   0  0  0  0  0  0  0  0  0  0  0  0
  132.7190  132.1510   61.8850 C   0  0  0  0  0  0  0  0  0  0  0  0
  133.0770  131.7490   60.6020 C   0  0  0  0  0  0  0  0  0  0  0  0
  131.6780  131.8310   59.5730 S   0  0  0  0  0  0  0  0  0  0  0  0
  129.5133  128.8733   65.3328 H   0  0  0  0  0  0  0  0  0  0  0  0
  130.0643  128.3307   67.6891 H   0  0  0  0  0  0  0  0  0  0  0  0
  126.9109  126.4112   69.8793 H   0  0  0  0  0  0  0  0  0  0  0  0
  128.6764  125.9494   69.8743 H   0  0  0  0  0  0  0  0  0  0  0  0
  127.1527  127.2872   72.1633 H   0  0  0  0  0  0  0  0  0  0  0  0
  127.7427  125.5874   72.1026 H   0  0  0  0  0  0  0  0  0  0  0  0
  128.7342  129.0484   72.2575 H   0  0  0  0  0  0  0  0  0  0  0  0
  130.4884  128.6465   72.2619 H   0  0  0  0  0  0  0  0  0  0  0  0
  129.6911  129.5121   70.0426 H   0  0  0  0  0  0  0  0  0  0  0  0
  130.3421  127.8070   69.9735 H   0  0  0  0  0  0  0  0  0  0  0  0
  125.8562  128.3309   68.6687 H   0  0  0  0  0  0  0  0  0  0  0  0
  125.3108  128.8805   66.3143 H   0  0  0  0  0  0  0  0  0  0  0  0
  127.1893  127.1834   63.6596 H   0  0  0  0  0  0  0  0  0  0  0  0
  126.6130  128.7187   59.2808 H   0  0  0  0  0  0  0  0  0  0  0  0
  126.4632  126.9218   57.5849 H   0  0  0  0  0  0  0  0  0  0  0  0
  128.3648  123.8441   58.0500 H   0  0  0  0  0  0  0  0  0  0  0  0
  127.2808  122.5893   58.8197 H   0  0  0  0  0  0  0  0  0  0  0  0
  127.5754  123.1507   55.8308 H   0  0  0  0  0  0  0  0  0  0  0  0
  128.1851  121.7150   56.7302 H   0  0  0  0  0  0  0  0  0  0  0  0
  125.2523  123.4571   55.5953 H   0  0  0  0  0  0  0  0  0  0  0  0
  124.1306  122.2536   56.3279 H   0  0  0  0  0  0  0  0  0  0  0  0
  124.2608  124.4002   57.6296 H   0  0  0  0  0  0  0  0  0  0  0  0
  124.8006  122.9270   58.5694 H   0  0  0  0  0  0  0  0  0  0  0  0
  126.3491  123.9674   60.7314 H   0  0  0  0  0  0  0  0  0  0  0  0
  126.5024  125.7657   62.4245 H   0  0  0  0  0  0  0  0  0  0  0  0
  126.5312  131.7932   59.3462 H   0  0  0  0  0  0  0  0  0  0  0  0
  127.1716  133.4389   59.7682 H   0  0  0  0  0  0  0  0  0  0  0  0
  129.1160  133.5760   61.0120 H   0  0  0  0  0  0  0  0  0  0  0  0
  133.4473  132.1800   62.7089 H   0  0  0  0  0  0  0  0  0  0  0  0
  134.0825  131.4308   60.2893 H   0  0  0  0  0  0  0  0  0  0  0  0
  1  2  3  0
  2  3  1  0
  3  4  2  0
  4  5  1  0
  5  6  2  0
  6  7  1  0
  7  8  2  0
  8  9  1  0
  9 10  1  0
 10 11  1  0
 11 12  1  0
 12 13  1  0
 13 14  1  0
  8 15  1  0
 15 16  2  0
  4 17  1  0
 17 18  2  0
 18 19  1  0
 19 20  2  0
 20 21  1  0
 21 22  2  0
 22 23  1  0
 23 24  1  0
 24 25  1  0
 25 26  1  0
 26 27  1  0
 27 28  1  0
 22 29  1  0
 29 30  2  0
 18 31  1  0
 31 32  2  0
 32 33  1  0
 33 34  1  0
 34 35  1  0
 35 36  2  0
 35 37  1  0
 37 38  1  0
 38 39  2  0
 39 40  1  0
 40 41  2  0
 41 42  1  0
 32  3  1  0
 42 38  1  0
 16  5  1  0
 30 19  1  0
 14  9  1  0
 28 23  1  0
  6 43  1  0
  7 44  1  0
 10 45  1  0
 10 46  1  0
 11 47  1  0
 11 48  1  0
 13 49  1  0
 13 50  1  0
 14 51  1  0
 14 52  1  0
 15 53  1  0
 16 54  1  0
 17 55  1  0
 20 56  1  0
 21 57  1  0
 24 58  1  0
 24 59  1  0
 25 60  1  0
 25 61  1  0
 27 62  1  0
 27 63  1  0
 28 64  1  0
 28 65  1  0
 29 66  1  0
 30 67  1  0
 34 68  1  0
 34 69  1  0
 37 70  1  0
 40 71  1  0
 41 72  1  0
M  END
>  <Binding energies>  (1) 
[-9.61]

>  <Ligand effiencies>  (1) 
[-0.22348837209302325]

>  <Interactions>  (1) 
["H-A:ALA:541:N:4890, V-A:ASN:362:C:3171, V-A:PRO:540:CB:4884, V-A:TYR:539:CE1:4874, V-A:TYR:539:CD1:4872, V-A:PRO:540:CA:4882, V-B:GLU:543:CD:9879, V-B:PRO:540:N:9855, V-B:TYR:539:C:9838, H-B:TYR:539:N:9841, V-B:TYR:539:CG:9843, V-B:MET:535:CE:9806, V-B:PRO:540:CB:9856, V-B:TYR:539:CA:9840, V-B:TYR:539:CD1:9844, V-B:PRO:540:CD:9858, V-B:TYR:531:CE2:9764, V-B:LEU:363:CD1:8159, V-A:HIS:456:CE1:4069, V-B:GLU:543:CB:9877, V-A:GLU:543:CD:4907, V-B:HIS:456:CE1:9040, V-A:GLU:543:CG:4906, V-A:GLU:543:CB:4905, V-B:TYR:539:CE1:9846, H-B:TYR:484:OH:9318, V-A:ASN:362:CB:3175, V-A:PRO:540:C:4880, H-A:TYR:539:O:4867"]

$$$$
2c_Grossjean_2025
     RDKit          3D

 40 41  0  0  0  0  0  0  0  0999 V2000
  124.9670  122.1880   55.6100 C   0  0  0  0  0  0  0  0  0  0  0  0
  126.0440  123.1000   55.7990 O   0  0  0  0  0  0  0  0  0  0  0  0
  126.6850  123.1410   57.0220 C   0  0  0  0  0  0  0  0  0  0  0  0
  125.9580  123.6690   58.0880 C   0  0  0  0  0  0  0  0  0  0  0  0
  126.5200  123.7530   59.3600 C   0  0  0  0  0  0  0  0  0  0  0  0
  127.8340  123.3140   59.5750 C   0  0  0  0  0  0  0  0  0  0  0  0
  128.4790  123.3420   60.8250 N   0  0  0  0  0  0  0  0  0  0  0  0
  127.9380  123.2110   62.0550 C   0  0  0  0  0  0  0  0  0  0  0  0
  126.7320  123.0940   62.2820 O   0  0  0  0  0  0  0  0  0  0  0  0
  128.9460  123.2560   63.2130 C   0  0  0  0  0  0  0  0  0  0  0  0
  129.8810  121.7120   63.5020 S   0  0  0  0  0  0  0  0  0  0  0  0
  131.1780  121.5650   62.2800 C   0  0  0  0  0  0  0  0  0  0  0  0
  131.8970  122.6940   62.0470 N   0  0  0  0  0  0  0  0  0  0  0  0
  132.8870  122.6600   61.1290 C   0  0  0  0  0  0  0  0  0  0  0  0
  133.6310  123.9640   60.9150 C   0  0  0  0  0  0  0  0  0  0  0  0
  133.2100  121.5080   60.4150 C   0  0  0  0  0  0  0  0  0  0  0  0
  132.4870  120.3290   60.6450 C   0  0  0  0  0  0  0  0  0  0  0  0
  132.8580  119.0630   59.8480 C   0  0  0  0  0  0  0  0  0  0  0  0
  133.5480  119.3960   58.7570 F   0  0  0  0  0  0  0  0  0  0  0  0
  133.6010  118.2500   60.6000 F   0  0  0  0  0  0  0  0  0  0  0  0
  131.7860  118.3730   59.4500 F   0  0  0  0  0  0  0  0  0  0  0  0
  131.4410  120.3520   61.6010 C   0  0  0  0  0  0  0  0  0  0  0  0
  130.6500  119.1490   61.8810 C   0  0  0  0  0  0  0  0  0  0  0  0
  130.0260  118.1990   62.1000 N   0  0  0  0  0  0  0  0  0  0  0  0
  128.5600  122.7700   58.5140 C   0  0  0  0  0  0  0  0  0  0  0  0
  127.9950  122.6870   57.2450 C   0  0  0  0  0  0  0  0  0  0  0  0
  124.5846  121.8642   56.5892 H   0  0  0  0  0  0  0  0  0  0  0  0
  124.1618  122.6830   55.0474 H   0  0  0  0  0  0  0  0  0  0  0  0
  125.3226  121.3122   55.0474 H   0  0  0  0  0  0  0  0  0  0  0  0
  124.9297  124.0230   57.9230 H   0  0  0  0  0  0  0  0  0  0  0  0
  125.9332  124.1634   60.1950 H   0  0  0  0  0  0  0  0  0  0  0  0
  129.4660  123.5490   60.7860 H   0  0  0  0  0  0  0  0  0  0  0  0
  129.6703  124.0563   63.0011 H   0  0  0  0  0  0  0  0  0  0  0  0
  128.3527  123.4251   64.1237 H   0  0  0  0  0  0  0  0  0  0  0  0
  133.8834  124.4064   61.8900 H   0  0  0  0  0  0  0  0  0  0  0  0
  134.5547  123.7706   60.3499 H   0  0  0  0  0  0  0  0  0  0  0  0
  132.9945  124.6608   60.3499 H   0  0  0  0  0  0  0  0  0  0  0  0
  134.0255  121.5234   59.6770 H   0  0  0  0  0  0  0  0  0  0  0  0
  129.5840  122.4050   58.6819 H   0  0  0  0  0  0  0  0  0  0  0  0
  128.5771  122.2639   56.4130 H   0  0  0  0  0  0  0  0  0  0  0  0
  1  2  1  0
  2  3  1  0
  3  4  2  0
  4  5  1  0
  5  6  2  0
  6  7  1  0
  7  8  1  0
  8  9  2  0
  8 10  1  0
 10 11  1  0
 11 12  1  0
 12 13  2  0
 13 14  1  0
 14 15  1  0
 14 16  2  0
 16 17  1  0
 17 18  1  0
 18 19  1  0
 18 20  1  0
 18 21  1  0
 17 22  2  0
 22 23  1  0
 23 24  3  0
  6 25  1  0
 25 26  2  0
 26  3  1  0
 22 12  1  0
  1 27  1  0
  1 28  1  0
  1 29  1  0
  4 30  1  0
  5 31  1  0
  7 32  1  0
 10 33  1  0
 10 34  1  0
 15 35  1  0
 15 36  1  0
 15 37  1  0
 16 38  1  0
 25 39  1  0
 26 40  1  0
M  END
>  <Binding energies>  (1) 
[-6.97]

>  <Ligand effiencies>  (1) 
[-0.2581481481481481]

>  <Interactions>  (1) 
["V-A:ASP:366:CG:3212, V-B:PRO:540:N:9855, H-B:ALA:541:N:9862, V-B:ALA:541:CB:9863, V-B:PRO:540:CA:9854, V-B:TYR:539:C:9838, V-A:LEU:475:CD2:4258, V-A:ILE:369:CD1:3238, V-B:TYR:539:CD2:9845, V-A:ILE:369:CG2:3236, V-B:TYR:539:CE2:9847, V-B:TYR:539:CB:9842, V-A:SER:385:CA:3406, V-A:SER:385:CB:3408, V-B:TYR:539:CG:9843, V-B:MET:535:CE:9806, V-B:TYR:539:CZ:9848, V-B:PRO:540:CB:9856, V-B:TYR:539:CD1:9844, V-B:PRO:540:CD:9858, V-B:TYR:531:CE2:9764, V-B:LEU:363:CD1:8159, V-B:ILE:538:CD1:9836, V-B:ILE:538:CG2:9834, V-B:ILE:538:CA:9831, V-B:TYR:539:CE1:9846, V-B:ILE:538:CB:9833, V-A:LEU:373:CG:3278, V-A:LEU:373:CD2:3280, H-B:TYR:531:OH:9766, V-A:VAL:384:C:3396"]

$$$$
2d_Ghoteimi_2023
     RDKit          3D

 68 72  0  0  0  0  0  0  0  0999 V2000
  135.4590  124.1480   76.8600 C   0  0  0  0  0  0  0  0  0  0  0  0
  134.1380  124.6670   76.8370 O   0  0  0  0  0  0  0  0  0  0  0  0
  133.8520  125.7800   76.1300 C   0  0  0  0  0  0  0  0  0  0  0  0
  134.6350  126.3790   75.3880 O   0  0  0  0  0  0  0  0  0  0  0  0
  132.3990  126.2250   76.3550 C   0  0  0  0  0  0  0  0  0  0  0  0
  131.8510  127.3780   75.0500 S   0  0  0  0  0  0  0  0  0  0  0  0
  130.6030  126.5660   74.0720 C   0  0  0  0  0  0  0  0  0  0  0  0
  130.3670  125.2890   74.4600 N   0  0  0  0  0  0  0  0  0  0  0  0
  129.4440  124.5470   73.7970 C   0  0  0  0  0  0  0  0  0  0  0  0
  129.2510  123.1420   74.2700 C   0  0  0  0  0  0  0  0  0  0  0  0
  130.3250  122.4120   74.7920 C   0  0  0  0  0  0  0  0  0  0  0  0
  130.1520  121.1030   75.2340 C   0  0  0  0  0  0  0  0  0  0  0  0
  128.8960  120.4800   75.1790 C   0  0  0  0  0  0  0  0  0  0  0  0
  128.7090  119.1590   75.6030 N   0  0  0  0  0  0  0  0  0  0  0  0
  128.9060  118.7650   77.0110 C   0  0  0  0  0  0  0  0  0  0  0  0
  129.0230  117.2400   77.2160 C   0  0  0  0  0  0  0  0  0  0  0  0
  127.8900  116.5890   76.6620 O   0  0  0  0  0  0  0  0  0  0  0  0
  127.7770  116.8320   75.2700 C   0  0  0  0  0  0  0  0  0  0  0  0
  127.6290  118.3460   75.0060 C   0  0  0  0  0  0  0  0  0  0  0  0
  127.8260  121.2100   74.6430 C   0  0  0  0  0  0  0  0  0  0  0  0
  127.9990  122.5180   74.1990 C   0  0  0  0  0  0  0  0  0  0  0  0
  128.7270  125.0800   72.7230 C   0  0  0  0  0  0  0  0  0  0  0  0
  128.9280  126.4070   72.3240 C   0  0  0  0  0  0  0  0  0  0  0  0
  128.1060  126.9170   71.1860 C   0  0  0  0  0  0  0  0  0  0  0  0
  128.7170  127.5870   70.1240 C   0  0  0  0  0  0  0  0  0  0  0  0
  127.9620  128.0550   69.0520 C   0  0  0  0  0  0  0  0  0  0  0  0
  126.5700  127.8700   69.0150 C   0  0  0  0  0  0  0  0  0  0  0  0
  125.7940  128.3210   67.9430 N   0  0  0  0  0  0  0  0  0  0  0  0
  126.4130  128.7750   66.6830 C   0  0  0  0  0  0  0  0  0  0  0  0
  125.4130  128.8880   65.5120 C   0  0  0  0  0  0  0  0  0  0  0  0
  124.3300  129.7300   65.8780 O   0  0  0  0  0  0  0  0  0  0  0  0
  123.6330  129.2260   67.0070 C   0  0  0  0  0  0  0  0  0  0  0  0
  124.5870  129.1250   68.2160 C   0  0  0  0  0  0  0  0  0  0  0  0
  125.9680  127.1810   70.0770 C   0  0  0  0  0  0  0  0  0  0  0  0
  126.7240  126.7120   71.1470 C   0  0  0  0  0  0  0  0  0  0  0  0
  129.8900  127.1820   73.0190 C   0  0  0  0  0  0  0  0  0  0  0  0
  130.1220  128.5820   72.6510 C   0  0  0  0  0  0  0  0  0  0  0  0
  130.3020  129.6880   72.3580 N   0  0  0  0  0  0  0  0  0  0  0  0
  135.7846  124.0201   77.9029 H   0  0  0  0  0  0  0  0  0  0  0  0
  135.4796  123.1749   76.3475 H   0  0  0  0  0  0  0  0  0  0  0  0
  136.1365  124.8468   76.3475 H   0  0  0  0  0  0  0  0  0  0  0  0
  131.7473  125.3389   76.3475 H   0  0  0  0  0  0  0  0  0  0  0  0
  132.3396  126.7425   77.3239 H   0  0  0  0  0  0  0  0  0  0  0  0
  131.3192  122.8787   74.8539 H   0  0  0  0  0  0  0  0  0  0  0  0
  131.0141  120.5482   75.6328 H   0  0  0  0  0  0  0  0  0  0  0  0
  129.8293  119.2369   77.3781 H   0  0  0  0  0  0  0  0  0  0  0  0
  128.0165  119.0975   77.5661 H   0  0  0  0  0  0  0  0  0  0  0  0
  129.9332  116.8740   76.7185 H   0  0  0  0  0  0  0  0  0  0  0  0
  129.0745  117.0226   78.2931 H   0  0  0  0  0  0  0  0  0  0  0  0
  128.6788  116.4605   74.7614 H   0  0  0  0  0  0  0  0  0  0  0  0
  126.8883  116.3108   74.8845 H   0  0  0  0  0  0  0  0  0  0  0  0
  127.6301  118.5111   73.9185 H   0  0  0  0  0  0  0  0  0  0  0  0
  126.6873  118.6650   75.4767 H   0  0  0  0  0  0  0  0  0  0  0  0
  126.8333  120.7415   74.5721 H   0  0  0  0  0  0  0  0  0  0  0  0
  127.1408  123.0690   73.7868 H   0  0  0  0  0  0  0  0  0  0  0  0
  127.9994  124.4528   72.1870 H   0  0  0  0  0  0  0  0  0  0  0  0
  129.8053  127.7465   70.1346 H   0  0  0  0  0  0  0  0  0  0  0  0
  128.4622  128.5767   68.2228 H   0  0  0  0  0  0  0  0  0  0  0  0
  126.8636  129.7640   66.8529 H   0  0  0  0  0  0  0  0  0  0  0  0
  127.1604  128.0196   66.3988 H   0  0  0  0  0  0  0  0  0  0  0  0
  125.9246  129.3127   64.6357 H   0  0  0  0  0  0  0  0  0  0  0  0
  125.0264  127.8872   65.2694 H   0  0  0  0  0  0  0  0  0  0  0  0
  122.8024  129.9034   67.2543 H   0  0  0  0  0  0  0  0  0  0  0  0
  123.2416  128.2252   66.7719 H   0  0  0  0  0  0  0  0  0  0  0  0
  124.9009  130.1407   68.4986 H   0  0  0  0  0  0  0  0  0  0  0  0
  124.0362  128.6209   69.0238 H   0  0  0  0  0  0  0  0  0  0  0  0
  124.8817  127.0085   70.0644 H   0  0  0  0  0  0  0  0  0  0  0  0
  126.2294  126.1749   71.9697 H   0  0  0  0  0  0  0  0  0  0  0  0
  1  2  1  0
  2  3  1  0
  3  4  2  0
  3  5  1  0
  5  6  1  0
  6  7  1  0
  7  8  2  0
  8  9  1  0
  9 10  1  0
 10 11  2  0
 11 12  1  0
 12 13  2  0
 13 14  1  0
 14 15  1  0
 15 16  1  0
 16 17  1  0
 17 18  1  0
 18 19  1  0
 13 20  1  0
 20 21  2  0
  9 22  2  0
 22 23  1  0
 23 24  1  0
 24 25  2  0
 25 26  1  0
 26 27  2  0
 27 28  1  0
 28 29  1  0
 29 30  1  0
 30 31  1  0
 31 32  1  0
 32 33  1  0
 27 34  1  0
 34 35  2  0
 23 36  2  0
 36 37  1  0
 37 38  3  0
 36  7  1  0
 21 10  1  0
 35 24  1  0
 19 14  1  0
 33 28  1  0
  1 39  1  0
  1 40  1  0
  1 41  1  0
  5 42  1  0
  5 43  1  0
 11 44  1  0
 12 45  1  0
 15 46  1  0
 15 47  1  0
 16 48  1  0
 16 49  1  0
 18 50  1  0
 18 51  1  0
 19 52  1  0
 19 53  1  0
 20 54  1  0
 21 55  1  0
 22 56  1  0
 25 57  1  0
 26 58  1  0
 29 59  1  0
 29 60  1  0
 30 61  1  0
 30 62  1  0
 32 63  1  0
 32 64  1  0
 33 65  1  0
 33 66  1  0
 34 67  1  0
 35 68  1  0
M  END
>  <Binding energies>  (1) 
[-8.8]

>  <Ligand effiencies>  (1) 
[-0.23157894736842108]

>  <Interactions>  (1) 
["V-B:GLU:543:CD:9879, V-A:HIS:456:CE1:4069, V-B:GLU:543:CB:9877, V-B:HIS:456:CE1:9040, V-B:LYS:547:CE:9921, V-B:TYR:484:CZ:9317, H-B:LYS:547:NZ:9922, V-B:ARG:545:CD:9894, V-B:GLU:543:C:9873, V-B:ARG:545:CG:9893, V-B:GLY:544:CA:9885, V-A:ASP:473:CG:4239, V-A:TYR:484:CB:4340, H-B:TYR:484:OH:9318, V-B:GLY:544:C:9883, V-B:ARG:545:CZ:9897, V-A:HIS:456:CB:4064, V-A:HIS:456:C:4060, V-A:VAL:457:CA:4074, V-A:HIS:456:CG:4065, V-A:VAL:458:CG2:4086, H-A:LYS:471:NZ:4220, V-A:LYS:471:CD:4218, V-B:ARG:545:CA:9890, H-B:GLY:454:N:9020, V-A:LYS:471:CE:4219, V-A:LYS:471:CG:4217, V-A:ASP:485:CG:4355, H-A:VAL:457:N:4075, V-A:LYS:471:CB:4216, V-A:LYS:471:C:4212"]

$$$$
2d_Grossjean_2025
     RDKit          3D

 36 37  0  0  0  0  0  0  0  0999 V2000
  124.0180  123.2060   63.0170 C   0  0  0  0  0  0  0  0  0  0  0  0
  124.9690  123.4390   61.8590 C   0  0  0  0  0  0  0  0  0  0  0  0
  124.5070  123.5690   60.5510 C   0  0  0  0  0  0  0  0  0  0  0  0
  125.4260  123.7880   59.5140 C   0  0  0  0  0  0  0  0  0  0  0  0
  124.8960  123.9400   58.0750 C   0  0  0  0  0  0  0  0  0  0  0  0
  123.5630  123.9010   58.0730 F   0  0  0  0  0  0  0  0  0  0  0  0
  125.2950  125.1040   57.5600 F   0  0  0  0  0  0  0  0  0  0  0  0
  125.3270  122.9740   57.2610 F   0  0  0  0  0  0  0  0  0  0  0  0
  126.8050  123.8640   59.8350 C   0  0  0  0  0  0  0  0  0  0  0  0
  127.8010  124.1380   58.7950 C   0  0  0  0  0  0  0  0  0  0  0  0
  128.5860  124.3560   57.9730 N   0  0  0  0  0  0  0  0  0  0  0  0
  127.1840  123.6950   61.1880 C   0  0  0  0  0  0  0  0  0  0  0  0
  128.8720  123.7290   61.7610 S   0  0  0  0  0  0  0  0  0  0  0  0
  129.1000  122.4020   62.9900 C   0  0  0  0  0  0  0  0  0  0  0  0
  130.2340  121.4380   62.6270 C   0  0  0  0  0  0  0  0  0  0  0  0
  131.3490  121.6130   63.1210 O   0  0  0  0  0  0  0  0  0  0  0  0
  129.9150  120.4660   61.7470 N   0  0  0  0  0  0  0  0  0  0  0  0
  130.7240  119.4380   61.2270 C   0  0  0  0  0  0  0  0  0  0  0  0
  131.9810  119.8260   60.7590 C   0  0  0  0  0  0  0  0  0  0  0  0
  132.8520  118.8830   60.2190 C   0  0  0  0  0  0  0  0  0  0  0  0
  132.4590  117.5480   60.1400 C   0  0  0  0  0  0  0  0  0  0  0  0
  131.2030  117.1520   60.5910 C   0  0  0  0  0  0  0  0  0  0  0  0
  130.3310  118.0920   61.1310 C   0  0  0  0  0  0  0  0  0  0  0  0
  126.2810  123.5050   62.1800 N   0  0  0  0  0  0  0  0  0  0  0  0
  124.5573  123.3381   63.9666 H   0  0  0  0  0  0  0  0  0  0  0  0
  123.1897  123.9278   62.9622 H   0  0  0  0  0  0  0  0  0  0  0  0
  123.6172  122.1831   62.9622 H   0  0  0  0  0  0  0  0  0  0  0  0
  123.4309  123.5005   60.3334 H   0  0  0  0  0  0  0  0  0  0  0  0
  129.3283  122.8611   63.9632 H   0  0  0  0  0  0  0  0  0  0  0  0
  128.1685  121.8177   63.0199 H   0  0  0  0  0  0  0  0  0  0  0  0
  128.9830  120.5020   61.3590 H   0  0  0  0  0  0  0  0  0  0  0  0
  132.2848  120.8816   60.8171 H   0  0  0  0  0  0  0  0  0  0  0  0
  133.8443  119.1899   59.8569 H   0  0  0  0  0  0  0  0  0  0  0  0
  133.1472  116.8010   59.7177 H   0  0  0  0  0  0  0  0  0  0  0  0
  130.9002  116.0968   60.5205 H   0  0  0  0  0  0  0  0  0  0  0  0
  129.3356  117.7823   61.4822 H   0  0  0  0  0  0  0  0  0  0  0  0
  1  2  1  0
  2  3  2  0
  3  4  1  0
  4  5  1  0
  5  6  1  0
  5  7  1  0
  5  8  1  0
  4  9  2  0
  9 10  1  0
 10 11  3  0
  9 12  1  0
 12 13  1  0
 13 14  1  0
 14 15  1  0
 15 16  2  0
 15 17  1  0
 17 18  1  0
 18 19  2  0
 19 20  1  0
 20 21  2  0
 21 22  1  0
 22 23  2  0
 12 24  2  0
 24  2  1  0
 23 18  1  0
  1 25  1  0
  1 26  1  0
  1 27  1  0
  3 28  1  0
 14 29  1  0
 14 30  1  0
 17 31  1  0
 19 32  1  0
 20 33  1  0
 21 34  1  0
 22 35  1  0
 23 36  1  0
M  END
>  <Binding energies>  (1) 
[-7.08]

>  <Ligand effiencies>  (1) 
[-0.2832]

>  <Interactions>  (1) 
["V-B:PRO:540:N:9855, H-B:ALA:541:N:9862, V-B:ALA:541:CB:9863, V-B:PRO:540:CA:9854, V-B:ALA:541:CA:9861, V-B:TYR:539:C:9838, V-A:LEU:475:CD2:4258, V-A:PRO:482:CG:4326, V-A:HIS:383:CE1:3393, H-B:TYR:539:O:9839, V-B:TYR:539:CD2:9845, V-B:TYR:539:CE2:9847, V-A:SER:385:CA:3406, V-A:PRO:482:CB:4325, V-B:ALA:541:C:9859, V-B:PRO:540:CB:9856, V-B:ASN:362:CB:8146, V-B:TYR:531:CZ:9765, V-B:PRO:540:CD:9858, V-B:TYR:531:CE2:9764, V-B:LEU:363:CD1:8159, V-B:LEU:363:CA:8155, V-B:ARG:545:CZ:9897, V-B:ASN:362:CG:8147, V-B:LEU:363:CB:8157, V-B:LEU:363:CG:8158"]

$$$$
2e_Grossjean_2025
     RDKit          3D

 38 39  0  0  0  0  0  0  0  0999 V2000
  123.7130  124.3420   57.7800 C   0  0  0  0  0  0  0  0  0  0  0  0
  125.0610  123.6510   57.6930 C   0  0  0  0  0  0  0  0  0  0  0  0
  125.4650  122.9770   56.5380 C   0  0  0  0  0  0  0  0  0  0  0  0
  126.7240  122.3750   56.5270 C   0  0  0  0  0  0  0  0  0  0  0  0
  127.5390  122.4580   57.6590 C   0  0  0  0  0  0  0  0  0  0  0  0
  127.0680  123.1400   58.7860 C   0  0  0  0  0  0  0  0  0  0  0  0
  127.9450  123.2300   59.8800 N   0  0  0  0  0  0  0  0  0  0  0  0
  127.6400  123.2140   61.1970 C   0  0  0  0  0  0  0  0  0  0  0  0
  126.5110  123.0390   61.6580 O   0  0  0  0  0  0  0  0  0  0  0  0
  128.8060  123.4810   62.1550 C   0  0  0  0  0  0  0  0  0  0  0  0
  129.4880  121.9400   62.8470 S   0  0  0  0  0  0  0  0  0  0  0  0
  130.9650  121.6120   61.9100 C   0  0  0  0  0  0  0  0  0  0  0  0
  131.7230  122.7060   61.6470 N   0  0  0  0  0  0  0  0  0  0  0  0
  132.8400  122.5520   60.9020 C   0  0  0  0  0  0  0  0  0  0  0  0
  133.6400  123.8150   60.6470 C   0  0  0  0  0  0  0  0  0  0  0  0
  133.2400  121.3190   60.3890 C   0  0  0  0  0  0  0  0  0  0  0  0
  132.4620  120.1800   60.6440 C   0  0  0  0  0  0  0  0  0  0  0  0
  132.9050  118.8290   60.0520 C   0  0  0  0  0  0  0  0  0  0  0  0
  133.9590  119.0020   59.2540 F   0  0  0  0  0  0  0  0  0  0  0  0
  133.2380  117.9900   61.0330 F   0  0  0  0  0  0  0  0  0  0  0  0
  131.9470  118.2440   59.3300 F   0  0  0  0  0  0  0  0  0  0  0  0
  131.2900  120.3230   61.4280 C   0  0  0  0  0  0  0  0  0  0  0  0
  130.4190  119.1770   61.7050 C   0  0  0  0  0  0  0  0  0  0  0  0
  129.7320  118.2720   61.9230 N   0  0  0  0  0  0  0  0  0  0  0  0
  125.8410  123.7390   58.8010 N   0  0  0  0  0  0  0  0  0  0  0  0
  123.4402  124.4819   58.8364 H   0  0  0  0  0  0  0  0  0  0  0  0
  123.7705  125.3218   57.2833 H   0  0  0  0  0  0  0  0  0  0  0  0
  122.9511  123.7233   57.2833 H   0  0  0  0  0  0  0  0  0  0  0  0
  124.8067  122.9221   55.6585 H   0  0  0  0  0  0  0  0  0  0  0  0
  127.0728  121.8383   55.6324 H   0  0  0  0  0  0  0  0  0  0  0  0
  128.5363  121.9939   57.6639 H   0  0  0  0  0  0  0  0  0  0  0  0
  128.9240  123.2750   59.6390 H   0  0  0  0  0  0  0  0  0  0  0  0
  129.6019  124.0072   61.6076 H   0  0  0  0  0  0  0  0  0  0  0  0
  128.4274  124.0896   62.9894 H   0  0  0  0  0  0  0  0  0  0  0  0
  133.9267  124.2676   61.6077 H   0  0  0  0  0  0  0  0  0  0  0  0
  134.5455  123.5661   60.0742 H   0  0  0  0  0  0  0  0  0  0  0  0
  133.0280  124.5273   60.0742 H   0  0  0  0  0  0  0  0  0  0  0  0
  134.1585  121.2399   59.7889 H   0  0  0  0  0  0  0  0  0  0  0  0
  1  2  1  0
  2  3  2  0
  3  4  1  0
  4  5  2  0
  5  6  1  0
  6  7  1  0
  7  8  1  0
  8  9  2  0
  8 10  1  0
 10 11  1  0
 11 12  1  0
 12 13  2  0
 13 14  1  0
 14 15  1  0
 14 16  2  0
 16 17  1  0
 17 18  1  0
 18 19  1  0
 18 20  1  0
 18 21  1  0
 17 22  2  0
 22 23  1  0
 23 24  3  0
  6 25  2  0
 25  2  1  0
 22 12  1  0
  1 26  1  0
  1 27  1  0
  1 28  1  0
  3 29  1  0
  4 30  1  0
  5 31  1  0
  7 32  1  0
 10 33  1  0
 10 34  1  0
 15 35  1  0
 15 36  1  0
 15 37  1  0
 16 38  1  0
M  END
>  <Binding energies>  (1) 
[-7.23]

>  <Ligand effiencies>  (1) 
[-0.2780769230769231]

>  <Interactions>  (1) 
["V-A:ASP:366:CG:3212, V-B:PRO:540:N:9855, H-B:ALA:541:N:9862, V-B:ALA:541:CB:9863, V-B:PRO:540:CA:9854, V-B:TYR:539:C:9838, V-A:LEU:475:CD2:4258, V-A:ILE:369:CD1:3238, V-B:TYR:539:CD2:9845, V-A:ILE:369:CG2:3236, V-B:TYR:539:CE2:9847, V-B:TYR:539:CB:9842, V-A:SER:385:CA:3406, V-A:SER:385:CB:3408, V-B:TYR:539:CG:9843, V-B:MET:535:CE:9806, V-B:PRO:540:CB:9856, V-B:TYR:539:CA:9840, V-B:TYR:531:CZ:9765, V-B:PRO:540:CD:9858, V-B:TYR:531:CE2:9764, V-B:LEU:363:CD1:8159, V-B:ASP:366:CB:8182, V-A:LEU:373:CG:3278, V-A:LEU:373:CD2:3280, V-A:VAL:384:C:3396, V-B:LEU:363:CA:8155"]

$$$$
2f_Grossjean_2025
     RDKit          3D

 35 36  0  0  0  0  0  0  0  0999 V2000
  133.3930  123.8980   60.4430 C   0  0  0  0  0  0  0  0  0  0  0  0
  132.6350  122.6110   60.7120 C   0  0  0  0  0  0  0  0  0  0  0  0
  133.1790  121.3660   60.4050 C   0  0  0  0  0  0  0  0  0  0  0  0
  132.4350  120.2050   60.6650 C   0  0  0  0  0  0  0  0  0  0  0  0
  133.0490  118.8380   60.3070 C   0  0  0  0  0  0  0  0  0  0  0  0
  132.3590  118.2710   59.3150 F   0  0  0  0  0  0  0  0  0  0  0  0
  134.3140  118.9960   59.9170 F   0  0  0  0  0  0  0  0  0  0  0  0
  133.0470  117.9850   61.3330 F   0  0  0  0  0  0  0  0  0  0  0  0
  131.1470  120.3400   61.2450 C   0  0  0  0  0  0  0  0  0  0  0  0
  130.3100  119.1620   61.4830 C   0  0  0  0  0  0  0  0  0  0  0  0
  129.6490  118.2300   61.6720 N   0  0  0  0  0  0  0  0  0  0  0  0
  130.6870  121.6440   61.5480 C   0  0  0  0  0  0  0  0  0  0  0  0
  129.1050  121.9990   62.2860 S   0  0  0  0  0  0  0  0  0  0  0  0
  128.3740  123.4190   61.4030 C   0  0  0  0  0  0  0  0  0  0  0  0
  128.2880  123.2640   59.8780 C   0  0  0  0  0  0  0  0  0  0  0  0
  129.2980  123.3590   59.1780 O   0  0  0  0  0  0  0  0  0  0  0  0
  127.0420  123.0410   59.4070 N   0  0  0  0  0  0  0  0  0  0  0  0
  126.6080  122.8440   58.0820 C   0  0  0  0  0  0  0  0  0  0  0  0
  125.3300  123.1630   57.5860 C   0  0  0  0  0  0  0  0  0  0  0  0
  125.0290  122.9200   56.2450 C   0  0  0  0  0  0  0  0  0  0  0  0
  126.0170  122.3670   55.4290 C   0  0  0  0  0  0  0  0  0  0  0  0
  127.2580  122.0580   55.8810 N   0  0  0  0  0  0  0  0  0  0  0  0
  127.5360  122.3010   57.1870 C   0  0  0  0  0  0  0  0  0  0  0  0
  131.4110  122.7550   61.2680 N   0  0  0  0  0  0  0  0  0  0  0  0
  133.6694  124.3673   61.3987 H   0  0  0  0  0  0  0  0  0  0  0  0
  134.3034  123.6739   59.8677 H   0  0  0  0  0  0  0  0  0  0  0  0
  132.7556  124.5855   59.8677 H   0  0  0  0  0  0  0  0  0  0  0  0
  134.1834  121.2935   59.9624 H   0  0  0  0  0  0  0  0  0  0  0  0
  127.3549  123.5716   61.7879 H   0  0  0  0  0  0  0  0  0  0  0  0
  129.0442  124.2717   61.5867 H   0  0  0  0  0  0  0  0  0  0  0  0
  126.2990  123.0470   60.0910 H   0  0  0  0  0  0  0  0  0  0  0  0
  124.5723  123.6016   58.2519 H   0  0  0  0  0  0  0  0  0  0  0  0
  124.0346  123.1592   55.8400 H   0  0  0  0  0  0  0  0  0  0  0  0
  125.7788  122.1732   54.3727 H   0  0  0  0  0  0  0  0  0  0  0  0
  128.5418  122.0587   57.5606 H   0  0  0  0  0  0  0  0  0  0  0  0
  1  2  1  0
  2  3  2  0
  3  4  1  0
  4  5  1  0
  5  6  1  0
  5  7  1  0
  5  8  1  0
  4  9  2  0
  9 10  1  0
 10 11  3  0
  9 12  1  0
 12 13  1  0
 13 14  1  0
 14 15  1  0
 15 16  2  0
 15 17  1  0
 17 18  1  0
 18 19  2  0
 19 20  1  0
 20 21  2  0
 21 22  1  0
 22 23  2  0
 12 24  2  0
 24  2  1  0
 23 18  1  0
  1 25  1  0
  1 26  1  0
  1 27  1  0
  3 28  1  0
 14 29  1  0
 14 30  1  0
 17 31  1  0
 19 32  1  0
 20 33  1  0
 21 34  1  0
 23 35  1  0
M  END
>  <Binding energies>  (1) 
[-7.12]

>  <Ligand effiencies>  (1) 
[-0.2848]

>  <Interactions>  (1) 
["V-A:ASP:366:CG:3212, V-B:PRO:540:N:9855, H-B:ALA:541:N:9862, V-B:ALA:541:CB:9863, V-B:PRO:540:CA:9854, V-B:TYR:539:C:9838, V-A:LEU:475:CD2:4258, V-A:ILE:369:CD1:3238, V-A:SER:385:C:3404, V-B:TYR:539:CD2:9845, V-A:ILE:369:CG2:3236, V-B:TYR:539:CE2:9847, V-B:TYR:539:CB:9842, V-A:SER:385:CA:3406, V-A:SER:385:CB:3408, H-B:TYR:539:N:9841, V-B:TYR:539:CG:9843, V-B:MET:535:CE:9806, V-B:PRO:540:CB:9856, V-B:TYR:539:CA:9840, V-B:TYR:539:CD1:9844, V-B:TYR:531:CZ:9765, V-B:PRO:540:CD:9858, V-B:TYR:531:CE2:9764, V-B:LEU:363:CD1:8159, V-B:ILE:538:CD1:9836, V-B:ILE:538:CG2:9834, V-B:ILE:538:CA:9831, V-B:TYR:539:CE1:9846, V-B:ILE:538:C:9829, V-A:LEU:373:CD2:3280, V-B:MET:535:CG:9804, V-A:VAL:384:C:3396"]

$$$$
2g_Grossjean_2025
     RDKit          3D

 39 40  0  0  0  0  0  0  0  0999 V2000
  123.9900  123.6560   62.2510 C   0  0  0  0  0  0  0  0  0  0  0  0
  125.3930  123.5000   61.6960 C   0  0  0  0  0  0  0  0  0  0  0  0
  125.6680  123.6920   60.3440 C   0  0  0  0  0  0  0  0  0  0  0  0
  126.9810  123.5280   59.8770 C   0  0  0  0  0  0  0  0  0  0  0  0
  127.2650  123.7350   58.3770 C   0  0  0  0  0  0  0  0  0  0  0  0
  128.1280  124.7380   58.2040 F   0  0  0  0  0  0  0  0  0  0  0  0
  127.7850  122.6230   57.8570 F   0  0  0  0  0  0  0  0  0  0  0  0
  126.1660  124.0310   57.6800 F   0  0  0  0  0  0  0  0  0  0  0  0
  127.9930  123.1780   60.8080 C   0  0  0  0  0  0  0  0  0  0  0  0
  129.3690  122.9390   60.3630 C   0  0  0  0  0  0  0  0  0  0  0  0
  130.4550  122.7510   60.0120 N   0  0  0  0  0  0  0  0  0  0  0  0
  127.6260  123.0330   62.1680 C   0  0  0  0  0  0  0  0  0  0  0  0
  128.7700  122.6230   63.4670 S   0  0  0  0  0  0  0  0  0  0  0  0
  130.2770  123.6190   63.2050 C   0  0  0  0  0  0  0  0  0  0  0  0
  131.5780  122.8070   63.1290 C   0  0  0  0  0  0  0  0  0  0  0  0
  132.5650  123.1120   63.8010 O   0  0  0  0  0  0  0  0  0  0  0  0
  131.5580  121.7620   62.2830 N   0  0  0  0  0  0  0  0  0  0  0  0
  132.6690  120.8390   62.0460 C   0  0  0  0  0  0  0  0  0  0  0  0
  132.3360  119.6800   61.1120 C   0  0  0  0  0  0  0  0  0  0  0  0
  133.1900  119.3770   60.0470 C   0  0  0  0  0  0  0  0  0  0  0  0
  132.9070  118.2950   59.2160 C   0  0  0  0  0  0  0  0  0  0  0  0
  131.7800  117.5150   59.4580 C   0  0  0  0  0  0  0  0  0  0  0  0
  130.9320  117.8040   60.5260 C   0  0  0  0  0  0  0  0  0  0  0  0
  131.2140  118.8850   61.3570 C   0  0  0  0  0  0  0  0  0  0  0  0
  126.3470  123.1730   62.5970 N   0  0  0  0  0  0  0  0  0  0  0  0
  124.0280  123.6518   63.3503 H   0  0  0  0  0  0  0  0  0  0  0  0
  123.5615  124.6073   61.9026 H   0  0  0  0  0  0  0  0  0  0  0  0
  123.3630  122.8220   61.9026 H   0  0  0  0  0  0  0  0  0  0  0  0
  124.8626  123.9699   59.6482 H   0  0  0  0  0  0  0  0  0  0  0  0
  130.1625  124.1717   62.2609 H   0  0  0  0  0  0  0  0  0  0  0  0
  130.3716  124.2757   64.0824 H   0  0  0  0  0  0  0  0  0  0  0  0
  130.7020  121.5620   61.7850 H   0  0  0  0  0  0  0  0  0  0  0  0
  133.5011  121.4079   61.6055 H   0  0  0  0  0  0  0  0  0  0  0  0
  132.9219  120.3949   63.0201 H   0  0  0  0  0  0  0  0  0  0  0  0
  134.0838  119.9919   59.8656 H   0  0  0  0  0  0  0  0  0  0  0  0
  133.5716  118.0582   58.3721 H   0  0  0  0  0  0  0  0  0  0  0  0
  131.5563  116.6622   58.8002 H   0  0  0  0  0  0  0  0  0  0  0  0
  130.0445  117.1811   60.7113 H   0  0  0  0  0  0  0  0  0  0  0  0
  130.5532  119.1129   62.2064 H   0  0  0  0  0  0  0  0  0  0  0  0
  1  2  1  0
  2  3  2  0
  3  4  1  0
  4  5  1  0
  5  6  1  0
  5  7  1  0
  5  8  1  0
  4  9  2  0
  9 10  1  0
 10 11  3  0
  9 12  1  0
 12 13  1  0
 13 14  1  0
 14 15  1  0
 15 16  2  0
 15 17  1  0
 17 18  1  0
 18 19  1  0
 19 20  2  0
 20 21  1  0
 21 22  2  0
 22 23  1  0
 23 24  2  0
 12 25  2  0
 25  2  1  0
 24 19  1  0
  1 26  1  0
  1 27  1  0
  1 28  1  0
  3 29  1  0
 14 30  1  0
 14 31  1  0
 17 32  1  0
 18 33  1  0
 18 34  1  0
 20 35  1  0
 21 36  1  0
 22 37  1  0
 23 38  1  0
 24 39  1  0
M  END
>  <Binding energies>  (1) 
[-6.77]

>  <Ligand effiencies>  (1) 
[-0.2603846153846154]

>  <Interactions>  (1) 
["V-B:PRO:540:N:9855, H-B:ALA:541:N:9862, H-A:TYR:484:OH:4347, V-B:ALA:541:CB:9863, V-B:PRO:540:CA:9854, V-B:PRO:540:C:9852, V-B:TYR:539:C:9838, V-A:LEU:475:CD2:4258, V-A:HIS:383:CE1:3393, V-B:TYR:539:CD2:9845, V-A:ILE:369:CG2:3236, V-B:TYR:539:CE2:9847, V-B:TYR:539:CB:9842, V-A:SER:385:CA:3406, V-B:TYR:539:CG:9843, V-B:PRO:540:CB:9856, V-B:ASN:362:CB:8146, V-A:LEU:373:CG:3278, V-A:LEU:373:CD2:3280, V-B:ARG:545:CZ:9897"]

$$$$
2h_Grossjean_2025
     RDKit          3D

 51 52  0  0  0  0  0  0  0  0999 V2000
  125.8450  122.5980   55.8670 C   0  0  0  0  0  0  0  0  0  0  0  0
  126.4310  123.6510   56.6240 O   0  0  0  0  0  0  0  0  0  0  0  0
  127.0020  123.3680   57.8520 C   0  0  0  0  0  0  0  0  0  0  0  0
  128.3540  123.0340   58.0300 C   0  0  0  0  0  0  0  0  0  0  0  0
  128.8600  122.7700   59.3000 C   0  0  0  0  0  0  0  0  0  0  0  0
  128.0290  122.8330   60.4200 C   0  0  0  0  0  0  0  0  0  0  0  0
  128.6100  122.5590   61.8060 C   0  0  0  0  0  0  0  0  0  0  0  0
  130.0630  122.7210   61.8760 N   0  0  0  0  0  0  0  0  0  0  0  0
  130.9590  121.8760   61.3360 C   0  0  0  0  0  0  0  0  0  0  0  0
  130.6450  120.8180   60.7870 O   0  0  0  0  0  0  0  0  0  0  0  0
  132.4270  122.3160   61.4330 C   0  0  0  0  0  0  0  0  0  0  0  0
  132.6780  124.0800   61.8240 S   0  0  0  0  0  0  0  0  0  0  0  0
  131.5060  124.9960   60.8470 C   0  0  0  0  0  0  0  0  0  0  0  0
  130.4910  125.5280   61.5700 N   0  0  0  0  0  0  0  0  0  0  0  0
  129.5330  126.2290   60.9230 C   0  0  0  0  0  0  0  0  0  0  0  0
  128.4240  126.7890   61.7940 C   0  0  0  0  0  0  0  0  0  0  0  0
  129.5490  126.4310   59.5440 C   0  0  0  0  0  0  0  0  0  0  0  0
  130.6030  125.9040   58.7820 C   0  0  0  0  0  0  0  0  0  0  0  0
  130.6090  126.1450   57.2600 C   0  0  0  0  0  0  0  0  0  0  0  0
  129.7550  127.1220   56.9510 F   0  0  0  0  0  0  0  0  0  0  0  0
  131.8100  126.5030   56.7990 F   0  0  0  0  0  0  0  0  0  0  0  0
  130.2470  125.0340   56.6180 F   0  0  0  0  0  0  0  0  0  0  0  0
  131.6210  125.1730   59.4470 C   0  0  0  0  0  0  0  0  0  0  0  0
  132.7730  124.6540   58.7050 C   0  0  0  0  0  0  0  0  0  0  0  0
  133.6830  124.2470   58.1180 N   0  0  0  0  0  0  0  0  0  0  0  0
  126.6700  123.1420   60.2560 C   0  0  0  0  0  0  0  0  0  0  0  0
  125.8450  123.2030   61.3530 O   0  0  0  0  0  0  0  0  0  0  0  0
  125.7020  124.5040   61.9090 C   0  0  0  0  0  0  0  0  0  0  0  0
  126.1660  123.4270   58.9750 C   0  0  0  0  0  0  0  0  0  0  0  0
  124.8400  123.7490   58.8120 O   0  0  0  0  0  0  0  0  0  0  0  0
  124.6110  125.1020   58.4430 C   0  0  0  0  0  0  0  0  0  0  0  0
  125.4258  121.8447   56.5502 H   0  0  0  0  0  0  0  0  0  0  0  0
  125.0433  123.0045   55.2329 H   0  0  0  0  0  0  0  0  0  0  0  0
  126.6129  122.1310   55.2329 H   0  0  0  0  0  0  0  0  0  0  0  0
  129.0207  122.9803   57.1567 H   0  0  0  0  0  0  0  0  0  0  0  0
  129.9219  122.5100   59.4217 H   0  0  0  0  0  0  0  0  0  0  0  0
  128.1478  123.2559   62.5206 H   0  0  0  0  0  0  0  0  0  0  0  0
  128.3913  121.5078   62.0448 H   0  0  0  0  0  0  0  0  0  0  0  0
  130.3960  123.5850   62.2790 H   0  0  0  0  0  0  0  0  0  0  0  0
  132.9108  121.7196   62.2205 H   0  0  0  0  0  0  0  0  0  0  0  0
  132.8625  122.1569   60.4355 H   0  0  0  0  0  0  0  0  0  0  0  0
  128.6874  126.6560   62.8537 H   0  0  0  0  0  0  0  0  0  0  0  0
  128.2951  127.8602   61.5799 H   0  0  0  0  0  0  0  0  0  0  0  0
  127.4854  126.2568   61.5799 H   0  0  0  0  0  0  0  0  0  0  0  0
  128.7423  126.9987   59.0571 H   0  0  0  0  0  0  0  0  0  0  0  0
  125.7094  124.4364   63.0069 H   0  0  0  0  0  0  0  0  0  0  0  0
  126.5357  125.1391   61.5751 H   0  0  0  0  0  0  0  0  0  0  0  0
  124.7502  124.9429   61.5751 H   0  0  0  0  0  0  0  0  0  0  0  0
  124.5070  125.7167   59.3493 H   0  0  0  0  0  0  0  0  0  0  0  0
  125.4599  125.4682   57.8470 H   0  0  0  0  0  0  0  0  0  0  0  0
  123.6888  125.1685   57.8470 H   0  0  0  0  0  0  0  0  0  0  0  0
  1  2  1  0
  2  3  1  0
  3  4  2  0
  4  5  1  0
  5  6  2  0
  6  7  1  0
  7  8  1  0
  8  9  1  0
  9 10  2  0
  9 11  1  0
 11 12  1  0
 12 13  1  0
 13 14  2  0
 14 15  1  0
 15 16  1  0
 15 17  2  0
 17 18  1  0
 18 19  1  0
 19 20  1  0
 19 21  1  0
 19 22  1  0
 18 23  2  0
 23 24  1  0
 24 25  3  0
  6 26  1  0
 26 27  1  0
 27 28  1  0
 26 29  2  0
 29 30  1  0
 30 31  1  0
 29  3  1  0
 23 13  1  0
  1 32  1  0
  1 33  1  0
  1 34  1  0
  4 35  1  0
  5 36  1  0
  7 37  1  0
  7 38  1  0
  8 39  1  0
 11 40  1  0
 11 41  1  0
 16 42  1  0
 16 43  1  0
 16 44  1  0
 17 45  1  0
 28 46  1  0
 28 47  1  0
 28 48  1  0
 31 49  1  0
 31 50  1  0
 31 51  1  0
M  END
>  <Binding energies>  (1) 
[-5.27]

>  <Ligand effiencies>  (1) 
[-0.1646875]

>  <Interactions>  (1) 
["V-A:ASP:366:CG:3212, V-A:ASP:366:CB:3211, V-A:TYR:531:CZ:4793, V-B:PRO:540:N:9855, H-B:ALA:541:N:9862, V-B:ALA:541:CB:9863, V-B:PRO:540:CA:9854, V-B:PRO:540:C:9852, V-B:TYR:539:C:9838, V-B:TYR:539:CD2:9845, V-B:TYR:539:CE2:9847, V-B:TYR:539:CG:9843, V-B:MET:535:CE:9806, H-B:TYR:539:OH:9849, V-B:TYR:539:CZ:9848, V-B:PRO:540:CB:9856, V-B:TYR:531:CE2:9764, V-B:ILE:538:CD1:9836, V-B:ILE:538:CA:9831, V-B:TYR:539:CE1:9846, V-B:ASP:366:CB:8182, H-B:TYR:531:OH:9766, V-A:TYR:531:CE1:4791, V-B:ASP:366:CG:8183, V-B:MET:535:CG:9804"]

$$$$
2i_Grossjean_2025
     RDKit          3D

 32 33  0  0  0  0  0  0  0  0999 V2000
  130.7170  117.8100   61.0710 C   0  0  0  0  0  0  0  0  0  0  0  0
  130.9550  119.2900   61.3120 C   0  0  0  0  0  0  0  0  0  0  0  0
  132.2360  119.8340   61.3010 C   0  0  0  0  0  0  0  0  0  0  0  0
  132.4030  121.2080   61.5270 C   0  0  0  0  0  0  0  0  0  0  0  0
  133.8280  121.7940   61.5120 C   0  0  0  0  0  0  0  0  0  0  0  0
  134.1670  122.2010   62.7370 F   0  0  0  0  0  0  0  0  0  0  0  0
  134.6990  120.8690   61.1070 F   0  0  0  0  0  0  0  0  0  0  0  0
  133.9470  122.8420   60.6940 F   0  0  0  0  0  0  0  0  0  0  0  0
  131.2510  122.0010   61.7610 C   0  0  0  0  0  0  0  0  0  0  0  0
  131.3680  123.4430   62.0020 C   0  0  0  0  0  0  0  0  0  0  0  0
  131.4600  124.5810   62.1920 N   0  0  0  0  0  0  0  0  0  0  0  0
  129.9880  121.3650   61.7570 C   0  0  0  0  0  0  0  0  0  0  0  0
  128.4710  122.2600   62.0480 S   0  0  0  0  0  0  0  0  0  0  0  0
  128.3750  123.6180   60.8430 C   0  0  0  0  0  0  0  0  0  0  0  0
  128.1480  123.1130   59.4170 C   0  0  0  0  0  0  0  0  0  0  0  0
  129.1170  122.7430   58.7510 O   0  0  0  0  0  0  0  0  0  0  0  0
  126.8700  123.1370   58.9810 N   0  0  0  0  0  0  0  0  0  0  0  0
  126.4150  122.7510   57.7310 C   0  0  0  0  0  0  0  0  0  0  0  0
  125.2040  123.0340   57.0840 C   0  0  0  0  0  0  0  0  0  0  0  0
  125.2990  122.3950   55.8690 C   0  0  0  0  0  0  0  0  0  0  0  0
  126.4990  121.7720   55.7880 O   0  0  0  0  0  0  0  0  0  0  0  0
  127.1960  122.0120   56.9740 N   0  0  0  0  0  0  0  0  0  0  0  0
  129.8480  120.0330   61.5350 N   0  0  0  0  0  0  0  0  0  0  0  0
  130.6334  117.2900   62.0367 H   0  0  0  0  0  0  0  0  0  0  0  0
  129.7858  117.6764   60.5008 H   0  0  0  0  0  0  0  0  0  0  0  0
  131.5593  117.3912   60.5008 H   0  0  0  0  0  0  0  0  0  0  0  0
  133.1099  119.1918   61.1166 H   0  0  0  0  0  0  0  0  0  0  0  0
  127.5413  124.2795   61.1210 H   0  0  0  0  0  0  0  0  0  0  0  0
  129.3357  124.1534   60.8617 H   0  0  0  0  0  0  0  0  0  0  0  0
  126.1680  123.5010   59.6080 H   0  0  0  0  0  0  0  0  0  0  0  0
  124.3638  123.6340   57.4635 H   0  0  0  0  0  0  0  0  0  0  0  0
  124.5242  122.3908   55.0882 H   0  0  0  0  0  0  0  0  0  0  0  0
  1  2  1  0
  2  3  2  0
  3  4  1  0
  4  5  1  0
  5  6  1  0
  5  7  1  0
  5  8  1  0
  4  9  2  0
  9 10  1  0
 10 11  3  0
  9 12  1  0
 12 13  1  0
 13 14  1  0
 14 15  1  0
 15 16  2  0
 15 17  1  0
 17 18  1  0
 18 19  1  0
 19 20  2  0
 20 21  1  0
 21 22  1  0
 12 23  2  0
 23  2  1  0
 22 18  2  0
  1 24  1  0
  1 25  1  0
  1 26  1  0
  3 27  1  0
 14 28  1  0
 14 29  1  0
 17 30  1  0
 19 31  1  0
 20 32  1  0
M  END
>  <Binding energies>  (1) 
[-6.7]

>  <Ligand effiencies>  (1) 
[-0.2791666666666667]

>  <Interactions>  (1) 
["V-B:PRO:540:N:9855, H-B:ALA:541:N:9862, V-B:ALA:541:CB:9863, V-B:PRO:540:CA:9854, V-B:TYR:539:C:9838, V-A:LEU:475:CD2:4258, V-A:PRO:482:CG:4326, V-A:ILE:369:CD1:3238, V-A:SER:385:C:3404, V-B:TYR:539:CD2:9845, V-A:ILE:369:CG2:3236, V-A:SER:385:CA:3406, V-A:GLY:454:CA:4048, H-B:TYR:539:N:9841, V-A:PRO:482:CB:4325, V-B:PRO:540:CB:9856, V-B:PRO:540:CD:9858, V-B:TYR:531:CE2:9764, V-B:LEU:363:CD1:8159, V-B:ILE:538:CD1:9836, V-B:ILE:538:CG2:9834, V-B:ILE:538:CA:9831, V-A:ILE:369:CB:3235, V-A:ILE:369:CG1:3237"]

$$$$
2j_Grossjean_2025
     RDKit          3D

 32 33  0  0  0  0  0  0  0  0999 V2000
  129.1220  122.4310   66.1370 C   0  0  0  0  0  0  0  0  0  0  0  0
  129.1730  122.4120   64.6200 C   0  0  0  0  0  0  0  0  0  0  0  0
  130.3040  121.9750   63.9340 C   0  0  0  0  0  0  0  0  0  0  0  0
  130.3020  121.9730   62.5320 C   0  0  0  0  0  0  0  0  0  0  0  0
  131.5610  121.4850   61.7890 C   0  0  0  0  0  0  0  0  0  0  0  0
  132.5410  121.2460   62.6610 F   0  0  0  0  0  0  0  0  0  0  0  0
  131.2910  120.3620   61.1220 F   0  0  0  0  0  0  0  0  0  0  0  0
  132.0170  122.3760   60.9060 F   0  0  0  0  0  0  0  0  0  0  0  0
  129.1400  122.4210   61.8560 C   0  0  0  0  0  0  0  0  0  0  0  0
  129.0820  122.4410   60.3910 C   0  0  0  0  0  0  0  0  0  0  0  0
  129.0370  122.4550   59.2340 N   0  0  0  0  0  0  0  0  0  0  0  0
  128.0360  122.8490   62.6320 C   0  0  0  0  0  0  0  0  0  0  0  0
  126.5200  123.4320   61.8880 S   0  0  0  0  0  0  0  0  0  0  0  0
  126.9220  124.8250   60.7800 C   0  0  0  0  0  0  0  0  0  0  0  0
  126.4310  124.6630   59.3340 C   0  0  0  0  0  0  0  0  0  0  0  0
  125.9330  125.6140   58.7280 O   0  0  0  0  0  0  0  0  0  0  0  0
  126.5810  123.4220   58.8210 N   0  0  0  0  0  0  0  0  0  0  0  0
  126.2250  123.0020   57.5460 C   0  0  0  0  0  0  0  0  0  0  0  0
  126.9500  122.3120   56.6920 N   0  0  0  0  0  0  0  0  0  0  0  0
  126.2940  122.0860   55.5700 C   0  0  0  0  0  0  0  0  0  0  0  0
  125.0030  122.6010   55.4970 C   0  0  0  0  0  0  0  0  0  0  0  0
  124.6390  123.4240   56.9850 S   0  0  0  0  0  0  0  0  0  0  0  0
  128.0570  122.8410   63.9900 N   0  0  0  0  0  0  0  0  0  0  0  0
  130.0809  122.0738   66.5406 H   0  0  0  0  0  0  0  0  0  0  0  0
  128.9376  123.4581   66.4848 H   0  0  0  0  0  0  0  0  0  0  0  0
  128.3105  121.7749   66.4848 H   0  0  0  0  0  0  0  0  0  0  0  0
  131.1913  121.6343   64.4878 H   0  0  0  0  0  0  0  0  0  0  0  0
  126.4656  125.7353   61.1960 H   0  0  0  0  0  0  0  0  0  0  0  0
  128.0198  124.8725   60.7297 H   0  0  0  0  0  0  0  0  0  0  0  0
  126.9920  122.7170   59.4160 H   0  0  0  0  0  0  0  0  0  0  0  0
  126.7422  121.5221   54.7387 H   0  0  0  0  0  0  0  0  0  0  0  0
  124.3233  122.5033   54.6376 H   0  0  0  0  0  0  0  0  0  0  0  0
  1  2  1  0
  2  3  2  0
  3  4  1  0
  4  5  1  0
  5  6  1  0
  5  7  1  0
  5  8  1  0
  4  9  2  0
  9 10  1  0
 10 11  3  0
  9 12  1  0
 12 13  1  0
 13 14  1  0
 14 15  1  0
 15 16  2  0
 15 17  1  0
 17 18  1  0
 18 19  2  0
 19 20  1  0
 20 21  2  0
 21 22  1  0
 12 23  2  0
 23  2  1  0
 22 18  1  0
  1 24  1  0
  1 25  1  0
  1 26  1  0
  3 27  1  0
 14 28  1  0
 14 29  1  0
 17 30  1  0
 20 31  1  0
 21 32  1  0
M  END
>  <Binding energies>  (1) 
[-5.81]

>  <Ligand effiencies>  (1) 
[-0.24208333333333332]

>  <Interactions>  (1) 
["V-B:GLU:543:CD:9879, V-B:PRO:540:N:9855, H-B:ALA:541:N:9862, V-B:ALA:541:CB:9863, V-B:PRO:540:CA:9854, V-B:ALA:541:CA:9861, V-B:TYR:539:C:9838, V-A:LEU:475:CD2:4258, H-B:TYR:539:O:9839, V-B:TYR:539:CD2:9845, V-B:TYR:539:CE2:9847, H-B:TYR:539:N:9841, V-B:MET:535:CE:9806, V-B:GLU:543:CG:9878, V-A:LEU:475:CD1:4257, V-B:PRO:540:CB:9856, V-B:TYR:531:CZ:9765, V-B:PRO:540:CD:9858, V-B:TYR:531:CE2:9764, V-B:LEU:363:CD1:8159, V-B:ILE:538:CD1:9836, V-B:ILE:538:CG2:9834, V-B:GLU:543:CB:9877, V-B:ILE:538:CA:9831, V-B:ILE:538:C:9829, V-B:ILE:538:CB:9833, V-A:TYR:484:CZ:4346, V-A:TYR:484:CE2:4345, H-B:TYR:531:OH:9766, V-B:MET:535:CG:9804, V-B:GLU:543:CA:9875"]

$$$$
2k_Grossjean_2025
     RDKit          3D

 50 50  0  0  0  0  0  0  0  0999 V2000
  133.2800  124.1680   59.2040 C   0  0  0  0  0  0  0  0  0  0  0  0
  133.2650  124.6570   57.8720 O   0  0  0  0  0  0  0  0  0  0  0  0
  132.6830  125.9490   57.7490 C   0  0  0  0  0  0  0  0  0  0  0  0
  132.2080  126.1690   56.3070 C   0  0  0  0  0  0  0  0  0  0  0  0
  130.8940  126.7060   56.3300 O   0  0  0  0  0  0  0  0  0  0  0  0
  129.8760  125.7510   56.6070 C   0  0  0  0  0  0  0  0  0  0  0  0
  129.0800  126.2310   57.8280 C   0  0  0  0  0  0  0  0  0  0  0  0
  128.3100  125.1370   58.3020 O   0  0  0  0  0  0  0  0  0  0  0  0
  129.0580  124.0770   58.8780 C   0  0  0  0  0  0  0  0  0  0  0  0
  128.4390  122.7350   58.4440 C   0  0  0  0  0  0  0  0  0  0  0  0
  127.0250  122.8510   58.0760 N   0  0  0  0  0  0  0  0  0  0  0  0
  126.5060  122.5700   56.8650 C   0  0  0  0  0  0  0  0  0  0  0  0
  127.1770  122.1470   55.9210 O   0  0  0  0  0  0  0  0  0  0  0  0
  125.0010  122.8300   56.7090 C   0  0  0  0  0  0  0  0  0  0  0  0
  124.1640  123.4950   58.1900 S   0  0  0  0  0  0  0  0  0  0  0  0
  124.9400  125.0330   58.6700 C   0  0  0  0  0  0  0  0  0  0  0  0
  124.7620  126.0730   57.8160 N   0  0  0  0  0  0  0  0  0  0  0  0
  125.3250  127.2660   58.1130 C   0  0  0  0  0  0  0  0  0  0  0  0
  125.0910  128.3730   57.1040 C   0  0  0  0  0  0  0  0  0  0  0  0
  126.0710  127.4770   59.2690 C   0  0  0  0  0  0  0  0  0  0  0  0
  126.2610  126.4180   60.1700 C   0  0  0  0  0  0  0  0  0  0  0  0
  127.0850  126.6700   61.4470 C   0  0  0  0  0  0  0  0  0  0  0  0
  126.3800  126.4810   62.5630 F   0  0  0  0  0  0  0  0  0  0  0  0
  128.1300  125.8420   61.4880 F   0  0  0  0  0  0  0  0  0  0  0  0
  127.5300  127.9270   61.4620 F   0  0  0  0  0  0  0  0  0  0  0  0
  125.6830  125.1590   59.8670 C   0  0  0  0  0  0  0  0  0  0  0  0
  125.8520  124.0170   60.7710 C   0  0  0  0  0  0  0  0  0  0  0  0
  125.9850  123.1160   61.4860 N   0  0  0  0  0  0  0  0  0  0  0  0
  133.2540  125.0147   59.9057 H   0  0  0  0  0  0  0  0  0  0  0  0
  132.4011  123.5276   59.3694 H   0  0  0  0  0  0  0  0  0  0  0  0
  134.1965  123.5827   59.3694 H   0  0  0  0  0  0  0  0  0  0  0  0
  131.8250  126.0298   58.4326 H   0  0  0  0  0  0  0  0  0  0  0  0
  133.4334  126.7116   58.0049 H   0  0  0  0  0  0  0  0  0  0  0  0
  132.8848  126.8718   55.7990 H   0  0  0  0  0  0  0  0  0  0  0  0
  132.2088  125.2116   55.7653 H   0  0  0  0  0  0  0  0  0  0  0  0
  129.2061  125.6600   55.7393 H   0  0  0  0  0  0  0  0  0  0  0  0
  130.3257  124.7682   56.8118 H   0  0  0  0  0  0  0  0  0  0  0  0
  129.7700  126.5713   58.6142 H   0  0  0  0  0  0  0  0  0  0  0  0
  128.4252  127.0711   57.5534 H   0  0  0  0  0  0  0  0  0  0  0  0
  130.1010  124.1312   58.5328 H   0  0  0  0  0  0  0  0  0  0  0  0
  129.0368  124.1594   59.9747 H   0  0  0  0  0  0  0  0  0  0  0  0
  128.9976  122.3554   57.5757 H   0  0  0  0  0  0  0  0  0  0  0  0
  128.5013  122.0500   59.3024 H   0  0  0  0  0  0  0  0  0  0  0  0
  126.4020  123.1780   58.7990 H   0  0  0  0  0  0  0  0  0  0  0  0
  124.8642  123.5507   55.8893 H   0  0  0  0  0  0  0  0  0  0  0  0
  124.5421  121.8491   56.5159 H   0  0  0  0  0  0  0  0  0  0  0  0
  124.8917  129.3161   57.6340 H   0  0  0  0  0  0  0  0  0  0  0  0
  125.9845  128.4888   56.4729 H   0  0  0  0  0  0  0  0  0  0  0  0
  124.2271  128.1173   56.4729 H   0  0  0  0  0  0  0  0  0  0  0  0
  126.5079  128.4654   59.4746 H   0  0  0  0  0  0  0  0  0  0  0  0
  1  2  1  0
  2  3  1  0
  3  4  1  0
  4  5  1  0
  5  6  1  0
  6  7  1  0
  7  8  1  0
  8  9  1  0
  9 10  1  0
 10 11  1  0
 11 12  1  0
 12 13  2  0
 12 14  1  0
 14 15  1  0
 15 16  1  0
 16 17  2  0
 17 18  1  0
 18 19  1  0
 18 20  2  0
 20 21  1  0
 21 22  1  0
 22 23  1  0
 22 24  1  0
 22 25  1  0
 21 26  2  0
 26 27  1  0
 27 28  3  0
 26 16  1  0
  1 29  1  0
  1 30  1  0
  1 31  1  0
  3 32  1  0
  3 33  1  0
  4 34  1  0
  4 35  1  0
  6 36  1  0
  6 37  1  0
  7 38  1  0
  7 39  1  0
  9 40  1  0
  9 41  1  0
 10 42  1  0
 10 43  1  0
 11 44  1  0
 14 45  1  0
 14 46  1  0
 19 47  1  0
 19 48  1  0
 19 49  1  0
 20 50  1  0
M  END
>  <Binding energies>  (1) 
[-5.49]

>  <Ligand effiencies>  (1) 
[-0.1893103448275862]

>  <Interactions>  (1) 
["V-A:ASP:366:CG:3212, V-A:ASP:366:CB:3211, H-A:TYR:531:OH:4794, V-A:TYR:531:CZ:4793, V-B:GLU:543:CD:9879, V-B:PRO:540:N:9855, H-B:ALA:541:N:9862, V-B:PRO:540:CA:9854, V-B:TYR:539:C:9838, V-A:ILE:369:CD1:3238, V-B:TYR:539:CD2:9845, V-A:ILE:369:CG2:3236, V-B:TYR:539:CE2:9847, H-B:TYR:539:N:9841, V-B:TYR:539:CG:9843, V-B:MET:535:CE:9806, H-B:TYR:539:OH:9849, V-B:TYR:539:CZ:9848, V-B:PRO:540:CB:9856, V-B:TYR:531:CZ:9765, V-B:PRO:540:CD:9858, V-B:TYR:531:CE2:9764, V-B:LEU:363:CD1:8159, V-B:ASP:366:CB:8182, H-B:TYR:531:OH:9766, V-A:TYR:531:CE1:4791, V-B:ASP:366:CG:8183, V-B:TYR:531:CE1:9763, V-A:ILE:369:CB:3235, V-A:ASP:366:CA:3209, V-A:ASP:366:C:3207, V-A:ASN:370:CB:3244, V-A:ASN:370:CG:3245"]

$$$$
3aa_Grossjean_2025
     RDKit          3D

 52 54  0  0  0  0  0  0  0  0999 V2000
  133.2820  126.1360   67.7600 C   0  0  0  0  0  0  0  0  0  0  0  0
  132.9740  126.2840   66.2660 C   0  0  0  0  0  0  0  0  0  0  0  0
  133.7800  125.3780   65.5240 O   0  0  0  0  0  0  0  0  0  0  0  0
  133.5170  125.1170   64.2180 C   0  0  0  0  0  0  0  0  0  0  0  0
  134.3940  125.0130   63.3540 O   0  0  0  0  0  0  0  0  0  0  0  0
  132.0500  124.9840   63.9230 C   0  0  0  0  0  0  0  0  0  0  0  0
  131.2940  123.8980   64.3870 C   0  0  0  0  0  0  0  0  0  0  0  0
  129.9350  123.8080   64.0990 C   0  0  0  0  0  0  0  0  0  0  0  0
  129.3030  124.8020   63.3490 C   0  0  0  0  0  0  0  0  0  0  0  0
  127.9250  124.6160   63.1180 N   0  0  0  0  0  0  0  0  0  0  0  0
  127.1630  123.5150   63.2960 C   0  0  0  0  0  0  0  0  0  0  0  0
  127.5700  122.4210   63.6890 O   0  0  0  0  0  0  0  0  0  0  0  0
  125.6810  123.6770   62.9570 C   0  0  0  0  0  0  0  0  0  0  0  0
  125.4400  124.5570   61.3840 S   0  0  0  0  0  0  0  0  0  0  0  0
  126.4990  123.7790   60.1850 C   0  0  0  0  0  0  0  0  0  0  0  0
  127.7390  123.5010   60.6540 N   0  0  0  0  0  0  0  0  0  0  0  0
  128.6500  122.9070   59.8390 C   0  0  0  0  0  0  0  0  0  0  0  0
  129.9940  122.6190   60.4360 C   0  0  0  0  0  0  0  0  0  0  0  0
  130.2170  121.4360   61.1580 C   0  0  0  0  0  0  0  0  0  0  0  0
  131.4630  121.1610   61.7150 C   0  0  0  0  0  0  0  0  0  0  0  0
  132.5050  122.0680   61.5570 C   0  0  0  0  0  0  0  0  0  0  0  0
  132.3110  123.2460   60.8440 C   0  0  0  0  0  0  0  0  0  0  0  0
  131.0640  123.5170   60.2860 C   0  0  0  0  0  0  0  0  0  0  0  0
  128.3230  122.5700   58.5220 C   0  0  0  0  0  0  0  0  0  0  0  0
  127.0510  122.8640   58.0080 C   0  0  0  0  0  0  0  0  0  0  0  0
  126.7330  122.4870   56.5490 C   0  0  0  0  0  0  0  0  0  0  0  0
  127.7690  121.9260   55.9220 F   0  0  0  0  0  0  0  0  0  0  0  0
  125.7240  121.6170   56.5070 F   0  0  0  0  0  0  0  0  0  0  0  0
  126.3910  123.5780   55.8620 F   0  0  0  0  0  0  0  0  0  0  0  0
  126.1100  123.4980   58.8560 C   0  0  0  0  0  0  0  0  0  0  0  0
  124.7860  123.8800   58.3570 C   0  0  0  0  0  0  0  0  0  0  0  0
  123.7410  124.1830   57.9620 N   0  0  0  0  0  0  0  0  0  0  0  0
  130.0560  125.8840   62.8700 C   0  0  0  0  0  0  0  0  0  0  0  0
  131.4140  125.9710   63.1570 C   0  0  0  0  0  0  0  0  0  0  0  0
  132.4444  126.5385   68.3487 H   0  0  0  0  0  0  0  0  0  0  0  0
  133.4223  125.0721   68.0018 H   0  0  0  0  0  0  0  0  0  0  0  0
  134.2003  126.6912   68.0018 H   0  0  0  0  0  0  0  0  0  0  0  0
  131.9118  126.0612   66.0868 H   0  0  0  0  0  0  0  0  0  0  0  0
  133.1915  127.3140   65.9471 H   0  0  0  0  0  0  0  0  0  0  0  0
  131.7787  123.1109   64.9833 H   0  0  0  0  0  0  0  0  0  0  0  0
  129.3550  122.9479   64.4648 H   0  0  0  0  0  0  0  0  0  0  0  0
  127.4610  125.4190   62.7180 H   0  0  0  0  0  0  0  0  0  0  0  0
  125.2221  122.6802   62.8812 H   0  0  0  0  0  0  0  0  0  0  0  0
  125.2105  124.2693   63.7556 H   0  0  0  0  0  0  0  0  0  0  0  0
  129.3954  120.7158   61.2855 H   0  0  0  0  0  0  0  0  0  0  0  0
  131.6225  120.2296   62.2780 H   0  0  0  0  0  0  0  0  0  0  0  0
  133.4890  121.8523   61.9988 H   0  0  0  0  0  0  0  0  0  0  0  0
  133.1384  123.9604   60.7213 H   0  0  0  0  0  0  0  0  0  0  0  0
  130.9147  124.4480   59.7194 H   0  0  0  0  0  0  0  0  0  0  0  0
  129.0679  122.0711   57.8847 H   0  0  0  0  0  0  0  0  0  0  0  0
  129.5715  126.6654   62.2661 H   0  0  0  0  0  0  0  0  0  0  0  0
  131.9959  126.8243   62.7785 H   0  0  0  0  0  0  0  0  0  0  0  0
  1  2  1  0
  2  3  1  0
  3  4  1  0
  4  5  2  0
  4  6  1  0
  6  7  2  0
  7  8  1  0
  8  9  2  0
  9 10  1  0
 10 11  1  0
 11 12  2  0
 11 13  1  0
 13 14  1  0
 14 15  1  0
 15 16  2  0
 16 17  1  0
 17 18  1  0
 18 19  2  0
 19 20  1  0
 20 21  2  0
 21 22  1  0
 22 23  2  0
 17 24  2  0
 24 25  1  0
 25 26  1  0
 26 27  1  0
 26 28  1  0
 26 29  1  0
 25 30  2  0
 30 31  1  0
 31 32  3  0
  9 33  1  0
 33 34  2  0
 34  6  1  0
 30 15  1  0
 23 18  1  0
  1 35  1  0
  1 36  1  0
  1 37  1  0
  2 38  1  0
  2 39  1  0
  7 40  1  0
  8 41  1  0
 10 42  1  0
 13 43  1  0
 13 44  1  0
 19 45  1  0
 20 46  1  0
 21 47  1  0
 22 48  1  0
 23 49  1  0
 24 50  1  0
 33 51  1  0
 34 52  1  0
M  END
>  <Binding energies>  (1) 
[-8.32]

>  <Ligand effiencies>  (1) 
[-0.2377142857142857]

>  <Interactions>  (1) 
["V-B:GLU:543:CD:9879, V-B:PRO:540:N:9855, H-B:ALA:541:N:9862, H-A:TYR:484:OH:4347, V-B:PRO:540:CA:9854, H-B:GLU:543:OE2:9881, H-B:GLU:543:OE1:9880, V-B:TYR:539:C:9838, V-A:LEU:475:CD2:4258, V-B:TYR:539:CD2:9845, V-B:TYR:539:CE2:9847, V-A:GLY:454:CA:4048, V-B:TYR:539:CG:9843, V-B:MET:535:CE:9806, V-B:TYR:539:CZ:9848, V-B:GLU:543:CG:9878, V-B:ALA:541:C:9859, V-B:PRO:540:CB:9856, H-A:GLY:454:N:4049, V-B:TYR:539:CA:9840, V-A:ARG:545:CD:4922, V-B:TYR:539:CD1:9844, V-B:TYR:531:CZ:9765, V-B:PRO:540:CD:9858, V-B:TYR:531:CE2:9764, V-B:LEU:363:CD1:8159, V-A:ARG:545:CZ:4925, V-A:ARG:545:CG:4921, V-A:HIS:456:CE1:4069, V-B:ILE:538:CG2:9834, V-A:HIS:456:CD2:4067, H-A:ARG:545:NH1:4926, H-B:ARG:545:NH2:9899, V-B:ILE:538:CA:9831, V-B:TYR:539:CE1:9846, V-B:ILE:538:C:9829, H-A:ARG:545:NE:4923, V-A:TYR:484:CZ:4346, V-B:MET:535:CG:9804, V-B:PRO:540:CG:9857"]

$$$$
3ab_Grossjean_2025
     RDKit          3D

 49 51  0  0  0  0  0  0  0  0999 V2000
  125.8110  122.2600   55.1420 C   0  0  0  0  0  0  0  0  0  0  0  0
  126.4930  122.2210   56.3890 O   0  0  0  0  0  0  0  0  0  0  0  0
  126.5020  123.2990   57.2140 C   0  0  0  0  0  0  0  0  0  0  0  0
  125.5220  124.0280   57.3920 O   0  0  0  0  0  0  0  0  0  0  0  0
  127.8240  123.5160   57.8920 C   0  0  0  0  0  0  0  0  0  0  0  0
  128.7410  124.4780   57.4420 C   0  0  0  0  0  0  0  0  0  0  0  0
  129.9590  124.6570   58.0920 C   0  0  0  0  0  0  0  0  0  0  0  0
  130.2830  123.8720   59.2090 C   0  0  0  0  0  0  0  0  0  0  0  0
  131.4800  123.9710   59.9450 N   0  0  0  0  0  0  0  0  0  0  0  0
  132.7420  124.1910   59.5200 C   0  0  0  0  0  0  0  0  0  0  0  0
  133.0870  124.3380   58.3480 O   0  0  0  0  0  0  0  0  0  0  0  0
  133.8030  124.2530   60.6210 C   0  0  0  0  0  0  0  0  0  0  0  0
  133.0990  124.7510   62.2220 S   0  0  0  0  0  0  0  0  0  0  0  0
  132.0020  123.4520   62.7510 C   0  0  0  0  0  0  0  0  0  0  0  0
  132.1300  122.3100   62.0340 N   0  0  0  0  0  0  0  0  0  0  0  0
  131.3580  121.2340   62.3330 C   0  0  0  0  0  0  0  0  0  0  0  0
  131.5630  120.0070   61.4940 C   0  0  0  0  0  0  0  0  0  0  0  0
  130.6070  118.9790   61.4790 C   0  0  0  0  0  0  0  0  0  0  0  0
  130.7910  117.8390   60.7010 C   0  0  0  0  0  0  0  0  0  0  0  0
  131.9400  117.7110   59.9260 C   0  0  0  0  0  0  0  0  0  0  0  0
  132.9040  118.7120   59.9260 C   0  0  0  0  0  0  0  0  0  0  0  0
  132.7160  119.8500   60.7050 C   0  0  0  0  0  0  0  0  0  0  0  0
  130.4120  121.2950   63.3630 C   0  0  0  0  0  0  0  0  0  0  0  0
  130.2470  122.4730   64.1070 C   0  0  0  0  0  0  0  0  0  0  0  0
  129.1910  122.5010   65.2280 C   0  0  0  0  0  0  0  0  0  0  0  0
  127.9720  122.8160   64.7830 F   0  0  0  0  0  0  0  0  0  0  0  0
  129.1050  121.3030   65.8100 F   0  0  0  0  0  0  0  0  0  0  0  0
  129.5290  123.4050   66.1490 F   0  0  0  0  0  0  0  0  0  0  0  0
  131.0580  123.5920   63.7920 C   0  0  0  0  0  0  0  0  0  0  0  0
  130.8870  124.8630   64.5000 C   0  0  0  0  0  0  0  0  0  0  0  0
  130.7500  125.8660   65.0610 N   0  0  0  0  0  0  0  0  0  0  0  0
  129.3710  122.9190   59.6630 C   0  0  0  0  0  0  0  0  0  0  0  0
  128.1540  122.7400   59.0110 C   0  0  0  0  0  0  0  0  0  0  0  0
  124.7271  122.3220   55.3187 H   0  0  0  0  0  0  0  0  0  0  0  0
  126.1404  123.1408   54.5713 H   0  0  0  0  0  0  0  0  0  0  0  0
  126.0379  121.3474   54.5713 H   0  0  0  0  0  0  0  0  0  0  0  0
  128.4950  125.0971   56.5667 H   0  0  0  0  0  0  0  0  0  0  0  0
  130.6687  125.4152   57.7293 H   0  0  0  0  0  0  0  0  0  0  0  0
  131.3650  123.8200   60.9360 H   0  0  0  0  0  0  0  0  0  0  0  0
  134.2609  123.2587   60.7288 H   0  0  0  0  0  0  0  0  0  0  0  0
  134.5495  125.0067   60.3300 H   0  0  0  0  0  0  0  0  0  0  0  0
  129.6984  119.0757   62.0914 H   0  0  0  0  0  0  0  0  0  0  0  0
  130.0317  117.0431   60.6989 H   0  0  0  0  0  0  0  0  0  0  0  0
  132.0860  116.8117   59.3095 H   0  0  0  0  0  0  0  0  0  0  0  0
  133.8113  118.6054   59.3133 H   0  0  0  0  0  0  0  0  0  0  0  0
  133.4820  120.6394   60.7033 H   0  0  0  0  0  0  0  0  0  0  0  0
  129.7941  120.4138   63.5905 H   0  0  0  0  0  0  0  0  0  0  0  0
  129.6151  122.3047   60.5422 H   0  0  0  0  0  0  0  0  0  0  0  0
  127.4453  121.9828   59.3775 H   0  0  0  0  0  0  0  0  0  0  0  0
  1  2  1  0
  2  3  1  0
  3  4  2  0
  3  5  1  0
  5  6  2  0
  6  7  1  0
  7  8  2  0
  8  9  1  0
  9 10  1  0
 10 11  2  0
 10 12  1  0
 12 13  1  0
 13 14  1  0
 14 15  2  0
 15 16  1  0
 16 17  1  0
 17 18  2  0
 18 19  1  0
 19 20  2  0
 20 21  1  0
 21 22  2  0
 16 23  2  0
 23 24  1  0
 24 25  1  0
 25 26  1  0
 25 27  1  0
 25 28  1  0
 24 29  2  0
 29 30  1  0
 30 31  3  0
  8 32  1  0
 32 33  2  0
 33  5  1  0
 29 14  1  0
 22 17  1  0
  1 34  1  0
  1 35  1  0
  1 36  1  0
  6 37  1  0
  7 38  1  0
  9 39  1  0
 12 40  1  0
 12 41  1  0
 18 42  1  0
 19 43  1  0
 20 44  1  0
 21 45  1  0
 22 46  1  0
 23 47  1  0
 32 48  1  0
 33 49  1  0
M  END
>  <Binding energies>  (1) 
[-8.41]

>  <Ligand effiencies>  (1) 
[-0.24735294117647058]

>  <Interactions>  (1) 
["V-A:ASP:366:CG:3212, V-A:ASP:366:CB:3211, V-B:GLU:543:CD:9879, V-B:PRO:540:N:9855, V-B:ALA:541:CB:9863, V-B:PRO:540:CA:9854, V-B:ALA:541:CA:9861, V-B:TYR:539:C:9838, V-A:LEU:475:CD2:4258, V-A:HIS:383:CE1:3393, V-A:ILE:369:CD1:3238, V-B:TYR:539:CD2:9845, V-A:ILE:369:CG2:3236, V-B:TYR:539:CE2:9847, V-B:TYR:539:CB:9842, V-A:SER:385:CA:3406, H-B:TYR:539:N:9841, V-B:MET:535:CE:9806, H-B:TYR:539:OH:9849, V-B:TYR:539:CZ:9848, V-B:GLU:543:CG:9878, V-A:LEU:475:CD1:4257, V-B:ALA:541:C:9859, V-B:TYR:531:CE2:9764, V-B:ILE:538:CD1:9836, V-B:ILE:538:CG2:9834, V-B:GLU:543:CB:9877, V-B:ILE:538:CA:9831, V-B:ILE:538:C:9829, V-B:ILE:538:CB:9833, V-A:TYR:484:CZ:4346, V-A:TYR:484:CE2:4345, H-B:TYR:531:OH:9766, V-B:MET:535:CG:9804, V-A:LEU:475:CG:4256"]

$$$$
3ac_Grossjean_2025
     RDKit          3D

 47 49  0  0  0  0  0  0  0  0999 V2000
  126.3120  122.0210   54.9790 C   0  0  0  0  0  0  0  0  0  0  0  0
  125.7180  123.1190   55.6640 O   0  0  0  0  0  0  0  0  0  0  0  0
  126.0330  123.3370   56.9910 C   0  0  0  0  0  0  0  0  0  0  0  0
  127.2910  122.9080   57.4110 C   0  0  0  0  0  0  0  0  0  0  0  0
  127.6990  123.0880   58.7290 C   0  0  0  0  0  0  0  0  0  0  0  0
  126.8460  123.6950   59.6530 C   0  0  0  0  0  0  0  0  0  0  0  0
  127.3530  123.8520   60.9560 N   0  0  0  0  0  0  0  0  0  0  0  0
  126.8040  123.4840   62.1340 C   0  0  0  0  0  0  0  0  0  0  0  0
  125.7360  122.8830   62.2640 O   0  0  0  0  0  0  0  0  0  0  0  0
  127.6050  123.8580   63.3810 C   0  0  0  0  0  0  0  0  0  0  0  0
  128.4900  122.4330   64.0840 S   0  0  0  0  0  0  0  0  0  0  0  0
  130.1420  122.3980   63.4150 C   0  0  0  0  0  0  0  0  0  0  0  0
  130.3760  121.3210   62.6270 N   0  0  0  0  0  0  0  0  0  0  0  0
  131.5910  121.1620   62.0410 C   0  0  0  0  0  0  0  0  0  0  0  0
  131.7690  119.9400   61.1910 C   0  0  0  0  0  0  0  0  0  0  0  0
  130.7960  118.9270   61.1750 C   0  0  0  0  0  0  0  0  0  0  0  0
  130.9530  117.7930   60.3830 C   0  0  0  0  0  0  0  0  0  0  0  0
  132.0910  117.6550   59.5950 C   0  0  0  0  0  0  0  0  0  0  0  0
  133.0720  118.6400   59.5950 C   0  0  0  0  0  0  0  0  0  0  0  0
  132.9110  119.7730   60.3890 C   0  0  0  0  0  0  0  0  0  0  0  0
  132.6150  122.0890   62.2540 C   0  0  0  0  0  0  0  0  0  0  0  0
  132.4070  123.2010   63.0830 C   0  0  0  0  0  0  0  0  0  0  0  0
  133.5650  124.1950   63.2950 C   0  0  0  0  0  0  0  0  0  0  0  0
  133.4400  125.3010   62.5590 F   0  0  0  0  0  0  0  0  0  0  0  0
  133.6210  124.5740   64.5730 F   0  0  0  0  0  0  0  0  0  0  0  0
  134.7220  123.6190   62.9650 F   0  0  0  0  0  0  0  0  0  0  0  0
  131.1390  123.3600   63.6980 C   0  0  0  0  0  0  0  0  0  0  0  0
  130.8990  124.4620   64.6320 C   0  0  0  0  0  0  0  0  0  0  0  0
  130.7100  125.3330   65.3710 N   0  0  0  0  0  0  0  0  0  0  0  0
  125.5800  124.1360   59.2370 C   0  0  0  0  0  0  0  0  0  0  0  0
  125.1760  123.9550   57.9170 C   0  0  0  0  0  0  0  0  0  0  0  0
  126.7023  121.2995   55.7118 H   0  0  0  0  0  0  0  0  0  0  0  0
  125.5563  121.5303   54.3480 H   0  0  0  0  0  0  0  0  0  0  0  0
  127.1362  122.3850   54.3480 H   0  0  0  0  0  0  0  0  0  0  0  0
  127.9682  122.4222   56.6931 H   0  0  0  0  0  0  0  0  0  0  0  0
  128.6974  122.7508   59.0443 H   0  0  0  0  0  0  0  0  0  0  0  0
  128.2780  124.2540   60.9990 H   0  0  0  0  0  0  0  0  0  0  0  0
  128.3383  124.6324   63.1116 H   0  0  0  0  0  0  0  0  0  0  0  0
  126.8969  124.2228   64.1397 H   0  0  0  0  0  0  0  0  0  0  0  0
  129.8956  119.0315   61.7982 H   0  0  0  0  0  0  0  0  0  0  0  0
  130.1807  117.0097   60.3803 H   0  0  0  0  0  0  0  0  0  0  0  0
  132.2155  116.7602   58.9675 H   0  0  0  0  0  0  0  0  0  0  0  0
  133.9707  118.5252   58.9712 H   0  0  0  0  0  0  0  0  0  0  0  0
  133.6901  120.5495   60.3883 H   0  0  0  0  0  0  0  0  0  0  0  0
  133.5913  121.9454   61.7679 H   0  0  0  0  0  0  0  0  0  0  0  0
  124.9058  124.6255   59.9552 H   0  0  0  0  0  0  0  0  0  0  0  0
  124.1807  124.2976   57.5975 H   0  0  0  0  0  0  0  0  0  0  0  0
  1  2  1  0
  2  3  1  0
  3  4  2  0
  4  5  1  0
  5  6  2  0
  6  7  1  0
  7  8  1  0
  8  9  2  0
  8 10  1  0
 10 11  1  0
 11 12  1  0
 12 13  2  0
 13 14  1  0
 14 15  1  0
 15 16  2  0
 16 17  1  0
 17 18  2  0
 18 19  1  0
 19 20  2  0
 14 21  2  0
 21 22  1  0
 22 23  1  0
 23 24  1  0
 23 25  1  0
 23 26  1  0
 22 27  2  0
 27 28  1  0
 28 29  3  0
  6 30  1  0
 30 31  2  0
 31  3  1  0
 27 12  1  0
 20 15  1  0
  1 32  1  0
  1 33  1  0
  1 34  1  0
  4 35  1  0
  5 36  1  0
  7 37  1  0
 10 38  1  0
 10 39  1  0
 16 40  1  0
 17 41  1  0
 18 42  1  0
 19 43  1  0
 20 44  1  0
 21 45  1  0
 30 46  1  0
 31 47  1  0
M  END
>  <Binding energies>  (1) 
[-8.97]

>  <Ligand effiencies>  (1) 
[-0.2803125]

>  <Interactions>  (1) 
["V-A:ASP:366:CG:3212, V-B:GLU:543:CD:9879, V-B:PRO:540:N:9855, H-B:ALA:541:N:9862, H-A:TYR:484:OH:4347, V-B:ALA:541:CB:9863, V-B:PRO:540:CA:9854, V-B:TYR:539:C:9838, V-A:LEU:475:CD2:4258, V-A:HIS:383:CE1:3393, V-A:ILE:369:CD1:3238, V-B:TYR:539:CD2:9845, V-A:ILE:369:CG2:3236, V-B:TYR:539:CE2:9847, V-B:TYR:539:CB:9842, V-A:SER:385:CA:3406, V-A:GLY:454:CA:4048, V-B:MET:535:CE:9806, V-B:GLU:543:CG:9878, V-B:PRO:540:CB:9856, V-A:GLY:453:C:4041, V-A:ARG:545:CZ:4925, V-B:ILE:538:CD1:9836, V-B:ILE:538:CG2:9834, V-B:ILE:538:CA:9831, V-A:GLY:453:CA:4043, V-B:ILE:538:C:9829, V-B:ILE:538:CB:9833, V-A:LEU:373:CD2:3280, H-B:TYR:531:OH:9766, V-B:MET:535:CG:9804, V-B:VAL:537:C:9821"]

$$$$
3ad_Grossjean_2025
     RDKit          3D

 43 45  0  0  0  0  0  0  0  0999 V2000
  130.8180  125.6460   64.6340 N   0  0  0  0  0  0  0  0  0  0  0  0
  130.9310  124.6280   64.0960 C   0  0  0  0  0  0  0  0  0  0  0  0
  131.0780  123.3380   63.4140 C   0  0  0  0  0  0  0  0  0  0  0  0
  132.3100  122.9700   62.8210 C   0  0  0  0  0  0  0  0  0  0  0  0
  133.5660  123.8590   62.8890 C   0  0  0  0  0  0  0  0  0  0  0  0
  133.5760  124.8140   61.9570 F   0  0  0  0  0  0  0  0  0  0  0  0
  133.6350  124.4580   64.0800 F   0  0  0  0  0  0  0  0  0  0  0  0
  134.6620  123.1190   62.7140 F   0  0  0  0  0  0  0  0  0  0  0  0
  132.3850  121.7450   62.1400 C   0  0  0  0  0  0  0  0  0  0  0  0
  131.2630  120.9150   62.0510 C   0  0  0  0  0  0  0  0  0  0  0  0
  131.2830  119.6040   61.3220 C   0  0  0  0  0  0  0  0  0  0  0  0
  130.2570  118.6640   61.5080 C   0  0  0  0  0  0  0  0  0  0  0  0
  130.2700  117.4460   60.8340 C   0  0  0  0  0  0  0  0  0  0  0  0
  131.3130  117.1500   59.9620 C   0  0  0  0  0  0  0  0  0  0  0  0
  132.3400  118.0650   59.7590 C   0  0  0  0  0  0  0  0  0  0  0  0
  132.3230  119.2830   60.4340 C   0  0  0  0  0  0  0  0  0  0  0  0
  130.0830  121.2760   62.6160 N   0  0  0  0  0  0  0  0  0  0  0  0
  129.9920  122.4430   63.2960 C   0  0  0  0  0  0  0  0  0  0  0  0
  128.3770  122.7460   63.9790 S   0  0  0  0  0  0  0  0  0  0  0  0
  127.6120  124.0650   62.9900 C   0  0  0  0  0  0  0  0  0  0  0  0
  126.9160  123.5210   61.7400 C   0  0  0  0  0  0  0  0  0  0  0  0
  125.8120  122.9880   61.8540 O   0  0  0  0  0  0  0  0  0  0  0  0
  127.5960  123.6760   60.5840 N   0  0  0  0  0  0  0  0  0  0  0  0
  127.2420  123.3070   59.2740 C   0  0  0  0  0  0  0  0  0  0  0  0
  125.9140  123.5570   58.9120 C   0  0  0  0  0  0  0  0  0  0  0  0
  125.4580  123.2260   57.6390 C   0  0  0  0  0  0  0  0  0  0  0  0
  126.3280  122.6390   56.7250 C   0  0  0  0  0  0  0  0  0  0  0  0
  127.6500  122.3770   57.0740 C   0  0  0  0  0  0  0  0  0  0  0  0
  128.1110  122.7070   58.3460 C   0  0  0  0  0  0  0  0  0  0  0  0
  133.3320  121.4359   61.6735 H   0  0  0  0  0  0  0  0  0  0  0  0
  129.4304  118.8933   62.1966 H   0  0  0  0  0  0  0  0  0  0  0  0
  129.4585  116.7201   60.9903 H   0  0  0  0  0  0  0  0  0  0  0  0
  131.3251  116.1870   59.4304 H   0  0  0  0  0  0  0  0  0  0  0  0
  133.1625  117.8278   59.0681 H   0  0  0  0  0  0  0  0  0  0  0  0
  133.1365  120.0048   60.2692 H   0  0  0  0  0  0  0  0  0  0  0  0
  126.8687  124.5871   63.6104 H   0  0  0  0  0  0  0  0  0  0  0  0
  128.4101  124.7472   62.6621 H   0  0  0  0  0  0  0  0  0  0  0  0
  128.5160  124.0860   60.6620 H   0  0  0  0  0  0  0  0  0  0  0  0
  125.2266  124.0175   59.6369 H   0  0  0  0  0  0  0  0  0  0  0  0
  124.4141  123.4276   57.3567 H   0  0  0  0  0  0  0  0  0  0  0  0
  125.9681  122.3799   55.7184 H   0  0  0  0  0  0  0  0  0  0  0  0
  128.3296  121.9099   56.3460 H   0  0  0  0  0  0  0  0  0  0  0  0
  129.1545  122.4983   58.6244 H   0  0  0  0  0  0  0  0  0  0  0  0
  1  2  3  0
  2  3  1  0
  3  4  2  0
  4  5  1  0
  5  6  1  0
  5  7  1  0
  5  8  1  0
  4  9  1  0
  9 10  2  0
 10 11  1  0
 11 12  2  0
 12 13  1  0
 13 14  2  0
 14 15  1  0
 15 16  2  0
 10 17  1  0
 17 18  2  0
 18 19  1  0
 19 20  1  0
 20 21  1  0
 21 22  2  0
 21 23  1  0
 23 24  1  0
 24 25  2  0
 25 26  1  0
 26 27  2  0
 27 28  1  0
 28 29  2  0
 18  3  1  0
 29 24  1  0
 16 11  1  0
  9 30  1  0
 12 31  1  0
 13 32  1  0
 14 33  1  0
 15 34  1  0
 16 35  1  0
 20 36  1  0
 20 37  1  0
 23 38  1  0
 25 39  1  0
 26 40  1  0
 27 41  1  0
 28 42  1  0
 29 43  1  0
M  END
>  <Binding energies>  (1) 
[-8.51]

>  <Ligand effiencies>  (1) 
[-0.2836666666666667]

>  <Interactions>  (1) 
["V-A:ASP:366:CG:3212, V-B:GLU:543:CD:9879, V-B:PRO:540:N:9855, H-B:ALA:541:N:9862, V-B:ALA:541:CB:9863, V-B:PRO:540:CA:9854, V-B:TYR:539:C:9838, V-A:LEU:475:CD2:4258, V-A:PRO:482:CG:4326, V-A:HIS:383:CE1:3393, V-A:ILE:369:CD1:3238, V-B:TYR:539:CD2:9845, V-B:TYR:539:CE2:9847, V-B:TYR:539:CB:9842, V-A:GLY:454:CA:4048, V-B:TYR:539:CG:9843, V-B:MET:535:CE:9806, V-B:TYR:539:CZ:9848, V-A:PRO:482:CB:4325, V-B:GLU:543:CG:9878, V-B:PRO:540:CB:9856, V-B:TYR:539:CA:9840, V-A:GLY:453:C:4041, V-B:TYR:539:CD1:9844, V-B:PRO:540:CD:9858, V-B:TYR:539:CE1:9846"]

$$$$
3af_Grossjean_2025
     RDKit          3D

 42 44  0  0  0  0  0  0  0  0999 V2000
  130.6230  125.6530   64.4640 N   0  0  0  0  0  0  0  0  0  0  0  0
  130.7750  124.6270   63.9520 C   0  0  0  0  0  0  0  0  0  0  0  0
  130.9700  123.3280   63.3030 C   0  0  0  0  0  0  0  0  0  0  0  0
  132.2600  122.9100   62.8960 C   0  0  0  0  0  0  0  0  0  0  0  0
  133.5260  123.7530   63.1470 C   0  0  0  0  0  0  0  0  0  0  0  0
  133.5930  124.2290   64.3930 F   0  0  0  0  0  0  0  0  0  0  0  0
  134.6150  123.0110   62.9420 F   0  0  0  0  0  0  0  0  0  0  0  0
  133.5520  124.7980   62.3200 F   0  0  0  0  0  0  0  0  0  0  0  0
  132.3890  121.6820   62.2290 C   0  0  0  0  0  0  0  0  0  0  0  0
  131.2610  120.8940   61.9750 C   0  0  0  0  0  0  0  0  0  0  0  0
  131.3390  119.5840   61.2500 C   0  0  0  0  0  0  0  0  0  0  0  0
  130.3400  118.6110   61.4180 C   0  0  0  0  0  0  0  0  0  0  0  0
  130.4050  117.3930   60.7460 C   0  0  0  0  0  0  0  0  0  0  0  0
  131.4730  117.1320   59.8950 C   0  0  0  0  0  0  0  0  0  0  0  0
  132.4740  118.0790   59.7080 C   0  0  0  0  0  0  0  0  0  0  0  0
  132.4050  119.2960   60.3820 C   0  0  0  0  0  0  0  0  0  0  0  0
  130.0260  121.3000   62.3630 N   0  0  0  0  0  0  0  0  0  0  0  0
  129.8790  122.4720   63.0290 C   0  0  0  0  0  0  0  0  0  0  0  0
  128.1900  122.8260   63.4690 S   0  0  0  0  0  0  0  0  0  0  0  0
  127.5780  124.1230   62.3510 C   0  0  0  0  0  0  0  0  0  0  0  0
  126.7320  123.5440   61.2170 C   0  0  0  0  0  0  0  0  0  0  0  0
  125.6670  122.9900   61.4880 O   0  0  0  0  0  0  0  0  0  0  0  0
  127.2480  123.6900   59.9780 N   0  0  0  0  0  0  0  0  0  0  0  0
  126.7330  123.2700   58.7360 C   0  0  0  0  0  0  0  0  0  0  0  0
  125.4390  123.5340   58.2510 C   0  0  0  0  0  0  0  0  0  0  0  0
  125.0590  123.0520   56.9960 C   0  0  0  0  0  0  0  0  0  0  0  0
  125.9840  122.3150   56.2550 C   0  0  0  0  0  0  0  0  0  0  0  0
  127.2370  122.0470   56.7000 N   0  0  0  0  0  0  0  0  0  0  0  0
  127.5910  122.5230   57.9210 C   0  0  0  0  0  0  0  0  0  0  0  0
  133.3818  121.3372   61.9043 H   0  0  0  0  0  0  0  0  0  0  0  0
  129.4936  118.8142   62.0905 H   0  0  0  0  0  0  0  0  0  0  0  0
  129.6150  116.6409   60.8879 H   0  0  0  0  0  0  0  0  0  0  0  0
  131.5266  116.1692   59.3657 H   0  0  0  0  0  0  0  0  0  0  0  0
  133.3155  117.8682   59.0317 H   0  0  0  0  0  0  0  0  0  0  0  0
  133.1980  120.0434   60.2321 H   0  0  0  0  0  0  0  0  0  0  0  0
  126.9636  124.8296   62.9283 H   0  0  0  0  0  0  0  0  0  0  0  0
  128.4478  124.6274   61.9048 H   0  0  0  0  0  0  0  0  0  0  0  0
  128.1290  124.1770   59.9170 H   0  0  0  0  0  0  0  0  0  0  0  0
  124.7299  124.1171   58.8570 H   0  0  0  0  0  0  0  0  0  0  0  0
  124.0518  123.2492   56.6002 H   0  0  0  0  0  0  0  0  0  0  0  0
  125.6839  121.9350   55.2673 H   0  0  0  0  0  0  0  0  0  0  0  0
  128.6055  122.3104   58.2891 H   0  0  0  0  0  0  0  0  0  0  0  0
  1  2  3  0
  2  3  1  0
  3  4  2  0
  4  5  1  0
  5  6  1  0
  5  7  1  0
  5  8  1  0
  4  9  1  0
  9 10  2  0
 10 11  1  0
 11 12  2  0
 12 13  1  0
 13 14  2  0
 14 15  1  0
 15 16  2  0
 10 17  1  0
 17 18  2  0
 18 19  1  0
 19 20  1  0
 20 21  1  0
 21 22  2  0
 21 23  1  0
 23 24  1  0
 24 25  2  0
 25 26  1  0
 26 27  2  0
 27 28  1  0
 28 29  2  0
 18  3  1  0
 29 24  1  0
 16 11  1  0
  9 30  1  0
 12 31  1  0
 13 32  1  0
 14 33  1  0
 15 34  1  0
 16 35  1  0
 20 36  1  0
 20 37  1  0
 23 38  1  0
 25 39  1  0
 26 40  1  0
 27 41  1  0
 29 42  1  0
M  END
>  <Binding energies>  (1) 
[-8.75]

>  <Ligand effiencies>  (1) 
[-0.2916666666666667]

>  <Interactions>  (1) 
["V-A:ASP:366:CG:3212, V-B:GLU:543:CD:9879, V-B:PRO:540:N:9855, H-B:ALA:541:N:9862, V-B:ALA:541:CB:9863, V-B:PRO:540:CA:9854, V-B:TYR:539:C:9838, V-A:LEU:475:CD2:4258, V-A:PRO:482:CG:4326, V-A:HIS:383:CE1:3393, V-A:ILE:369:CD1:3238, V-B:TYR:539:CD2:9845, V-B:TYR:539:CE2:9847, V-B:TYR:539:CB:9842, V-A:GLY:454:CA:4048, H-B:TYR:539:N:9841, V-B:TYR:539:CG:9843, V-B:MET:535:CE:9806, V-A:PRO:482:CB:4325, V-B:PRO:540:CB:9856, V-A:GLY:453:C:4041, V-B:PRO:540:CD:9858, V-B:TYR:531:CE2:9764, V-B:LEU:363:CD1:8159, V-B:ILE:538:CA:9831"]

$$$$
3ag_Grossjean_2025
     RDKit          3D

 46 48  0  0  0  0  0  0  0  0999 V2000
  131.4060  125.7330   64.4860 N   0  0  0  0  0  0  0  0  0  0  0  0
  131.4550  124.7010   63.9630 C   0  0  0  0  0  0  0  0  0  0  0  0
  131.5210  123.3950   63.3010 C   0  0  0  0  0  0  0  0  0  0  0  0
  132.7140  122.9610   62.6740 C   0  0  0  0  0  0  0  0  0  0  0  0
  134.0140  123.7880   62.6970 C   0  0  0  0  0  0  0  0  0  0  0  0
  135.1090  123.0290   62.7720 F   0  0  0  0  0  0  0  0  0  0  0  0
  134.1070  124.5180   61.5850 F   0  0  0  0  0  0  0  0  0  0  0  0
  134.0220  124.6030   63.7520 F   0  0  0  0  0  0  0  0  0  0  0  0
  132.7110  121.7260   62.0070 C   0  0  0  0  0  0  0  0  0  0  0  0
  131.5460  120.9530   61.9560 C   0  0  0  0  0  0  0  0  0  0  0  0
  131.4850  119.6300   61.2560 C   0  0  0  0  0  0  0  0  0  0  0  0
  130.4000  118.7610   61.4580 C   0  0  0  0  0  0  0  0  0  0  0  0
  130.3370  117.5300   60.8110 C   0  0  0  0  0  0  0  0  0  0  0  0
  131.3620  117.1490   59.9510 C   0  0  0  0  0  0  0  0  0  0  0  0
  132.4490  117.9900   59.7360 C   0  0  0  0  0  0  0  0  0  0  0  0
  132.5090  119.2200   60.3850 C   0  0  0  0  0  0  0  0  0  0  0  0
  130.4070  121.3670   62.5700 N   0  0  0  0  0  0  0  0  0  0  0  0
  130.3930  122.5470   63.2360 C   0  0  0  0  0  0  0  0  0  0  0  0
  128.8210  122.9250   63.9780 S   0  0  0  0  0  0  0  0  0  0  0  0
  127.7790  123.6710   62.6890 C   0  0  0  0  0  0  0  0  0  0  0  0
  128.0860  123.1090   61.3000 C   0  0  0  0  0  0  0  0  0  0  0  0
  128.0160  121.8950   61.0990 O   0  0  0  0  0  0  0  0  0  0  0  0
  128.4190  124.0040   60.3530 N   0  0  0  0  0  0  0  0  0  0  0  0
  128.7160  123.6900   58.9560 C   0  0  0  0  0  0  0  0  0  0  0  0
  127.4830  123.3970   58.1090 C   0  0  0  0  0  0  0  0  0  0  0  0
  127.6120  122.6630   56.9260 C   0  0  0  0  0  0  0  0  0  0  0  0
  126.4840  122.3670   56.1650 C   0  0  0  0  0  0  0  0  0  0  0  0
  125.2300  122.7980   56.5940 C   0  0  0  0  0  0  0  0  0  0  0  0
  125.0930  123.5170   57.7790 C   0  0  0  0  0  0  0  0  0  0  0  0
  126.2200  123.8120   58.5410 C   0  0  0  0  0  0  0  0  0  0  0  0
  133.6295  121.3640   61.5218 H   0  0  0  0  0  0  0  0  0  0  0  0
  129.5877  119.0577   62.1378 H   0  0  0  0  0  0  0  0  0  0  0  0
  129.4801  116.8611   60.9791 H   0  0  0  0  0  0  0  0  0  0  0  0
  131.3126  116.1772   59.4381 H   0  0  0  0  0  0  0  0  0  0  0  0
  133.2578  117.6843   59.0560 H   0  0  0  0  0  0  0  0  0  0  0  0
  133.3712  119.8813   60.2135 H   0  0  0  0  0  0  0  0  0  0  0  0
  126.7238  123.4708   62.9267 H   0  0  0  0  0  0  0  0  0  0  0  0
  127.9874  124.7509   62.6697 H   0  0  0  0  0  0  0  0  0  0  0  0
  128.4440  124.9820   60.6030 H   0  0  0  0  0  0  0  0  0  0  0  0
  129.2433  124.5480   58.5135 H   0  0  0  0  0  0  0  0  0  0  0  0
  129.3243  122.7735   58.9590 H   0  0  0  0  0  0  0  0  0  0  0  0
  128.6038  122.3196   56.5967 H   0  0  0  0  0  0  0  0  0  0  0  0
  126.5822  121.7959   55.2300 H   0  0  0  0  0  0  0  0  0  0  0  0
  124.3395  122.5680   55.9906 H   0  0  0  0  0  0  0  0  0  0  0  0
  124.0987  123.8502   58.1112 H   0  0  0  0  0  0  0  0  0  0  0  0
  126.1167  124.3713   59.4825 H   0  0  0  0  0  0  0  0  0  0  0  0
  1  2  3  0
  2  3  1  0
  3  4  2  0
  4  5  1  0
  5  6  1  0
  5  7  1  0
  5  8  1  0
  4  9  1  0
  9 10  2  0
 10 11  1  0
 11 12  2  0
 12 13  1  0
 13 14  2  0
 14 15  1  0
 15 16  2  0
 10 17  1  0
 17 18  2  0
 18 19  1  0
 19 20  1  0
 20 21  1  0
 21 22  2  0
 21 23  1  0
 23 24  1  0
 24 25  1  0
 25 26  2  0
 26 27  1  0
 27 28  2  0
 28 29  1  0
 29 30  2  0
 18  3  1  0
 30 25  1  0
 16 11  1  0
  9 31  1  0
 12 32  1  0
 13 33  1  0
 14 34  1  0
 15 35  1  0
 16 36  1  0
 20 37  1  0
 20 38  1  0
 23 39  1  0
 24 40  1  0
 24 41  1  0
 26 42  1  0
 27 43  1  0
 28 44  1  0
 29 45  1  0
 30 46  1  0
M  END
>  <Binding energies>  (1) 
[-8.38]

>  <Ligand effiencies>  (1) 
[-0.2703225806451613]

>  <Interactions>  (1) 
["V-A:ASP:366:CG:3212, V-B:GLU:543:CD:9879, V-B:PRO:540:N:9855, H-B:ALA:541:N:9862, V-B:ALA:541:CB:9863, V-B:PRO:540:CA:9854, V-B:TYR:539:C:9838, V-A:LEU:475:CD2:4258, V-A:PRO:482:CG:4326, V-A:HIS:383:CE1:3393, V-A:ILE:369:CD1:3238, V-B:TYR:539:CD2:9845, V-B:TYR:539:CE2:9847, V-B:TYR:539:CB:9842, V-A:GLY:454:CA:4048, V-B:TYR:539:CG:9843, V-B:MET:535:CE:9806, V-B:TYR:539:CZ:9848, V-A:PRO:482:CB:4325, V-B:PRO:540:CB:9856, V-A:GLY:453:C:4041, V-B:TYR:539:CD1:9844, V-B:PRO:540:CD:9858, V-B:TYR:531:CE2:9764, V-B:LEU:363:CD1:8159, V-B:ILE:538:CA:9831, V-A:GLY:453:CA:4043, V-B:TYR:539:CE1:9846"]

$$$$
3ai_Grossjean_2025
     RDKit          3D

 39 41  0  0  0  0  0  0  0  0999 V2000
  129.9810  125.6660   64.1340 N   0  0  0  0  0  0  0  0  0  0  0  0
  130.3190  124.6910   63.6110 C   0  0  0  0  0  0  0  0  0  0  0  0
  130.7470  123.4550   62.9490 C   0  0  0  0  0  0  0  0  0  0  0  0
  132.1230  123.1480   62.8080 C   0  0  0  0  0  0  0  0  0  0  0  0
  133.2380  124.0520   63.3680 C   0  0  0  0  0  0  0  0  0  0  0  0
  133.1070  125.3270   62.9960 F   0  0  0  0  0  0  0  0  0  0  0  0
  133.2230  124.0190   64.7020 F   0  0  0  0  0  0  0  0  0  0  0  0
  134.4280  123.6330   62.9390 F   0  0  0  0  0  0  0  0  0  0  0  0
  132.4820  121.9770   62.1240 C   0  0  0  0  0  0  0  0  0  0  0  0
  131.4980  121.1360   61.5950 C   0  0  0  0  0  0  0  0  0  0  0  0
  131.8240  119.8790   60.8470 C   0  0  0  0  0  0  0  0  0  0  0  0
  130.9990  118.7480   60.9510 C   0  0  0  0  0  0  0  0  0  0  0  0
  131.2930  117.5790   60.2560 C   0  0  0  0  0  0  0  0  0  0  0  0
  132.4200  117.5250   59.4420 C   0  0  0  0  0  0  0  0  0  0  0  0
  133.2530  118.6320   59.3200 C   0  0  0  0  0  0  0  0  0  0  0  0
  132.9550  119.8000   60.0160 C   0  0  0  0  0  0  0  0  0  0  0  0
  130.1800  121.4380   61.7250 N   0  0  0  0  0  0  0  0  0  0  0  0
  129.8080  122.5510   62.4020 C   0  0  0  0  0  0  0  0  0  0  0  0
  128.0430  122.7700   62.4900 S   0  0  0  0  0  0  0  0  0  0  0  0
  127.5400  123.8280   61.0910 C   0  0  0  0  0  0  0  0  0  0  0  0
  127.6120  123.1580   59.7110 C   0  0  0  0  0  0  0  0  0  0  0  0
  128.6230  122.5450   59.3600 O   0  0  0  0  0  0  0  0  0  0  0  0
  126.5010  123.3040   58.9540 N   0  0  0  0  0  0  0  0  0  0  0  0
  126.2820  122.8030   57.6770 C   0  0  0  0  0  0  0  0  0  0  0  0
  125.1150  123.0460   56.9530 C   0  0  0  0  0  0  0  0  0  0  0  0
  125.2890  122.3840   55.7600 C   0  0  0  0  0  0  0  0  0  0  0  0
  126.4980  121.7740   55.7640 O   0  0  0  0  0  0  0  0  0  0  0  0
  127.1180  122.0480   56.9840 N   0  0  0  0  0  0  0  0  0  0  0  0
  133.5444  121.7187   62.0030 H   0  0  0  0  0  0  0  0  0  0  0  0
  130.1060  118.7865   61.5921 H   0  0  0  0  0  0  0  0  0  0  0  0
  130.6370  116.7010   60.3498 H   0  0  0  0  0  0  0  0  0  0  0  0
  132.6535  116.6015   58.8918 H   0  0  0  0  0  0  0  0  0  0  0  0
  134.1436  118.5847   58.6762 H   0  0  0  0  0  0  0  0  0  0  0  0
  133.6145  120.6745   59.9142 H   0  0  0  0  0  0  0  0  0  0  0  0
  126.5013  124.1476   61.2612 H   0  0  0  0  0  0  0  0  0  0  0  0
  128.2555  124.6630   61.0647 H   0  0  0  0  0  0  0  0  0  0  0  0
  125.7360  123.8300   59.3510 H   0  0  0  0  0  0  0  0  0  0  0  0
  124.2437  123.6390   57.2680 H   0  0  0  0  0  0  0  0  0  0  0  0
  124.5624  122.3547   54.9347 H   0  0  0  0  0  0  0  0  0  0  0  0
  1  2  3  0
  2  3  1  0
  3  4  2  0
  4  5  1  0
  5  6  1  0
  5  7  1  0
  5  8  1  0
  4  9  1  0
  9 10  2  0
 10 11  1  0
 11 12  2  0
 12 13  1  0
 13 14  2  0
 14 15  1  0
 15 16  2  0
 10 17  1  0
 17 18  2  0
 18 19  1  0
 19 20  1  0
 20 21  1  0
 21 22  2  0
 21 23  1  0
 23 24  1  0
 24 25  1  0
 25 26  2  0
 26 27  1  0
 27 28  1  0
 18  3  1  0
 28 24  2  0
 16 11  1  0
  9 29  1  0
 12 30  1  0
 13 31  1  0
 14 32  1  0
 15 33  1  0
 16 34  1  0
 20 35  1  0
 20 36  1  0
 23 37  1  0
 25 38  1  0
 26 39  1  0
M  END
>  <Binding energies>  (1) 
[-8.55]

>  <Ligand effiencies>  (1) 
[-0.2948275862068966]

>  <Interactions>  (1) 
["V-A:ASP:366:CG:3212, V-B:PRO:540:N:9855, H-B:ALA:541:N:9862, V-B:ALA:541:CB:9863, V-B:PRO:540:CA:9854, V-B:TYR:539:C:9838, V-A:LEU:475:CD2:4258, V-A:HIS:383:CE1:3393, V-A:ILE:369:CD1:3238, V-B:TYR:539:CD2:9845, V-A:ILE:369:CG2:3236, V-B:TYR:539:CE2:9847, V-B:TYR:539:CB:9842, V-A:GLY:454:CA:4048, H-B:TYR:539:N:9841, V-B:PRO:540:CB:9856, V-A:GLY:453:C:4041, V-B:PRO:540:CD:9858, V-B:TYR:531:CE2:9764, V-B:LEU:363:CD1:8159, V-A:ARG:545:CZ:4925, V-B:ILE:538:CD1:9836, V-B:ILE:538:CG2:9834, V-B:ILE:538:CA:9831, V-A:GLY:453:CA:4043, V-A:LEU:373:CG:3278, V-A:LEU:373:CD2:3280, V-A:VAL:384:C:3396"]

$$$$
3aj_Grossjean_2025
     RDKit          3D

 39 41  0  0  0  0  0  0  0  0999 V2000
  129.4270  123.6770   64.0910 N   0  0  0  0  0  0  0  0  0  0  0  0
  128.9600  123.5680   63.0380 C   0  0  0  0  0  0  0  0  0  0  0  0
  128.3660  123.4320   61.7050 C   0  0  0  0  0  0  0  0  0  0  0  0
  126.9860  123.6770   61.4990 C   0  0  0  0  0  0  0  0  0  0  0  0
  126.0450  124.1380   62.6290 C   0  0  0  0  0  0  0  0  0  0  0  0
  126.2700  123.5000   63.7810 F   0  0  0  0  0  0  0  0  0  0  0  0
  126.2050  125.4420   62.8530 F   0  0  0  0  0  0  0  0  0  0  0  0
  124.7770  123.9100   62.2880 F   0  0  0  0  0  0  0  0  0  0  0  0
  126.4560  123.4870   60.2130 C   0  0  0  0  0  0  0  0  0  0  0  0
  127.2780  123.0590   59.1650 C   0  0  0  0  0  0  0  0  0  0  0  0
  126.7630  122.8310   57.7770 C   0  0  0  0  0  0  0  0  0  0  0  0
  125.4240  123.1020   57.4580 C   0  0  0  0  0  0  0  0  0  0  0  0
  124.9380  122.8950   56.1680 C   0  0  0  0  0  0  0  0  0  0  0  0
  125.7900  122.4130   55.1800 C   0  0  0  0  0  0  0  0  0  0  0  0
  127.1220  122.1380   55.4710 C   0  0  0  0  0  0  0  0  0  0  0  0
  127.6030  122.3470   56.7600 C   0  0  0  0  0  0  0  0  0  0  0  0
  128.5990  122.8180   59.3700 N   0  0  0  0  0  0  0  0  0  0  0  0
  129.1390  123.0180   60.5960 C   0  0  0  0  0  0  0  0  0  0  0  0
  130.8830  122.6730   60.6680 S   0  0  0  0  0  0  0  0  0  0  0  0
  131.7260  124.1740   61.2730 C   0  0  0  0  0  0  0  0  0  0  0  0
  132.1550  124.1280   62.7470 C   0  0  0  0  0  0  0  0  0  0  0  0
  132.1630  123.0640   63.3690 O   0  0  0  0  0  0  0  0  0  0  0  0
  132.5080  125.3240   63.2690 N   0  0  0  0  0  0  0  0  0  0  0  0
  132.9400  125.5670   64.5660 C   0  0  0  0  0  0  0  0  0  0  0  0
  134.1540  125.4270   65.0530 N   0  0  0  0  0  0  0  0  0  0  0  0
  134.2070  125.7530   66.3290 C   0  0  0  0  0  0  0  0  0  0  0  0
  133.0100  126.1700   66.9070 C   0  0  0  0  0  0  0  0  0  0  0  0
  131.7570  126.1270   65.7050 S   0  0  0  0  0  0  0  0  0  0  0  0
  125.3882  123.6758   60.0283 H   0  0  0  0  0  0  0  0  0  0  0  0
  124.7477  123.4834   58.2372 H   0  0  0  0  0  0  0  0  0  0  0  0
  123.8856  123.1118   55.9326 H   0  0  0  0  0  0  0  0  0  0  0  0
  125.4079  122.2482   54.1617 H   0  0  0  0  0  0  0  0  0  0  0  0
  127.7920  121.7572   54.6861 H   0  0  0  0  0  0  0  0  0  0  0  0
  128.6574  122.1299   56.9862 H   0  0  0  0  0  0  0  0  0  0  0  0
  132.6261  124.3302   60.6603 H   0  0  0  0  0  0  0  0  0  0  0  0
  130.9946  124.9915   61.1911 H   0  0  0  0  0  0  0  0  0  0  0  0
  132.4670  126.1290   62.6610 H   0  0  0  0  0  0  0  0  0  0  0  0
  135.1428  125.6989   66.9046 H   0  0  0  0  0  0  0  0  0  0  0  0
  132.8795  126.4769   67.9552 H   0  0  0  0  0  0  0  0  0  0  0  0
  1  2  3  0
  2  3  1  0
  3  4  2  0
  4  5  1  0
  5  6  1  0
  5  7  1  0
  5  8  1  0
  4  9  1  0
  9 10  2  0
 10 11  1  0
 11 12  2  0
 12 13  1  0
 13 14  2  0
 14 15  1  0
 15 16  2  0
 10 17  1  0
 17 18  2  0
 18 19  1  0
 19 20  1  0
 20 21  1  0
 21 22  2  0
 21 23  1  0
 23 24  1  0
 24 25  2  0
 25 26  1  0
 26 27  2  0
 27 28  1  0
 18  3  1  0
 28 24  1  0
 16 11  1  0
  9 29  1  0
 12 30  1  0
 13 31  1  0
 14 32  1  0
 15 33  1  0
 16 34  1  0
 20 35  1  0
 20 36  1  0
 23 37  1  0
 26 38  1  0
 27 39  1  0
M  END
>  <Binding energies>  (1) 
[-7.68]

>  <Ligand effiencies>  (1) 
[-0.26482758620689656]

>  <Interactions>  (1) 
["V-A:ASP:366:CG:3212, V-B:GLU:543:CD:9879, V-B:PRO:540:N:9855, H-A:TYR:484:OH:4347, V-B:PRO:540:CA:9854, V-B:ALA:541:CA:9861, V-B:TYR:539:C:9838, V-B:TYR:539:CD2:9845, V-B:TYR:539:CE2:9847, V-A:GLY:454:CA:4048, V-B:TYR:539:CG:9843, V-B:MET:535:CE:9806, V-B:TYR:539:CZ:9848, V-B:GLU:543:CG:9878, V-B:ALA:541:C:9859, V-B:PRO:540:CB:9856, H-A:GLY:454:N:4049, V-B:TYR:539:CA:9840, V-A:GLY:453:C:4041, V-A:ARG:545:CD:4922, V-B:TYR:539:CD1:9844, V-B:TYR:531:CZ:9765, V-B:PRO:540:CD:9858, V-B:TYR:531:CE2:9764, V-B:LEU:363:CD1:8159, V-A:ARG:545:CZ:4925, V-B:ILE:538:CD1:9836, V-A:ARG:545:CG:4921, V-A:HIS:456:CE1:4069, V-B:ILE:538:CG2:9834, H-A:ASP:366:OD2:3214, H-A:ARG:545:NH1:4926, H-A:ARG:545:NH2:4927, V-B:ILE:538:CA:9831, V-A:GLY:453:CA:4043, V-B:TYR:539:CE1:9846, V-B:ILE:538:C:9829, V-B:ILE:538:CB:9833, H-A:ARG:545:NE:4923, H-A:ASP:366:OD1:3213, V-B:MET:535:CG:9804"]

$$$$
3ak_Grossjean_2025
     RDKit          3D

 57 58  0  0  0  0  0  0  0  0999 V2000
  127.7290  122.3940   56.6950 C   0  0  0  0  0  0  0  0  0  0  0  0
  126.4940  121.6950   56.6650 O   0  0  0  0  0  0  0  0  0  0  0  0
  125.5080  122.3250   55.8600 C   0  0  0  0  0  0  0  0  0  0  0  0
  124.6760  123.2700   56.7370 C   0  0  0  0  0  0  0  0  0  0  0  0
  125.5490  124.1950   57.3770 O   0  0  0  0  0  0  0  0  0  0  0  0
  125.0010  124.8810   58.5000 C   0  0  0  0  0  0  0  0  0  0  0  0
  124.4330  123.9430   59.5820 C   0  0  0  0  0  0  0  0  0  0  0  0
  125.4970  123.4660   60.3930 O   0  0  0  0  0  0  0  0  0  0  0  0
  126.7760  123.5560   59.7780 C   0  0  0  0  0  0  0  0  0  0  0  0
  127.6720  124.5360   60.5580 C   0  0  0  0  0  0  0  0  0  0  0  0
  127.7180  124.2690   61.9970 N   0  0  0  0  0  0  0  0  0  0  0  0
  128.0320  123.0920   62.5730 C   0  0  0  0  0  0  0  0  0  0  0  0
  128.3390  122.0930   61.9220 O   0  0  0  0  0  0  0  0  0  0  0  0
  128.0070  122.9890   64.1070 C   0  0  0  0  0  0  0  0  0  0  0  0
  129.5330  122.3740   64.9100 S   0  0  0  0  0  0  0  0  0  0  0  0
  130.8470  122.3470   63.7000 C   0  0  0  0  0  0  0  0  0  0  0  0
  130.9060  121.2380   62.9230 N   0  0  0  0  0  0  0  0  0  0  0  0
  131.8730  121.1220   61.9790 C   0  0  0  0  0  0  0  0  0  0  0  0
  131.8640  119.8620   61.1640 C   0  0  0  0  0  0  0  0  0  0  0  0
  130.7910  118.9610   61.2490 C   0  0  0  0  0  0  0  0  0  0  0  0
  130.7750  117.7920   60.4930 C   0  0  0  0  0  0  0  0  0  0  0  0
  131.8340  117.5090   59.6370 C   0  0  0  0  0  0  0  0  0  0  0  0
  132.9080  118.3860   59.5320 C   0  0  0  0  0  0  0  0  0  0  0  0
  132.9210  119.5540   60.2890 C   0  0  0  0  0  0  0  0  0  0  0  0
  132.8080  122.1430   61.7810 C   0  0  0  0  0  0  0  0  0  0  0  0
  132.7690  123.3020   62.5690 C   0  0  0  0  0  0  0  0  0  0  0  0
  133.8170  124.4050   62.3230 C   0  0  0  0  0  0  0  0  0  0  0  0
  133.3420  125.5840   62.7240 F   0  0  0  0  0  0  0  0  0  0  0  0
  134.9330  124.1350   63.0020 F   0  0  0  0  0  0  0  0  0  0  0  0
  134.1520  124.5240   61.0360 F   0  0  0  0  0  0  0  0  0  0  0  0
  131.7630  123.4120   63.5590 C   0  0  0  0  0  0  0  0  0  0  0  0
  131.6740  124.6010   64.4140 C   0  0  0  0  0  0  0  0  0  0  0  0
  131.6030  125.5390   65.0890 N   0  0  0  0  0  0  0  0  0  0  0  0
  128.0289  122.5638   57.7396 H   0  0  0  0  0  0  0  0  0  0  0  0
  128.5000  121.7983   56.1843 H   0  0  0  0  0  0  0  0  0  0  0  0
  127.6152  123.3616   56.1843 H   0  0  0  0  0  0  0  0  0  0  0  0
  125.9973  122.8997   55.0598 H   0  0  0  0  0  0  0  0  0  0  0  0
  124.8540  121.5637   55.4097 H   0  0  0  0  0  0  0  0  0  0  0  0
  123.9550  123.8157   56.1107 H   0  0  0  0  0  0  0  0  0  0  0  0
  124.1285  122.6897   57.4943 H   0  0  0  0  0  0  0  0  0  0  0  0
  125.7939  125.4940   58.9533 H   0  0  0  0  0  0  0  0  0  0  0  0
  124.1622  125.4878   58.1281 H   0  0  0  0  0  0  0  0  0  0  0  0
  123.7137  124.4940   60.2057 H   0  0  0  0  0  0  0  0  0  0  0  0
  123.9237  123.0933   59.1038 H   0  0  0  0  0  0  0  0  0  0  0  0
  127.2461  122.5616   59.7695 H   0  0  0  0  0  0  0  0  0  0  0  0
  126.6545  123.9221   58.7478 H   0  0  0  0  0  0  0  0  0  0  0  0
  128.6944  124.4659   60.1583 H   0  0  0  0  0  0  0  0  0  0  0  0
  127.2408  125.5398   60.4295 H   0  0  0  0  0  0  0  0  0  0  0  0
  127.4970  125.0480   62.6000 H   0  0  0  0  0  0  0  0  0  0  0  0
  127.8009  123.9932   64.5060 H   0  0  0  0  0  0  0  0  0  0  0  0
  127.2355  122.2390   64.3356 H   0  0  0  0  0  0  0  0  0  0  0  0
  129.9502  119.1819   61.9230 H   0  0  0  0  0  0  0  0  0  0  0  0
  129.9279  117.0948   60.5724 H   0  0  0  0  0  0  0  0  0  0  0  0
  131.8219  116.5856   59.0393 H   0  0  0  0  0  0  0  0  0  0  0  0
  133.7435  118.1578   58.8538 H   0  0  0  0  0  0  0  0  0  0  0  0
  133.7710  120.2467   60.2015 H   0  0  0  0  0  0  0  0  0  0  0  0
  133.5781  122.0362   61.0029 H   0  0  0  0  0  0  0  0  0  0  0  0
  1  2  1  0
  2  3  1  0
  3  4  1  0
  4  5  1  0
  5  6  1  0
  6  7  1  0
  7  8  1  0
  8  9  1  0
  9 10  1  0
 10 11  1  0
 11 12  1  0
 12 13  2  0
 12 14  1  0
 14 15  1  0
 15 16  1  0
 16 17  2  0
 17 18  1  0
 18 19  1  0
 19 20  2  0
 20 21  1  0
 21 22  2  0
 22 23  1  0
 23 24  2  0
 18 25  2  0
 25 26  1  0
 26 27  1  0
 27 28  1  0
 27 29  1  0
 27 30  1  0
 26 31  2  0
 31 32  1  0
 32 33  3  0
 31 16  1  0
 24 19  1  0
  1 34  1  0
  1 35  1  0
  1 36  1  0
  3 37  1  0
  3 38  1  0
  4 39  1  0
  4 40  1  0
  6 41  1  0
  6 42  1  0
  7 43  1  0
  7 44  1  0
  9 45  1  0
  9 46  1  0
 10 47  1  0
 10 48  1  0
 11 49  1  0
 14 50  1  0
 14 51  1  0
 20 52  1  0
 21 53  1  0
 22 54  1  0
 23 55  1  0
 24 56  1  0
 25 57  1  0
M  END
>  <Binding energies>  (1) 
[-6.98]

>  <Ligand effiencies>  (1) 
[-0.20529411764705885]

>  <Interactions>  (1) 
["V-A:ASP:366:CG:3212, V-A:ASP:366:CB:3211, V-B:GLU:543:CD:9879, V-B:PRO:540:N:9855, H-B:ALA:541:N:9862, H-A:TYR:484:OH:4347, V-B:ALA:541:CB:9863, V-B:PRO:540:CA:9854, H-B:GLU:543:OE2:9881, V-B:ALA:541:CA:9861, H-B:GLU:543:OE1:9880, V-B:TYR:539:C:9838, V-A:LEU:475:CD2:4258, V-A:HIS:383:CE1:3393, V-A:ILE:369:CD1:3238, V-B:TYR:539:CD2:9845, V-A:ILE:369:CG2:3236, V-B:TYR:539:CE2:9847, V-B:TYR:539:CB:9842, V-A:SER:385:CA:3406, V-A:GLY:454:CA:4048, H-B:TYR:539:N:9841, V-B:TYR:539:CG:9843, V-B:MET:535:CE:9806, V-B:TYR:539:CZ:9848, V-B:GLU:543:CG:9878, V-B:ALA:541:C:9859, V-B:PRO:540:CB:9856, V-B:TYR:539:CA:9840, V-A:GLY:453:C:4041, V-B:TYR:539:CD1:9844, V-B:TYR:531:CZ:9765, V-B:PRO:540:CD:9858, V-B:TYR:531:CE2:9764, V-B:LEU:363:CD1:8159, V-A:ARG:545:CZ:4925, V-B:ILE:538:CD1:9836, V-B:ILE:538:CG2:9834, V-B:ILE:538:CA:9831, V-A:GLY:453:CA:4043, V-B:TYR:539:CE1:9846, V-A:LEU:373:CD2:3280, H-B:TYR:531:OH:9766, V-A:ASP:366:CA:3209"]

$$$$
3bc_Grossjean_2025
     RDKit          3D

 47 49  0  0  0  0  0  0  0  0999 V2000
  125.0960  122.3710   55.5230 C   0  0  0  0  0  0  0  0  0  0  0  0
  126.4560  122.3250   55.9380 O   0  0  0  0  0  0  0  0  0  0  0  0
  126.7770  122.6840   57.2340 C   0  0  0  0  0  0  0  0  0  0  0  0
  128.0750  122.3950   57.6550 C   0  0  0  0  0  0  0  0  0  0  0  0
  128.4910  122.7180   58.9440 C   0  0  0  0  0  0  0  0  0  0  0  0
  127.6080  123.3310   59.8350 C   0  0  0  0  0  0  0  0  0  0  0  0
  128.1210  123.6310   61.1100 N   0  0  0  0  0  0  0  0  0  0  0  0
  127.5220  123.5310   62.3160 C   0  0  0  0  0  0  0  0  0  0  0  0
  126.3810  123.1010   62.4980 O   0  0  0  0  0  0  0  0  0  0  0  0
  128.3930  123.9630   63.5040 C   0  0  0  0  0  0  0  0  0  0  0  0
  129.3410  122.6220   64.2990 S   0  0  0  0  0  0  0  0  0  0  0  0
  130.8560  122.4140   63.3910 C   0  0  0  0  0  0  0  0  0  0  0  0
  130.8700  121.3160   62.5960 N   0  0  0  0  0  0  0  0  0  0  0  0
  131.9670  121.0390   61.8440 C   0  0  0  0  0  0  0  0  0  0  0  0
  131.9090  119.7940   61.0080 C   0  0  0  0  0  0  0  0  0  0  0  0
  130.8450  118.8900   61.1420 C   0  0  0  0  0  0  0  0  0  0  0  0
  130.7850  117.7330   60.3690 C   0  0  0  0  0  0  0  0  0  0  0  0
  131.7940  117.4640   59.4500 C   0  0  0  0  0  0  0  0  0  0  0  0
  132.8620  118.3430   59.3000 C   0  0  0  0  0  0  0  0  0  0  0  0
  132.9180  119.4980   60.0760 C   0  0  0  0  0  0  0  0  0  0  0  0
  133.0900  121.8710   61.8760 C   0  0  0  0  0  0  0  0  0  0  0  0
  133.0830  123.0210   62.6740 C   0  0  0  0  0  0  0  0  0  0  0  0
  134.3250  123.9110   62.6650 C   0  0  0  0  0  0  0  0  0  0  0  0
  131.9410  123.3190   63.4480 C   0  0  0  0  0  0  0  0  0  0  0  0
  131.8930  124.5420   64.2520 C   0  0  0  0  0  0  0  0  0  0  0  0
  131.8580  125.5080   64.8870 N   0  0  0  0  0  0  0  0  0  0  0  0
  126.3050  123.6370   59.4150 C   0  0  0  0  0  0  0  0  0  0  0  0
  125.8930  123.3120   58.1250 C   0  0  0  0  0  0  0  0  0  0  0  0
  124.4431  122.3931   56.4080 H   0  0  0  0  0  0  0  0  0  0  0  0
  124.9270  123.2754   54.9200 H   0  0  0  0  0  0  0  0  0  0  0  0
  124.8663  121.4801   54.9200 H   0  0  0  0  0  0  0  0  0  0  0  0
  128.7766  121.9073   56.9622 H   0  0  0  0  0  0  0  0  0  0  0  0
  129.5191  122.4894   59.2615 H   0  0  0  0  0  0  0  0  0  0  0  0
  129.0940  123.9040   61.1150 H   0  0  0  0  0  0  0  0  0  0  0  0
  129.1074  124.7187   63.1454 H   0  0  0  0  0  0  0  0  0  0  0  0
  127.6998  124.3425   64.2692 H   0  0  0  0  0  0  0  0  0  0  0  0
  130.0458  119.0980   61.8686 H   0  0  0  0  0  0  0  0  0  0  0  0
  129.9430  117.0347   60.4848 H   0  0  0  0  0  0  0  0  0  0  0  0
  131.7472  116.5510   58.8383 H   0  0  0  0  0  0  0  0  0  0  0  0
  133.6580  118.1268   58.5722 H   0  0  0  0  0  0  0  0  0  0  0  0
  133.7653  120.1894   59.9575 H   0  0  0  0  0  0  0  0  0  0  0  0
  133.9773  121.6224   61.2753 H   0  0  0  0  0  0  0  0  0  0  0  0
  134.6280  124.1281   63.6999 H   0  0  0  0  0  0  0  0  0  0  0  0
  135.1437  123.3927   62.1443 H   0  0  0  0  0  0  0  0  0  0  0  0
  134.0974  124.8528   62.1443 H   0  0  0  0  0  0  0  0  0  0  0  0
  125.6078  124.1343   60.1054 H   0  0  0  0  0  0  0  0  0  0  0  0
  124.8684  123.5490   57.8024 H   0  0  0  0  0  0  0  0  0  0  0  0
  1  2  1  0
  2  3  1  0
  3  4  2  0
  4  5  1  0
  5  6  2  0
  6  7  1  0
  7  8  1  0
  8  9  2  0
  8 10  1  0
 10 11  1  0
 11 12  1  0
 12 13  2  0
 13 14  1  0
 14 15  1  0
 15 16  2  0
 16 17  1  0
 17 18  2  0
 18 19  1  0
 19 20  2  0
 14 21  2  0
 21 22  1  0
 22 23  1  0
 22 24  2  0
 24 25  1  0
 25 26  3  0
  6 27  1  0
 27 28  2  0
 28  3  1  0
 24 12  1  0
 20 15  1  0
  1 29  1  0
  1 30  1  0
  1 31  1  0
  4 32  1  0
  5 33  1  0
  7 34  1  0
 10 35  1  0
 10 36  1  0
 16 37  1  0
 17 38  1  0
 18 39  1  0
 19 40  1  0
 20 41  1  0
 21 42  1  0
 23 43  1  0
 23 44  1  0
 23 45  1  0
 27 46  1  0
 28 47  1  0
M  END
>  <Binding energies>  (1) 
[-9.71]

>  <Ligand effiencies>  (1) 
[-0.33482758620689657]

>  <Interactions>  (1) 
["V-B:GLU:543:CD:9879, V-B:PRO:540:N:9855, H-B:ALA:541:N:9862, H-A:TYR:484:OH:4347, V-B:PRO:540:CA:9854, V-B:TYR:539:C:9838, V-A:LEU:475:CD2:4258, V-A:HIS:383:CE1:3393, V-A:ILE:369:CD1:3238, V-B:TYR:539:CD2:9845, V-A:ILE:369:CG2:3236, V-B:TYR:539:CE2:9847, V-B:TYR:539:CB:9842, V-A:SER:385:CA:3406, V-A:GLY:454:CA:4048, H-B:TYR:539:N:9841, V-B:TYR:539:CG:9843, V-B:MET:535:CE:9806, V-B:TYR:539:CZ:9848, V-B:GLU:543:CG:9878, V-B:PRO:540:CB:9856, V-B:TYR:539:CA:9840, V-A:GLY:453:C:4041, V-B:TYR:539:CD1:9844, V-B:PRO:540:CD:9858, V-B:TYR:531:CE2:9764, V-B:LEU:363:CD1:8159, V-B:ILE:538:CD1:9836, V-B:ILE:538:CG2:9834, V-B:ILE:538:CA:9831, V-B:TYR:539:CE1:9846, V-B:ILE:538:CB:9833, V-A:LEU:373:CG:3278, V-A:LEU:373:CD2:3280, V-B:MET:535:CG:9804"]

$$$$
3bd_Grossjean_2025
     RDKit          3D

 43 45  0  0  0  0  0  0  0  0999 V2000
  134.0140  123.7650   62.9940 C   0  0  0  0  0  0  0  0  0  0  0  0
  132.7510  122.9230   62.8260 C   0  0  0  0  0  0  0  0  0  0  0  0
  132.8300  121.7550   62.0590 C   0  0  0  0  0  0  0  0  0  0  0  0
  131.6940  120.9590   61.8780 C   0  0  0  0  0  0  0  0  0  0  0  0
  131.7110  119.6940   61.0720 C   0  0  0  0  0  0  0  0  0  0  0  0
  132.7790  119.4090   60.2060 C   0  0  0  0  0  0  0  0  0  0  0  0
  132.8000  118.2370   59.4540 C   0  0  0  0  0  0  0  0  0  0  0  0
  131.7480  117.3320   59.5560 C   0  0  0  0  0  0  0  0  0  0  0  0
  130.6770  117.5920   60.4040 C   0  0  0  0  0  0  0  0  0  0  0  0
  130.6590  118.7650   61.1540 C   0  0  0  0  0  0  0  0  0  0  0  0
  130.5100  121.2970   62.4520 N   0  0  0  0  0  0  0  0  0  0  0  0
  130.4140  122.4260   63.1990 C   0  0  0  0  0  0  0  0  0  0  0  0
  128.8020  122.7630   63.8870 S   0  0  0  0  0  0  0  0  0  0  0  0
  128.0250  124.0690   62.8890 C   0  0  0  0  0  0  0  0  0  0  0  0
  127.2660  123.4990   61.6900 C   0  0  0  0  0  0  0  0  0  0  0  0
  126.2300  122.8620   61.8860 O   0  0  0  0  0  0  0  0  0  0  0  0
  127.8170  123.7370   60.4800 N   0  0  0  0  0  0  0  0  0  0  0  0
  127.3470  123.3710   59.2050 C   0  0  0  0  0  0  0  0  0  0  0  0
  126.0110  123.6750   58.9320 C   0  0  0  0  0  0  0  0  0  0  0  0
  125.4550  123.3430   57.6990 C   0  0  0  0  0  0  0  0  0  0  0  0
  126.2320  122.6960   56.7430 C   0  0  0  0  0  0  0  0  0  0  0  0
  127.5610  122.3750   57.0090 C   0  0  0  0  0  0  0  0  0  0  0  0
  128.1200  122.7070   58.2390 C   0  0  0  0  0  0  0  0  0  0  0  0
  131.5180  123.2780   63.4140 C   0  0  0  0  0  0  0  0  0  0  0  0
  131.4020  124.4940   64.2250 C   0  0  0  0  0  0  0  0  0  0  0  0
  131.3130  125.4540   64.8660 N   0  0  0  0  0  0  0  0  0  0  0  0
  134.2223  123.9039   64.0651 H   0  0  0  0  0  0  0  0  0  0  0  0
  134.8629  123.2515   62.5189 H   0  0  0  0  0  0  0  0  0  0  0  0
  133.8665  124.7461   62.5189 H   0  0  0  0  0  0  0  0  0  0  0  0
  133.7853  121.4629   61.5985 H   0  0  0  0  0  0  0  0  0  0  0  0
  133.6119  120.1224   60.1203 H   0  0  0  0  0  0  0  0  0  0  0  0
  133.6452  118.0275   58.7818 H   0  0  0  0  0  0  0  0  0  0  0  0
  131.7636  116.4059   58.9626 H   0  0  0  0  0  0  0  0  0  0  0  0
  129.8474  116.8739   60.4820 H   0  0  0  0  0  0  0  0  0  0  0  0
  129.8083  118.9680   61.8211 H   0  0  0  0  0  0  0  0  0  0  0  0
  127.3203  124.6280   63.5222 H   0  0  0  0  0  0  0  0  0  0  0  0
  128.8219  124.7237   62.5065 H   0  0  0  0  0  0  0  0  0  0  0  0
  128.7170  124.1940   60.4800 H   0  0  0  0  0  0  0  0  0  0  0  0
  125.3965  124.1780   59.6931 H   0  0  0  0  0  0  0  0  0  0  0  0
  124.4056  123.5913   57.4817 H   0  0  0  0  0  0  0  0  0  0  0  0
  125.7928  122.4358   55.7686 H   0  0  0  0  0  0  0  0  0  0  0  0
  128.1669  121.8604   56.2487 H   0  0  0  0  0  0  0  0  0  0  0  0
  129.1674  122.4493   58.4547 H   0  0  0  0  0  0  0  0  0  0  0  0
  1  2  1  0
  2  3  2  0
  3  4  1  0
  4  5  1  0
  5  6  2  0
  6  7  1  0
  7  8  2  0
  8  9  1  0
  9 10  2  0
  4 11  2  0
 11 12  1  0
 12 13  1  0
 13 14  1  0
 14 15  1  0
 15 16  2  0
 15 17  1  0
 17 18  1  0
 18 19  2  0
 19 20  1  0
 20 21  2  0
 21 22  1  0
 22 23  2  0
 12 24  2  0
 24 25  1  0
 25 26  3  0
 24  2  1  0
 10  5  1  0
 23 18  1  0
  1 27  1  0
  1 28  1  0
  1 29  1  0
  3 30  1  0
  6 31  1  0
  7 32  1  0
  8 33  1  0
  9 34  1  0
 10 35  1  0
 14 36  1  0
 14 37  1  0
 17 38  1  0
 19 39  1  0
 20 40  1  0
 21 41  1  0
 22 42  1  0
 23 43  1  0
M  END
>  <Binding energies>  (1) 
[-9.01]

>  <Ligand effiencies>  (1) 
[-0.33370370370370367]

>  <Interactions>  (1) 
["V-B:GLU:543:CD:9879, V-B:PRO:540:N:9855, H-B:ALA:541:N:9862, H-A:TYR:484:OH:4347, V-B:ALA:541:CB:9863, V-B:PRO:540:CA:9854, V-B:TYR:539:C:9838, V-A:LEU:475:CD2:4258, V-A:HIS:383:CE1:3393, V-A:ILE:369:CD1:3238, V-B:TYR:539:CD2:9845, V-A:ILE:369:CG2:3236, V-B:TYR:539:CE2:9847, V-B:TYR:539:CB:9842, V-A:GLY:454:CA:4048, V-B:TYR:539:CG:9843, V-B:MET:535:CE:9806, V-B:TYR:539:CZ:9848, V-B:PRO:540:CB:9856, V-B:TYR:539:CA:9840, V-A:GLY:453:C:4041, V-B:TYR:539:CD1:9844, V-B:PRO:540:CD:9858, V-B:TYR:539:CE1:9846, V-A:LEU:373:CD2:3280"]

$$$$
3be_Grossjean_2025
     RDKit          3D

 45 47  0  0  0  0  0  0  0  0999 V2000
  124.3520  123.8750   58.0840 C   0  0  0  0  0  0  0  0  0  0  0  0
  125.7810  123.4570   58.3680 C   0  0  0  0  0  0  0  0  0  0  0  0
  126.5590  122.8090   57.4040 C   0  0  0  0  0  0  0  0  0  0  0  0
  127.8660  122.4510   57.7360 C   0  0  0  0  0  0  0  0  0  0  0  0
  128.3600  122.7460   59.0090 C   0  0  0  0  0  0  0  0  0  0  0  0
  127.5290  123.4000   59.9260 C   0  0  0  0  0  0  0  0  0  0  0  0
  128.0810  123.6600   61.1940 N   0  0  0  0  0  0  0  0  0  0  0  0
  127.5150  123.5040   62.4110 C   0  0  0  0  0  0  0  0  0  0  0  0
  126.3680  123.0950   62.6020 O   0  0  0  0  0  0  0  0  0  0  0  0
  128.4210  123.8790   63.5940 C   0  0  0  0  0  0  0  0  0  0  0  0
  129.3860  122.5000   64.3000 S   0  0  0  0  0  0  0  0  0  0  0  0
  130.9060  122.3640   63.3850 C   0  0  0  0  0  0  0  0  0  0  0  0
  130.9580  121.2760   62.5770 N   0  0  0  0  0  0  0  0  0  0  0  0
  132.0620  121.0500   61.8160 C   0  0  0  0  0  0  0  0  0  0  0  0
  132.0450  119.8170   60.9610 C   0  0  0  0  0  0  0  0  0  0  0  0
  131.0200  118.8670   61.0910 C   0  0  0  0  0  0  0  0  0  0  0  0
  131.0000  117.7210   60.3030 C   0  0  0  0  0  0  0  0  0  0  0  0
  132.0090  117.5070   59.3700 C   0  0  0  0  0  0  0  0  0  0  0  0
  133.0370  118.4310   59.2220 C   0  0  0  0  0  0  0  0  0  0  0  0
  133.0540  119.5760   60.0130 C   0  0  0  0  0  0  0  0  0  0  0  0
  133.1530  121.9250   61.8560 C   0  0  0  0  0  0  0  0  0  0  0  0
  133.1050  123.0640   62.6660 C   0  0  0  0  0  0  0  0  0  0  0  0
  134.3130  124.0000   62.6640 C   0  0  0  0  0  0  0  0  0  0  0  0
  131.9550  123.3090   63.4470 C   0  0  0  0  0  0  0  0  0  0  0  0
  131.8620  124.5240   64.2590 C   0  0  0  0  0  0  0  0  0  0  0  0
  131.7910  125.4850   64.9010 N   0  0  0  0  0  0  0  0  0  0  0  0
  126.2480  123.7500   59.6080 N   0  0  0  0  0  0  0  0  0  0  0  0
  123.8198  124.0307   59.0340 H   0  0  0  0  0  0  0  0  0  0  0  0
  124.3517  124.8109   57.5059 H   0  0  0  0  0  0  0  0  0  0  0  0
  123.8474  123.0868   57.5059 H   0  0  0  0  0  0  0  0  0  0  0  0
  126.1503  122.5866   56.4072 H   0  0  0  0  0  0  0  0  0  0  0  0
  128.5036  121.9396   56.9999 H   0  0  0  0  0  0  0  0  0  0  0  0
  129.3875  122.4683   59.2868 H   0  0  0  0  0  0  0  0  0  0  0  0
  129.0170  124.0380   61.1760 H   0  0  0  0  0  0  0  0  0  0  0  0
  129.1280  124.6487   63.2508 H   0  0  0  0  0  0  0  0  0  0  0  0
  127.7507  124.2245   64.3948 H   0  0  0  0  0  0  0  0  0  0  0  0
  130.2199  119.0314   61.8277 H   0  0  0  0  0  0  0  0  0  0  0  0
  130.1891  116.9866   60.4173 H   0  0  0  0  0  0  0  0  0  0  0  0
  131.9935  116.6015   58.7457 H   0  0  0  0  0  0  0  0  0  0  0  0
  133.8333  118.2580   58.4831 H   0  0  0  0  0  0  0  0  0  0  0  0
  133.8702  120.3039   59.8943 H   0  0  0  0  0  0  0  0  0  0  0  0
  134.0478  121.7172   61.2508 H   0  0  0  0  0  0  0  0  0  0  0  0
  134.6039  124.2254   63.7006 H   0  0  0  0  0  0  0  0  0  0  0  0
  135.1524  123.5142   62.1450 H   0  0  0  0  0  0  0  0  0  0  0  0
  134.0522  124.9341   62.1450 H   0  0  0  0  0  0  0  0  0  0  0  0
  1  2  1  0
  2  3  2  0
  3  4  1  0
  4  5  2  0
  5  6  1  0
  6  7  1  0
  7  8  1  0
  8  9  2  0
  8 10  1  0
 10 11  1  0
 11 12  1  0
 12 13  2  0
 13 14  1  0
 14 15  1  0
 15 16  2  0
 16 17  1  0
 17 18  2  0
 18 19  1  0
 19 20  2  0
 14 21  2  0
 21 22  1  0
 22 23  1  0
 22 24  2  0
 24 25  1  0
 25 26  3  0
  6 27  2  0
 27  2  1  0
 24 12  1  0
 20 15  1  0
  1 28  1  0
  1 29  1  0
  1 30  1  0
  3 31  1  0
  4 32  1  0
  5 33  1  0
  7 34  1  0
 10 35  1  0
 10 36  1  0
 16 37  1  0
 17 38  1  0
 18 39  1  0
 19 40  1  0
 20 41  1  0
 21 42  1  0
 23 43  1  0
 23 44  1  0
 23 45  1  0
M  END
>  <Binding energies>  (1) 
[-9.13]

>  <Ligand effiencies>  (1) 
[-0.3260714285714286]

>  <Interactions>  (1) 
["V-A:ASP:366:CG:3212, V-B:GLU:543:CD:9879, V-B:PRO:540:N:9855, H-B:ALA:541:N:9862, H-A:TYR:484:OH:4347, V-B:PRO:540:CA:9854, V-B:TYR:539:C:9838, V-A:LEU:475:CD2:4258, V-A:HIS:383:CE1:3393, V-A:ILE:369:CD1:3238, V-B:TYR:539:CD2:9845, V-A:ILE:369:CG2:3236, V-B:TYR:539:CE2:9847, V-B:TYR:539:CB:9842, V-A:SER:385:CA:3406, V-A:GLY:454:CA:4048, V-B:TYR:539:CG:9843, V-B:TYR:539:CZ:9848, V-B:GLU:543:CG:9878, V-B:PRO:540:CB:9856, V-B:TYR:539:CA:9840, V-A:GLY:453:C:4041, V-B:TYR:539:CD1:9844, V-B:PRO:540:CD:9858, V-B:LEU:363:CD1:8159, V-A:LEU:373:CG:3278, V-A:LEU:373:CD2:3280"]

$$$$
3bf_Grossjean_2025
     RDKit          3D

 42 44  0  0  0  0  0  0  0  0999 V2000
  134.0010  123.5800   62.9670 C   0  0  0  0  0  0  0  0  0  0  0  0
  132.7160  122.7890   62.7310 C   0  0  0  0  0  0  0  0  0  0  0  0
  132.7960  121.6140   61.9770 C   0  0  0  0  0  0  0  0  0  0  0  0
  131.6450  120.8500   61.7490 C   0  0  0  0  0  0  0  0  0  0  0  0
  131.6670  119.5700   60.9690 C   0  0  0  0  0  0  0  0  0  0  0  0
  132.7200  119.2890   60.0840 C   0  0  0  0  0  0  0  0  0  0  0  0
  132.7470  118.1020   59.3560 C   0  0  0  0  0  0  0  0  0  0  0  0
  131.7170  117.1790   59.5040 C   0  0  0  0  0  0  0  0  0  0  0  0
  130.6630  117.4340   60.3740 C   0  0  0  0  0  0  0  0  0  0  0  0
  130.6380  118.6220   61.0990 C   0  0  0  0  0  0  0  0  0  0  0  0
  130.4420  121.2350   62.2510 N   0  0  0  0  0  0  0  0  0  0  0  0
  130.3450  122.3860   62.9620 C   0  0  0  0  0  0  0  0  0  0  0  0
  128.6950  122.7330   63.5340 S   0  0  0  0  0  0  0  0  0  0  0  0
  127.9810  124.0200   62.4550 C   0  0  0  0  0  0  0  0  0  0  0  0
  127.0850  123.4990   61.3220 C   0  0  0  0  0  0  0  0  0  0  0  0
  125.9370  123.1150   61.5540 O   0  0  0  0  0  0  0  0  0  0  0  0
  127.6500  123.5340   60.0960 N   0  0  0  0  0  0  0  0  0  0  0  0
  127.1100  123.1240   58.8630 C   0  0  0  0  0  0  0  0  0  0  0  0
  125.7970  123.5160   58.5780 C   0  0  0  0  0  0  0  0  0  0  0  0
  125.2090  123.1520   57.3650 C   0  0  0  0  0  0  0  0  0  0  0  0
  125.9610  122.4040   56.4590 C   0  0  0  0  0  0  0  0  0  0  0  0
  127.2390  122.0190   56.7030 N   0  0  0  0  0  0  0  0  0  0  0  0
  127.7970  122.3800   57.8870 C   0  0  0  0  0  0  0  0  0  0  0  0
  131.4670  123.1950   63.2470 C   0  0  0  0  0  0  0  0  0  0  0  0
  131.3700  124.3960   64.0810 C   0  0  0  0  0  0  0  0  0  0  0  0
  131.2950  125.3460   64.7380 N   0  0  0  0  0  0  0  0  0  0  0  0
  134.1730  123.6859   64.0483 H   0  0  0  0  0  0  0  0  0  0  0  0
  134.8486  123.0471   62.5113 H   0  0  0  0  0  0  0  0  0  0  0  0
  133.9069  124.5768   62.5113 H   0  0  0  0  0  0  0  0  0  0  0  0
  133.7624  121.2902   61.5633 H   0  0  0  0  0  0  0  0  0  0  0  0
  133.5358  120.0171   59.9638 H   0  0  0  0  0  0  0  0  0  0  0  0
  133.5792  117.8953   58.6670 H   0  0  0  0  0  0  0  0  0  0  0  0
  131.7365  116.2414   58.9291 H   0  0  0  0  0  0  0  0  0  0  0  0
  129.8520  116.6998   60.4890 H   0  0  0  0  0  0  0  0  0  0  0  0
  129.8005  118.8216   61.7837 H   0  0  0  0  0  0  0  0  0  0  0  0
  127.3794  124.6946   63.0819 H   0  0  0  0  0  0  0  0  0  0  0  0
  128.8326  124.5169   61.9672 H   0  0  0  0  0  0  0  0  0  0  0  0
  128.5680  123.9500   60.0340 H   0  0  0  0  0  0  0  0  0  0  0  0
  125.2289  124.1102   59.3088 H   0  0  0  0  0  0  0  0  0  0  0  0
  124.1762  123.4483   57.1292 H   0  0  0  0  0  0  0  0  0  0  0  0
  125.4975  122.1135   55.5047 H   0  0  0  0  0  0  0  0  0  0  0  0
  128.8342  122.0766   58.0923 H   0  0  0  0  0  0  0  0  0  0  0  0
  1  2  1  0
  2  3  2  0
  3  4  1  0
  4  5  1  0
  5  6  2  0
  6  7  1  0
  7  8  2  0
  8  9  1  0
  9 10  2  0
  4 11  2  0
 11 12  1  0
 12 13  1  0
 13 14  1  0
 14 15  1  0
 15 16  2  0
 15 17  1  0
 17 18  1  0
 18 19  2  0
 19 20  1  0
 20 21  2  0
 21 22  1  0
 22 23  2  0
 12 24  2  0
 24 25  1  0
 25 26  3  0
 24  2  1  0
 10  5  1  0
 23 18  1  0
  1 27  1  0
  1 28  1  0
  1 29  1  0
  3 30  1  0
  6 31  1  0
  7 32  1  0
  8 33  1  0
  9 34  1  0
 10 35  1  0
 14 36  1  0
 14 37  1  0
 17 38  1  0
 19 39  1  0
 20 40  1  0
 21 41  1  0
 23 42  1  0
M  END
>  <Binding energies>  (1) 
[-9.27]

>  <Ligand effiencies>  (1) 
[-0.3433333333333333]

>  <Interactions>  (1) 
["V-B:GLU:543:CD:9879, V-B:PRO:540:N:9855, H-B:ALA:541:N:9862, H-A:TYR:484:OH:4347, V-B:ALA:541:CB:9863, V-B:PRO:540:CA:9854, V-B:TYR:539:C:9838, V-A:LEU:475:CD2:4258, V-A:HIS:383:CE1:3393, V-A:ILE:369:CD1:3238, V-B:TYR:539:CD2:9845, V-A:ILE:369:CG2:3236, V-B:TYR:539:CE2:9847, V-B:TYR:539:CB:9842, V-A:GLY:454:CA:4048, H-B:TYR:539:N:9841, V-B:TYR:539:CG:9843, V-B:MET:535:CE:9806, V-B:PRO:540:CB:9856, V-B:TYR:539:CA:9840, V-A:GLY:453:C:4041, V-B:PRO:540:CD:9858, V-B:LEU:363:CD1:8159, V-A:LEU:373:CD2:3280, V-A:HIS:383:CG:3389"]

$$$$
3bg_Grossjean_2025
     RDKit          3D

 46 48  0  0  0  0  0  0  0  0999 V2000
  134.7570  124.2320   62.6510 C   0  0  0  0  0  0  0  0  0  0  0  0
  133.5560  123.2950   62.7570 C   0  0  0  0  0  0  0  0  0  0  0  0
  133.5130  122.1770   61.9200 C   0  0  0  0  0  0  0  0  0  0  0  0
  132.4330  121.2870   61.9900 C   0  0  0  0  0  0  0  0  0  0  0  0
  132.3310  120.0600   61.1270 C   0  0  0  0  0  0  0  0  0  0  0  0
  133.3210  119.7590   60.1770 C   0  0  0  0  0  0  0  0  0  0  0  0
  133.2400  118.6150   59.3880 C   0  0  0  0  0  0  0  0  0  0  0  0
  132.1610  117.7500   59.5350 C   0  0  0  0  0  0  0  0  0  0  0  0
  131.1600  118.0290   60.4580 C   0  0  0  0  0  0  0  0  0  0  0  0
  131.2440  119.1750   61.2430 C   0  0  0  0  0  0  0  0  0  0  0  0
  131.4270  121.4910   62.8830 N   0  0  0  0  0  0  0  0  0  0  0  0
  131.4550  122.5710   63.7050 C   0  0  0  0  0  0  0  0  0  0  0  0
  130.0920  122.7040   64.8530 S   0  0  0  0  0  0  0  0  0  0  0  0
  128.8240  123.7830   64.1120 C   0  0  0  0  0  0  0  0  0  0  0  0
  128.1590  123.1300   62.8970 C   0  0  0  0  0  0  0  0  0  0  0  0
  126.9380  122.9780   62.8740 O   0  0  0  0  0  0  0  0  0  0  0  0
  128.9790  122.7290   61.9090 N   0  0  0  0  0  0  0  0  0  0  0  0
  128.5840  121.9270   60.7510 C   0  0  0  0  0  0  0  0  0  0  0  0
  127.8990  122.7720   59.6840 C   0  0  0  0  0  0  0  0  0  0  0  0
  127.1290  123.8790   60.0550 C   0  0  0  0  0  0  0  0  0  0  0  0
  126.4960  124.6450   59.0810 C   0  0  0  0  0  0  0  0  0  0  0  0
  126.6430  124.3100   57.7360 C   0  0  0  0  0  0  0  0  0  0  0  0
  127.4250  123.2210   57.3570 C   0  0  0  0  0  0  0  0  0  0  0  0
  128.0580  122.4540   58.3320 C   0  0  0  0  0  0  0  0  0  0  0  0
  132.5040  123.5130   63.6720 C   0  0  0  0  0  0  0  0  0  0  0  0
  132.5240  124.6720   64.5680 C   0  0  0  0  0  0  0  0  0  0  0  0
  132.5420  125.5870   65.2750 N   0  0  0  0  0  0  0  0  0  0  0  0
  135.1022  124.5013   63.6601 H   0  0  0  0  0  0  0  0  0  0  0  0
  135.5695  123.7267   62.1083 H   0  0  0  0  0  0  0  0  0  0  0  0
  134.4645  125.1430   62.1083 H   0  0  0  0  0  0  0  0  0  0  0  0
  134.3286  121.9952   61.2047 H   0  0  0  0  0  0  0  0  0  0  0  0
  134.1761  120.4399   60.0543 H   0  0  0  0  0  0  0  0  0  0  0  0
  134.0266  118.3960   58.6509 H   0  0  0  0  0  0  0  0  0  0  0  0
  132.0995  116.8413   58.9182 H   0  0  0  0  0  0  0  0  0  0  0  0
  130.3044  117.3464   60.5676 H   0  0  0  0  0  0  0  0  0  0  0  0
  130.4455  119.3927   61.9676 H   0  0  0  0  0  0  0  0  0  0  0  0
  128.0534  123.9969   64.8672 H   0  0  0  0  0  0  0  0  0  0  0  0
  129.3165  124.7073   63.7758 H   0  0  0  0  0  0  0  0  0  0  0  0
  129.9690  122.8910   62.0170 H   0  0  0  0  0  0  0  0  0  0  0  0
  129.4818  121.4636   60.3160 H   0  0  0  0  0  0  0  0  0  0  0  0
  127.8701  121.1628   61.0921 H   0  0  0  0  0  0  0  0  0  0  0  0
  127.0237  124.1443   61.1173 H   0  0  0  0  0  0  0  0  0  0  0  0
  125.8825  125.5108   59.3710 H   0  0  0  0  0  0  0  0  0  0  0  0
  126.1367  124.9112   56.9664 H   0  0  0  0  0  0  0  0  0  0  0  0
  127.5419  122.9682   56.2928 H   0  0  0  0  0  0  0  0  0  0  0  0
  128.6831  121.5979   58.0382 H   0  0  0  0  0  0  0  0  0  0  0  0
  1  2  1  0
  2  3  2  0
  3  4  1  0
  4  5  1  0
  5  6  2  0
  6  7  1  0
  7  8  2  0
  8  9  1  0
  9 10  2  0
  4 11  2  0
 11 12  1  0
 12 13  1  0
 13 14  1  0
 14 15  1  0
 15 16  2  0
 15 17  1  0
 17 18  1  0
 18 19  1  0
 19 20  2  0
 20 21  1  0
 21 22  2  0
 22 23  1  0
 23 24  2  0
 12 25  2  0
 25 26  1  0
 26 27  3  0
 25  2  1  0
 10  5  1  0
 24 19  1  0
  1 28  1  0
  1 29  1  0
  1 30  1  0
  3 31  1  0
  6 32  1  0
  7 33  1  0
  8 34  1  0
  9 35  1  0
 10 36  1  0
 14 37  1  0
 14 38  1  0
 17 39  1  0
 18 40  1  0
 18 41  1  0
 20 42  1  0
 21 43  1  0
 22 44  1  0
 23 45  1  0
 24 46  1  0
M  END
>  <Binding energies>  (1) 
[-8.35]

>  <Ligand effiencies>  (1) 
[-0.2982142857142857]

>  <Interactions>  (1) 
["V-A:ASP:366:CG:3212, V-B:GLU:543:CD:9879, V-B:PRO:540:N:9855, H-B:ALA:541:N:9862, H-A:TYR:484:OH:4347, V-B:ALA:541:CB:9863, V-B:PRO:540:CA:9854, V-B:PRO:540:C:9852, V-B:TYR:539:C:9838, V-A:LEU:475:CD2:4258, V-A:HIS:383:CE1:3393, V-A:ILE:369:CD1:3238, V-B:TYR:539:CD2:9845, V-A:ILE:369:CG2:3236, V-B:TYR:539:CE2:9847, V-B:TYR:539:CB:9842, V-A:SER:385:CA:3406, V-A:GLY:454:CA:4048, V-B:TYR:539:CG:9843, V-B:MET:535:CE:9806, V-B:GLU:543:CG:9878, V-A:GLY:453:C:4041, V-A:GLY:453:CA:4043, V-A:LEU:373:CG:3278, V-A:LEU:373:CD2:3280, V-A:VAL:384:C:3396"]

$$$$
3bk_Grossjean_2025
     RDKit          3D

 57 58  0  0  0  0  0  0  0  0999 V2000
  126.3940  122.3730   55.1240 C   0  0  0  0  0  0  0  0  0  0  0  0
  125.7010  123.3260   55.9160 O   0  0  0  0  0  0  0  0  0  0  0  0
  125.0980  122.7670   57.0750 C   0  0  0  0  0  0  0  0  0  0  0  0
  124.5670  123.8920   57.9730 C   0  0  0  0  0  0  0  0  0  0  0  0
  125.1020  123.7440   59.2810 O   0  0  0  0  0  0  0  0  0  0  0  0
  125.7860  124.8960   59.7560 C   0  0  0  0  0  0  0  0  0  0  0  0
  127.0260  125.1430   58.8870 C   0  0  0  0  0  0  0  0  0  0  0  0
  128.1730  124.6140   59.5400 O   0  0  0  0  0  0  0  0  0  0  0  0
  128.6030  123.3610   59.0220 C   0  0  0  0  0  0  0  0  0  0  0  0
  128.5020  122.2930   60.1200 C   0  0  0  0  0  0  0  0  0  0  0  0
  128.8050  122.8290   61.4490 N   0  0  0  0  0  0  0  0  0  0  0  0
  127.8970  123.1990   62.3670 C   0  0  0  0  0  0  0  0  0  0  0  0
  126.6790  123.1100   62.1990 O   0  0  0  0  0  0  0  0  0  0  0  0
  128.4450  123.7300   63.6930 C   0  0  0  0  0  0  0  0  0  0  0  0
  129.6070  122.5610   64.4670 S   0  0  0  0  0  0  0  0  0  0  0  0
  131.0690  122.4360   63.4510 C   0  0  0  0  0  0  0  0  0  0  0  0
  131.1310  121.3560   62.6320 N   0  0  0  0  0  0  0  0  0  0  0  0
  132.2090  121.1760   61.8230 C   0  0  0  0  0  0  0  0  0  0  0  0
  132.1880  119.9690   60.9350 C   0  0  0  0  0  0  0  0  0  0  0  0
  131.1570  119.0220   61.0360 C   0  0  0  0  0  0  0  0  0  0  0  0
  131.1350  117.8950   60.2170 C   0  0  0  0  0  0  0  0  0  0  0  0
  132.1470  117.7010   59.2830 C   0  0  0  0  0  0  0  0  0  0  0  0
  133.1780  118.6270   59.1600 C   0  0  0  0  0  0  0  0  0  0  0  0
  133.1950  119.7520   59.9790 C   0  0  0  0  0  0  0  0  0  0  0  0
  133.2620  122.0980   61.8170 C   0  0  0  0  0  0  0  0  0  0  0  0
  133.2150  123.2170   62.6560 C   0  0  0  0  0  0  0  0  0  0  0  0
  134.3860  124.1980   62.6180 C   0  0  0  0  0  0  0  0  0  0  0  0
  132.0980  123.4020   63.4970 C   0  0  0  0  0  0  0  0  0  0  0  0
  132.0200  124.5650   64.3850 C   0  0  0  0  0  0  0  0  0  0  0  0
  131.9590  125.4840   65.0870 N   0  0  0  0  0  0  0  0  0  0  0  0
  126.9132  121.6590   55.7802 H   0  0  0  0  0  0  0  0  0  0  0  0
  125.6765  121.8326   54.4891 H   0  0  0  0  0  0  0  0  0  0  0  0
  127.1292  122.8890   54.4891 H   0  0  0  0  0  0  0  0  0  0  0  0
  124.2651  122.1139   56.7754 H   0  0  0  0  0  0  0  0  0  0  0  0
  125.8457  122.1801   57.6286 H   0  0  0  0  0  0  0  0  0  0  0  0
  124.8707  124.8653   57.5602 H   0  0  0  0  0  0  0  0  0  0  0  0
  123.4691  123.8398   58.0170 H   0  0  0  0  0  0  0  0  0  0  0  0
  125.1186  125.7686   59.7006 H   0  0  0  0  0  0  0  0  0  0  0  0
  126.0932  124.7380   60.8004 H   0  0  0  0  0  0  0  0  0  0  0  0
  126.8966  124.6474   57.9135 H   0  0  0  0  0  0  0  0  0  0  0  0
  127.1570  126.2242   58.7324 H   0  0  0  0  0  0  0  0  0  0  0  0
  127.9640  123.0761   58.1732 H   0  0  0  0  0  0  0  0  0  0  0  0
  129.6465  123.4422   58.6836 H   0  0  0  0  0  0  0  0  0  0  0  0
  127.4790  121.8888   60.1268 H   0  0  0  0  0  0  0  0  0  0  0  0
  129.2426  121.5109   59.8967 H   0  0  0  0  0  0  0  0  0  0  0  0
  129.7840  122.8790   61.6910 H   0  0  0  0  0  0  0  0  0  0  0  0
  128.9679  124.6797   63.5065 H   0  0  0  0  0  0  0  0  0  0  0  0
  127.5970  123.8712   64.3793 H   0  0  0  0  0  0  0  0  0  0  0  0
  130.3542  119.1718   61.7729 H   0  0  0  0  0  0  0  0  0  0  0  0
  130.3204  117.1616   60.3088 H   0  0  0  0  0  0  0  0  0  0  0  0
  132.1322  116.8102   58.6378 H   0  0  0  0  0  0  0  0  0  0  0  0
  133.9758  118.4707   58.4190 H   0  0  0  0  0  0  0  0  0  0  0  0
  134.0101  120.4835   59.8764 H   0  0  0  0  0  0  0  0  0  0  0  0
  134.1256  121.9432   61.1535 H   0  0  0  0  0  0  0  0  0  0  0  0
  134.6867  124.4500   63.6457 H   0  0  0  0  0  0  0  0  0  0  0  0
  135.2339  123.7366   62.0905 H   0  0  0  0  0  0  0  0  0  0  0  0
  134.0803  125.1136   62.0905 H   0  0  0  0  0  0  0  0  0  0  0  0
  1  2  1  0
  2  3  1  0
  3  4  1  0
  4  5  1  0
  5  6  1  0
  6  7  1  0
  7  8  1  0
  8  9  1  0
  9 10  1  0
 10 11  1  0
 11 12  1  0
 12 13  2  0
 12 14  1  0
 14 15  1  0
 15 16  1  0
 16 17  2  0
 17 18  1  0
 18 19  1  0
 19 20  2  0
 20 21  1  0
 21 22  2  0
 22 23  1  0
 23 24  2  0
 18 25  2  0
 25 26  1  0
 26 27  1  0
 26 28  2  0
 28 29  1  0
 29 30  3  0
 28 16  1  0
 24 19  1  0
  1 31  1  0
  1 32  1  0
  1 33  1  0
  3 34  1  0
  3 35  1  0
  4 36  1  0
  4 37  1  0
  6 38  1  0
  6 39  1  0
  7 40  1  0
  7 41  1  0
  9 42  1  0
  9 43  1  0
 10 44  1  0
 10 45  1  0
 11 46  1  0
 14 47  1  0
 14 48  1  0
 20 49  1  0
 21 50  1  0
 22 51  1  0
 23 52  1  0
 24 53  1  0
 25 54  1  0
 27 55  1  0
 27 56  1  0
 27 57  1  0
M  END
>  <Binding energies>  (1) 
[-7.54]

>  <Ligand effiencies>  (1) 
[-0.2432258064516129]

>  <Interactions>  (1) 
["V-A:ASP:366:CG:3212, V-B:GLU:543:CD:9879, V-B:PRO:540:N:9855, H-B:ALA:541:N:9862, H-A:TYR:484:OH:4347, V-B:PRO:540:CA:9854, V-B:TYR:539:C:9838, V-A:LEU:475:CD2:4258, V-A:HIS:383:CE1:3393, V-A:ILE:369:CD1:3238, V-B:TYR:539:CD2:9845, V-A:ILE:369:CG2:3236, V-B:TYR:539:CE2:9847, V-B:TYR:539:CB:9842, V-A:SER:385:CA:3406, V-A:GLY:454:CA:4048, V-A:LEU:373:CD1:3279, V-B:TYR:539:CG:9843, V-B:MET:535:CE:9806, V-B:GLU:543:CG:9878, V-B:PRO:540:CB:9856, V-A:GLY:453:C:4041, V-B:PRO:540:CD:9858, V-B:LEU:363:CD1:8159, V-B:ILE:538:CD1:9836, V-B:ILE:538:CA:9831, V-A:GLY:453:CA:4043, V-B:ILE:538:C:9829, V-A:LEU:373:CG:3278, V-A:LEU:373:CD2:3280, H-B:TYR:531:OH:9766, V-B:MET:535:CG:9804, V-B:PRO:540:CG:9857"]

$$$$
3ca_Grossjean_2025
     RDKit          3D

 52 54  0  0  0  0  0  0  0  0999 V2000
  124.9500  129.1430   62.5450 C   0  0  0  0  0  0  0  0  0  0  0  0
  123.6790  129.7990   63.0900 C   0  0  0  0  0  0  0  0  0  0  0  0
  123.7430  129.8480   64.5110 O   0  0  0  0  0  0  0  0  0  0  0  0
  124.7310  130.5280   65.1450 C   0  0  0  0  0  0  0  0  0  0  0  0
  125.0600  131.6820   64.8510 O   0  0  0  0  0  0  0  0  0  0  0  0
  125.3830  129.7400   66.2450 C   0  0  0  0  0  0  0  0  0  0  0  0
  126.7780  129.6260   66.2710 C   0  0  0  0  0  0  0  0  0  0  0  0
  127.4110  128.9020   67.2780 C   0  0  0  0  0  0  0  0  0  0  0  0
  126.6630  128.2720   68.2730 C   0  0  0  0  0  0  0  0  0  0  0  0
  127.4020  127.5680   69.2430 N   0  0  0  0  0  0  0  0  0  0  0  0
  126.9720  126.8830   70.3250 C   0  0  0  0  0  0  0  0  0  0  0  0
  125.7960  126.7350   70.6530 O   0  0  0  0  0  0  0  0  0  0  0  0
  128.0750  126.2370   71.1710 C   0  0  0  0  0  0  0  0  0  0  0  0
  128.0730  126.8020   72.9050 S   0  0  0  0  0  0  0  0  0  0  0  0
  129.4940  126.1360   73.7620 C   0  0  0  0  0  0  0  0  0  0  0  0
  129.4720  124.7970   73.9830 N   0  0  0  0  0  0  0  0  0  0  0  0
  130.5230  124.2220   74.6080 C   0  0  0  0  0  0  0  0  0  0  0  0
  130.4320  122.7220   74.8020 C   0  0  0  0  0  0  0  0  0  0  0  0
  131.6240  124.9520   75.0490 C   0  0  0  0  0  0  0  0  0  0  0  0
  131.6620  126.3380   74.8480 C   0  0  0  0  0  0  0  0  0  0  0  0
  132.8570  127.0820   75.3500 C   0  0  0  0  0  0  0  0  0  0  0  0
  133.9960  127.2070   74.5450 C   0  0  0  0  0  0  0  0  0  0  0  0
  135.1170  127.8900   75.0080 C   0  0  0  0  0  0  0  0  0  0  0  0
  135.1060  128.4480   76.2840 C   0  0  0  0  0  0  0  0  0  0  0  0
  133.9840  128.3270   77.1000 C   0  0  0  0  0  0  0  0  0  0  0  0
  132.8640  127.6420   76.6340 C   0  0  0  0  0  0  0  0  0  0  0  0
  130.5730  126.9520   74.1780 C   0  0  0  0  0  0  0  0  0  0  0  0
  130.5800  128.3910   73.8940 C   0  0  0  0  0  0  0  0  0  0  0  0
  130.5870  129.5270   73.6710 N   0  0  0  0  0  0  0  0  0  0  0  0
  125.2650  128.3880   68.2600 C   0  0  0  0  0  0  0  0  0  0  0  0
  124.6340  129.1150   67.2530 C   0  0  0  0  0  0  0  0  0  0  0  0
  125.5826  128.8165   63.3836 H   0  0  0  0  0  0  0  0  0  0  0  0
  124.6785  128.2724   61.9299 H   0  0  0  0  0  0  0  0  0  0  0  0
  125.5023  129.8686   61.9299 H   0  0  0  0  0  0  0  0  0  0  0  0
  123.5936  130.8206   62.6912 H   0  0  0  0  0  0  0  0  0  0  0  0
  122.8017  129.2111   62.7823 H   0  0  0  0  0  0  0  0  0  0  0  0
  127.3794  130.1127   65.4890 H   0  0  0  0  0  0  0  0  0  0  0  0
  128.5083  128.8263   67.2891 H   0  0  0  0  0  0  0  0  0  0  0  0
  128.3950  127.5390   69.0650 H   0  0  0  0  0  0  0  0  0  0  0  0
  127.9320  125.1464   71.1583 H   0  0  0  0  0  0  0  0  0  0  0  0
  129.0394  126.5320   70.7318 H   0  0  0  0  0  0  0  0  0  0  0  0
  130.4180  122.4916   75.8775 H   0  0  0  0  0  0  0  0  0  0  0  0
  129.5095  122.3471   74.3347 H   0  0  0  0  0  0  0  0  0  0  0  0
  131.3025  122.2384   74.3347 H   0  0  0  0  0  0  0  0  0  0  0  0
  132.4592  124.4431   75.5524 H   0  0  0  0  0  0  0  0  0  0  0  0
  134.0049  126.7620   73.5391 H   0  0  0  0  0  0  0  0  0  0  0  0
  136.0071  127.9885   74.3693 H   0  0  0  0  0  0  0  0  0  0  0  0
  135.9910  128.9889   76.6504 H   0  0  0  0  0  0  0  0  0  0  0  0
  133.9821  128.7698   78.1069 H   0  0  0  0  0  0  0  0  0  0  0  0
  131.9788  127.5401   77.2790 H   0  0  0  0  0  0  0  0  0  0  0  0
  124.6663  127.9043   69.0459 H   0  0  0  0  0  0  0  0  0  0  0  0
  123.5373  129.1998   67.2483 H   0  0  0  0  0  0  0  0  0  0  0  0
  1  2  1  0
  2  3  1  0
  3  4  1  0
  4  5  2  0
  4  6  1  0
  6  7  2  0
  7  8  1  0
  8  9  2  0
  9 10  1  0
 10 11  1  0
 11 12  2  0
 11 13  1  0
 13 14  1  0
 14 15  1  0
 15 16  2  0
 16 17  1  0
 17 18  1  0
 17 19  2  0
 19 20  1  0
 20 21  1  0
 21 22  2  0
 22 23  1  0
 23 24  2  0
 24 25  1  0
 25 26  2  0
 20 27  2  0
 27 28  1  0
 28 29  3  0
  9 30  1  0
 30 31  2  0
 31  6  1  0
 27 15  1  0
 26 21  1  0
  1 32  1  0
  1 33  1  0
  1 34  1  0
  2 35  1  0
  2 36  1  0
  7 37  1  0
  8 38  1  0
 10 39  1  0
 13 40  1  0
 13 41  1  0
 18 42  1  0
 18 43  1  0
 18 44  1  0
 19 45  1  0
 22 46  1  0
 23 47  1  0
 24 48  1  0
 25 49  1  0
 26 50  1  0
 30 51  1  0
 31 52  1  0
M  END
>  <Binding energies>  (1) 
[-8.44]

>  <Ligand effiencies>  (1) 
[-0.26375]

>  <Interactions>  (1) 
["V-B:GLU:543:CD:9879, H-B:GLU:543:OE2:9881, V-A:HIS:456:CE1:4069, V-B:GLU:543:CB:9877, V-B:HIS:456:CE1:9040, H-B:LYS:547:NZ:9922, V-A:HIS:456:CD2:4067, V-B:ARG:545:CD:9894, V-B:GLU:543:C:9873, V-B:ARG:545:CG:9893, H-A:LYS:547:NZ:4950, V-A:LYS:547:CE:4949, H-B:ARG:545:N:9891, H-B:ARG:545:NH2:9899, H-B:TYR:484:OH:9318, V-B:GLY:544:C:9883, V-B:ASP:366:CG:8183, V-B:ARG:545:CZ:9897, V-A:HIS:456:CB:4064, V-A:VAL:457:C:4072, V-A:HIS:456:CA:4062, V-A:LYS:547:CD:4948, V-A:HIS:456:CG:4065, V-A:VAL:458:CG2:4086, H-B:HIS:456:ND1:9037, V-B:GLY:454:CA:9019, H-B:GLY:454:N:9020, H-B:ARG:545:NH1:9898, V-A:LYS:547:CG:4947, V-A:LYS:547:CB:4946, V-A:ARG:545:C:4916"]

$$$$
3cb_Grossjean_2025
     RDKit          3D

 49 51  0  0  0  0  0  0  0  0999 V2000
  126.1230  122.2480   54.9190 C   0  0  0  0  0  0  0  0  0  0  0  0
  126.7580  122.2350   56.1890 O   0  0  0  0  0  0  0  0  0  0  0  0
  126.6360  123.2840   57.0430 C   0  0  0  0  0  0  0  0  0  0  0  0
  125.6020  123.9470   57.1630 O   0  0  0  0  0  0  0  0  0  0  0  0
  127.8880  123.5590   57.8270 C   0  0  0  0  0  0  0  0  0  0  0  0
  128.2490  122.7920   58.9450 C   0  0  0  0  0  0  0  0  0  0  0  0
  129.4170  123.0730   59.6480 C   0  0  0  0  0  0  0  0  0  0  0  0
  130.2450  124.1250   59.2550 C   0  0  0  0  0  0  0  0  0  0  0  0
  131.4030  124.3170   60.0350 N   0  0  0  0  0  0  0  0  0  0  0  0
  132.7050  124.3000   59.6760 C   0  0  0  0  0  0  0  0  0  0  0  0
  133.1180  124.1200   58.5290 O   0  0  0  0  0  0  0  0  0  0  0  0
  133.6880  124.5490   60.8300 C   0  0  0  0  0  0  0  0  0  0  0  0
  133.0120  124.2340   62.4970 S   0  0  0  0  0  0  0  0  0  0  0  0
  131.7440  122.9930   62.3450 C   0  0  0  0  0  0  0  0  0  0  0  0
  130.5360  123.3960   62.8090 N   0  0  0  0  0  0  0  0  0  0  0  0
  129.4970  122.5360   62.7440 C   0  0  0  0  0  0  0  0  0  0  0  0
  128.1730  123.0590   63.2700 C   0  0  0  0  0  0  0  0  0  0  0  0
  129.6190  121.2500   62.2250 C   0  0  0  0  0  0  0  0  0  0  0  0
  130.8610  120.8050   61.7550 C   0  0  0  0  0  0  0  0  0  0  0  0
  130.9420  119.4140   61.2130 C   0  0  0  0  0  0  0  0  0  0  0  0
  130.0020  118.4520   61.6010 C   0  0  0  0  0  0  0  0  0  0  0  0
  130.0620  117.1560   61.0930 C   0  0  0  0  0  0  0  0  0  0  0  0
  131.0650  116.8180   60.1880 C   0  0  0  0  0  0  0  0  0  0  0  0
  132.0030  117.7640   59.7850 C   0  0  0  0  0  0  0  0  0  0  0  0
  131.9390  119.0590   60.2930 C   0  0  0  0  0  0  0  0  0  0  0  0
  131.9660  121.6920   61.8280 C   0  0  0  0  0  0  0  0  0  0  0  0
  133.3080  121.2490   61.4370 C   0  0  0  0  0  0  0  0  0  0  0  0
  134.3670  120.9000   61.1290 N   0  0  0  0  0  0  0  0  0  0  0  0
  129.8940  124.8940   58.1350 C   0  0  0  0  0  0  0  0  0  0  0  0
  128.7250  124.6120   57.4320 C   0  0  0  0  0  0  0  0  0  0  0  0
  125.0317  122.2703   55.0549 H   0  0  0  0  0  0  0  0  0  0  0  0
  126.4411  123.1398   54.3591 H   0  0  0  0  0  0  0  0  0  0  0  0
  126.4043  121.3439   54.3591 H   0  0  0  0  0  0  0  0  0  0  0  0
  127.6038  121.9619   59.2686 H   0  0  0  0  0  0  0  0  0  0  0  0
  129.6894  122.4608   60.5204 H   0  0  0  0  0  0  0  0  0  0  0  0
  131.2140  124.5230   61.0060 H   0  0  0  0  0  0  0  0  0  0  0  0
  134.5588  123.8928   60.6847 H   0  0  0  0  0  0  0  0  0  0  0  0
  133.9391  125.6194   60.7960 H   0  0  0  0  0  0  0  0  0  0  0  0
  128.1874  123.0533   64.3699 H   0  0  0  0  0  0  0  0  0  0  0  0
  128.0159  124.0867   62.9107 H   0  0  0  0  0  0  0  0  0  0  0  0
  127.3560  122.4161   62.9107 H   0  0  0  0  0  0  0  0  0  0  0  0
  128.7431  120.5858   62.1842 H   0  0  0  0  0  0  0  0  0  0  0  0
  129.2086  118.7218   62.3136 H   0  0  0  0  0  0  0  0  0  0  0  0
  129.3217  116.4045   61.4048 H   0  0  0  0  0  0  0  0  0  0  0  0
  131.1164  115.7945   59.7882 H   0  0  0  0  0  0  0  0  0  0  0  0
  132.7913  117.4899   59.0685 H   0  0  0  0  0  0  0  0  0  0  0  0
  132.6760  119.8091   59.9702 H   0  0  0  0  0  0  0  0  0  0  0  0
  130.5432  125.7210   57.8116 H   0  0  0  0  0  0  0  0  0  0  0  0
  128.4556  125.2222   56.5573 H   0  0  0  0  0  0  0  0  0  0  0  0
  1  2  1  0
  2  3  1  0
  3  4  2  0
  3  5  1  0
  5  6  2  0
  6  7  1  0
  7  8  2  0
  8  9  1  0
  9 10  1  0
 10 11  2  0
 10 12  1  0
 12 13  1  0
 13 14  1  0
 14 15  2  0
 15 16  1  0
 16 17  1  0
 16 18  2  0
 18 19  1  0
 19 20  1  0
 20 21  2  0
 21 22  1  0
 22 23  2  0
 23 24  1  0
 24 25  2  0
 19 26  2  0
 26 27  1  0
 27 28  3  0
  8 29  1  0
 29 30  2  0
 30  5  1  0
 26 14  1  0
 25 20  1  0
  1 31  1  0
  1 32  1  0
  1 33  1  0
  6 34  1  0
  7 35  1  0
  9 36  1  0
 12 37  1  0
 12 38  1  0
 17 39  1  0
 17 40  1  0
 17 41  1  0
 18 42  1  0
 21 43  1  0
 22 44  1  0
 23 45  1  0
 24 46  1  0
 25 47  1  0
 29 48  1  0
 30 49  1  0
M  END
>  <Binding energies>  (1) 
[-8.83]

>  <Ligand effiencies>  (1) 
[-0.28483870967741937]

>  <Interactions>  (1) 
["V-A:ASP:366:CG:3212, V-A:ASP:366:CB:3211, V-B:GLU:543:CD:9879, V-B:PRO:540:N:9855, V-B:ALA:541:CB:9863, V-B:PRO:540:CA:9854, V-B:ALA:541:CA:9861, V-B:TYR:539:C:9838, V-A:LEU:475:CD2:4258, V-A:PRO:482:CG:4326, V-A:HIS:383:CE1:3393, V-A:ILE:369:CD1:3238, V-B:TYR:539:CD2:9845, V-A:ILE:369:CG2:3236, V-B:TYR:539:CE2:9847, V-B:TYR:539:CB:9842, H-B:TYR:539:N:9841, V-B:VAL:344:CG1:7971, V-B:TYR:539:CG:9843, V-B:MET:535:CE:9806, H-B:TYR:539:OH:9849, V-B:TYR:539:CZ:9848, V-A:PRO:482:CB:4325, V-B:TYR:531:CE2:9764, V-B:ILE:538:CD1:9836, V-B:ILE:538:CG2:9834, H-A:ASP:366:OD2:3214, V-B:ILE:538:CA:9831, V-B:ILE:538:C:9829, V-B:ILE:538:CB:9833, H-B:TYR:531:OH:9766, V-B:MET:535:CG:9804"]

$$$$
3ce_Grossjean_2025
     RDKit          3D

 45 47  0  0  0  0  0  0  0  0999 V2000
  133.7000  118.9980   59.2500 C   0  0  0  0  0  0  0  0  0  0  0  0
  132.4460  118.6760   60.0410 C   0  0  0  0  0  0  0  0  0  0  0  0
  132.0300  117.3580   60.2470 C   0  0  0  0  0  0  0  0  0  0  0  0
  130.8720  117.1370   60.9920 C   0  0  0  0  0  0  0  0  0  0  0  0
  130.1650  118.2250   61.5090 C   0  0  0  0  0  0  0  0  0  0  0  0
  130.6310  119.5200   61.2560 C   0  0  0  0  0  0  0  0  0  0  0  0
  129.8910  120.5750   61.8160 N   0  0  0  0  0  0  0  0  0  0  0  0
  130.3200  121.5440   62.6550 C   0  0  0  0  0  0  0  0  0  0  0  0
  131.4750  121.6600   63.0690 O   0  0  0  0  0  0  0  0  0  0  0  0
  129.2640  122.5580   63.0910 C   0  0  0  0  0  0  0  0  0  0  0  0
  129.7000  124.2500   62.5940 S   0  0  0  0  0  0  0  0  0  0  0  0
  129.5200  124.2960   60.8260 C   0  0  0  0  0  0  0  0  0  0  0  0
  130.6030  124.7830   60.1740 N   0  0  0  0  0  0  0  0  0  0  0  0
  130.5730  124.8430   58.8220 C   0  0  0  0  0  0  0  0  0  0  0  0
  131.8220  125.3860   58.1570 C   0  0  0  0  0  0  0  0  0  0  0  0
  129.4670  124.4370   58.0790 C   0  0  0  0  0  0  0  0  0  0  0  0
  128.3280  123.9550   58.7360 C   0  0  0  0  0  0  0  0  0  0  0  0
  127.1590  123.5550   57.8970 C   0  0  0  0  0  0  0  0  0  0  0  0
  125.8890  124.0830   58.1630 C   0  0  0  0  0  0  0  0  0  0  0  0
  124.7930  123.7110   57.3890 C   0  0  0  0  0  0  0  0  0  0  0  0
  124.9600  122.8010   56.3480 C   0  0  0  0  0  0  0  0  0  0  0  0
  126.2140  122.2590   56.0780 C   0  0  0  0  0  0  0  0  0  0  0  0
  127.3080  122.6340   56.8520 C   0  0  0  0  0  0  0  0  0  0  0  0
  128.3490  123.8750   60.1510 C   0  0  0  0  0  0  0  0  0  0  0  0
  127.1920  123.3640   60.8930 C   0  0  0  0  0  0  0  0  0  0  0  0
  126.2780  122.9610   61.4770 N   0  0  0  0  0  0  0  0  0  0  0  0
  131.7680  119.7440   60.5330 N   0  0  0  0  0  0  0  0  0  0  0  0
  134.5268  119.2103   59.9438 H   0  0  0  0  0  0  0  0  0  0  0  0
  133.9646  118.1387   58.6163 H   0  0  0  0  0  0  0  0  0  0  0  0
  133.5178  119.8785   58.6163 H   0  0  0  0  0  0  0  0  0  0  0  0
  132.6020  116.5153   59.8316 H   0  0  0  0  0  0  0  0  0  0  0  0
  130.5173  116.1113   61.1715 H   0  0  0  0  0  0  0  0  0  0  0  0
  129.2551  118.0662   62.1064 H   0  0  0  0  0  0  0  0  0  0  0  0
  128.9450  120.6580   61.4740 H   0  0  0  0  0  0  0  0  0  0  0  0
  128.3019  122.2892   62.6304 H   0  0  0  0  0  0  0  0  0  0  0  0
  129.2004  122.5319   64.1888 H   0  0  0  0  0  0  0  0  0  0  0  0
  132.5415  125.6988   58.9281 H   0  0  0  0  0  0  0  0  0  0  0  0
  132.2736  124.6030   57.5302 H   0  0  0  0  0  0  0  0  0  0  0  0
  131.5574  126.2503   57.5302 H   0  0  0  0  0  0  0  0  0  0  0  0
  129.4881  124.4947   56.9807 H   0  0  0  0  0  0  0  0  0  0  0  0
  125.7567  124.7968   58.9895 H   0  0  0  0  0  0  0  0  0  0  0  0
  123.7995  124.1340   57.5988 H   0  0  0  0  0  0  0  0  0  0  0  0
  124.0951  122.5083   55.7346 H   0  0  0  0  0  0  0  0  0  0  0  0
  126.3392  121.5379   55.2568 H   0  0  0  0  0  0  0  0  0  0  0  0
  128.2982  122.2036   56.6415 H   0  0  0  0  0  0  0  0  0  0  0  0
  1  2  1  0
  2  3  2  0
  3  4  1  0
  4  5  2  0
  5  6  1  0
  6  7  1  0
  7  8  1  0
  8  9  2  0
  8 10  1  0
 10 11  1  0
 11 12  1  0
 12 13  2  0
 13 14  1  0
 14 15  1  0
 14 16  2  0
 16 17  1  0
 17 18  1  0
 18 19  2  0
 19 20  1  0
 20 21  2  0
 21 22  1  0
 22 23  2  0
 17 24  2  0
 24 25  1  0
 25 26  3  0
  6 27  2  0
 27  2  1  0
 24 12  1  0
 23 18  1  0
  1 28  1  0
  1 29  1  0
  1 30  1  0
  3 31  1  0
  4 32  1  0
  5 33  1  0
  7 34  1  0
 10 35  1  0
 10 36  1  0
 15 37  1  0
 15 38  1  0
 15 39  1  0
 16 40  1  0
 19 41  1  0
 20 42  1  0
 21 43  1  0
 22 44  1  0
 23 45  1  0
M  END
>  <Binding energies>  (1) 
[-8.92]

>  <Ligand effiencies>  (1) 
[-0.31857142857142856]

>  <Interactions>  (1) 
["V-A:ASP:366:CB:3211, V-B:PRO:540:N:9855, H-B:ALA:541:N:9862, V-B:ALA:541:CB:9863, V-B:PRO:540:CA:9854, V-B:TYR:539:C:9838, V-A:LEU:475:CD2:4258, V-A:PRO:482:CG:4326, V-A:HIS:383:CE1:3393, H-B:TYR:539:O:9839, V-B:TYR:539:CD2:9845, V-A:ILE:369:CG2:3236, V-B:TYR:539:CE2:9847, V-A:SER:385:CA:3406, V-B:MET:535:CE:9806, V-B:TYR:539:CZ:9848, V-A:PRO:482:CB:4325, V-B:PRO:540:CB:9856, V-B:TYR:531:CZ:9765, V-B:PRO:540:CD:9858, V-B:TYR:531:CE2:9764, V-B:LEU:363:CD1:8159, V-B:ILE:538:CA:9831, V-B:ILE:538:C:9829, V-A:LEU:373:CG:3278, V-A:LEU:373:CD2:3280, V-A:VAL:384:C:3396"]

$$$$
3ch_Grossjean_2025
     RDKit          3D

 55 57  0  0  0  0  0  0  0  0999 V2000
  131.2430  127.5880   68.2370 C   0  0  0  0  0  0  0  0  0  0  0  0
  132.2850  126.9270   67.5270 O   0  0  0  0  0  0  0  0  0  0  0  0
  132.0490  126.4620   66.2460 C   0  0  0  0  0  0  0  0  0  0  0  0
  130.7940  126.4940   65.6170 C   0  0  0  0  0  0  0  0  0  0  0  0
  130.6320  126.0130   64.3100 C   0  0  0  0  0  0  0  0  0  0  0  0
  129.4180  126.0080   63.5970 N   0  0  0  0  0  0  0  0  0  0  0  0
  129.2010  125.9990   62.2630 C   0  0  0  0  0  0  0  0  0  0  0  0
  130.0750  125.9790   61.3970 O   0  0  0  0  0  0  0  0  0  0  0  0
  127.7340  125.9690   61.8350 C   0  0  0  0  0  0  0  0  0  0  0  0
  127.0160  124.3040   61.9600 S   0  0  0  0  0  0  0  0  0  0  0  0
  128.3140  123.2510   62.5720 C   0  0  0  0  0  0  0  0  0  0  0  0
  128.4320  123.2530   63.9220 N   0  0  0  0  0  0  0  0  0  0  0  0
  129.3950  122.4900   64.4870 C   0  0  0  0  0  0  0  0  0  0  0  0
  129.4760  122.5430   66.0010 C   0  0  0  0  0  0  0  0  0  0  0  0
  130.2680  121.7060   63.7380 C   0  0  0  0  0  0  0  0  0  0  0  0
  130.1570  121.6850   62.3400 C   0  0  0  0  0  0  0  0  0  0  0  0
  131.1220  120.8370   61.5760 C   0  0  0  0  0  0  0  0  0  0  0  0
  130.8000  119.5110   61.2650 C   0  0  0  0  0  0  0  0  0  0  0  0
  131.6970  118.7120   60.5610 C   0  0  0  0  0  0  0  0  0  0  0  0
  132.9260  119.2380   60.1680 C   0  0  0  0  0  0  0  0  0  0  0  0
  133.2650  120.5520   60.4760 C   0  0  0  0  0  0  0  0  0  0  0  0
  132.3650  121.3480   61.1810 C   0  0  0  0  0  0  0  0  0  0  0  0
  129.1390  122.4650   61.7340 C   0  0  0  0  0  0  0  0  0  0  0  0
  128.9160  122.4080   60.2860 C   0  0  0  0  0  0  0  0  0  0  0  0
  128.7400  122.3650   59.1430 N   0  0  0  0  0  0  0  0  0  0  0  0
  131.7350  125.4800   63.6400 C   0  0  0  0  0  0  0  0  0  0  0  0
  132.9990  125.4350   64.2480 C   0  0  0  0  0  0  0  0  0  0  0  0
  134.1330  124.9270   63.6370 O   0  0  0  0  0  0  0  0  0  0  0  0
  134.0180  124.2830   62.3730 C   0  0  0  0  0  0  0  0  0  0  0  0
  133.1420  125.9270   65.5520 C   0  0  0  0  0  0  0  0  0  0  0  0
  134.3790  125.9050   66.1520 O   0  0  0  0  0  0  0  0  0  0  0  0
  134.3770  125.3590   67.4640 C   0  0  0  0  0  0  0  0  0  0  0  0
  131.4114  127.4812   69.3188 H   0  0  0  0  0  0  0  0  0  0  0  0
  131.2374  128.6552   67.9704 H   0  0  0  0  0  0  0  0  0  0  0  0
  130.2751  127.1384   67.9704 H   0  0  0  0  0  0  0  0  0  0  0  0
  129.9266  126.9018   66.1567 H   0  0  0  0  0  0  0  0  0  0  0  0
  128.5950  125.9650   64.1810 H   0  0  0  0  0  0  0  0  0  0  0  0
  127.1623  126.6507   62.4818 H   0  0  0  0  0  0  0  0  0  0  0  0
  127.6834  126.2802   60.7812 H   0  0  0  0  0  0  0  0  0  0  0  0
  128.6295  121.9891   66.4331 H   0  0  0  0  0  0  0  0  0  0  0  0
  130.4204  122.0876   66.3338 H   0  0  0  0  0  0  0  0  0  0  0  0
  129.4368  123.5907   66.3338 H   0  0  0  0  0  0  0  0  0  0  0  0
  131.0411  121.1059   64.2401 H   0  0  0  0  0  0  0  0  0  0  0  0
  129.8306  119.0968   61.5792 H   0  0  0  0  0  0  0  0  0  0  0  0
  131.4369  117.6715   60.3165 H   0  0  0  0  0  0  0  0  0  0  0  0
  133.6346  118.6089   59.6093 H   0  0  0  0  0  0  0  0  0  0  0  0
  134.2380  120.9598   60.1646 H   0  0  0  0  0  0  0  0  0  0  0  0
  132.6325  122.3857   61.4294 H   0  0  0  0  0  0  0  0  0  0  0  0
  131.6112  125.0891   62.6193 H   0  0  0  0  0  0  0  0  0  0  0  0
  133.8265  123.2104   62.5241 H   0  0  0  0  0  0  0  0  0  0  0  0
  133.1852  124.7283   61.8090 H   0  0  0  0  0  0  0  0  0  0  0  0
  134.9535  124.4126   61.8090 H   0  0  0  0  0  0  0  0  0  0  0  0
  134.3800  126.1756   68.2010 H   0  0  0  0  0  0  0  0  0  0  0  0
  133.4766  124.7427   67.6033 H   0  0  0  0  0  0  0  0  0  0  0  0
  135.2729  124.7361   67.6033 H   0  0  0  0  0  0  0  0  0  0  0  0
  1  2  1  0
  2  3  1  0
  3  4  2  0
  4  5  1  0
  5  6  1  0
  6  7  1  0
  7  8  2  0
  7  9  1  0
  9 10  1  0
 10 11  1  0
 11 12  2  0
 12 13  1  0
 13 14  1  0
 13 15  2  0
 15 16  1  0
 16 17  1  0
 17 18  2  0
 18 19  1  0
 19 20  2  0
 20 21  1  0
 21 22  2  0
 16 23  2  0
 23 24  1  0
 24 25  3  0
  5 26  2  0
 26 27  1  0
 27 28  1  0
 28 29  1  0
 27 30  2  0
 30 31  1  0
 31 32  1  0
 30  3  1  0
 23 11  1  0
 22 17  1  0
  1 33  1  0
  1 34  1  0
  1 35  1  0
  4 36  1  0
  6 37  1  0
  9 38  1  0
  9 39  1  0
 14 40  1  0
 14 41  1  0
 14 42  1  0
 15 43  1  0
 18 44  1  0
 19 45  1  0
 20 46  1  0
 21 47  1  0
 22 48  1  0
 26 49  1  0
 29 50  1  0
 29 51  1  0
 29 52  1  0
 32 53  1  0
 32 54  1  0
 32 55  1  0
M  END
>  <Binding energies>  (1) 
[-7.96]

>  <Ligand effiencies>  (1) 
[-0.2412121212121212]

>  <Interactions>  (1) 
["V-A:ASP:366:CG:3212, V-B:GLU:543:CD:9879, H-A:TYR:484:OH:4347, V-B:ALA:541:CB:9863, V-B:PRO:540:CA:9854, H-B:GLU:543:OE2:9881, H-B:GLU:543:OE1:9880, V-B:TYR:539:C:9838, V-A:LEU:475:CD2:4258, V-A:ILE:369:CD1:3238, V-B:TYR:539:CD2:9845, V-A:ILE:369:CG2:3236, V-B:TYR:539:CE2:9847, V-A:SER:385:CA:3406, V-A:GLY:454:CA:4048, V-B:GLU:543:CG:9878, V-A:LEU:475:CD1:4257, H-A:GLY:454:N:4049, V-A:ARG:545:CD:4922, V-A:ARG:545:CZ:4925, V-A:ARG:545:CG:4921, V-A:HIS:456:CE1:4069, V-A:GLU:543:CD:4907, V-A:GLU:543:CB:4905, H-A:ARG:545:NH1:4926, H-A:ARG:545:NE:4923, V-A:TYR:484:CZ:4346, V-A:TYR:484:CE2:4345, V-A:ILE:455:C:4051, V-A:GLY:454:C:4046"]

$$$$
3ci_Grossjean_2025
     RDKit          3D

 39 41  0  0  0  0  0  0  0  0999 V2000
  129.4790  121.5390   62.1720 C   0  0  0  0  0  0  0  0  0  0  0  0
  129.4430  122.4190   60.9370 C   0  0  0  0  0  0  0  0  0  0  0  0
  128.3840  122.3700   60.0350 C   0  0  0  0  0  0  0  0  0  0  0  0
  128.3880  123.2150   58.9160 C   0  0  0  0  0  0  0  0  0  0  0  0
  127.2240  123.1390   57.9840 C   0  0  0  0  0  0  0  0  0  0  0  0
  125.9930  123.7130   58.3260 C   0  0  0  0  0  0  0  0  0  0  0  0
  124.9080  123.6320   57.4560 C   0  0  0  0  0  0  0  0  0  0  0  0
  125.0490  122.9690   56.2410 C   0  0  0  0  0  0  0  0  0  0  0  0
  126.2630  122.3840   55.8890 C   0  0  0  0  0  0  0  0  0  0  0  0
  127.3450  122.4680   56.7610 C   0  0  0  0  0  0  0  0  0  0  0  0
  129.4890  124.0910   58.7370 C   0  0  0  0  0  0  0  0  0  0  0  0
  129.5690  124.9670   57.5630 C   0  0  0  0  0  0  0  0  0  0  0  0
  129.6300  125.6580   56.6370 N   0  0  0  0  0  0  0  0  0  0  0  0
  130.5220  124.0800   59.7060 C   0  0  0  0  0  0  0  0  0  0  0  0
  131.9450  125.1570   59.5910 S   0  0  0  0  0  0  0  0  0  0  0  0
  133.4390  124.2470   60.1030 C   0  0  0  0  0  0  0  0  0  0  0  0
  133.6080  124.1640   61.6250 C   0  0  0  0  0  0  0  0  0  0  0  0
  134.0780  123.1390   62.1230 O   0  0  0  0  0  0  0  0  0  0  0  0
  133.2020  125.2490   62.3210 N   0  0  0  0  0  0  0  0  0  0  0  0
  133.2700  125.4420   63.6940 C   0  0  0  0  0  0  0  0  0  0  0  0
  132.1520  125.7180   64.4790 C   0  0  0  0  0  0  0  0  0  0  0  0
  132.6370  125.8400   65.7620 C   0  0  0  0  0  0  0  0  0  0  0  0
  133.9780  125.6470   65.7480 O   0  0  0  0  0  0  0  0  0  0  0  0
  134.3670  125.3960   64.4310 N   0  0  0  0  0  0  0  0  0  0  0  0
  130.4960  123.2510   60.7800 N   0  0  0  0  0  0  0  0  0  0  0  0
  129.4532  122.1699   63.0727 H   0  0  0  0  0  0  0  0  0  0  0  0
  128.6076  120.8677   62.1695 H   0  0  0  0  0  0  0  0  0  0  0  0
  130.4024  120.9412   62.1695 H   0  0  0  0  0  0  0  0  0  0  0  0
  127.5492  121.6727   60.1990 H   0  0  0  0  0  0  0  0  0  0  0  0
  125.8820  124.2320   59.2895 H   0  0  0  0  0  0  0  0  0  0  0  0
  123.9454  124.0896   57.7281 H   0  0  0  0  0  0  0  0  0  0  0  0
  124.1938  122.9062   55.5520 H   0  0  0  0  0  0  0  0  0  0  0  0
  126.3662  121.8589   54.9280 H   0  0  0  0  0  0  0  0  0  0  0  0
  128.3035  122.0031   56.4868 H   0  0  0  0  0  0  0  0  0  0  0  0
  133.3792  123.2244   59.7022 H   0  0  0  0  0  0  0  0  0  0  0  0
  134.3062  124.7971   59.7088 H   0  0  0  0  0  0  0  0  0  0  0  0
  132.8280  126.0230   61.7920 H   0  0  0  0  0  0  0  0  0  0  0  0
  131.1083  125.8169   64.1459 H   0  0  0  0  0  0  0  0  0  0  0  0
  132.0328  126.0590   66.6548 H   0  0  0  0  0  0  0  0  0  0  0  0
  1  2  1  0
  2  3  2  0
  3  4  1  0
  4  5  1  0
  5  6  2  0
  6  7  1  0
  7  8  2  0
  8  9  1  0
  9 10  2  0
  4 11  2  0
 11 12  1  0
 12 13  3  0
 11 14  1  0
 14 15  1  0
 15 16  1  0
 16 17  1  0
 17 18  2  0
 17 19  1  0
 19 20  1  0
 20 21  1  0
 21 22  2  0
 22 23  1  0
 23 24  1  0
 14 25  2  0
 25  2  1  0
 10  5  1  0
 24 20  2  0
  1 26  1  0
  1 27  1  0
  1 28  1  0
  3 29  1  0
  6 30  1  0
  7 31  1  0
  8 32  1  0
  9 33  1  0
 10 34  1  0
 16 35  1  0
 16 36  1  0
 19 37  1  0
 21 38  1  0
 22 39  1  0
M  END
>  <Binding energies>  (1) 
[-8.54]

>  <Ligand effiencies>  (1) 
[-0.3284615384615384]

>  <Interactions>  (1) 
["V-A:ASP:366:CG:3212, V-A:ASP:366:CB:3211, V-B:PRO:540:N:9855, H-A:TYR:484:OH:4347, V-B:ALA:541:CB:9863, V-B:PRO:540:CA:9854, V-B:ALA:541:CA:9861, V-B:TYR:539:C:9838, V-A:ILE:369:CD1:3238, V-B:TYR:539:CD2:9845, V-A:ILE:369:CG2:3236, V-B:TYR:539:CE2:9847, V-B:TYR:539:CG:9843, V-B:MET:535:CE:9806, H-B:TYR:539:OH:9849, V-B:TYR:539:CZ:9848, V-B:PRO:540:CB:9856, H-A:GLY:454:N:4049, V-B:TYR:539:CA:9840, V-B:TYR:539:CD1:9844, V-B:TYR:531:CZ:9765, V-B:TYR:531:CE2:9764, V-B:LEU:363:CD1:8159, V-A:ARG:545:CZ:4925, H-A:ASP:366:OD2:3214, H-A:ARG:545:NH1:4926, H-A:ARG:545:NH2:4927, V-B:ILE:538:CA:9831, H-A:ARG:545:NE:4923, H-A:ASP:366:OD1:3213, V-B:MET:535:CG:9804, V-A:ILE:369:CB:3235"]

$$$$
3cj_Grossjean_2025
     RDKit          3D

 39 41  0  0  0  0  0  0  0  0999 V2000
  129.5200  121.6350   62.4700 C   0  0  0  0  0  0  0  0  0  0  0  0
  129.5240  122.4330   61.1810 C   0  0  0  0  0  0  0  0  0  0  0  0
  128.4570  122.3780   60.2870 C   0  0  0  0  0  0  0  0  0  0  0  0
  128.4930  123.1510   59.1180 C   0  0  0  0  0  0  0  0  0  0  0  0
  127.3010  123.1110   58.2210 C   0  0  0  0  0  0  0  0  0  0  0  0
  127.3510  122.4240   57.0030 C   0  0  0  0  0  0  0  0  0  0  0  0
  126.2420  122.3980   56.1610 C   0  0  0  0  0  0  0  0  0  0  0  0
  125.0790  123.0650   56.5330 C   0  0  0  0  0  0  0  0  0  0  0  0
  125.0170  123.7610   57.7380 C   0  0  0  0  0  0  0  0  0  0  0  0
  126.1270  123.7850   58.5780 C   0  0  0  0  0  0  0  0  0  0  0  0
  129.6400  123.9440   58.8690 C   0  0  0  0  0  0  0  0  0  0  0  0
  129.7490  124.7520   57.6500 C   0  0  0  0  0  0  0  0  0  0  0  0
  129.8340  125.3910   56.6880 N   0  0  0  0  0  0  0  0  0  0  0  0
  130.6730  123.9430   59.8330 C   0  0  0  0  0  0  0  0  0  0  0  0
  132.1050  124.9940   59.7090 S   0  0  0  0  0  0  0  0  0  0  0  0
  133.4360  124.0700   60.5410 C   0  0  0  0  0  0  0  0  0  0  0  0
  133.2440  124.0360   62.0610 C   0  0  0  0  0  0  0  0  0  0  0  0
  133.2970  122.9580   62.6560 O   0  0  0  0  0  0  0  0  0  0  0  0
  133.0620  125.2390   62.6480 N   0  0  0  0  0  0  0  0  0  0  0  0
  133.0000  125.4950   64.0080 C   0  0  0  0  0  0  0  0  0  0  0  0
  133.9760  125.4360   64.8870 N   0  0  0  0  0  0  0  0  0  0  0  0
  133.5630  125.7750   66.0920 C   0  0  0  0  0  0  0  0  0  0  0  0
  132.2190  126.1190   66.2090 C   0  0  0  0  0  0  0  0  0  0  0  0
  131.4640  125.9870   64.6480 S   0  0  0  0  0  0  0  0  0  0  0  0
  130.6110  123.2090   60.9720 N   0  0  0  0  0  0  0  0  0  0  0  0
  129.5235  122.3238   63.3277 H   0  0  0  0  0  0  0  0  0  0  0  0
  128.6187  121.0056   62.5088 H   0  0  0  0  0  0  0  0  0  0  0  0
  130.4150  120.9966   62.5088 H   0  0  0  0  0  0  0  0  0  0  0  0
  127.5917  121.7321   60.4970 H   0  0  0  0  0  0  0  0  0  0  0  0
  128.2727  121.9008   56.7085 H   0  0  0  0  0  0  0  0  0  0  0  0
  126.2853  121.8528   55.2066 H   0  0  0  0  0  0  0  0  0  0  0  0
  124.2014  123.0425   55.8702 H   0  0  0  0  0  0  0  0  0  0  0  0
  124.0956  124.2891   58.0245 H   0  0  0  0  0  0  0  0  0  0  0  0
  126.0813  124.3371   59.5283 H   0  0  0  0  0  0  0  0  0  0  0  0
  133.4442  123.0380   60.1604 H   0  0  0  0  0  0  0  0  0  0  0  0
  134.3881  124.5784   60.3289 H   0  0  0  0  0  0  0  0  0  0  0  0
  133.0560  126.0520   62.0480 H   0  0  0  0  0  0  0  0  0  0  0  0
  134.2424  125.7855   66.9570 H   0  0  0  0  0  0  0  0  0  0  0  0
  131.7161  126.4248   67.1383 H   0  0  0  0  0  0  0  0  0  0  0  0
  1  2  1  0
  2  3  2  0
  3  4  1  0
  4  5  1  0
  5  6  2  0
  6  7  1  0
  7  8  2  0
  8  9  1  0
  9 10  2  0
  4 11  2  0
 11 12  1  0
 12 13  3  0
 11 14  1  0
 14 15  1  0
 15 16  1  0
 16 17  1  0
 17 18  2  0
 17 19  1  0
 19 20  1  0
 20 21  2  0
 21 22  1  0
 22 23  2  0
 23 24  1  0
 14 25  2  0
 25  2  1  0
 10  5  1  0
 24 20  1  0
  1 26  1  0
  1 27  1  0
  1 28  1  0
  3 29  1  0
  6 30  1  0
  7 31  1  0
  8 32  1  0
  9 33  1  0
 10 34  1  0
 16 35  1  0
 16 36  1  0
 19 37  1  0
 22 38  1  0
 23 39  1  0
M  END
>  <Binding energies>  (1) 
[-8.18]

>  <Ligand effiencies>  (1) 
[-0.31461538461538463]

>  <Interactions>  (1) 
["V-A:ASP:366:CG:3212, V-B:PRO:540:N:9855, H-A:TYR:484:OH:4347, V-B:ALA:541:CB:9863, V-B:PRO:540:CA:9854, V-B:ALA:541:CA:9861, V-B:TYR:539:C:9838, V-A:ILE:369:CD1:3238, V-B:TYR:539:CD2:9845, V-A:ILE:369:CG2:3236, V-B:TYR:539:CE2:9847, V-B:TYR:539:CG:9843, V-B:MET:535:CE:9806, H-B:TYR:539:OH:9849, V-B:TYR:539:CZ:9848, V-B:PRO:540:CB:9856, H-A:GLY:454:N:4049, V-B:TYR:539:CA:9840, V-A:ARG:545:CD:4922, V-B:TYR:539:CD1:9844, V-B:TYR:531:CZ:9765, V-B:PRO:540:CD:9858, V-B:TYR:531:CE2:9764, V-B:LEU:363:CD1:8159, V-A:ARG:545:CZ:4925, H-A:ASP:366:OD2:3214, H-A:ARG:545:NH1:4926, H-A:ARG:545:NH2:4927, V-B:ILE:538:CA:9831, H-A:ARG:545:NE:4923, H-A:ASP:366:OD1:3213"]

$$$$
3ck_Grossjean_2025
     RDKit          3D

 57 58  0  0  0  0  0  0  0  0999 V2000
  125.5530  122.3290   55.7580 C   0  0  0  0  0  0  0  0  0  0  0  0
  126.8680  122.0030   56.1800 O   0  0  0  0  0  0  0  0  0  0  0  0
  127.1530  122.4090   57.5110 C   0  0  0  0  0  0  0  0  0  0  0  0
  128.2830  123.4460   57.5000 C   0  0  0  0  0  0  0  0  0  0  0  0
  129.0780  123.2870   58.6680 O   0  0  0  0  0  0  0  0  0  0  0  0
  129.9130  124.4020   58.9550 C   0  0  0  0  0  0  0  0  0  0  0  0
  130.9610  123.9890   59.9950 C   0  0  0  0  0  0  0  0  0  0  0  0
  132.0960  124.8280   59.8430 O   0  0  0  0  0  0  0  0  0  0  0  0
  133.3460  124.1750   60.0080 C   0  0  0  0  0  0  0  0  0  0  0  0
  133.7430  124.1900   61.4970 C   0  0  0  0  0  0  0  0  0  0  0  0
  132.7050  124.7310   62.3790 N   0  0  0  0  0  0  0  0  0  0  0  0
  132.8900  125.1510   63.6430 C   0  0  0  0  0  0  0  0  0  0  0  0
  133.9890  125.1480   64.2020 O   0  0  0  0  0  0  0  0  0  0  0  0
  131.6290  125.6500   64.3670 C   0  0  0  0  0  0  0  0  0  0  0  0
  130.5080  124.3440   64.9770 S   0  0  0  0  0  0  0  0  0  0  0  0
  130.0300  123.2970   63.6110 C   0  0  0  0  0  0  0  0  0  0  0  0
  128.8210  123.5690   63.0600 N   0  0  0  0  0  0  0  0  0  0  0  0
  128.3930  122.8130   62.0240 C   0  0  0  0  0  0  0  0  0  0  0  0
  127.0320  123.1740   61.4620 C   0  0  0  0  0  0  0  0  0  0  0  0
  129.1450  121.7640   61.4990 C   0  0  0  0  0  0  0  0  0  0  0  0
  130.3940  121.4620   62.0570 C   0  0  0  0  0  0  0  0  0  0  0  0
  131.1550  120.3140   61.4770 C   0  0  0  0  0  0  0  0  0  0  0  0
  132.3990  120.5290   60.8730 C   0  0  0  0  0  0  0  0  0  0  0  0
  133.1100  119.4640   60.3210 C   0  0  0  0  0  0  0  0  0  0  0  0
  132.5740  118.1810   60.3680 C   0  0  0  0  0  0  0  0  0  0  0  0
  131.3330  117.9520   60.9580 C   0  0  0  0  0  0  0  0  0  0  0  0
  130.6260  119.0180   61.5080 C   0  0  0  0  0  0  0  0  0  0  0  0
  130.8610  122.2550   63.1360 C   0  0  0  0  0  0  0  0  0  0  0  0
  132.1790  122.0110   63.7320 C   0  0  0  0  0  0  0  0  0  0  0  0
  133.2190  121.8180   64.2010 N   0  0  0  0  0  0  0  0  0  0  0  0
  124.9139  122.4875   56.6391 H   0  0  0  0  0  0  0  0  0  0  0  0
  125.5790  123.2479   55.1539 H   0  0  0  0  0  0  0  0  0  0  0  0
  125.1468  121.5044   55.1539 H   0  0  0  0  0  0  0  0  0  0  0  0
  126.2522  122.8535   57.9593 H   0  0  0  0  0  0  0  0  0  0  0  0
  127.4643  121.5348   58.1016 H   0  0  0  0  0  0  0  0  0  0  0  0
  128.9083  123.2987   56.6071 H   0  0  0  0  0  0  0  0  0  0  0  0
  127.8537  124.4586   57.4814 H   0  0  0  0  0  0  0  0  0  0  0  0
  130.4173  124.7312   58.0345 H   0  0  0  0  0  0  0  0  0  0  0  0
  129.3045  125.2289   59.3500 H   0  0  0  0  0  0  0  0  0  0  0  0
  130.5460  124.1047   61.0071 H   0  0  0  0  0  0  0  0  0  0  0  0
  131.2458  122.9367   59.8482 H   0  0  0  0  0  0  0  0  0  0  0  0
  133.2643  123.1343   59.6611 H   0  0  0  0  0  0  0  0  0  0  0  0
  134.1132  124.6994   59.4195 H   0  0  0  0  0  0  0  0  0  0  0  0
  133.9600  123.1577   61.8088 H   0  0  0  0  0  0  0  0  0  0  0  0
  134.6185  124.8496   61.5892 H   0  0  0  0  0  0  0  0  0  0  0  0
  131.7740  124.7820   61.9900 H   0  0  0  0  0  0  0  0  0  0  0  0
  131.9490  126.2528   65.2297 H   0  0  0  0  0  0  0  0  0  0  0  0
  131.0550  126.2177   63.6198 H   0  0  0  0  0  0  0  0  0  0  0  0
  126.3312  123.3599   62.2893 H   0  0  0  0  0  0  0  0  0  0  0  0
  127.1189  124.0802   60.8445 H   0  0  0  0  0  0  0  0  0  0  0  0
  126.6584  122.3439   60.8445 H   0  0  0  0  0  0  0  0  0  0  0  0
  128.7605  121.1769   60.6520 H   0  0  0  0  0  0  0  0  0  0  0  0
  132.8188  121.5450   60.8334 H   0  0  0  0  0  0  0  0  0  0  0  0
  134.0893  119.6373   59.8510 H   0  0  0  0  0  0  0  0  0  0  0  0
  133.1353  117.3397   59.9353 H   0  0  0  0  0  0  0  0  0  0  0  0
  130.9142  116.9353   60.9892 H   0  0  0  0  0  0  0  0  0  0  0  0
  129.6439  118.8405   61.9706 H   0  0  0  0  0  0  0  0  0  0  0  0
  1  2  1  0
  2  3  1  0
  3  4  1  0
  4  5  1  0
  5  6  1  0
  6  7  1  0
  7  8  1  0
  8  9  1  0
  9 10  1  0
 10 11  1  0
 11 12  1  0
 12 13  2  0
 12 14  1  0
 14 15  1  0
 15 16  1  0
 16 17  2  0
 17 18  1  0
 18 19  1  0
 18 20  2  0
 20 21  1  0
 21 22  1  0
 22 23  2  0
 23 24  1  0
 24 25  2  0
 25 26  1  0
 26 27  2  0
 21 28  2  0
 28 29  1  0
 29 30  3  0
 28 16  1  0
 27 22  1  0
  1 31  1  0
  1 32  1  0
  1 33  1  0
  3 34  1  0
  3 35  1  0
  4 36  1  0
  4 37  1  0
  6 38  1  0
  6 39  1  0
  7 40  1  0
  7 41  1  0
  9 42  1  0
  9 43  1  0
 10 44  1  0
 10 45  1  0
 11 46  1  0
 14 47  1  0
 14 48  1  0
 19 49  1  0
 19 50  1  0
 19 51  1  0
 20 52  1  0
 23 53  1  0
 24 54  1  0
 25 55  1  0
 26 56  1  0
 27 57  1  0
M  END
>  <Binding energies>  (1) 
[-7.47]

>  <Ligand effiencies>  (1) 
[-0.24096774193548387]

>  <Interactions>  (1) 
["V-A:ASP:366:CG:3212, V-A:ASP:366:CB:3211, V-B:PRO:540:N:9855, H-A:TYR:484:OH:4347, V-B:ALA:541:CB:9863, V-B:PRO:540:CA:9854, V-B:PRO:540:C:9852, V-B:TYR:539:C:9838, V-A:LEU:475:CD2:4258, V-A:ILE:369:CD1:3238, V-B:TYR:539:CD2:9845, V-A:ILE:369:CG2:3236, V-B:TYR:539:CE2:9847, V-A:SER:385:CA:3406, V-A:SER:385:CB:3408, V-A:GLY:454:CA:4048, H-B:TYR:539:N:9841, V-B:MET:535:CE:9806, V-B:TYR:539:CZ:9848, H-A:GLY:454:N:4049, V-B:TYR:539:CA:9840, V-B:PRO:540:CD:9858, V-B:TYR:531:CE2:9764, V-B:LEU:363:CD1:8159, V-B:ILE:538:CD1:9836, V-B:ILE:538:CG2:9834, H-A:ASP:366:OD2:3214, H-A:ARG:545:NH1:4926, H-A:ARG:545:NH2:4927, V-B:ILE:538:CA:9831, V-A:ILE:369:CB:3235"]

$$$$
4aa_Grossjean_2025
     RDKit          3D

 45 47  0  0  0  0  0  0  0  0999 V2000
  124.2490  124.3330   57.7670 C   0  0  0  0  0  0  0  0  0  0  0  0
  124.7490  122.9710   57.2760 C   0  0  0  0  0  0  0  0  0  0  0  0
  125.7170  123.1650   56.2530 O   0  0  0  0  0  0  0  0  0  0  0  0
  126.9560  122.6170   56.3470 C   0  0  0  0  0  0  0  0  0  0  0  0
  127.3760  121.7460   55.5770 O   0  0  0  0  0  0  0  0  0  0  0  0
  127.7660  123.1710   57.4830 C   0  0  0  0  0  0  0  0  0  0  0  0
  127.7830  122.4900   58.7070 C   0  0  0  0  0  0  0  0  0  0  0  0
  128.5190  122.9820   59.7820 C   0  0  0  0  0  0  0  0  0  0  0  0
  129.2610  124.1570   59.6520 C   0  0  0  0  0  0  0  0  0  0  0  0
  129.9610  124.5680   60.8020 N   0  0  0  0  0  0  0  0  0  0  0  0
  130.2430  125.8130   61.2560 C   0  0  0  0  0  0  0  0  0  0  0  0
  129.9410  126.8500   60.6630 O   0  0  0  0  0  0  0  0  0  0  0  0
  130.9740  125.8660   62.5230 C   0  0  0  0  0  0  0  0  0  0  0  0
  132.6400  125.2890   62.6150 S   0  0  0  0  0  0  0  0  0  0  0  0
  132.7160  125.6400   64.3260 C   0  0  0  0  0  0  0  0  0  0  0  0
  133.8150  125.4050   65.0460 N   0  0  0  0  0  0  0  0  0  0  0  0
  133.7400  125.7180   66.3630 C   0  0  0  0  0  0  0  0  0  0  0  0
  134.9990  125.4390   67.1650 C   0  0  0  0  0  0  0  0  0  0  0  0
  132.6080  126.2570   66.9690 C   0  0  0  0  0  0  0  0  0  0  0  0
  131.4580  126.5020   66.2110 C   0  0  0  0  0  0  0  0  0  0  0  0
  130.2460  127.0910   66.9180 C   0  0  0  0  0  0  0  0  0  0  0  0
  131.4950  126.1830   64.8270 C   0  0  0  0  0  0  0  0  0  0  0  0
  130.5170  126.2980   63.7780 C   0  0  0  0  0  0  0  0  0  0  0  0
  129.2570  126.7910   64.0050 N   0  0  0  0  0  0  0  0  0  0  0  0
  129.2460  124.8490   58.4320 C   0  0  0  0  0  0  0  0  0  0  0  0
  128.5050  124.3580   57.3600 C   0  0  0  0  0  0  0  0  0  0  0  0
  124.2439  124.3470   58.8669 H   0  0  0  0  0  0  0  0  0  0  0  0
  124.9152  125.1246   57.3934 H   0  0  0  0  0  0  0  0  0  0  0  0
  123.2289  124.5056   57.3934 H   0  0  0  0  0  0  0  0  0  0  0  0
  125.2051  122.4235   58.1140 H   0  0  0  0  0  0  0  0  0  0  0  0
  123.9038  122.3908   56.8773 H   0  0  0  0  0  0  0  0  0  0  0  0
  127.2097  121.5580   58.8201 H   0  0  0  0  0  0  0  0  0  0  0  0
  128.5155  122.4411   60.7398 H   0  0  0  0  0  0  0  0  0  0  0  0
  130.3170  123.8060   61.3630 H   0  0  0  0  0  0  0  0  0  0  0  0
  134.7682  125.4901   68.2393 H   0  0  0  0  0  0  0  0  0  0  0  0
  135.3760  124.4355   66.9183 H   0  0  0  0  0  0  0  0  0  0  0  0
  135.7647  126.1893   66.9183 H   0  0  0  0  0  0  0  0  0  0  0  0
  132.6181  126.4902   68.0440 H   0  0  0  0  0  0  0  0  0  0  0  0
  130.3873  127.0223   68.0067 H   0  0  0  0  0  0  0  0  0  0  0  0
  130.1299  128.1460   66.6292 H   0  0  0  0  0  0  0  0  0  0  0  0
  129.3447  126.5304   66.6292 H   0  0  0  0  0  0  0  0  0  0  0  0
  128.7520  126.5930   64.8570 H   0  0  0  0  0  0  0  0  0  0  0  0
  128.7880  127.3710   63.3220 H   0  0  0  0  0  0  0  0  0  0  0  0
  129.8203  125.7807   58.3219 H   0  0  0  0  0  0  0  0  0  0  0  0
  128.4988  124.9064   56.4065 H   0  0  0  0  0  0  0  0  0  0  0  0
  1  2  1  0
  2  3  1  0
  3  4  1  0
  4  5  2  0
  4  6  1  0
  6  7  2  0
  7  8  1  0
  8  9  2  0
  9 10  1  0
 10 11  1  0
 11 12  2  0
 11 13  1  0
 13 14  1  0
 14 15  1  0
 15 16  2  0
 16 17  1  0
 17 18  1  0
 17 19  2  0
 19 20  1  0
 20 21  1  0
 20 22  2  0
 22 23  1  0
 23 24  1  0
  9 25  1  0
 25 26  2  0
 26  6  1  0
 23 13  2  0
 22 15  1  0
  1 27  1  0
  1 28  1  0
  1 29  1  0
  2 30  1  0
  2 31  1  0
  7 32  1  0
  8 33  1  0
 10 34  1  0
 18 35  1  0
 18 36  1  0
 18 37  1  0
 19 38  1  0
 21 39  1  0
 21 40  1  0
 21 41  1  0
 24 42  1  0
 24 43  1  0
 25 44  1  0
 26 45  1  0
M  END
>  <Binding energies>  (1) 
[-8.14]

>  <Ligand effiencies>  (1) 
[-0.2806896551724138]

>  <Interactions>  (1) 
["V-A:ASP:366:CG:3212, V-B:GLU:543:CD:9879, V-B:PRO:540:N:9855, H-A:TYR:484:OH:4347, V-B:PRO:540:CA:9854, H-B:GLU:543:OE2:9881, H-B:GLU:543:OE1:9880, V-B:TYR:539:C:9838, V-B:TYR:539:CD2:9845, V-B:TYR:539:CE2:9847, V-A:GLY:454:CA:4048, H-B:TYR:539:N:9841, V-B:MET:535:CE:9806, V-B:TYR:539:CZ:9848, V-B:PRO:540:CB:9856, H-A:GLY:454:N:4049, V-A:GLY:453:C:4041, V-A:ARG:545:CD:4922, V-B:TYR:531:CZ:9765, V-B:PRO:540:CD:9858, V-B:TYR:531:CE2:9764, V-B:LEU:363:CD1:8159, V-A:ARG:545:CZ:4925, V-A:ARG:545:CG:4921, V-A:HIS:456:CE1:4069, V-A:GLU:543:CD:4907, H-A:ARG:545:NH2:4927, V-A:GLY:453:CA:4043, H-A:ARG:545:NE:4923, H-B:TYR:531:OH:9766, V-B:PRO:540:CG:9857, V-A:ILE:455:C:4051, V-A:GLY:454:C:4046"]

$$$$
4ab_Grossjean_2025
     RDKit          3D

 42 44  0  0  0  0  0  0  0  0999 V2000
  124.6670  123.4900   57.3450 C   0  0  0  0  0  0  0  0  0  0  0  0
  125.6910  123.5520   56.3620 O   0  0  0  0  0  0  0  0  0  0  0  0
  126.8450  122.8530   56.5100 C   0  0  0  0  0  0  0  0  0  0  0  0
  127.2320  121.9990   55.7050 O   0  0  0  0  0  0  0  0  0  0  0  0
  127.6030  123.2170   57.7540 C   0  0  0  0  0  0  0  0  0  0  0  0
  128.7130  124.0660   57.6540 C   0  0  0  0  0  0  0  0  0  0  0  0
  129.4380  124.4200   58.7890 C   0  0  0  0  0  0  0  0  0  0  0  0
  129.0630  123.9430   60.0450 C   0  0  0  0  0  0  0  0  0  0  0  0
  129.8700  124.3580   61.1210 N   0  0  0  0  0  0  0  0  0  0  0  0
  130.9310  125.2020   61.1430 C   0  0  0  0  0  0  0  0  0  0  0  0
  131.4080  125.7410   60.1440 O   0  0  0  0  0  0  0  0  0  0  0  0
  131.5190  125.4300   62.4640 C   0  0  0  0  0  0  0  0  0  0  0  0
  133.2030  125.0020   62.7750 S   0  0  0  0  0  0  0  0  0  0  0  0
  133.0750  125.5140   64.4420 C   0  0  0  0  0  0  0  0  0  0  0  0
  134.1050  125.4360   65.2860 N   0  0  0  0  0  0  0  0  0  0  0  0
  133.8720  125.8630   66.5510 C   0  0  0  0  0  0  0  0  0  0  0  0
  135.0550  125.7610   67.4960 C   0  0  0  0  0  0  0  0  0  0  0  0
  132.6480  126.3640   66.9870 C   0  0  0  0  0  0  0  0  0  0  0  0
  131.5690  126.4440   66.0990 C   0  0  0  0  0  0  0  0  0  0  0  0
  130.2520  126.9970   66.6230 C   0  0  0  0  0  0  0  0  0  0  0  0
  131.7730  126.0020   64.7640 C   0  0  0  0  0  0  0  0  0  0  0  0
  130.9050  125.9370   63.6200 C   0  0  0  0  0  0  0  0  0  0  0  0
  129.5950  126.3430   63.6720 N   0  0  0  0  0  0  0  0  0  0  0  0
  127.9560  123.0880   60.1540 C   0  0  0  0  0  0  0  0  0  0  0  0
  127.2340  122.7330   59.0180 C   0  0  0  0  0  0  0  0  0  0  0  0
  125.1189  123.5174   58.3475 H   0  0  0  0  0  0  0  0  0  0  0  0
  123.9904  124.3488   57.2243 H   0  0  0  0  0  0  0  0  0  0  0  0
  124.0989  122.5558   57.2243 H   0  0  0  0  0  0  0  0  0  0  0  0
  129.0143  124.4562   56.6707 H   0  0  0  0  0  0  0  0  0  0  0  0
  130.3126  125.0804   58.6944 H   0  0  0  0  0  0  0  0  0  0  0  0
  129.6170  123.9480   62.0070 H   0  0  0  0  0  0  0  0  0  0  0  0
  134.6974  125.7918   68.5358 H   0  0  0  0  0  0  0  0  0  0  0  0
  135.5854  124.8138   67.3186 H   0  0  0  0  0  0  0  0  0  0  0  0
  135.7397  126.6034   67.3186 H   0  0  0  0  0  0  0  0  0  0  0  0
  132.5292  126.6967   68.0287 H   0  0  0  0  0  0  0  0  0  0  0  0
  130.2639  126.9920   67.7229 H   0  0  0  0  0  0  0  0  0  0  0  0
  130.1177  128.0275   66.2625 H   0  0  0  0  0  0  0  0  0  0  0  0
  129.4222  126.3713   66.2625 H   0  0  0  0  0  0  0  0  0  0  0  0
  129.1040  126.4510   64.5470 H   0  0  0  0  0  0  0  0  0  0  0  0
  129.0740  126.5440   62.8290 H   0  0  0  0  0  0  0  0  0  0  0  0
  127.6582  122.6977   61.1384 H   0  0  0  0  0  0  0  0  0  0  0  0
  126.3646  122.0657   59.1125 H   0  0  0  0  0  0  0  0  0  0  0  0
  1  2  1  0
  2  3  1  0
  3  4  2  0
  3  5  1  0
  5  6  2  0
  6  7  1  0
  7  8  2  0
  8  9  1  0
  9 10  1  0
 10 11  2  0
 10 12  1  0
 12 13  1  0
 13 14  1  0
 14 15  2  0
 15 16  1  0
 16 17  1  0
 16 18  2  0
 18 19  1  0
 19 20  1  0
 19 21  2  0
 21 22  1  0
 22 23  1  0
  8 24  1  0
 24 25  2  0
 25  5  1  0
 22 12  2  0
 21 14  1  0
  1 26  1  0
  1 27  1  0
  1 28  1  0
  6 29  1  0
  7 30  1  0
  9 31  1  0
 17 32  1  0
 17 33  1  0
 17 34  1  0
 18 35  1  0
 20 36  1  0
 20 37  1  0
 20 38  1  0
 23 39  1  0
 23 40  1  0
 24 41  1  0
 25 42  1  0
M  END
>  <Binding energies>  (1) 
[-7.97]

>  <Ligand effiencies>  (1) 
[-0.28464285714285714]

>  <Interactions>  (1) 
["V-A:ASP:366:CG:3212, V-B:GLU:543:CD:9879, V-B:PRO:540:N:9855, H-A:TYR:484:OH:4347, V-B:PRO:540:CA:9854, H-B:GLU:543:OE2:9881, H-B:GLU:543:OE1:9880, V-B:TYR:539:C:9838, V-B:TYR:539:CE2:9847, H-B:TYR:539:N:9841, V-B:MET:535:CE:9806, V-B:TYR:539:CZ:9848, V-B:PRO:540:CB:9856, H-A:GLY:454:N:4049, V-A:GLY:453:C:4041, V-A:ARG:545:CD:4922, V-B:TYR:531:CE2:9764, V-B:LEU:363:CD1:8159, V-A:ARG:545:CZ:4925, V-A:ARG:545:CG:4921, V-A:HIS:456:CE1:4069, V-A:GLU:543:CD:4907, H-A:ARG:545:NH1:4926, V-A:GLY:453:CA:4043, H-A:ARG:545:NE:4923, H-B:TYR:531:OH:9766, V-A:ILE:455:C:4051, V-A:ARG:545:CB:4920"]

$$$$
4ac_Grossjean_2025
     RDKit          3D

 40 42  0  0  0  0  0  0  0  0999 V2000
  133.6330  126.1070   66.7230 C   0  0  0  0  0  0  0  0  0  0  0  0
  133.8830  125.3740   65.5280 O   0  0  0  0  0  0  0  0  0  0  0  0
  132.8400  125.1250   64.6580 C   0  0  0  0  0  0  0  0  0  0  0  0
  133.1520  124.4170   63.4980 C   0  0  0  0  0  0  0  0  0  0  0  0
  132.1650  124.1180   62.5630 C   0  0  0  0  0  0  0  0  0  0  0  0
  130.8460  124.5170   62.7820 C   0  0  0  0  0  0  0  0  0  0  0  0
  129.9200  124.1820   61.7760 N   0  0  0  0  0  0  0  0  0  0  0  0
  128.6260  123.7980   61.8950 C   0  0  0  0  0  0  0  0  0  0  0  0
  128.0500  123.6460   62.9740 O   0  0  0  0  0  0  0  0  0  0  0  0
  127.9240  123.5560   60.6330 C   0  0  0  0  0  0  0  0  0  0  0  0
  128.7530  122.7740   59.2870 S   0  0  0  0  0  0  0  0  0  0  0  0
  127.3240  122.8780   58.2840 C   0  0  0  0  0  0  0  0  0  0  0  0
  127.3040  122.4150   57.0330 N   0  0  0  0  0  0  0  0  0  0  0  0
  126.1340  122.5570   56.3650 C   0  0  0  0  0  0  0  0  0  0  0  0
  126.1310  122.0240   54.9440 C   0  0  0  0  0  0  0  0  0  0  0  0
  124.9960  123.1480   56.9110 C   0  0  0  0  0  0  0  0  0  0  0  0
  125.0210  123.6330   58.2240 C   0  0  0  0  0  0  0  0  0  0  0  0
  123.7540  124.2690   58.7750 C   0  0  0  0  0  0  0  0  0  0  0  0
  126.2300  123.4990   58.9570 C   0  0  0  0  0  0  0  0  0  0  0  0
  126.5990  123.8750   60.2950 C   0  0  0  0  0  0  0  0  0  0  0  0
  125.7200  124.4900   61.1510 N   0  0  0  0  0  0  0  0  0  0  0  0
  130.5260  125.2400   63.9400 C   0  0  0  0  0  0  0  0  0  0  0  0
  131.5160  125.5380   64.8730 C   0  0  0  0  0  0  0  0  0  0  0  0
  133.8496  125.4720   67.5947 H   0  0  0  0  0  0  0  0  0  0  0  0
  134.2782  126.9975   66.7487 H   0  0  0  0  0  0  0  0  0  0  0  0
  132.5781  126.4177   66.7487 H   0  0  0  0  0  0  0  0  0  0  0  0
  134.1876  124.0917   63.3201 H   0  0  0  0  0  0  0  0  0  0  0  0
  132.4258  123.5653   61.6484 H   0  0  0  0  0  0  0  0  0  0  0  0
  130.2940  124.2050   60.8380 H   0  0  0  0  0  0  0  0  0  0  0  0
  126.1248  120.9242   54.9649 H   0  0  0  0  0  0  0  0  0  0  0  0
  125.2349  122.3858   54.4186 H   0  0  0  0  0  0  0  0  0  0  0  0
  127.0311  122.3757   54.4186 H   0  0  0  0  0  0  0  0  0  0  0  0
  124.0784  123.2333   56.3104 H   0  0  0  0  0  0  0  0  0  0  0  0
  123.7843  124.2538   59.8745 H   0  0  0  0  0  0  0  0  0  0  0  0
  123.6836  125.3093   58.4245 H   0  0  0  0  0  0  0  0  0  0  0  0
  122.8777  123.7039   58.4245 H   0  0  0  0  0  0  0  0  0  0  0  0
  125.8350  124.4510   62.1530 H   0  0  0  0  0  0  0  0  0  0  0  0
  124.9250  125.0080   60.8020 H   0  0  0  0  0  0  0  0  0  0  0  0
  129.4915  125.5723   64.1117 H   0  0  0  0  0  0  0  0  0  0  0  0
  131.2590  126.0999   65.7831 H   0  0  0  0  0  0  0  0  0  0  0  0
  1  2  1  0
  2  3  1  0
  3  4  2  0
  4  5  1  0
  5  6  2  0
  6  7  1  0
  7  8  1  0
  8  9  2  0
  8 10  1  0
 10 11  1  0
 11 12  1  0
 12 13  2  0
 13 14  1  0
 14 15  1  0
 14 16  2  0
 16 17  1  0
 17 18  1  0
 17 19  2  0
 19 20  1  0
 20 21  1  0
  6 22  1  0
 22 23  2  0
 23  3  1  0
 20 10  2  0
 19 12  1  0
  1 24  1  0
  1 25  1  0
  1 26  1  0
  4 27  1  0
  5 28  1  0
  7 29  1  0
 15 30  1  0
 15 31  1  0
 15 32  1  0
 16 33  1  0
 18 34  1  0
 18 35  1  0
 18 36  1  0
 21 37  1  0
 21 38  1  0
 22 39  1  0
 23 40  1  0
M  END
>  <Binding energies>  (1) 
[-7.4]

>  <Ligand effiencies>  (1) 
[-0.2846153846153846]

>  <Interactions>  (1) 
["V-B:PRO:540:N:9855, H-A:TYR:484:OH:4347, V-B:PRO:540:CA:9854, H-B:GLU:543:OE1:9880, V-B:TYR:539:C:9838, V-B:TYR:539:CD2:9845, V-B:TYR:539:CE2:9847, H-B:TYR:539:N:9841, V-B:MET:535:CE:9806, V-B:PRO:540:CB:9856, H-A:GLY:454:N:4049, V-A:ARG:545:CD:4922, V-B:PRO:540:CD:9858, V-B:TYR:531:CE2:9764, V-B:LEU:363:CD1:8159, V-A:ARG:545:CZ:4925, V-B:ILE:538:CD1:9836, V-A:ARG:545:CG:4921, V-B:ILE:538:CG2:9834, V-B:ILE:538:CA:9831, V-B:ILE:538:CG1:9835, V-B:ILE:538:C:9829, V-B:ILE:538:CB:9833, H-A:ARG:545:NE:4923, V-B:ASP:366:CB:8182, V-B:ASP:366:CG:8183, V-B:MET:535:CG:9804, V-B:LEU:363:CA:8155, V-B:VAL:537:C:9821, H-B:ASP:366:OD1:8184"]

$$$$
4ad_Grossjean_2025
     RDKit          3D

 36 38  0  0  0  0  0  0  0  0999 V2000
  126.2300  122.0060   54.7480 C   0  0  0  0  0  0  0  0  0  0  0  0
  126.0980  122.5220   56.1690 C   0  0  0  0  0  0  0  0  0  0  0  0
  124.9350  123.1590   56.5960 C   0  0  0  0  0  0  0  0  0  0  0  0
  124.8370  123.6300   57.9110 C   0  0  0  0  0  0  0  0  0  0  0  0
  123.5480  124.3210   58.3300 C   0  0  0  0  0  0  0  0  0  0  0  0
  125.9510  123.4330   58.7700 C   0  0  0  0  0  0  0  0  0  0  0  0
  126.1880  123.7790   60.1460 C   0  0  0  0  0  0  0  0  0  0  0  0
  125.2470  124.4230   60.9100 N   0  0  0  0  0  0  0  0  0  0  0  0
  127.4540  123.3990   60.6210 C   0  0  0  0  0  0  0  0  0  0  0  0
  128.0280  123.6070   61.9510 C   0  0  0  0  0  0  0  0  0  0  0  0
  127.4850  123.1320   62.9510 O   0  0  0  0  0  0  0  0  0  0  0  0
  129.1740  124.3310   61.9830 N   0  0  0  0  0  0  0  0  0  0  0  0
  129.9440  124.7400   63.0880 C   0  0  0  0  0  0  0  0  0  0  0  0
  130.8660  123.8060   63.5710 C   0  0  0  0  0  0  0  0  0  0  0  0
  131.6820  124.1190   64.6540 C   0  0  0  0  0  0  0  0  0  0  0  0
  131.5830  125.3730   65.2520 C   0  0  0  0  0  0  0  0  0  0  0  0
  130.6790  126.3170   64.7720 C   0  0  0  0  0  0  0  0  0  0  0  0
  129.8610  126.0060   63.6900 C   0  0  0  0  0  0  0  0  0  0  0  0
  128.3880  122.5900   59.3620 S   0  0  0  0  0  0  0  0  0  0  0  0
  127.0840  122.7680   58.2110 C   0  0  0  0  0  0  0  0  0  0  0  0
  127.1800  122.3180   56.9590 N   0  0  0  0  0  0  0  0  0  0  0  0
  126.5026  120.9405   54.7687 H   0  0  0  0  0  0  0  0  0  0  0  0
  125.2714  122.1291   54.2227 H   0  0  0  0  0  0  0  0  0  0  0  0
  127.0117  122.5743   54.2227 H   0  0  0  0  0  0  0  0  0  0  0  0
  124.0936  123.2920   55.9001 H   0  0  0  0  0  0  0  0  0  0  0  0
  123.4891  124.3526   59.4280 H   0  0  0  0  0  0  0  0  0  0  0  0
  123.5358  125.3466   57.9325 H   0  0  0  0  0  0  0  0  0  0  0  0
  122.6871  123.7634   57.9325 H   0  0  0  0  0  0  0  0  0  0  0  0
  125.2550  124.3770   61.9190 H   0  0  0  0  0  0  0  0  0  0  0  0
  124.5130  124.9740   60.4850 H   0  0  0  0  0  0  0  0  0  0  0  0
  129.5480  124.6090   61.0880 H   0  0  0  0  0  0  0  0  0  0  0  0
  130.9466  122.8189   63.0924 H   0  0  0  0  0  0  0  0  0  0  0  0
  132.4015  123.3798   65.0358 H   0  0  0  0  0  0  0  0  0  0  0  0
  132.2245  125.6197   66.1109 H   0  0  0  0  0  0  0  0  0  0  0  0
  130.6115  127.3068   65.2472 H   0  0  0  0  0  0  0  0  0  0  0  0
  129.1494  126.7519   63.3063 H   0  0  0  0  0  0  0  0  0  0  0  0
  1  2  1  0
  2  3  2  0
  3  4  1  0
  4  5  1  0
  4  6  2  0
  6  7  1  0
  7  8  1  0
  7  9  2  0
  9 10  1  0
 10 11  2  0
 10 12  1  0
 12 13  1  0
 13 14  2  0
 14 15  1  0
 15 16  2  0
 16 17  1  0
 17 18  2  0
  9 19  1  0
 19 20  1  0
 20 21  2  0
 21  2  1  0
 20  6  1  0
 18 13  1  0
  1 22  1  0
  1 23  1  0
  1 24  1  0
  3 25  1  0
  5 26  1  0
  5 27  1  0
  5 28  1  0
  8 29  1  0
  8 30  1  0
 12 31  1  0
 14 32  1  0
 15 33  1  0
 16 34  1  0
 17 35  1  0
 18 36  1  0
M  END
>  <Binding energies>  (1) 
[-6.94]

>  <Ligand effiencies>  (1) 
[-0.2891666666666667]

>  <Interactions>  (1) 
["V-B:PRO:540:N:9855, H-B:ALA:541:N:9862, V-B:PRO:540:CA:9854, V-B:TYR:539:C:9838, V-B:TYR:539:CD2:9845, V-B:TYR:539:CE2:9847, H-B:TYR:539:N:9841, V-B:MET:535:CE:9806, V-B:PRO:540:CB:9856, V-B:TYR:531:CZ:9765, V-B:PRO:540:CD:9858, V-B:TYR:531:CE2:9764, V-B:LEU:363:CD1:8159, V-B:ILE:538:CD1:9836, V-B:ILE:538:CG2:9834, V-B:ILE:538:CA:9831, V-B:ILE:538:CG1:9835, V-B:ILE:538:C:9829, V-B:ILE:538:CB:9833, V-B:ASP:366:CB:8182, V-B:ASP:366:CG:8183, V-B:MET:535:CG:9804, V-B:LEU:363:CA:8155, V-B:VAL:537:C:9821, H-B:ASP:366:OD1:8184, V-B:LEU:363:CB:8157"]

$$$$
4ae_Grossjean_2025
     RDKit          3D

 38 40  0  0  0  0  0  0  0  0999 V2000
  126.5100  121.9990   55.1230 C   0  0  0  0  0  0  0  0  0  0  0  0
  126.0940  122.5770   56.4620 C   0  0  0  0  0  0  0  0  0  0  0  0
  124.7860  123.0090   56.6970 C   0  0  0  0  0  0  0  0  0  0  0  0
  124.4770  123.5380   57.9500 C   0  0  0  0  0  0  0  0  0  0  0  0
  125.4720  123.6230   58.9270 C   0  0  0  0  0  0  0  0  0  0  0  0
  126.7590  123.1640   58.6280 C   0  0  0  0  0  0  0  0  0  0  0  0
  127.7220  123.2950   59.6440 N   0  0  0  0  0  0  0  0  0  0  0  0
  127.5630  123.1610   60.9850 C   0  0  0  0  0  0  0  0  0  0  0  0
  126.4880  122.8970   61.5250 O   0  0  0  0  0  0  0  0  0  0  0  0
  128.7760  123.3570   61.7820 C   0  0  0  0  0  0  0  0  0  0  0  0
  128.9370  124.7700   62.8260 S   0  0  0  0  0  0  0  0  0  0  0  0
  130.5410  124.2820   63.3210 C   0  0  0  0  0  0  0  0  0  0  0  0
  131.2650  125.0020   64.1780 N   0  0  0  0  0  0  0  0  0  0  0  0
  132.4940  124.5160   64.4750 C   0  0  0  0  0  0  0  0  0  0  0  0
  133.3040  125.3550   65.4470 C   0  0  0  0  0  0  0  0  0  0  0  0
  133.0110  123.3360   63.9410 C   0  0  0  0  0  0  0  0  0  0  0  0
  132.2480  122.5820   63.0430 C   0  0  0  0  0  0  0  0  0  0  0  0
  132.8560  121.3040   62.4850 C   0  0  0  0  0  0  0  0  0  0  0  0
  130.9530  123.0620   62.7060 C   0  0  0  0  0  0  0  0  0  0  0  0
  129.9270  122.5540   61.8340 C   0  0  0  0  0  0  0  0  0  0  0  0
  130.0780  121.3890   61.1250 N   0  0  0  0  0  0  0  0  0  0  0  0
  127.0700  122.6520   57.4010 N   0  0  0  0  0  0  0  0  0  0  0  0
  127.1455  121.1161   55.2863 H   0  0  0  0  0  0  0  0  0  0  0  0
  125.6142  121.7062   54.5558 H   0  0  0  0  0  0  0  0  0  0  0  0
  127.0721  122.7555   54.5558 H   0  0  0  0  0  0  0  0  0  0  0  0
  124.0185  122.9337   55.9126 H   0  0  0  0  0  0  0  0  0  0  0  0
  123.4564  123.8860   58.1675 H   0  0  0  0  0  0  0  0  0  0  0  0
  125.2465  124.0450   59.9175 H   0  0  0  0  0  0  0  0  0  0  0  0
  128.6380  123.5740   59.3250 H   0  0  0  0  0  0  0  0  0  0  0  0
  133.0384  125.0799   66.4784 H   0  0  0  0  0  0  0  0  0  0  0  0
  134.3764  125.1727   65.2834 H   0  0  0  0  0  0  0  0  0  0  0  0
  133.0841  126.4203   65.2834 H   0  0  0  0  0  0  0  0  0  0  0  0
  134.0184  122.9982   64.2258 H   0  0  0  0  0  0  0  0  0  0  0  0
  133.1660  120.6525   63.3153 H   0  0  0  0  0  0  0  0  0  0  0  0
  132.1098  120.7819   61.8681 H   0  0  0  0  0  0  0  0  0  0  0  0
  133.7319  121.5536   61.8681 H   0  0  0  0  0  0  0  0  0  0  0  0
  129.2840  120.8550   60.8000 H   0  0  0  0  0  0  0  0  0  0  0  0
  130.9940  121.0260   60.9010 H   0  0  0  0  0  0  0  0  0  0  0  0
  1  2  1  0
  2  3  2  0
  3  4  1  0
  4  5  2  0
  5  6  1  0
  6  7  1  0
  7  8  1  0
  8  9  2  0
  8 10  1  0
 10 11  1  0
 11 12  1  0
 12 13  2  0
 13 14  1  0
 14 15  1  0
 14 16  2  0
 16 17  1  0
 17 18  1  0
 17 19  2  0
 19 20  1  0
 20 21  1  0
  6 22  2  0
 22  2  1  0
 20 10  2  0
 19 12  1  0
  1 23  1  0
  1 24  1  0
  1 25  1  0
  3 26  1  0
  4 27  1  0
  5 28  1  0
  7 29  1  0
 15 30  1  0
 15 31  1  0
 15 32  1  0
 16 33  1  0
 18 34  1  0
 18 35  1  0
 18 36  1  0
 21 37  1  0
 21 38  1  0
M  END
>  <Binding energies>  (1) 
[-6.82]

>  <Ligand effiencies>  (1) 
[-0.2728]

>  <Interactions>  (1) 
["V-B:GLU:543:CD:9879, V-B:PRO:540:N:9855, H-B:ALA:541:N:9862, V-B:PRO:540:CA:9854, V-B:TYR:539:C:9838, V-A:LEU:475:CD2:4258, H-B:TYR:539:O:9839, V-B:TYR:539:CD2:9845, V-B:TYR:539:CE2:9847, V-A:GLY:454:CA:4048, V-B:MET:535:CE:9806, V-B:PRO:540:CB:9856, V-B:TYR:531:CZ:9765, V-B:PRO:540:CD:9858, V-B:TYR:531:CE2:9764, V-B:LEU:363:CD1:8159, V-A:ARG:545:CZ:4925, V-B:ILE:538:CD1:9836, V-B:ILE:538:CG2:9834, V-B:ILE:538:CA:9831, V-B:ILE:538:C:9829, V-B:ILE:538:CB:9833, V-B:MET:535:CG:9804, V-B:VAL:537:C:9821"]

$$$$
4af_Grossjean_2025
     RDKit          3D

 35 37  0  0  0  0  0  0  0  0999 V2000
  126.4770  122.0060   54.7640 C   0  0  0  0  0  0  0  0  0  0  0  0
  126.2590  122.5220   56.1750 C   0  0  0  0  0  0  0  0  0  0  0  0
  125.0720  123.1570   56.5310 C   0  0  0  0  0  0  0  0  0  0  0  0
  124.8940  123.6270   57.8380 C   0  0  0  0  0  0  0  0  0  0  0  0
  123.5820  124.3150   58.1790 C   0  0  0  0  0  0  0  0  0  0  0  0
  125.9550  123.4310   58.7630 C   0  0  0  0  0  0  0  0  0  0  0  0
  126.1090  123.7800   60.1500 C   0  0  0  0  0  0  0  0  0  0  0  0
  125.1260  124.4280   60.8550 N   0  0  0  0  0  0  0  0  0  0  0  0
  127.3420  123.3970   60.7010 C   0  0  0  0  0  0  0  0  0  0  0  0
  127.8410  123.6170   62.0600 C   0  0  0  0  0  0  0  0  0  0  0  0
  127.2680  123.1150   63.0280 O   0  0  0  0  0  0  0  0  0  0  0  0
  128.9560  124.3820   62.1510 N   0  0  0  0  0  0  0  0  0  0  0  0
  129.6530  124.8170   63.2950 C   0  0  0  0  0  0  0  0  0  0  0  0
  130.2320  126.0880   63.4620 C   0  0  0  0  0  0  0  0  0  0  0  0
  130.9130  126.3870   64.6440 C   0  0  0  0  0  0  0  0  0  0  0  0
  131.0030  125.4040   65.6300 C   0  0  0  0  0  0  0  0  0  0  0  0
  130.4610  124.1680   65.4900 N   0  0  0  0  0  0  0  0  0  0  0  0
  129.8020  123.8930   64.3360 C   0  0  0  0  0  0  0  0  0  0  0  0
  128.3530  122.5890   59.5010 S   0  0  0  0  0  0  0  0  0  0  0  0
  127.1190  122.7660   58.2740 C   0  0  0  0  0  0  0  0  0  0  0  0
  127.2910  122.3170   57.0300 N   0  0  0  0  0  0  0  0  0  0  0  0
  126.9048  120.9935   54.8059 H   0  0  0  0  0  0  0  0  0  0  0  0
  125.5147  121.9758   54.2319 H   0  0  0  0  0  0  0  0  0  0  0  0
  127.1694  122.6749   54.2319 H   0  0  0  0  0  0  0  0  0  0  0  0
  124.2741  123.2894   55.7855 H   0  0  0  0  0  0  0  0  0  0  0  0
  123.4716  124.3729   59.2719 H   0  0  0  0  0  0  0  0  0  0  0  0
  123.5796  125.3304   57.7559 H   0  0  0  0  0  0  0  0  0  0  0  0
  122.7454  123.7395   57.7559 H   0  0  0  0  0  0  0  0  0  0  0  0
  125.0950  124.4130   61.8650 H   0  0  0  0  0  0  0  0  0  0  0  0
  124.3990  124.9480   60.3840 H   0  0  0  0  0  0  0  0  0  0  0  0
  129.3600  124.6850   61.2770 H   0  0  0  0  0  0  0  0  0  0  0  0
  130.1488  126.8424   62.6658 H   0  0  0  0  0  0  0  0  0  0  0  0
  131.3689  127.3767   64.7945 H   0  0  0  0  0  0  0  0  0  0  0  0
  131.5369  125.6415   66.5620 H   0  0  0  0  0  0  0  0  0  0  0  0
  129.3622  122.8924   64.2122 H   0  0  0  0  0  0  0  0  0  0  0  0
  1  2  1  0
  2  3  2  0
  3  4  1  0
  4  5  1  0
  4  6  2  0
  6  7  1  0
  7  8  1  0
  7  9  2  0
  9 10  1  0
 10 11  2  0
 10 12  1  0
 12 13  1  0
 13 14  2  0
 14 15  1  0
 15 16  2  0
 16 17  1  0
 17 18  2  0
  9 19  1  0
 19 20  1  0
 20 21  2  0
 21  2  1  0
 20  6  1  0
 18 13  1  0
  1 22  1  0
  1 23  1  0
  1 24  1  0
  3 25  1  0
  5 26  1  0
  5 27  1  0
  5 28  1  0
  8 29  1  0
  8 30  1  0
 12 31  1  0
 14 32  1  0
 15 33  1  0
 16 34  1  0
 18 35  1  0
M  END
>  <Binding energies>  (1) 
[-7.28]

>  <Ligand effiencies>  (1) 
[-0.30333333333333334]

>  <Interactions>  (1) 
["V-B:GLU:543:CD:9879, V-B:PRO:540:N:9855, H-B:ALA:541:N:9862, H-A:TYR:484:OH:4347, V-B:PRO:540:CA:9854, V-B:TYR:539:C:9838, V-B:TYR:539:CD2:9845, V-B:TYR:539:CE2:9847, H-B:TYR:539:N:9841, V-B:MET:535:CE:9806, V-B:PRO:540:CB:9856, V-B:TYR:531:CZ:9765, V-B:PRO:540:CD:9858, V-B:TYR:531:CE2:9764, V-B:LEU:363:CD1:8159, V-B:ILE:538:CD1:9836, V-B:ILE:538:CG2:9834, V-B:ILE:538:CA:9831, V-B:ILE:538:CG1:9835, V-B:ILE:538:C:9829, V-B:ILE:538:CB:9833, V-B:ASP:366:CB:8182, V-B:ASP:366:CG:8183, V-B:MET:535:CG:9804, V-B:LEU:363:CA:8155, V-B:VAL:537:C:9821, H-B:ASP:366:OD1:8184"]

$$$$
4ag_Grossjean_2025
     RDKit          3D

 39 41  0  0  0  0  0  0  0  0999 V2000
  126.4690  122.0020   54.7520 C   0  0  0  0  0  0  0  0  0  0  0  0
  126.2580  122.5300   56.1590 C   0  0  0  0  0  0  0  0  0  0  0  0
  125.0750  123.1770   56.5120 C   0  0  0  0  0  0  0  0  0  0  0  0
  124.9010  123.6550   57.8160 C   0  0  0  0  0  0  0  0  0  0  0  0
  123.5930  124.3550   58.1530 C   0  0  0  0  0  0  0  0  0  0  0  0
  125.9590  123.4560   58.7420 C   0  0  0  0  0  0  0  0  0  0  0  0
  126.1140  123.8080   60.1270 C   0  0  0  0  0  0  0  0  0  0  0  0
  125.1370  124.4670   60.8310 N   0  0  0  0  0  0  0  0  0  0  0  0
  127.3440  123.4210   60.6790 C   0  0  0  0  0  0  0  0  0  0  0  0
  127.8260  123.6090   62.0480 C   0  0  0  0  0  0  0  0  0  0  0  0
  127.2380  123.1090   63.0090 O   0  0  0  0  0  0  0  0  0  0  0  0
  128.9300  124.3720   62.1890 N   0  0  0  0  0  0  0  0  0  0  0  0
  129.5980  124.6690   63.4560 C   0  0  0  0  0  0  0  0  0  0  0  0
  131.1200  124.6360   63.3760 C   0  0  0  0  0  0  0  0  0  0  0  0
  131.7470  123.9250   62.3490 C   0  0  0  0  0  0  0  0  0  0  0  0
  133.1370  123.9130   62.2600 C   0  0  0  0  0  0  0  0  0  0  0  0
  133.8940  124.6220   63.1900 C   0  0  0  0  0  0  0  0  0  0  0  0
  133.2750  125.3450   64.2070 C   0  0  0  0  0  0  0  0  0  0  0  0
  131.8860  125.3580   64.2960 C   0  0  0  0  0  0  0  0  0  0  0  0
  128.3470  122.5920   59.4890 S   0  0  0  0  0  0  0  0  0  0  0  0
  127.1180  122.7780   58.2570 C   0  0  0  0  0  0  0  0  0  0  0  0
  127.2870  122.3200   57.0160 N   0  0  0  0  0  0  0  0  0  0  0  0
  126.8768  120.9815   54.8006 H   0  0  0  0  0  0  0  0  0  0  0  0
  125.5076  121.9876   54.2178 H   0  0  0  0  0  0  0  0  0  0  0  0
  127.1756  122.6542   54.2178 H   0  0  0  0  0  0  0  0  0  0  0  0
  124.2781  123.3120   55.7658 H   0  0  0  0  0  0  0  0  0  0  0  0
  123.4803  124.4153   59.2455 H   0  0  0  0  0  0  0  0  0  0  0  0
  123.6003  125.3698   57.7286 H   0  0  0  0  0  0  0  0  0  0  0  0
  122.7527  123.7860   57.7286 H   0  0  0  0  0  0  0  0  0  0  0  0
  124.3190  124.8480   60.3770 H   0  0  0  0  0  0  0  0  0  0  0  0
  125.2030  124.5900   61.8320 H   0  0  0  0  0  0  0  0  0  0  0  0
  129.3920  124.7020   61.3550 H   0  0  0  0  0  0  0  0  0  0  0  0
  129.2903  125.6734   63.7824 H   0  0  0  0  0  0  0  0  0  0  0  0
  129.2991  123.8835   64.1657 H   0  0  0  0  0  0  0  0  0  0  0  0
  131.1434  123.3754   61.6117 H   0  0  0  0  0  0  0  0  0  0  0  0
  133.6346  123.3464   61.4592 H   0  0  0  0  0  0  0  0  0  0  0  0
  134.9917  124.6108   63.1205 H   0  0  0  0  0  0  0  0  0  0  0  0
  133.8808  125.9029   64.9362 H   0  0  0  0  0  0  0  0  0  0  0  0
  131.3911  125.9363   65.0901 H   0  0  0  0  0  0  0  0  0  0  0  0
  1  2  1  0
  2  3  2  0
  3  4  1  0
  4  5  1  0
  4  6  2  0
  6  7  1  0
  7  8  1  0
  7  9  2  0
  9 10  1  0
 10 11  2  0
 10 12  1  0
 12 13  1  0
 13 14  1  0
 14 15  2  0
 15 16  1  0
 16 17  2  0
 17 18  1  0
 18 19  2  0
  9 20  1  0
 20 21  1  0
 21 22  2  0
 22  2  1  0
 21  6  1  0
 19 14  1  0
  1 23  1  0
  1 24  1  0
  1 25  1  0
  3 26  1  0
  5 27  1  0
  5 28  1  0
  5 29  1  0
  8 30  1  0
  8 31  1  0
 12 32  1  0
 13 33  1  0
 13 34  1  0
 15 35  1  0
 16 36  1  0
 17 37  1  0
 18 38  1  0
 19 39  1  0
M  END
>  <Binding energies>  (1) 
[-7.48]

>  <Ligand effiencies>  (1) 
[-0.2992]

>  <Interactions>  (1) 
["V-A:ASP:366:CG:3212, V-B:GLU:543:CD:9879, V-B:PRO:540:N:9855, H-B:ALA:541:N:9862, V-B:PRO:540:CA:9854, V-B:TYR:539:C:9838, V-B:TYR:539:CD2:9845, V-B:TYR:539:CE2:9847, V-A:GLY:454:CA:4048, H-B:TYR:539:N:9841, V-B:MET:535:CE:9806, V-B:PRO:540:CB:9856, V-A:GLY:453:C:4041, V-B:TYR:531:CZ:9765, V-B:TYR:531:CE2:9764, V-B:LEU:363:CD1:8159, V-A:ARG:545:CZ:4925, V-B:ILE:538:CD1:9836, V-B:ILE:538:CG2:9834, V-B:ILE:538:CA:9831, V-B:ILE:538:CG1:9835, V-B:ILE:538:C:9829, V-B:ILE:538:CB:9833, V-B:ASP:366:CB:8182, V-B:ASP:366:CG:8183, V-B:MET:535:CG:9804, V-B:LEU:363:CA:8155, V-B:VAL:537:C:9821, H-B:ASP:366:OD1:8184"]

$$$$
4ah_Grossjean_2025
     RDKit          3D

 51 53  0  0  0  0  0  0  0  0999 V2000
  133.9850  122.1130   62.5090 C   0  0  0  0  0  0  0  0  0  0  0  0
  133.9120  123.2420   63.3720 O   0  0  0  0  0  0  0  0  0  0  0  0
  132.6860  123.6220   63.8910 C   0  0  0  0  0  0  0  0  0  0  0  0
  131.5040  122.8830   63.7280 C   0  0  0  0  0  0  0  0  0  0  0  0
  130.3010  123.3290   64.2780 C   0  0  0  0  0  0  0  0  0  0  0  0
  129.0370  122.4900   64.1310 C   0  0  0  0  0  0  0  0  0  0  0  0
  128.4630  122.5260   62.7860 N   0  0  0  0  0  0  0  0  0  0  0  0
  127.6310  123.4790   62.3160 C   0  0  0  0  0  0  0  0  0  0  0  0
  127.2340  124.4160   63.0110 O   0  0  0  0  0  0  0  0  0  0  0  0
  127.1840  123.3160   60.9330 C   0  0  0  0  0  0  0  0  0  0  0  0
  128.1750  122.4170   59.7830 S   0  0  0  0  0  0  0  0  0  0  0  0
  127.0340  122.7240   58.4930 C   0  0  0  0  0  0  0  0  0  0  0  0
  127.2240  122.2610   57.2570 N   0  0  0  0  0  0  0  0  0  0  0  0
  126.2640  122.5680   56.3520 C   0  0  0  0  0  0  0  0  0  0  0  0
  126.5020  122.0350   54.9510 C   0  0  0  0  0  0  0  0  0  0  0  0
  125.1280  123.3170   56.6510 C   0  0  0  0  0  0  0  0  0  0  0  0
  124.9310  123.8040   57.9480 C   0  0  0  0  0  0  0  0  0  0  0  0
  123.6770  124.6180   58.2260 C   0  0  0  0  0  0  0  0  0  0  0  0
  125.9190  123.5040   58.9250 C   0  0  0  0  0  0  0  0  0  0  0  0
  126.0370  123.8380   60.3190 C   0  0  0  0  0  0  0  0  0  0  0  0
  125.0970  124.5930   60.9750 N   0  0  0  0  0  0  0  0  0  0  0  0
  130.2800  124.5090   65.0220 C   0  0  0  0  0  0  0  0  0  0  0  0
  131.4460  125.2710   65.1970 C   0  0  0  0  0  0  0  0  0  0  0  0
  131.4940  126.4570   65.9080 O   0  0  0  0  0  0  0  0  0  0  0  0
  130.6360  126.6320   67.0300 C   0  0  0  0  0  0  0  0  0  0  0  0
  132.6410  124.8190   64.6200 C   0  0  0  0  0  0  0  0  0  0  0  0
  133.7950  125.5460   64.7980 O   0  0  0  0  0  0  0  0  0  0  0  0
  134.1560  125.7330   66.1590 C   0  0  0  0  0  0  0  0  0  0  0  0
  134.0444  121.1944   63.1112 H   0  0  0  0  0  0  0  0  0  0  0  0
  133.0872  122.0780   61.8743 H   0  0  0  0  0  0  0  0  0  0  0  0
  134.8798  122.1939   61.8743 H   0  0  0  0  0  0  0  0  0  0  0  0
  131.5258  121.9412   63.1601 H   0  0  0  0  0  0  0  0  0  0  0  0
  129.2820  121.4462   64.3766 H   0  0  0  0  0  0  0  0  0  0  0  0
  128.2864  122.9154   64.8134 H   0  0  0  0  0  0  0  0  0  0  0  0
  128.8110  121.8360   62.1370 H   0  0  0  0  0  0  0  0  0  0  0  0
  126.9498  121.0321   55.0114 H   0  0  0  0  0  0  0  0  0  0  0  0
  125.5442  121.9771   54.4131 H   0  0  0  0  0  0  0  0  0  0  0  0
  127.1844  122.7095   54.4131 H   0  0  0  0  0  0  0  0  0  0  0  0
  124.3853  123.5257   55.8669 H   0  0  0  0  0  0  0  0  0  0  0  0
  123.5337  124.7110   59.3126 H   0  0  0  0  0  0  0  0  0  0  0  0
  123.7841  125.6192   57.7832 H   0  0  0  0  0  0  0  0  0  0  0  0
  122.8061  124.1125   57.7832 H   0  0  0  0  0  0  0  0  0  0  0  0
  124.2430  124.8890   60.5270 H   0  0  0  0  0  0  0  0  0  0  0  0
  125.2350  124.8820   61.9340 H   0  0  0  0  0  0  0  0  0  0  0  0
  129.3374  124.8468   65.4775 H   0  0  0  0  0  0  0  0  0  0  0  0
  131.2160  126.5137   67.9571 H   0  0  0  0  0  0  0  0  0  0  0  0
  130.1939  127.6388   67.0000 H   0  0  0  0  0  0  0  0  0  0  0  0
  129.8349  125.8788   67.0000 H   0  0  0  0  0  0  0  0  0  0  0  0
  133.3668  125.3242   66.8072 H   0  0  0  0  0  0  0  0  0  0  0  0
  135.1035  125.2123   66.3619 H   0  0  0  0  0  0  0  0  0  0  0  0
  134.2773  126.8073   66.3619 H   0  0  0  0  0  0  0  0  0  0  0  0
  1  2  1  0
  2  3  1  0
  3  4  2  0
  4  5  1  0
  5  6  1  0
  6  7  1  0
  7  8  1  0
  8  9  2  0
  8 10  1  0
 10 11  1  0
 11 12  1  0
 12 13  2  0
 13 14  1  0
 14 15  1  0
 14 16  2  0
 16 17  1  0
 17 18  1  0
 17 19  2  0
 19 20  1  0
 20 21  1  0
  5 22  2  0
 22 23  1  0
 23 24  1  0
 24 25  1  0
 23 26  2  0
 26 27  1  0
 27 28  1  0
 26  3  1  0
 20 10  2  0
 19 12  1  0
  1 29  1  0
  1 30  1  0
  1 31  1  0
  4 32  1  0
  6 33  1  0
  6 34  1  0
  7 35  1  0
 15 36  1  0
 15 37  1  0
 15 38  1  0
 16 39  1  0
 18 40  1  0
 18 41  1  0
 18 42  1  0
 21 43  1  0
 21 44  1  0
 22 45  1  0
 25 46  1  0
 25 47  1  0
 25 48  1  0
 28 49  1  0
 28 50  1  0
 28 51  1  0
M  END
>  <Binding energies>  (1) 
[-7.44]

>  <Ligand effiencies>  (1) 
[-0.24000000000000002]

>  <Interactions>  (1) 
["V-B:GLU:543:CD:9879, V-B:PRO:540:N:9855, H-A:TYR:484:OH:4347, V-B:ALA:541:CB:9863, V-B:PRO:540:CA:9854, V-B:ALA:541:CA:9861, H-B:GLU:543:OE1:9880, V-B:TYR:539:C:9838, V-A:LEU:475:CD2:4258, H-B:TYR:539:O:9839, V-A:ILE:369:CD1:3238, V-B:TYR:539:CD2:9845, V-B:TYR:539:CE2:9847, V-A:GLY:454:CA:4048, H-B:TYR:539:N:9841, V-B:MET:535:CE:9806, V-B:GLU:543:CG:9878, V-B:PRO:540:CB:9856, H-A:GLY:454:N:4049, V-A:GLY:453:C:4041, V-A:ARG:545:CD:4922, V-B:TYR:531:CZ:9765, V-B:PRO:540:CD:9858, V-B:TYR:531:CE2:9764, V-B:LEU:363:CD1:8159, V-A:ARG:545:CZ:4925, V-B:ILE:538:CD1:9836, V-A:ARG:545:CG:4921, V-B:ILE:538:CG2:9834, H-A:ARG:545:NH1:4926, H-A:ARG:545:NH2:4927, V-B:ILE:538:CA:9831, V-A:GLY:453:CA:4043, V-B:ILE:538:C:9829, V-B:ILE:538:CB:9833, H-A:ARG:545:NE:4923, V-B:ASP:366:CB:8182, V-B:ASP:366:CG:8183, V-B:MET:535:CG:9804, V-B:LEU:363:CA:8155, V-B:VAL:537:C:9821, H-B:ASP:366:OD1:8184"]

$$$$
4ai_Grossjean_2025
     RDKit          3D

 32 34  0  0  0  0  0  0  0  0999 V2000
  126.4890  122.0580   54.8870 C   0  0  0  0  0  0  0  0  0  0  0  0
  126.2410  122.5710   56.2940 C   0  0  0  0  0  0  0  0  0  0  0  0
  125.0690  123.2540   56.6120 C   0  0  0  0  0  0  0  0  0  0  0  0
  124.8590  123.7140   57.9170 C   0  0  0  0  0  0  0  0  0  0  0  0
  123.5630  124.4520   58.2150 C   0  0  0  0  0  0  0  0  0  0  0  0
  125.8710  123.4570   58.8820 C   0  0  0  0  0  0  0  0  0  0  0  0
  125.9810  123.7780   60.2790 C   0  0  0  0  0  0  0  0  0  0  0  0
  125.0020  124.4650   60.9520 N   0  0  0  0  0  0  0  0  0  0  0  0
  127.1650  123.3190   60.8780 C   0  0  0  0  0  0  0  0  0  0  0  0
  127.6040  123.4770   62.2660 C   0  0  0  0  0  0  0  0  0  0  0  0
  126.8770  123.1300   63.1990 O   0  0  0  0  0  0  0  0  0  0  0  0
  128.8440  124.0030   62.4270 N   0  0  0  0  0  0  0  0  0  0  0  0
  129.5080  124.2490   63.6220 C   0  0  0  0  0  0  0  0  0  0  0  0
  130.2980  125.3790   63.8350 C   0  0  0  0  0  0  0  0  0  0  0  0
  130.7720  125.2470   65.1200 C   0  0  0  0  0  0  0  0  0  0  0  0
  130.2910  124.1000   65.6540 O   0  0  0  0  0  0  0  0  0  0  0  0
  129.4900  123.4760   64.6960 N   0  0  0  0  0  0  0  0  0  0  0  0
  128.1930  122.4930   59.7050 S   0  0  0  0  0  0  0  0  0  0  0  0
  127.0240  122.7480   58.4290 C   0  0  0  0  0  0  0  0  0  0  0  0
  127.2280  122.3100   57.1860 N   0  0  0  0  0  0  0  0  0  0  0  0
  126.9673  121.0687   54.9364 H   0  0  0  0  0  0  0  0  0  0  0  0
  125.5311  121.9759   54.3525 H   0  0  0  0  0  0  0  0  0  0  0  0
  127.1483  122.7577   54.3525 H   0  0  0  0  0  0  0  0  0  0  0  0
  124.3086  123.4317   55.8372 H   0  0  0  0  0  0  0  0  0  0  0  0
  123.4271  124.5294   59.3038 H   0  0  0  0  0  0  0  0  0  0  0  0
  123.6067  125.4607   57.7784 H   0  0  0  0  0  0  0  0  0  0  0  0
  122.7178  123.8997   57.7784 H   0  0  0  0  0  0  0  0  0  0  0  0
  124.9730  124.5000   61.9600 H   0  0  0  0  0  0  0  0  0  0  0  0
  124.2720  124.9580   60.4560 H   0  0  0  0  0  0  0  0  0  0  0  0
  129.3550  124.2380   61.5900 H   0  0  0  0  0  0  0  0  0  0  0  0
  130.4985  126.1981   63.1287 H   0  0  0  0  0  0  0  0  0  0  0  0
  131.4357  125.9597   65.6315 H   0  0  0  0  0  0  0  0  0  0  0  0
  1  2  1  0
  2  3  2  0
  3  4  1  0
  4  5  1  0
  4  6  2  0
  6  7  1  0
  7  8  1  0
  7  9  2  0
  9 10  1  0
 10 11  2  0
 10 12  1  0
 12 13  1  0
 13 14  1  0
 14 15  2  0
 15 16  1  0
 16 17  1  0
  9 18  1  0
 18 19  1  0
 19 20  2  0
 20  2  1  0
 19  6  1  0
 17 13  2  0
  1 21  1  0
  1 22  1  0
  1 23  1  0
  3 24  1  0
  5 25  1  0
  5 26  1  0
  5 27  1  0
  8 28  1  0
  8 29  1  0
 12 30  1  0
 14 31  1  0
 15 32  1  0
M  END
>  <Binding energies>  (1) 
[-7.15]

>  <Ligand effiencies>  (1) 
[-0.31086956521739134]

>  <Interactions>  (1) 
["V-B:GLU:543:CD:9879, V-B:PRO:540:N:9855, H-B:ALA:541:N:9862, H-A:TYR:484:OH:4347, V-B:PRO:540:CA:9854, V-B:TYR:539:C:9838, V-B:TYR:539:CD2:9845, V-B:TYR:539:CE2:9847, H-B:TYR:539:N:9841, V-B:MET:535:CE:9806, V-B:PRO:540:CB:9856, V-B:TYR:531:CZ:9765, V-B:PRO:540:CD:9858, V-B:TYR:531:CE2:9764, V-B:LEU:363:CD1:8159, V-B:ILE:538:CD1:9836, V-B:ILE:538:CG2:9834, V-B:ILE:538:CA:9831, V-B:ILE:538:C:9829, V-B:ILE:538:CB:9833, V-B:ASP:366:CB:8182, V-B:ASP:366:CG:8183, V-B:MET:535:CG:9804, V-B:LEU:363:CA:8155, V-B:VAL:537:C:9821, H-B:ASP:366:OD1:8184"]

$$$$
4aj_Grossjean_2025
     RDKit          3D

 32 34  0  0  0  0  0  0  0  0999 V2000
  126.0750  122.3620   54.7520 C   0  0  0  0  0  0  0  0  0  0  0  0
  125.9780  122.7560   56.2150 C   0  0  0  0  0  0  0  0  0  0  0  0
  124.8580  123.4210   56.7060 C   0  0  0  0  0  0  0  0  0  0  0  0
  124.7920  123.7800   58.0570 C   0  0  0  0  0  0  0  0  0  0  0  0
  123.5470  124.5060   58.5440 C   0  0  0  0  0  0  0  0  0  0  0  0
  125.8940  123.4420   58.8870 C   0  0  0  0  0  0  0  0  0  0  0  0
  126.1560  123.6550   60.2850 C   0  0  0  0  0  0  0  0  0  0  0  0
  125.2650  124.2950   61.1080 N   0  0  0  0  0  0  0  0  0  0  0  0
  127.3900  123.1450   60.7180 C   0  0  0  0  0  0  0  0  0  0  0  0
  127.9760  123.1930   62.0590 C   0  0  0  0  0  0  0  0  0  0  0  0
  127.3580  123.6980   62.9990 O   0  0  0  0  0  0  0  0  0  0  0  0
  129.2090  122.6410   62.1760 N   0  0  0  0  0  0  0  0  0  0  0  0
  129.9740  122.5470   63.3300 C   0  0  0  0  0  0  0  0  0  0  0  0
  129.5530  122.4110   64.5690 N   0  0  0  0  0  0  0  0  0  0  0  0
  130.5600  122.3490   65.4190 C   0  0  0  0  0  0  0  0  0  0  0  0
  131.8360  122.4370   64.8700 C   0  0  0  0  0  0  0  0  0  0  0  0
  131.6970  122.6090   63.1450 S   0  0  0  0  0  0  0  0  0  0  0  0
  128.2730  122.3960   59.3860 S   0  0  0  0  0  0  0  0  0  0  0  0
  126.9810  122.7580   58.2630 C   0  0  0  0  0  0  0  0  0  0  0  0
  127.0470  122.4160   56.9760 N   0  0  0  0  0  0  0  0  0  0  0  0
  126.3373  121.2965   54.6759 H   0  0  0  0  0  0  0  0  0  0  0  0
  125.1069  122.5373   54.2601 H   0  0  0  0  0  0  0  0  0  0  0  0
  126.8511  122.9667   54.2601 H   0  0  0  0  0  0  0  0  0  0  0  0
  124.0240  123.6646   56.0314 H   0  0  0  0  0  0  0  0  0  0  0  0
  123.5337  124.5137   59.6439 H   0  0  0  0  0  0  0  0  0  0  0  0
  123.5560  125.5405   58.1701 H   0  0  0  0  0  0  0  0  0  0  0  0
  122.6511  123.9887   58.1701 H   0  0  0  0  0  0  0  0  0  0  0  0
  124.3960  124.6740   60.7610 H   0  0  0  0  0  0  0  0  0  0  0  0
  125.4510  124.4110   62.0950 H   0  0  0  0  0  0  0  0  0  0  0  0
  129.6220  122.2490   61.3420 H   0  0  0  0  0  0  0  0  0  0  0  0
  130.4001  122.2342   66.5012 H   0  0  0  0  0  0  0  0  0  0  0  0
  132.7790  122.4032   65.4353 H   0  0  0  0  0  0  0  0  0  0  0  0
  1  2  1  0
  2  3  2  0
  3  4  1  0
  4  5  1  0
  4  6  2  0
  6  7  1  0
  7  8  1  0
  7  9  2  0
  9 10  1  0
 10 11  2  0
 10 12  1  0
 12 13  1  0
 13 14  2  0
 14 15  1  0
 15 16  2  0
 16 17  1  0
  9 18  1  0
 18 19  1  0
 19 20  2  0
 20  2  1  0
 19  6  1  0
 17 13  1  0
  1 21  1  0
  1 22  1  0
  1 23  1  0
  3 24  1  0
  5 25  1  0
  5 26  1  0
  5 27  1  0
  8 28  1  0
  8 29  1  0
 12 30  1  0
 15 31  1  0
 16 32  1  0
M  END
>  <Binding energies>  (1) 
[-6.59]

>  <Ligand effiencies>  (1) 
[-0.28652173913043477]

>  <Interactions>  (1) 
["V-B:PRO:540:N:9855, V-B:ALA:541:CB:9863, V-B:PRO:540:CA:9854, V-B:PRO:540:C:9852, H-B:GLU:543:OE1:9880, V-B:TYR:539:C:9838, V-A:LEU:475:CD2:4258, H-B:TYR:539:O:9839, V-B:TYR:539:CD2:9845, V-B:TYR:539:CE2:9847, V-A:GLY:454:CA:4048, H-B:TYR:539:N:9841, V-B:MET:535:CE:9806, V-A:LEU:475:CD1:4257, V-B:PRO:540:CB:9856, V-B:TYR:531:CZ:9765, V-B:TYR:531:CE2:9764, V-B:LEU:363:CD1:8159, V-B:ILE:538:CD1:9836, V-B:ILE:538:CG2:9834, V-B:ILE:538:CA:9831, V-B:ILE:538:CG1:9835, V-B:ILE:538:C:9829, V-B:ILE:538:CB:9833, V-B:ASP:366:CB:8182, V-A:TYR:484:CZ:4346, V-A:TYR:484:CE2:4345, V-B:ASP:366:CG:8183, V-B:MET:535:CG:9804, V-B:LEU:363:CA:8155, H-B:ASP:366:OD1:8184"]

$$$$
4ak_Grossjean_2025
     RDKit          3D

 50 51  0  0  0  0  0  0  0  0999 V2000
  131.9670  117.4810   58.9260 C   0  0  0  0  0  0  0  0  0  0  0  0
  132.8000  117.4030   60.0730 O   0  0  0  0  0  0  0  0  0  0  0  0
  132.1390  117.7690   61.2780 C   0  0  0  0  0  0  0  0  0  0  0  0
  130.9370  118.6640   60.9510 C   0  0  0  0  0  0  0  0  0  0  0  0
  131.2910  120.0240   61.1610 O   0  0  0  0  0  0  0  0  0  0  0  0
  132.6910  120.2660   61.1180 C   0  0  0  0  0  0  0  0  0  0  0  0
  132.9880  121.6330   61.7470 C   0  0  0  0  0  0  0  0  0  0  0  0
  131.7680  122.3340   61.9470 O   0  0  0  0  0  0  0  0  0  0  0  0
  131.5010  122.6470   63.3070 C   0  0  0  0  0  0  0  0  0  0  0  0
  130.0950  123.2630   63.4210 C   0  0  0  0  0  0  0  0  0  0  0  0
  129.3330  123.2200   62.1720 N   0  0  0  0  0  0  0  0  0  0  0  0
  127.9890  123.1690   62.0800 C   0  0  0  0  0  0  0  0  0  0  0  0
  127.2580  123.1760   63.0720 O   0  0  0  0  0  0  0  0  0  0  0  0
  127.4390  123.1140   60.7260 C   0  0  0  0  0  0  0  0  0  0  0  0
  128.3620  122.3710   59.4210 S   0  0  0  0  0  0  0  0  0  0  0  0
  127.0840  122.6940   58.2710 C   0  0  0  0  0  0  0  0  0  0  0  0
  127.1850  122.3460   56.9880 N   0  0  0  0  0  0  0  0  0  0  0  0
  126.1240  122.6560   56.2020 C   0  0  0  0  0  0  0  0  0  0  0  0
  126.2570  122.2520   54.7460 C   0  0  0  0  0  0  0  0  0  0  0  0
  124.9770  123.2970   56.6660 C   0  0  0  0  0  0  0  0  0  0  0  0
  124.8740  123.6600   58.0150 C   0  0  0  0  0  0  0  0  0  0  0  0
  123.6050  124.3610   58.4730 C   0  0  0  0  0  0  0  0  0  0  0  0
  125.9670  123.3520   58.8680 C   0  0  0  0  0  0  0  0  0  0  0  0
  126.1940  123.5750   60.2710 C   0  0  0  0  0  0  0  0  0  0  0  0
  125.2670  124.1870   61.0760 N   0  0  0  0  0  0  0  0  0  0  0  0
  130.9176  117.5793   59.2409 H   0  0  0  0  0  0  0  0  0  0  0  0
  132.2527  118.3563   58.3242 H   0  0  0  0  0  0  0  0  0  0  0  0
  132.0852  116.5679   58.3242 H   0  0  0  0  0  0  0  0  0  0  0  0
  131.7912  116.8626   61.7952 H   0  0  0  0  0  0  0  0  0  0  0  0
  132.8377  118.3167   61.9274 H   0  0  0  0  0  0  0  0  0  0  0  0
  130.6460  118.5184   59.9002 H   0  0  0  0  0  0  0  0  0  0  0  0
  130.0926  118.3988   61.6042 H   0  0  0  0  0  0  0  0  0  0  0  0
  133.2172  119.4805   61.6803 H   0  0  0  0  0  0  0  0  0  0  0  0
  133.0346  120.2584   60.0731 H   0  0  0  0  0  0  0  0  0  0  0  0
  133.4925  121.4905   62.7140 H   0  0  0  0  0  0  0  0  0  0  0  0
  133.6400  122.2126   61.0770 H   0  0  0  0  0  0  0  0  0  0  0  0
  131.5502  121.7294   63.9117 H   0  0  0  0  0  0  0  0  0  0  0  0
  132.2489  123.3657   63.6733 H   0  0  0  0  0  0  0  0  0  0  0  0
  129.5345  122.7104   64.1894 H   0  0  0  0  0  0  0  0  0  0  0  0
  130.2278  124.3235   63.6813 H   0  0  0  0  0  0  0  0  0  0  0  0
  129.8750  123.2180   61.3190 H   0  0  0  0  0  0  0  0  0  0  0  0
  126.6004  121.2088   54.6848 H   0  0  0  0  0  0  0  0  0  0  0  0
  125.2804  122.3463   54.2486 H   0  0  0  0  0  0  0  0  0  0  0  0
  126.9866  122.9080   54.2486 H   0  0  0  0  0  0  0  0  0  0  0  0
  124.1521  123.5180   55.9727 H   0  0  0  0  0  0  0  0  0  0  0  0
  123.5724  124.3790   59.5724 H   0  0  0  0  0  0  0  0  0  0  0  0
  123.5965  125.3918   58.0890 H   0  0  0  0  0  0  0  0  0  0  0  0
  122.7279  123.8194   58.0890 H   0  0  0  0  0  0  0  0  0  0  0  0
  124.4820  124.6960   60.6940 H   0  0  0  0  0  0  0  0  0  0  0  0
  125.3380  124.1460   62.0830 H   0  0  0  0  0  0  0  0  0  0  0  0
  1  2  1  0
  2  3  1  0
  3  4  1  0
  4  5  1  0
  5  6  1  0
  6  7  1  0
  7  8  1  0
  8  9  1  0
  9 10  1  0
 10 11  1  0
 11 12  1  0
 12 13  2  0
 12 14  1  0
 14 15  1  0
 15 16  1  0
 16 17  2  0
 17 18  1  0
 18 19  1  0
 18 20  2  0
 20 21  1  0
 21 22  1  0
 21 23  2  0
 23 24  1  0
 24 25  1  0
 24 14  2  0
 23 16  1  0
  1 26  1  0
  1 27  1  0
  1 28  1  0
  3 29  1  0
  3 30  1  0
  4 31  1  0
  4 32  1  0
  6 33  1  0
  6 34  1  0
  7 35  1  0
  7 36  1  0
  9 37  1  0
  9 38  1  0
 10 39  1  0
 10 40  1  0
 11 41  1  0
 19 42  1  0
 19 43  1  0
 19 44  1  0
 20 45  1  0
 22 46  1  0
 22 47  1  0
 22 48  1  0
 25 49  1  0
 25 50  1  0
M  END
>  <Binding energies>  (1) 
[-6.62]

>  <Ligand effiencies>  (1) 
[-0.23642857142857143]

>  <Interactions>  (1) 
["V-B:PRO:540:N:9855, H-B:ALA:541:N:9862, V-B:PRO:540:CA:9854, V-B:PRO:540:C:9852, V-B:TYR:539:C:9838, V-A:LEU:475:CD2:4258, V-A:HIS:383:CE1:3393, V-B:TYR:539:CD2:9845, V-B:TYR:539:CE2:9847, V-B:TYR:539:CB:9842, V-A:SER:385:CA:3406, V-A:SER:385:CB:3408, V-A:LEU:373:CD1:3279, H-B:TYR:539:N:9841, V-B:TYR:539:CG:9843, V-B:MET:535:CE:9806, V-B:PRO:540:CB:9856, H-A:HIS:383:ND1:3390, V-B:TYR:531:CZ:9765, V-B:TYR:531:CE2:9764, V-B:LEU:363:CD1:8159, V-B:ILE:538:CD1:9836, V-B:ILE:538:CG2:9834, V-B:ILE:538:CA:9831, V-B:ILE:538:CG1:9835, V-B:ILE:538:C:9829, V-B:ILE:538:CB:9833, V-B:ASP:366:CB:8182, V-A:LEU:373:CG:3278, V-A:LEU:373:CD2:3280, V-B:ASP:366:CG:8183, V-B:MET:535:CG:9804, V-B:LEU:363:CA:8155, V-B:VAL:537:C:9821, H-B:ASP:366:OD1:8184"]

$$$$
4al_Grossjean_2025
     RDKit          3D

 28 29  0  0  0  0  0  0  0  0999 V2000
  125.4700  122.1230   55.5250 C   0  0  0  0  0  0  0  0  0  0  0  0
  125.5360  123.4600   55.9960 O   0  0  0  0  0  0  0  0  0  0  0  0
  125.0230  123.7990   57.2080 C   0  0  0  0  0  0  0  0  0  0  0  0
  123.9020  124.2860   57.3700 O   0  0  0  0  0  0  0  0  0  0  0  0
  125.9530  123.5220   58.3240 C   0  0  0  0  0  0  0  0  0  0  0  0
  127.5070  122.7470   58.0060 S   0  0  0  0  0  0  0  0  0  0  0  0
  127.9240  122.7950   59.7030 C   0  0  0  0  0  0  0  0  0  0  0  0
  129.0830  122.3160   60.1580 N   0  0  0  0  0  0  0  0  0  0  0  0
  129.2840  122.4130   61.4950 C   0  0  0  0  0  0  0  0  0  0  0  0
  130.6090  121.8620   61.9910 C   0  0  0  0  0  0  0  0  0  0  0  0
  128.3630  122.9720   62.3790 C   0  0  0  0  0  0  0  0  0  0  0  0
  127.1480  123.4730   61.8990 C   0  0  0  0  0  0  0  0  0  0  0  0
  126.1750  124.0740   62.9010 C   0  0  0  0  0  0  0  0  0  0  0  0
  126.9030  123.3890   60.5020 C   0  0  0  0  0  0  0  0  0  0  0  0
  125.7900  123.7940   59.6880 C   0  0  0  0  0  0  0  0  0  0  0  0
  124.6730  124.3930   60.2090 N   0  0  0  0  0  0  0  0  0  0  0  0
  125.4360  121.4337   56.3816 H   0  0  0  0  0  0  0  0  0  0  0  0
  124.5644  121.9937   54.9141 H   0  0  0  0  0  0  0  0  0  0  0  0
  126.3585  121.9052   54.9141 H   0  0  0  0  0  0  0  0  0  0  0  0
  130.6162  121.8590   63.0910 H   0  0  0  0  0  0  0  0  0  0  0  0
  130.7405  120.8346   61.6207 H   0  0  0  0  0  0  0  0  0  0  0  0
  131.4303  122.4932   61.6207 H   0  0  0  0  0  0  0  0  0  0  0  0
  128.5912  123.0193   63.4540 H   0  0  0  0  0  0  0  0  0  0  0  0
  126.5218  123.8598   63.9227 H   0  0  0  0  0  0  0  0  0  0  0  0
  126.1216  125.1626   62.7526 H   0  0  0  0  0  0  0  0  0  0  0  0
  125.1776  123.6344   62.7526 H   0  0  0  0  0  0  0  0  0  0  0  0
  124.6000  124.6280   61.1890 H   0  0  0  0  0  0  0  0  0  0  0  0
  123.8780  124.6230   59.6270 H   0  0  0  0  0  0  0  0  0  0  0  0
  1  2  1  0
  2  3  1  0
  3  4  2  0
  3  5  1  0
  5  6  1  0
  6  7  1  0
  7  8  2  0
  8  9  1  0
  9 10  1  0
  9 11  2  0
 11 12  1  0
 12 13  1  0
 12 14  2  0
 14 15  1  0
 15 16  1  0
 15  5  2  0
 14  7  1  0
  1 17  1  0
  1 18  1  0
  1 19  1  0
 10 20  1  0
 10 21  1  0
 10 22  1  0
 11 23  1  0
 13 24  1  0
 13 25  1  0
 13 26  1  0
 16 27  1  0
 16 28  1  0
M  END
>  <Binding energies>  (1) 
[-5.7]

>  <Ligand effiencies>  (1) 
[-0.31666666666666665]

>  <Interactions>  (1) 
["V-B:GLU:543:CD:9879, V-B:PRO:540:N:9855, V-B:ALA:541:CB:9863, V-B:PRO:540:CA:9854, V-B:TYR:539:C:9838, V-B:TYR:539:CD2:9845, V-B:GLU:543:CG:9878, V-B:PRO:540:CB:9856, V-B:TYR:531:CZ:9765, V-B:PRO:540:CD:9858, V-B:TYR:531:CE2:9764, V-B:LEU:363:CD1:8159, V-B:ILE:538:CD1:9836, V-B:ILE:538:CG2:9834, V-B:ILE:538:CA:9831, V-B:ILE:538:C:9829, V-B:ILE:538:CB:9833, H-B:TYR:531:OH:9766, V-B:ASP:366:CG:8183, V-B:MET:535:CG:9804, H-B:ASP:366:OD1:8184"]

$$$$
4ba_Grossjean_2025
     RDKit          3D

 44 46  0  0  0  0  0  0  0  0999 V2000
  124.6300  122.4250   55.5720 C   0  0  0  0  0  0  0  0  0  0  0  0
  125.4360  122.7660   56.8400 C   0  0  0  0  0  0  0  0  0  0  0  0
  126.9620  122.5830   56.7140 C   0  0  0  0  0  0  0  0  0  0  0  0
  127.4260  122.0190   55.7200 O   0  0  0  0  0  0  0  0  0  0  0  0
  127.8230  123.1150   57.8230 C   0  0  0  0  0  0  0  0  0  0  0  0
  127.4780  122.8400   59.1520 C   0  0  0  0  0  0  0  0  0  0  0  0
  128.2580  123.3210   60.2000 C   0  0  0  0  0  0  0  0  0  0  0  0
  129.3980  124.0830   59.9420 C   0  0  0  0  0  0  0  0  0  0  0  0
  130.1070  124.5260   61.0750 N   0  0  0  0  0  0  0  0  0  0  0  0
  130.6120  125.7500   61.3640 C   0  0  0  0  0  0  0  0  0  0  0  0
  130.5570  126.7180   60.6040 O   0  0  0  0  0  0  0  0  0  0  0  0
  131.2740  125.8620   62.6660 C   0  0  0  0  0  0  0  0  0  0  0  0
  132.9590  125.3800   62.8480 S   0  0  0  0  0  0  0  0  0  0  0  0
  132.9290  125.7500   64.5560 C   0  0  0  0  0  0  0  0  0  0  0  0
  134.0050  125.5770   65.3220 N   0  0  0  0  0  0  0  0  0  0  0  0
  133.8600  125.8980   66.6290 C   0  0  0  0  0  0  0  0  0  0  0  0
  135.0950  125.6840   67.4860 C   0  0  0  0  0  0  0  0  0  0  0  0
  132.6790  126.3870   67.1800 C   0  0  0  0  0  0  0  0  0  0  0  0
  131.5420  126.5720   66.3770 C   0  0  0  0  0  0  0  0  0  0  0  0
  130.2660  127.1150   67.0280 C   0  0  0  0  0  0  0  0  0  0  0  0
  129.4820  127.7730   66.1720 F   0  0  0  0  0  0  0  0  0  0  0  0
  129.5510  126.1080   67.5310 F   0  0  0  0  0  0  0  0  0  0  0  0
  130.5860  127.9600   68.0090 F   0  0  0  0  0  0  0  0  0  0  0  0
  131.6600  126.2370   64.9950 C   0  0  0  0  0  0  0  0  0  0  0  0
  130.7310  126.2810   63.8920 C   0  0  0  0  0  0  0  0  0  0  0  0
  129.4320  126.6980   64.0350 N   0  0  0  0  0  0  0  0  0  0  0  0
  129.7460  124.3680   58.6140 C   0  0  0  0  0  0  0  0  0  0  0  0
  128.9650  123.8860   57.5660 C   0  0  0  0  0  0  0  0  0  0  0  0
  123.6521  122.0113   55.8593 H   0  0  0  0  0  0  0  0  0  0  0  0
  124.4813  123.3373   54.9757 H   0  0  0  0  0  0  0  0  0  0  0  0
  125.1812  121.6830   54.9757 H   0  0  0  0  0  0  0  0  0  0  0  0
  125.2389  123.8173   57.0966 H   0  0  0  0  0  0  0  0  0  0  0  0
  125.1052  122.0569   57.6132 H   0  0  0  0  0  0  0  0  0  0  0  0
  126.5830  122.2387   59.3698 H   0  0  0  0  0  0  0  0  0  0  0  0
  127.9735  123.0987   61.2391 H   0  0  0  0  0  0  0  0  0  0  0  0
  130.2700  123.8080   61.7650 H   0  0  0  0  0  0  0  0  0  0  0  0
  134.8165  125.7323   68.5491 H   0  0  0  0  0  0  0  0  0  0  0  0
  135.5283  124.6974   67.2649 H   0  0  0  0  0  0  0  0  0  0  0  0
  135.8350  126.4673   67.2649 H   0  0  0  0  0  0  0  0  0  0  0  0
  132.6361  126.6302   68.2519 H   0  0  0  0  0  0  0  0  0  0  0  0
  128.9570  127.2260   63.3160 H   0  0  0  0  0  0  0  0  0  0  0  0
  128.9040  126.4970   64.8730 H   0  0  0  0  0  0  0  0  0  0  0  0
  130.6385  124.9741   58.3990 H   0  0  0  0  0  0  0  0  0  0  0  0
  129.2471  124.1126   56.5272 H   0  0  0  0  0  0  0  0  0  0  0  0
  1  2  1  0
  2  3  1  0
  3  4  2  0
  3  5  1  0
  5  6  2  0
  6  7  1  0
  7  8  2  0
  8  9  1  0
  9 10  1  0
 10 11  2  0
 10 12  1  0
 12 13  1  0
 13 14  1  0
 14 15  2  0
 15 16  1  0
 16 17  1  0
 16 18  2  0
 18 19  1  0
 19 20  1  0
 20 21  1  0
 20 22  1  0
 20 23  1  0
 19 24  2  0
 24 25  1  0
 25 26  1  0
  8 27  1  0
 27 28  2  0
 28  5  1  0
 25 12  2  0
 24 14  1  0
  1 29  1  0
  1 30  1  0
  1 31  1  0
  2 32  1  0
  2 33  1  0
  6 34  1  0
  7 35  1  0
  9 36  1  0
 17 37  1  0
 17 38  1  0
 17 39  1  0
 18 40  1  0
 26 41  1  0
 26 42  1  0
 27 43  1  0
 28 44  1  0
M  END
>  <Binding energies>  (1) 
[-7.54]

>  <Ligand effiencies>  (1) 
[-0.2432258064516129]

>  <Interactions>  (1) 
["V-A:ASP:366:CG:3212, V-B:GLU:543:CD:9879, V-B:PRO:540:N:9855, H-A:TYR:484:OH:4347, V-B:PRO:540:CA:9854, H-B:GLU:543:OE2:9881, H-B:GLU:543:OE1:9880, V-B:TYR:539:C:9838, V-B:TYR:539:CD2:9845, V-B:TYR:539:CE2:9847, H-B:TYR:539:N:9841, V-B:MET:535:CE:9806, V-B:TYR:539:CZ:9848, V-B:GLU:543:CG:9878, V-B:PRO:540:CB:9856, H-A:GLY:454:N:4049, V-A:GLY:453:C:4041, V-A:ARG:545:CD:4922, V-B:TYR:531:CZ:9765, V-B:PRO:540:CD:9858, V-B:TYR:531:CE2:9764, V-B:LEU:363:CD1:8159, V-A:ARG:545:CZ:4925, V-B:ILE:538:CD1:9836, V-A:ARG:545:CG:4921, V-A:HIS:456:CE1:4069, V-B:ILE:538:CG2:9834, V-B:GLU:543:CB:9877, V-A:GLU:543:CD:4907, V-A:GLU:543:CG:4906, V-A:GLU:543:CB:4905, H-A:ARG:545:NH1:4926, H-A:ARG:545:NH2:4927, V-B:ILE:538:CA:9831, V-A:GLY:453:CA:4043, V-B:TYR:539:CE1:9846, V-B:ILE:538:CB:9833, H-A:ARG:545:NE:4923, V-A:ILE:455:C:4051, V-A:ARG:545:CB:4920"]

$$$$
4bb_Grossjean_2025
     RDKit          3D

 41 43  0  0  0  0  0  0  0  0999 V2000
  124.9980  123.0350   57.0440 C   0  0  0  0  0  0  0  0  0  0  0  0
  126.4870  122.6950   56.9340 C   0  0  0  0  0  0  0  0  0  0  0  0
  126.8610  122.0300   55.9670 O   0  0  0  0  0  0  0  0  0  0  0  0
  127.4070  123.1810   58.0140 C   0  0  0  0  0  0  0  0  0  0  0  0
  126.9970  123.1090   59.3510 C   0  0  0  0  0  0  0  0  0  0  0  0
  127.8320  123.5540   60.3720 C   0  0  0  0  0  0  0  0  0  0  0  0
  129.0950  124.0700   60.0770 C   0  0  0  0  0  0  0  0  0  0  0  0
  129.8560  124.4930   61.1850 N   0  0  0  0  0  0  0  0  0  0  0  0
  130.5710  125.6300   61.3680 C   0  0  0  0  0  0  0  0  0  0  0  0
  130.6920  126.5150   60.5210 O   0  0  0  0  0  0  0  0  0  0  0  0
  131.2420  125.7440   62.6660 C   0  0  0  0  0  0  0  0  0  0  0  0
  132.9140  125.2170   62.8480 S   0  0  0  0  0  0  0  0  0  0  0  0
  132.9060  125.6240   64.5480 C   0  0  0  0  0  0  0  0  0  0  0  0
  133.9830  125.4430   65.3110 N   0  0  0  0  0  0  0  0  0  0  0  0
  133.8550  125.7940   66.6120 C   0  0  0  0  0  0  0  0  0  0  0  0
  135.0940  125.5820   67.4630 C   0  0  0  0  0  0  0  0  0  0  0  0
  132.6870  126.3160   67.1620 C   0  0  0  0  0  0  0  0  0  0  0  0
  131.5500  126.5090   66.3630 C   0  0  0  0  0  0  0  0  0  0  0  0
  130.2880  127.0860   67.0130 C   0  0  0  0  0  0  0  0  0  0  0  0
  129.5160  127.7530   66.1520 F   0  0  0  0  0  0  0  0  0  0  0  0
  129.5530  126.0980   67.5260 F   0  0  0  0  0  0  0  0  0  0  0  0
  130.6270  127.9330   67.9840 F   0  0  0  0  0  0  0  0  0  0  0  0
  131.6510  126.1480   64.9850 C   0  0  0  0  0  0  0  0  0  0  0  0
  130.7180  126.2000   63.8870 C   0  0  0  0  0  0  0  0  0  0  0  0
  129.4350  126.6620   64.0260 N   0  0  0  0  0  0  0  0  0  0  0  0
  129.5100  124.1510   58.7390 C   0  0  0  0  0  0  0  0  0  0  0  0
  128.6720  123.7080   57.7190 C   0  0  0  0  0  0  0  0  0  0  0  0
  124.7141  123.0998   58.1048 H   0  0  0  0  0  0  0  0  0  0  0  0
  124.8051  124.0003   56.5531 H   0  0  0  0  0  0  0  0  0  0  0  0
  124.4052  122.2491   56.5531 H   0  0  0  0  0  0  0  0  0  0  0  0
  126.0069  122.6974   59.5965 H   0  0  0  0  0  0  0  0  0  0  0  0
  127.4945  123.4987   61.4175 H   0  0  0  0  0  0  0  0  0  0  0  0
  129.8820  123.8280   61.9440 H   0  0  0  0  0  0  0  0  0  0  0  0
  134.8202  125.6288   68.5273 H   0  0  0  0  0  0  0  0  0  0  0  0
  135.5283  124.5965   67.2392 H   0  0  0  0  0  0  0  0  0  0  0  0
  135.8313  126.3670   67.2392 H   0  0  0  0  0  0  0  0  0  0  0  0
  132.6556  126.5787   68.2297 H   0  0  0  0  0  0  0  0  0  0  0  0
  128.9740  127.1900   63.2970 H   0  0  0  0  0  0  0  0  0  0  0  0
  128.9020  126.4910   64.8680 H   0  0  0  0  0  0  0  0  0  0  0  0
  130.4994  124.5653   58.4954 H   0  0  0  0  0  0  0  0  0  0  0  0
  129.0055  123.7721   56.6727 H   0  0  0  0  0  0  0  0  0  0  0  0
  1  2  1  0
  2  3  2  0
  2  4  1  0
  4  5  2  0
  5  6  1  0
  6  7  2  0
  7  8  1  0
  8  9  1  0
  9 10  2  0
  9 11  1  0
 11 12  1  0
 12 13  1  0
 13 14  2  0
 14 15  1  0
 15 16  1  0
 15 17  2  0
 17 18  1  0
 18 19  1  0
 19 20  1  0
 19 21  1  0
 19 22  1  0
 18 23  2  0
 23 24  1  0
 24 25  1  0
  7 26  1  0
 26 27  2  0
 27  4  1  0
 24 11  2  0
 23 13  1  0
  1 28  1  0
  1 29  1  0
  1 30  1  0
  5 31  1  0
  6 32  1  0
  8 33  1  0
 16 34  1  0
 16 35  1  0
 16 36  1  0
 17 37  1  0
 25 38  1  0
 25 39  1  0
 26 40  1  0
 27 41  1  0
M  END
>  <Binding energies>  (1) 
[-7.44]

>  <Ligand effiencies>  (1) 
[-0.24800000000000003]

>  <Interactions>  (1) 
["V-A:ASP:366:CG:3212, V-B:GLU:543:CD:9879, V-B:PRO:540:N:9855, H-A:TYR:484:OH:4347, V-B:PRO:540:CA:9854, H-B:GLU:543:OE2:9881, H-B:GLU:543:OE1:9880, V-B:TYR:539:C:9838, V-B:TYR:539:CD2:9845, V-B:TYR:539:CE2:9847, V-A:GLY:454:CA:4048, H-B:TYR:539:N:9841, V-B:MET:535:CE:9806, V-B:TYR:539:CZ:9848, V-B:GLU:543:CG:9878, V-B:PRO:540:CB:9856, H-A:GLY:454:N:4049, V-A:GLY:453:C:4041, V-A:ARG:545:CD:4922, V-B:PRO:540:CD:9858, V-B:TYR:531:CE2:9764, V-B:LEU:363:CD1:8159, V-A:ARG:545:CZ:4925, V-A:ARG:545:CG:4921, V-A:HIS:456:CE1:4069, V-B:GLU:543:CB:9877, V-A:GLU:543:CD:4907, V-A:GLU:543:CG:4906, V-A:GLU:543:CB:4905, H-A:ARG:545:NH1:4926, V-A:GLY:453:CA:4043, H-A:ARG:545:NE:4923, V-A:ILE:455:C:4051, V-A:ARG:545:CB:4920, V-A:GLY:454:C:4046, V-A:ILE:455:CA:4053"]

$$$$
4bc_Grossjean_2025
     RDKit          3D

 40 42  0  0  0  0  0  0  0  0999 V2000
  124.0490  129.2160   67.3500 C   0  0  0  0  0  0  0  0  0  0  0  0
  123.5990  129.7850   66.1240 O   0  0  0  0  0  0  0  0  0  0  0  0
  124.5280  130.2950   65.2380 C   0  0  0  0  0  0  0  0  0  0  0  0
  125.0290  129.4110   64.2840 C   0  0  0  0  0  0  0  0  0  0  0  0
  125.9700  129.8340   63.3480 C   0  0  0  0  0  0  0  0  0  0  0  0
  126.4170  131.1570   63.3510 C   0  0  0  0  0  0  0  0  0  0  0  0
  127.3780  131.4890   62.3790 N   0  0  0  0  0  0  0  0  0  0  0  0
  128.1750  132.5830   62.3000 C   0  0  0  0  0  0  0  0  0  0  0  0
  128.1410  133.5170   63.1030 O   0  0  0  0  0  0  0  0  0  0  0  0
  129.1050  132.6040   61.1680 C   0  0  0  0  0  0  0  0  0  0  0  0
  128.5920  133.2480   59.6100 S   0  0  0  0  0  0  0  0  0  0  0  0
  130.1580  132.9190   58.9070 C   0  0  0  0  0  0  0  0  0  0  0  0
  130.4240  133.2110   57.6340 N   0  0  0  0  0  0  0  0  0  0  0  0
  131.6700  132.9090   57.2020 C   0  0  0  0  0  0  0  0  0  0  0  0
  131.9540  133.2550   55.7520 C   0  0  0  0  0  0  0  0  0  0  0  0
  132.6470  132.3250   58.0050 C   0  0  0  0  0  0  0  0  0  0  0  0
  132.3720  132.0140   59.3460 C   0  0  0  0  0  0  0  0  0  0  0  0
  133.4790  131.3700   60.1890 C   0  0  0  0  0  0  0  0  0  0  0  0
  134.0870  132.2370   61.0010 F   0  0  0  0  0  0  0  0  0  0  0  0
  132.9620  130.4060   60.9490 F   0  0  0  0  0  0  0  0  0  0  0  0
  134.4110  130.8510   59.3900 F   0  0  0  0  0  0  0  0  0  0  0  0
  131.0670  132.3230   59.8340 C   0  0  0  0  0  0  0  0  0  0  0  0
  130.4350  132.1580   61.1200 C   0  0  0  0  0  0  0  0  0  0  0  0
  131.0840  131.6130   62.1990 N   0  0  0  0  0  0  0  0  0  0  0  0
  125.9270  132.0500   64.3160 C   0  0  0  0  0  0  0  0  0  0  0  0
  124.9880  131.6220   65.2500 C   0  0  0  0  0  0  0  0  0  0  0  0
  123.6112  129.7696   68.1937 H   0  0  0  0  0  0  0  0  0  0  0  0
  123.7372  128.1624   67.4015 H   0  0  0  0  0  0  0  0  0  0  0  0
  125.1461  129.2766   67.4015 H   0  0  0  0  0  0  0  0  0  0  0  0
  124.6778  128.3687   64.2700 H   0  0  0  0  0  0  0  0  0  0  0  0
  126.3619  129.1242   62.6047 H   0  0  0  0  0  0  0  0  0  0  0  0
  127.4550  130.8260   61.6220 H   0  0  0  0  0  0  0  0  0  0  0  0
  132.6513  134.1046   55.7076 H   0  0  0  0  0  0  0  0  0  0  0  0
  132.4025  132.3858   55.2487 H   0  0  0  0  0  0  0  0  0  0  0  0
  131.0140  133.5255   55.2487 H   0  0  0  0  0  0  0  0  0  0  0  0
  133.6401  132.1062   57.5857 H   0  0  0  0  0  0  0  0  0  0  0  0
  131.3530  132.1680   62.9990 H   0  0  0  0  0  0  0  0  0  0  0  0
  131.3140  130.6290   62.2300 H   0  0  0  0  0  0  0  0  0  0  0  0
  126.2855  133.0898   64.3344 H   0  0  0  0  0  0  0  0  0  0  0  0
  124.6039  132.3271   66.0019 H   0  0  0  0  0  0  0  0  0  0  0  0
  1  2  1  0
  2  3  1  0
  3  4  2  0
  4  5  1  0
  5  6  2  0
  6  7  1  0
  7  8  1  0
  8  9  2  0
  8 10  1  0
 10 11  1  0
 11 12  1  0
 12 13  2  0
 13 14  1  0
 14 15  1  0
 14 16  2  0
 16 17  1  0
 17 18  1  0
 18 19  1  0
 18 20  1  0
 18 21  1  0
 17 22  2  0
 22 23  1  0
 23 24  1  0
  6 25  1  0
 25 26  2  0
 26  3  1  0
 23 10  2  0
 22 12  1  0
  1 27  1  0
  1 28  1  0
  1 29  1  0
  4 30  1  0
  5 31  1  0
  7 32  1  0
 15 33  1  0
 15 34  1  0
 15 35  1  0
 16 36  1  0
 24 37  1  0
 24 38  1  0
 25 39  1  0
 26 40  1  0
M  END
>  <Binding energies>  (1) 
[-6.74]

>  <Ligand effiencies>  (1) 
[-0.23241379310344829]

>  <Interactions>  (1) 
["V-A:LEU:363:CA:3184, V-A:ASP:366:CG:3212, V-A:ASN:362:C:3171, V-A:PRO:540:CB:4884, V-A:TYR:539:CE1:4874, H-A:GLU:543:OE2:4909, V-A:TYR:539:CD1:4872, V-A:ASP:366:CB:3211, V-A:PRO:540:CA:4882, V-A:TYR:531:CE2:4792, V-A:LEU:363:C:3182, V-A:LEU:363:CD1:3188, V-A:GLU:543:CD:4907, V-B:ARG:545:CD:9894, V-B:ARG:545:CG:9893, V-A:ILE:538:CB:4861, V-A:ILE:538:CG2:4862, H-B:TYR:484:OH:9318, V-A:PRO:540:N:4883, V-A:TYR:539:C:4866, V-A:LEU:363:CB:3186, H-B:ARG:545:NE:9895, V-A:ASN:362:CB:3175, V-B:ARG:545:CZ:9897, V-B:LEU:475:CD1:9228, V-B:GLY:454:CA:9019, V-A:ASN:362:CA:3173, H-B:GLY:454:N:9020, H-A:ALA:541:O:4888"]

$$$$
4bd_Grossjean_2025
     RDKit          3D

 36 38  0  0  0  0  0  0  0  0999 V2000
  128.3860  117.1800   76.5650 C   0  0  0  0  0  0  0  0  0  0  0  0
  128.5570  118.5100   75.8530 C   0  0  0  0  0  0  0  0  0  0  0  0
  127.9560  118.7460   74.6190 C   0  0  0  0  0  0  0  0  0  0  0  0
  128.1240  119.9800   73.9710 C   0  0  0  0  0  0  0  0  0  0  0  0
  127.4470  120.1930   72.6130 C   0  0  0  0  0  0  0  0  0  0  0  0
  128.2470  120.7730   71.7160 F   0  0  0  0  0  0  0  0  0  0  0  0
  127.0650  119.0200   72.1090 F   0  0  0  0  0  0  0  0  0  0  0  0
  126.3790  120.9780   72.7600 F   0  0  0  0  0  0  0  0  0  0  0  0
  128.9250  120.9600   74.6300 C   0  0  0  0  0  0  0  0  0  0  0  0
  129.3120  122.3060   74.2850 C   0  0  0  0  0  0  0  0  0  0  0  0
  128.9090  122.9160   73.1250 N   0  0  0  0  0  0  0  0  0  0  0  0
  130.1350  122.9290   75.2370 C   0  0  0  0  0  0  0  0  0  0  0  0
  130.7210  124.2730   75.1990 C   0  0  0  0  0  0  0  0  0  0  0  0
  130.0270  125.2530   74.9240 O   0  0  0  0  0  0  0  0  0  0  0  0
  132.0420  124.3400   75.4960 N   0  0  0  0  0  0  0  0  0  0  0  0
  132.9010  125.4540   75.5080 C   0  0  0  0  0  0  0  0  0  0  0  0
  134.1620  125.2500   76.0770 C   0  0  0  0  0  0  0  0  0  0  0  0
  135.0870  126.2890   76.1270 C   0  0  0  0  0  0  0  0  0  0  0  0
  134.7560  127.5340   75.5990 C   0  0  0  0  0  0  0  0  0  0  0  0
  133.5090  127.7460   75.0160 C   0  0  0  0  0  0  0  0  0  0  0  0
  132.5800  126.7100   74.9650 C   0  0  0  0  0  0  0  0  0  0  0  0
  130.4510  121.8620   76.6030 S   0  0  0  0  0  0  0  0  0  0  0  0
  129.4850  120.5900   75.8920 C   0  0  0  0  0  0  0  0  0  0  0  0
  129.3210  119.4180   76.5030 N   0  0  0  0  0  0  0  0  0  0  0  0
  128.4067  117.3412   77.6529 H   0  0  0  0  0  0  0  0  0  0  0  0
  127.4229  116.7321   76.2790 H   0  0  0  0  0  0  0  0  0  0  0  0
  129.2045  116.5031   76.2790 H   0  0  0  0  0  0  0  0  0  0  0  0
  127.3458  117.9606   74.1491 H   0  0  0  0  0  0  0  0  0  0  0  0
  128.3740  123.7740   73.1290 H   0  0  0  0  0  0  0  0  0  0  0  0
  129.1390  122.5300   72.2200 H   0  0  0  0  0  0  0  0  0  0  0  0
  132.4820  123.4720   75.7660 H   0  0  0  0  0  0  0  0  0  0  0  0
  134.4243  124.2636   76.4871 H   0  0  0  0  0  0  0  0  0  0  0  0
  136.0754  126.1271   76.5818 H   0  0  0  0  0  0  0  0  0  0  0  0
  135.4850  128.3566   75.6426 H   0  0  0  0  0  0  0  0  0  0  0  0
  133.2582  128.7313   74.5961 H   0  0  0  0  0  0  0  0  0  0  0  0
  131.5965  126.8743   74.5005 H   0  0  0  0  0  0  0  0  0  0  0  0
  1  2  1  0
  2  3  2  0
  3  4  1  0
  4  5  1  0
  5  6  1  0
  5  7  1  0
  5  8  1  0
  4  9  2  0
  9 10  1  0
 10 11  1  0
 10 12  2  0
 12 13  1  0
 13 14  2  0
 13 15  1  0
 15 16  1  0
 16 17  2  0
 17 18  1  0
 18 19  2  0
 19 20  1  0
 20 21  2  0
 12 22  1  0
 22 23  1  0
 23 24  2  0
 24  2  1  0
 23  9  1  0
 21 16  1  0
  1 25  1  0
  1 26  1  0
  1 27  1  0
  3 28  1  0
 11 29  1  0
 11 30  1  0
 15 31  1  0
 17 32  1  0
 18 33  1  0
 19 34  1  0
 20 35  1  0
 21 36  1  0
M  END
>  <Binding energies>  (1) 
[-6.63]

>  <Ligand effiencies>  (1) 
[-0.24555555555555555]

>  <Interactions>  (1) 
["H-B:GLU:543:O:9874, H-B:LYS:547:NZ:9922, V-B:GLU:543:C:9873, H-A:ASP:473:OD2:4241, V-B:GLY:544:CA:9885, V-A:TYR:484:CB:4340, V-A:TYR:484:C:4336, V-A:HIS:456:CB:4064, V-B:GLU:543:CA:9875, V-A:VAL:457:C:4072, V-A:HIS:456:C:4060, V-A:VAL:457:CA:4074, V-A:HIS:456:CG:4065, V-A:VAL:458:CG2:4086, V-A:TYR:484:CD2:4343, V-A:TYR:484:CG:4341, V-A:TYR:484:CA:4338, V-A:SER:483:CB:4332"]

$$$$
4be_Grossjean_2025
     RDKit          3D

 38 40  0  0  0  0  0  0  0  0999 V2000
  126.3610  122.0150   55.1580 C   0  0  0  0  0  0  0  0  0  0  0  0
  126.0040  122.6470   56.4890 C   0  0  0  0  0  0  0  0  0  0  0  0
  124.7250  123.1520   56.7390 C   0  0  0  0  0  0  0  0  0  0  0  0
  124.4690  123.7230   57.9860 C   0  0  0  0  0  0  0  0  0  0  0  0
  125.4850  123.7750   58.9430 C   0  0  0  0  0  0  0  0  0  0  0  0
  126.7420  123.2450   58.6300 C   0  0  0  0  0  0  0  0  0  0  0  0
  127.7230  123.3350   59.6330 N   0  0  0  0  0  0  0  0  0  0  0  0
  127.6020  123.1120   60.9660 C   0  0  0  0  0  0  0  0  0  0  0  0
  126.5500  122.7730   61.5120 O   0  0  0  0  0  0  0  0  0  0  0  0
  128.8210  123.3230   61.7520 C   0  0  0  0  0  0  0  0  0  0  0  0
  128.9420  124.7020   62.8430 S   0  0  0  0  0  0  0  0  0  0  0  0
  130.5680  124.2530   63.3020 C   0  0  0  0  0  0  0  0  0  0  0  0
  131.2640  124.9700   64.1830 N   0  0  0  0  0  0  0  0  0  0  0  0
  132.5110  124.5230   64.4600 C   0  0  0  0  0  0  0  0  0  0  0  0
  133.2880  125.3550   65.4630 C   0  0  0  0  0  0  0  0  0  0  0  0
  133.0700  123.3860   63.8840 C   0  0  0  0  0  0  0  0  0  0  0  0
  132.3420  122.6260   62.9560 C   0  0  0  0  0  0  0  0  0  0  0  0
  132.9990  121.3800   62.3520 C   0  0  0  0  0  0  0  0  0  0  0  0
  133.4980  121.5940   61.1310 F   0  0  0  0  0  0  0  0  0  0  0  0
  134.0050  120.9790   63.1280 F   0  0  0  0  0  0  0  0  0  0  0  0
  132.1020  120.4000   62.2510 F   0  0  0  0  0  0  0  0  0  0  0  0
  131.0250  123.0730   62.6380 C   0  0  0  0  0  0  0  0  0  0  0  0
  130.0050  122.5700   61.7500 C   0  0  0  0  0  0  0  0  0  0  0  0
  130.1820  121.4500   60.9780 N   0  0  0  0  0  0  0  0  0  0  0  0
  127.0020  122.6900   57.4100 N   0  0  0  0  0  0  0  0  0  0  0  0
  126.8952  121.0694   55.3326 H   0  0  0  0  0  0  0  0  0  0  0  0
  125.4414  121.8168   54.5878 H   0  0  0  0  0  0  0  0  0  0  0  0
  127.0054  122.7003   54.5878 H   0  0  0  0  0  0  0  0  0  0  0  0
  123.9391  123.1005   55.9711 H   0  0  0  0  0  0  0  0  0  0  0  0
  123.4728  124.1299   58.2141 H   0  0  0  0  0  0  0  0  0  0  0  0
  125.2998  124.2262   59.9290 H   0  0  0  0  0  0  0  0  0  0  0  0
  128.6270  123.6480   59.3110 H   0  0  0  0  0  0  0  0  0  0  0  0
  133.0078  125.0550   66.4835 H   0  0  0  0  0  0  0  0  0  0  0  0
  134.3662  125.1936   65.3163 H   0  0  0  0  0  0  0  0  0  0  0  0
  133.0533  126.4196   65.3163 H   0  0  0  0  0  0  0  0  0  0  0  0
  134.0906  123.0808   64.1584 H   0  0  0  0  0  0  0  0  0  0  0  0
  129.4180  120.8280   60.7550 H   0  0  0  0  0  0  0  0  0  0  0  0
  131.0900  121.2050   60.6100 H   0  0  0  0  0  0  0  0  0  0  0  0
  1  2  1  0
  2  3  2  0
  3  4  1  0
  4  5  2  0
  5  6  1  0
  6  7  1  0
  7  8  1  0
  8  9  2  0
  8 10  1  0
 10 11  1  0
 11 12  1  0
 12 13  2  0
 13 14  1  0
 14 15  1  0
 14 16  2  0
 16 17  1  0
 17 18  1  0
 18 19  1  0
 18 20  1  0
 18 21  1  0
 17 22  2  0
 22 23  1  0
 23 24  1  0
  6 25  2  0
 25  2  1  0
 23 10  2  0
 22 12  1  0
  1 26  1  0
  1 27  1  0
  1 28  1  0
  3 29  1  0
  4 30  1  0
  5 31  1  0
  7 32  1  0
 15 33  1  0
 15 34  1  0
 15 35  1  0
 16 36  1  0
 24 37  1  0
 24 38  1  0
M  END
>  <Binding energies>  (1) 
[-6.59]

>  <Ligand effiencies>  (1) 
[-0.23535714285714285]

>  <Interactions>  (1) 
["V-B:GLU:543:CD:9879, V-B:PRO:540:N:9855, H-B:ALA:541:N:9862, V-B:PRO:540:CA:9854, V-A:LEU:475:CD2:4258, H-B:TYR:539:O:9839, V-A:ILE:369:CD1:3238, V-A:SER:385:C:3404, V-B:TYR:539:CD2:9845, V-A:ILE:369:CG2:3236, V-B:TYR:539:CE2:9847, V-A:SER:385:CA:3406, V-A:SER:385:CB:3408, V-A:GLY:454:CA:4048, V-B:MET:535:CE:9806, V-B:PRO:540:CB:9856, V-B:TYR:531:CZ:9765, V-B:PRO:540:CD:9858, V-B:TYR:531:CE2:9764, V-B:LEU:363:CD1:8159, V-A:ARG:545:CZ:4925, V-B:ILE:538:CD1:9836, V-B:ILE:538:CG2:9834, V-B:ILE:538:CA:9831, V-B:ILE:538:C:9829, V-B:ILE:538:CB:9833, V-B:MET:535:CG:9804, V-B:VAL:537:C:9821"]

$$$$
4bf_Grossjean_2025
     RDKit          3D

 35 37  0  0  0  0  0  0  0  0999 V2000
  133.2590  125.3820   65.2790 C   0  0  0  0  0  0  0  0  0  0  0  0
  132.5170  124.5100   64.2820 C   0  0  0  0  0  0  0  0  0  0  0  0
  133.0830  123.3330   63.8000 C   0  0  0  0  0  0  0  0  0  0  0  0
  132.3880  122.5370   62.8750 C   0  0  0  0  0  0  0  0  0  0  0  0
  133.0510  121.2520   62.3700 C   0  0  0  0  0  0  0  0  0  0  0  0
  132.1880  120.2440   62.2150 F   0  0  0  0  0  0  0  0  0  0  0  0
  133.6230  121.4730   61.1870 F   0  0  0  0  0  0  0  0  0  0  0  0
  133.9790  120.8500   63.2400 F   0  0  0  0  0  0  0  0  0  0  0  0
  131.0990  122.9890   62.4640 C   0  0  0  0  0  0  0  0  0  0  0  0
  130.1150  122.4560   61.5540 C   0  0  0  0  0  0  0  0  0  0  0  0
  130.3030  121.2820   60.8680 N   0  0  0  0  0  0  0  0  0  0  0  0
  128.9550  123.2380   61.4380 C   0  0  0  0  0  0  0  0  0  0  0  0
  127.7810  123.0120   60.5880 C   0  0  0  0  0  0  0  0  0  0  0  0
  126.6860  122.7530   61.0880 O   0  0  0  0  0  0  0  0  0  0  0  0
  128.0000  123.1260   59.2550 N   0  0  0  0  0  0  0  0  0  0  0  0
  127.1110  122.9250   58.1810 C   0  0  0  0  0  0  0  0  0  0  0  0
  125.7560  123.2980   58.1650 C   0  0  0  0  0  0  0  0  0  0  0  0
  124.9780  123.0260   57.0370 C   0  0  0  0  0  0  0  0  0  0  0  0
  125.5760  122.3820   55.9530 C   0  0  0  0  0  0  0  0  0  0  0  0
  126.8790  122.0060   55.9470 N   0  0  0  0  0  0  0  0  0  0  0  0
  127.6220  122.2770   57.0500 C   0  0  0  0  0  0  0  0  0  0  0  0
  129.0500  124.6730   62.4570 S   0  0  0  0  0  0  0  0  0  0  0  0
  130.6340  124.2150   63.0350 C   0  0  0  0  0  0  0  0  0  0  0  0
  131.2970  124.9660   63.9130 N   0  0  0  0  0  0  0  0  0  0  0  0
  132.9968  125.0739   66.3019 H   0  0  0  0  0  0  0  0  0  0  0  0
  134.3429  125.2699   65.1287 H   0  0  0  0  0  0  0  0  0  0  0  0
  132.9749  126.4340   65.1287 H   0  0  0  0  0  0  0  0  0  0  0  0
  134.0807  123.0246   64.1458 H   0  0  0  0  0  0  0  0  0  0  0  0
  131.2030  121.0220   60.4920 H   0  0  0  0  0  0  0  0  0  0  0  0
  129.5420  120.6350   60.7170 H   0  0  0  0  0  0  0  0  0  0  0  0
  128.9310  123.4010   58.9790 H   0  0  0  0  0  0  0  0  0  0  0  0
  125.3106  123.8013   59.0358 H   0  0  0  0  0  0  0  0  0  0  0  0
  123.9167  123.3133   57.0040 H   0  0  0  0  0  0  0  0  0  0  0  0
  124.9635  122.1700   55.0642 H   0  0  0  0  0  0  0  0  0  0  0  0
  128.6789  121.9722   57.0556 H   0  0  0  0  0  0  0  0  0  0  0  0
  1  2  1  0
  2  3  2  0
  3  4  1  0
  4  5  1  0
  5  6  1  0
  5  7  1  0
  5  8  1  0
  4  9  2  0
  9 10  1  0
 10 11  1  0
 10 12  2  0
 12 13  1  0
 13 14  2  0
 13 15  1  0
 15 16  1  0
 16 17  2  0
 17 18  1  0
 18 19  2  0
 19 20  1  0
 20 21  2  0
 12 22  1  0
 22 23  1  0
 23 24  2  0
 24  2  1  0
 23  9  1  0
 21 16  1  0
  1 25  1  0
  1 26  1  0
  1 27  1  0
  3 28  1  0
 11 29  1  0
 11 30  1  0
 15 31  1  0
 17 32  1  0
 18 33  1  0
 19 34  1  0
 21 35  1  0
M  END
>  <Binding energies>  (1) 
[-6.76]

>  <Ligand effiencies>  (1) 
[-0.25037037037037035]

>  <Interactions>  (1) 
["V-B:PRO:540:N:9855, H-B:ALA:541:N:9862, V-B:PRO:540:CA:9854, V-B:TYR:539:C:9838, V-A:LEU:475:CD2:4258, H-B:TYR:539:O:9839, V-A:ILE:369:CD1:3238, V-A:SER:385:C:3404, V-B:TYR:539:CD2:9845, V-A:ILE:369:CG2:3236, V-B:TYR:539:CE2:9847, V-A:SER:385:CA:3406, V-A:SER:385:CB:3408, V-A:GLY:454:CA:4048, H-B:TYR:539:N:9841, V-B:TYR:539:CG:9843, V-B:MET:535:CE:9806, V-B:TYR:539:CZ:9848, V-B:PRO:540:CB:9856, V-B:TYR:539:CA:9840, V-B:TYR:539:CD1:9844, V-B:PRO:540:CD:9858, V-B:TYR:531:CE2:9764, V-B:LEU:363:CD1:8159, V-A:ARG:545:CZ:4925, V-B:ILE:538:CD1:9836, V-B:ILE:538:CG2:9834, V-B:ILE:538:CA:9831, V-B:TYR:539:CE1:9846"]

$$$$
4bg_Grossjean_2025
     RDKit          3D

 39 41  0  0  0  0  0  0  0  0999 V2000
  133.2630  125.0480   65.2250 C   0  0  0  0  0  0  0  0  0  0  0  0
  132.2990  124.3150   64.3100 C   0  0  0  0  0  0  0  0  0  0  0  0
  132.6860  123.1600   63.6370 C   0  0  0  0  0  0  0  0  0  0  0  0
  131.7860  122.4950   62.7890 C   0  0  0  0  0  0  0  0  0  0  0  0
  132.2570  121.2270   62.0690 C   0  0  0  0  0  0  0  0  0  0  0  0
  132.4960  121.4230   60.7700 F   0  0  0  0  0  0  0  0  0  0  0  0
  133.3890  120.7900   62.6210 F   0  0  0  0  0  0  0  0  0  0  0  0
  131.3260  120.2790   62.1650 F   0  0  0  0  0  0  0  0  0  0  0  0
  130.4800  123.0540   62.6590 C   0  0  0  0  0  0  0  0  0  0  0  0
  129.3180  122.6660   61.8970 C   0  0  0  0  0  0  0  0  0  0  0  0
  129.3020  121.5700   61.0720 N   0  0  0  0  0  0  0  0  0  0  0  0
  128.2070  123.5040   62.0810 C   0  0  0  0  0  0  0  0  0  0  0  0
  126.8910  123.4250   61.4490 C   0  0  0  0  0  0  0  0  0  0  0  0
  125.9100  122.9930   62.0570 O   0  0  0  0  0  0  0  0  0  0  0  0
  126.8140  123.8890   60.1840 N   0  0  0  0  0  0  0  0  0  0  0  0
  125.6100  123.8970   59.3540 C   0  0  0  0  0  0  0  0  0  0  0  0
  125.8130  123.2720   57.9800 C   0  0  0  0  0  0  0  0  0  0  0  0
  124.7280  123.1170   57.1120 C   0  0  0  0  0  0  0  0  0  0  0  0
  124.9230  122.5810   55.8430 C   0  0  0  0  0  0  0  0  0  0  0  0
  126.2040  122.2140   55.4380 C   0  0  0  0  0  0  0  0  0  0  0  0
  127.2930  122.3810   56.2900 C   0  0  0  0  0  0  0  0  0  0  0  0
  127.0980  122.9160   57.5610 C   0  0  0  0  0  0  0  0  0  0  0  0
  128.5790  124.8280   63.1810 S   0  0  0  0  0  0  0  0  0  0  0  0
  130.2080  124.2380   63.4100 C   0  0  0  0  0  0  0  0  0  0  0  0
  131.0680  124.8670   64.2120 N   0  0  0  0  0  0  0  0  0  0  0  0
  132.9982  124.8467   66.2735 H   0  0  0  0  0  0  0  0  0  0  0  0
  134.2883  124.6993   65.0323 H   0  0  0  0  0  0  0  0  0  0  0  0
  133.2011  126.1292   65.0323 H   0  0  0  0  0  0  0  0  0  0  0  0
  133.7041  122.7653   63.7703 H   0  0  0  0  0  0  0  0  0  0  0  0
  128.5590  120.8880   61.1040 H   0  0  0  0  0  0  0  0  0  0  0  0
  130.0440  121.4030   60.4060 H   0  0  0  0  0  0  0  0  0  0  0  0
  127.6720  124.1540   59.7220 H   0  0  0  0  0  0  0  0  0  0  0  0
  124.8223  123.3361   59.8783 H   0  0  0  0  0  0  0  0  0  0  0  0
  125.3364  124.9501   59.1923 H   0  0  0  0  0  0  0  0  0  0  0  0
  123.7199  123.4189   57.4325 H   0  0  0  0  0  0  0  0  0  0  0  0
  124.0691  122.4477   55.1625 H   0  0  0  0  0  0  0  0  0  0  0  0
  126.3571  121.7881   54.4354 H   0  0  0  0  0  0  0  0  0  0  0  0
  128.3019  122.0918   55.9608 H   0  0  0  0  0  0  0  0  0  0  0  0
  127.9554  123.0584   58.2352 H   0  0  0  0  0  0  0  0  0  0  0  0
  1  2  1  0
  2  3  2  0
  3  4  1  0
  4  5  1  0
  5  6  1  0
  5  7  1  0
  5  8  1  0
  4  9  2  0
  9 10  1  0
 10 11  1  0
 10 12  2  0
 12 13  1  0
 13 14  2  0
 13 15  1  0
 15 16  1  0
 16 17  1  0
 17 18  2  0
 18 19  1  0
 19 20  2  0
 20 21  1  0
 21 22  2  0
 12 23  1  0
 23 24  1  0
 24 25  2  0
 25  2  1  0
 24  9  1  0
 22 17  1  0
  1 26  1  0
  1 27  1  0
  1 28  1  0
  3 29  1  0
 11 30  1  0
 11 31  1  0
 15 32  1  0
 16 33  1  0
 16 34  1  0
 18 35  1  0
 19 36  1  0
 20 37  1  0
 21 38  1  0
 22 39  1  0
M  END
>  <Binding energies>  (1) 
[-6.69]

>  <Ligand effiencies>  (1) 
[-0.23892857142857143]

>  <Interactions>  (1) 
["V-B:GLU:543:CD:9879, V-B:PRO:540:N:9855, H-B:ALA:541:N:9862, V-B:ALA:541:CB:9863, V-B:PRO:540:CA:9854, V-B:TYR:539:C:9838, V-A:LEU:475:CD2:4258, H-B:TYR:539:O:9839, V-A:SER:385:C:3404, V-B:TYR:539:CD2:9845, V-A:ILE:369:CG2:3236, V-B:TYR:539:CE2:9847, V-A:SER:385:CA:3406, V-A:SER:385:CB:3408, V-A:GLY:454:CA:4048, V-B:TYR:539:CG:9843, V-B:MET:535:CE:9806, V-B:PRO:540:CB:9856, V-B:TYR:539:CD1:9844, V-B:TYR:531:CZ:9765, V-B:PRO:540:CD:9858, V-B:TYR:531:CE2:9764, V-B:LEU:363:CD1:8159, V-A:ARG:545:CZ:4925, V-B:ILE:538:CD1:9836, V-B:ILE:538:CG2:9834, V-B:ILE:538:CA:9831, V-B:TYR:539:CE1:9846, V-B:ILE:538:C:9829, V-B:ILE:538:CB:9833, V-B:MET:535:CG:9804"]

$$$$
4bh_Grossjean_2025
     RDKit          3D

 51 53  0  0  0  0  0  0  0  0999 V2000
  129.1900  124.0060   73.1650 C   0  0  0  0  0  0  0  0  0  0  0  0
  128.5530  125.2500   73.4330 O   0  0  0  0  0  0  0  0  0  0  0  0
  129.2470  126.4280   73.2240 C   0  0  0  0  0  0  0  0  0  0  0  0
  129.1200  127.2190   72.0720 C   0  0  0  0  0  0  0  0  0  0  0  0
  129.8550  128.3960   71.9260 C   0  0  0  0  0  0  0  0  0  0  0  0
  129.6690  129.2660   70.6890 C   0  0  0  0  0  0  0  0  0  0  0  0
  130.1730  128.6490   69.4610 N   0  0  0  0  0  0  0  0  0  0  0  0
  129.5710  127.6500   68.7840 C   0  0  0  0  0  0  0  0  0  0  0  0
  128.5270  127.1210   69.1720 O   0  0  0  0  0  0  0  0  0  0  0  0
  130.2530  127.1910   67.5740 C   0  0  0  0  0  0  0  0  0  0  0  0
  131.7840  126.3300   67.6980 S   0  0  0  0  0  0  0  0  0  0  0  0
  131.9080  126.2110   65.9580 C   0  0  0  0  0  0  0  0  0  0  0  0
  132.9410  125.6050   65.3750 N   0  0  0  0  0  0  0  0  0  0  0  0
  132.9240  125.5740   64.0220 C   0  0  0  0  0  0  0  0  0  0  0  0
  134.1120  124.8810   63.3780 C   0  0  0  0  0  0  0  0  0  0  0  0
  131.9090  126.1260   63.2470 C   0  0  0  0  0  0  0  0  0  0  0  0
  130.8180  126.7670   63.8560 C   0  0  0  0  0  0  0  0  0  0  0  0
  129.7230  127.3580   62.9610 C   0  0  0  0  0  0  0  0  0  0  0  0
  128.5400  126.7600   63.1180 F   0  0  0  0  0  0  0  0  0  0  0  0
  129.5570  128.6490   63.2440 F   0  0  0  0  0  0  0  0  0  0  0  0
  130.0690  127.2290   61.6800 F   0  0  0  0  0  0  0  0  0  0  0  0
  130.8060  126.8200   65.2810 C   0  0  0  0  0  0  0  0  0  0  0  0
  129.8820  127.3850   66.2340 C   0  0  0  0  0  0  0  0  0  0  0  0
  128.7400  128.0440   65.8600 N   0  0  0  0  0  0  0  0  0  0  0  0
  130.7060  128.8060   72.9540 C   0  0  0  0  0  0  0  0  0  0  0  0
  130.8590  128.0320   74.1140 C   0  0  0  0  0  0  0  0  0  0  0  0
  131.6940  128.3690   75.1640 O   0  0  0  0  0  0  0  0  0  0  0  0
  133.0630  127.9790   75.1200 C   0  0  0  0  0  0  0  0  0  0  0  0
  130.1280  126.8410   74.2340 C   0  0  0  0  0  0  0  0  0  0  0  0
  130.2550  126.0810   75.3740 O   0  0  0  0  0  0  0  0  0  0  0  0
  131.3440  125.1690   75.3410 C   0  0  0  0  0  0  0  0  0  0  0  0
  129.4431  123.5116   74.1145 H   0  0  0  0  0  0  0  0  0  0  0  0
  128.5102  123.3630   72.5867 H   0  0  0  0  0  0  0  0  0  0  0  0
  130.1091  124.1817   72.5867 H   0  0  0  0  0  0  0  0  0  0  0  0
  128.4315  126.9069   71.2729 H   0  0  0  0  0  0  0  0  0  0  0  0
  128.5949  129.4666   70.5626 H   0  0  0  0  0  0  0  0  0  0  0  0
  130.2488  130.1868   70.8504 H   0  0  0  0  0  0  0  0  0  0  0  0
  130.9790  129.0910   69.0420 H   0  0  0  0  0  0  0  0  0  0  0  0
  134.7787  124.4921   64.1617 H   0  0  0  0  0  0  0  0  0  0  0  0
  133.7563  124.0487   62.7529 H   0  0  0  0  0  0  0  0  0  0  0  0
  134.6614  125.6003   62.7529 H   0  0  0  0  0  0  0  0  0  0  0  0
  131.9614  126.0599   62.1502 H   0  0  0  0  0  0  0  0  0  0  0  0
  128.6610  129.0510   65.9170 H   0  0  0  0  0  0  0  0  0  0  0  0
  127.9310  127.5430   65.5210 H   0  0  0  0  0  0  0  0  0  0  0  0
  131.2640  129.7486   72.8531 H   0  0  0  0  0  0  0  0  0  0  0  0
  133.4463  127.8698   76.1453 H   0  0  0  0  0  0  0  0  0  0  0  0
  133.1540  127.0192   74.5904 H   0  0  0  0  0  0  0  0  0  0  0  0
  133.6461  128.7468   74.5904 H   0  0  0  0  0  0  0  0  0  0  0  0
  131.6435  124.9182   76.3693 H   0  0  0  0  0  0  0  0  0  0  0  0
  131.0391  124.2528   74.8141 H   0  0  0  0  0  0  0  0  0  0  0  0
  132.1925  125.6299   74.8141 H   0  0  0  0  0  0  0  0  0  0  0  0
  1  2  1  0
  2  3  1  0
  3  4  2  0
  4  5  1  0
  5  6  1  0
  6  7  1  0
  7  8  1  0
  8  9  2  0
  8 10  1  0
 10 11  1  0
 11 12  1  0
 12 13  2  0
 13 14  1  0
 14 15  1  0
 14 16  2  0
 16 17  1  0
 17 18  1  0
 18 19  1  0
 18 20  1  0
 18 21  1  0
 17 22  2  0
 22 23  1  0
 23 24  1  0
  5 25  2  0
 25 26  1  0
 26 27  1  0
 27 28  1  0
 26 29  2  0
 29 30  1  0
 30 31  1  0
 29  3  1  0
 23 10  2  0
 22 12  1  0
  1 32  1  0
  1 33  1  0
  1 34  1  0
  4 35  1  0
  6 36  1  0
  6 37  1  0
  7 38  1  0
 15 39  1  0
 15 40  1  0
 15 41  1  0
 16 42  1  0
 24 43  1  0
 24 44  1  0
 25 45  1  0
 28 46  1  0
 28 47  1  0
 28 48  1  0
 31 49  1  0
 31 50  1  0
 31 51  1  0
M  END
>  <Binding energies>  (1) 
[-6.19]

>  <Ligand effiencies>  (1) 
[-0.18205882352941177]

>  <Interactions>  (1) 
["V-A:ASP:366:CG:3212, V-B:GLU:543:CD:9879, H-A:TYR:484:OH:4347, H-B:GLU:543:OE2:9881, H-B:GLU:543:OE1:9880, V-A:GLY:454:CA:4048, V-A:GLY:453:C:4041, V-A:ARG:545:CZ:4925, V-A:HIS:456:CE1:4069, H-A:GLU:543:OE1:4908, V-A:GLU:543:CD:4907, V-B:HIS:456:CE1:9040, H-B:LYS:547:NZ:9922, V-A:HIS:456:CD2:4067, H-A:GLU:543:O:4902, V-A:GLY:544:C:4911, H-A:LYS:547:NZ:4950, V-A:LYS:547:CE:4949, V-A:GLU:543:CB:4905, V-A:GLU:543:C:4901, V-A:GLY:453:CA:4043, V-A:TYR:484:CZ:4346, V-A:LYS:547:CD:4948"]

$$$$
4bi_Grossjean_2025
     RDKit          3D

 32 34  0  0  0  0  0  0  0  0999 V2000
  133.2720  125.3590   65.2110 C   0  0  0  0  0  0  0  0  0  0  0  0
  132.5710  124.4710   64.1980 C   0  0  0  0  0  0  0  0  0  0  0  0
  133.1460  123.2760   63.7730 C   0  0  0  0  0  0  0  0  0  0  0  0
  132.4840  122.4620   62.8380 C   0  0  0  0  0  0  0  0  0  0  0  0
  133.1520  121.1530   62.4060 C   0  0  0  0  0  0  0  0  0  0  0  0
  132.2770  120.1680   62.1860 F   0  0  0  0  0  0  0  0  0  0  0  0
  133.8300  121.3430   61.2750 F   0  0  0  0  0  0  0  0  0  0  0  0
  133.9890  120.7370   63.3570 F   0  0  0  0  0  0  0  0  0  0  0  0
  131.2210  122.9180   62.3560 C   0  0  0  0  0  0  0  0  0  0  0  0
  130.2750  122.3700   61.4140 C   0  0  0  0  0  0  0  0  0  0  0  0
  130.4850  121.1840   60.7580 N   0  0  0  0  0  0  0  0  0  0  0  0
  129.1230  123.1540   61.2360 C   0  0  0  0  0  0  0  0  0  0  0  0
  127.9780  122.9070   60.3560 C   0  0  0  0  0  0  0  0  0  0  0  0
  126.8450  122.7660   60.8210 O   0  0  0  0  0  0  0  0  0  0  0  0
  128.2600  122.8690   59.0300 N   0  0  0  0  0  0  0  0  0  0  0  0
  127.3720  122.6660   57.9810 C   0  0  0  0  0  0  0  0  0  0  0  0
  126.0700  123.1640   57.9790 C   0  0  0  0  0  0  0  0  0  0  0  0
  125.5300  122.7500   56.7830 C   0  0  0  0  0  0  0  0  0  0  0  0
  126.4590  122.0410   56.0990 O   0  0  0  0  0  0  0  0  0  0  0  0
  127.6230  121.9940   56.8700 N   0  0  0  0  0  0  0  0  0  0  0  0
  129.1880  124.6150   62.2180 S   0  0  0  0  0  0  0  0  0  0  0  0
  130.7440  124.1610   62.8730 C   0  0  0  0  0  0  0  0  0  0  0  0
  131.3750  124.9280   63.7610 N   0  0  0  0  0  0  0  0  0  0  0  0
  133.0126  125.0304   66.2282 H   0  0  0  0  0  0  0  0  0  0  0  0
  134.3605  125.2884   65.0693 H   0  0  0  0  0  0  0  0  0  0  0  0
  132.9506  126.4014   65.0693 H   0  0  0  0  0  0  0  0  0  0  0  0
  134.1238  122.9675   64.1714 H   0  0  0  0  0  0  0  0  0  0  0  0
  129.7470  120.5040   60.6370 H   0  0  0  0  0  0  0  0  0  0  0  0
  131.3890  120.9470   60.3750 H   0  0  0  0  0  0  0  0  0  0  0  0
  129.2230  123.0110   58.7610 H   0  0  0  0  0  0  0  0  0  0  0  0
  125.5802  123.7592   58.7638 H   0  0  0  0  0  0  0  0  0  0  0  0
  124.5072  122.9612   56.4377 H   0  0  0  0  0  0  0  0  0  0  0  0
  1  2  1  0
  2  3  2  0
  3  4  1  0
  4  5  1  0
  5  6  1  0
  5  7  1  0
  5  8  1  0
  4  9  2  0
  9 10  1  0
 10 11  1  0
 10 12  2  0
 12 13  1  0
 13 14  2  0
 13 15  1  0
 15 16  1  0
 16 17  1  0
 17 18  2  0
 18 19  1  0
 19 20  1  0
 12 21  1  0
 21 22  1  0
 22 23  2  0
 23  2  1  0
 22  9  1  0
 20 16  2  0
  1 24  1  0
  1 25  1  0
  1 26  1  0
  3 27  1  0
 11 28  1  0
 11 29  1  0
 15 30  1  0
 17 31  1  0
 18 32  1  0
M  END
>  <Binding energies>  (1) 
[-6.52]

>  <Ligand effiencies>  (1) 
[-0.25076923076923074]

>  <Interactions>  (1) 
["V-B:PRO:540:N:9855, H-B:ALA:541:N:9862, V-B:PRO:540:CA:9854, V-B:TYR:539:C:9838, V-A:LEU:475:CD2:4258, H-B:TYR:539:O:9839, V-A:ILE:369:CD1:3238, V-A:SER:385:C:3404, V-B:TYR:539:CD2:9845, V-A:ILE:369:CG2:3236, V-B:TYR:539:CE2:9847, V-A:SER:385:CA:3406, V-A:SER:385:CB:3408, V-A:GLY:454:CA:4048, H-B:TYR:539:N:9841, V-B:PRO:540:CB:9856, V-B:PRO:540:CD:9858, V-B:LEU:363:CD1:8159, V-A:ARG:545:CZ:4925"]

$$$$
4bj_Grossjean_2025
     RDKit          3D

 32 34  0  0  0  0  0  0  0  0999 V2000
  128.5070  117.2730   76.5780 C   0  0  0  0  0  0  0  0  0  0  0  0
  128.6450  118.6060   75.8670 C   0  0  0  0  0  0  0  0  0  0  0  0
  127.9820  118.8520   74.6670 C   0  0  0  0  0  0  0  0  0  0  0  0
  128.1240  120.0880   74.0160 C   0  0  0  0  0  0  0  0  0  0  0  0
  127.3760  120.3100   72.6970 C   0  0  0  0  0  0  0  0  0  0  0  0
  128.1400  120.8580   71.7500 F   0  0  0  0  0  0  0  0  0  0  0  0
  126.9320  119.1450   72.2280 F   0  0  0  0  0  0  0  0  0  0  0  0
  126.3420  121.1270   72.8990 F   0  0  0  0  0  0  0  0  0  0  0  0
  128.9640  121.0590   74.6370 C   0  0  0  0  0  0  0  0  0  0  0  0
  129.3470  122.4020   74.2740 C   0  0  0  0  0  0  0  0  0  0  0  0
  128.9020  123.0160   73.1310 N   0  0  0  0  0  0  0  0  0  0  0  0
  130.2040  123.0230   75.1970 C   0  0  0  0  0  0  0  0  0  0  0  0
  130.7890  124.3650   75.1390 C   0  0  0  0  0  0  0  0  0  0  0  0
  130.0840  125.3510   74.9100 O   0  0  0  0  0  0  0  0  0  0  0  0
  132.1240  124.4290   75.3650 N   0  0  0  0  0  0  0  0  0  0  0  0
  132.9130  125.5710   75.3780 C   0  0  0  0  0  0  0  0  0  0  0  0
  132.6280  126.7570   74.8870 N   0  0  0  0  0  0  0  0  0  0  0  0
  133.6110  127.6130   75.0830 C   0  0  0  0  0  0  0  0  0  0  0  0
  134.7310  127.1220   75.7470 C   0  0  0  0  0  0  0  0  0  0  0  0
  134.4720  125.4460   76.1300 S   0  0  0  0  0  0  0  0  0  0  0  0
  130.5850  121.9480   76.5390 S   0  0  0  0  0  0  0  0  0  0  0  0
  129.5830  120.6820   75.8690 C   0  0  0  0  0  0  0  0  0  0  0  0
  129.4470  119.5060   76.4810 N   0  0  0  0  0  0  0  0  0  0  0  0
  128.5237  117.4343   77.6660 H   0  0  0  0  0  0  0  0  0  0  0  0
  127.5552  116.8016   76.2918 H   0  0  0  0  0  0  0  0  0  0  0  0
  129.3420  116.6166   76.2918 H   0  0  0  0  0  0  0  0  0  0  0  0
  127.3428  118.0727   74.2263 H   0  0  0  0  0  0  0  0  0  0  0  0
  128.3430  123.8560   73.1570 H   0  0  0  0  0  0  0  0  0  0  0  0
  129.1160  122.6410   72.2170 H   0  0  0  0  0  0  0  0  0  0  0  0
  132.6040  123.5620   75.5520 H   0  0  0  0  0  0  0  0  0  0  0  0
  133.5495  128.6567   74.7410 H   0  0  0  0  0  0  0  0  0  0  0  0
  135.6343  127.7007   75.9903 H   0  0  0  0  0  0  0  0  0  0  0  0
  1  2  1  0
  2  3  2  0
  3  4  1  0
  4  5  1  0
  5  6  1  0
  5  7  1  0
  5  8  1  0
  4  9  2  0
  9 10  1  0
 10 11  1  0
 10 12  2  0
 12 13  1  0
 13 14  2  0
 13 15  1  0
 15 16  1  0
 16 17  2  0
 17 18  1  0
 18 19  2  0
 19 20  1  0
 12 21  1  0
 21 22  1  0
 22 23  2  0
 23  2  1  0
 22  9  1  0
 20 16  1  0
  1 24  1  0
  1 25  1  0
  1 26  1  0
  3 27  1  0
 11 28  1  0
 11 29  1  0
 15 30  1  0
 18 31  1  0
 19 32  1  0
M  END
>  <Binding energies>  (1) 
[-6.01]

>  <Ligand effiencies>  (1) 
[-0.23115384615384615]

>  <Interactions>  (1) 
["H-B:GLU:543:O:9874, H-B:LYS:547:NZ:9922, V-B:GLU:543:C:9873, H-A:ASP:473:OD2:4241, V-B:GLY:544:CA:9885, V-A:ASP:473:CG:4239, V-A:TYR:484:CB:4340, V-A:TYR:484:C:4336, V-A:HIS:456:CB:4064, V-B:GLU:543:CA:9875, V-A:VAL:457:C:4072, V-A:HIS:456:C:4060, V-A:HIS:456:CG:4065, V-A:VAL:458:CG2:4086, H-A:HIS:456:ND1:4066, V-A:TYR:484:CD2:4343, V-A:TYR:484:CG:4341, V-A:TYR:484:CA:4338"]

$$$$
4bk_Grossjean_2025
     RDKit          3D

 50 51  0  0  0  0  0  0  0  0999 V2000
  127.7860  125.8670   57.5140 C   0  0  0  0  0  0  0  0  0  0  0  0
  127.7360  124.5360   58.0030 O   0  0  0  0  0  0  0  0  0  0  0  0
  128.4270  123.6050   57.1800 C   0  0  0  0  0  0  0  0  0  0  0  0
  127.6730  122.2690   57.1760 C   0  0  0  0  0  0  0  0  0  0  0  0
  127.0900  122.0600   55.8970 O   0  0  0  0  0  0  0  0  0  0  0  0
  125.6690  122.0820   55.9030 C   0  0  0  0  0  0  0  0  0  0  0  0
  125.1710  122.4610   57.3040 C   0  0  0  0  0  0  0  0  0  0  0  0
  125.2700  123.8690   57.4730 O   0  0  0  0  0  0  0  0  0  0  0  0
  124.1570  124.4470   58.1450 C   0  0  0  0  0  0  0  0  0  0  0  0
  124.2520  124.1350   59.6490 C   0  0  0  0  0  0  0  0  0  0  0  0
  125.5930  123.7400   60.0830 N   0  0  0  0  0  0  0  0  0  0  0  0
  125.9310  123.3820   61.3400 C   0  0  0  0  0  0  0  0  0  0  0  0
  125.1100  123.3360   62.2570 O   0  0  0  0  0  0  0  0  0  0  0  0
  127.3380  123.0390   61.5550 C   0  0  0  0  0  0  0  0  0  0  0  0
  128.3960  122.7450   60.1770 S   0  0  0  0  0  0  0  0  0  0  0  0
  129.7610  122.4610   61.2310 C   0  0  0  0  0  0  0  0  0  0  0  0
  130.9650  122.1610   60.7450 N   0  0  0  0  0  0  0  0  0  0  0  0
  131.9440  121.9650   61.6590 C   0  0  0  0  0  0  0  0  0  0  0  0
  133.3070  121.6270   61.0820 C   0  0  0  0  0  0  0  0  0  0  0  0
  131.7490  122.0610   63.0340 C   0  0  0  0  0  0  0  0  0  0  0  0
  130.4830  122.3750   63.5530 C   0  0  0  0  0  0  0  0  0  0  0  0
  130.3170  122.4650   65.0740 C   0  0  0  0  0  0  0  0  0  0  0  0
  130.1430  123.7160   65.5070 F   0  0  0  0  0  0  0  0  0  0  0  0
  129.2530  121.7580   65.4540 F   0  0  0  0  0  0  0  0  0  0  0  0
  131.4030  121.9820   65.6760 F   0  0  0  0  0  0  0  0  0  0  0  0
  129.4290  122.5890   62.6160 C   0  0  0  0  0  0  0  0  0  0  0  0
  128.0340  122.9250   62.7670 C   0  0  0  0  0  0  0  0  0  0  0  0
  127.4450  123.1120   63.9910 N   0  0  0  0  0  0  0  0  0  0  0  0
  127.8123  126.5681   58.3612 H   0  0  0  0  0  0  0  0  0  0  0  0
  128.6897  125.9987   56.9009 H   0  0  0  0  0  0  0  0  0  0  0  0
  126.8947  126.0661   56.9009 H   0  0  0  0  0  0  0  0  0  0  0  0
  128.4859  123.9960   56.1535 H   0  0  0  0  0  0  0  0  0  0  0  0
  129.4431  123.4517   57.5725 H   0  0  0  0  0  0  0  0  0  0  0  0
  128.3743  121.4511   57.3978 H   0  0  0  0  0  0  0  0  0  0  0  0
  126.8828  122.2907   57.9409 H   0  0  0  0  0  0  0  0  0  0  0  0
  125.3104  122.8228   55.1732 H   0  0  0  0  0  0  0  0  0  0  0  0
  125.2850  121.0871   55.6333 H   0  0  0  0  0  0  0  0  0  0  0  0
  124.1220  122.1502   57.4176 H   0  0  0  0  0  0  0  0  0  0  0  0
  125.7856  121.9547   58.0629 H   0  0  0  0  0  0  0  0  0  0  0  0
  124.1626  125.5367   57.9948 H   0  0  0  0  0  0  0  0  0  0  0  0
  123.2241  124.0277   57.7402 H   0  0  0  0  0  0  0  0  0  0  0  0
  123.9559  125.0338   60.2098 H   0  0  0  0  0  0  0  0  0  0  0  0
  123.5860  123.2814   59.8436 H   0  0  0  0  0  0  0  0  0  0  0  0
  126.3130  123.7570   59.3770 H   0  0  0  0  0  0  0  0  0  0  0  0
  134.0187  121.4505   61.9019 H   0  0  0  0  0  0  0  0  0  0  0  0
  133.2287  120.7211   60.4630 H   0  0  0  0  0  0  0  0  0  0  0  0
  133.6611  122.4645   60.4630 H   0  0  0  0  0  0  0  0  0  0  0  0
  132.5928  121.8896   63.7186 H   0  0  0  0  0  0  0  0  0  0  0  0
  126.4410  123.0920   64.1100 H   0  0  0  0  0  0  0  0  0  0  0  0
  127.9980  123.2720   64.8220 H   0  0  0  0  0  0  0  0  0  0  0  0
  1  2  1  0
  2  3  1  0
  3  4  1  0
  4  5  1  0
  5  6  1  0
  6  7  1  0
  7  8  1  0
  8  9  1  0
  9 10  1  0
 10 11  1  0
 11 12  1  0
 12 13  2  0
 12 14  1  0
 14 15  1  0
 15 16  1  0
 16 17  2  0
 17 18  1  0
 18 19  1  0
 18 20  2  0
 20 21  1  0
 21 22  1  0
 22 23  1  0
 22 24  1  0
 22 25  1  0
 21 26  2  0
 26 27  1  0
 27 28  1  0
 27 14  2  0
 26 16  1  0
  1 29  1  0
  1 30  1  0
  1 31  1  0
  3 32  1  0
  3 33  1  0
  4 34  1  0
  4 35  1  0
  6 36  1  0
  6 37  1  0
  7 38  1  0
  7 39  1  0
  9 40  1  0
  9 41  1  0
 10 42  1  0
 10 43  1  0
 11 44  1  0
 19 45  1  0
 19 46  1  0
 19 47  1  0
 20 48  1  0
 28 49  1  0
 28 50  1  0
M  END
>  <Binding energies>  (1) 
[-5.24]

>  <Ligand effiencies>  (1) 
[-0.16903225806451613]

>  <Interactions>  (1) 
["V-B:GLU:543:CD:9879, V-B:PRO:540:N:9855, H-B:ALA:541:N:9862, V-B:ALA:541:CB:9863, V-B:PRO:540:CA:9854, H-B:GLU:543:OE2:9881, V-B:ALA:541:CA:9861, V-B:PRO:540:C:9852, H-B:GLU:543:OE1:9880, V-B:TYR:539:C:9838, V-A:LEU:475:CD2:4258, H-B:ALA:541:O:9860, V-A:ILE:369:CD1:3238, V-B:TYR:539:CD2:9845, V-A:ILE:369:CG2:3236, V-B:TYR:539:CE2:9847, H-B:TYR:539:N:9841, V-B:TYR:539:CG:9843, V-B:MET:535:CE:9806, V-B:TYR:539:CZ:9848, V-B:GLU:543:CG:9878, V-A:LEU:475:CD1:4257, V-B:ALA:541:C:9859, V-B:PRO:540:CB:9856, V-B:TYR:539:CA:9840, V-B:TYR:539:CD1:9844, V-B:PRO:540:CD:9858, V-B:LEU:363:CD1:8159, V-B:ILE:538:CD1:9836, V-B:ILE:538:CG2:9834, H-B:ARG:545:NH2:9899, V-B:ILE:538:CA:9831, V-B:TYR:539:CE1:9846, V-B:ILE:538:C:9829, V-B:ILE:538:CB:9833, V-B:ASP:366:CB:8182, V-A:TYR:484:CZ:4346, V-A:TYR:484:CE2:4345, H-B:TYR:531:OH:9766, V-B:ASP:366:CG:8183, V-B:PRO:540:CG:9857, V-A:LEU:475:CG:4256, V-A:LEU:475:CB:4255, V-A:TYR:484:CE1:4344"]

$$$$
4ca_Grossjean_2025
     RDKit          3D

 52 55  0  0  0  0  0  0  0  0999 V2000
  128.4260  132.2910   55.0140 C   0  0  0  0  0  0  0  0  0  0  0  0
  129.6380  133.1900   54.7480 C   0  0  0  0  0  0  0  0  0  0  0  0
  130.1890  133.6180   55.9870 O   0  0  0  0  0  0  0  0  0  0  0  0
  131.3330  133.0700   56.4730 C   0  0  0  0  0  0  0  0  0  0  0  0
  132.4450  133.2580   55.9680 O   0  0  0  0  0  0  0  0  0  0  0  0
  131.1110  132.2160   57.6870 C   0  0  0  0  0  0  0  0  0  0  0  0
  131.8120  132.5060   58.8650 C   0  0  0  0  0  0  0  0  0  0  0  0
  131.6240  131.7350   60.0090 C   0  0  0  0  0  0  0  0  0  0  0  0
  130.7400  130.6560   59.9970 C   0  0  0  0  0  0  0  0  0  0  0  0
  130.6210  129.9510   61.2110 N   0  0  0  0  0  0  0  0  0  0  0  0
  129.6580  129.0930   61.6300 C   0  0  0  0  0  0  0  0  0  0  0  0
  128.6980  128.7420   60.9440 O   0  0  0  0  0  0  0  0  0  0  0  0
  129.8340  128.5710   62.9870 C   0  0  0  0  0  0  0  0  0  0  0  0
  128.7720  129.1040   64.2870 S   0  0  0  0  0  0  0  0  0  0  0  0
  129.5720  128.0550   65.4320 C   0  0  0  0  0  0  0  0  0  0  0  0
  129.1880  127.9960   66.7050 N   0  0  0  0  0  0  0  0  0  0  0  0
  129.8600  127.1410   67.5190 C   0  0  0  0  0  0  0  0  0  0  0  0
  129.3970  127.0900   68.9460 C   0  0  0  0  0  0  0  0  0  0  0  0
  128.7790  125.9400   69.4620 C   0  0  0  0  0  0  0  0  0  0  0  0
  128.3430  125.8890   70.7830 C   0  0  0  0  0  0  0  0  0  0  0  0
  128.5180  126.9930   71.6110 C   0  0  0  0  0  0  0  0  0  0  0  0
  129.1240  128.1470   71.1250 C   0  0  0  0  0  0  0  0  0  0  0  0
  129.5590  128.1940   69.8030 C   0  0  0  0  0  0  0  0  0  0  0  0
  130.9280  126.3650   67.0540 C   0  0  0  0  0  0  0  0  0  0  0  0
  131.3430  126.4230   65.7150 C   0  0  0  0  0  0  0  0  0  0  0  0
  132.5180  125.5430   65.2730 C   0  0  0  0  0  0  0  0  0  0  0  0
  132.1380  124.3360   64.8490 F   0  0  0  0  0  0  0  0  0  0  0  0
  133.1710  126.1310   64.2710 F   0  0  0  0  0  0  0  0  0  0  0  0
  133.3540  125.3590   66.2960 F   0  0  0  0  0  0  0  0  0  0  0  0
  130.6340  127.3040   64.8500 C   0  0  0  0  0  0  0  0  0  0  0  0
  130.7600  127.6180   63.4470 C   0  0  0  0  0  0  0  0  0  0  0  0
  131.7030  127.0370   62.6400 N   0  0  0  0  0  0  0  0  0  0  0  0
  130.0300  130.3610   58.8250 C   0  0  0  0  0  0  0  0  0  0  0  0
  130.2170  131.1350   57.6820 C   0  0  0  0  0  0  0  0  0  0  0  0
  128.2806  132.1831   56.0990 H   0  0  0  0  0  0  0  0  0  0  0  0
  127.5286  132.7436   54.5670 H   0  0  0  0  0  0  0  0  0  0  0  0
  128.5987  131.3009   54.5670 H   0  0  0  0  0  0  0  0  0  0  0  0
  130.3961  132.6267   54.1841 H   0  0  0  0  0  0  0  0  0  0  0  0
  129.3239  134.0669   54.1629 H   0  0  0  0  0  0  0  0  0  0  0  0
  132.5170  133.3501   58.8862 H   0  0  0  0  0  0  0  0  0  0  0  0
  132.1764  131.9784   60.9286 H   0  0  0  0  0  0  0  0  0  0  0  0
  131.3820  130.1070   61.8550 H   0  0  0  0  0  0  0  0  0  0  0  0
  128.6369  125.0644   68.8115 H   0  0  0  0  0  0  0  0  0  0  0  0
  127.8618  124.9790   71.1707 H   0  0  0  0  0  0  0  0  0  0  0  0
  128.1754  126.9533   72.6555 H   0  0  0  0  0  0  0  0  0  0  0  0
  129.2590  129.0187   71.7822 H   0  0  0  0  0  0  0  0  0  0  0  0
  130.0369  129.1089   69.4227 H   0  0  0  0  0  0  0  0  0  0  0  0
  131.4525  125.6963   67.7523 H   0  0  0  0  0  0  0  0  0  0  0  0
  131.4490  126.4880   61.8300 H   0  0  0  0  0  0  0  0  0  0  0  0
  132.6920  127.1400   62.8260 H   0  0  0  0  0  0  0  0  0  0  0  0
  129.3243  129.5173   58.8078 H   0  0  0  0  0  0  0  0  0  0  0  0
  129.6576  130.8959   56.7656 H   0  0  0  0  0  0  0  0  0  0  0  0
  1  2  1  0
  2  3  1  0
  3  4  1  0
  4  5  2  0
  4  6  1  0
  6  7  2  0
  7  8  1  0
  8  9  2  0
  9 10  1  0
 10 11  1  0
 11 12  2  0
 11 13  1  0
 13 14  1  0
 14 15  1  0
 15 16  2  0
 16 17  1  0
 17 18  1  0
 18 19  2  0
 19 20  1  0
 20 21  2  0
 21 22  1  0
 22 23  2  0
 17 24  2  0
 24 25  1  0
 25 26  1  0
 26 27  1  0
 26 28  1  0
 26 29  1  0
 25 30  2  0
 30 31  1  0
 31 32  1  0
  9 33  1  0
 33 34  2  0
 34  6  1  0
 31 13  2  0
 30 15  1  0
 23 18  1  0
  1 35  1  0
  1 36  1  0
  1 37  1  0
  2 38  1  0
  2 39  1  0
  7 40  1  0
  8 41  1  0
 10 42  1  0
 19 43  1  0
 20 44  1  0
 21 45  1  0
 22 46  1  0
 23 47  1  0
 24 48  1  0
 32 49  1  0
 32 50  1  0
 33 51  1  0
 34 52  1  0
M  END
>  <Binding energies>  (1) 
[-7.41]

>  <Ligand effiencies>  (1) 
[-0.20027027027027028]

>  <Interactions>  (1) 
["V-A:TYR:539:CZ:4876, V-A:ASP:366:CG:3212, V-A:PRO:540:CB:4884, V-A:TYR:539:CE1:4874, H-A:GLU:543:OE2:4909, V-A:PRO:540:CA:4882, V-A:TYR:531:CE2:4792, V-A:ILE:538:CA:4859, V-A:GLY:454:CA:4048, V-A:ARG:545:CZ:4925, V-A:HIS:456:CE1:4069, V-B:GLU:543:CB:9877, V-A:GLU:543:CD:4907, V-B:HIS:456:CE1:9040, V-B:GLU:543:C:9873, V-A:GLU:543:CG:4906, H-A:ASP:366:OD2:3214, V-A:ILE:538:CG2:4862, V-A:TYR:484:CZ:4346, H-A:ASP:366:OD1:3213, V-A:PRO:540:N:4883, V-A:MET:535:CG:4832, H-A:TYR:539:N:4869, V-A:MET:535:CB:4831, V-B:GLU:543:CA:9875"]

$$$$
4cb_Grossjean_2025
     RDKit          3D

 49 52  0  0  0  0  0  0  0  0999 V2000
  129.9940  133.5390   54.6720 C   0  0  0  0  0  0  0  0  0  0  0  0
  130.1120  133.6150   56.0850 O   0  0  0  0  0  0  0  0  0  0  0  0
  131.2260  133.1680   56.7180 C   0  0  0  0  0  0  0  0  0  0  0  0
  132.3730  133.3860   56.3150 O   0  0  0  0  0  0  0  0  0  0  0  0
  130.9260  132.3790   57.9620 C   0  0  0  0  0  0  0  0  0  0  0  0
  131.9400  132.1820   58.9080 C   0  0  0  0  0  0  0  0  0  0  0  0
  131.6910  131.4620   60.0730 C   0  0  0  0  0  0  0  0  0  0  0  0
  130.4280  130.9210   60.3140 C   0  0  0  0  0  0  0  0  0  0  0  0
  130.2840  130.2250   61.5300 N   0  0  0  0  0  0  0  0  0  0  0  0
  129.2370  129.5060   62.0050 C   0  0  0  0  0  0  0  0  0  0  0  0
  128.1970  129.3010   61.3780 O   0  0  0  0  0  0  0  0  0  0  0  0
  129.4210  128.9480   63.3470 C   0  0  0  0  0  0  0  0  0  0  0  0
  128.3900  129.4760   64.6760 S   0  0  0  0  0  0  0  0  0  0  0  0
  129.1820  128.3800   65.7850 C   0  0  0  0  0  0  0  0  0  0  0  0
  128.8170  128.3020   67.0630 N   0  0  0  0  0  0  0  0  0  0  0  0
  129.4840  127.4130   67.8460 C   0  0  0  0  0  0  0  0  0  0  0  0
  129.0460  127.3430   69.2800 C   0  0  0  0  0  0  0  0  0  0  0  0
  129.6690  128.1340   70.2590 C   0  0  0  0  0  0  0  0  0  0  0  0
  129.2710  128.0710   71.5930 C   0  0  0  0  0  0  0  0  0  0  0  0
  128.2410  127.2140   71.9660 C   0  0  0  0  0  0  0  0  0  0  0  0
  127.6090  126.4180   71.0160 C   0  0  0  0  0  0  0  0  0  0  0  0
  128.0120  126.4830   69.6850 C   0  0  0  0  0  0  0  0  0  0  0  0
  130.5260  126.6250   67.3460 C   0  0  0  0  0  0  0  0  0  0  0  0
  130.9200  126.7030   66.0020 C   0  0  0  0  0  0  0  0  0  0  0  0
  132.0700  125.8090   65.5200 C   0  0  0  0  0  0  0  0  0  0  0  0
  131.6530  124.6320   65.0470 F   0  0  0  0  0  0  0  0  0  0  0  0
  132.7350  126.4200   64.5400 F   0  0  0  0  0  0  0  0  0  0  0  0
  132.9030  125.5610   66.5300 F   0  0  0  0  0  0  0  0  0  0  0  0
  130.2170  127.6200   65.1680 C   0  0  0  0  0  0  0  0  0  0  0  0
  130.3280  127.9620   63.7700 C   0  0  0  0  0  0  0  0  0  0  0  0
  131.2420  127.3740   62.9340 N   0  0  0  0  0  0  0  0  0  0  0  0
  129.4060  131.1160   59.3730 C   0  0  0  0  0  0  0  0  0  0  0  0
  129.6560  131.8370   58.2090 C   0  0  0  0  0  0  0  0  0  0  0  0
  129.0959  132.9606   54.4096 H   0  0  0  0  0  0  0  0  0  0  0  0
  129.9110  134.5539   54.2559 H   0  0  0  0  0  0  0  0  0  0  0  0
  130.8837  133.0437   54.2559 H   0  0  0  0  0  0  0  0  0  0  0  0
  132.9416  132.5998   58.7288 H   0  0  0  0  0  0  0  0  0  0  0  0
  132.4959  131.3186   60.8089 H   0  0  0  0  0  0  0  0  0  0  0  0
  131.0960  130.2680   62.1280 H   0  0  0  0  0  0  0  0  0  0  0  0
  130.4836  128.8137   69.9684 H   0  0  0  0  0  0  0  0  0  0  0  0
  129.7695  128.6966   72.3481 H   0  0  0  0  0  0  0  0  0  0  0  0
  127.9242  127.1653   73.0183 H   0  0  0  0  0  0  0  0  0  0  0  0
  126.7952  125.7409   71.3149 H   0  0  0  0  0  0  0  0  0  0  0  0
  127.5119  125.8497   68.9374 H   0  0  0  0  0  0  0  0  0  0  0  0
  131.0472  125.9299   68.0207 H   0  0  0  0  0  0  0  0  0  0  0  0
  131.7690  127.9080   62.2580 H   0  0  0  0  0  0  0  0  0  0  0  0
  131.4230  126.3800   62.9680 H   0  0  0  0  0  0  0  0  0  0  0  0
  128.4049  130.6982   59.5555 H   0  0  0  0  0  0  0  0  0  0  0  0
  128.8495  131.9833   57.4754 H   0  0  0  0  0  0  0  0  0  0  0  0
  1  2  1  0
  2  3  1  0
  3  4  2  0
  3  5  1  0
  5  6  2  0
  6  7  1  0
  7  8  2  0
  8  9  1  0
  9 10  1  0
 10 11  2  0
 10 12  1  0
 12 13  1  0
 13 14  1  0
 14 15  2  0
 15 16  1  0
 16 17  1  0
 17 18  2  0
 18 19  1  0
 19 20  2  0
 20 21  1  0
 21 22  2  0
 16 23  2  0
 23 24  1  0
 24 25  1  0
 25 26  1  0
 25 27  1  0
 25 28  1  0
 24 29  2  0
 29 30  1  0
 30 31  1  0
  8 32  1  0
 32 33  2  0
 33  5  1  0
 30 12  2  0
 29 14  1  0
 22 17  1  0
  1 34  1  0
  1 35  1  0
  1 36  1  0
  6 37  1  0
  7 38  1  0
  9 39  1  0
 18 40  1  0
 19 41  1  0
 20 42  1  0
 21 43  1  0
 22 44  1  0
 23 45  1  0
 31 46  1  0
 31 47  1  0
 32 48  1  0
 33 49  1  0
M  END
>  <Binding energies>  (1) 
[-7.29]

>  <Ligand effiencies>  (1) 
[-0.2025]

>  <Interactions>  (1) 
["V-A:PRO:540:CB:4884, H-A:GLU:543:OE2:4909, V-A:PRO:540:CA:4882, V-A:ILE:538:CA:4859, V-A:ARG:545:CZ:4925, V-A:HIS:456:CE1:4069, V-B:GLU:543:CB:9877, V-A:GLU:543:CD:4907, V-B:HIS:456:CE1:9040, V-B:GLU:543:C:9873, V-A:GLU:543:CG:4906, V-A:ILE:538:CB:4861, H-A:ASP:366:OD2:3214, V-A:ILE:538:CG2:4862, V-A:TYR:484:CZ:4346, V-B:GLY:544:C:9883, V-A:PRO:540:N:4883, V-A:MET:535:CG:4832, H-A:TYR:539:N:4869, V-A:MET:535:CB:4831"]

$$$$
4cc_Grossjean_2025
     RDKit          3D

 47 50  0  0  0  0  0  0  0  0999 V2000
  129.8450  129.1420   71.7350 C   0  0  0  0  0  0  0  0  0  0  0  0
  128.9180  128.4470   70.9080 O   0  0  0  0  0  0  0  0  0  0  0  0
  129.3780  127.7890   69.7840 C   0  0  0  0  0  0  0  0  0  0  0  0
  129.0100  126.4510   69.6520 C   0  0  0  0  0  0  0  0  0  0  0  0
  129.4240  125.7060   68.5510 C   0  0  0  0  0  0  0  0  0  0  0  0
  130.2270  126.2900   67.5690 C   0  0  0  0  0  0  0  0  0  0  0  0
  130.5840  125.4650   66.4860 N   0  0  0  0  0  0  0  0  0  0  0  0
  131.6500  125.5550   65.6550 C   0  0  0  0  0  0  0  0  0  0  0  0
  132.5350  126.4060   65.7600 O   0  0  0  0  0  0  0  0  0  0  0  0
  131.7010  124.5530   64.5860 C   0  0  0  0  0  0  0  0  0  0  0  0
  131.0770  122.9280   64.8620 S   0  0  0  0  0  0  0  0  0  0  0  0
  131.4850  122.4470   63.2320 C   0  0  0  0  0  0  0  0  0  0  0  0
  131.2370  121.2170   62.7880 N   0  0  0  0  0  0  0  0  0  0  0  0
  131.5800  120.9380   61.5040 C   0  0  0  0  0  0  0  0  0  0  0  0
  131.2910  119.5430   61.0330 C   0  0  0  0  0  0  0  0  0  0  0  0
  132.1250  118.9150   60.0920 C   0  0  0  0  0  0  0  0  0  0  0  0
  131.8620  117.6220   59.6490 C   0  0  0  0  0  0  0  0  0  0  0  0
  130.7570  116.9350   60.1410 C   0  0  0  0  0  0  0  0  0  0  0  0
  129.9140  117.5340   61.0710 C   0  0  0  0  0  0  0  0  0  0  0  0
  130.1800  118.8280   61.5100 C   0  0  0  0  0  0  0  0  0  0  0  0
  132.1860  121.8900   60.6780 C   0  0  0  0  0  0  0  0  0  0  0  0
  132.4540  123.1900   61.1360 C   0  0  0  0  0  0  0  0  0  0  0  0
  133.1150  124.1850   60.1750 C   0  0  0  0  0  0  0  0  0  0  0  0
  133.3350  123.6740   58.9610 F   0  0  0  0  0  0  0  0  0  0  0  0
  132.3310  125.2520   60.0220 F   0  0  0  0  0  0  0  0  0  0  0  0
  134.2920  124.5710   60.6650 F   0  0  0  0  0  0  0  0  0  0  0  0
  132.0900  123.4960   62.4790 C   0  0  0  0  0  0  0  0  0  0  0  0
  132.2040  124.6890   63.2820 C   0  0  0  0  0  0  0  0  0  0  0  0
  132.7550  125.8520   62.8070 N   0  0  0  0  0  0  0  0  0  0  0  0
  130.5920  127.6400   67.6890 C   0  0  0  0  0  0  0  0  0  0  0  0
  130.1730  128.3810   68.7900 C   0  0  0  0  0  0  0  0  0  0  0  0
  129.6017  128.9596   72.7921 H   0  0  0  0  0  0  0  0  0  0  0  0
  130.8636  128.7831   71.5260 H   0  0  0  0  0  0  0  0  0  0  0  0
  129.7861  130.2203   71.5260 H   0  0  0  0  0  0  0  0  0  0  0  0
  128.3863  125.9790   70.4254 H   0  0  0  0  0  0  0  0  0  0  0  0
  129.1176  124.6540   68.4544 H   0  0  0  0  0  0  0  0  0  0  0  0
  129.9650  124.6830   66.3350 H   0  0  0  0  0  0  0  0  0  0  0  0
  132.9997  119.4541   59.6993 H   0  0  0  0  0  0  0  0  0  0  0  0
  132.5255  117.1451   58.9125 H   0  0  0  0  0  0  0  0  0  0  0  0
  130.5488  115.9126   59.7927 H   0  0  0  0  0  0  0  0  0  0  0  0
  129.0411  116.9878   61.4579 H   0  0  0  0  0  0  0  0  0  0  0  0
  129.5085  119.2987   62.2431 H   0  0  0  0  0  0  0  0  0  0  0  0
  132.4583  121.6147   59.6484 H   0  0  0  0  0  0  0  0  0  0  0  0
  132.9100  126.0050   61.8200 H   0  0  0  0  0  0  0  0  0  0  0  0
  133.0280  126.5970   63.4310 H   0  0  0  0  0  0  0  0  0  0  0  0
  131.2101  128.1130   66.9117 H   0  0  0  0  0  0  0  0  0  0  0  0
  130.4666  129.4371   68.8819 H   0  0  0  0  0  0  0  0  0  0  0  0
  1  2  1  0
  2  3  1  0
  3  4  2  0
  4  5  1  0
  5  6  2  0
  6  7  1  0
  7  8  1  0
  8  9  2  0
  8 10  1  0
 10 11  1  0
 11 12  1  0
 12 13  2  0
 13 14  1  0
 14 15  1  0
 15 16  2  0
 16 17  1  0
 17 18  2  0
 18 19  1  0
 19 20  2  0
 14 21  2  0
 21 22  1  0
 22 23  1  0
 23 24  1  0
 23 25  1  0
 23 26  1  0
 22 27  2  0
 27 28  1  0
 28 29  1  0
  6 30  1  0
 30 31  2  0
 31  3  1  0
 28 10  2  0
 27 12  1  0
 20 15  1  0
  1 32  1  0
  1 33  1  0
  1 34  1  0
  4 35  1  0
  5 36  1  0
  7 37  1  0
 16 38  1  0
 17 39  1  0
 18 40  1  0
 19 41  1  0
 20 42  1  0
 21 43  1  0
 29 44  1  0
 29 45  1  0
 30 46  1  0
 31 47  1  0
M  END
>  <Binding energies>  (1) 
[-7.32]

>  <Ligand effiencies>  (1) 
[-0.21529411764705883]

>  <Interactions>  (1) 
["V-A:ASP:366:CG:3212, V-A:ASP:366:CB:3211, V-B:GLU:543:CD:9879, H-A:TYR:484:OH:4347, V-B:ALA:541:CB:9863, H-B:GLU:543:OE2:9881, V-B:TYR:539:C:9838, V-A:LEU:475:CD2:4258, V-A:PRO:482:CG:4326, V-A:HIS:383:CE1:3393, V-A:ILE:369:CD1:3238, V-B:TYR:539:CD2:9845, V-A:ILE:369:CG2:3236, V-B:TYR:539:CE2:9847, V-B:TYR:539:CB:9842, V-B:VAL:344:CG1:7971, V-B:TYR:539:CG:9843, V-B:TYR:539:CZ:9848, V-A:PRO:482:CB:4325, V-B:GLU:543:CG:9878, V-A:ARG:545:CZ:4925, V-A:HIS:456:CE1:4069, V-B:GLU:543:CB:9877, V-A:GLU:543:CD:4907, V-B:HIS:456:CE1:9040, H-A:ASP:366:OD2:3214, V-A:GLU:543:CB:4905, V-A:GLU:543:C:4901, H-A:ARG:545:NH2:4927, H-A:ARG:545:NE:4923, V-A:TYR:484:CZ:4346, V-A:TYR:484:CE2:4345, H-A:ASP:366:OD1:3213, V-A:ILE:369:CB:3235, V-A:ASP:366:CA:3209, V-A:ILE:369:CG1:3237"]

$$$$
4cd_Grossjean_2025
     RDKit          3D

 43 46  0  0  0  0  0  0  0  0999 V2000
  132.8460  125.9350   62.7440 N   0  0  0  0  0  0  0  0  0  0  0  0
  132.2880  124.7890   63.2520 C   0  0  0  0  0  0  0  0  0  0  0  0
  131.7770  124.6950   64.5560 C   0  0  0  0  0  0  0  0  0  0  0  0
  131.7450  125.7240   65.6010 C   0  0  0  0  0  0  0  0  0  0  0  0
  132.7830  126.0930   66.1490 O   0  0  0  0  0  0  0  0  0  0  0  0
  130.5170  126.2180   65.8920 N   0  0  0  0  0  0  0  0  0  0  0  0
  130.1380  127.1620   66.8640 C   0  0  0  0  0  0  0  0  0  0  0  0
  129.1560  128.0790   66.4780 C   0  0  0  0  0  0  0  0  0  0  0  0
  128.7050  129.0440   67.3730 C   0  0  0  0  0  0  0  0  0  0  0  0
  129.2310  129.0890   68.6620 C   0  0  0  0  0  0  0  0  0  0  0  0
  130.1990  128.1730   69.0650 C   0  0  0  0  0  0  0  0  0  0  0  0
  130.6540  127.2060   68.1710 C   0  0  0  0  0  0  0  0  0  0  0  0
  131.1270  123.0880   64.8710 S   0  0  0  0  0  0  0  0  0  0  0  0
  131.5520  122.5520   63.2630 C   0  0  0  0  0  0  0  0  0  0  0  0
  131.2990  121.3110   62.8540 N   0  0  0  0  0  0  0  0  0  0  0  0
  131.6790  120.9830   61.5910 C   0  0  0  0  0  0  0  0  0  0  0  0
  131.3830  119.5760   61.1600 C   0  0  0  0  0  0  0  0  0  0  0  0
  130.2330  118.9110   61.6160 C   0  0  0  0  0  0  0  0  0  0  0  0
  129.9520  117.6060   61.2200 C   0  0  0  0  0  0  0  0  0  0  0  0
  130.8210  116.9450   60.3580 C   0  0  0  0  0  0  0  0  0  0  0  0
  131.9650  117.5810   59.8890 C   0  0  0  0  0  0  0  0  0  0  0  0
  132.2410  118.8860   60.2860 C   0  0  0  0  0  0  0  0  0  0  0  0
  132.2910  121.9070   60.7400 C   0  0  0  0  0  0  0  0  0  0  0  0
  132.5590  123.2200   61.1600 C   0  0  0  0  0  0  0  0  0  0  0  0
  133.2370  124.1810   60.1760 C   0  0  0  0  0  0  0  0  0  0  0  0
  133.5240  123.6130   59.0020 F   0  0  0  0  0  0  0  0  0  0  0  0
  132.4350  125.2180   59.9320 F   0  0  0  0  0  0  0  0  0  0  0  0
  134.3820  124.6230   60.6950 F   0  0  0  0  0  0  0  0  0  0  0  0
  132.1770  123.5720   62.4860 C   0  0  0  0  0  0  0  0  0  0  0  0
  133.8440  126.0320   62.6200 H   0  0  0  0  0  0  0  0  0  0  0  0
  132.2750  126.7220   62.4720 H   0  0  0  0  0  0  0  0  0  0  0  0
  129.7540  125.8760   65.3250 H   0  0  0  0  0  0  0  0  0  0  0  0
  128.7377  128.0374   65.4615 H   0  0  0  0  0  0  0  0  0  0  0  0
  127.9366  129.7680   67.0641 H   0  0  0  0  0  0  0  0  0  0  0  0
  128.8784  129.8553   69.3680 H   0  0  0  0  0  0  0  0  0  0  0  0
  130.6037  128.2126   70.0871 H   0  0  0  0  0  0  0  0  0  0  0  0
  131.4157  126.4782   68.4873 H   0  0  0  0  0  0  0  0  0  0  0  0
  129.5427  119.4298   62.2974 H   0  0  0  0  0  0  0  0  0  0  0  0
  129.0469  117.1000   61.5871 H   0  0  0  0  0  0  0  0  0  0  0  0
  130.6018  115.9133   60.0456 H   0  0  0  0  0  0  0  0  0  0  0  0
  132.6491  117.0549   59.2070 H   0  0  0  0  0  0  0  0  0  0  0  0
  133.1457  119.3859   59.9096 H   0  0  0  0  0  0  0  0  0  0  0  0
  132.5684  121.5998   59.7208 H   0  0  0  0  0  0  0  0  0  0  0  0
  1  2  1  0
  2  3  2  0
  3  4  1  0
  4  5  2  0
  4  6  1  0
  6  7  1  0
  7  8  2  0
  8  9  1  0
  9 10  2  0
 10 11  1  0
 11 12  2  0
  3 13  1  0
 13 14  1  0
 14 15  2  0
 15 16  1  0
 16 17  1  0
 17 18  2  0
 18 19  1  0
 19 20  2  0
 20 21  1  0
 21 22  2  0
 16 23  2  0
 23 24  1  0
 24 25  1  0
 25 26  1  0
 25 27  1  0
 25 28  1  0
 24 29  2  0
 29  2  1  0
 12  7  1  0
 29 14  1  0
 22 17  1  0
  1 30  1  0
  1 31  1  0
  6 32  1  0
  8 33  1  0
  9 34  1  0
 10 35  1  0
 11 36  1  0
 12 37  1  0
 18 38  1  0
 19 39  1  0
 20 40  1  0
 21 41  1  0
 22 42  1  0
 23 43  1  0
M  END
>  <Binding energies>  (1) 
[-7.97]

>  <Ligand effiencies>  (1) 
[-0.2490625]

>  <Interactions>  (1) 
["V-A:ASP:366:CG:3212, V-A:ASP:366:CB:3211, V-B:GLU:543:CD:9879, H-A:TYR:484:OH:4347, V-B:ALA:541:CB:9863, H-B:GLU:543:OE2:9881, V-B:TYR:539:C:9838, V-A:LEU:475:CD2:4258, V-A:PRO:482:CG:4326, V-A:HIS:383:CE1:3393, V-A:ILE:369:CD1:3238, V-B:TYR:539:CD2:9845, V-A:ILE:369:CG2:3236, V-B:TYR:539:CE2:9847, V-B:TYR:539:CB:9842, V-B:VAL:344:CG1:7971, V-B:TYR:539:CZ:9848, V-A:PRO:482:CB:4325, V-A:ARG:545:CZ:4925, V-A:HIS:456:CE1:4069, V-A:GLU:543:CD:4907, V-A:GLU:543:CG:4906, H-A:ASP:366:OD2:3214, V-A:GLU:543:CB:4905, H-A:ARG:545:NE:4923, V-A:TYR:484:CZ:4346, H-A:ASP:366:OD1:3213, V-A:ILE:369:CB:3235, V-A:ASP:366:CA:3209, V-A:ILE:369:CG1:3237"]

$$$$
4ce_Grossjean_2025
     RDKit          3D

 45 48  0  0  0  0  0  0  0  0999 V2000
  135.4640  125.7170   67.0390 C   0  0  0  0  0  0  0  0  0  0  0  0
  133.9680  125.9070   66.8760 C   0  0  0  0  0  0  0  0  0  0  0  0
  133.1890  126.4730   67.8890 C   0  0  0  0  0  0  0  0  0  0  0  0
  131.8190  126.6240   67.6670 C   0  0  0  0  0  0  0  0  0  0  0  0
  131.2680  126.2120   66.4520 C   0  0  0  0  0  0  0  0  0  0  0  0
  132.1050  125.6470   65.4820 C   0  0  0  0  0  0  0  0  0  0  0  0
  131.4950  125.2750   64.2710 N   0  0  0  0  0  0  0  0  0  0  0  0
  130.9260  124.0890   63.9370 C   0  0  0  0  0  0  0  0  0  0  0  0
  130.8490  123.1270   64.7030 O   0  0  0  0  0  0  0  0  0  0  0  0
  130.3910  124.0100   62.5760 C   0  0  0  0  0  0  0  0  0  0  0  0
  128.8500  123.2110   62.2750 S   0  0  0  0  0  0  0  0  0  0  0  0
  128.9400  123.5800   60.5700 C   0  0  0  0  0  0  0  0  0  0  0  0
  127.9790  123.2100   59.7270 N   0  0  0  0  0  0  0  0  0  0  0  0
  128.1300  123.5560   58.4220 C   0  0  0  0  0  0  0  0  0  0  0  0
  127.0260  123.1280   57.5000 C   0  0  0  0  0  0  0  0  0  0  0  0
  125.6870  123.4270   57.7990 C   0  0  0  0  0  0  0  0  0  0  0  0
  124.6570  123.0280   56.9510 C   0  0  0  0  0  0  0  0  0  0  0  0
  124.9530  122.3240   55.7890 C   0  0  0  0  0  0  0  0  0  0  0  0
  126.2710  122.0150   55.4700 C   0  0  0  0  0  0  0  0  0  0  0  0
  127.2980  122.4130   56.3210 C   0  0  0  0  0  0  0  0  0  0  0  0
  129.2550  124.2510   57.9660 C   0  0  0  0  0  0  0  0  0  0  0  0
  130.2770  124.6410   58.8450 C   0  0  0  0  0  0  0  0  0  0  0  0
  131.4800  125.4030   58.2790 C   0  0  0  0  0  0  0  0  0  0  0  0
  131.6550  126.6000   58.8420 F   0  0  0  0  0  0  0  0  0  0  0  0
  132.5950  124.6990   58.4820 F   0  0  0  0  0  0  0  0  0  0  0  0
  131.3160  125.5970   56.9710 F   0  0  0  0  0  0  0  0  0  0  0  0
  130.1220  124.2980   60.2190 C   0  0  0  0  0  0  0  0  0  0  0  0
  130.9340  124.5280   61.3880 C   0  0  0  0  0  0  0  0  0  0  0  0
  132.1310  125.1960   61.3400 N   0  0  0  0  0  0  0  0  0  0  0  0
  133.4460  125.5000   65.6900 N   0  0  0  0  0  0  0  0  0  0  0  0
  135.7151  125.6851   68.1095 H   0  0  0  0  0  0  0  0  0  0  0  0
  135.7678  124.7731   66.5629 H   0  0  0  0  0  0  0  0  0  0  0  0
  135.9941  126.5550   66.5629 H   0  0  0  0  0  0  0  0  0  0  0  0
  133.6443  126.7918   68.8382 H   0  0  0  0  0  0  0  0  0  0  0  0
  131.1776  127.0648   68.4444 H   0  0  0  0  0  0  0  0  0  0  0  0
  130.1914  126.3296   66.2595 H   0  0  0  0  0  0  0  0  0  0  0  0
  131.4470  126.0080   63.5800 H   0  0  0  0  0  0  0  0  0  0  0  0
  125.4482  123.9846   58.7166 H   0  0  0  0  0  0  0  0  0  0  0  0
  123.6129  123.2689   57.1995 H   0  0  0  0  0  0  0  0  0  0  0  0
  124.1400  122.0096   55.1181 H   0  0  0  0  0  0  0  0  0  0  0  0
  126.5007  121.4586   54.5493 H   0  0  0  0  0  0  0  0  0  0  0  0
  128.3389  122.1640   56.0668 H   0  0  0  0  0  0  0  0  0  0  0  0
  129.3403  124.4967   56.8972 H   0  0  0  0  0  0  0  0  0  0  0  0
  132.2480  126.1130   61.7490 H   0  0  0  0  0  0  0  0  0  0  0  0
  132.9400  124.7930   60.8890 H   0  0  0  0  0  0  0  0  0  0  0  0
  1  2  1  0
  2  3  2  0
  3  4  1  0
  4  5  2  0
  5  6  1  0
  6  7  1  0
  7  8  1  0
  8  9  2  0
  8 10  1  0
 10 11  1  0
 11 12  1  0
 12 13  2  0
 13 14  1  0
 14 15  1  0
 15 16  2  0
 16 17  1  0
 17 18  2  0
 18 19  1  0
 19 20  2  0
 14 21  2  0
 21 22  1  0
 22 23  1  0
 23 24  1  0
 23 25  1  0
 23 26  1  0
 22 27  2  0
 27 28  1  0
 28 29  1  0
  6 30  2  0
 30  2  1  0
 28 10  2  0
 27 12  1  0
 20 15  1  0
  1 31  1  0
  1 32  1  0
  1 33  1  0
  3 34  1  0
  4 35  1  0
  5 36  1  0
  7 37  1  0
 16 38  1  0
 17 39  1  0
 18 40  1  0
 19 41  1  0
 20 42  1  0
 21 43  1  0
 29 44  1  0
 29 45  1  0
M  END
>  <Binding energies>  (1) 
[-7.97]

>  <Ligand effiencies>  (1) 
[-0.24151515151515152]

>  <Interactions>  (1) 
["V-A:ASP:366:CG:3212, V-A:ASP:366:CB:3211, V-B:PRO:540:N:9855, H-A:TYR:484:OH:4347, V-B:PRO:540:CA:9854, V-B:TYR:539:C:9838, V-B:TYR:539:CE2:9847, V-A:GLY:454:CA:4048, V-B:TYR:539:CG:9843, V-B:MET:535:CE:9806, V-B:TYR:539:CZ:9848, V-B:PRO:540:CB:9856, H-A:GLY:454:N:4049, V-A:GLY:453:C:4041, V-A:ARG:545:CD:4922, V-B:TYR:539:CD1:9844, V-B:PRO:540:CD:9858, V-B:TYR:531:CE2:9764, V-B:LEU:363:CD1:8159, V-A:ARG:545:CZ:4925, V-B:ILE:538:CD1:9836, V-A:ARG:545:CG:4921, V-A:HIS:456:CE1:4069, V-B:ILE:538:CG2:9834, H-A:ASP:366:OD2:3214, V-B:ILE:538:CA:9831, V-A:GLY:453:CA:4043, V-B:TYR:539:CE1:9846, V-B:ILE:538:C:9829, V-B:ILE:538:CB:9833, H-A:ARG:545:NE:4923, H-A:ASP:366:OD1:3213, V-B:MET:535:CG:9804, V-A:ILE:455:C:4051, V-A:ARG:545:CB:4920"]

$$$$
4cf_Grossjean_2025
     RDKit          3D

 42 45  0  0  0  0  0  0  0  0999 V2000
  132.7810  125.9800   62.7540 N   0  0  0  0  0  0  0  0  0  0  0  0
  132.2410  124.8270   63.2620 C   0  0  0  0  0  0  0  0  0  0  0  0
  131.7400  124.7230   64.5700 C   0  0  0  0  0  0  0  0  0  0  0  0
  131.7170  125.7410   65.6230 C   0  0  0  0  0  0  0  0  0  0  0  0
  132.7590  126.0970   66.1740 O   0  0  0  0  0  0  0  0  0  0  0  0
  130.4940  126.2460   65.9170 N   0  0  0  0  0  0  0  0  0  0  0  0
  130.1210  127.1860   66.8960 C   0  0  0  0  0  0  0  0  0  0  0  0
  130.6270  127.2420   68.2090 C   0  0  0  0  0  0  0  0  0  0  0  0
  130.1590  128.2210   69.0880 C   0  0  0  0  0  0  0  0  0  0  0  0
  129.1950  129.1220   68.6330 C   0  0  0  0  0  0  0  0  0  0  0  0
  128.6870  129.0860   67.3760 N   0  0  0  0  0  0  0  0  0  0  0  0
  129.1500  128.1270   66.5330 C   0  0  0  0  0  0  0  0  0  0  0  0
  131.1180  123.1040   64.8860 S   0  0  0  0  0  0  0  0  0  0  0  0
  131.5410  122.5780   63.2730 C   0  0  0  0  0  0  0  0  0  0  0  0
  131.3080  121.3320   62.8650 N   0  0  0  0  0  0  0  0  0  0  0  0
  131.6870  121.0130   61.5990 C   0  0  0  0  0  0  0  0  0  0  0  0
  131.4190  119.6000   61.1700 C   0  0  0  0  0  0  0  0  0  0  0  0
  130.2510  118.9360   61.5750 C   0  0  0  0  0  0  0  0  0  0  0  0
  129.9950  117.6250   61.1810 C   0  0  0  0  0  0  0  0  0  0  0  0
  130.9070  116.9600   60.3690 C   0  0  0  0  0  0  0  0  0  0  0  0
  132.0710  117.5950   59.9490 C   0  0  0  0  0  0  0  0  0  0  0  0
  132.3230  118.9050   60.3460 C   0  0  0  0  0  0  0  0  0  0  0  0
  132.2730  121.9510   60.7440 C   0  0  0  0  0  0  0  0  0  0  0  0
  132.5180  123.2680   61.1630 C   0  0  0  0  0  0  0  0  0  0  0  0
  133.1690  124.2430   60.1750 C   0  0  0  0  0  0  0  0  0  0  0  0
  133.3480  123.7180   58.9610 F   0  0  0  0  0  0  0  0  0  0  0  0
  132.3990  125.3220   60.0330 F   0  0  0  0  0  0  0  0  0  0  0  0
  134.3660  124.6140   60.6290 F   0  0  0  0  0  0  0  0  0  0  0  0
  132.1420  123.6100   62.4940 C   0  0  0  0  0  0  0  0  0  0  0  0
  133.7770  126.0920   62.6220 H   0  0  0  0  0  0  0  0  0  0  0  0
  132.1970  126.7630   62.4910 H   0  0  0  0  0  0  0  0  0  0  0  0
  129.7270  125.9070   65.3540 H   0  0  0  0  0  0  0  0  0  0  0  0
  131.3866  126.5187   68.5403 H   0  0  0  0  0  0  0  0  0  0  0  0
  130.5421  128.2808   70.1174 H   0  0  0  0  0  0  0  0  0  0  0  0
  128.8310  129.8959   69.3248 H   0  0  0  0  0  0  0  0  0  0  0  0
  128.7411  128.0876   65.5126 H   0  0  0  0  0  0  0  0  0  0  0  0
  129.5253  119.4599   62.2145 H   0  0  0  0  0  0  0  0  0  0  0  0
  129.0760  117.1182   61.5105 H   0  0  0  0  0  0  0  0  0  0  0  0
  130.7065  115.9245   60.0566 H   0  0  0  0  0  0  0  0  0  0  0  0
  132.7889  117.0645   59.3062 H   0  0  0  0  0  0  0  0  0  0  0  0
  133.2435  119.4048   60.0102 H   0  0  0  0  0  0  0  0  0  0  0  0
  132.5477  121.6508   59.7220 H   0  0  0  0  0  0  0  0  0  0  0  0
  1  2  1  0
  2  3  2  0
  3  4  1  0
  4  5  2  0
  4  6  1  0
  6  7  1  0
  7  8  2  0
  8  9  1  0
  9 10  2  0
 10 11  1  0
 11 12  2  0
  3 13  1  0
 13 14  1  0
 14 15  2  0
 15 16  1  0
 16 17  1  0
 17 18  2  0
 18 19  1  0
 19 20  2  0
 20 21  1  0
 21 22  2  0
 16 23  2  0
 23 24  1  0
 24 25  1  0
 25 26  1  0
 25 27  1  0
 25 28  1  0
 24 29  2  0
 29  2  1  0
 12  7  1  0
 29 14  1  0
 22 17  1  0
  1 30  1  0
  1 31  1  0
  6 32  1  0
  8 33  1  0
  9 34  1  0
 10 35  1  0
 12 36  1  0
 18 37  1  0
 19 38  1  0
 20 39  1  0
 21 40  1  0
 22 41  1  0
 23 42  1  0
M  END
>  <Binding energies>  (1) 
[-7.71]

>  <Ligand effiencies>  (1) 
[-0.2409375]

>  <Interactions>  (1) 
["V-A:ASP:366:CG:3212, V-A:ASP:366:CB:3211, V-B:GLU:543:CD:9879, H-A:TYR:484:OH:4347, V-B:ALA:541:CB:9863, H-B:GLU:543:OE2:9881, V-B:TYR:539:C:9838, V-A:LEU:475:CD2:4258, V-A:PRO:482:CG:4326, V-A:HIS:383:CE1:3393, V-A:ILE:369:CD1:3238, V-B:TYR:539:CD2:9845, V-A:ILE:369:CG2:3236, V-B:TYR:539:CE2:9847, V-B:TYR:539:CB:9842, V-B:VAL:344:CG1:7971, V-B:TYR:539:CZ:9848, V-A:PRO:482:CB:4325, V-A:ARG:545:CZ:4925, V-A:HIS:456:CE1:4069, V-A:GLU:543:CD:4907, V-B:HIS:456:CE1:9040, V-A:GLU:543:CG:4906, H-A:ASP:366:OD2:3214, V-A:GLU:543:CB:4905, H-A:ARG:545:NE:4923, V-A:TYR:484:CZ:4346, V-A:TYR:484:CE2:4345, H-A:ASP:366:OD1:3213, V-A:ILE:369:CB:3235, V-A:ASP:366:CA:3209, V-A:ILE:369:CG1:3237"]

$$$$
4cg_Grossjean_2025
     RDKit          3D

 46 49  0  0  0  0  0  0  0  0999 V2000
  129.3560  125.5440   63.7870 N   0  0  0  0  0  0  0  0  0  0  0  0
  130.3980  124.6530   63.8340 C   0  0  0  0  0  0  0  0  0  0  0  0
  131.4860  124.7910   64.7080 C   0  0  0  0  0  0  0  0  0  0  0  0
  131.7130  125.8140   65.7280 C   0  0  0  0  0  0  0  0  0  0  0  0
  132.8140  126.3510   65.8650 O   0  0  0  0  0  0  0  0  0  0  0  0
  130.6620  126.0980   66.5260 N   0  0  0  0  0  0  0  0  0  0  0  0
  130.6540  127.0970   67.5920 C   0  0  0  0  0  0  0  0  0  0  0  0
  129.3360  127.1580   68.3570 C   0  0  0  0  0  0  0  0  0  0  0  0
  128.3060  127.9860   67.9010 C   0  0  0  0  0  0  0  0  0  0  0  0
  127.0900  128.0200   68.5780 C   0  0  0  0  0  0  0  0  0  0  0  0
  126.9040  127.2190   69.7030 C   0  0  0  0  0  0  0  0  0  0  0  0
  127.9210  126.3790   70.1520 C   0  0  0  0  0  0  0  0  0  0  0  0
  129.1370  126.3430   69.4750 C   0  0  0  0  0  0  0  0  0  0  0  0
  132.6300  123.4650   64.5220 S   0  0  0  0  0  0  0  0  0  0  0  0
  131.6560  122.7470   63.2600 C   0  0  0  0  0  0  0  0  0  0  0  0
  132.0240  121.6200   62.6570 N   0  0  0  0  0  0  0  0  0  0  0  0
  131.2010  121.1340   61.6900 C   0  0  0  0  0  0  0  0  0  0  0  0
  131.6450  119.8620   61.0270 C   0  0  0  0  0  0  0  0  0  0  0  0
  132.8340  119.8130   60.2810 C   0  0  0  0  0  0  0  0  0  0  0  0
  133.2490  118.6370   59.6640 C   0  0  0  0  0  0  0  0  0  0  0  0
  132.4750  117.4860   59.7810 C   0  0  0  0  0  0  0  0  0  0  0  0
  131.2920  117.5060   60.5110 C   0  0  0  0  0  0  0  0  0  0  0  0
  130.8810  118.6850   61.1260 C   0  0  0  0  0  0  0  0  0  0  0  0
  130.0230  121.7950   61.3230 C   0  0  0  0  0  0  0  0  0  0  0  0
  129.6270  122.9850   61.9530 C   0  0  0  0  0  0  0  0  0  0  0  0
  128.3250  123.6570   61.5010 C   0  0  0  0  0  0  0  0  0  0  0  0
  127.7310  123.0210   60.4890 F   0  0  0  0  0  0  0  0  0  0  0  0
  127.4600  123.6900   62.5150 F   0  0  0  0  0  0  0  0  0  0  0  0
  128.5770  124.9010   61.0970 F   0  0  0  0  0  0  0  0  0  0  0  0
  130.4750  123.4950   62.9780 C   0  0  0  0  0  0  0  0  0  0  0  0
  128.8000  125.6720   62.9530 H   0  0  0  0  0  0  0  0  0  0  0  0
  129.1030  126.0990   64.5920 H   0  0  0  0  0  0  0  0  0  0  0  0
  129.7720  125.6740   66.3090 H   0  0  0  0  0  0  0  0  0  0  0  0
  131.4583  126.8550   68.3023 H   0  0  0  0  0  0  0  0  0  0  0  0
  130.7990  128.0787   67.1173 H   0  0  0  0  0  0  0  0  0  0  0  0
  128.4563  128.6102   67.0078 H   0  0  0  0  0  0  0  0  0  0  0  0
  126.2799  128.6760   68.2266 H   0  0  0  0  0  0  0  0  0  0  0  0
  125.9454  127.2501   70.2416 H   0  0  0  0  0  0  0  0  0  0  0  0
  127.7637  125.7466   71.0382 H   0  0  0  0  0  0  0  0  0  0  0  0
  129.9397  125.6744   69.8193 H   0  0  0  0  0  0  0  0  0  0  0  0
  133.4480  120.7204   60.1828 H   0  0  0  0  0  0  0  0  0  0  0  0
  134.1848  118.6169   59.0862 H   0  0  0  0  0  0  0  0  0  0  0  0
  132.8011  116.5556   59.2932 H   0  0  0  0  0  0  0  0  0  0  0  0
  130.6835  116.5941   60.6021 H   0  0  0  0  0  0  0  0  0  0  0  0
  129.9424  118.6966   61.6995 H   0  0  0  0  0  0  0  0  0  0  0  0
  129.3948  121.3732   60.5246 H   0  0  0  0  0  0  0  0  0  0  0  0
  1  2  1  0
  2  3  2  0
  3  4  1  0
  4  5  2  0
  4  6  1  0
  6  7  1  0
  7  8  1  0
  8  9  2  0
  9 10  1  0
 10 11  2  0
 11 12  1  0
 12 13  2  0
  3 14  1  0
 14 15  1  0
 15 16  2  0
 16 17  1  0
 17 18  1  0
 18 19  2  0
 19 20  1  0
 20 21  2  0
 21 22  1  0
 22 23  2  0
 17 24  2  0
 24 25  1  0
 25 26  1  0
 26 27  1  0
 26 28  1  0
 26 29  1  0
 25 30  2  0
 30  2  1  0
 13  8  1  0
 30 15  1  0
 23 18  1  0
  1 31  1  0
  1 32  1  0
  6 33  1  0
  7 34  1  0
  7 35  1  0
  9 36  1  0
 10 37  1  0
 11 38  1  0
 12 39  1  0
 13 40  1  0
 19 41  1  0
 20 42  1  0
 21 43  1  0
 22 44  1  0
 23 45  1  0
 24 46  1  0
M  END
>  <Binding energies>  (1) 
[-8.28]

>  <Ligand effiencies>  (1) 
[-0.2509090909090909]

>  <Interactions>  (1) 
["V-B:GLU:543:CD:9879, H-A:TYR:484:OH:4347, V-B:PRO:540:CA:9854, H-B:GLU:543:OE2:9881, H-B:GLU:543:OE1:9880, V-A:LEU:475:CD2:4258, V-A:HIS:383:CE1:3393, V-B:TYR:539:CD2:9845, V-A:ILE:369:CG2:3236, V-B:TYR:539:CE2:9847, V-A:SER:385:CA:3406, V-A:GLY:454:CA:4048, V-A:HIS:456:CE1:4069, V-B:GLU:543:CB:9877, V-A:GLU:543:CD:4907, V-B:HIS:456:CE1:9040, V-B:GLU:543:C:9873, H-A:ARG:545:NH2:4927, H-A:ARG:545:NE:4923, V-A:LEU:373:CD2:3280, V-A:VAL:384:C:3396"]

$$$$
4ch_Grossjean_2025
     RDKit          3D

 58 61  0  0  0  0  0  0  0  0999 V2000
  128.0660  129.9910   64.9740 C   0  0  0  0  0  0  0  0  0  0  0  0
  127.5340  129.6810   66.2580 O   0  0  0  0  0  0  0  0  0  0  0  0
  128.1080  128.6680   67.0030 C   0  0  0  0  0  0  0  0  0  0  0  0
  129.4170  128.1980   66.8100 C   0  0  0  0  0  0  0  0  0  0  0  0
  129.9330  127.1700   67.6020 C   0  0  0  0  0  0  0  0  0  0  0  0
  131.3460  126.6540   67.3590 C   0  0  0  0  0  0  0  0  0  0  0  0
  131.4580  125.7060   66.2500 N   0  0  0  0  0  0  0  0  0  0  0  0
  132.5960  125.3940   65.5960 C   0  0  0  0  0  0  0  0  0  0  0  0
  133.6890  125.8750   65.9020 O   0  0  0  0  0  0  0  0  0  0  0  0
  132.4680  124.4150   64.5170 C   0  0  0  0  0  0  0  0  0  0  0  0
  131.8310  122.8080   64.8540 S   0  0  0  0  0  0  0  0  0  0  0  0
  131.9770  122.3500   63.1740 C   0  0  0  0  0  0  0  0  0  0  0  0
  131.6300  121.1370   62.7520 N   0  0  0  0  0  0  0  0  0  0  0  0
  131.7730  120.8740   61.4270 C   0  0  0  0  0  0  0  0  0  0  0  0
  131.3780  119.4940   60.9840 C   0  0  0  0  0  0  0  0  0  0  0  0
  132.1430  118.7980   60.0340 C   0  0  0  0  0  0  0  0  0  0  0  0
  131.7810  117.5190   59.6180 C   0  0  0  0  0  0  0  0  0  0  0  0
  130.6460  116.9160   60.1480 C   0  0  0  0  0  0  0  0  0  0  0  0
  129.8690  117.5850   61.0880 C   0  0  0  0  0  0  0  0  0  0  0  0
  130.2320  118.8640   61.4990 C   0  0  0  0  0  0  0  0  0  0  0  0
  132.2810  121.8250   60.5360 C   0  0  0  0  0  0  0  0  0  0  0  0
  132.6520  123.1080   60.9710 C   0  0  0  0  0  0  0  0  0  0  0  0
  133.2020  124.1020   59.9410 C   0  0  0  0  0  0  0  0  0  0  0  0
  134.4120  124.5680   60.2570 F   0  0  0  0  0  0  0  0  0  0  0  0
  133.2990  123.5120   58.7510 F   0  0  0  0  0  0  0  0  0  0  0  0
  132.3840  125.1500   59.8460 F   0  0  0  0  0  0  0  0  0  0  0  0
  132.4940  123.3980   62.3560 C   0  0  0  0  0  0  0  0  0  0  0  0
  132.7540  124.5730   63.1520 C   0  0  0  0  0  0  0  0  0  0  0  0
  133.2480  125.7370   62.6200 N   0  0  0  0  0  0  0  0  0  0  0  0
  129.1310  126.5920   68.5860 C   0  0  0  0  0  0  0  0  0  0  0  0
  127.8180  127.0410   68.8000 C   0  0  0  0  0  0  0  0  0  0  0  0
  126.9690  126.5150   69.7570 O   0  0  0  0  0  0  0  0  0  0  0  0
  127.4080  126.4270   71.1090 C   0  0  0  0  0  0  0  0  0  0  0  0
  127.3210  128.0840   68.0050 C   0  0  0  0  0  0  0  0  0  0  0  0
  126.0330  128.5230   68.1940 O   0  0  0  0  0  0  0  0  0  0  0  0
  125.1830  128.3230   67.0720 C   0  0  0  0  0  0  0  0  0  0  0  0
  129.0109  130.5416   65.0918 H   0  0  0  0  0  0  0  0  0  0  0  0
  128.2512  129.0594   64.4192 H   0  0  0  0  0  0  0  0  0  0  0  0
  127.3468  130.6114   64.4192 H   0  0  0  0  0  0  0  0  0  0  0  0
  130.0442  128.6453   66.0248 H   0  0  0  0  0  0  0  0  0  0  0  0
  131.9950  127.5154   67.1428 H   0  0  0  0  0  0  0  0  0  0  0  0
  131.6443  126.1119   68.2684 H   0  0  0  0  0  0  0  0  0  0  0  0
  130.5900  125.3150   65.9120 H   0  0  0  0  0  0  0  0  0  0  0  0
  133.0422  119.2704   59.6118 H   0  0  0  0  0  0  0  0  0  0  0  0
  132.3911  116.9878   58.8726 H   0  0  0  0  0  0  0  0  0  0  0  0
  130.3609  115.9047   59.8224 H   0  0  0  0  0  0  0  0  0  0  0  0
  128.9713  117.1050   61.5048 H   0  0  0  0  0  0  0  0  0  0  0  0
  129.6118  119.3907   62.2392 H   0  0  0  0  0  0  0  0  0  0  0  0
  132.3922  121.5629   59.4735 H   0  0  0  0  0  0  0  0  0  0  0  0
  134.2400  125.9250   62.5740 H   0  0  0  0  0  0  0  0  0  0  0  0
  132.6330  126.4470   62.2490 H   0  0  0  0  0  0  0  0  0  0  0  0
  129.5323  125.7739   69.2022 H   0  0  0  0  0  0  0  0  0  0  0  0
  126.5557  126.5978   71.7831 H   0  0  0  0  0  0  0  0  0  0  0  0
  127.8271  125.4270   71.2941 H   0  0  0  0  0  0  0  0  0  0  0  0
  128.1802  127.1882   71.2941 H   0  0  0  0  0  0  0  0  0  0  0  0
  124.1671  128.0840   67.4196 H   0  0  0  0  0  0  0  0  0  0  0  0
  125.1564  129.2394   66.4642 H   0  0  0  0  0  0  0  0  0  0  0  0
  125.5678  127.4909   66.4642 H   0  0  0  0  0  0  0  0  0  0  0  0
  1  2  1  0
  2  3  1  0
  3  4  2  0
  4  5  1  0
  5  6  1  0
  6  7  1  0
  7  8  1  0
  8  9  2  0
  8 10  1  0
 10 11  1  0
 11 12  1  0
 12 13  2  0
 13 14  1  0
 14 15  1  0
 15 16  2  0
 16 17  1  0
 17 18  2  0
 18 19  1  0
 19 20  2  0
 14 21  2  0
 21 22  1  0
 22 23  1  0
 23 24  1  0
 23 25  1  0
 23 26  1  0
 22 27  2  0
 27 28  1  0
 28 29  1  0
  5 30  2  0
 30 31  1  0
 31 32  1  0
 32 33  1  0
 31 34  2  0
 34 35  1  0
 35 36  1  0
 34  3  1  0
 28 10  2  0
 27 12  1  0
 20 15  1  0
  1 37  1  0
  1 38  1  0
  1 39  1  0
  4 40  1  0
  6 41  1  0
  6 42  1  0
  7 43  1  0
 16 44  1  0
 17 45  1  0
 18 46  1  0
 19 47  1  0
 20 48  1  0
 21 49  1  0
 29 50  1  0
 29 51  1  0
 30 52  1  0
 33 53  1  0
 33 54  1  0
 33 55  1  0
 36 56  1  0
 36 57  1  0
 36 58  1  0
M  END
>  <Binding energies>  (1) 
[-7.93]

>  <Ligand effiencies>  (1) 
[-0.20333333333333334]

>  <Interactions>  (1) 
["V-A:ASP:366:CG:3212, V-A:ASP:366:CB:3211, V-B:GLU:543:CD:9879, H-A:TYR:484:OH:4347, V-B:ALA:541:CB:9863, H-B:GLU:543:OE2:9881, V-B:TYR:539:C:9838, V-A:LEU:475:CD2:4258, V-A:PRO:482:CG:4326, V-A:HIS:383:CE1:3393, V-A:ILE:369:CD1:3238, V-B:TYR:539:CD2:9845, V-A:ILE:369:CG2:3236, V-B:TYR:539:CE2:9847, V-B:TYR:539:CB:9842, V-A:GLY:454:CA:4048, V-B:VAL:344:CG1:7971, V-B:TYR:539:CG:9843, V-B:TYR:539:CZ:9848, V-A:PRO:482:CB:4325, V-B:GLU:543:CG:9878, H-A:GLY:454:N:4049, V-A:ARG:545:CZ:4925, V-A:HIS:456:CE1:4069, V-B:GLU:543:CB:9877, V-A:GLU:543:CD:4907, V-B:HIS:456:CE1:9040, V-B:ARG:545:CD:9894, V-B:GLU:543:C:9873, V-A:GLU:543:CG:4906, V-B:ARG:545:CG:9893, H-A:ASP:366:OD2:3214, V-A:GLU:543:CB:4905, H-A:ARG:545:NE:4923, H-B:TYR:484:OH:9318, V-A:TYR:484:CZ:4346, V-B:GLY:544:C:9883, H-A:ASP:366:OD1:3213, V-A:ILE:369:CB:3235, V-B:ARG:545:CZ:9897, V-A:ASP:366:CA:3209, V-A:ILE:369:CG1:3237"]

$$$$
4ci_Grossjean_2025
     RDKit          3D

 39 42  0  0  0  0  0  0  0  0999 V2000
  128.8160  124.2540   63.8770 N   0  0  0  0  0  0  0  0  0  0  0  0
  129.2500  123.9120   62.6220 C   0  0  0  0  0  0  0  0  0  0  0  0
  130.6050  123.7370   62.2980 C   0  0  0  0  0  0  0  0  0  0  0  0
  131.7760  123.8600   63.1700 C   0  0  0  0  0  0  0  0  0  0  0  0
  132.6140  122.9570   63.2310 O   0  0  0  0  0  0  0  0  0  0  0  0
  131.8500  125.0080   63.8900 N   0  0  0  0  0  0  0  0  0  0  0  0
  132.8410  125.3800   64.7890 C   0  0  0  0  0  0  0  0  0  0  0  0
  132.5700  125.8150   66.0860 C   0  0  0  0  0  0  0  0  0  0  0  0
  133.8000  126.0830   66.6390 C   0  0  0  0  0  0  0  0  0  0  0  0
  134.7640  125.8220   65.7230 O   0  0  0  0  0  0  0  0  0  0  0  0
  134.1420  125.3780   64.5540 N   0  0  0  0  0  0  0  0  0  0  0  0
  130.8020  123.2920   60.6050 S   0  0  0  0  0  0  0  0  0  0  0  0
  129.0750  123.3510   60.3410 C   0  0  0  0  0  0  0  0  0  0  0  0
  128.5440  123.0870   59.1490 N   0  0  0  0  0  0  0  0  0  0  0  0
  127.1920  123.1550   59.0420 C   0  0  0  0  0  0  0  0  0  0  0  0
  126.6230  122.8570   57.6840 C   0  0  0  0  0  0  0  0  0  0  0  0
  127.4410  122.3690   56.6510 C   0  0  0  0  0  0  0  0  0  0  0  0
  126.9190  122.0900   55.3910 C   0  0  0  0  0  0  0  0  0  0  0  0
  125.5660  122.2970   55.1440 C   0  0  0  0  0  0  0  0  0  0  0  0
  124.7340  122.7830   56.1450 C   0  0  0  0  0  0  0  0  0  0  0  0
  125.2600  123.0630   57.4040 C   0  0  0  0  0  0  0  0  0  0  0  0
  126.3820  123.5050   60.1270 C   0  0  0  0  0  0  0  0  0  0  0  0
  126.9320  123.7850   61.3890 C   0  0  0  0  0  0  0  0  0  0  0  0
  125.9850  124.1620   62.5340 C   0  0  0  0  0  0  0  0  0  0  0  0
  126.2140  123.4700   63.6520 F   0  0  0  0  0  0  0  0  0  0  0  0
  126.1280  125.4540   62.8290 F   0  0  0  0  0  0  0  0  0  0  0  0
  124.7230  123.9300   62.1710 F   0  0  0  0  0  0  0  0  0  0  0  0
  128.3480  123.7040   61.5150 C   0  0  0  0  0  0  0  0  0  0  0  0
  128.5500  123.5580   64.5590 H   0  0  0  0  0  0  0  0  0  0  0  0
  128.7540  125.2210   64.1660 H   0  0  0  0  0  0  0  0  0  0  0  0
  131.1030  125.6750   63.7680 H   0  0  0  0  0  0  0  0  0  0  0  0
  131.5848  125.9209   66.5636 H   0  0  0  0  0  0  0  0  0  0  0  0
  133.9737  126.4504   67.6612 H   0  0  0  0  0  0  0  0  0  0  0  0
  128.5119  122.2047   56.8411 H   0  0  0  0  0  0  0  0  0  0  0  0
  127.5738  121.7075   54.5942 H   0  0  0  0  0  0  0  0  0  0  0  0
  125.1519  122.0745   54.1495 H   0  0  0  0  0  0  0  0  0  0  0  0
  123.6648  122.9459   55.9442 H   0  0  0  0  0  0  0  0  0  0  0  0
  124.5986  123.4516   58.1923 H   0  0  0  0  0  0  0  0  0  0  0  0
  125.2921  123.5622   59.9895 H   0  0  0  0  0  0  0  0  0  0  0  0
  1  2  1  0
  2  3  2  0
  3  4  1  0
  4  5  2  0
  4  6  1  0
  6  7  1  0
  7  8  1  0
  8  9  2  0
  9 10  1  0
 10 11  1  0
  3 12  1  0
 12 13  1  0
 13 14  2  0
 14 15  1  0
 15 16  1  0
 16 17  2  0
 17 18  1  0
 18 19  2  0
 19 20  1  0
 20 21  2  0
 15 22  2  0
 22 23  1  0
 23 24  1  0
 24 25  1  0
 24 26  1  0
 24 27  1  0
 23 28  2  0
 28  2  1  0
 11  7  2  0
 28 13  1  0
 21 16  1  0
  1 29  1  0
  1 30  1  0
  6 31  1  0
  8 32  1  0
  9 33  1  0
 17 34  1  0
 18 35  1  0
 19 36  1  0
 20 37  1  0
 21 38  1  0
 22 39  1  0
M  END
>  <Binding energies>  (1) 
[-7.69]

>  <Ligand effiencies>  (1) 
[-0.24806451612903227]

>  <Interactions>  (1) 
["V-B:GLU:543:CD:9879, V-B:PRO:540:N:9855, V-B:PRO:540:CA:9854, H-B:GLU:543:OE2:9881, V-B:ALA:541:CA:9861, H-B:GLU:543:OE1:9880, V-B:TYR:539:C:9838, V-B:TYR:539:CD2:9845, V-B:TYR:539:CE2:9847, V-B:TYR:539:CG:9843, V-B:MET:535:CE:9806, V-B:GLU:543:CG:9878, V-B:ALA:541:C:9859, V-B:PRO:540:CB:9856, H-A:GLY:454:N:4049, V-B:TYR:539:CA:9840, V-A:ARG:545:CD:4922, V-B:TYR:539:CD1:9844, V-B:TYR:531:CZ:9765, V-B:PRO:540:CD:9858, V-B:TYR:531:CE2:9764, V-B:LEU:363:CD1:8159, V-A:ARG:545:CZ:4925, V-B:ILE:538:CD1:9836, V-A:ARG:545:CG:4921, V-B:ILE:538:CG2:9834, H-A:ARG:545:NH1:4926, H-A:ARG:545:NH2:4927, V-B:ILE:538:CA:9831, V-B:TYR:539:CE1:9846, V-B:ILE:538:CG1:9835, V-B:ILE:538:C:9829, V-B:ILE:538:CB:9833, H-A:ARG:545:NE:4923, V-B:MET:535:CG:9804, V-B:ARG:545:CZ:9897"]

$$$$
4cj_Grossjean_2025
     RDKit          3D

 39 42  0  0  0  0  0  0  0  0999 V2000
  132.1190  125.3670   61.2480 N   0  0  0  0  0  0  0  0  0  0  0  0
  130.9750  124.6150   61.3260 C   0  0  0  0  0  0  0  0  0  0  0  0
  130.5130  124.0390   62.5210 C   0  0  0  0  0  0  0  0  0  0  0  0
  131.1040  124.1140   63.8600 C   0  0  0  0  0  0  0  0  0  0  0  0
  130.8810  123.2370   64.6980 O   0  0  0  0  0  0  0  0  0  0  0  0
  131.8820  125.2000   64.0930 N   0  0  0  0  0  0  0  0  0  0  0  0
  132.5530  125.5080   65.2680 C   0  0  0  0  0  0  0  0  0  0  0  0
  133.8300  125.3340   65.5380 N   0  0  0  0  0  0  0  0  0  0  0  0
  134.1280  125.7430   66.7550 C   0  0  0  0  0  0  0  0  0  0  0  0
  133.0770  126.2650   67.5040 C   0  0  0  0  0  0  0  0  0  0  0  0
  131.6230  126.2140   66.5510 S   0  0  0  0  0  0  0  0  0  0  0  0
  129.0110  123.1540   62.2630 S   0  0  0  0  0  0  0  0  0  0  0  0
  129.0150  123.5570   60.5620 C   0  0  0  0  0  0  0  0  0  0  0  0
  128.0460  123.1440   59.7490 N   0  0  0  0  0  0  0  0  0  0  0  0
  128.1290  123.5130   58.4450 C   0  0  0  0  0  0  0  0  0  0  0  0
  127.0130  123.0420   57.5570 C   0  0  0  0  0  0  0  0  0  0  0  0
  127.2850  122.4510   56.3130 C   0  0  0  0  0  0  0  0  0  0  0  0
  126.2540  122.0170   55.4830 C   0  0  0  0  0  0  0  0  0  0  0  0
  124.9320  122.1710   55.8860 C   0  0  0  0  0  0  0  0  0  0  0  0
  124.6350  122.7550   57.1120 C   0  0  0  0  0  0  0  0  0  0  0  0
  125.6680  123.1860   57.9400 C   0  0  0  0  0  0  0  0  0  0  0  0
  129.1970  124.2740   57.9590 C   0  0  0  0  0  0  0  0  0  0  0  0
  130.2260  124.7130   58.8070 C   0  0  0  0  0  0  0  0  0  0  0  0
  131.3650  125.5470   58.2100 C   0  0  0  0  0  0  0  0  0  0  0  0
  131.4650  126.7630   58.7510 F   0  0  0  0  0  0  0  0  0  0  0  0
  132.5280  124.9260   58.4060 F   0  0  0  0  0  0  0  0  0  0  0  0
  131.1690  125.7080   56.9010 F   0  0  0  0  0  0  0  0  0  0  0  0
  130.1390  124.3480   60.1810 C   0  0  0  0  0  0  0  0  0  0  0  0
  132.1010  126.3760   61.2920 H   0  0  0  0  0  0  0  0  0  0  0  0
  133.0270  124.9330   61.1480 H   0  0  0  0  0  0  0  0  0  0  0  0
  131.9840  125.8680   63.3420 H   0  0  0  0  0  0  0  0  0  0  0  0
  135.1499  125.6757   67.1564 H   0  0  0  0  0  0  0  0  0  0  0  0
  133.1538  126.6478   68.5324 H   0  0  0  0  0  0  0  0  0  0  0  0
  128.3289  122.3287   55.9886 H   0  0  0  0  0  0  0  0  0  0  0  0
  126.4847  121.5541   54.5122 H   0  0  0  0  0  0  0  0  0  0  0  0
  124.1170  121.8289   55.2312 H   0  0  0  0  0  0  0  0  0  0  0  0
  123.5880  122.8761   57.4267 H   0  0  0  0  0  0  0  0  0  0  0  0
  125.4279  123.6467   58.9096 H   0  0  0  0  0  0  0  0  0  0  0  0
  129.2314  124.5338   56.8907 H   0  0  0  0  0  0  0  0  0  0  0  0
  1  2  1  0
  2  3  2  0
  3  4  1  0
  4  5  2  0
  4  6  1  0
  6  7  1  0
  7  8  2  0
  8  9  1  0
  9 10  2  0
 10 11  1  0
  3 12  1  0
 12 13  1  0
 13 14  2  0
 14 15  1  0
 15 16  1  0
 16 17  2  0
 17 18  1  0
 18 19  2  0
 19 20  1  0
 20 21  2  0
 15 22  2  0
 22 23  1  0
 23 24  1  0
 24 25  1  0
 24 26  1  0
 24 27  1  0
 23 28  2  0
 28  2  1  0
 11  7  1  0
 28 13  1  0
 21 16  1  0
  1 29  1  0
  1 30  1  0
  6 31  1  0
  9 32  1  0
 10 33  1  0
 17 34  1  0
 18 35  1  0
 19 36  1  0
 20 37  1  0
 21 38  1  0
 22 39  1  0
M  END
>  <Binding energies>  (1) 
[-7.6]

>  <Ligand effiencies>  (1) 
[-0.24516129032258063]

>  <Interactions>  (1) 
["V-A:ASP:366:CG:3212, V-A:ASP:366:CB:3211, V-B:PRO:540:N:9855, H-A:TYR:484:OH:4347, V-B:PRO:540:CA:9854, V-B:TYR:539:C:9838, V-B:TYR:539:CE2:9847, V-B:TYR:539:CG:9843, V-B:MET:535:CE:9806, V-B:TYR:539:CZ:9848, V-B:PRO:540:CB:9856, H-A:GLY:454:N:4049, V-A:ARG:545:CD:4922, V-B:TYR:539:CD1:9844, V-B:PRO:540:CD:9858, V-B:TYR:531:CE2:9764, V-B:LEU:363:CD1:8159, V-A:ARG:545:CZ:4925, V-B:ILE:538:CD1:9836, V-A:ARG:545:CG:4921, V-A:HIS:456:CE1:4069, V-B:ILE:538:CG2:9834, H-A:ASP:366:OD2:3214, V-B:ILE:538:CA:9831, V-B:TYR:539:CE1:9846, V-B:ILE:538:C:9829, V-B:ILE:538:CB:9833, H-A:ARG:545:NE:4923, V-A:TYR:484:CZ:4346, H-A:ASP:366:OD1:3213, V-B:MET:535:CG:9804, V-B:PRO:540:CG:9857"]

$$$$
4ck_Grossjean_2025
     RDKit          3D

 57 59  0  0  0  0  0  0  0  0999 V2000
  130.7790  124.5710   74.5910 C   0  0  0  0  0  0  0  0  0  0  0  0
  129.4740  125.1250   74.5320 O   0  0  0  0  0  0  0  0  0  0  0  0
  128.8760  125.0250   73.2470 C   0  0  0  0  0  0  0  0  0  0  0  0
  127.9200  126.2070   73.0450 C   0  0  0  0  0  0  0  0  0  0  0  0
  127.5450  126.2730   71.6760 O   0  0  0  0  0  0  0  0  0  0  0  0
  128.6250  126.5850   70.8070 C   0  0  0  0  0  0  0  0  0  0  0  0
  128.8770  125.3970   69.8700 C   0  0  0  0  0  0  0  0  0  0  0  0
  128.9270  125.8720   68.5320 O   0  0  0  0  0  0  0  0  0  0  0  0
  129.4490  127.1890   68.4090 C   0  0  0  0  0  0  0  0  0  0  0  0
  130.7140  127.1620   67.5360 C   0  0  0  0  0  0  0  0  0  0  0  0
  130.6480  126.1260   66.5040 N   0  0  0  0  0  0  0  0  0  0  0  0
  131.5970  125.8730   65.5790 C   0  0  0  0  0  0  0  0  0  0  0  0
  132.6600  126.4920   65.5280 O   0  0  0  0  0  0  0  0  0  0  0  0
  131.2940  124.7990   64.6320 C   0  0  0  0  0  0  0  0  0  0  0  0
  132.3680  123.4080   64.5010 S   0  0  0  0  0  0  0  0  0  0  0  0
  131.3280  122.6640   63.3080 C   0  0  0  0  0  0  0  0  0  0  0  0
  131.6230  121.4840   62.7700 N   0  0  0  0  0  0  0  0  0  0  0  0
  130.7550  120.9860   61.8500 C   0  0  0  0  0  0  0  0  0  0  0  0
  131.1070  119.6440   61.2750 C   0  0  0  0  0  0  0  0  0  0  0  0
  132.2810  119.4680   60.5250 C   0  0  0  0  0  0  0  0  0  0  0  0
  132.6110  118.2260   59.9870 C   0  0  0  0  0  0  0  0  0  0  0  0
  131.7690  117.1390   60.1920 C   0  0  0  0  0  0  0  0  0  0  0  0
  130.6020  117.2840   60.9350 C   0  0  0  0  0  0  0  0  0  0  0  0
  130.2760  118.5270   61.4730 C   0  0  0  0  0  0  0  0  0  0  0  0
  129.5930  121.6710   61.4830 C   0  0  0  0  0  0  0  0  0  0  0  0
  129.2730  122.9180   62.0440 C   0  0  0  0  0  0  0  0  0  0  0  0
  127.9850  123.6170   61.5930 C   0  0  0  0  0  0  0  0  0  0  0  0
  128.1970  124.8390   61.1030 F   0  0  0  0  0  0  0  0  0  0  0  0
  127.3940  122.9000   60.6380 F   0  0  0  0  0  0  0  0  0  0  0  0
  127.1540  123.7400   62.6290 F   0  0  0  0  0  0  0  0  0  0  0  0
  130.1770  123.4510   63.0080 C   0  0  0  0  0  0  0  0  0  0  0  0
  130.1810  124.6650   63.7880 C   0  0  0  0  0  0  0  0  0  0  0  0
  129.1860  125.6040   63.7050 N   0  0  0  0  0  0  0  0  0  0  0  0
  131.0765  124.4447   75.6424 H   0  0  0  0  0  0  0  0  0  0  0  0
  130.7851  123.5927   74.0881 H   0  0  0  0  0  0  0  0  0  0  0  0
  131.4870  125.2461   74.0881 H   0  0  0  0  0  0  0  0  0  0  0  0
  129.6582  125.0476   72.4739 H   0  0  0  0  0  0  0  0  0  0  0  0
  128.3182  124.0800   73.1704 H   0  0  0  0  0  0  0  0  0  0  0  0
  127.0232  126.0658   73.6662 H   0  0  0  0  0  0  0  0  0  0  0  0
  128.4198  127.1421   73.3378 H   0  0  0  0  0  0  0  0  0  0  0  0
  128.3735  127.4757   70.2125 H   0  0  0  0  0  0  0  0  0  0  0  0
  129.5296  126.7873   71.3992 H   0  0  0  0  0  0  0  0  0  0  0  0
  129.8332  124.9186   70.1285 H   0  0  0  0  0  0  0  0  0  0  0  0
  128.0673  124.6598   69.9750 H   0  0  0  0  0  0  0  0  0  0  0  0
  128.6952  127.8395   67.9415 H   0  0  0  0  0  0  0  0  0  0  0  0
  129.7016  127.5769   69.4069 H   0  0  0  0  0  0  0  0  0  0  0  0
  130.8298  128.1414   67.0487 H   0  0  0  0  0  0  0  0  0  0  0  0
  131.5710  126.9371   68.1878 H   0  0  0  0  0  0  0  0  0  0  0  0
  129.8430  125.5180   66.5380 H   0  0  0  0  0  0  0  0  0  0  0  0
  132.9510  120.3246   60.3596 H   0  0  0  0  0  0  0  0  0  0  0  0
  133.5347  118.1059   59.4019 H   0  0  0  0  0  0  0  0  0  0  0  0
  132.0270  116.1589   59.7643 H   0  0  0  0  0  0  0  0  0  0  0  0
  129.9395  116.4210   61.0970 H   0  0  0  0  0  0  0  0  0  0  0  0
  129.3536  118.6365   62.0622 H   0  0  0  0  0  0  0  0  0  0  0  0
  128.9158  121.2244   60.7400 H   0  0  0  0  0  0  0  0  0  0  0  0
  128.6750  125.7700   62.8490 H   0  0  0  0  0  0  0  0  0  0  0  0
  128.9230  126.1640   64.5060 H   0  0  0  0  0  0  0  0  0  0  0  0
  1  2  1  0
  2  3  1  0
  3  4  1  0
  4  5  1  0
  5  6  1  0
  6  7  1  0
  7  8  1  0
  8  9  1  0
  9 10  1  0
 10 11  1  0
 11 12  1  0
 12 13  2  0
 12 14  1  0
 14 15  1  0
 15 16  1  0
 16 17  2  0
 17 18  1  0
 18 19  1  0
 19 20  2  0
 20 21  1  0
 21 22  2  0
 22 23  1  0
 23 24  2  0
 18 25  2  0
 25 26  1  0
 26 27  1  0
 27 28  1  0
 27 29  1  0
 27 30  1  0
 26 31  2  0
 31 32  1  0
 32 33  1  0
 32 14  2  0
 31 16  1  0
 24 19  1  0
  1 34  1  0
  1 35  1  0
  1 36  1  0
  3 37  1  0
  3 38  1  0
  4 39  1  0
  4 40  1  0
  6 41  1  0
  6 42  1  0
  7 43  1  0
  7 44  1  0
  9 45  1  0
  9 46  1  0
 10 47  1  0
 10 48  1  0
 11 49  1  0
 20 50  1  0
 21 51  1  0
 22 52  1  0
 23 53  1  0
 24 54  1  0
 25 55  1  0
 33 56  1  0
 33 57  1  0
M  END
>  <Binding energies>  (1) 
[-6.82]

>  <Ligand effiencies>  (1) 
[-0.18944444444444444]

>  <Interactions>  (1) 
["V-B:GLU:543:CD:9879, V-B:PRO:540:N:9855, H-A:TYR:484:OH:4347, V-B:ALA:541:CB:9863, V-B:PRO:540:CA:9854, H-B:GLU:543:OE2:9881, V-B:PRO:540:C:9852, H-B:GLU:543:OE1:9880, V-A:LEU:475:CD2:4258, V-A:PRO:482:CG:4326, V-A:HIS:383:CE1:3393, V-B:TYR:539:CD2:9845, V-B:TYR:539:CE2:9847, V-A:GLY:454:CA:4048, V-A:PRO:482:CB:4325, V-B:PRO:540:CB:9856, V-A:HIS:456:CE1:4069, V-B:GLU:543:CB:9877, V-A:GLU:543:CD:4907, V-B:LYS:547:CE:9921, H-B:LYS:547:NZ:9922, V-A:HIS:456:CD2:4067, V-B:GLU:543:C:9873, H-A:ARG:545:NH2:4927, H-A:ARG:545:NE:4923, V-A:TYR:484:CE2:4345, V-B:GLU:543:CA:9875, V-A:HIS:456:CG:4065"]

$$$$
4dd_Grossjean_2025
     RDKit          3D

 43 46  0  0  0  0  0  0  0  0999 V2000
  133.8160  124.2540   60.4590 C   0  0  0  0  0  0  0  0  0  0  0  0
  133.0120  123.3030   61.3310 C   0  0  0  0  0  0  0  0  0  0  0  0
  132.7560  122.0150   60.8430 C   0  0  0  0  0  0  0  0  0  0  0  0
  132.0220  121.0920   61.5980 C   0  0  0  0  0  0  0  0  0  0  0  0
  131.7280  119.7090   61.0970 C   0  0  0  0  0  0  0  0  0  0  0  0
  132.6010  119.0660   60.2040 C   0  0  0  0  0  0  0  0  0  0  0  0
  132.3360  117.7810   59.7380 C   0  0  0  0  0  0  0  0  0  0  0  0
  131.1880  117.1180   60.1590 C   0  0  0  0  0  0  0  0  0  0  0  0
  130.3080  117.7290   61.0450 C   0  0  0  0  0  0  0  0  0  0  0  0
  130.5780  119.0140   61.5100 C   0  0  0  0  0  0  0  0  0  0  0  0
  131.5180  121.4040   62.8230 N   0  0  0  0  0  0  0  0  0  0  0  0
  131.7660  122.6260   63.2920 C   0  0  0  0  0  0  0  0  0  0  0  0
  131.1940  123.1530   64.8590 S   0  0  0  0  0  0  0  0  0  0  0  0
  131.9330  124.7430   64.6460 C   0  0  0  0  0  0  0  0  0  0  0  0
  131.8300  125.7550   65.6990 C   0  0  0  0  0  0  0  0  0  0  0  0
  132.8240  126.0950   66.3420 O   0  0  0  0  0  0  0  0  0  0  0  0
  130.5900  126.2700   65.8900 N   0  0  0  0  0  0  0  0  0  0  0  0
  130.1460  127.2050   66.8420 C   0  0  0  0  0  0  0  0  0  0  0  0
  129.1950  128.1270   66.3940 C   0  0  0  0  0  0  0  0  0  0  0  0
  128.6810  129.0850   67.2640 C   0  0  0  0  0  0  0  0  0  0  0  0
  129.1130  129.1170   68.5870 C   0  0  0  0  0  0  0  0  0  0  0  0
  130.0500  128.1970   69.0500 C   0  0  0  0  0  0  0  0  0  0  0  0
  130.5660  127.2380   68.1820 C   0  0  0  0  0  0  0  0  0  0  0  0
  132.5820  124.8360   63.4050 C   0  0  0  0  0  0  0  0  0  0  0  0
  133.2390  125.9600   62.9700 N   0  0  0  0  0  0  0  0  0  0  0  0
  132.5040  123.6370   62.6130 C   0  0  0  0  0  0  0  0  0  0  0  0
  134.3940  124.9376   61.0982 H   0  0  0  0  0  0  0  0  0  0  0  0
  134.5038  123.6764   59.8239 H   0  0  0  0  0  0  0  0  0  0  0  0
  133.1320  124.8361   59.8239 H   0  0  0  0  0  0  0  0  0  0  0  0
  133.1370  121.7247   59.8528 H   0  0  0  0  0  0  0  0  0  0  0  0
  133.5096  119.5866   59.8671 H   0  0  0  0  0  0  0  0  0  0  0  0
  133.0315  117.2922   59.0399 H   0  0  0  0  0  0  0  0  0  0  0  0
  130.9752  116.1043   59.7887 H   0  0  0  0  0  0  0  0  0  0  0  0
  129.4026  117.2001   61.3773 H   0  0  0  0  0  0  0  0  0  0  0  0
  129.8797  119.4929   62.2121 H   0  0  0  0  0  0  0  0  0  0  0  0
  129.8750  125.9510   65.2540 H   0  0  0  0  0  0  0  0  0  0  0  0
  128.8514  128.0954   65.3495 H   0  0  0  0  0  0  0  0  0  0  0  0
  127.9373  129.8129   66.9077 H   0  0  0  0  0  0  0  0  0  0  0  0
  128.7102  129.8765   69.2733 H   0  0  0  0  0  0  0  0  0  0  0  0
  130.3817  128.2276   70.0984 H   0  0  0  0  0  0  0  0  0  0  0  0
  131.3025  126.5064   68.5457 H   0  0  0  0  0  0  0  0  0  0  0  0
  132.7420  126.7740   62.6360 H   0  0  0  0  0  0  0  0  0  0  0  0
  134.2480  126.0110   62.9730 H   0  0  0  0  0  0  0  0  0  0  0  0
  1  2  1  0
  2  3  2  0
  3  4  1  0
  4  5  1  0
  5  6  2  0
  6  7  1  0
  7  8  2  0
  8  9  1  0
  9 10  2  0
  4 11  2  0
 11 12  1  0
 12 13  1  0
 13 14  1  0
 14 15  1  0
 15 16  2  0
 15 17  1  0
 17 18  1  0
 18 19  2  0
 19 20  1  0
 20 21  2  0
 21 22  1  0
 22 23  2  0
 14 24  2  0
 24 25  1  0
 24 26  1  0
 26  2  1  0
 10  5  1  0
 26 12  2  0
 23 18  1  0
  1 27  1  0
  1 28  1  0
  1 29  1  0
  3 30  1  0
  6 31  1  0
  7 32  1  0
  8 33  1  0
  9 34  1  0
 10 35  1  0
 17 36  1  0
 19 37  1  0
 20 38  1  0
 21 39  1  0
 22 40  1  0
 23 41  1  0
 25 42  1  0
 25 43  1  0
M  END
>  <Binding energies>  (1) 
[-8.77]

>  <Ligand effiencies>  (1) 
[-0.30241379310344824]

>  <Interactions>  (1) 
["V-A:ASP:366:CG:3212, V-A:ASP:366:CB:3211, V-B:GLU:543:CD:9879, H-A:TYR:484:OH:4347, V-B:ALA:541:CB:9863, H-B:GLU:543:OE2:9881, V-A:LEU:475:CD2:4258, V-A:PRO:482:CG:4326, V-A:HIS:383:CE1:3393, V-A:ILE:369:CD1:3238, V-B:TYR:539:CD2:9845, V-A:ILE:369:CG2:3236, V-B:TYR:539:CE2:9847, V-B:TYR:539:CB:9842, V-A:PRO:482:CB:4325, V-A:ARG:545:CZ:4925, V-A:HIS:456:CE1:4069, V-A:GLU:543:CD:4907, V-B:HIS:456:CE1:9040, V-A:GLU:543:CG:4906, H-A:ASP:366:OD2:3214, V-A:GLU:543:CB:4905, H-A:ARG:545:NE:4923, V-A:TYR:484:CZ:4346, H-A:ASP:366:OD1:3213, V-A:ILE:369:CB:3235, V-A:ASP:366:CA:3209"]

$$$$
4dg_Grossjean_2025
     RDKit          3D

 46 49  0  0  0  0  0  0  0  0999 V2000
  133.6540  124.2420   60.5400 C   0  0  0  0  0  0  0  0  0  0  0  0
  132.8110  123.3310   61.4180 C   0  0  0  0  0  0  0  0  0  0  0  0
  132.5430  122.0350   60.9610 C   0  0  0  0  0  0  0  0  0  0  0  0
  131.7730  121.1480   61.7220 C   0  0  0  0  0  0  0  0  0  0  0  0
  131.4710  119.7510   61.2580 C   0  0  0  0  0  0  0  0  0  0  0  0
  132.3600  119.0630   60.4160 C   0  0  0  0  0  0  0  0  0  0  0  0
  132.0820  117.7690   59.9800 C   0  0  0  0  0  0  0  0  0  0  0  0
  130.9080  117.1420   60.3810 C   0  0  0  0  0  0  0  0  0  0  0  0
  130.0070  117.8020   61.2120 C   0  0  0  0  0  0  0  0  0  0  0  0
  130.2880  119.0950   61.6450 C   0  0  0  0  0  0  0  0  0  0  0  0
  131.2700  121.4950   62.9380 N   0  0  0  0  0  0  0  0  0  0  0  0
  131.5230  122.7280   63.3750 C   0  0  0  0  0  0  0  0  0  0  0  0
  130.9310  123.3040   64.9150 S   0  0  0  0  0  0  0  0  0  0  0  0
  131.6880  124.8770   64.6670 C   0  0  0  0  0  0  0  0  0  0  0  0
  131.5250  125.9360   65.6620 C   0  0  0  0  0  0  0  0  0  0  0  0
  132.4430  126.2490   66.4230 O   0  0  0  0  0  0  0  0  0  0  0  0
  130.3060  126.5130   65.7150 N   0  0  0  0  0  0  0  0  0  0  0  0
  129.9230  127.6020   66.6120 C   0  0  0  0  0  0  0  0  0  0  0  0
  129.5390  127.1300   68.0090 C   0  0  0  0  0  0  0  0  0  0  0  0
  129.1650  128.0640   68.9800 C   0  0  0  0  0  0  0  0  0  0  0  0
  128.7830  127.6340   70.2470 C   0  0  0  0  0  0  0  0  0  0  0  0
  128.7660  126.2710   70.5380 C   0  0  0  0  0  0  0  0  0  0  0  0
  129.1210  125.3340   69.5710 C   0  0  0  0  0  0  0  0  0  0  0  0
  129.5020  125.7640   68.3020 C   0  0  0  0  0  0  0  0  0  0  0  0
  132.3500  124.9350   63.4320 C   0  0  0  0  0  0  0  0  0  0  0  0
  133.0140  126.0440   62.9730 N   0  0  0  0  0  0  0  0  0  0  0  0
  132.2810  123.7120   62.6780 C   0  0  0  0  0  0  0  0  0  0  0  0
  134.2641  124.9013   61.1749 H   0  0  0  0  0  0  0  0  0  0  0  0
  134.3131  123.6319   59.9049 H   0  0  0  0  0  0  0  0  0  0  0  0
  132.9947  124.8519   59.9049 H   0  0  0  0  0  0  0  0  0  0  0  0
  132.9435  121.7092   59.9897 H   0  0  0  0  0  0  0  0  0  0  0  0
  133.2909  119.5536   60.0955 H   0  0  0  0  0  0  0  0  0  0  0  0
  132.7895  117.2452   59.3204 H   0  0  0  0  0  0  0  0  0  0  0  0
  130.6898  116.1192   60.0400 H   0  0  0  0  0  0  0  0  0  0  0  0
  129.0774  117.3042   61.5251 H   0  0  0  0  0  0  0  0  0  0  0  0
  129.5727  119.6127   62.3010 H   0  0  0  0  0  0  0  0  0  0  0  0
  129.6290  126.2610   65.0090 H   0  0  0  0  0  0  0  0  0  0  0  0
  130.7718  128.2961   66.6997 H   0  0  0  0  0  0  0  0  0  0  0  0
  129.0348  128.0834   66.1768 H   0  0  0  0  0  0  0  0  0  0  0  0
  129.1728  129.1380   68.7424 H   0  0  0  0  0  0  0  0  0  0  0  0
  128.4957  128.3666   71.0156 H   0  0  0  0  0  0  0  0  0  0  0  0
  128.4692  125.9321   71.5415 H   0  0  0  0  0  0  0  0  0  0  0  0
  129.1007  124.2600   69.8079 H   0  0  0  0  0  0  0  0  0  0  0  0
  129.7737  125.0284   67.5306 H   0  0  0  0  0  0  0  0  0  0  0  0
  134.0220  126.0950   62.9580 H   0  0  0  0  0  0  0  0  0  0  0  0
  132.5110  126.8500   62.6250 H   0  0  0  0  0  0  0  0  0  0  0  0
  1  2  1  0
  2  3  2  0
  3  4  1  0
  4  5  1  0
  5  6  2  0
  6  7  1  0
  7  8  2  0
  8  9  1  0
  9 10  2  0
  4 11  2  0
 11 12  1  0
 12 13  1  0
 13 14  1  0
 14 15  1  0
 15 16  2  0
 15 17  1  0
 17 18  1  0
 18 19  1  0
 19 20  2  0
 20 21  1  0
 21 22  2  0
 22 23  1  0
 23 24  2  0
 14 25  2  0
 25 26  1  0
 25 27  1  0
 27  2  1  0
 10  5  1  0
 27 12  2  0
 24 19  1  0
  1 28  1  0
  1 29  1  0
  1 30  1  0
  3 31  1  0
  6 32  1  0
  7 33  1  0
  8 34  1  0
  9 35  1  0
 10 36  1  0
 17 37  1  0
 18 38  1  0
 18 39  1  0
 20 40  1  0
 21 41  1  0
 22 42  1  0
 23 43  1  0
 24 44  1  0
 26 45  1  0
 26 46  1  0
M  END
>  <Binding energies>  (1) 
[-8.64]

>  <Ligand effiencies>  (1) 
[-0.28800000000000003]

>  <Interactions>  (1) 
["V-A:ASP:366:CG:3212, V-A:ASP:366:CB:3211, V-B:GLU:543:CD:9879, H-A:TYR:484:OH:4347, V-B:ALA:541:CB:9863, H-B:GLU:543:OE2:9881, V-B:TYR:539:C:9838, V-A:LEU:475:CD2:4258, V-A:PRO:482:CG:4326, V-A:HIS:383:CE1:3393, V-A:ILE:369:CD1:3238, V-B:TYR:539:CD2:9845, V-A:ILE:369:CG2:3236, V-B:TYR:539:CE2:9847, V-B:TYR:539:CB:9842, V-A:PRO:482:CB:4325, V-B:GLU:543:CG:9878, V-A:ARG:545:CZ:4925, V-A:HIS:456:CE1:4069, V-B:GLU:543:CB:9877, V-A:GLU:543:CD:4907, V-B:HIS:456:CE1:9040, V-A:HIS:456:CD2:4067, V-B:GLU:543:C:9873, H-A:ASP:366:OD2:3214, H-A:ARG:545:NE:4923, V-A:TYR:484:CZ:4346, V-A:TYR:484:CE2:4345, H-A:ASP:366:OD1:3213, V-B:GLU:543:CA:9875"]

$$$$
4dj_Grossjean_2025
     RDKit          3D

 39 42  0  0  0  0  0  0  0  0999 V2000
  133.9620  124.2110   60.4960 C   0  0  0  0  0  0  0  0  0  0  0  0
  133.1130  123.2810   61.3490 C   0  0  0  0  0  0  0  0  0  0  0  0
  132.8300  122.0040   60.8500 C   0  0  0  0  0  0  0  0  0  0  0  0
  132.0520  121.1010   61.5850 C   0  0  0  0  0  0  0  0  0  0  0  0
  131.7370  119.7220   61.0790 C   0  0  0  0  0  0  0  0  0  0  0  0
  130.5890  119.0400   61.5130 C   0  0  0  0  0  0  0  0  0  0  0  0
  130.2910  117.7620   61.0480 C   0  0  0  0  0  0  0  0  0  0  0  0
  131.1440  117.1420   60.1400 C   0  0  0  0  0  0  0  0  0  0  0  0
  132.2900  117.7920   59.6960 C   0  0  0  0  0  0  0  0  0  0  0  0
  132.5830  119.0700   60.1630 C   0  0  0  0  0  0  0  0  0  0  0  0
  131.5550  121.4140   62.8130 N   0  0  0  0  0  0  0  0  0  0  0  0
  131.8220  122.6300   63.2880 C   0  0  0  0  0  0  0  0  0  0  0  0
  131.2390  123.1660   64.8470 S   0  0  0  0  0  0  0  0  0  0  0  0
  132.0130  124.7400   64.6480 C   0  0  0  0  0  0  0  0  0  0  0  0
  131.8930  125.7610   65.6900 C   0  0  0  0  0  0  0  0  0  0  0  0
  132.8910  126.3500   66.1130 O   0  0  0  0  0  0  0  0  0  0  0  0
  130.6350  125.9890   66.1410 N   0  0  0  0  0  0  0  0  0  0  0  0
  130.2510  126.8950   67.1190 C   0  0  0  0  0  0  0  0  0  0  0  0
  130.5810  126.8980   68.3930 N   0  0  0  0  0  0  0  0  0  0  0  0
  130.0330  127.9120   69.0340 C   0  0  0  0  0  0  0  0  0  0  0  0
  129.2380  128.7630   68.2740 C   0  0  0  0  0  0  0  0  0  0  0  0
  129.2110  128.1950   66.6310 S   0  0  0  0  0  0  0  0  0  0  0  0
  132.6830  124.8210   63.4180 C   0  0  0  0  0  0  0  0  0  0  0  0
  133.3700  125.9320   62.9950 N   0  0  0  0  0  0  0  0  0  0  0  0
  132.5920  123.6270   62.6220 C   0  0  0  0  0  0  0  0  0  0  0  0
  134.5588  124.8648   61.1490 H   0  0  0  0  0  0  0  0  0  0  0  0
  134.6339  123.6149   59.8610 H   0  0  0  0  0  0  0  0  0  0  0  0
  133.3073  124.8260   59.8610 H   0  0  0  0  0  0  0  0  0  0  0  0
  133.2241  121.7059   59.8672 H   0  0  0  0  0  0  0  0  0  0  0  0
  129.9130  119.5241   62.2332 H   0  0  0  0  0  0  0  0  0  0  0  0
  129.3852  117.2446   61.3969 H   0  0  0  0  0  0  0  0  0  0  0  0
  130.9103  116.1322   59.7716 H   0  0  0  0  0  0  0  0  0  0  0  0
  132.9622  117.2984   58.9787 H   0  0  0  0  0  0  0  0  0  0  0  0
  133.4918  119.5792   59.8098 H   0  0  0  0  0  0  0  0  0  0  0  0
  129.8900  125.4440   65.7320 H   0  0  0  0  0  0  0  0  0  0  0  0
  130.1957  128.0754   70.1096 H   0  0  0  0  0  0  0  0  0  0  0  0
  128.7113  129.6519   68.6514 H   0  0  0  0  0  0  0  0  0  0  0  0
  132.8960  126.7710   62.6980 H   0  0  0  0  0  0  0  0  0  0  0  0
  134.3800  125.9440   62.9680 H   0  0  0  0  0  0  0  0  0  0  0  0
  1  2  1  0
  2  3  2  0
  3  4  1  0
  4  5  1  0
  5  6  2  0
  6  7  1  0
  7  8  2  0
  8  9  1  0
  9 10  2  0
  4 11  2  0
 11 12  1  0
 12 13  1  0
 13 14  1  0
 14 15  1  0
 15 16  2  0
 15 17  1  0
 17 18  1  0
 18 19  2  0
 19 20  1  0
 20 21  2  0
 21 22  1  0
 14 23  2  0
 23 24  1  0
 23 25  1  0
 25  2  1  0
 10  5  1  0
 25 12  2  0
 22 18  1  0
  1 26  1  0
  1 27  1  0
  1 28  1  0
  3 29  1  0
  6 30  1  0
  7 31  1  0
  8 32  1  0
  9 33  1  0
 10 34  1  0
 17 35  1  0
 20 36  1  0
 21 37  1  0
 24 38  1  0
 24 39  1  0
M  END
>  <Binding energies>  (1) 
[-8.21]

>  <Ligand effiencies>  (1) 
[-0.29321428571428576]

>  <Interactions>  (1) 
["V-A:ASP:366:CG:3212, V-A:ASP:366:CB:3211, V-B:GLU:543:CD:9879, H-A:TYR:484:OH:4347, V-B:ALA:541:CB:9863, H-B:GLU:543:OE2:9881, V-B:TYR:539:C:9838, V-A:LEU:475:CD2:4258, V-A:PRO:482:CG:4326, V-A:HIS:383:CE1:3393, V-A:ILE:369:CD1:3238, V-B:TYR:539:CD2:9845, V-A:ILE:369:CG2:3236, V-B:TYR:539:CE2:9847, V-B:TYR:539:CB:9842, V-A:PRO:482:CB:4325, V-A:ARG:545:CZ:4925, V-A:HIS:456:CE1:4069, V-A:GLU:543:CD:4907, V-A:GLU:543:CG:4906, H-A:ASP:366:OD2:3214, V-A:GLU:543:CB:4905, H-A:ARG:545:NH2:4927, H-A:ARG:545:NE:4923, V-A:TYR:484:CZ:4346, H-A:ASP:366:OD1:3213, V-A:ILE:369:CB:3235, V-A:ASP:366:CA:3209, V-A:ILE:369:CG1:3237"]

$$$$
4ea_Grossjean_2025
     RDKit          3D

 52 55  0  0  0  0  0  0  0  0999 V2000
  124.1700  124.6400   57.7590 C   0  0  0  0  0  0  0  0  0  0  0  0
  124.6260  123.2960   57.1810 C   0  0  0  0  0  0  0  0  0  0  0  0
  125.7490  123.5030   56.3350 O   0  0  0  0  0  0  0  0  0  0  0  0
  126.9050  122.8160   56.5220 C   0  0  0  0  0  0  0  0  0  0  0  0
  127.3230  121.9620   55.7330 O   0  0  0  0  0  0  0  0  0  0  0  0
  127.6240  123.1970   57.7830 C   0  0  0  0  0  0  0  0  0  0  0  0
  128.7630  124.0090   57.7010 C   0  0  0  0  0  0  0  0  0  0  0  0
  129.4520  124.3810   58.8520 C   0  0  0  0  0  0  0  0  0  0  0  0
  129.0190  123.9500   60.1070 C   0  0  0  0  0  0  0  0  0  0  0  0
  129.7940  124.3870   61.1990 N   0  0  0  0  0  0  0  0  0  0  0  0
  130.6290  125.4490   61.3140 C   0  0  0  0  0  0  0  0  0  0  0  0
  130.8560  126.2540   60.4110 O   0  0  0  0  0  0  0  0  0  0  0  0
  131.2760  125.5950   62.6210 C   0  0  0  0  0  0  0  0  0  0  0  0
  132.9700  125.1470   62.8350 S   0  0  0  0  0  0  0  0  0  0  0  0
  132.9260  125.5970   64.5230 C   0  0  0  0  0  0  0  0  0  0  0  0
  133.9970  125.4830   65.3110 N   0  0  0  0  0  0  0  0  0  0  0  0
  133.8310  125.8660   66.6010 C   0  0  0  0  0  0  0  0  0  0  0  0
  135.0610  125.7280   67.4790 C   0  0  0  0  0  0  0  0  0  0  0  0
  132.6330  126.3560   67.1160 C   0  0  0  0  0  0  0  0  0  0  0  0
  131.5130  126.4740   66.2870 C   0  0  0  0  0  0  0  0  0  0  0  0
  130.2470  126.9960   66.8480 C   0  0  0  0  0  0  0  0  0  0  0  0
  129.7200  126.4490   68.0230 C   0  0  0  0  0  0  0  0  0  0  0  0
  128.5310  126.9410   68.5530 C   0  0  0  0  0  0  0  0  0  0  0  0
  127.8650  127.9790   67.9060 C   0  0  0  0  0  0  0  0  0  0  0  0
  128.3780  128.5290   66.7330 C   0  0  0  0  0  0  0  0  0  0  0  0
  129.5680  128.0350   66.2040 C   0  0  0  0  0  0  0  0  0  0  0  0
  131.6450  126.0820   64.9260 C   0  0  0  0  0  0  0  0  0  0  0  0
  130.7220  126.0700   63.8200 C   0  0  0  0  0  0  0  0  0  0  0  0
  129.4230  126.4900   63.9480 N   0  0  0  0  0  0  0  0  0  0  0  0
  127.8790  123.1360   60.1980 C   0  0  0  0  0  0  0  0  0  0  0  0
  127.1920  122.7650   59.0460 C   0  0  0  0  0  0  0  0  0  0  0  0
  124.1866  124.5911   58.8578 H   0  0  0  0  0  0  0  0  0  0  0  0
  124.8486  125.4354   57.4171 H   0  0  0  0  0  0  0  0  0  0  0  0
  123.1475  124.8582   57.4171 H   0  0  0  0  0  0  0  0  0  0  0  0
  124.9047  122.6190   58.0020 H   0  0  0  0  0  0  0  0  0  0  0  0
  123.8059  122.8484   56.6004 H   0  0  0  0  0  0  0  0  0  0  0  0
  129.1158  124.3556   56.7185 H   0  0  0  0  0  0  0  0  0  0  0  0
  130.3443  125.0193   58.7719 H   0  0  0  0  0  0  0  0  0  0  0  0
  129.7030  123.8100   62.0210 H   0  0  0  0  0  0  0  0  0  0  0  0
  134.7619  125.7616   68.5370 H   0  0  0  0  0  0  0  0  0  0  0  0
  135.5562  124.7687   67.2682 H   0  0  0  0  0  0  0  0  0  0  0  0
  135.7565  126.5537   67.2682 H   0  0  0  0  0  0  0  0  0  0  0  0
  132.5680  126.6499   68.1740 H   0  0  0  0  0  0  0  0  0  0  0  0
  130.2473  125.6272   68.5296 H   0  0  0  0  0  0  0  0  0  0  0  0
  128.1192  126.5121   69.4785 H   0  0  0  0  0  0  0  0  0  0  0  0
  126.9253  128.3683   68.3249 H   0  0  0  0  0  0  0  0  0  0  0  0
  127.8462  129.3486   66.2277 H   0  0  0  0  0  0  0  0  0  0  0  0
  129.9751  128.4637   65.2764 H   0  0  0  0  0  0  0  0  0  0  0  0
  129.1030  127.3630   63.5510 H   0  0  0  0  0  0  0  0  0  0  0  0
  128.7380  125.9370   64.4450 H   0  0  0  0  0  0  0  0  0  0  0  0
  127.5280  122.7907   61.1817 H   0  0  0  0  0  0  0  0  0  0  0  0
  126.3003  122.1259   59.1266 H   0  0  0  0  0  0  0  0  0  0  0  0
  1  2  1  0
  2  3  1  0
  3  4  1  0
  4  5  2  0
  4  6  1  0
  6  7  2  0
  7  8  1  0
  8  9  2  0
  9 10  1  0
 10 11  1  0
 11 12  2  0
 11 13  1  0
 13 14  1  0
 14 15  1  0
 15 16  2  0
 16 17  1  0
 17 18  1  0
 17 19  2  0
 19 20  1  0
 20 21  1  0
 21 22  2  0
 22 23  1  0
 23 24  2  0
 24 25  1  0
 25 26  2  0
 20 27  2  0
 27 28  1  0
 28 29  1  0
  9 30  1  0
 30 31  2  0
 31  6  1  0
 28 13  2  0
 27 15  1  0
 26 21  1  0
  1 32  1  0
  1 33  1  0
  1 34  1  0
  2 35  1  0
  2 36  1  0
  7 37  1  0
  8 38  1  0
 10 39  1  0
 18 40  1  0
 18 41  1  0
 18 42  1  0
 19 43  1  0
 22 44  1  0
 23 45  1  0
 24 46  1  0
 25 47  1  0
 26 48  1  0
 29 49  1  0
 29 50  1  0
 30 51  1  0
 31 52  1  0
M  END
>  <Binding energies>  (1) 
[-9.15]

>  <Ligand effiencies>  (1) 
[-0.2691176470588235]

>  <Interactions>  (1) 
["V-A:ASP:366:CG:3212, V-B:GLU:543:CD:9879, V-B:PRO:540:N:9855, H-A:TYR:484:OH:4347, V-B:PRO:540:CA:9854, H-B:GLU:543:OE2:9881, H-B:GLU:543:OE1:9880, V-B:TYR:539:C:9838, V-B:TYR:539:CE2:9847, H-B:TYR:539:N:9841, V-B:MET:535:CE:9806, V-B:TYR:539:CZ:9848, V-B:PRO:540:CB:9856, H-A:GLY:454:N:4049, V-A:GLY:453:C:4041, V-A:ARG:545:CD:4922, V-B:TYR:531:CZ:9765, V-B:TYR:531:CE2:9764, V-B:LEU:363:CD1:8159, V-A:ARG:545:CZ:4925, V-A:ARG:545:CG:4921, V-A:HIS:456:CE1:4069, V-B:GLU:543:CB:9877, V-A:GLU:543:CD:4907, V-A:GLU:543:CG:4906, H-A:ARG:545:NH1:4926, H-A:ARG:545:NH2:4927, V-A:GLY:453:CA:4043, H-A:ARG:545:NE:4923, V-B:ASP:366:CB:8182, H-B:TYR:531:OH:9766, V-A:ILE:455:C:4051, V-A:ARG:545:CB:4920"]

$$$$
4eb_Grossjean_2025
     RDKit          3D

 49 52  0  0  0  0  0  0  0  0999 V2000
  124.6150  123.6160   57.5410 C   0  0  0  0  0  0  0  0  0  0  0  0
  125.5010  123.4760   56.4390 O   0  0  0  0  0  0  0  0  0  0  0  0
  126.7140  122.8830   56.5900 C   0  0  0  0  0  0  0  0  0  0  0  0
  127.1310  121.9910   55.8470 O   0  0  0  0  0  0  0  0  0  0  0  0
  127.4980  123.4240   57.7510 C   0  0  0  0  0  0  0  0  0  0  0  0
  128.0050  122.5330   58.7070 C   0  0  0  0  0  0  0  0  0  0  0  0
  128.7350  123.0030   59.7950 C   0  0  0  0  0  0  0  0  0  0  0  0
  128.9740  124.3690   59.9510 C   0  0  0  0  0  0  0  0  0  0  0  0
  129.7230  124.7280   61.0880 N   0  0  0  0  0  0  0  0  0  0  0  0
  130.4530  125.8420   61.3420 C   0  0  0  0  0  0  0  0  0  0  0  0
  130.5810  126.7820   60.5570 O   0  0  0  0  0  0  0  0  0  0  0  0
  131.1090  125.8740   62.6520 C   0  0  0  0  0  0  0  0  0  0  0  0
  132.7850  125.3470   62.8240 S   0  0  0  0  0  0  0  0  0  0  0  0
  132.7650  125.6830   64.5400 C   0  0  0  0  0  0  0  0  0  0  0  0
  133.8330  125.4740   65.3120 N   0  0  0  0  0  0  0  0  0  0  0  0
  133.6870  125.7740   66.6250 C   0  0  0  0  0  0  0  0  0  0  0  0
  134.9150  125.5290   67.4840 C   0  0  0  0  0  0  0  0  0  0  0  0
  132.5110  126.2730   67.1800 C   0  0  0  0  0  0  0  0  0  0  0  0
  131.3930  126.4900   66.3670 C   0  0  0  0  0  0  0  0  0  0  0  0
  130.1500  127.0210   66.9720 C   0  0  0  0  0  0  0  0  0  0  0  0
  129.5140  128.1320   66.4100 C   0  0  0  0  0  0  0  0  0  0  0  0
  128.3440  128.6310   66.9770 C   0  0  0  0  0  0  0  0  0  0  0  0
  127.8110  128.0190   68.1090 C   0  0  0  0  0  0  0  0  0  0  0  0
  128.4390  126.9130   68.6780 C   0  0  0  0  0  0  0  0  0  0  0  0
  129.6090  126.4160   68.1100 C   0  0  0  0  0  0  0  0  0  0  0  0
  131.5050  126.1880   64.9830 C   0  0  0  0  0  0  0  0  0  0  0  0
  130.5800  126.2870   63.8850 C   0  0  0  0  0  0  0  0  0  0  0  0
  129.2970  126.7460   64.0480 N   0  0  0  0  0  0  0  0  0  0  0  0
  128.4700  125.2680   58.9990 C   0  0  0  0  0  0  0  0  0  0  0  0
  127.7400  124.7970   57.9110 C   0  0  0  0  0  0  0  0  0  0  0  0
  125.1808  123.5266   58.4801 H   0  0  0  0  0  0  0  0  0  0  0  0
  124.1293  124.6020   57.4980 H   0  0  0  0  0  0  0  0  0  0  0  0
  123.8490  122.8278   57.4980 H   0  0  0  0  0  0  0  0  0  0  0  0
  127.8245  121.4535   58.5965 H   0  0  0  0  0  0  0  0  0  0  0  0
  129.1265  122.2922   60.5376 H   0  0  0  0  0  0  0  0  0  0  0  0
  129.7070  124.0390   61.8240 H   0  0  0  0  0  0  0  0  0  0  0  0
  134.6362  125.5846   68.5466 H   0  0  0  0  0  0  0  0  0  0  0  0
  135.3235  124.5317   67.2638 H   0  0  0  0  0  0  0  0  0  0  0  0
  135.6749  126.2932   67.2638 H   0  0  0  0  0  0  0  0  0  0  0  0
  132.4612  126.4962   68.2560 H   0  0  0  0  0  0  0  0  0  0  0  0
  129.9391  128.6135   65.5170 H   0  0  0  0  0  0  0  0  0  0  0  0
  127.8433  129.5041   66.5331 H   0  0  0  0  0  0  0  0  0  0  0  0
  126.8867  128.4121   68.5575 H   0  0  0  0  0  0  0  0  0  0  0  0
  128.0123  126.4346   69.5719 H   0  0  0  0  0  0  0  0  0  0  0  0
  130.1091  125.5447   68.5581 H   0  0  0  0  0  0  0  0  0  0  0  0
  128.8470  127.3210   63.3500 H   0  0  0  0  0  0  0  0  0  0  0  0
  128.7580  126.5240   64.8740 H   0  0  0  0  0  0  0  0  0  0  0  0
  128.6519  126.3469   59.1124 H   0  0  0  0  0  0  0  0  0  0  0  0
  127.3488  125.5086   57.1690 H   0  0  0  0  0  0  0  0  0  0  0  0
  1  2  1  0
  2  3  1  0
  3  4  2  0
  3  5  1  0
  5  6  2  0
  6  7  1  0
  7  8  2  0
  8  9  1  0
  9 10  1  0
 10 11  2  0
 10 12  1  0
 12 13  1  0
 13 14  1  0
 14 15  2  0
 15 16  1  0
 16 17  1  0
 16 18  2  0
 18 19  1  0
 19 20  1  0
 20 21  2  0
 21 22  1  0
 22 23  2  0
 23 24  1  0
 24 25  2  0
 19 26  2  0
 26 27  1  0
 27 28  1  0
  8 29  1  0
 29 30  2  0
 30  5  1  0
 27 12  2  0
 26 14  1  0
 25 20  1  0
  1 31  1  0
  1 32  1  0
  1 33  1  0
  6 34  1  0
  7 35  1  0
  9 36  1  0
 17 37  1  0
 17 38  1  0
 17 39  1  0
 18 40  1  0
 21 41  1  0
 22 42  1  0
 23 43  1  0
 24 44  1  0
 25 45  1  0
 28 46  1  0
 28 47  1  0
 29 48  1  0
 30 49  1  0
M  END
>  <Binding energies>  (1) 
[-8.92]

>  <Ligand effiencies>  (1) 
[-0.2703030303030303]

>  <Interactions>  (1) 
["V-A:ASP:366:CG:3212, V-B:GLU:543:CD:9879, V-B:PRO:540:N:9855, H-A:TYR:484:OH:4347, V-B:PRO:540:CA:9854, H-B:GLU:543:OE2:9881, H-B:GLU:543:OE1:9880, V-B:TYR:539:C:9838, V-B:TYR:539:CD2:9845, V-B:TYR:539:CE2:9847, V-A:GLY:454:CA:4048, H-B:TYR:539:N:9841, V-B:TYR:539:CG:9843, V-B:MET:535:CE:9806, V-B:PRO:540:CB:9856, H-A:GLY:454:N:4049, V-A:GLY:453:C:4041, V-A:ARG:545:CD:4922, V-B:TYR:531:CE2:9764, V-B:LEU:363:CD1:8159, V-A:ARG:545:CZ:4925, V-A:ARG:545:CG:4921, V-A:HIS:456:CE1:4069, V-B:GLU:543:CB:9877, V-A:GLU:543:CD:4907, V-A:GLU:543:CG:4906, H-A:ARG:545:NH2:4927, V-A:GLY:453:CA:4043, H-A:ARG:545:NE:4923, V-A:TYR:484:CZ:4346, H-B:TYR:531:OH:9766, V-A:ILE:455:C:4051, V-A:ARG:545:CB:4920, V-A:GLY:454:C:4046"]

$$$$
8a_Ghoteimi_2023
     RDKit          3D

 67 71  0  0  0  0  0  0  0  0999 V2000
  128.7540  133.1120   54.0900 C   0  0  0  0  0  0  0  0  0  0  0  0
  129.4360  132.5980   55.3620 C   0  0  0  0  0  0  0  0  0  0  0  0
  130.2580  133.6230   55.9050 O   0  0  0  0  0  0  0  0  0  0  0  0
  131.3650  133.3210   56.6330 C   0  0  0  0  0  0  0  0  0  0  0  0
  132.5140  133.5740   56.2580 O   0  0  0  0  0  0  0  0  0  0  0  0
  131.0520  132.6460   57.9370 C   0  0  0  0  0  0  0  0  0  0  0  0
  131.5840  131.3760   58.1930 C   0  0  0  0  0  0  0  0  0  0  0  0
  131.3120  130.7230   59.3920 C   0  0  0  0  0  0  0  0  0  0  0  0
  130.5030  131.3230   60.3580 C   0  0  0  0  0  0  0  0  0  0  0  0
  130.2920  130.5670   61.5290 N   0  0  0  0  0  0  0  0  0  0  0  0
  129.2020  129.8750   61.9410 C   0  0  0  0  0  0  0  0  0  0  0  0
  128.1490  129.7980   61.3090 O   0  0  0  0  0  0  0  0  0  0  0  0
  129.3480  129.1890   63.2290 C   0  0  0  0  0  0  0  0  0  0  0  0
  128.4830  129.7710   64.6510 S   0  0  0  0  0  0  0  0  0  0  0  0
  129.1760  128.5100   65.6450 C   0  0  0  0  0  0  0  0  0  0  0  0
  128.9040  128.4160   66.9470 N   0  0  0  0  0  0  0  0  0  0  0  0
  129.4990  127.4020   67.6290 C   0  0  0  0  0  0  0  0  0  0  0  0
  129.1960  127.3270   69.0910 C   0  0  0  0  0  0  0  0  0  0  0  0
  128.4340  126.2750   69.6190 C   0  0  0  0  0  0  0  0  0  0  0  0
  128.1450  126.2180   70.9800 C   0  0  0  0  0  0  0  0  0  0  0  0
  128.6110  127.2050   71.8460 C   0  0  0  0  0  0  0  0  0  0  0  0
  128.2740  127.0670   73.1790 O   0  0  0  0  0  0  0  0  0  0  0  0
  126.9190  127.2520   73.5740 C   0  0  0  0  0  0  0  0  0  0  0  0
  129.3790  128.2580   71.3290 C   0  0  0  0  0  0  0  0  0  0  0  0
  129.6640  128.3150   69.9660 C   0  0  0  0  0  0  0  0  0  0  0  0
  130.3530  126.4870   67.0100 C   0  0  0  0  0  0  0  0  0  0  0  0
  130.6280  126.5720   65.6410 C   0  0  0  0  0  0  0  0  0  0  0  0
  131.5180  125.5530   65.0270 C   0  0  0  0  0  0  0  0  0  0  0  0
  131.0790  124.2370   64.8750 C   0  0  0  0  0  0  0  0  0  0  0  0
  131.9020  123.2840   64.2810 C   0  0  0  0  0  0  0  0  0  0  0  0
  133.1750  123.6310   63.8260 C   0  0  0  0  0  0  0  0  0  0  0  0
  133.9200  122.6200   63.2500 O   0  0  0  0  0  0  0  0  0  0  0  0
  133.2850  121.7070   62.3630 C   0  0  0  0  0  0  0  0  0  0  0  0
  133.6150  124.9550   63.9710 C   0  0  0  0  0  0  0  0  0  0  0  0
  132.7890  125.9070   64.5640 C   0  0  0  0  0  0  0  0  0  0  0  0
  130.0340  127.6390   64.9110 C   0  0  0  0  0  0  0  0  0  0  0  0
  130.1280  128.0630   63.5360 C   0  0  0  0  0  0  0  0  0  0  0  0
  130.9260  127.4240   62.6210 N   0  0  0  0  0  0  0  0  0  0  0  0
  129.9700  132.5970   60.1120 C   0  0  0  0  0  0  0  0  0  0  0  0
  130.2430  133.2490   58.9120 C   0  0  0  0  0  0  0  0  0  0  0  0
  127.9032  133.7532   54.3637 H   0  0  0  0  0  0  0  0  0  0  0  0
  129.4752  133.6931   53.4965 H   0  0  0  0  0  0  0  0  0  0  0  0
  128.3940  132.2586   53.4965 H   0  0  0  0  0  0  0  0  0  0  0  0
  128.6708  132.3125   56.0988 H   0  0  0  0  0  0  0  0  0  0  0  0
  130.0547  131.7217   55.1184 H   0  0  0  0  0  0  0  0  0  0  0  0
  132.2223  130.8903   57.4402 H   0  0  0  0  0  0  0  0  0  0  0  0
  131.7381  129.7263   59.5795 H   0  0  0  0  0  0  0  0  0  0  0  0
  131.0900  130.5350   62.1450 H   0  0  0  0  0  0  0  0  0  0  0  0
  128.0602  125.4856   68.9504 H   0  0  0  0  0  0  0  0  0  0  0  0
  127.5433  125.3862   71.3750 H   0  0  0  0  0  0  0  0  0  0  0  0
  126.8551  127.2607   74.6721 H   0  0  0  0  0  0  0  0  0  0  0  0
  126.5489  128.2090   73.1776 H   0  0  0  0  0  0  0  0  0  0  0  0
  126.3059  126.4292   73.1776 H   0  0  0  0  0  0  0  0  0  0  0  0
  129.7578  129.0418   72.0015 H   0  0  0  0  0  0  0  0  0  0  0  0
  130.2650  129.1478   69.5720 H   0  0  0  0  0  0  0  0  0  0  0  0
  130.8162  125.6879   67.6074 H   0  0  0  0  0  0  0  0  0  0  0  0
  130.0767  123.9510   65.2266 H   0  0  0  0  0  0  0  0  0  0  0  0
  131.5461  122.2492   64.1694 H   0  0  0  0  0  0  0  0  0  0  0  0
  132.7521  120.9408   62.9452 H   0  0  0  0  0  0  0  0  0  0  0  0
  132.5686  122.2499   61.7290 H   0  0  0  0  0  0  0  0  0  0  0  0
  134.0433  121.2243   61.7290 H   0  0  0  0  0  0  0  0  0  0  0  0
  134.6155  125.2424   63.6153 H   0  0  0  0  0  0  0  0  0  0  0  0
  133.1390  126.9445   64.6688 H   0  0  0  0  0  0  0  0  0  0  0  0
  130.7010  126.4990   62.2810 H   0  0  0  0  0  0  0  0  0  0  0  0
  131.7610  127.8540   62.2520 H   0  0  0  0  0  0  0  0  0  0  0  0
  129.3353  133.0820   60.8683 H   0  0  0  0  0  0  0  0  0  0  0  0
  129.8199  134.2473   58.7266 H   0  0  0  0  0  0  0  0  0  0  0  0
  1  2  1  0
  2  3  1  0
  3  4  1  0
  4  5  2  0
  4  6  1  0
  6  7  2  0
  7  8  1  0
  8  9  2  0
  9 10  1  0
 10 11  1  0
 11 12  2  0
 11 13  1  0
 13 14  1  0
 14 15  1  0
 15 16  2  0
 16 17  1  0
 17 18  1  0
 18 19  2  0
 19 20  1  0
 20 21  2  0
 21 22  1  0
 22 23  1  0
 21 24  1  0
 24 25  2  0
 17 26  2  0
 26 27  1  0
 27 28  1  0
 28 29  2  0
 29 30  1  0
 30 31  2  0
 31 32  1  0
 32 33  1  0
 31 34  1  0
 34 35  2  0
 27 36  2  0
 36 37  1  0
 37 38  1  0
  9 39  1  0
 39 40  2  0
 40  6  1  0
 37 13  2  0
 36 15  1  0
 25 18  1  0
 35 28  1  0
  1 41  1  0
  1 42  1  0
  1 43  1  0
  2 44  1  0
  2 45  1  0
  7 46  1  0
  8 47  1  0
 10 48  1  0
 19 49  1  0
 20 50  1  0
 23 51  1  0
 23 52  1  0
 23 53  1  0
 24 54  1  0
 25 55  1  0
 26 56  1  0
 29 57  1  0
 30 58  1  0
 33 59  1  0
 33 60  1  0
 33 61  1  0
 34 62  1  0
 35 63  1  0
 38 64  1  0
 38 65  1  0
 39 66  1  0
 40 67  1  0
M  END
>  <Binding energies>  (1) 
[-9.17]

>  <Ligand effiencies>  (1) 
[-0.21325581395348836]

>  <Interactions>  (1) 
["V-A:TYR:539:CZ:4876, V-A:TYR:539:CE1:4874, H-A:GLU:543:OE2:4909, V-A:TYR:539:CE2:4875, V-A:PRO:540:CA:4882, V-B:GLU:543:CD:9879, V-A:LEU:475:CD2:4258, V-A:GLY:454:CA:4048, H-A:GLY:454:N:4049, V-A:ARG:545:CZ:4925, V-A:HIS:456:CE1:4069, V-B:GLU:543:CB:9877, V-A:GLU:543:CD:4907, V-B:HIS:456:CE1:9040, V-B:LYS:547:CE:9921, V-B:GLU:543:C:9873, V-A:GLU:543:CG:4906, H-A:ASP:366:OD2:3214, V-B:GLY:544:C:9883, V-A:PRO:540:N:4883, V-A:MET:535:CG:4832, V-A:PRO:540:CD:4886, H-A:TYR:539:N:4869, V-A:TYR:539:C:4866, V-A:MET:535:CB:4831, V-B:HIS:456:CD2:9038, V-B:HIS:456:CG:9036"]

$$$$
8b_Ghoteimi_2023
     RDKit          3D

 54 58  0  0  0  0  0  0  0  0999 V2000
  124.2120  132.3700   63.3910 C   0  0  0  0  0  0  0  0  0  0  0  0
  124.4580  131.3290   64.3300 O   0  0  0  0  0  0  0  0  0  0  0  0
  125.0480  130.1570   63.8960 C   0  0  0  0  0  0  0  0  0  0  0  0
  124.6680  129.6980   62.6370 C   0  0  0  0  0  0  0  0  0  0  0  0
  125.2090  128.5250   62.1180 C   0  0  0  0  0  0  0  0  0  0  0  0
  126.1460  127.7800   62.8480 C   0  0  0  0  0  0  0  0  0  0  0  0
  126.7290  126.5180   62.2960 C   0  0  0  0  0  0  0  0  0  0  0  0
  126.3330  126.0020   61.0580 C   0  0  0  0  0  0  0  0  0  0  0  0
  126.8940  124.8210   60.5640 C   0  0  0  0  0  0  0  0  0  0  0  0
  126.4440  124.2970   59.2530 C   0  0  0  0  0  0  0  0  0  0  0  0
  127.3640  124.0990   58.2230 C   0  0  0  0  0  0  0  0  0  0  0  0
  126.9420  123.5970   56.9950 C   0  0  0  0  0  0  0  0  0  0  0  0
  125.5980  123.2890   56.7780 C   0  0  0  0  0  0  0  0  0  0  0  0
  125.2700  122.7950   55.5300 O   0  0  0  0  0  0  0  0  0  0  0  0
  126.2590  122.1000   54.7770 C   0  0  0  0  0  0  0  0  0  0  0  0
  124.6740  123.4940   57.8150 C   0  0  0  0  0  0  0  0  0  0  0  0
  125.0980  123.9950   59.0430 C   0  0  0  0  0  0  0  0  0  0  0  0
  127.8800  124.1690   61.3520 C   0  0  0  0  0  0  0  0  0  0  0  0
  128.6510  122.9690   61.1540 C   0  0  0  0  0  0  0  0  0  0  0  0
  128.5240  122.1910   60.0320 N   0  0  0  0  0  0  0  0  0  0  0  0
  129.5340  122.6820   62.2070 C   0  0  0  0  0  0  0  0  0  0  0  0
  130.4630  121.5570   62.3360 C   0  0  0  0  0  0  0  0  0  0  0  0
  131.4250  121.6200   63.1050 O   0  0  0  0  0  0  0  0  0  0  0  0
  130.1820  120.4790   61.5600 N   0  0  0  0  0  0  0  0  0  0  0  0
  130.8870  119.2850   61.4860 C   0  0  0  0  0  0  0  0  0  0  0  0
  130.2680  118.0360   61.4780 C   0  0  0  0  0  0  0  0  0  0  0  0
  131.2980  117.1260   61.4000 C   0  0  0  0  0  0  0  0  0  0  0  0
  132.4760  117.7930   61.3600 O   0  0  0  0  0  0  0  0  0  0  0  0
  132.2020  119.1610   61.4140 N   0  0  0  0  0  0  0  0  0  0  0  0
  129.4300  123.9020   63.4770 S   0  0  0  0  0  0  0  0  0  0  0  0
  128.2090  124.7860   62.5930 C   0  0  0  0  0  0  0  0  0  0  0  0
  127.6730  125.9110   63.0650 N   0  0  0  0  0  0  0  0  0  0  0  0
  126.5260  128.2480   64.1130 C   0  0  0  0  0  0  0  0  0  0  0  0
  125.9860  129.4210   64.6350 C   0  0  0  0  0  0  0  0  0  0  0  0
  123.9913  133.3040   63.9285 H   0  0  0  0  0  0  0  0  0  0  0  0
  125.1014  132.5118   62.7594 H   0  0  0  0  0  0  0  0  0  0  0  0
  123.3532  132.0987   62.7594 H   0  0  0  0  0  0  0  0  0  0  0  0
  123.9341  130.2673   62.0477 H   0  0  0  0  0  0  0  0  0  0  0  0
  124.8972  128.1780   61.1218 H   0  0  0  0  0  0  0  0  0  0  0  0
  125.5716  126.5315   60.4665 H   0  0  0  0  0  0  0  0  0  0  0  0
  128.4255  124.3401   58.3816 H   0  0  0  0  0  0  0  0  0  0  0  0
  127.6740  123.4417   56.1888 H   0  0  0  0  0  0  0  0  0  0  0  0
  126.9623  121.6058   55.4634 H   0  0  0  0  0  0  0  0  0  0  0  0
  125.7729  121.3439   54.1430 H   0  0  0  0  0  0  0  0  0  0  0  0
  126.8057  122.8135   54.1430 H   0  0  0  0  0  0  0  0  0  0  0  0
  123.6113  123.2580   57.6568 H   0  0  0  0  0  0  0  0  0  0  0  0
  124.3687  124.1534   59.8511 H   0  0  0  0  0  0  0  0  0  0  0  0
  129.2470  122.1620   59.3270 H   0  0  0  0  0  0  0  0  0  0  0  0
  127.7040  121.6240   59.8690 H   0  0  0  0  0  0  0  0  0  0  0  0
  129.3680  120.5400   60.9680 H   0  0  0  0  0  0  0  0  0  0  0  0
  129.1897  117.8235   61.5241 H   0  0  0  0  0  0  0  0  0  0  0  0
  131.1827  116.0324   61.3743 H   0  0  0  0  0  0  0  0  0  0  0  0
  127.2615  127.6807   64.7023 H   0  0  0  0  0  0  0  0  0  0  0  0
  126.2962  129.7715   65.6304 H   0  0  0  0  0  0  0  0  0  0  0  0
  1  2  1  0
  2  3  1  0
  3  4  2  0
  4  5  1  0
  5  6  2  0
  6  7  1  0
  7  8  2  0
  8  9  1  0
  9 10  1  0
 10 11  2  0
 11 12  1  0
 12 13  2  0
 13 14  1  0
 14 15  1  0
 13 16  1  0
 16 17  2  0
  9 18  2  0
 18 19  1  0
 19 20  1  0
 19 21  2  0
 21 22  1  0
 22 23  2  0
 22 24  1  0
 24 25  1  0
 25 26  1  0
 26 27  2  0
 27 28  1  0
 28 29  1  0
 21 30  1  0
 30 31  1  0
 31 32  2  0
  6 33  1  0
 33 34  2  0
 34  3  1  0
 32  7  1  0
 17 10  1  0
 31 18  1  0
 29 25  2  0
  1 35  1  0
  1 36  1  0
  1 37  1  0
  4 38  1  0
  5 39  1  0
  8 40  1  0
 11 41  1  0
 12 42  1  0
 15 43  1  0
 15 44  1  0
 15 45  1  0
 16 46  1  0
 17 47  1  0
 20 48  1  0
 20 49  1  0
 24 50  1  0
 26 51  1  0
 27 52  1  0
 33 53  1  0
 34 54  1  0
M  END
>  <Binding energies>  (1) 
[-7.83]

>  <Ligand effiencies>  (1) 
[-0.21162162162162163]

>  <Interactions>  (1) 
["V-B:GLU:543:CD:9879, V-B:PRO:540:N:9855, V-B:ALA:541:CB:9863, V-B:PRO:540:CA:9854, V-B:TYR:539:C:9838, V-A:LEU:475:CD2:4258, V-A:PRO:482:CG:4326, V-A:HIS:383:CE1:3393, H-B:TYR:539:O:9839, V-B:TYR:539:CD2:9845, V-B:TYR:539:CE2:9847, V-B:MET:535:CE:9806, V-A:PRO:482:CB:4325, V-B:PRO:540:CB:9856, V-B:TYR:531:CZ:9765, V-B:TYR:531:CE2:9764, V-B:LEU:363:CD1:8159, V-B:ILE:538:CD1:9836, V-B:ILE:538:CG2:9834, V-B:ILE:538:CA:9831, V-B:ILE:538:CG1:9835, V-B:ILE:538:C:9829, V-B:ILE:538:CB:9833, H-B:TYR:531:OH:9766, V-B:ASP:366:CG:8183, V-B:MET:535:CG:9804, V-B:VAL:537:C:9821, V-B:ARG:545:CZ:9897, V-B:LEU:475:CD1:9228, V-B:GLY:454:CA:9019, H-B:GLY:454:N:9020"]

$$$$
8c_Ghoteimi_2023
     RDKit          3D

 54 58  0  0  0  0  0  0  0  0999 V2000
  124.3490  132.5330   63.5800 C   0  0  0  0  0  0  0  0  0  0  0  0
  124.5060  131.4440   64.4830 O   0  0  0  0  0  0  0  0  0  0  0  0
  125.0740  130.2680   64.0290 C   0  0  0  0  0  0  0  0  0  0  0  0
  124.6520  129.8140   62.7810 C   0  0  0  0  0  0  0  0  0  0  0  0
  125.1670  128.6370   62.2460 C   0  0  0  0  0  0  0  0  0  0  0  0
  126.1200  127.8840   62.9460 C   0  0  0  0  0  0  0  0  0  0  0  0
  126.6760  126.6160   62.3770 C   0  0  0  0  0  0  0  0  0  0  0  0
  126.2660  126.1240   61.1340 C   0  0  0  0  0  0  0  0  0  0  0  0
  126.8040  124.9370   60.6240 C   0  0  0  0  0  0  0  0  0  0  0  0
  126.3420  124.4390   59.3090 C   0  0  0  0  0  0  0  0  0  0  0  0
  127.2440  124.3100   58.2490 C   0  0  0  0  0  0  0  0  0  0  0  0
  126.8100  123.8320   57.0170 C   0  0  0  0  0  0  0  0  0  0  0  0
  125.4740  123.4800   56.8220 C   0  0  0  0  0  0  0  0  0  0  0  0
  125.1350  123.0130   55.5660 O   0  0  0  0  0  0  0  0  0  0  0  0
  126.1170  122.3380   54.7880 C   0  0  0  0  0  0  0  0  0  0  0  0
  124.5690  123.6140   57.8860 C   0  0  0  0  0  0  0  0  0  0  0  0
  125.0030  124.0910   59.1200 C   0  0  0  0  0  0  0  0  0  0  0  0
  127.7770  124.2560   61.4030 C   0  0  0  0  0  0  0  0  0  0  0  0
  128.5210  123.0430   61.1900 C   0  0  0  0  0  0  0  0  0  0  0  0
  128.3750  122.2790   60.0600 N   0  0  0  0  0  0  0  0  0  0  0  0
  129.3990  122.7230   62.2380 C   0  0  0  0  0  0  0  0  0  0  0  0
  130.3030  121.5760   62.3530 C   0  0  0  0  0  0  0  0  0  0  0  0
  131.2760  121.6140   63.1090 O   0  0  0  0  0  0  0  0  0  0  0  0
  129.9880  120.5080   61.5790 N   0  0  0  0  0  0  0  0  0  0  0  0
  130.6730  119.3040   61.5020 C   0  0  0  0  0  0  0  0  0  0  0  0
  130.2300  118.1020   61.8020 N   0  0  0  0  0  0  0  0  0  0  0  0
  131.1530  117.1820   61.6050 C   0  0  0  0  0  0  0  0  0  0  0  0
  132.3820  117.6340   61.1340 C   0  0  0  0  0  0  0  0  0  0  0  0
  132.3140  119.3600   60.9430 S   0  0  0  0  0  0  0  0  0  0  0  0
  129.3250  123.9310   63.5220 S   0  0  0  0  0  0  0  0  0  0  0  0
  128.1210  124.8520   62.6510 C   0  0  0  0  0  0  0  0  0  0  0  0
  127.6090  125.9810   63.1380 N   0  0  0  0  0  0  0  0  0  0  0  0
  126.5420  128.3490   64.1990 C   0  0  0  0  0  0  0  0  0  0  0  0
  126.0280  129.5250   64.7370 C   0  0  0  0  0  0  0  0  0  0  0  0
  124.2147  133.4647   64.1491 H   0  0  0  0  0  0  0  0  0  0  0  0
  125.2445  132.6161   62.9465 H   0  0  0  0  0  0  0  0  0  0  0  0
  123.4665  132.3598   62.9465 H   0  0  0  0  0  0  0  0  0  0  0  0
  123.9060  130.3904   62.2143 H   0  0  0  0  0  0  0  0  0  0  0  0
  124.8214  128.2927   61.2601 H   0  0  0  0  0  0  0  0  0  0  0  0
  125.5133  126.6753   60.5514 H   0  0  0  0  0  0  0  0  0  0  0  0
  128.2992  124.5871   58.3894 H   0  0  0  0  0  0  0  0  0  0  0  0
  127.5267  123.7305   56.1887 H   0  0  0  0  0  0  0  0  0  0  0  0
  126.8372  121.8429   55.4559 H   0  0  0  0  0  0  0  0  0  0  0  0
  125.6276  121.5845   54.1533 H   0  0  0  0  0  0  0  0  0  0  0  0
  126.6452  123.0648   54.1533 H   0  0  0  0  0  0  0  0  0  0  0  0
  123.5128  123.3412   57.7446 H   0  0  0  0  0  0  0  0  0  0  0  0
  124.2880  124.1941   59.9495 H   0  0  0  0  0  0  0  0  0  0  0  0
  127.9590  121.3580   60.0960 H   0  0  0  0  0  0  0  0  0  0  0  0
  128.6790  122.6070   59.1540 H   0  0  0  0  0  0  0  0  0  0  0  0
  129.1670  120.5840   60.9970 H   0  0  0  0  0  0  0  0  0  0  0  0
  130.9626  116.1166   61.8018 H   0  0  0  0  0  0  0  0  0  0  0  0
  133.2553  117.0011   60.9176 H   0  0  0  0  0  0  0  0  0  0  0  0
  127.2906  127.7759   64.7656 H   0  0  0  0  0  0  0  0  0  0  0  0
  126.3721  129.8728   65.7222 H   0  0  0  0  0  0  0  0  0  0  0  0
  1  2  1  0
  2  3  1  0
  3  4  2  0
  4  5  1  0
  5  6  2  0
  6  7  1  0
  7  8  2  0
  8  9  1  0
  9 10  1  0
 10 11  2  0
 11 12  1  0
 12 13  2  0
 13 14  1  0
 14 15  1  0
 13 16  1  0
 16 17  2  0
  9 18  2  0
 18 19  1  0
 19 20  1  0
 19 21  2  0
 21 22  1  0
 22 23  2  0
 22 24  1  0
 24 25  1  0
 25 26  2  0
 26 27  1  0
 27 28  2  0
 28 29  1  0
 21 30  1  0
 30 31  1  0
 31 32  2  0
  6 33  1  0
 33 34  2  0
 34  3  1  0
 32  7  1  0
 17 10  1  0
 31 18  1  0
 29 25  1  0
  1 35  1  0
  1 36  1  0
  1 37  1  0
  4 38  1  0
  5 39  1  0
  8 40  1  0
 11 41  1  0
 12 42  1  0
 15 43  1  0
 15 44  1  0
 15 45  1  0
 16 46  1  0
 17 47  1  0
 20 48  1  0
 20 49  1  0
 24 50  1  0
 27 51  1  0
 28 52  1  0
 33 53  1  0
 34 54  1  0
M  END
>  <Binding energies>  (1) 
[-8.25]

>  <Ligand effiencies>  (1) 
[-0.22297297297297297]

>  <Interactions>  (1) 
["V-B:GLU:543:CD:9879, V-B:PRO:540:N:9855, V-B:ALA:541:CB:9863, V-B:PRO:540:CA:9854, V-B:PRO:540:C:9852, V-B:TYR:539:C:9838, V-A:LEU:475:CD2:4258, V-A:PRO:482:CG:4326, V-A:HIS:383:CE1:3393, H-B:TYR:539:O:9839, V-B:TYR:539:CD2:9845, V-B:TYR:539:CE2:9847, V-A:SER:385:CA:3406, V-A:SER:385:CB:3408, V-B:MET:535:CE:9806, V-A:PRO:482:CB:4325, V-B:PRO:540:CB:9856, V-B:TYR:531:CZ:9765, V-B:TYR:531:CE2:9764, V-B:LEU:363:CD1:8159, V-B:ILE:538:CD1:9836, V-B:ILE:538:CG2:9834, V-B:ILE:538:CA:9831, V-B:ILE:538:CG1:9835, V-B:ILE:538:C:9829, V-B:ILE:538:CB:9833, H-B:TYR:531:OH:9766, V-B:ASP:366:CG:8183, V-B:MET:535:CG:9804, V-B:ARG:545:CZ:9897, V-B:LEU:475:CD1:9228, V-B:GLY:454:CA:9019, H-B:GLY:454:N:9020"]

$$$$
8d_Ghoteimi_2023
     RDKit          3D

 50 53  0  0  0  0  0  0  0  0999 V2000
  135.1430  127.6390   74.6420 C   0  0  0  0  0  0  0  0  0  0  0  0
  134.4310  128.1070   75.7790 O   0  0  0  0  0  0  0  0  0  0  0  0
  133.4240  127.3730   76.3210 C   0  0  0  0  0  0  0  0  0  0  0  0
  133.3770  127.0370   77.5070 O   0  0  0  0  0  0  0  0  0  0  0  0
  132.3800  127.0130   75.3380 C   0  0  0  0  0  0  0  0  0  0  0  0
  131.7200  128.2470   74.2630 S   0  0  0  0  0  0  0  0  0  0  0  0
  130.6550  127.0810   73.5130 C   0  0  0  0  0  0  0  0  0  0  0  0
  129.8180  127.4200   72.5320 N   0  0  0  0  0  0  0  0  0  0  0  0
  129.0350  126.4340   72.0170 C   0  0  0  0  0  0  0  0  0  0  0  0
  128.1020  126.8430   70.9220 C   0  0  0  0  0  0  0  0  0  0  0  0
  128.5580  127.5810   69.8200 C   0  0  0  0  0  0  0  0  0  0  0  0
  127.6850  127.9590   68.8030 C   0  0  0  0  0  0  0  0  0  0  0  0
  126.3360  127.6110   68.8610 C   0  0  0  0  0  0  0  0  0  0  0  0
  125.5450  128.0280   67.8090 O   0  0  0  0  0  0  0  0  0  0  0  0
  126.1440  128.7330   66.7260 C   0  0  0  0  0  0  0  0  0  0  0  0
  125.8700  126.8720   69.9580 C   0  0  0  0  0  0  0  0  0  0  0  0
  126.7470  126.4950   70.9720 C   0  0  0  0  0  0  0  0  0  0  0  0
  129.0860  125.1190   72.4880 C   0  0  0  0  0  0  0  0  0  0  0  0
  129.9660  124.7620   73.5150 C   0  0  0  0  0  0  0  0  0  0  0  0
  130.0030  123.3580   73.9860 C   0  0  0  0  0  0  0  0  0  0  0  0
  131.1670  122.6000   73.8440 C   0  0  0  0  0  0  0  0  0  0  0  0
  131.1980  121.2780   74.2780 C   0  0  0  0  0  0  0  0  0  0  0  0
  130.0730  120.6960   74.8630 C   0  0  0  0  0  0  0  0  0  0  0  0
  130.1960  119.3800   75.2630 O   0  0  0  0  0  0  0  0  0  0  0  0
  131.2950  119.0030   76.0830 C   0  0  0  0  0  0  0  0  0  0  0  0
  128.9040  121.4630   75.0080 C   0  0  0  0  0  0  0  0  0  0  0  0
  128.8740  122.7850   74.5720 C   0  0  0  0  0  0  0  0  0  0  0  0
  130.7950  125.7750   74.0650 C   0  0  0  0  0  0  0  0  0  0  0  0
  131.7870  125.7670   75.1050 C   0  0  0  0  0  0  0  0  0  0  0  0
  132.1120  124.6340   75.8060 N   0  0  0  0  0  0  0  0  0  0  0  0
  136.0203  127.0624   74.9705 H   0  0  0  0  0  0  0  0  0  0  0  0
  134.4867  126.9956   74.0376 H   0  0  0  0  0  0  0  0  0  0  0  0
  135.4733  128.4967   74.0376 H   0  0  0  0  0  0  0  0  0  0  0  0
  129.6189  127.8649   69.7582 H   0  0  0  0  0  0  0  0  0  0  0  0
  128.0628  128.5370   67.9467 H   0  0  0  0  0  0  0  0  0  0  0  0
  126.8088  129.5154   67.1208 H   0  0  0  0  0  0  0  0  0  0  0  0
  126.7274  128.0325   66.1104 H   0  0  0  0  0  0  0  0  0  0  0  0
  125.3585  129.1956   66.1104 H   0  0  0  0  0  0  0  0  0  0  0  0
  124.8086  126.5893   70.0177 H   0  0  0  0  0  0  0  0  0  0  0  0
  126.3688  125.9143   71.8262 H   0  0  0  0  0  0  0  0  0  0  0  0
  128.4272  124.3568   72.0464 H   0  0  0  0  0  0  0  0  0  0  0  0
  132.0618  123.0488   73.3880 H   0  0  0  0  0  0  0  0  0  0  0  0
  132.1178  120.6866   74.1587 H   0  0  0  0  0  0  0  0  0  0  0  0
  131.0127  119.0998   77.1417 H   0  0  0  0  0  0  0  0  0  0  0  0
  131.5698  117.9592   75.8708 H   0  0  0  0  0  0  0  0  0  0  0  0
  132.1526  119.6583   75.8708 H   0  0  0  0  0  0  0  0  0  0  0  0
  128.0096  121.0172   75.4676 H   0  0  0  0  0  0  0  0  0  0  0  0
  127.9564  123.3800   74.6901 H   0  0  0  0  0  0  0  0  0  0  0  0
  132.5930  123.8610   75.3670 H   0  0  0  0  0  0  0  0  0  0  0  0
  131.8890  124.5340   76.7860 H   0  0  0  0  0  0  0  0  0  0  0  0
  1  2  1  0
  2  3  1  0
  3  4  2  0
  3  5  1  0
  5  6  1  0
  6  7  1  0
  7  8  2  0
  8  9  1  0
  9 10  1  0
 10 11  2  0
 11 12  1  0
 12 13  2  0
 13 14  1  0
 14 15  1  0
 13 16  1  0
 16 17  2  0
  9 18  2  0
 18 19  1  0
 19 20  1  0
 20 21  2  0
 21 22  1  0
 22 23  2  0
 23 24  1  0
 24 25  1  0
 23 26  1  0
 26 27  2  0
 19 28  2  0
 28 29  1  0
 29 30  1  0
 29  5  2  0
 28  7  1  0
 17 10  1  0
 27 20  1  0
  1 31  1  0
  1 32  1  0
  1 33  1  0
 11 34  1  0
 12 35  1  0
 15 36  1  0
 15 37  1  0
 15 38  1  0
 16 39  1  0
 17 40  1  0
 18 41  1  0
 21 42  1  0
 22 43  1  0
 25 44  1  0
 25 45  1  0
 25 46  1  0
 26 47  1  0
 27 48  1  0
 30 49  1  0
 30 50  1  0
M  END
>  <Binding energies>  (1) 
[-6.88]

>  <Ligand effiencies>  (1) 
[-0.215]

>  <Interactions>  (1) 
["V-B:GLU:543:CD:9879, V-A:HIS:456:CE1:4069, V-B:GLU:543:CB:9877, V-B:HIS:456:CE1:9040, V-B:LYS:547:CE:9921, V-A:HIS:456:CD2:4067, V-B:GLU:543:C:9873, V-B:ARG:545:CG:9893, H-A:ASP:473:OD2:4241, V-A:ASP:473:CB:4238, V-A:GLY:544:C:4911, V-B:GLY:544:CA:9885, V-A:ASP:473:CG:4239, V-A:TYR:484:CB:4340, V-A:TYR:484:C:4336, V-A:ASP:485:CA:4352, V-B:GLY:544:C:9883, V-A:HIS:456:CB:4064, V-A:VAL:457:C:4072, V-A:HIS:456:CA:4062, V-A:HIS:456:C:4060, V-A:HIS:456:CG:4065, V-A:VAL:458:CG2:4086, V-B:ARG:545:CA:9890, V-A:TYR:484:CG:4341, V-A:PRO:486:CD:4365, V-A:ASP:485:C:4350, V-A:PRO:486:N:4362, V-A:ARG:545:C:4916"]

$$$$
9a_Ghoteimi_2023
     RDKit          3D

 85 91  0  0  0  0  0  0  0  0999 V2000
  125.8090  127.9960   75.0370 C   0  0  0  0  0  0  0  0  0  0  0  0
  126.4320  127.2620   73.8450 C   0  0  0  0  0  0  0  0  0  0  0  0
  127.6600  127.8890   73.4930 O   0  0  0  0  0  0  0  0  0  0  0  0
  128.7570  127.1540   73.1800 C   0  0  0  0  0  0  0  0  0  0  0  0
  129.5120  126.6640   74.0260 O   0  0  0  0  0  0  0  0  0  0  0  0
  128.9680  127.0000   71.7010 C   0  0  0  0  0  0  0  0  0  0  0  0
  129.4430  128.0890   70.9600 C   0  0  0  0  0  0  0  0  0  0  0  0
  129.6470  127.9780   69.5870 C   0  0  0  0  0  0  0  0  0  0  0  0
  129.3820  126.7780   68.9270 C   0  0  0  0  0  0  0  0  0  0  0  0
  129.6240  126.7820   67.5400 N   0  0  0  0  0  0  0  0  0  0  0  0
  130.5630  126.1300   66.8100 C   0  0  0  0  0  0  0  0  0  0  0  0
  131.4110  125.3760   67.2890 O   0  0  0  0  0  0  0  0  0  0  0  0
  130.5110  126.3710   65.3650 C   0  0  0  0  0  0  0  0  0  0  0  0
  130.1660  127.9860   64.7440 S   0  0  0  0  0  0  0  0  0  0  0  0
  130.3000  127.4280   63.0920 C   0  0  0  0  0  0  0  0  0  0  0  0
  130.1500  128.2580   62.0610 N   0  0  0  0  0  0  0  0  0  0  0  0
  130.2860  127.7260   60.8170 C   0  0  0  0  0  0  0  0  0  0  0  0
  130.1250  128.6770   59.6750 C   0  0  0  0  0  0  0  0  0  0  0  0
  130.9270  129.8200   59.5840 C   0  0  0  0  0  0  0  0  0  0  0  0
  130.7840  130.7110   58.5230 C   0  0  0  0  0  0  0  0  0  0  0  0
  129.8430  130.4840   57.5060 C   0  0  0  0  0  0  0  0  0  0  0  0
  129.6750  131.3790   56.4450 N   0  0  0  0  0  0  0  0  0  0  0  0
  128.3350  131.7110   55.9190 C   0  0  0  0  0  0  0  0  0  0  0  0
  128.3620  132.4120   54.5450 C   0  0  0  0  0  0  0  0  0  0  0  0
  129.1850  133.5650   54.6020 O   0  0  0  0  0  0  0  0  0  0  0  0
  130.5210  133.2330   54.9480 C   0  0  0  0  0  0  0  0  0  0  0  0
  130.5540  132.5620   56.3370 C   0  0  0  0  0  0  0  0  0  0  0  0
  129.0320  129.3440   57.6110 C   0  0  0  0  0  0  0  0  0  0  0  0
  129.1730  128.4560   58.6730 C   0  0  0  0  0  0  0  0  0  0  0  0
  130.5420  126.3690   60.6100 C   0  0  0  0  0  0  0  0  0  0  0  0
  130.6800  125.4900   61.6900 C   0  0  0  0  0  0  0  0  0  0  0  0
  130.9150  124.0500   61.4140 C   0  0  0  0  0  0  0  0  0  0  0  0
  132.2010  123.5790   61.1390 C   0  0  0  0  0  0  0  0  0  0  0  0
  132.4210  122.2270   60.8930 C   0  0  0  0  0  0  0  0  0  0  0  0
  131.3630  121.3050   60.9340 C   0  0  0  0  0  0  0  0  0  0  0  0
  131.5580  119.9460   60.6800 N   0  0  0  0  0  0  0  0  0  0  0  0
  130.8090  118.9510   61.4740 C   0  0  0  0  0  0  0  0  0  0  0  0
  130.8230  117.5380   60.8520 C   0  0  0  0  0  0  0  0  0  0  0  0
  132.1600  117.1130   60.6380 O   0  0  0  0  0  0  0  0  0  0  0  0
  132.8530  117.9840   59.7580 C   0  0  0  0  0  0  0  0  0  0  0  0
  132.8940  119.4090   60.3510 C   0  0  0  0  0  0  0  0  0  0  0  0
  130.0770  121.7890   61.2140 C   0  0  0  0  0  0  0  0  0  0  0  0
  129.8560  123.1410   61.4550 C   0  0  0  0  0  0  0  0  0  0  0  0
  130.5780  126.0330   63.0030 C   0  0  0  0  0  0  0  0  0  0  0  0
  130.7170  125.4580   64.3190 C   0  0  0  0  0  0  0  0  0  0  0  0
  131.0370  124.1400   64.5180 N   0  0  0  0  0  0  0  0  0  0  0  0
  128.9080  125.6800   69.6620 C   0  0  0  0  0  0  0  0  0  0  0  0
  128.7040  125.7930   71.0350 C   0  0  0  0  0  0  0  0  0  0  0  0
  126.1820  127.5565   75.9739 H   0  0  0  0  0  0  0  0  0  0  0  0
  126.0836  129.0604   74.9964 H   0  0  0  0  0  0  0  0  0  0  0  0
  124.7141  127.8980   74.9964 H   0  0  0  0  0  0  0  0  0  0  0  0
  126.6204  126.2131   74.1176 H   0  0  0  0  0  0  0  0  0  0  0  0
  125.7419  127.2992   72.9892 H   0  0  0  0  0  0  0  0  0  0  0  0
  129.6570  129.0413   71.4673 H   0  0  0  0  0  0  0  0  0  0  0  0
  130.0198  128.8429   69.0187 H   0  0  0  0  0  0  0  0  0  0  0  0
  128.9890  127.3640   67.0150 H   0  0  0  0  0  0  0  0  0  0  0  0
  131.6804  130.0175   60.3607 H   0  0  0  0  0  0  0  0  0  0  0  0
  131.4193  131.6080   58.4811 H   0  0  0  0  0  0  0  0  0  0  0  0
  127.7598  130.7784   55.8214 H   0  0  0  0  0  0  0  0  0  0  0  0
  127.8773  132.4153   56.6292 H   0  0  0  0  0  0  0  0  0  0  0  0
  128.7601  131.7178   53.7903 H   0  0  0  0  0  0  0  0  0  0  0  0
  127.3392  132.7130   54.2744 H   0  0  0  0  0  0  0  0  0  0  0  0
  130.9300  132.5396   54.1984 H   0  0  0  0  0  0  0  0  0  0  0  0
  131.1262  134.1512   54.9756 H   0  0  0  0  0  0  0  0  0  0  0  0
  131.5871  132.2476   56.5466 H   0  0  0  0  0  0  0  0  0  0  0  0
  130.1864  133.3035   57.0616 H   0  0  0  0  0  0  0  0  0  0  0  0
  128.2716  129.1488   56.8405 H   0  0  0  0  0  0  0  0  0  0  0  0
  128.5269  127.5673   58.7258 H   0  0  0  0  0  0  0  0  0  0  0  0
  130.6365  125.9855   59.5833 H   0  0  0  0  0  0  0  0  0  0  0  0
  133.0465  124.2823   61.1167 H   0  0  0  0  0  0  0  0  0  0  0  0
  133.4378  121.8759   60.6633 H   0  0  0  0  0  0  0  0  0  0  0  0
  131.2574  118.8955   62.4769 H   0  0  0  0  0  0  0  0  0  0  0  0
  129.7606  119.2824   61.5066 H   0  0  0  0  0  0  0  0  0  0  0  0
  130.3225  116.8351   61.5342 H   0  0  0  0  0  0  0  0  0  0  0  0
  130.2945  117.5637   59.8876 H   0  0  0  0  0  0  0  0  0  0  0  0
  133.8808  117.6180   59.6175 H   0  0  0  0  0  0  0  0  0  0  0  0
  132.3312  118.0101   58.7900 H   0  0  0  0  0  0  0  0  0  0  0  0
  133.4970  119.3867   61.2707 H   0  0  0  0  0  0  0  0  0  0  0  0
  133.3289  120.0673   59.5845 H   0  0  0  0  0  0  0  0  0  0  0  0
  129.2295  121.0883   61.2435 H   0  0  0  0  0  0  0  0  0  0  0  0
  128.8396  123.4966   61.6795 H   0  0  0  0  0  0  0  0  0  0  0  0
  131.6610  123.8490   65.2580 H   0  0  0  0  0  0  0  0  0  0  0  0
  130.6580  123.4120   63.9290 H   0  0  0  0  0  0  0  0  0  0  0  0
  128.6972  124.7282   69.1524 H   0  0  0  0  0  0  0  0  0  0  0  0
  128.3322  124.9276   71.6032 H   0  0  0  0  0  0  0  0  0  0  0  0
  1  2  1  0
  2  3  1  0
  3  4  1  0
  4  5  2  0
  4  6  1  0
  6  7  2  0
  7  8  1  0
  8  9  2  0
  9 10  1  0
 10 11  1  0
 11 12  2  0
 11 13  1  0
 13 14  1  0
 14 15  1  0
 15 16  2  0
 16 17  1  0
 17 18  1  0
 18 19  2  0
 19 20  1  0
 20 21  2  0
 21 22  1  0
 22 23  1  0
 23 24  1  0
 24 25  1  0
 25 26  1  0
 26 27  1  0
 21 28  1  0
 28 29  2  0
 17 30  2  0
 30 31  1  0
 31 32  1  0
 32 33  2  0
 33 34  1  0
 34 35  2  0
 35 36  1  0
 36 37  1  0
 37 38  1  0
 38 39  1  0
 39 40  1  0
 40 41  1  0
 35 42  1  0
 42 43  2  0
 31 44  2  0
 44 45  1  0
 45 46  1  0
  9 47  1  0
 47 48  2  0
 48  6  1  0
 45 13  2  0
 44 15  1  0
 29 18  1  0
 43 32  1  0
 27 22  1  0
 41 36  1  0
  1 49  1  0
  1 50  1  0
  1 51  1  0
  2 52  1  0
  2 53  1  0
  7 54  1  0
  8 55  1  0
 10 56  1  0
 19 57  1  0
 20 58  1  0
 23 59  1  0
 23 60  1  0
 24 61  1  0
 24 62  1  0
 26 63  1  0
 26 64  1  0
 27 65  1  0
 27 66  1  0
 28 67  1  0
 29 68  1  0
 30 69  1  0
 33 70  1  0
 34 71  1  0
 37 72  1  0
 37 73  1  0
 38 74  1  0
 38 75  1  0
 40 76  1  0
 40 77  1  0
 41 78  1  0
 41 79  1  0
 42 80  1  0
 43 81  1  0
 46 82  1  0
 46 83  1  0
 47 84  1  0
 48 85  1  0
M  END
>  <Binding energies>  (1) 
[-8.69]

>  <Ligand effiencies>  (1) 
[-0.1703921568627451]

>  <Interactions>  (1) 
["V-A:TYR:539:CZ:4876, V-A:TYR:539:CE1:4874, V-A:TYR:539:CE2:4875, V-A:TYR:531:CE2:4792, V-A:ILE:538:CA:4859, V-B:GLU:543:CD:9879, H-A:TYR:484:OH:4347, V-B:ALA:541:CB:9863, H-B:GLU:543:OE2:9881, V-A:LEU:475:CD2:4258, V-A:HIS:383:CE1:3393, V-B:TYR:539:CD2:9845, V-A:ILE:369:CG2:3236, V-B:TYR:539:CE2:9847, V-A:SER:385:CA:3406, V-A:PRO:482:CB:4325, H-A:HIS:383:ND1:3390, V-A:HIS:456:CE1:4069, V-B:GLU:543:CB:9877, V-A:GLU:543:CD:4907, V-B:HIS:456:CE1:9040, V-B:LYS:547:CE:9921, H-B:LYS:547:NZ:9922, V-B:GLU:543:C:9873, V-A:ILE:538:CB:4861, V-A:ILE:538:CG2:4862, V-B:GLY:544:C:9883, V-A:TYR:484:CE2:4345, V-A:MET:535:CG:4832, V-A:VAL:384:C:3396, H-A:TYR:539:OH:4877, V-B:GLU:543:CA:9875, V-B:HIS:456:CD2:9038, V-B:HIS:456:CG:9036, V-B:LYS:547:CD:9920, V-B:HIS:456:CB:9035"]

$$$$
9b_Ghoteimi_2023
     RDKit          3D

 72 78  0  0  0  0  0  0  0  0999 V2000
  131.3620  125.7660   61.3890 N   0  0  0  0  0  0  0  0  0  0  0  0
  131.4340  125.1630   62.6190 C   0  0  0  0  0  0  0  0  0  0  0  0
  131.9160  123.8600   62.8150 C   0  0  0  0  0  0  0  0  0  0  0  0
  132.4390  122.9200   61.8200 C   0  0  0  0  0  0  0  0  0  0  0  0
  133.0540  123.3280   60.8320 O   0  0  0  0  0  0  0  0  0  0  0  0
  132.1920  121.6100   62.0690 N   0  0  0  0  0  0  0  0  0  0  0  0
  132.5590  120.5170   61.2940 C   0  0  0  0  0  0  0  0  0  0  0  0
  131.7260  119.4190   61.0840 C   0  0  0  0  0  0  0  0  0  0  0  0
  132.4470  118.5720   60.2740 C   0  0  0  0  0  0  0  0  0  0  0  0
  133.6520  119.1320   60.0110 O   0  0  0  0  0  0  0  0  0  0  0  0
  133.7110  120.3640   60.6630 N   0  0  0  0  0  0  0  0  0  0  0  0
  131.8350  123.3990   64.5150 S   0  0  0  0  0  0  0  0  0  0  0  0
  131.1420  124.9430   64.9480 C   0  0  0  0  0  0  0  0  0  0  0  0
  130.7990  125.2270   66.2030 N   0  0  0  0  0  0  0  0  0  0  0  0
  130.2520  126.4500   66.4320 C   0  0  0  0  0  0  0  0  0  0  0  0
  129.8570  126.7350   67.8440 C   0  0  0  0  0  0  0  0  0  0  0  0
  129.2510  125.7530   68.6390 C   0  0  0  0  0  0  0  0  0  0  0  0
  128.8720  126.0290   69.9490 C   0  0  0  0  0  0  0  0  0  0  0  0
  129.0720  127.3000   70.5090 C   0  0  0  0  0  0  0  0  0  0  0  0
  128.6990  127.5910   71.8260 N   0  0  0  0  0  0  0  0  0  0  0  0
  129.6990  127.9790   72.8410 C   0  0  0  0  0  0  0  0  0  0  0  0
  129.0870  128.5910   74.1180 C   0  0  0  0  0  0  0  0  0  0  0  0
  128.1240  127.7060   74.6660 O   0  0  0  0  0  0  0  0  0  0  0  0
  127.0650  127.4600   73.7560 C   0  0  0  0  0  0  0  0  0  0  0  0
  127.6130  126.8170   72.4640 C   0  0  0  0  0  0  0  0  0  0  0  0
  129.6970  128.2730   69.7160 C   0  0  0  0  0  0  0  0  0  0  0  0
  130.0800  127.9960   68.4060 C   0  0  0  0  0  0  0  0  0  0  0  0
  130.0750  127.3900   65.4140 C   0  0  0  0  0  0  0  0  0  0  0  0
  130.4530  127.1030   64.0970 C   0  0  0  0  0  0  0  0  0  0  0  0
  130.2720  128.1480   63.0570 C   0  0  0  0  0  0  0  0  0  0  0  0
  129.0290  128.7590   62.8810 C   0  0  0  0  0  0  0  0  0  0  0  0
  128.8610  129.7510   61.9200 C   0  0  0  0  0  0  0  0  0  0  0  0
  129.9310  130.1610   61.1090 C   0  0  0  0  0  0  0  0  0  0  0  0
  129.7880  131.1660   60.1500 N   0  0  0  0  0  0  0  0  0  0  0  0
  129.0720  132.4060   60.5040 C   0  0  0  0  0  0  0  0  0  0  0  0
  128.6440  133.2350   59.2740 C   0  0  0  0  0  0  0  0  0  0  0  0
  129.7750  133.5220   58.4650 O   0  0  0  0  0  0  0  0  0  0  0  0
  130.4040  132.3370   58.0010 C   0  0  0  0  0  0  0  0  0  0  0  0
  130.8720  131.4830   59.1980 C   0  0  0  0  0  0  0  0  0  0  0  0
  131.1790  129.5530   61.3080 C   0  0  0  0  0  0  0  0  0  0  0  0
  131.3480  128.5590   62.2690 C   0  0  0  0  0  0  0  0  0  0  0  0
  130.9960  125.8160   63.8290 C   0  0  0  0  0  0  0  0  0  0  0  0
  130.6630  125.5050   60.7080 H   0  0  0  0  0  0  0  0  0  0  0  0
  132.0090  126.4950   61.1210 H   0  0  0  0  0  0  0  0  0  0  0  0
  131.6860  121.3910   62.9140 H   0  0  0  0  0  0  0  0  0  0  0  0
  130.7117  119.2634   61.4802 H   0  0  0  0  0  0  0  0  0  0  0  0
  132.1006  117.5972   59.9002 H   0  0  0  0  0  0  0  0  0  0  0  0
  129.0726  124.7509   68.2220 H   0  0  0  0  0  0  0  0  0  0  0  0
  128.4078  125.2376   70.5558 H   0  0  0  0  0  0  0  0  0  0  0  0
  130.2698  127.0827   73.1255 H   0  0  0  0  0  0  0  0  0  0  0  0
  130.3318  128.7552   72.3860 H   0  0  0  0  0  0  0  0  0  0  0  0
  129.8835  128.7653   74.8564 H   0  0  0  0  0  0  0  0  0  0  0  0
  128.5991  129.5436   73.8641 H   0  0  0  0  0  0  0  0  0  0  0  0
  126.3370  126.7788   74.2208 H   0  0  0  0  0  0  0  0  0  0  0  0
  126.5782  128.4138   73.5045 H   0  0  0  0  0  0  0  0  0  0  0  0
  127.9989  125.8170   72.7111 H   0  0  0  0  0  0  0  0  0  0  0  0
  126.7805  126.7817   71.7459 H   0  0  0  0  0  0  0  0  0  0  0  0
  129.8880  129.2717   70.1356 H   0  0  0  0  0  0  0  0  0  0  0  0
  130.5645  128.7797   67.8052 H   0  0  0  0  0  0  0  0  0  0  0  0
  129.6326  128.3690   65.6504 H   0  0  0  0  0  0  0  0  0  0  0  0
  128.1769  128.4541   63.5062 H   0  0  0  0  0  0  0  0  0  0  0  0
  127.8746  130.2212   61.7938 H   0  0  0  0  0  0  0  0  0  0  0  0
  128.1711  132.1382   61.0755 H   0  0  0  0  0  0  0  0  0  0  0  0
  129.7650  133.0268   61.0908 H   0  0  0  0  0  0  0  0  0  0  0  0
  127.9112  132.6629   58.6861 H   0  0  0  0  0  0  0  0  0  0  0  0
  128.1938  134.1794   59.6137 H   0  0  0  0  0  0  0  0  0  0  0  0
  129.6894  131.7578   57.3978 H   0  0  0  0  0  0  0  0  0  0  0  0
  131.2765  132.6081   57.3884 H   0  0  0  0  0  0  0  0  0  0  0  0
  131.2853  130.5391   58.8129 H   0  0  0  0  0  0  0  0  0  0  0  0
  131.6229  132.0725   59.7445 H   0  0  0  0  0  0  0  0  0  0  0  0
  132.0376  129.8659   60.6957 H   0  0  0  0  0  0  0  0  0  0  0  0
  132.3357  128.0951   62.4077 H   0  0  0  0  0  0  0  0  0  0  0  0
  1  2  1  0
  2  3  2  0
  3  4  1  0
  4  5  2  0
  4  6  1  0
  6  7  1  0
  7  8  1  0
  8  9  2  0
  9 10  1  0
 10 11  1  0
  3 12  1  0
 12 13  1  0
 13 14  2  0
 14 15  1  0
 15 16  1  0
 16 17  2  0
 17 18  1  0
 18 19  2  0
 19 20  1  0
 20 21  1  0
 21 22  1  0
 22 23  1  0
 23 24  1  0
 24 25  1  0
 19 26  1  0
 26 27  2  0
 15 28  2  0
 28 29  1  0
 29 30  1  0
 30 31  2  0
 31 32  1  0
 32 33  2  0
 33 34  1  0
 34 35  1  0
 35 36  1  0
 36 37  1  0
 37 38  1  0
 38 39  1  0
 33 40  1  0
 40 41  2  0
 29 42  2  0
 42  2  1  0
 11  7  2  0
 42 13  1  0
 27 16  1  0
 41 30  1  0
 25 20  1  0
 39 34  1  0
  1 43  1  0
  1 44  1  0
  6 45  1  0
  8 46  1  0
  9 47  1  0
 17 48  1  0
 18 49  1  0
 21 50  1  0
 21 51  1  0
 22 52  1  0
 22 53  1  0
 24 54  1  0
 24 55  1  0
 25 56  1  0
 25 57  1  0
 26 58  1  0
 27 59  1  0
 28 60  1  0
 31 61  1  0
 32 62  1  0
 35 63  1  0
 35 64  1  0
 36 65  1  0
 36 66  1  0
 38 67  1  0
 38 68  1  0
 39 69  1  0
 39 70  1  0
 40 71  1  0
 41 72  1  0
M  END
>  <Binding energies>  (1) 
[-8.08]

>  <Ligand effiencies>  (1) 
[-0.17955555555555555]

>  <Interactions>  (1) 
["V-A:ASP:366:CG:3212, V-A:TYR:539:CE1:4874, V-A:TYR:539:CD1:4872, V-B:GLU:543:CD:9879, H-A:TYR:484:OH:4347, V-A:LEU:475:CD2:4258, V-B:TYR:539:CD2:9845, V-B:GLU:543:CG:9878, V-A:HIS:456:CE1:4069, V-B:GLU:543:CB:9877, V-A:GLU:543:CD:4907, V-B:HIS:456:CE1:9040, V-B:LYS:547:CE:9921, H-B:LYS:547:NZ:9922, H-A:ASP:366:OD2:3214, V-A:GLU:543:CB:4905, V-B:GLY:544:C:9883, V-A:TYR:484:CE2:4345, H-A:ASP:366:OD1:3213, V-A:TYR:539:C:4866, V-B:HIS:456:CD2:9038, V-B:HIS:456:CG:9036"]

$$$$
9c_Ghoteimi_2023
     RDKit          3D

 72 78  0  0  0  0  0  0  0  0999 V2000
  131.3800  125.7840   61.3740 N   0  0  0  0  0  0  0  0  0  0  0  0
  131.4580  125.1970   62.6110 C   0  0  0  0  0  0  0  0  0  0  0  0
  131.9610  123.9040   62.8230 C   0  0  0  0  0  0  0  0  0  0  0  0
  132.5000  122.9610   61.8380 C   0  0  0  0  0  0  0  0  0  0  0  0
  133.2130  123.3540   60.9130 O   0  0  0  0  0  0  0  0  0  0  0  0
  132.1510  121.6640   62.0230 N   0  0  0  0  0  0  0  0  0  0  0  0
  132.5110  120.5820   61.2320 C   0  0  0  0  0  0  0  0  0  0  0  0
  133.6300  120.4050   60.5640 N   0  0  0  0  0  0  0  0  0  0  0  0
  133.6300  119.2580   59.9130 C   0  0  0  0  0  0  0  0  0  0  0  0
  132.4880  118.4740   60.0460 C   0  0  0  0  0  0  0  0  0  0  0  0
  131.3590  119.2930   61.0840 S   0  0  0  0  0  0  0  0  0  0  0  0
  131.8860  123.4600   64.5270 S   0  0  0  0  0  0  0  0  0  0  0  0
  131.1660  124.9980   64.9420 C   0  0  0  0  0  0  0  0  0  0  0  0
  130.8170  125.2900   66.1940 N   0  0  0  0  0  0  0  0  0  0  0  0
  130.2490  126.5060   66.4070 C   0  0  0  0  0  0  0  0  0  0  0  0
  129.8480  126.8000   67.8170 C   0  0  0  0  0  0  0  0  0  0  0  0
  130.0850  128.0540   68.3920 C   0  0  0  0  0  0  0  0  0  0  0  0
  129.7180  128.3190   69.7070 C   0  0  0  0  0  0  0  0  0  0  0  0
  129.1110  127.3340   70.5030 C   0  0  0  0  0  0  0  0  0  0  0  0
  128.7300  127.5880   71.8250 N   0  0  0  0  0  0  0  0  0  0  0  0
  129.7200  127.9770   72.8500 C   0  0  0  0  0  0  0  0  0  0  0  0
  129.0920  128.5510   74.1380 C   0  0  0  0  0  0  0  0  0  0  0  0
  128.1500  127.6320   74.6670 O   0  0  0  0  0  0  0  0  0  0  0  0
  127.0980  127.3810   73.7490 C   0  0  0  0  0  0  0  0  0  0  0  0
  127.6630  126.7750   72.4460 C   0  0  0  0  0  0  0  0  0  0  0  0
  128.8580  126.0860   69.9160 C   0  0  0  0  0  0  0  0  0  0  0  0
  129.2220  125.8230   68.5980 C   0  0  0  0  0  0  0  0  0  0  0  0
  130.0580  127.4320   65.3790 C   0  0  0  0  0  0  0  0  0  0  0  0
  130.4430  127.1370   64.0660 C   0  0  0  0  0  0  0  0  0  0  0  0
  130.2480  128.1660   63.0150 C   0  0  0  0  0  0  0  0  0  0  0  0
  128.9930  128.7440   62.8190 C   0  0  0  0  0  0  0  0  0  0  0  0
  128.8100  129.7220   61.8450 C   0  0  0  0  0  0  0  0  0  0  0  0
  129.8780  130.1460   61.0390 C   0  0  0  0  0  0  0  0  0  0  0  0
  129.7200  131.1340   60.0620 N   0  0  0  0  0  0  0  0  0  0  0  0
  129.0880  132.4160   60.4320 C   0  0  0  0  0  0  0  0  0  0  0  0
  128.6250  133.2410   59.2110 C   0  0  0  0  0  0  0  0  0  0  0  0
  129.7160  133.4540   58.3270 O   0  0  0  0  0  0  0  0  0  0  0  0
  130.2530  132.2300   57.8520 C   0  0  0  0  0  0  0  0  0  0  0  0
  130.7540  131.3750   59.0380 C   0  0  0  0  0  0  0  0  0  0  0  0
  131.1390  129.5720   61.2590 C   0  0  0  0  0  0  0  0  0  0  0  0
  131.3220  128.5950   62.2330 C   0  0  0  0  0  0  0  0  0  0  0  0
  131.0080  125.8540   63.8130 C   0  0  0  0  0  0  0  0  0  0  0  0
  130.6560  125.5400   60.7130 H   0  0  0  0  0  0  0  0  0  0  0  0
  132.0470  126.4840   61.0810 H   0  0  0  0  0  0  0  0  0  0  0  0
  131.5690  121.4490   62.8200 H   0  0  0  0  0  0  0  0  0  0  0  0
  134.4851  118.9388   59.2991 H   0  0  0  0  0  0  0  0  0  0  0  0
  132.3259  117.4950   59.5714 H   0  0  0  0  0  0  0  0  0  0  0  0
  130.5686  128.8413   67.7951 H   0  0  0  0  0  0  0  0  0  0  0  0
  129.9063  129.3166   70.1306 H   0  0  0  0  0  0  0  0  0  0  0  0
  130.3090  127.0875   73.1182 H   0  0  0  0  0  0  0  0  0  0  0  0
  130.3374  128.7751   72.4119 H   0  0  0  0  0  0  0  0  0  0  0  0
  129.8832  128.7305   74.8808 H   0  0  0  0  0  0  0  0  0  0  0  0
  128.5821  129.4966   73.9019 H   0  0  0  0  0  0  0  0  0  0  0  0
  126.3838  126.6754   74.1984 H   0  0  0  0  0  0  0  0  0  0  0  0
  126.5913  128.3288   73.5147 H   0  0  0  0  0  0  0  0  0  0  0  0
  128.0734  125.7805   72.6752 H   0  0  0  0  0  0  0  0  0  0  0  0
  126.8326  126.7313   71.7259 H   0  0  0  0  0  0  0  0  0  0  0  0
  128.3634  125.3011   70.5070 H   0  0  0  0  0  0  0  0  0  0  0  0
  129.0144  124.8333   68.1651 H   0  0  0  0  0  0  0  0  0  0  0  0
  129.5990  128.4060   65.6042 H   0  0  0  0  0  0  0  0  0  0  0  0
  128.1421  128.4246   63.4386 H   0  0  0  0  0  0  0  0  0  0  0  0
  127.8145  130.1686   61.7052 H   0  0  0  0  0  0  0  0  0  0  0  0
  128.2125  132.2047   61.0635 H   0  0  0  0  0  0  0  0  0  0  0  0
  129.8452  133.0128   60.9616 H   0  0  0  0  0  0  0  0  0  0  0  0
  127.8294  132.6950   58.6829 H   0  0  0  0  0  0  0  0  0  0  0  0
  128.2442  134.2137   59.5557 H   0  0  0  0  0  0  0  0  0  0  0  0
  129.4729  131.6769   57.3085 H   0  0  0  0  0  0  0  0  0  0  0  0
  131.0971  132.4436   57.1798 H   0  0  0  0  0  0  0  0  0  0  0  0
  131.0933  130.4036   58.6492 H   0  0  0  0  0  0  0  0  0  0  0  0
  131.5676  131.9350   59.5223 H   0  0  0  0  0  0  0  0  0  0  0  0
  131.9963  129.8992   60.6523 H   0  0  0  0  0  0  0  0  0  0  0  0
  132.3195  128.1579   62.3877 H   0  0  0  0  0  0  0  0  0  0  0  0
  1  2  1  0
  2  3  2  0
  3  4  1  0
  4  5  2  0
  4  6  1  0
  6  7  1  0
  7  8  2  0
  8  9  1  0
  9 10  2  0
 10 11  1  0
  3 12  1  0
 12 13  1  0
 13 14  2  0
 14 15  1  0
 15 16  1  0
 16 17  2  0
 17 18  1  0
 18 19  2  0
 19 20  1  0
 20 21  1  0
 21 22  1  0
 22 23  1  0
 23 24  1  0
 24 25  1  0
 19 26  1  0
 26 27  2  0
 15 28  2  0
 28 29  1  0
 29 30  1  0
 30 31  2  0
 31 32  1  0
 32 33  2  0
 33 34  1  0
 34 35  1  0
 35 36  1  0
 36 37  1  0
 37 38  1  0
 38 39  1  0
 33 40  1  0
 40 41  2  0
 29 42  2  0
 42  2  1  0
 11  7  1  0
 42 13  1  0
 27 16  1  0
 41 30  1  0
 25 20  1  0
 39 34  1  0
  1 43  1  0
  1 44  1  0
  6 45  1  0
  9 46  1  0
 10 47  1  0
 17 48  1  0
 18 49  1  0
 21 50  1  0
 21 51  1  0
 22 52  1  0
 22 53  1  0
 24 54  1  0
 24 55  1  0
 25 56  1  0
 25 57  1  0
 26 58  1  0
 27 59  1  0
 28 60  1  0
 31 61  1  0
 32 62  1  0
 35 63  1  0
 35 64  1  0
 36 65  1  0
 36 66  1  0
 38 67  1  0
 38 68  1  0
 39 69  1  0
 39 70  1  0
 40 71  1  0
 41 72  1  0
M  END
>  <Binding energies>  (1) 
[-8.36]

>  <Ligand effiencies>  (1) 
[-0.18577777777777776]

>  <Interactions>  (1) 
["V-A:ASP:366:CG:3212, V-A:TYR:539:CE1:4874, V-A:TYR:539:CD1:4872, V-B:GLU:543:CD:9879, H-A:TYR:484:OH:4347, V-A:LEU:475:CD2:4258, V-B:TYR:539:CD2:9845, V-A:ILE:369:CG2:3236, V-A:SER:385:CA:3406, V-B:GLU:543:CG:9878, V-A:HIS:456:CE1:4069, V-B:GLU:543:CB:9877, V-A:GLU:543:CD:4907, V-B:HIS:456:CE1:9040, V-B:LYS:547:CE:9921, H-B:LYS:547:NZ:9922, H-A:ASP:366:OD2:3214, V-A:GLU:543:CB:4905, V-A:TYR:484:CE2:4345, H-A:ASP:366:OD1:3213, V-A:TYR:539:C:4866, V-A:VAL:384:C:3396, V-B:HIS:456:CD2:9038, V-B:HIS:456:CG:9036"]

$$$$
9d_Ghoteimi_2023
     RDKit          3D

 68 73  0  0  0  0  0  0  0  0999 V2000
  135.1300  124.9200   76.4830 C   0  0  0  0  0  0  0  0  0  0  0  0
  133.8660  125.4690   76.8270 O   0  0  0  0  0  0  0  0  0  0  0  0
  133.4430  126.6390   76.2820 C   0  0  0  0  0  0  0  0  0  0  0  0
  133.9280  127.7410   76.5530 O   0  0  0  0  0  0  0  0  0  0  0  0
  132.3290  126.4600   75.3250 C   0  0  0  0  0  0  0  0  0  0  0  0
  131.8270  127.8050   74.3010 S   0  0  0  0  0  0  0  0  0  0  0  0
  130.6040  126.8170   73.5370 C   0  0  0  0  0  0  0  0  0  0  0  0
  129.8330  127.2930   72.5600 N   0  0  0  0  0  0  0  0  0  0  0  0
  128.9250  126.4400   72.0190 C   0  0  0  0  0  0  0  0  0  0  0  0
  128.0880  126.9880   70.9080 C   0  0  0  0  0  0  0  0  0  0  0  0
  126.7270  126.6780   70.8250 C   0  0  0  0  0  0  0  0  0  0  0  0
  125.9400  127.1810   69.7930 C   0  0  0  0  0  0  0  0  0  0  0  0
  126.4840  128.0250   68.8110 C   0  0  0  0  0  0  0  0  0  0  0  0
  125.7090  128.5250   67.7580 N   0  0  0  0  0  0  0  0  0  0  0  0
  124.4030  129.1680   68.0030 C   0  0  0  0  0  0  0  0  0  0  0  0
  123.5430  129.3400   66.7340 C   0  0  0  0  0  0  0  0  0  0  0  0
  124.2770  130.0390   65.7420 O   0  0  0  0  0  0  0  0  0  0  0  0
  125.4530  129.3370   65.3750 C   0  0  0  0  0  0  0  0  0  0  0  0
  126.3730  129.1630   66.6020 C   0  0  0  0  0  0  0  0  0  0  0  0
  127.8520  128.3200   68.8900 C   0  0  0  0  0  0  0  0  0  0  0  0
  128.6400  127.8140   69.9210 C   0  0  0  0  0  0  0  0  0  0  0  0
  128.7680  125.1290   72.4770 C   0  0  0  0  0  0  0  0  0  0  0  0
  129.5630  124.6300   73.5150 C   0  0  0  0  0  0  0  0  0  0  0  0
  129.3360  123.2370   73.9830 C   0  0  0  0  0  0  0  0  0  0  0  0
  130.3990  122.3370   74.0850 C   0  0  0  0  0  0  0  0  0  0  0  0
  130.1840  121.0390   74.5410 C   0  0  0  0  0  0  0  0  0  0  0  0
  128.9020  120.6120   74.9230 C   0  0  0  0  0  0  0  0  0  0  0  0
  128.6600  119.3130   75.3740 N   0  0  0  0  0  0  0  0  0  0  0  0
  127.5360  118.5510   74.7960 C   0  0  0  0  0  0  0  0  0  0  0  0
  127.6160  117.0360   75.0830 C   0  0  0  0  0  0  0  0  0  0  0  0
  127.7160  116.8100   76.4810 O   0  0  0  0  0  0  0  0  0  0  0  0
  128.8730  117.4240   77.0300 C   0  0  0  0  0  0  0  0  0  0  0  0
  128.8200  118.9490   76.7950 C   0  0  0  0  0  0  0  0  0  0  0  0
  127.8430  121.5240   74.8150 C   0  0  0  0  0  0  0  0  0  0  0  0
  128.0570  122.8210   74.3570 C   0  0  0  0  0  0  0  0  0  0  0  0
  130.5490  125.4940   74.0680 C   0  0  0  0  0  0  0  0  0  0  0  0
  131.5610  125.3160   75.0760 C   0  0  0  0  0  0  0  0  0  0  0  0
  131.7700  124.1230   75.7190 N   0  0  0  0  0  0  0  0  0  0  0  0
  135.6867  124.6782   77.4004 H   0  0  0  0  0  0  0  0  0  0  0  0
  134.9833  124.0045   75.8911 H   0  0  0  0  0  0  0  0  0  0  0  0
  135.6989  125.6521   75.8911 H   0  0  0  0  0  0  0  0  0  0  0  0
  126.2718  126.0273   71.5862 H   0  0  0  0  0  0  0  0  0  0  0  0
  124.8742  126.9130   69.7457 H   0  0  0  0  0  0  0  0  0  0  0  0
  123.8422  128.5508   68.7204 H   0  0  0  0  0  0  0  0  0  0  0  0
  124.6112  130.1776   68.3868 H   0  0  0  0  0  0  0  0  0  0  0  0
  123.2609  128.3493   66.3480 H   0  0  0  0  0  0  0  0  0  0  0  0
  122.6387  129.9136   66.9855 H   0  0  0  0  0  0  0  0  0  0  0  0
  125.1780  128.3465   64.9834 H   0  0  0  0  0  0  0  0  0  0  0  0
  125.9877  129.9100   64.6031 H   0  0  0  0  0  0  0  0  0  0  0  0
  127.2306  128.5404   66.3073 H   0  0  0  0  0  0  0  0  0  0  0  0
  126.6757  130.1710   66.9218 H   0  0  0  0  0  0  0  0  0  0  0  0
  128.3113  128.9624   68.1243 H   0  0  0  0  0  0  0  0  0  0  0  0
  129.7099  128.0665   69.9605 H   0  0  0  0  0  0  0  0  0  0  0  0
  128.0090  124.4804   72.0152 H   0  0  0  0  0  0  0  0  0  0  0  0
  131.4134  122.6558   73.8031 H   0  0  0  0  0  0  0  0  0  0  0  0
  131.0299  120.3386   74.6028 H   0  0  0  0  0  0  0  0  0  0  0  0
  126.5972  118.9378   75.2193 H   0  0  0  0  0  0  0  0  0  0  0  0
  127.5814  118.6795   73.7045 H   0  0  0  0  0  0  0  0  0  0  0  0
  126.7102  116.5444   74.6986 H   0  0  0  0  0  0  0  0  0  0  0  0
  128.5056  116.6215   74.5862 H   0  0  0  0  0  0  0  0  0  0  0  0
  128.9148  117.2227   78.1106 H   0  0  0  0  0  0  0  0  0  0  0  0
  129.7681  117.0129   76.5403 H   0  0  0  0  0  0  0  0  0  0  0  0
  127.9699  119.3603   77.3591 H   0  0  0  0  0  0  0  0  0  0  0  0
  129.7804  119.3654   77.1329 H   0  0  0  0  0  0  0  0  0  0  0  0
  126.8271  121.2099   75.0965 H   0  0  0  0  0  0  0  0  0  0  0  0
  127.2127  123.5228   74.2893 H   0  0  0  0  0  0  0  0  0  0  0  0
  131.0110  123.4890   75.9230 H   0  0  0  0  0  0  0  0  0  0  0  0
  132.6950  123.8340   76.0060 H   0  0  0  0  0  0  0  0  0  0  0  0
  1  2  1  0
  2  3  1  0
  3  4  2  0
  3  5  1  0
  5  6  1  0
  6  7  1  0
  7  8  2  0
  8  9  1  0
  9 10  1  0
 10 11  2  0
 11 12  1  0
 12 13  2  0
 13 14  1  0
 14 15  1  0
 15 16  1  0
 16 17  1  0
 17 18  1  0
 18 19  1  0
 13 20  1  0
 20 21  2  0
  9 22  2  0
 22 23  1  0
 23 24  1  0
 24 25  2  0
 25 26  1  0
 26 27  2  0
 27 28  1  0
 28 29  1  0
 29 30  1  0
 30 31  1  0
 31 32  1  0
 32 33  1  0
 27 34  1  0
 34 35  2  0
 23 36  2  0
 36 37  1  0
 37 38  1  0
 37  5  2  0
 36  7  1  0
 21 10  1  0
 35 24  1  0
 19 14  1  0
 33 28  1  0
  1 39  1  0
  1 40  1  0
  1 41  1  0
 11 42  1  0
 12 43  1  0
 15 44  1  0
 15 45  1  0
 16 46  1  0
 16 47  1  0
 18 48  1  0
 18 49  1  0
 19 50  1  0
 19 51  1  0
 20 52  1  0
 21 53  1  0
 22 54  1  0
 25 55  1  0
 26 56  1  0
 29 57  1  0
 29 58  1  0
 30 59  1  0
 30 60  1  0
 32 61  1  0
 32 62  1  0
 33 63  1  0
 33 64  1  0
 34 65  1  0
 35 66  1  0
 38 67  1  0
 38 68  1  0
M  END
>  <Binding energies>  (1) 
[-8.79]

>  <Ligand effiencies>  (1) 
[-0.21974999999999997]

>  <Interactions>  (1) 
["V-B:GLU:543:CD:9879, V-A:HIS:456:CE1:4069, V-B:GLU:543:CB:9877, V-B:HIS:456:CE1:9040, V-B:LYS:547:CE:9921, V-A:HIS:456:CD2:4067, V-B:ARG:545:CD:9894, V-B:GLU:543:C:9873, V-B:ARG:545:CG:9893, H-A:ASP:473:OD2:4241, V-A:ASP:473:CG:4239, V-A:TYR:484:CB:4340, H-B:TYR:484:OH:9318, V-B:GLY:544:C:9883, V-B:ARG:545:CZ:9897, V-A:HIS:456:CB:4064, V-A:VAL:457:C:4072, V-A:HIS:456:C:4060, V-A:VAL:457:CA:4074, V-A:HIS:456:CG:4065, V-A:VAL:458:CG2:4086, V-A:LYS:471:CD:4218, V-B:ARG:545:CA:9890, H-B:GLY:454:N:9020"]

$$$$
RR10_Rahimova_2017
     RDKit          3D

 66 70  0  0  0  0  0  0  0  0999 V2000
  132.0440  116.7690   58.1250 C   0  0  0  0  0  0  0  0  0  0  0  0
  132.3210  117.4720   59.4650 C   0  0  1  0  0  0  0  0  0  0  0  0
  132.5360  118.9920   59.2850 C   0  0  0  0  0  0  0  0  0  0  0  0
  132.8480  119.6720   60.6380 C   0  0  0  0  0  0  0  0  0  0  0  0
  131.7260  119.4380   61.6820 C   0  0  1  0  0  0  0  0  0  0  0  0
  130.4980  120.1440   61.2930 N   0  0  0  0  0  0  0  0  0  0  0  0
  130.0810  121.3190   61.7990 C   0  0  0  0  0  0  0  0  0  0  0  0
  130.7170  121.9490   62.6480 O   0  0  0  0  0  0  0  0  0  0  0  0
  128.7330  121.8600   61.2770 C   0  0  1  0  0  0  0  0  0  0  0  0
  128.1510  122.8670   62.3030 C   0  0  0  0  0  0  0  0  0  0  0  0
  126.8470  123.4820   61.7410 C   0  0  0  0  0  0  0  0  0  0  0  0
  127.0310  124.0660   60.3210 C   0  0  0  0  0  0  0  0  0  0  0  0
  127.6520  123.0620   59.4160 N   0  0  0  0  0  0  0  0  0  0  0  0
  127.6380  123.5100   57.7020 S   0  0  0  0  0  0  0  0  0  0  0  0
  126.2400  123.6480   57.2780 O   0  0  0  0  0  0  0  0  0  0  0  0
  128.5400  122.5970   56.9900 O   0  0  0  0  0  0  0  0  0  0  0  0
  128.3580  125.1510   57.6450 C   0  0  0  0  0  0  0  0  0  0  0  0
  128.0040  126.0180   56.6060 C   0  0  0  0  0  0  0  0  0  0  0  0
  128.5310  127.3090   56.5020 C   0  0  0  0  0  0  0  0  0  0  0  0
  129.4340  127.6960   57.4950 C   0  0  0  0  0  0  0  0  0  0  0  0
  130.1510  128.8430   57.7350 N   0  0  0  0  0  0  0  0  0  0  0  0
  130.8930  128.6480   58.8820 C   0  0  0  0  0  0  0  0  0  0  0  0
  131.8150  129.6830   59.4610 C   0  0  0  0  0  0  0  0  0  0  0  0
  131.7280  130.0330   60.8150 C   0  0  0  0  0  0  0  0  0  0  0  0
  132.5850  130.9890   61.3540 C   0  0  0  0  0  0  0  0  0  0  0  0
  133.5340  131.6020   60.5400 C   0  0  0  0  0  0  0  0  0  0  0  0
  133.6340  131.2650   59.1940 C   0  0  0  0  0  0  0  0  0  0  0  0
  132.7770  130.3080   58.6560 C   0  0  0  0  0  0  0  0  0  0  0  0
  130.6970  127.4560   59.3990 N   0  0  0  0  0  0  0  0  0  0  0  0
  129.8020  126.8420   58.5630 C   0  0  0  0  0  0  0  0  0  0  0  0
  129.2550  125.5530   58.6420 C   0  0  0  0  0  0  0  0  0  0  0  0
  128.9560  122.5490   59.9080 C   0  0  0  0  0  0  0  0  0  0  0  0
  131.5100  117.9080   61.8400 C   0  0  0  0  0  0  0  0  0  0  0  0
  131.1900  117.2260   60.4910 C   0  0  0  0  0  0  0  0  0  0  0  0
  131.6468  115.7610   58.3150 H   0  0  0  0  0  0  0  0  0  0  0  0
  131.3079  117.3509   57.5509 H   0  0  0  0  0  0  0  0  0  0  0  0
  132.9792  116.6924   57.5509 H   0  0  0  0  0  0  0  0  0  0  0  0
  133.2498  117.0301   59.8549 H   0  0  0  0  0  0  0  0  0  0  0  0
  133.3782  119.1571   58.5969 H   0  0  0  0  0  0  0  0  0  0  0  0
  131.6132  119.4304   58.8772 H   0  0  0  0  0  0  0  0  0  0  0  0
  133.7898  119.2622   61.0319 H   0  0  0  0  0  0  0  0  0  0  0  0
  132.9260  120.7551   60.4622 H   0  0  0  0  0  0  0  0  0  0  0  0
  132.0194  119.8507   62.6585 H   0  0  0  0  0  0  0  0  0  0  0  0
  129.8730  119.6380   60.6830 H   0  0  0  0  0  0  0  0  0  0  0  0
  128.0191  121.0331   61.1483 H   0  0  0  0  0  0  0  0  0  0  0  0
  127.9330  122.3445   63.2461 H   0  0  0  0  0  0  0  0  0  0  0  0
  128.8834  123.6668   62.4871 H   0  0  0  0  0  0  0  0  0  0  0  0
  126.0755  122.6988   61.7030 H   0  0  0  0  0  0  0  0  0  0  0  0
  126.5533  124.3074   62.4061 H   0  0  0  0  0  0  0  0  0  0  0  0
  126.0486  124.3553   59.9195 H   0  0  0  0  0  0  0  0  0  0  0  0
  127.6917  124.9434   60.3823 H   0  0  0  0  0  0  0  0  0  0  0  0
  127.2876  125.6730   55.8459 H   0  0  0  0  0  0  0  0  0  0  0  0
  128.2492  127.9846   55.6810 H   0  0  0  0  0  0  0  0  0  0  0  0
  130.1720  129.6990   57.1990 H   0  0  0  0  0  0  0  0  0  0  0  0
  130.9772  129.5490   61.4569 H   0  0  0  0  0  0  0  0  0  0  0  0
  132.5127  131.2587   62.4180 H   0  0  0  0  0  0  0  0  0  0  0  0
  134.2100  132.3588   60.9647 H   0  0  0  0  0  0  0  0  0  0  0  0
  134.3869  131.7524   58.5572 H   0  0  0  0  0  0  0  0  0  0  0  0
  132.8558  130.0409   57.5918 H   0  0  0  0  0  0  0  0  0  0  0  0
  129.5237  124.8755   59.4659 H   0  0  0  0  0  0  0  0  0  0  0  0
  129.3629  121.8222   59.1896 H   0  0  0  0  0  0  0  0  0  0  0  0
  129.6686  123.3797   60.0178 H   0  0  0  0  0  0  0  0  0  0  0  0
  132.4253  117.4612   62.2555 H   0  0  0  0  0  0  0  0  0  0  0  0
  130.6519  117.7536   62.5106 H   0  0  0  0  0  0  0  0  0  0  0  0
  131.0794  116.1435   60.6522 H   0  0  0  0  0  0  0  0  0  0  0  0
  130.2572  117.6532   60.0943 H   0  0  0  0  0  0  0  0  0  0  0  0
  1  2  1  0
  2  3  1  0
  3  4  1  0
  4  5  1  0
  5  6  1  0
  6  7  1  0
  7  8  2  0
  7  9  1  0
  9 10  1  0
 10 11  1  0
 11 12  1  0
 12 13  1  0
 13 14  1  0
 14 15  2  0
 14 16  2  0
 14 17  1  0
 17 18  2  0
 18 19  1  0
 19 20  2  0
 20 21  1  0
 21 22  1  0
 22 23  1  0
 23 24  2  0
 24 25  1  0
 25 26  2  0
 26 27  1  0
 27 28  2  0
 22 29  2  0
 29 30  1  0
 30 31  2  0
 13 32  1  0
  5 33  1  0
 33 34  1  0
 34  2  1  0
 32  9  1  0
 31 17  1  0
 30 20  1  0
 28 23  1  0
  1 35  1  0
  1 36  1  0
  1 37  1  0
  2 38  1  1
  3 39  1  0
  3 40  1  0
  4 41  1  0
  4 42  1  0
  5 43  1  1
  6 44  1  0
  9 45  1  6
 10 46  1  0
 10 47  1  0
 11 48  1  0
 11 49  1  0
 12 50  1  0
 12 51  1  0
 18 52  1  0
 19 53  1  0
 21 54  1  0
 24 55  1  0
 25 56  1  0
 26 57  1  0
 27 58  1  0
 28 59  1  0
 31 60  1  0
 32 61  1  0
 32 62  1  0
 33 63  1  0
 33 64  1  0
 34 65  1  0
 34 66  1  0
M  END
>  <Binding energies>  (1) 
[-9.75]

>  <Ligand effiencies>  (1) 
[-0.2708333333333333]

>  <Interactions>  (1) 
["V-A:LEU:363:CA:3184, V-A:ASP:366:CG:3212, V-A:ASN:362:C:3171, V-A:PRO:540:CB:4884, V-A:ASP:366:CB:3211, H-A:TYR:531:OH:4794, V-A:PRO:540:CA:4882, V-B:ALA:541:CB:9863, V-B:PRO:540:CA:9854, V-B:PRO:540:C:9852, V-B:TYR:539:C:9838, V-A:LEU:475:CD2:4258, V-A:HIS:383:CE1:3393, H-B:TYR:539:O:9839, V-B:TYR:539:CD2:9845, V-A:ILE:369:CG2:3236, V-B:TYR:539:CE2:9847, V-B:TYR:539:CB:9842, V-A:SER:385:CA:3406, V-A:SER:385:CB:3408, V-A:LEU:373:CD1:3279, V-B:TYR:539:CG:9843, V-B:MET:535:CE:9806, V-A:PRO:482:CB:4325, V-A:LEU:373:CG:3278, V-A:LEU:373:CD2:3280, H-B:TYR:531:OH:9766, V-A:ASN:362:CB:3175, V-A:HIS:383:CG:3389, V-A:HIS:383:CB:3388"]

$$$$
RR11_Rahimova_2017
     RDKit          3D

 55 60  0  0  0  0  0  0  0  0999 V2000
  134.2650  122.4340   62.2940 N   0  0  0  0  0  0  0  0  0  0  0  0
  133.5540  123.3050   63.1180 C   0  0  0  0  0  0  0  0  0  0  0  0
  133.9730  124.6270   63.2550 C   0  0  0  0  0  0  0  0  0  0  0  0
  133.2610  125.4960   64.0760 C   0  0  0  0  0  0  0  0  0  0  0  0
  132.1250  125.0530   64.7670 C   0  0  0  0  0  0  0  0  0  0  0  0
  131.3550  125.9930   65.6470 C   0  0  0  0  0  0  0  0  0  0  0  0
  131.5560  126.1330   66.9400 N   0  0  0  0  0  0  0  0  0  0  0  0
  130.6600  127.0880   67.3430 C   0  0  0  0  0  0  0  0  0  0  0  0
  130.4530  127.6240   68.6220 C   0  0  0  0  0  0  0  0  0  0  0  0
  129.4770  128.6150   68.7780 C   0  0  0  0  0  0  0  0  0  0  0  0
  129.2250  129.2120   70.1560 C   0  0  0  0  0  0  0  0  0  0  0  0
  129.4270  128.2080   71.2830 C   0  0  0  0  0  0  0  0  0  0  0  0
  129.8900  128.6540   72.5260 C   0  0  0  0  0  0  0  0  0  0  0  0
  130.0830  127.7740   73.5930 C   0  0  0  0  0  0  0  0  0  0  0  0
  129.7920  126.4180   73.3920 C   0  0  0  0  0  0  0  0  0  0  0  0
  129.9030  125.3670   74.2650 N   0  0  0  0  0  0  0  0  0  0  0  0
  129.5120  124.3090   73.5870 C   0  0  0  0  0  0  0  0  0  0  0  0
  129.4790  122.9120   74.1370 C   0  0  0  0  0  0  0  0  0  0  0  0
  130.6560  122.2970   74.5830 C   0  0  0  0  0  0  0  0  0  0  0  0
  130.6280  120.9970   75.0840 C   0  0  0  0  0  0  0  0  0  0  0  0
  129.4210  120.3040   75.1420 C   0  0  0  0  0  0  0  0  0  0  0  0
  129.3920  119.0020   75.6380 N   0  0  0  0  0  0  0  0  0  0  0  0
  128.2430  120.9050   74.7060 C   0  0  0  0  0  0  0  0  0  0  0  0
  128.2720  122.2040   74.2050 C   0  0  0  0  0  0  0  0  0  0  0  0
  129.1420  124.6300   72.2980 N   0  0  0  0  0  0  0  0  0  0  0  0
  129.3120  125.9840   72.1330 C   0  0  0  0  0  0  0  0  0  0  0  0
  129.1120  126.8610   71.0630 C   0  0  0  0  0  0  0  0  0  0  0  0
  128.7100  129.0400   67.6860 C   0  0  0  0  0  0  0  0  0  0  0  0
  128.8900  128.5220   66.4010 C   0  0  0  0  0  0  0  0  0  0  0  0
  129.8780  127.5460   66.2570 C   0  0  0  0  0  0  0  0  0  0  0  0
  130.3500  126.8190   65.1890 N   0  0  0  0  0  0  0  0  0  0  0  0
  131.7170  123.7200   64.6210 C   0  0  0  0  0  0  0  0  0  0  0  0
  132.4270  122.8490   63.8000 C   0  0  0  0  0  0  0  0  0  0  0  0
  133.9700  122.3040   61.3360 H   0  0  0  0  0  0  0  0  0  0  0  0
  135.0910  121.9760   62.6510 H   0  0  0  0  0  0  0  0  0  0  0  0
  134.8636  124.9823   62.7159 H   0  0  0  0  0  0  0  0  0  0  0  0
  133.5925  126.5393   64.1836 H   0  0  0  0  0  0  0  0  0  0  0  0
  131.0432  127.2742   69.4818 H   0  0  0  0  0  0  0  0  0  0  0  0
  129.9183  130.0526   70.3064 H   0  0  0  0  0  0  0  0  0  0  0  0
  128.1746  129.5369   70.1878 H   0  0  0  0  0  0  0  0  0  0  0  0
  130.1071  129.7232   72.6659 H   0  0  0  0  0  0  0  0  0  0  0  0
  130.4530  128.1351   74.5639 H   0  0  0  0  0  0  0  0  0  0  0  0
  131.6091  122.8442   74.5374 H   0  0  0  0  0  0  0  0  0  0  0  0
  131.5558  120.5197   75.4325 H   0  0  0  0  0  0  0  0  0  0  0  0
  129.3920  118.8500   76.6370 H   0  0  0  0  0  0  0  0  0  0  0  0
  129.3360  118.2250   74.9940 H   0  0  0  0  0  0  0  0  0  0  0  0
  127.2918  120.3550   74.7572 H   0  0  0  0  0  0  0  0  0  0  0  0
  127.3408  122.6774   73.8603 H   0  0  0  0  0  0  0  0  0  0  0  0
  128.8150  123.9490   71.6280 H   0  0  0  0  0  0  0  0  0  0  0  0
  128.7258  126.5101   70.0946 H   0  0  0  0  0  0  0  0  0  0  0  0
  127.9391  129.8083   67.8456 H   0  0  0  0  0  0  0  0  0  0  0  0
  128.2856  128.8648   65.5482 H   0  0  0  0  0  0  0  0  0  0  0  0
  130.0540  126.8500   64.2250 H   0  0  0  0  0  0  0  0  0  0  0  0
  130.8283  123.3594   65.1598 H   0  0  0  0  0  0  0  0  0  0  0  0
  132.1001  121.8045   63.6896 H   0  0  0  0  0  0  0  0  0  0  0  0
  1  2  1  0
  2  3  2  0
  3  4  1  0
  4  5  2  0
  5  6  1  0
  6  7  2  0
  7  8  1  0
  8  9  2  0
  9 10  1  0
 10 11  1  0
 11 12  1  0
 12 13  2  0
 13 14  1  0
 14 15  2  0
 15 16  1  0
 16 17  2  0
 17 18  1  0
 18 19  2  0
 19 20  1  0
 20 21  2  0
 21 22  1  0
 21 23  1  0
 23 24  2  0
 17 25  1  0
 25 26  1  0
 26 27  2  0
 10 28  2  0
 28 29  1  0
 29 30  2  0
 30 31  1  0
  5 32  1  0
 32 33  2  0
 33  2  1  0
 31  6  1  0
 30  8  1  0
 27 12  1  0
 26 15  1  0
 24 18  1  0
  1 34  1  0
  1 35  1  0
  3 36  1  0
  4 37  1  0
  9 38  1  0
 11 39  1  0
 11 40  1  0
 13 41  1  0
 14 42  1  0
 19 43  1  0
 20 44  1  0
 22 45  1  0
 22 46  1  0
 23 47  1  0
 24 48  1  0
 25 49  1  0
 27 50  1  0
 28 51  1  0
 29 52  1  0
 31 53  1  0
 32 54  1  0
 33 55  1  0
M  END
>  <Binding energies>  (1) 
[-8.61]

>  <Ligand effiencies>  (1) 
[-0.22076923076923075]

>  <Interactions>  (1) 
["V-A:ASP:366:CG:3212, V-B:GLU:543:CD:9879, H-A:TYR:484:OH:4347, H-B:GLU:543:OE2:9881, V-A:LEU:475:CD2:4258, V-A:ILE:369:CD1:3238, V-A:GLY:454:CA:4048, V-A:GLY:453:C:4041, V-A:ARG:545:CZ:4925, V-A:HIS:456:CE1:4069, H-A:HIS:456:NE2:4070, H-B:GLU:543:O:9874, V-A:GLU:543:CD:4907, V-B:HIS:456:CE1:9040, V-B:LYS:547:CE:9921, H-B:LYS:547:NZ:9922, V-A:HIS:456:CD2:4067, V-B:GLU:543:C:9873, V-A:GLU:543:CG:4906, V-A:ASP:473:CG:4239, V-A:TYR:484:CB:4340, V-A:TYR:484:C:4336, V-A:GLU:543:CB:4905, V-A:GLU:543:C:4901, V-A:GLY:453:CA:4043, H-A:SER:385:O:3405, H-A:ASP:485:OD2:4357, H-A:TYR:484:O:4337"]

$$$$
RR11_Rahimova_2017-again1
     RDKit          3D

 56 61  0  0  0  0  0  0  0  0999 V2000
  129.1000  118.9780   75.6130 N   0  0  0  0  0  0  0  0  0  0  0  0
  129.1700  120.2770   75.1110 C   0  0  0  0  0  0  0  0  0  0  0  0
  128.0200  120.8970   74.6280 C   0  0  0  0  0  0  0  0  0  0  0  0
  128.0930  122.1940   74.1240 C   0  0  0  0  0  0  0  0  0  0  0  0
  129.3140  122.8790   74.0990 C   0  0  0  0  0  0  0  0  0  0  0  0
  129.3930  124.2730   73.5470 C   0  0  0  0  0  0  0  0  0  0  0  0
  129.7140  125.3340   74.2540 N   0  0  0  0  0  0  0  0  0  0  0  0
  129.6450  126.3870   73.3800 C   0  0  0  0  0  0  0  0  0  0  0  0
  129.8850  127.7480   73.6090 C   0  0  0  0  0  0  0  0  0  0  0  0
  129.7300  128.6330   72.5410 C   0  0  0  0  0  0  0  0  0  0  0  0
  129.3440  128.1890   71.2710 C   0  0  0  0  0  0  0  0  0  0  0  0
  129.1850  129.1980   70.1420 C   0  0  0  0  0  0  0  0  0  0  0  0
  129.4470  128.5900   68.7710 C   0  0  0  0  0  0  0  0  0  0  0  0
  128.6800  129.0010   67.6750 C   0  0  0  0  0  0  0  0  0  0  0  0
  128.8730  128.4770   66.3940 C   0  0  0  0  0  0  0  0  0  0  0  0
  129.8790  127.5180   66.2550 C   0  0  0  0  0  0  0  0  0  0  0  0
  130.3250  126.7960   65.1550 N   0  0  0  0  0  0  0  0  0  0  0  0
  131.3500  125.9560   65.5250 C   0  0  0  0  0  0  0  0  0  0  0  0
  132.0900  125.0000   64.6460 C   0  0  0  0  0  0  0  0  0  0  0  0
  133.2220  125.4270   63.9420 C   0  0  0  0  0  0  0  0  0  0  0  0
  133.9200  124.5390   63.1280 C   0  0  0  0  0  0  0  0  0  0  0  0
  133.4890  123.2190   63.0150 C   0  0  0  0  0  0  0  0  0  0  0  0
  134.1920  122.3290   62.2030 N   0  0  0  0  0  0  0  0  0  0  0  0
  132.3630  122.7830   63.7110 C   0  0  0  0  0  0  0  0  0  0  0  0
  131.6650  123.6720   64.5240 C   0  0  0  0  0  0  0  0  0  0  0  0
  131.5530  126.1610   66.8700 N   0  0  0  0  0  0  0  0  0  0  0  0
  130.6620  127.1110   67.3480 C   0  0  0  0  0  0  0  0  0  0  0  0
  130.4690  127.6430   68.6260 C   0  0  0  0  0  0  0  0  0  0  0  0
  129.1210  126.8300   71.0110 C   0  0  0  0  0  0  0  0  0  0  0  0
  129.2700  125.9510   72.0870 C   0  0  0  0  0  0  0  0  0  0  0  0
  129.1240  124.5910   72.2330 N   0  0  0  0  0  0  0  0  0  0  0  0
  130.4620  122.2440   74.5900 C   0  0  0  0  0  0  0  0  0  0  0  0
  130.3910  120.9480   75.0950 C   0  0  0  0  0  0  0  0  0  0  0  0
  129.0960  118.8320   76.6120 H   0  0  0  0  0  0  0  0  0  0  0  0
  129.0940  118.1980   74.9720 H   0  0  0  0  0  0  0  0  0  0  0  0
  127.0576  120.3646   74.6444 H   0  0  0  0  0  0  0  0  0  0  0  0
  127.1846  122.6835   73.7429 H   0  0  0  0  0  0  0  0  0  0  0  0
  130.1873  128.1092   74.6031 H   0  0  0  0  0  0  0  0  0  0  0  0
  129.9157  129.7053   72.7012 H   0  0  0  0  0  0  0  0  0  0  0  0
  128.1576  129.5905   70.1626 H   0  0  0  0  0  0  0  0  0  0  0  0
  129.9273  129.9942   70.3003 H   0  0  0  0  0  0  0  0  0  0  0  0
  127.8997  129.7613   67.8268 H   0  0  0  0  0  0  0  0  0  0  0  0
  128.2635  128.8033   65.5384 H   0  0  0  0  0  0  0  0  0  0  0  0
  129.9760  126.8410   64.2090 H   0  0  0  0  0  0  0  0  0  0  0  0
  133.5618  126.4693   64.0323 H   0  0  0  0  0  0  0  0  0  0  0  0
  134.8088  124.8785   62.5759 H   0  0  0  0  0  0  0  0  0  0  0  0
  134.7840  121.6290   62.6280 H   0  0  0  0  0  0  0  0  0  0  0  0
  134.1250  122.4130   61.1990 H   0  0  0  0  0  0  0  0  0  0  0  0
  132.0268  121.7398   63.6183 H   0  0  0  0  0  0  0  0  0  0  0  0
  130.7755  123.3292   65.0729 H   0  0  0  0  0  0  0  0  0  0  0  0
  132.2580  125.6610   67.3910 H   0  0  0  0  0  0  0  0  0  0  0  0
  131.0909  127.3324   69.4785 H   0  0  0  0  0  0  0  0  0  0  0  0
  128.8422  126.4727   70.0087 H   0  0  0  0  0  0  0  0  0  0  0  0
  128.8600  123.9070   71.5390 H   0  0  0  0  0  0  0  0  0  0  0  0
  131.4265  122.7728   74.5766 H   0  0  0  0  0  0  0  0  0  0  0  0
  131.2961  120.4556   75.4801 H   0  0  0  0  0  0  0  0  0  0  0  0
  1  2  1  0
  2  3  2  0
  3  4  1  0
  4  5  2  0
  5  6  1  0
  6  7  2  0
  7  8  1  0
  8  9  2  0
  9 10  1  0
 10 11  2  0
 11 12  1  0
 12 13  1  0
 13 14  2  0
 14 15  1  0
 15 16  2  0
 16 17  1  0
 17 18  1  0
 18 19  1  0
 19 20  2  0
 20 21  1  0
 21 22  2  0
 22 23  1  0
 22 24  1  0
 24 25  2  0
 18 26  2  0
 26 27  1  0
 27 28  2  0
 11 29  1  0
 29 30  2  0
 30 31  1  0
  5 32  1  0
 32 33  2  0
 33  2  1  0
 31  6  1  0
 30  8  1  0
 28 13  1  0
 27 16  1  0
 25 19  1  0
  1 34  1  0
  1 35  1  0
  3 36  1  0
  4 37  1  0
  9 38  1  0
 10 39  1  0
 12 40  1  0
 12 41  1  0
 14 42  1  0
 15 43  1  0
 17 44  1  0
 20 45  1  0
 21 46  1  0
 23 47  1  0
 23 48  1  0
 24 49  1  0
 25 50  1  0
 26 51  1  0
 28 52  1  0
 29 53  1  0
 31 54  1  0
 32 55  1  0
 33 56  1  0
M  CHG  1  26   1
M  END
>  <Binding energies>  (1) 
[-9.52]

>  <Ligand effiencies>  (1) 
[-0.238]

>  <Interactions>  (1) 
["V-A:ASP:366:CG:3212, V-B:GLU:543:CD:9879, H-A:TYR:484:OH:4347, H-B:GLU:543:OE2:9881, V-A:LEU:475:CD2:4258, V-A:ILE:369:CD1:3238, V-A:GLY:454:CA:4048, V-A:GLY:453:C:4041, V-A:ARG:545:CZ:4925, V-A:HIS:456:CE1:4069, H-A:HIS:456:NE2:4070, H-B:GLU:543:O:9874, V-A:GLU:543:CD:4907, V-B:HIS:456:CE1:9040, V-B:LYS:547:CE:9921, H-B:LYS:547:NZ:9922, V-A:HIS:456:CD2:4067, V-B:GLU:543:C:9873, V-A:GLU:543:CG:4906, V-A:ASP:473:CG:4239, V-A:TYR:484:CB:4340, V-A:TYR:484:C:4336, V-A:GLU:543:CB:4905, V-A:GLU:543:C:4901, H-A:SER:385:O:3405, H-A:ASP:485:OD2:4357, H-A:TYR:484:O:4337"]

$$$$
RR11_Rahimova_2017-again2
     RDKit          3D

 57 62  0  0  0  0  0  0  0  0999 V2000
  134.7530  130.8330   57.3630 N   0  0  0  0  0  0  0  0  0  0  0  0
  133.5330  131.1580   57.9530 C   0  0  0  0  0  0  0  0  0  0  0  0
  133.1280  130.5060   59.1150 C   0  0  0  0  0  0  0  0  0  0  0  0
  131.9060  130.8270   59.7000 C   0  0  0  0  0  0  0  0  0  0  0  0
  131.0820  131.8040   59.1260 C   0  0  0  0  0  0  0  0  0  0  0  0
  129.7660  132.1420   59.7480 C   0  0  0  0  0  0  0  0  0  0  0  0
  129.3420  131.8030   61.0130 N   0  0  0  0  0  0  0  0  0  0  0  0
  128.0700  132.3110   61.2410 C   0  0  0  0  0  0  0  0  0  0  0  0
  127.2290  132.2460   62.3550 C   0  0  0  0  0  0  0  0  0  0  0  0
  125.9940  132.8990   62.2560 C   0  0  0  0  0  0  0  0  0  0  0  0
  125.0360  132.8680   63.4400 C   0  0  0  0  0  0  0  0  0  0  0  0
  125.1360  131.5790   64.2450 C   0  0  0  0  0  0  0  0  0  0  0  0
  124.3080  130.4970   63.9210 C   0  0  0  0  0  0  0  0  0  0  0  0
  124.3530  129.2910   64.6240 C   0  0  0  0  0  0  0  0  0  0  0  0
  125.2740  129.2100   65.6710 C   0  0  0  0  0  0  0  0  0  0  0  0
  125.5720  128.1890   66.5640 N   0  0  0  0  0  0  0  0  0  0  0  0
  126.5640  128.5900   67.4280 C   0  0  0  0  0  0  0  0  0  0  0  0
  127.1560  127.7940   68.5460 C   0  0  0  0  0  0  0  0  0  0  0  0
  126.3360  127.2720   69.5520 C   0  0  0  0  0  0  0  0  0  0  0  0
  126.8860  126.5210   70.5880 C   0  0  0  0  0  0  0  0  0  0  0  0
  128.2600  126.2890   70.6220 C   0  0  0  0  0  0  0  0  0  0  0  0
  128.8110  125.5330   71.6560 N   0  0  0  0  0  0  0  0  0  0  0  0
  129.0870  126.8080   69.6270 C   0  0  0  0  0  0  0  0  0  0  0  0
  128.5360  127.5580   68.5910 C   0  0  0  0  0  0  0  0  0  0  0  0
  126.8970  129.8740   67.0660 N   0  0  0  0  0  0  0  0  0  0  0  0
  126.1180  130.2860   65.9920 C   0  0  0  0  0  0  0  0  0  0  0  0
  126.0730  131.4890   65.2820 C   0  0  0  0  0  0  0  0  0  0  0  0
  125.6140  133.5580   61.0810 C   0  0  0  0  0  0  0  0  0  0  0  0
  126.4480  133.6200   59.9620 C   0  0  0  0  0  0  0  0  0  0  0  0
  127.6880  132.9850   60.0690 C   0  0  0  0  0  0  0  0  0  0  0  0
  128.7440  132.8630   59.1760 N   0  0  0  0  0  0  0  0  0  0  0  0
  131.5010  132.4560   57.9600 C   0  0  0  0  0  0  0  0  0  0  0  0
  132.7230  132.1350   57.3750 C   0  0  0  0  0  0  0  0  0  0  0  0
  135.1270  129.9010   57.4760 H   0  0  0  0  0  0  0  0  0  0  0  0
  135.2830  131.5490   56.8860 H   0  0  0  0  0  0  0  0  0  0  0  0
  133.7722  129.7390   59.5697 H   0  0  0  0  0  0  0  0  0  0  0  0
  131.5860  130.3111   60.6173 H   0  0  0  0  0  0  0  0  0  0  0  0
  129.9130  131.2660   61.6480 H   0  0  0  0  0  0  0  0  0  0  0  0
  127.5233  131.7069   63.2675 H   0  0  0  0  0  0  0  0  0  0  0  0
  125.2679  133.7151   64.1023 H   0  0  0  0  0  0  0  0  0  0  0  0
  124.0130  132.9312   63.0407 H   0  0  0  0  0  0  0  0  0  0  0  0
  123.5994  130.6003   63.0860 H   0  0  0  0  0  0  0  0  0  0  0  0
  123.6961  128.4473   64.3661 H   0  0  0  0  0  0  0  0  0  0  0  0
  125.1470  127.2740   66.6150 H   0  0  0  0  0  0  0  0  0  0  0  0
  125.2518  127.4555   69.5247 H   0  0  0  0  0  0  0  0  0  0  0  0
  126.2379  126.1121   71.3772 H   0  0  0  0  0  0  0  0  0  0  0  0
  129.2950  125.9980   72.4100 H   0  0  0  0  0  0  0  0  0  0  0  0
  128.7760  124.5250   71.6060 H   0  0  0  0  0  0  0  0  0  0  0  0
  130.1713  126.6257   69.6601 H   0  0  0  0  0  0  0  0  0  0  0  0
  129.1874  127.9669   67.8045 H   0  0  0  0  0  0  0  0  0  0  0  0
  127.6090  130.4050   67.5480 H   0  0  0  0  0  0  0  0  0  0  0  0
  126.7428  132.3267   65.5264 H   0  0  0  0  0  0  0  0  0  0  0  0
  124.6274  134.0424   61.0374 H   0  0  0  0  0  0  0  0  0  0  0  0
  126.1438  134.1424   59.0430 H   0  0  0  0  0  0  0  0  0  0  0  0
  128.8040  133.2330   58.2390 H   0  0  0  0  0  0  0  0  0  0  0  0
  130.8614  133.2259   57.5037 H   0  0  0  0  0  0  0  0  0  0  0  0
  133.0486  132.6506   56.4595 H   0  0  0  0  0  0  0  0  0  0  0  0
  1  2  1  0
  2  3  2  0
  3  4  1  0
  4  5  2  0
  5  6  1  0
  6  7  1  0
  7  8  1  0
  8  9  2  0
  9 10  1  0
 10 11  1  0
 11 12  1  0
 12 13  2  0
 13 14  1  0
 14 15  2  0
 15 16  1  0
 16 17  1  0
 17 18  1  0
 18 19  2  0
 19 20  1  0
 20 21  2  0
 21 22  1  0
 21 23  1  0
 23 24  2  0
 17 25  2  0
 25 26  1  0
 26 27  2  0
 10 28  2  0
 28 29  1  0
 29 30  2  0
 30 31  1  0
  5 32  1  0
 32 33  2  0
 33  2  1  0
 31  6  2  0
 30  8  1  0
 27 12  1  0
 26 15  1  0
 24 18  1  0
  1 34  1  0
  1 35  1  0
  3 36  1  0
  4 37  1  0
  7 38  1  0
  9 39  1  0
 11 40  1  0
 11 41  1  0
 13 42  1  0
 14 43  1  0
 16 44  1  0
 19 45  1  0
 20 46  1  0
 22 47  1  0
 22 48  1  0
 23 49  1  0
 24 50  1  0
 25 51  1  0
 27 52  1  0
 28 53  1  0
 29 54  1  0
 31 55  1  0
 32 56  1  0
 33 57  1  0
M  CHG  2  25   1  31   1
M  END
>  <Binding energies>  (1) 
[-8.95]

>  <Ligand effiencies>  (1) 
[-0.21829268292682924]

>  <Interactions>  (1) 
["V-A:LEU:363:CA:3184, V-A:ASP:366:CG:3212, V-A:PRO:540:CB:4884, V-A:TYR:539:CE1:4874, H-A:GLU:543:OE2:4909, V-A:TYR:539:CD1:4872, V-A:ASP:366:CB:3211, V-A:PRO:540:CA:4882, V-A:TYR:531:CE2:4792, V-A:TYR:531:CZ:4793, V-A:LEU:363:C:3182, V-A:LEU:363:CD1:3188, V-B:GLU:543:CD:9879, H-B:GLU:543:OE2:9881, H-B:GLU:543:OE1:9880, V-A:HIS:456:CE1:4069, H-A:HIS:456:NE2:4070, H-B:GLU:543:O:9874, V-B:GLU:543:CB:9877, V-B:HIS:456:CE1:9040, V-B:TYR:484:CZ:9317, V-A:HIS:456:CD2:4067, V-B:ARG:545:CD:9894, V-B:GLU:543:C:9873, V-B:ARG:545:CG:9893, H-B:TYR:484:OH:9318, V-B:GLY:544:C:9883, V-A:PRO:540:N:4883, V-A:TYR:539:C:4866, V-A:LEU:363:CB:3186, V-B:TYR:484:CE2:9316, V-B:ARG:545:CZ:9897, V-B:LEU:475:CD1:9228, V-B:GLY:454:CA:9019, H-A:TYR:539:O:4867, V-A:LEU:363:CG:3187, H-A:LEU:363:O:3183, H-A:ASN:362:O:3172"]

$$$$
RR12_Rahimova_2017
     RDKit          3D

 51 53  0  0  0  0  0  0  0  0999 V2000
  133.3000  123.9050   59.3160 C   0  0  0  0  0  0  0  0  0  0  0  0
  132.2890  123.4970   60.3960 C   0  0  0  0  0  0  0  0  0  0  0  0
  132.8460  122.4290   61.3550 C   0  0  0  0  0  0  0  0  0  0  0  0
  131.9730  121.2590   61.3920 N   0  0  0  0  0  0  0  0  0  0  0  0
  130.7480  121.1400   62.0300 C   0  0  0  0  0  0  0  0  0  0  0  0
  130.1170  122.2400   62.8650 C   0  0  0  0  0  0  0  0  0  0  0  0
  128.6090  122.3940   62.5910 C   0  0  0  0  0  0  0  0  0  0  0  0
  128.1460  123.8630   62.6190 C   0  0  0  0  0  0  0  0  0  0  0  0
  127.1310  124.1810   61.6150 N   0  0  0  0  0  0  0  0  0  0  0  0
  125.8500  123.7740   61.6560 C   0  0  0  0  0  0  0  0  0  0  0  0
  125.3930  123.0720   62.5610 O   0  0  0  0  0  0  0  0  0  0  0  0
  124.9670  124.2420   60.4930 C   0  0  0  0  0  0  0  0  0  0  0  0
  125.7930  124.7030   59.4230 O   0  0  0  0  0  0  0  0  0  0  0  0
  125.9910  123.8920   58.3220 C   0  0  0  0  0  0  0  0  0  0  0  0
  124.8920  123.7110   57.4790 C   0  0  0  0  0  0  0  0  0  0  0  0
  124.9950  122.9130   56.3430 C   0  0  0  0  0  0  0  0  0  0  0  0
  126.2040  122.2920   56.0450 C   0  0  0  0  0  0  0  0  0  0  0  0
  127.3100  122.4590   56.8760 C   0  0  0  0  0  0  0  0  0  0  0  0
  127.2050  123.2570   58.0130 C   0  0  0  0  0  0  0  0  0  0  0  0
  130.1850  119.9690   61.8590 N   0  0  0  0  0  0  0  0  0  0  0  0
  131.0480  119.2780   61.0550 C   0  0  0  0  0  0  0  0  0  0  0  0
  130.9320  117.9750   60.5490 C   0  0  0  0  0  0  0  0  0  0  0  0
  131.9560  117.4930   59.7330 C   0  0  0  0  0  0  0  0  0  0  0  0
  133.0670  118.2780   59.4250 C   0  0  0  0  0  0  0  0  0  0  0  0
  133.2130  119.5780   59.9140 C   0  0  0  0  0  0  0  0  0  0  0  0
  132.1850  120.0610   60.7330 C   0  0  0  0  0  0  0  0  0  0  0  0
  134.2184  124.2756   59.7947 H   0  0  0  0  0  0  0  0  0  0  0  0
  133.5393  123.0330   58.6896 H   0  0  0  0  0  0  0  0  0  0  0  0
  132.8670  124.6988   58.6896 H   0  0  0  0  0  0  0  0  0  0  0  0
  132.0187  124.3888   60.9805 H   0  0  0  0  0  0  0  0  0  0  0  0
  131.4145  123.0648   59.8876 H   0  0  0  0  0  0  0  0  0  0  0  0
  133.8453  122.1226   61.0122 H   0  0  0  0  0  0  0  0  0  0  0  0
  132.9029  122.8584   62.3661 H   0  0  0  0  0  0  0  0  0  0  0  0
  130.2601  122.0017   63.9293 H   0  0  0  0  0  0  0  0  0  0  0  0
  130.6053  123.1879   62.5948 H   0  0  0  0  0  0  0  0  0  0  0  0
  128.3870  121.9740   61.5988 H   0  0  0  0  0  0  0  0  0  0  0  0
  128.0706  121.8610   63.3885 H   0  0  0  0  0  0  0  0  0  0  0  0
  127.7283  124.0761   63.6141 H   0  0  0  0  0  0  0  0  0  0  0  0
  129.0269  124.4811   62.3911 H   0  0  0  0  0  0  0  0  0  0  0  0
  127.4330  124.7570   60.8420 H   0  0  0  0  0  0  0  0  0  0  0  0
  124.3474  123.4033   60.1426 H   0  0  0  0  0  0  0  0  0  0  0  0
  124.3168  125.0615   60.8333 H   0  0  0  0  0  0  0  0  0  0  0  0
  123.9370  124.2033   57.7148 H   0  0  0  0  0  0  0  0  0  0  0  0
  124.1251  122.7741   55.6843 H   0  0  0  0  0  0  0  0  0  0  0  0
  126.2874  121.6639   55.1458 H   0  0  0  0  0  0  0  0  0  0  0  0
  128.2618  121.9629   56.6353 H   0  0  0  0  0  0  0  0  0  0  0  0
  128.0762  123.3903   58.6713 H   0  0  0  0  0  0  0  0  0  0  0  0
  130.0585  117.3508   60.7887 H   0  0  0  0  0  0  0  0  0  0  0  0
  131.8857  116.4740   59.3246 H   0  0  0  0  0  0  0  0  0  0  0  0
  133.8520  117.8605   58.7773 H   0  0  0  0  0  0  0  0  0  0  0  0
  134.0919  120.1920   59.6680 H   0  0  0  0  0  0  0  0  0  0  0  0
  1  2  1  0
  2  3  1  0
  3  4  1  0
  4  5  1  0
  5  6  1  0
  6  7  1  0
  7  8  1  0
  8  9  1  0
  9 10  1  0
 10 11  2  0
 10 12  1  0
 12 13  1  0
 13 14  1  0
 14 15  2  0
 15 16  1  0
 16 17  2  0
 17 18  1  0
 18 19  2  0
  5 20  2  0
 20 21  1  0
 21 22  2  0
 22 23  1  0
 23 24  2  0
 24 25  1  0
 25 26  2  0
 26  4  1  0
 19 14  1  0
 26 21  1  0
  1 27  1  0
  1 28  1  0
  1 29  1  0
  2 30  1  0
  2 31  1  0
  3 32  1  0
  3 33  1  0
  6 34  1  0
  6 35  1  0
  7 36  1  0
  7 37  1  0
  8 38  1  0
  8 39  1  0
  9 40  1  0
 12 41  1  0
 12 42  1  0
 15 43  1  0
 16 44  1  0
 17 45  1  0
 18 46  1  0
 19 47  1  0
 22 48  1  0
 23 49  1  0
 24 50  1  0
 25 51  1  0
M  END
>  <Binding energies>  (1) 
[-7.66]

>  <Ligand effiencies>  (1) 
[-0.28370370370370374]

>  <Interactions>  (1) 
["V-A:ASP:366:CG:3212, V-B:GLU:543:CD:9879, V-B:PRO:540:N:9855, H-B:ALA:541:N:9862, V-B:ALA:541:CB:9863, V-B:PRO:540:CA:9854, V-B:ALA:541:CA:9861, V-B:TYR:539:C:9838, V-A:LEU:475:CD2:4258, V-A:HIS:383:CE1:3393, V-A:ILE:369:CD1:3238, V-B:TYR:539:CD2:9845, V-A:ILE:369:CG2:3236, V-B:TYR:539:CE2:9847, V-B:TYR:539:CB:9842, V-A:SER:385:CA:3406, V-B:TYR:539:CG:9843, V-B:MET:535:CE:9806, V-B:PRO:540:CB:9856, V-B:TYR:539:CA:9840, V-B:TYR:539:CD1:9844, V-B:TYR:531:CZ:9765, V-B:PRO:540:CD:9858, V-B:TYR:531:CE2:9764, V-B:LEU:363:CD1:8159, V-B:ILE:538:CA:9831, V-B:ILE:538:C:9829, V-A:LEU:373:CD2:3280, V-A:VAL:384:C:3396, V-A:ILE:369:CB:3235"]

$$$$
RR13_Rahimova_2017
     RDKit          3D

 84 90  0  0  0  0  0  0  0  0999 V2000
  127.4770  131.3710   58.4440 Cl  0  0  0  0  0  0  0  0  0  0  0  0
  127.6320  132.0960   60.0090 C   0  0  0  0  0  0  0  0  0  0  0  0
  126.5340  132.7970   60.5130 C   0  0  0  0  0  0  0  0  0  0  0  0
  126.6030  133.4210   61.7550 C   0  0  0  0  0  0  0  0  0  0  0  0
  127.7750  133.3500   62.5030 C   0  0  0  0  0  0  0  0  0  0  0  0
  128.8750  132.6530   62.0080 C   0  0  0  0  0  0  0  0  0  0  0  0
  128.8210  132.0070   60.7610 C   0  0  0  0  0  0  0  0  0  0  0  0
  130.0620  131.2620   60.2230 C   0  0  1  0  0  0  0  0  0  0  0  0
  131.3370  131.7190   60.9470 C   0  0  0  0  0  0  0  0  0  0  0  0
  131.4170  132.1990   62.1690 N   0  0  0  0  0  0  0  0  0  0  0  0
  132.7610  132.4960   62.3740 N   0  0  0  0  0  0  0  0  0  0  0  0
  133.4910  132.2010   61.2390 N   0  0  0  0  0  0  0  0  0  0  0  0
  132.5860  131.7460   60.3650 N   0  0  0  0  0  0  0  0  0  0  0  0
  133.0010  131.2930   59.0420 C   0  0  0  0  0  0  0  0  0  0  0  0
  133.2760  132.5010   58.1260 C   0  0  0  0  0  0  0  0  0  0  0  0
  132.0690  132.8610   57.2740 C   0  0  0  0  0  0  0  0  0  0  0  0
  130.8440  133.1470   57.8840 C   0  0  0  0  0  0  0  0  0  0  0  0
  129.7380  133.4690   57.1030 C   0  0  0  0  0  0  0  0  0  0  0  0
  129.8600  133.5060   55.7150 C   0  0  0  0  0  0  0  0  0  0  0  0
  131.0780  133.2220   55.1010 C   0  0  0  0  0  0  0  0  0  0  0  0
  132.1850  132.8980   55.8820 C   0  0  0  0  0  0  0  0  0  0  0  0
  129.9110  129.7870   60.2220 N   0  0  0  0  0  0  0  0  0  0  0  0
  130.7970  129.1750   61.2300 C   0  0  0  0  0  0  0  0  0  0  0  0
  130.5490  127.6520   61.3270 C   0  0  0  0  0  0  0  0  0  0  0  0
  130.8310  126.9960   60.0400 N   0  0  0  0  0  0  0  0  0  0  0  0
  130.6850  125.5240   60.1100 C   0  0  1  0  0  0  0  0  0  0  0  0
  129.4110  124.9490   59.4540 C   0  0  0  0  0  0  0  0  0  0  0  0
  129.4810  124.6270   58.0910 C   0  0  0  0  0  0  0  0  0  0  0  0
  128.3850  124.0870   57.4210 C   0  0  0  0  0  0  0  0  0  0  0  0
  127.1930  123.8660   58.1050 C   0  0  0  0  0  0  0  0  0  0  0  0
  127.0970  124.1940   59.4540 C   0  0  0  0  0  0  0  0  0  0  0  0
  128.1880  124.7390   60.1340 C   0  0  0  0  0  0  0  0  0  0  0  0
  127.9470  125.1770   61.7920 Cl  0  0  0  0  0  0  0  0  0  0  0  0
  131.9200  124.7730   59.6060 C   0  0  0  0  0  0  0  0  0  0  0  0
  132.5440  125.0050   58.4750 N   0  0  0  0  0  0  0  0  0  0  0  0
  133.6080  124.1100   58.4350 N   0  0  0  0  0  0  0  0  0  0  0  0
  133.6220  123.3400   59.5800 N   0  0  0  0  0  0  0  0  0  0  0  0
  132.5830  123.7810   60.2980 N   0  0  0  0  0  0  0  0  0  0  0  0
  132.2730  123.1700   61.5860 C   0  0  0  0  0  0  0  0  0  0  0  0
  131.0880  122.1970   61.4480 C   0  0  0  0  0  0  0  0  0  0  0  0
  131.5440  120.7740   61.1640 C   0  0  0  0  0  0  0  0  0  0  0  0
  130.6740  119.7040   61.3910 C   0  0  0  0  0  0  0  0  0  0  0  0
  131.0890  118.4020   61.1250 C   0  0  0  0  0  0  0  0  0  0  0  0
  132.3740  118.1740   60.6330 C   0  0  0  0  0  0  0  0  0  0  0  0
  133.2450  119.2370   60.4040 C   0  0  0  0  0  0  0  0  0  0  0  0
  132.8310  120.5390   60.6690 C   0  0  0  0  0  0  0  0  0  0  0  0
  129.9400  127.6070   59.0370 C   0  0  0  0  0  0  0  0  0  0  0  0
  130.2000  129.1270   58.9370 C   0  0  0  0  0  0  0  0  0  0  0  0
  125.6072  132.8563   59.9234 H   0  0  0  0  0  0  0  0  0  0  0  0
  125.7329  133.9694   62.1451 H   0  0  0  0  0  0  0  0  0  0  0  0
  127.8325  133.8439   63.4842 H   0  0  0  0  0  0  0  0  0  0  0  0
  129.7997  132.6076   62.6021 H   0  0  0  0  0  0  0  0  0  0  0  0
  130.1594  131.5399   59.1632 H   0  0  0  0  0  0  0  0  0  0  0  0
  133.9175  130.6919   59.1351 H   0  0  0  0  0  0  0  0  0  0  0  0
  132.1958  130.6861   58.6023 H   0  0  0  0  0  0  0  0  0  0  0  0
  133.5397  133.3670   58.7510 H   0  0  0  0  0  0  0  0  0  0  0  0
  134.0997  132.2312   57.4487 H   0  0  0  0  0  0  0  0  0  0  0  0
  130.7544  133.1176   58.9800 H   0  0  0  0  0  0  0  0  0  0  0  0
  128.7720  133.6933   57.5789 H   0  0  0  0  0  0  0  0  0  0  0  0
  128.9859  133.7620   55.0982 H   0  0  0  0  0  0  0  0  0  0  0  0
  131.1650  133.2535   54.0049 H   0  0  0  0  0  0  0  0  0  0  0  0
  133.1493  132.6716   55.4035 H   0  0  0  0  0  0  0  0  0  0  0  0
  131.8444  129.3523   60.9446 H   0  0  0  0  0  0  0  0  0  0  0  0
  130.5844  129.6298   62.2088 H   0  0  0  0  0  0  0  0  0  0  0  0
  131.2063  127.2277   62.1003 H   0  0  0  0  0  0  0  0  0  0  0  0
  129.4939  127.4814   61.5872 H   0  0  0  0  0  0  0  0  0  0  0  0
  130.5768  125.3474   61.1903 H   0  0  0  0  0  0  0  0  0  0  0  0
  130.4172  124.8037   57.5412 H   0  0  0  0  0  0  0  0  0  0  0  0
  128.4617  123.8357   56.3528 H   0  0  0  0  0  0  0  0  0  0  0  0
  126.3286  123.4330   57.5803 H   0  0  0  0  0  0  0  0  0  0  0  0
  126.1520  124.0222   59.9901 H   0  0  0  0  0  0  0  0  0  0  0  0
  133.1540  122.6191   61.9471 H   0  0  0  0  0  0  0  0  0  0  0  0
  132.0029  123.9617   62.3003 H   0  0  0  0  0  0  0  0  0  0  0  0
  130.5125  122.2043   62.3854 H   0  0  0  0  0  0  0  0  0  0  0  0
  130.4736  122.5309   60.5988 H   0  0  0  0  0  0  0  0  0  0  0  0
  129.6620  119.8905   61.7796 H   0  0  0  0  0  0  0  0  0  0  0  0
  130.4069  117.5574   61.3020 H   0  0  0  0  0  0  0  0  0  0  0  0
  132.7028  117.1453   60.4238 H   0  0  0  0  0  0  0  0  0  0  0  0
  134.2564  119.0478   60.0151 H   0  0  0  0  0  0  0  0  0  0  0  0
  133.5147  121.3818   60.4895 H   0  0  0  0  0  0  0  0  0  0  0  0
  130.1256  127.1427   58.0572 H   0  0  0  0  0  0  0  0  0  0  0  0
  128.8958  127.4439   59.3421 H   0  0  0  0  0  0  0  0  0  0  0  0
  131.2540  129.2970   58.6720 H   0  0  0  0  0  0  0  0  0  0  0  0
  129.5410  129.5499   58.1644 H   0  0  0  0  0  0  0  0  0  0  0  0
  1  2  1  0
  2  3  2  0
  3  4  1  0
  4  5  2  0
  5  6  1  0
  6  7  2  0
  7  8  1  0
  8  9  1  0
  9 10  2  0
 10 11  1  0
 11 12  2  0
 12 13  1  0
 13 14  1  0
 14 15  1  0
 15 16  1  0
 16 17  2  0
 17 18  1  0
 18 19  2  0
 19 20  1  0
 20 21  2  0
  8 22  1  0
 22 23  1  0
 23 24  1  0
 24 25  1  0
 25 26  1  0
 26 27  1  0
 27 28  2  0
 28 29  1  0
 29 30  2  0
 30 31  1  0
 31 32  2  0
 32 33  1  0
 26 34  1  0
 34 35  2  0
 35 36  1  0
 36 37  2  0
 37 38  1  0
 38 39  1  0
 39 40  1  0
 40 41  1  0
 41 42  2  0
 42 43  1  0
 43 44  2  0
 44 45  1  0
 45 46  2  0
 25 47  1  0
 47 48  1  0
  7  2  1  0
 13  9  1  0
 21 16  1  0
 48 22  1  0
 32 27  1  0
 38 34  1  0
 46 41  1  0
  3 49  1  0
  4 50  1  0
  5 51  1  0
  6 52  1  0
  8 53  1  6
 14 54  1  0
 14 55  1  0
 15 56  1  0
 15 57  1  0
 17 58  1  0
 18 59  1  0
 19 60  1  0
 20 61  1  0
 21 62  1  0
 23 63  1  0
 23 64  1  0
 24 65  1  0
 24 66  1  0
 26 67  1  1
 28 68  1  0
 29 69  1  0
 30 70  1  0
 31 71  1  0
 39 72  1  0
 39 73  1  0
 40 74  1  0
 40 75  1  0
 42 76  1  0
 43 77  1  0
 44 78  1  0
 45 79  1  0
 46 80  1  0
 47 81  1  0
 47 82  1  0
 48 83  1  0
 48 84  1  0
M  END
>  <Binding energies>  (1) 
[-13.67]

>  <Ligand effiencies>  (1) 
[-0.28479166666666667]

>  <Interactions>  (1) 
["V-A:LEU:363:CA:3184, V-A:TYR:539:CG:4871, V-A:TYR:539:CZ:4876, V-A:ASP:366:CG:3212, H-A:ALA:541:N:4890, V-A:PRO:540:CB:4884, V-A:TYR:539:CE1:4874, V-A:TYR:539:CD1:4872, V-A:PRO:540:CA:4882, V-A:TYR:531:CE2:4792, V-A:TYR:531:CZ:4793, V-A:ILE:538:CA:4859, V-A:LEU:363:CD1:3188, V-B:ALA:541:CB:9863, V-A:LEU:475:CD2:4258, V-B:TYR:539:CD2:9845, V-A:ILE:369:CG2:3236, V-B:TYR:539:CE2:9847, V-A:SER:385:CA:3406, V-A:SER:385:CB:3408, V-B:MET:535:CE:9806, H-B:TYR:539:OH:9849, V-B:TYR:539:CZ:9848, V-A:ILE:538:CB:4861, V-A:ILE:538:CG2:4862, V-A:PRO:540:N:4883, V-A:MET:535:CG:4832, V-A:PRO:540:CD:4886, V-A:ALA:541:CB:4891, V-A:TYR:539:C:4866, V-A:LEU:363:CB:3186, V-A:TYR:539:CA:4868, H-A:LEU:363:N:3185"]

$$$$
RR14_Rahimova_2017
     RDKit          3D

 76 80  0  0  0  0  0  0  0  0999 V2000
  131.0540  117.3380   59.9800 C   0  0  0  0  0  0  0  0  0  0  0  0
  130.7850  118.1800   61.0960 O   0  0  0  0  0  0  0  0  0  0  0  0
  131.3620  119.4340   61.1460 C   0  0  0  0  0  0  0  0  0  0  0  0
  130.5230  120.4920   61.4990 C   0  0  0  0  0  0  0  0  0  0  0  0
  131.0090  121.7940   61.5520 C   0  0  0  0  0  0  0  0  0  0  0  0
  132.3470  122.0530   61.2450 C   0  0  0  0  0  0  0  0  0  0  0  0
  132.8670  123.4860   61.2390 C   0  0  0  0  0  0  0  0  0  0  0  0
  132.8910  124.0870   59.9050 N   0  0  0  0  0  0  0  0  0  0  0  0
  133.9390  123.8960   59.0970 N   0  0  0  0  0  0  0  0  0  0  0  0
  133.6400  124.6180   57.9580 N   0  0  0  0  0  0  0  0  0  0  0  0
  132.4070  125.2460   58.1000 N   0  0  0  0  0  0  0  0  0  0  0  0
  131.9740  124.9140   59.2930 C   0  0  0  0  0  0  0  0  0  0  0  0
  130.6650  125.3830   59.9130 C   0  0  0  0  0  0  0  0  0  0  0  0
  129.8450  126.1650   58.9720 N   0  0  0  0  0  0  0  0  0  0  0  0
  128.6780  125.4070   58.5010 C   0  0  0  0  0  0  0  0  0  0  0  0
  128.3420  124.1860   59.3850 C   0  0  0  0  0  0  0  0  0  0  0  0
  128.3980  122.8410   58.6310 C   0  0  0  0  0  0  0  0  0  0  0  0
  127.1770  122.5500   57.8730 N   0  0  0  0  0  0  0  0  0  0  0  0
  127.4890  122.3800   56.4480 C   0  0  0  0  0  0  0  0  0  0  0  0
  126.2170  122.1230   55.6130 C   0  0  0  0  0  0  0  0  0  0  0  0
  125.2660  123.1590   55.8380 O   0  0  0  0  0  0  0  0  0  0  0  0
  124.8790  123.2470   57.2040 C   0  0  0  0  0  0  0  0  0  0  0  0
  126.1110  123.5400   58.0870 C   0  0  0  0  0  0  0  0  0  0  0  0
  129.4220  127.4260   59.5970 C   0  0  0  0  0  0  0  0  0  0  0  0
  129.8450  128.7050   58.8790 C   0  0  0  0  0  0  0  0  0  0  0  0
  131.0150  129.3210   59.1780 C   0  0  0  0  0  0  0  0  0  0  0  0
  131.4290  130.5810   58.5260 C   0  0  0  0  0  0  0  0  0  0  0  0
  132.6430  131.2350   58.7970 C   0  0  0  0  0  0  0  0  0  0  0  0
  133.6410  130.6790   59.8040 C   0  0  0  0  0  0  0  0  0  0  0  0
  132.9400  132.4220   58.1230 C   0  0  0  0  0  0  0  0  0  0  0  0
  132.0490  132.9560   57.1930 C   0  0  0  0  0  0  0  0  0  0  0  0
  130.8390  132.3110   56.9160 C   0  0  0  0  0  0  0  0  0  0  0  0
  129.8880  132.9180   55.8930 C   0  0  0  0  0  0  0  0  0  0  0  0
  130.5310  131.1180   57.5870 C   0  0  0  0  0  0  0  0  0  0  0  0
  129.3210  130.4340   57.3410 N   0  0  0  0  0  0  0  0  0  0  0  0
  128.9010  129.2790   57.9140 C   0  0  0  0  0  0  0  0  0  0  0  0
  127.8080  128.7970   57.6160 O   0  0  0  0  0  0  0  0  0  0  0  0
  133.2020  120.9980   60.9210 C   0  0  0  0  0  0  0  0  0  0  0  0
  132.7140  119.6960   60.8670 C   0  0  0  0  0  0  0  0  0  0  0  0
  131.3707  116.3467   60.3365 H   0  0  0  0  0  0  0  0  0  0  0  0
  130.1440  117.2350   59.3706 H   0  0  0  0  0  0  0  0  0  0  0  0
  131.8551  117.7817   59.3706 H   0  0  0  0  0  0  0  0  0  0  0  0
  129.4675  120.2942   61.7375 H   0  0  0  0  0  0  0  0  0  0  0  0
  130.3399  122.6198   61.8356 H   0  0  0  0  0  0  0  0  0  0  0  0
  132.2182  124.0956   61.8851 H   0  0  0  0  0  0  0  0  0  0  0  0
  133.9048  123.4577   61.6025 H   0  0  0  0  0  0  0  0  0  0  0  0
  130.0905  124.5015   60.2336 H   0  0  0  0  0  0  0  0  0  0  0  0
  130.9121  126.0351   60.7637 H   0  0  0  0  0  0  0  0  0  0  0  0
  127.8073  126.0791   58.4892 H   0  0  0  0  0  0  0  0  0  0  0  0
  128.9220  125.0249   57.4988 H   0  0  0  0  0  0  0  0  0  0  0  0
  129.0628  124.1492   60.2151 H   0  0  0  0  0  0  0  0  0  0  0  0
  127.3070  124.3164   59.7339 H   0  0  0  0  0  0  0  0  0  0  0  0
  129.2457  122.8684   57.9305 H   0  0  0  0  0  0  0  0  0  0  0  0
  128.5096  122.0486   59.3858 H   0  0  0  0  0  0  0  0  0  0  0  0
  127.9796  123.2928   56.0789 H   0  0  0  0  0  0  0  0  0  0  0  0
  128.1507  121.5075   56.3431 H   0  0  0  0  0  0  0  0  0  0  0  0
  126.4815  122.0976   54.5456 H   0  0  0  0  0  0  0  0  0  0  0  0
  125.7780  121.1601   55.9130 H   0  0  0  0  0  0  0  0  0  0  0  0
  124.1453  124.0579   57.3227 H   0  0  0  0  0  0  0  0  0  0  0  0
  124.4333  122.2903   57.5141 H   0  0  0  0  0  0  0  0  0  0  0  0
  126.4975  124.5399   57.8404 H   0  0  0  0  0  0  0  0  0  0  0  0
  125.7996  123.4886   59.1408 H   0  0  0  0  0  0  0  0  0  0  0  0
  128.3236  127.4206   59.6553 H   0  0  0  0  0  0  0  0  0  0  0  0
  129.9252  127.4552   60.5747 H   0  0  0  0  0  0  0  0  0  0  0  0
  131.6777  128.8683   59.9303 H   0  0  0  0  0  0  0  0  0  0  0  0
  133.2822  130.8789   60.8244 H   0  0  0  0  0  0  0  0  0  0  0  0
  133.7437  129.5937   59.6575 H   0  0  0  0  0  0  0  0  0  0  0  0
  134.6179  131.1629   59.6575 H   0  0  0  0  0  0  0  0  0  0  0  0
  133.8877  132.9413   58.3284 H   0  0  0  0  0  0  0  0  0  0  0  0
  132.2996  133.8923   56.6728 H   0  0  0  0  0  0  0  0  0  0  0  0
  129.0718  133.4389   56.4150 H   0  0  0  0  0  0  0  0  0  0  0  0
  130.4359  133.6338   55.2626 H   0  0  0  0  0  0  0  0  0  0  0  0
  129.4694  132.1197   55.2626 H   0  0  0  0  0  0  0  0  0  0  0  0
  128.6770  130.8300   56.6740 H   0  0  0  0  0  0  0  0  0  0  0  0
  134.2628  121.1963   60.7081 H   0  0  0  0  0  0  0  0  0  0  0  0
  133.3895  118.8684   60.6048 H   0  0  0  0  0  0  0  0  0  0  0  0
  1  2  1  0
  2  3  1  0
  3  4  2  0
  4  5  1  0
  5  6  2  0
  6  7  1  0
  7  8  1  0
  8  9  1  0
  9 10  2  0
 10 11  1  0
 11 12  2  0
 12 13  1  0
 13 14  1  0
 14 15  1  0
 15 16  1  0
 16 17  1  0
 17 18  1  0
 18 19  1  0
 19 20  1  0
 20 21  1  0
 21 22  1  0
 22 23  1  0
 14 24  1  0
 24 25  1  0
 25 26  2  0
 26 27  1  0
 27 28  2  0
 28 29  1  0
 28 30  1  0
 30 31  2  0
 31 32  1  0
 32 33  1  0
 32 34  2  0
 34 35  1  0
 35 36  1  0
 36 37  2  0
  6 38  1  0
 38 39  2  0
 39  3  1  0
 12  8  1  0
 23 18  1  0
 36 25  1  0
 34 27  1  0
  1 40  1  0
  1 41  1  0
  1 42  1  0
  4 43  1  0
  5 44  1  0
  7 45  1  0
  7 46  1  0
 13 47  1  0
 13 48  1  0
 15 49  1  0
 15 50  1  0
 16 51  1  0
 16 52  1  0
 17 53  1  0
 17 54  1  0
 19 55  1  0
 19 56  1  0
 20 57  1  0
 20 58  1  0
 22 59  1  0
 22 60  1  0
 23 61  1  0
 23 62  1  0
 24 63  1  0
 24 64  1  0
 26 65  1  0
 29 66  1  0
 29 67  1  0
 29 68  1  0
 30 69  1  0
 31 70  1  0
 33 71  1  0
 33 72  1  0
 33 73  1  0
 35 74  1  0
 38 75  1  0
 39 76  1  0
M  END
>  <Binding energies>  (1) 
[-11.1]

>  <Ligand effiencies>  (1) 
[-0.27749999999999997]

>  <Interactions>  (1) 
["V-A:LEU:363:CA:3184, V-A:ASP:366:CG:3212, V-A:ASN:362:C:3171, V-A:PRO:540:CB:4884, V-A:TYR:539:CE1:4874, V-A:ASP:366:CB:3211, H-A:TYR:531:OH:4794, V-A:PRO:540:CA:4882, V-A:TYR:531:CE2:4792, V-A:LEU:363:CD1:3188, V-B:PRO:540:N:9855, V-B:ALA:541:CB:9863, V-B:PRO:540:CA:9854, V-B:TYR:539:C:9838, V-A:LEU:475:CD2:4258, V-A:HIS:383:CE1:3393, V-A:ILE:369:CD1:3238, V-B:TYR:539:CD2:9845, V-A:ILE:369:CG2:3236, V-B:TYR:539:CE2:9847, V-B:TYR:539:CB:9842, V-A:SER:385:CA:3406, V-B:TYR:539:CG:9843, V-B:MET:535:CE:9806, H-B:TYR:539:OH:9849, V-B:TYR:539:CZ:9848, V-B:PRO:540:CB:9856, V-B:TYR:539:CA:9840, V-B:TYR:539:CD1:9844, V-B:PRO:540:CD:9858, V-B:TYR:531:CE2:9764, V-B:LEU:363:CD1:8159, V-B:ILE:538:CD1:9836, V-B:ILE:538:CG2:9834, V-B:ILE:538:CA:9831, V-B:TYR:539:CE1:9846, V-B:ILE:538:C:9829, H-B:TYR:531:OH:9766, V-A:PRO:540:N:4883, V-B:MET:535:CG:9804, V-A:PRO:540:CD:4886"]

$$$$
RR15_Rahimova_2017
     RDKit          3D

 85 89  0  0  0  0  0  0  0  0999 V2000
  123.9620  131.1220   56.0230 C   0  0  0  0  0  0  0  0  0  0  0  0
  125.1030  130.9880   55.1810 O   0  0  0  0  0  0  0  0  0  0  0  0
  126.1330  130.1430   55.5570 C   0  0  0  0  0  0  0  0  0  0  0  0
  125.9350  128.9320   56.2390 C   0  0  0  0  0  0  0  0  0  0  0  0
  127.0170  128.1290   56.5900 C   0  0  0  0  0  0  0  0  0  0  0  0
  128.3250  128.5110   56.2750 C   0  0  0  0  0  0  0  0  0  0  0  0
  129.4940  127.6470   56.6610 C   0  0  0  0  0  0  0  0  0  0  0  0
  130.3870  127.2100   55.7840 N   0  0  0  0  0  0  0  0  0  0  0  0
  131.2890  126.4520   56.5030 N   0  0  0  0  0  0  0  0  0  0  0  0
  130.8520  126.5520   57.7590 N   0  0  0  0  0  0  0  0  0  0  0  0
  131.4280  125.7610   58.8450 C   0  0  0  0  0  0  0  0  0  0  0  0
  130.4240  125.3470   59.9500 C   0  0  0  0  0  0  0  0  0  0  0  0
  129.6430  126.2000   60.3770 O   0  0  0  0  0  0  0  0  0  0  0  0
  130.4050  124.0540   60.3980 N   0  0  0  0  0  0  0  0  0  0  0  0
  129.4920  123.0520   59.8140 C   0  0  0  0  0  0  0  0  0  0  0  0
  128.7490  123.5520   58.5560 C   0  0  0  0  0  0  0  0  0  0  0  0
  128.3220  122.4400   57.5690 C   0  0  0  0  0  0  0  0  0  0  0  0
  126.8780  122.3940   57.3210 N   0  0  0  0  0  0  0  0  0  0  0  0
  126.1280  123.4540   58.0110 C   0  0  0  0  0  0  0  0  0  0  0  0
  124.6280  123.4130   57.6490 C   0  0  0  0  0  0  0  0  0  0  0  0
  124.4620  123.4680   56.2360 O   0  0  0  0  0  0  0  0  0  0  0  0
  125.1010  122.3830   55.5720 C   0  0  0  0  0  0  0  0  0  0  0  0
  126.6150  122.3980   55.8750 C   0  0  0  0  0  0  0  0  0  0  0  0
  131.4120  123.5010   61.3550 C   0  0  2  0  0  0  0  0  0  0  0  0
  132.3990  122.4730   60.7170 C   0  0  0  0  0  0  0  0  0  0  0  0
  133.4340  122.8450   60.1640 O   0  0  0  0  0  0  0  0  0  0  0  0
  132.0580  121.1790   60.8520 N   0  0  0  0  0  0  0  0  0  0  0  0
  132.8710  120.0450   60.4300 C   0  0  0  0  0  0  0  0  0  0  0  0
  132.4280  118.7490   61.1340 C   0  0  2  0  0  0  0  0  0  0  0  0
  132.1620  117.5510   60.2060 C   0  0  0  0  0  0  0  0  0  0  0  0
  130.6590  117.4950   60.0820 C   0  0  0  0  0  0  0  0  0  0  0  0
  130.2260  117.9760   61.4560 C   0  0  0  0  0  0  0  0  0  0  0  0
  131.1470  119.0300   61.7160 O   0  0  0  0  0  0  0  0  0  0  0  0
  130.7480  123.1120   62.6710 C   0  0  0  0  0  0  0  0  0  0  0  0
  131.5700  122.7140   63.7320 C   0  0  0  0  0  0  0  0  0  0  0  0
  131.0190  122.3480   64.9560 C   0  0  0  0  0  0  0  0  0  0  0  0
  129.6380  122.3790   65.1300 C   0  0  0  0  0  0  0  0  0  0  0  0
  129.1030  122.0240   66.3190 F   0  0  0  0  0  0  0  0  0  0  0  0
  128.8050  122.7740   64.0860 C   0  0  0  0  0  0  0  0  0  0  0  0
  129.3570  123.1390   62.8620 C   0  0  0  0  0  0  0  0  0  0  0  0
  129.7190  127.2510   57.9000 N   0  0  0  0  0  0  0  0  0  0  0  0
  128.5190  129.7190   55.5930 C   0  0  0  0  0  0  0  0  0  0  0  0
  127.4370  130.5390   55.2280 C   0  0  0  0  0  0  0  0  0  0  0  0
  127.5780  131.7380   54.5510 O   0  0  0  0  0  0  0  0  0  0  0  0
  128.7340  132.5390   54.7700 C   0  0  0  0  0  0  0  0  0  0  0  0
  124.2772  131.0850   57.0762 H   0  0  0  0  0  0  0  0  0  0  0  0
  123.4686  132.0843   55.8215 H   0  0  0  0  0  0  0  0  0  0  0  0
  123.2591  130.3002   55.8215 H   0  0  0  0  0  0  0  0  0  0  0  0
  124.9145  128.6142   56.4988 H   0  0  0  0  0  0  0  0  0  0  0  0
  126.8408  127.1823   57.1217 H   0  0  0  0  0  0  0  0  0  0  0  0
  131.8566  124.8454   58.4115 H   0  0  0  0  0  0  0  0  0  0  0  0
  132.1774  126.4025   59.3318 H   0  0  0  0  0  0  0  0  0  0  0  0
  130.0799  122.1634   59.5406 H   0  0  0  0  0  0  0  0  0  0  0  0
  128.7277  122.8304   60.5734 H   0  0  0  0  0  0  0  0  0  0  0  0
  127.8441  124.0854   58.8826 H   0  0  0  0  0  0  0  0  0  0  0  0
  129.4585  124.1928   58.0119 H   0  0  0  0  0  0  0  0  0  0  0  0
  128.8336  122.6115   56.6104 H   0  0  0  0  0  0  0  0  0  0  0  0
  128.5999  121.4795   58.0275 H   0  0  0  0  0  0  0  0  0  0  0  0
  126.2373  123.3201   59.0973 H   0  0  0  0  0  0  0  0  0  0  0  0
  126.5332  124.4261   57.6936 H   0  0  0  0  0  0  0  0  0  0  0  0
  124.1874  122.4802   58.0307 H   0  0  0  0  0  0  0  0  0  0  0  0
  124.1250  124.2792   58.1037 H   0  0  0  0  0  0  0  0  0  0  0  0
  124.6683  121.4348   55.9236 H   0  0  0  0  0  0  0  0  0  0  0  0
  124.9483  122.4825   54.4872 H   0  0  0  0  0  0  0  0  0  0  0  0
  127.0777  121.5069   55.4257 H   0  0  0  0  0  0  0  0  0  0  0  0
  127.0415  123.3188   55.4505 H   0  0  0  0  0  0  0  0  0  0  0  0
  132.1146  124.3020   61.6282 H   0  0  0  0  0  0  0  0  0  0  0  0
  131.2060  120.9550   61.3440 H   0  0  0  0  0  0  0  0  0  0  0  0
  132.7689  119.9154   59.3424 H   0  0  0  0  0  0  0  0  0  0  0  0
  133.9179  120.2475   60.7001 H   0  0  0  0  0  0  0  0  0  0  0  0
  133.2437  118.4777   61.8204 H   0  0  0  0  0  0  0  0  0  0  0  0
  132.6276  117.7104   59.2222 H   0  0  0  0  0  0  0  0  0  0  0  0
  132.5842  116.6149   60.6003 H   0  0  0  0  0  0  0  0  0  0  0  0
  130.2957  118.1646   59.2885 H   0  0  0  0  0  0  0  0  0  0  0  0
  130.2673  116.5041   59.8087 H   0  0  0  0  0  0  0  0  0  0  0  0
  129.1907  118.3474   61.4395 H   0  0  0  0  0  0  0  0  0  0  0  0
  130.2355  117.1857   62.2211 H   0  0  0  0  0  0  0  0  0  0  0  0
  132.6614  122.6904   63.5967 H   0  0  0  0  0  0  0  0  0  0  0  0
  131.6725  122.0351   65.7837 H   0  0  0  0  0  0  0  0  0  0  0  0
  127.7145  122.7973   64.2286 H   0  0  0  0  0  0  0  0  0  0  0  0
  128.6988  123.4511   62.0377 H   0  0  0  0  0  0  0  0  0  0  0  0
  129.5416  130.0333   55.3371 H   0  0  0  0  0  0  0  0  0  0  0  0
  128.9006  132.6545   55.8512 H   0  0  0  0  0  0  0  0  0  0  0  0
  129.6089  132.0525   54.3140 H   0  0  0  0  0  0  0  0  0  0  0  0
  128.5858  133.5290   54.3140 H   0  0  0  0  0  0  0  0  0  0  0  0
  1  2  1  0
  2  3  1  0
  3  4  2  0
  4  5  1  0
  5  6  2  0
  6  7  1  0
  7  8  1  0
  8  9  2  0
  9 10  1  0
 10 11  1  0
 11 12  1  0
 12 13  2  0
 12 14  1  0
 14 15  1  0
 15 16  1  0
 16 17  1  0
 17 18  1  0
 18 19  1  0
 19 20  1  0
 20 21  1  0
 21 22  1  0
 22 23  1  0
 14 24  1  0
 24 25  1  0
 25 26  2  0
 25 27  1  0
 27 28  1  0
 28 29  1  0
 29 30  1  0
 30 31  1  0
 31 32  1  0
 32 33  1  0
 24 34  1  0
 34 35  2  0
 35 36  1  0
 36 37  2  0
 37 38  1  0
 37 39  1  0
 39 40  2  0
 10 41  1  0
  6 42  1  0
 42 43  2  0
 43 44  1  0
 44 45  1  0
 43  3  1  0
 41  7  2  0
 23 18  1  0
 33 29  1  0
 40 34  1  0
  1 46  1  0
  1 47  1  0
  1 48  1  0
  4 49  1  0
  5 50  1  0
 11 51  1  0
 11 52  1  0
 15 53  1  0
 15 54  1  0
 16 55  1  0
 16 56  1  0
 17 57  1  0
 17 58  1  0
 19 59  1  0
 19 60  1  0
 20 61  1  0
 20 62  1  0
 22 63  1  0
 22 64  1  0
 23 65  1  0
 23 66  1  0
 24 67  1  1
 27 68  1  0
 28 69  1  0
 28 70  1  0
 29 71  1  1
 30 72  1  0
 30 73  1  0
 31 74  1  0
 31 75  1  0
 32 76  1  0
 32 77  1  0
 35 78  1  0
 36 79  1  0
 39 80  1  0
 40 81  1  0
 42 82  1  0
 45 83  1  0
 45 84  1  0
 45 85  1  0
M  END
>  <Binding energies>  (1) 
[-10.12]

>  <Ligand effiencies>  (1) 
[-0.21999999999999997]

>  <Interactions>  (1) 
["V-A:TYR:539:CZ:4876, V-A:ASP:366:CG:3212, V-A:TYR:539:CE1:4874, V-A:ASP:366:CB:3211, H-A:TYR:531:OH:4794, V-A:TYR:539:CE2:4875, V-B:GLU:543:CD:9879, V-B:PRO:540:N:9855, V-B:ALA:541:CB:9863, V-B:PRO:540:CA:9854, V-B:TYR:539:C:9838, V-A:LEU:475:CD2:4258, V-A:PRO:482:CG:4326, V-A:HIS:383:CE1:3393, V-B:TYR:539:CD2:9845, V-A:ILE:369:CG2:3236, V-B:TYR:539:CE2:9847, V-B:TYR:539:CB:9842, V-A:SER:385:CA:3406, V-A:SER:385:CB:3408, H-B:TYR:539:N:9841, V-B:TYR:539:CG:9843, V-B:MET:535:CE:9806, H-B:TYR:539:OH:9849, V-B:TYR:539:CZ:9848, V-A:PRO:482:CB:4325, V-B:GLU:543:CG:9878, V-A:LEU:475:CD1:4257, V-B:PRO:540:CB:9856, V-B:TYR:539:CA:9840, V-B:TYR:539:CD1:9844, V-B:TYR:531:CZ:9765, V-B:TYR:531:CE2:9764, V-B:LEU:363:CD1:8159, V-B:ILE:538:CD1:9836, V-B:ILE:538:CG2:9834, V-B:GLU:543:CB:9877, V-B:ILE:538:CA:9831, V-B:TYR:539:CE1:9846, V-B:ILE:538:CB:9833, V-A:TYR:484:CZ:4346, V-A:TYR:484:CE2:4345, V-A:MET:535:CE:4834, H-B:TYR:531:OH:9766, V-B:MET:535:CG:9804, V-A:MET:535:CG:4832, V-B:TYR:531:CE1:9763, H-A:TYR:539:OH:4877, V-B:GLU:543:CA:9875, V-A:TYR:484:CD2:4343, V-B:ASN:370:CB:8215, V-B:ASN:370:CA:8213"]

$$$$
RR16_Rahimova_2017
     RDKit          3D

 80 85  0  0  0  0  0  0  0  0999 V2000
  129.2010  128.2340   74.9260 O   0  0  0  0  0  0  0  0  0  0  0  0
  129.8830  127.1810   74.1650 S   0  0  0  0  0  0  0  0  0  0  0  0
  129.5920  125.7640   74.4130 O   0  0  0  0  0  0  0  0  0  0  0  0
  131.6200  127.4260   74.3570 N   0  0  0  0  0  0  0  0  0  0  0  0
  132.2180  127.6200   75.6990 C   0  0  0  0  0  0  0  0  0  0  0  0
  132.2190  126.2670   76.4570 C   0  0  0  0  0  0  0  0  0  0  0  0
  133.0090  125.1040   75.8250 C   0  0  0  0  0  0  0  0  0  0  0  0
  134.4900  125.0580   76.2370 C   0  0  0  0  0  0  0  0  0  0  0  0
  135.2960  126.3480   75.9900 C   0  0  0  0  0  0  0  0  0  0  0  0
  134.7080  127.3660   74.9930 C   0  0  0  0  0  0  0  0  0  0  0  0
  133.5990  128.2940   75.5270 C   0  0  0  0  0  0  0  0  0  0  0  0
  129.5750  127.5110   72.4340 C   0  0  0  0  0  0  0  0  0  0  0  0
  130.1830  128.6010   71.8050 C   0  0  0  0  0  0  0  0  0  0  0  0
  129.8410  128.9180   70.4940 C   0  0  0  0  0  0  0  0  0  0  0  0
  128.8950  128.1460   69.8170 C   0  0  0  0  0  0  0  0  0  0  0  0
  128.3490  128.6340   68.1820 S   0  0  0  0  0  0  0  0  0  0  0  0
  128.7190  130.0440   67.9990 O   0  0  0  0  0  0  0  0  0  0  0  0
  126.9500  128.2110   68.0410 O   0  0  0  0  0  0  0  0  0  0  0  0
  129.3370  127.6520   67.0830 N   0  0  0  0  0  0  0  0  0  0  0  0
  129.4300  128.1830   65.6990 C   0  0  0  0  0  0  0  0  0  0  0  0
  130.0320  127.1240   64.7530 C   0  0  0  0  0  0  0  0  0  0  0  0
  131.3810  126.5800   65.2840 C   0  0  0  0  0  0  0  0  0  0  0  0
  131.9730  125.4930   64.3840 C   0  0  0  0  0  0  0  0  0  0  0  0
  133.3280  125.5470   64.0260 C   0  0  0  0  0  0  0  0  0  0  0  0
  133.9110  124.5740   63.2140 C   0  0  0  0  0  0  0  0  0  0  0  0
  135.2380  124.6410   62.8770 O   0  0  0  0  0  0  0  0  0  0  0  0
  133.1020  123.5220   62.7560 C   0  0  0  0  0  0  0  0  0  0  0  0
  133.3950  122.4390   61.9780 N   0  0  0  0  0  0  0  0  0  0  0  0
  132.2420  121.6950   61.8530 N   0  0  0  0  0  0  0  0  0  0  0  0
  131.2500  122.3330   62.5040 N   0  0  0  0  0  0  0  0  0  0  0  0
  129.9310  121.7250   62.6080 C   0  0  0  0  0  0  0  0  0  0  0  0
  128.8680  122.4910   61.8340 C   0  0  0  0  0  0  0  0  0  0  0  0
  127.9200  123.2600   62.5170 C   0  0  0  0  0  0  0  0  0  0  0  0
  126.9580  123.9810   61.8090 C   0  0  0  0  0  0  0  0  0  0  0  0
  126.9400  123.9380   60.4140 C   0  0  0  0  0  0  0  0  0  0  0  0
  127.8830  123.1750   59.7270 C   0  0  0  0  0  0  0  0  0  0  0  0
  127.8700  123.1280   58.0020 Cl  0  0  0  0  0  0  0  0  0  0  0  0
  128.8440  122.4500   60.4360 C   0  0  0  0  0  0  0  0  0  0  0  0
  131.7340  123.4790   63.1150 C   0  0  0  0  0  0  0  0  0  0  0  0
  131.1480  124.4560   63.9260 C   0  0  0  0  0  0  0  0  0  0  0  0
  131.2970  126.1480   66.7720 C   0  0  0  0  0  0  0  0  0  0  0  0
  130.6450  127.2340   67.6510 C   0  0  0  0  0  0  0  0  0  0  0  0
  128.3190  127.0320   70.4330 C   0  0  0  0  0  0  0  0  0  0  0  0
  128.6580  126.7170   71.7450 C   0  0  0  0  0  0  0  0  0  0  0  0
  132.2290  127.0230   73.6400 H   0  0  0  0  0  0  0  0  0  0  0  0
  131.6300  128.3006   76.3323 H   0  0  0  0  0  0  0  0  0  0  0  0
  132.6408  126.4484   77.4566 H   0  0  0  0  0  0  0  0  0  0  0  0
  131.1702  125.9356   76.4453 H   0  0  0  0  0  0  0  0  0  0  0  0
  132.5357  124.1587   76.1290 H   0  0  0  0  0  0  0  0  0  0  0  0
  132.9859  125.2578   74.7361 H   0  0  0  0  0  0  0  0  0  0  0  0
  134.5340  124.8335   77.3130 H   0  0  0  0  0  0  0  0  0  0  0  0
  134.9532  124.2901   75.6000 H   0  0  0  0  0  0  0  0  0  0  0  0
  135.4074  126.8590   76.9577 H   0  0  0  0  0  0  0  0  0  0  0  0
  136.2364  126.0110   75.5296 H   0  0  0  0  0  0  0  0  0  0  0  0
  135.5333  128.0015   74.6393 H   0  0  0  0  0  0  0  0  0  0  0  0
  134.2275  126.7607   74.2102 H   0  0  0  0  0  0  0  0  0  0  0  0
  133.9169  128.6785   76.5074 H   0  0  0  0  0  0  0  0  0  0  0  0
  133.4666  129.0845   74.7736 H   0  0  0  0  0  0  0  0  0  0  0  0
  130.9280  129.2051   72.3435 H   0  0  0  0  0  0  0  0  0  0  0  0
  130.3148  129.7746   69.9923 H   0  0  0  0  0  0  0  0  0  0  0  0
  128.4236  128.4529   65.3465 H   0  0  0  0  0  0  0  0  0  0  0  0
  130.0815  129.0693   65.7012 H   0  0  0  0  0  0  0  0  0  0  0  0
  129.3236  126.2879   64.6575 H   0  0  0  0  0  0  0  0  0  0  0  0
  130.2149  127.6002   63.7784 H   0  0  0  0  0  0  0  0  0  0  0  0
  132.0905  127.4198   65.2472 H   0  0  0  0  0  0  0  0  0  0  0  0
  133.9470  126.3781   64.3950 H   0  0  0  0  0  0  0  0  0  0  0  0
  135.4230  125.2870   62.1930 H   0  0  0  0  0  0  0  0  0  0  0  0
  129.9839  120.6999   62.2125 H   0  0  0  0  0  0  0  0  0  0  0  0
  129.6424  121.7374   63.6694 H   0  0  0  0  0  0  0  0  0  0  0  0
  127.9330  123.2964   63.6163 H   0  0  0  0  0  0  0  0  0  0  0  0
  126.2136  124.5834   62.3503 H   0  0  0  0  0  0  0  0  0  0  0  0
  126.1812  124.5066   59.8563 H   0  0  0  0  0  0  0  0  0  0  0  0
  129.5846  121.8446   59.8928 H   0  0  0  0  0  0  0  0  0  0  0  0
  130.0820  124.4126   64.1940 H   0  0  0  0  0  0  0  0  0  0  0  0
  130.6986  125.2277   66.8417 H   0  0  0  0  0  0  0  0  0  0  0  0
  132.3215  125.9840   67.1373 H   0  0  0  0  0  0  0  0  0  0  0  0
  130.4879  126.8334   68.6633 H   0  0  0  0  0  0  0  0  0  0  0  0
  131.3115  128.1084   67.6866 H   0  0  0  0  0  0  0  0  0  0  0  0
  127.6005  126.4066   69.8829 H   0  0  0  0  0  0  0  0  0  0  0  0
  128.2043  125.8444   72.2376 H   0  0  0  0  0  0  0  0  0  0  0  0
  1  2  2  0
  2  3  2  0
  2  4  1  0
  4  5  1  0
  5  6  1  0
  6  7  1  0
  7  8  1  0
  8  9  1  0
  9 10  1  0
 10 11  1  0
  2 12  1  0
 12 13  2  0
 13 14  1  0
 14 15  2  0
 15 16  1  0
 16 17  2  0
 16 18  2  0
 16 19  1  0
 19 20  1  0
 20 21  1  0
 21 22  1  0
 22 23  1  0
 23 24  2  0
 24 25  1  0
 25 26  1  0
 25 27  2  0
 27 28  1  0
 28 29  2  0
 29 30  1  0
 30 31  1  0
 31 32  1  0
 32 33  2  0
 33 34  1  0
 34 35  2  0
 35 36  1  0
 36 37  1  0
 36 38  2  0
 30 39  1  0
 39 40  2  0
 22 41  1  0
 41 42  1  0
 15 43  1  0
 43 44  2  0
 11  5  1  0
 44 12  1  0
 42 19  1  0
 40 23  1  0
 39 27  1  0
 38 32  1  0
  4 45  1  0
  5 46  1  0
  6 47  1  0
  6 48  1  0
  7 49  1  0
  7 50  1  0
  8 51  1  0
  8 52  1  0
  9 53  1  0
  9 54  1  0
 10 55  1  0
 10 56  1  0
 11 57  1  0
 11 58  1  0
 13 59  1  0
 14 60  1  0
 20 61  1  0
 20 62  1  0
 21 63  1  0
 21 64  1  0
 22 65  1  0
 24 66  1  0
 26 67  1  0
 31 68  1  0
 31 69  1  0
 33 70  1  0
 34 71  1  0
 35 72  1  0
 38 73  1  0
 40 74  1  0
 41 75  1  0
 41 76  1  0
 42 77  1  0
 42 78  1  0
 43 79  1  0
 44 80  1  0
M  END
>  <Binding energies>  (1) 
[-10.49]

>  <Ligand effiencies>  (1) 
[-0.21854166666666666]

>  <Interactions>  (1) 
["V-A:ASP:366:CG:3212, V-B:ALA:541:CB:9863, V-B:PRO:540:CA:9854, V-B:TYR:539:C:9838, V-A:LEU:475:CD2:4258, V-B:TYR:539:CD2:9845, V-B:TYR:539:CE2:9847, V-A:GLY:454:CA:4048, H-A:GLY:454:N:4049, V-A:GLY:453:C:4041, V-A:ARG:545:CZ:4925, V-A:HIS:456:CE1:4069, H-A:HIS:456:NE2:4070, V-A:GLU:543:CD:4907, V-B:HIS:456:CE1:9040, H-B:LYS:547:NZ:9922, V-A:GLU:543:CG:4906, H-A:ASP:366:OD2:3214, V-A:LYS:547:CE:4949, V-A:GLU:543:CB:4905, V-A:GLU:543:C:4901, H-A:ARG:545:NH1:4926, H-B:TYR:484:OH:9318, H-A:ASP:366:OD1:3213, V-A:HIS:456:CB:4064, V-A:VAL:457:C:4072, V-A:HIS:456:CA:4062, V-A:LYS:547:CD:4948, V-A:HIS:456:C:4060, V-A:VAL:457:CA:4074, V-A:HIS:456:CG:4065, V-A:VAL:458:CG2:4086, H-A:HIS:456:ND1:4066, V-A:LYS:547:CG:4947, H-A:GLY:544:O:4912"]

$$$$
RR17_Rahimova_2017
     RDKit          3D

 63 66  0  0  0  0  0  0  0  0999 V2000
  131.7230  116.7160   62.1810 C   0  0  0  0  0  0  0  0  0  0  0  0
  130.6810  117.2740   61.2060 C   0  0  0  0  0  0  0  0  0  0  0  0
  130.2270  118.5330   61.6950 O   0  0  0  0  0  0  0  0  0  0  0  0
  130.9150  119.6820   61.3510 C   0  0  0  0  0  0  0  0  0  0  0  0
  130.2040  120.8790   61.4200 C   0  0  0  0  0  0  0  0  0  0  0  0
  130.8120  122.0860   61.0910 C   0  0  0  0  0  0  0  0  0  0  0  0
  132.1530  122.1210   60.6820 C   0  0  0  0  0  0  0  0  0  0  0  0
  132.7830  123.4380   60.3350 C   0  0  0  0  0  0  0  0  0  0  0  0
  132.8830  123.8370   59.1710 O   0  0  0  0  0  0  0  0  0  0  0  0
  133.3260  124.2870   61.5060 C   0  0  0  0  0  0  0  0  0  0  0  0
  133.3970  123.3390   63.0690 S   0  0  0  0  0  0  0  0  0  0  0  0
  132.9550  124.6120   64.2170 C   0  0  0  0  0  0  0  0  0  0  0  0
  133.8010  125.3580   64.8880 N   0  0  0  0  0  0  0  0  0  0  0  0
  133.0650  126.2380   65.6710 N   0  0  0  0  0  0  0  0  0  0  0  0
  131.7990  125.9920   65.4420 C   0  0  0  0  0  0  0  0  0  0  0  0
  130.6430  126.7400   66.0890 C   0  0  0  0  0  0  0  0  0  0  0  0
  130.9450  127.2540   67.4230 N   0  0  0  0  0  0  0  0  0  0  0  0
  130.1100  127.0670   68.5390 C   0  0  0  0  0  0  0  0  0  0  0  0
  129.9130  128.1590   69.3840 C   0  0  0  0  0  0  0  0  0  0  0  0
  129.1030  128.0410   70.5090 C   0  0  0  0  0  0  0  0  0  0  0  0
  128.4760  126.8260   70.8020 C   0  0  0  0  0  0  0  0  0  0  0  0
  127.5950  126.7120   72.0460 C   0  0  0  0  0  0  0  0  0  0  0  0
  126.3030  126.9010   71.7690 F   0  0  0  0  0  0  0  0  0  0  0  0
  127.7250  125.5050   72.5980 F   0  0  0  0  0  0  0  0  0  0  0  0
  127.9710  127.6320   72.9340 F   0  0  0  0  0  0  0  0  0  0  0  0
  128.6670  125.7320   69.9520 C   0  0  0  0  0  0  0  0  0  0  0  0
  129.4760  125.8510   68.8260 C   0  0  0  0  0  0  0  0  0  0  0  0
  131.6580  124.9610   64.5360 N   0  0  0  0  0  0  0  0  0  0  0  0
  130.4680  124.4170   64.0310 C   0  0  0  0  0  0  0  0  0  0  0  0
  129.9220  123.2820   64.6300 C   0  0  0  0  0  0  0  0  0  0  0  0
  128.7430  122.7400   64.1260 C   0  0  0  0  0  0  0  0  0  0  0  0
  128.1070  123.3320   63.0230 C   0  0  0  0  0  0  0  0  0  0  0  0
  126.9360  122.8650   62.4570 O   0  0  0  0  0  0  0  0  0  0  0  0
  125.7430  123.6270   62.6000 C   0  0  0  0  0  0  0  0  0  0  0  0
  128.6690  124.4670   62.4350 C   0  0  0  0  0  0  0  0  0  0  0  0
  129.8470  125.0140   62.9340 C   0  0  0  0  0  0  0  0  0  0  0  0
  132.8680  120.9170   60.6140 C   0  0  0  0  0  0  0  0  0  0  0  0
  132.2580  119.7100   60.9450 C   0  0  0  0  0  0  0  0  0  0  0  0
  131.3906  116.8940   63.2144 H   0  0  0  0  0  0  0  0  0  0  0  0
  131.8392  115.6349   62.0143 H   0  0  0  0  0  0  0  0  0  0  0  0
  132.6872  117.2185   62.0143 H   0  0  0  0  0  0  0  0  0  0  0  0
  131.1357  117.4046   60.2129 H   0  0  0  0  0  0  0  0  0  0  0  0
  129.8344  116.5767   61.1222 H   0  0  0  0  0  0  0  0  0  0  0  0
  129.1510  120.8690   61.7380 H   0  0  0  0  0  0  0  0  0  0  0  0
  130.2360  123.0212   61.1521 H   0  0  0  0  0  0  0  0  0  0  0  0
  134.3398  124.6316   61.2539 H   0  0  0  0  0  0  0  0  0  0  0  0
  132.6415  125.1351   61.6552 H   0  0  0  0  0  0  0  0  0  0  0  0
  130.3746  127.5889   65.4430 H   0  0  0  0  0  0  0  0  0  0  0  0
  129.8194  126.0197   66.2025 H   0  0  0  0  0  0  0  0  0  0  0  0
  131.6780  127.9440   67.4980 H   0  0  0  0  0  0  0  0  0  0  0  0
  130.4008  129.1190   69.1597 H   0  0  0  0  0  0  0  0  0  0  0  0
  128.9552  128.9072   71.1708 H   0  0  0  0  0  0  0  0  0  0  0  0
  128.1756  124.7733   70.1744 H   0  0  0  0  0  0  0  0  0  0  0  0
  129.6182  124.9877   68.1592 H   0  0  0  0  0  0  0  0  0  0  0  0
  130.4195  122.8184   65.4946 H   0  0  0  0  0  0  0  0  0  0  0  0
  128.3079  121.8445   64.5937 H   0  0  0  0  0  0  0  0  0  0  0  0
  125.5234  123.7673   63.6687 H   0  0  0  0  0  0  0  0  0  0  0  0
  125.8751  124.6083   62.1209 H   0  0  0  0  0  0  0  0  0  0  0  0
  124.9082  123.0945   62.1209 H   0  0  0  0  0  0  0  0  0  0  0  0
  128.1758  124.9330   61.5692 H   0  0  0  0  0  0  0  0  0  0  0  0
  130.2845  125.9090   62.4677 H   0  0  0  0  0  0  0  0  0  0  0  0
  133.9210  120.9260   60.2961 H   0  0  0  0  0  0  0  0  0  0  0  0
  132.8319  118.7733   60.8880 H   0  0  0  0  0  0  0  0  0  0  0  0
  1  2  1  0
  2  3  1  0
  3  4  1  0
  4  5  2  0
  5  6  1  0
  6  7  2  0
  7  8  1  0
  8  9  2  0
  8 10  1  0
 10 11  1  0
 11 12  1  0
 12 13  2  0
 13 14  1  0
 14 15  2  0
 15 16  1  0
 16 17  1  0
 17 18  1  0
 18 19  2  0
 19 20  1  0
 20 21  2  0
 21 22  1  0
 22 23  1  0
 22 24  1  0
 22 25  1  0
 21 26  1  0
 26 27  2  0
 15 28  1  0
 28 29  1  0
 29 30  2  0
 30 31  1  0
 31 32  2  0
 32 33  1  0
 33 34  1  0
 32 35  1  0
 35 36  2  0
  7 37  1  0
 37 38  2  0
 38  4  1  0
 28 12  1  0
 36 29  1  0
 27 18  1  0
  1 39  1  0
  1 40  1  0
  1 41  1  0
  2 42  1  0
  2 43  1  0
  5 44  1  0
  6 45  1  0
 10 46  1  0
 10 47  1  0
 16 48  1  0
 16 49  1  0
 17 50  1  0
 19 51  1  0
 20 52  1  0
 26 53  1  0
 27 54  1  0
 30 55  1  0
 31 56  1  0
 34 57  1  0
 34 58  1  0
 34 59  1  0
 35 60  1  0
 36 61  1  0
 37 62  1  0
 38 63  1  0
M  END
>  <Binding energies>  (1) 
[-9.79]

>  <Ligand effiencies>  (1) 
[-0.251025641025641]

>  <Interactions>  (1) 
["V-A:ASP:366:CG:3212, V-B:GLU:543:CD:9879, H-B:ALA:541:N:9862, H-A:TYR:484:OH:4347, V-B:ALA:541:CB:9863, V-B:ALA:541:CA:9861, V-A:LEU:475:CD2:4258, V-A:PRO:482:CG:4326, V-A:HIS:383:CE1:3393, V-A:ILE:369:CD1:3238, V-B:TYR:539:CD2:9845, V-A:ILE:369:CG2:3236, V-B:TYR:539:CE2:9847, V-A:SER:385:CB:3408, V-A:GLY:454:CA:4048, V-A:THR:477:CG2:4272, H-B:TYR:539:OH:9849, V-A:PRO:482:CB:4325, V-B:GLU:543:CG:9878, H-A:GLY:454:N:4049, V-A:HIS:456:CE1:4069, H-A:GLU:543:OE1:4908, V-B:GLU:543:CB:9877, V-A:GLU:543:CD:4907, V-B:HIS:456:CE1:9040, V-B:LYS:547:CE:9921, V-B:GLU:543:C:9873, V-B:GLY:544:CA:9885, V-A:GLU:543:CB:4905, H-A:ARG:545:NH2:4927, H-A:ARG:545:NE:4923, V-B:GLY:544:C:9883, V-A:TYR:484:CE2:4345, V-B:GLU:543:CA:9875, V-B:HIS:456:CD2:9038, V-B:ARG:545:CA:9890"]

$$$$
RR18_Rahimova_2017
     RDKit          3D

 56 61  0  0  0  0  0  0  0  0999 V2000
  130.0170  127.6660   59.8930 C   0  0  0  0  0  0  0  0  0  0  0  0
  129.8830  127.9200   61.3740 C   0  0  0  0  0  0  0  0  0  0  0  0
  130.0270  127.1340   62.5060 C   0  0  0  0  0  0  0  0  0  0  0  0
  129.7690  127.9550   63.6020 C   0  0  0  0  0  0  0  0  0  0  0  0
  129.4770  129.2140   63.1020 C   0  0  0  0  0  0  0  0  0  0  0  0
  129.1190  130.5510   63.7450 C   0  0  1  0  0  0  0  0  0  0  0  0
  128.9850  131.6800   62.6790 C   0  0  0  0  0  0  0  0  0  0  0  0
  130.1460  132.1070   61.9060 C   0  0  0  0  0  0  0  0  0  0  0  0
  130.9980  132.8650   62.3760 O   0  0  0  0  0  0  0  0  0  0  0  0
  130.2030  131.5890   60.6570 N   0  0  0  0  0  0  0  0  0  0  0  0
  131.1500  131.7860   59.6290 C   0  0  0  0  0  0  0  0  0  0  0  0
  130.8430  132.3980   58.4000 C   0  0  0  0  0  0  0  0  0  0  0  0
  131.8240  132.5570   57.4230 C   0  0  0  0  0  0  0  0  0  0  0  0
  133.1190  132.1020   57.6520 C   0  0  0  0  0  0  0  0  0  0  0  0
  133.4340  131.4830   58.8590 C   0  0  0  0  0  0  0  0  0  0  0  0
  132.4610  131.3180   59.8500 C   0  0  0  0  0  0  0  0  0  0  0  0
  132.8560  130.6290   61.1530 C   0  0  0  0  0  0  0  0  0  0  0  0
  127.7480  132.1790   62.4170 C   0  0  0  0  0  0  0  0  0  0  0  0
  126.6170  131.8520   63.1020 N   0  0  0  0  0  0  0  0  0  0  0  0
  126.6990  131.0810   64.1230 C   0  0  0  0  0  0  0  0  0  0  0  0
  125.3650  130.6950   65.1840 S   0  0  0  0  0  0  0  0  0  0  0  0
  126.4160  129.6800   66.2220 C   0  0  0  0  0  0  0  0  0  0  0  0
  126.0470  128.9870   67.3550 C   0  0  0  0  0  0  0  0  0  0  0  0
  124.6790  129.0990   67.8810 C   0  0  0  0  0  0  0  0  0  0  0  0
  123.7140  129.7290   67.4510 O   0  0  0  0  0  0  0  0  0  0  0  0
  124.6230  128.3730   69.0020 N   0  0  0  0  0  0  0  0  0  0  0  0
  125.7960  127.7440   69.2870 C   0  0  0  0  0  0  0  0  0  0  0  0
  126.0760  126.9040   70.3650 C   0  0  0  0  0  0  0  0  0  0  0  0
  127.3410  126.3300   70.4590 C   0  0  0  0  0  0  0  0  0  0  0  0
  128.2940  126.5960   69.4770 C   0  0  0  0  0  0  0  0  0  0  0  0
  127.9900  127.4420   68.4080 C   0  0  0  0  0  0  0  0  0  0  0  0
  126.7240  128.0510   68.3070 C   0  0  0  0  0  0  0  0  0  0  0  0
  127.7690  129.7170   65.6670 C   0  0  0  0  0  0  0  0  0  0  0  0
  128.7670  129.1820   66.1410 O   0  0  0  0  0  0  0  0  0  0  0  0
  127.8350  130.4570   64.5270 N   0  0  0  0  0  0  0  0  0  0  0  0
  129.5480  129.1830   61.7440 O   0  0  0  0  0  0  0  0  0  0  0  0
  130.5246  126.7038   59.7305 H   0  0  0  0  0  0  0  0  0  0  0  0
  129.0177  127.6354   59.4343 H   0  0  0  0  0  0  0  0  0  0  0  0
  130.6064  128.4736   59.4343 H   0  0  0  0  0  0  0  0  0  0  0  0
  130.2937  126.0672   62.5341 H   0  0  0  0  0  0  0  0  0  0  0  0
  129.7926  127.6601   64.6615 H   0  0  0  0  0  0  0  0  0  0  0  0
  129.9421  130.8013   64.4305 H   0  0  0  0  0  0  0  0  0  0  0  0
  129.4870  130.9160   60.4290 H   0  0  0  0  0  0  0  0  0  0  0  0
  129.8200  132.7540   58.2086 H   0  0  0  0  0  0  0  0  0  0  0  0
  131.5741  133.0433   56.4685 H   0  0  0  0  0  0  0  0  0  0  0  0
  133.8927  132.2311   56.8808 H   0  0  0  0  0  0  0  0  0  0  0  0
  134.4576  131.1205   59.0346 H   0  0  0  0  0  0  0  0  0  0  0  0
  132.5105  131.2317   62.0058 H   0  0  0  0  0  0  0  0  0  0  0  0
  132.3920  129.6326   61.1962 H   0  0  0  0  0  0  0  0  0  0  0  0
  133.9503  130.5260   61.1962 H   0  0  0  0  0  0  0  0  0  0  0  0
  127.6534  132.8996   61.5913 H   0  0  0  0  0  0  0  0  0  0  0  0
  123.7870  128.2870   69.5620 H   0  0  0  0  0  0  0  0  0  0  0  0
  125.3104  126.6986   71.1277 H   0  0  0  0  0  0  0  0  0  0  0  0
  127.5872  125.6700   71.3038 H   0  0  0  0  0  0  0  0  0  0  0  0
  129.2913  126.1369   69.5444 H   0  0  0  0  0  0  0  0  0  0  0  0
  128.7488  127.6351   67.6353 H   0  0  0  0  0  0  0  0  0  0  0  0
  1  2  1  0
  2  3  2  0
  3  4  1  0
  4  5  2  0
  5  6  1  0
  6  7  1  0
  7  8  1  0
  8  9  2  0
  8 10  1  0
 10 11  1  0
 11 12  2  0
 12 13  1  0
 13 14  2  0
 14 15  1  0
 15 16  2  0
 16 17  1  0
  7 18  2  0
 18 19  1  0
 19 20  2  0
 20 21  1  0
 21 22  1  0
 22 23  2  0
 23 24  1  0
 24 25  2  0
 24 26  1  0
 26 27  1  0
 27 28  2  0
 28 29  1  0
 29 30  2  0
 30 31  1  0
 31 32  2  0
 22 33  1  0
 33 34  2  0
 33 35  1  0
  5 36  1  0
 36  2  1  0
 35  6  1  0
 16 11  1  0
 35 20  1  0
 32 23  1  0
 32 27  1  0
  1 37  1  0
  1 38  1  0
  1 39  1  0
  3 40  1  0
  4 41  1  0
  6 42  1  1
 10 43  1  0
 12 44  1  0
 13 45  1  0
 14 46  1  0
 15 47  1  0
 17 48  1  0
 17 49  1  0
 17 50  1  0
 18 51  1  0
 26 52  1  0
 28 53  1  0
 29 54  1  0
 30 55  1  0
 31 56  1  0
M  END
>  <Binding energies>  (1) 
[-9.5]

>  <Ligand effiencies>  (1) 
[-0.25]

>  <Interactions>  (1) 
["V-A:LEU:363:CA:3184, V-A:ASP:366:CG:3212, H-A:ALA:541:N:4890, V-A:PRO:540:CB:4884, V-A:PRO:540:CA:4882, V-A:TYR:531:CE2:4792, V-A:TYR:531:CZ:4793, V-A:LEU:363:CD1:3188, V-B:GLU:543:CD:9879, V-B:GLU:543:CB:9877, V-A:GLU:543:CD:4907, V-B:HIS:456:CE1:9040, V-B:ARG:545:CD:9894, V-B:GLU:543:C:9873, V-A:GLU:543:CG:4906, V-B:ARG:545:CG:9893, H-B:TYR:484:OH:9318, V-B:GLY:544:C:9883, V-A:PRO:540:N:4883, V-B:GLU:543:CA:9875, V-B:ARG:545:CA:9890, H-B:GLY:454:N:9020, V-B:ARG:545:CB:9892, H-B:ILE:455:N:9025, H-B:ILE:455:O:9023"]

$$$$
RR19_Rahimova_2017
     RDKit          3D

 72 77  0  0  0  0  0  0  0  0999 V2000
  133.7440  124.2020   58.6220 O   0  0  0  0  0  0  0  0  0  0  0  0
  132.7530  124.4120   59.3270 C   0  0  0  0  0  0  0  0  0  0  0  0
  131.8290  125.3870   59.1340 N   0  0  0  0  0  0  0  0  0  0  0  0
  131.5670  126.2330   58.0850 C   0  0  0  0  0  0  0  0  0  0  0  0
  132.2390  126.1190   56.5350 S   0  0  0  0  0  0  0  0  0  0  0  0
  130.6690  127.1850   58.5020 N   0  0  0  0  0  0  0  0  0  0  0  0
  129.9790  128.1530   57.8480 C   0  0  0  0  0  0  0  0  0  0  0  0
  129.8750  128.2790   56.6260 O   0  0  0  0  0  0  0  0  0  0  0  0
  129.2960  129.1800   58.7870 C   0  0  2  0  0  0  0  0  0  0  0  0
  128.2620  130.1130   58.0910 C   0  0  0  0  0  0  0  0  0  0  0  0
  128.8610  131.2150   57.2320 C   0  0  0  0  0  0  0  0  0  0  0  0
  128.7540  131.1740   55.8250 C   0  0  0  0  0  0  0  0  0  0  0  0
  129.2360  132.2280   55.0610 C   0  0  0  0  0  0  0  0  0  0  0  0
  129.8090  133.3350   55.6760 C   0  0  0  0  0  0  0  0  0  0  0  0
  129.8940  133.4020   57.0610 C   0  0  0  0  0  0  0  0  0  0  0  0
  129.4150  132.3600   57.8430 C   0  0  0  0  0  0  0  0  0  0  0  0
  130.3020  129.9580   59.5600 N   0  0  0  0  0  0  0  0  0  0  0  0
  131.5910  130.0730   59.1310 C   0  0  0  0  0  0  0  0  0  0  0  0
  132.0930  129.5620   58.1280 O   0  0  0  0  0  0  0  0  0  0  0  0
  132.2630  130.9460   60.1250 C   0  0  0  0  0  0  0  0  0  0  0  0
  133.5800  131.3990   60.2020 C   0  0  0  0  0  0  0  0  0  0  0  0
  133.9410  132.2340   61.2650 C   0  0  0  0  0  0  0  0  0  0  0  0
  132.9910  132.6020   62.2280 C   0  0  0  0  0  0  0  0  0  0  0  0
  131.6740  132.1370   62.1330 C   0  0  0  0  0  0  0  0  0  0  0  0
  131.3360  131.3040   61.0650 C   0  0  0  0  0  0  0  0  0  0  0  0
  130.0450  130.6710   60.6970 C   0  0  0  0  0  0  0  0  0  0  0  0
  128.9700  130.7770   61.2890 O   0  0  0  0  0  0  0  0  0  0  0  0
  132.4970  123.5200   60.5710 C   0  0  2  0  0  0  0  0  0  0  0  0
  131.3150  122.5230   60.3990 C   0  0  0  0  0  0  0  0  0  0  0  0
  131.6620  121.0880   60.7540 C   0  0  0  0  0  0  0  0  0  0  0  0
  130.6550  120.2060   61.2030 C   0  0  0  0  0  0  0  0  0  0  0  0
  130.9550  118.8690   61.4300 C   0  0  0  0  0  0  0  0  0  0  0  0
  132.2350  118.3870   61.1910 C   0  0  0  0  0  0  0  0  0  0  0  0
  133.2260  119.2350   60.7110 C   0  0  0  0  0  0  0  0  0  0  0  0
  132.9470  120.5760   60.4790 C   0  0  0  0  0  0  0  0  0  0  0  0
  132.3770  124.2940   61.8400 N   0  0  0  0  0  0  0  0  0  0  0  0
  131.2690  125.0320   62.1270 C   0  0  0  0  0  0  0  0  0  0  0  0
  130.2680  125.1800   61.4250 O   0  0  0  0  0  0  0  0  0  0  0  0
  131.5230  125.6190   63.4670 C   0  0  0  0  0  0  0  0  0  0  0  0
  130.7430  126.4630   64.2590 C   0  0  0  0  0  0  0  0  0  0  0  0
  131.2420  126.8640   65.5030 C   0  0  0  0  0  0  0  0  0  0  0  0
  132.4980  126.4200   65.9370 C   0  0  0  0  0  0  0  0  0  0  0  0
  133.2650  125.5720   65.1290 C   0  0  0  0  0  0  0  0  0  0  0  0
  132.7500  125.1850   63.8900 C   0  0  0  0  0  0  0  0  0  0  0  0
  133.3140  124.3100   62.8340 C   0  0  0  0  0  0  0  0  0  0  0  0
  134.3950  123.7210   62.8520 O   0  0  0  0  0  0  0  0  0  0  0  0
  131.1400  125.4340   59.8700 H   0  0  0  0  0  0  0  0  0  0  0  0
  130.5730  127.2360   59.5050 H   0  0  0  0  0  0  0  0  0  0  0  0
  128.7013  128.5760   59.4881 H   0  0  0  0  0  0  0  0  0  0  0  0
  127.6207  129.4914   57.4488 H   0  0  0  0  0  0  0  0  0  0  0  0
  127.7145  130.6194   58.8996 H   0  0  0  0  0  0  0  0  0  0  0  0
  128.2886  130.3067   55.3340 H   0  0  0  0  0  0  0  0  0  0  0  0
  129.1642  132.1870   53.9641 H   0  0  0  0  0  0  0  0  0  0  0  0
  130.1970  134.1619   55.0631 H   0  0  0  0  0  0  0  0  0  0  0  0
  130.3429  134.2846   57.5400 H   0  0  0  0  0  0  0  0  0  0  0  0
  129.4673  132.4268   58.9397 H   0  0  0  0  0  0  0  0  0  0  0  0
  134.3197  131.1057   59.4425 H   0  0  0  0  0  0  0  0  0  0  0  0
  134.9741  132.6031   61.3454 H   0  0  0  0  0  0  0  0  0  0  0  0
  133.2815  133.2586   63.0614 H   0  0  0  0  0  0  0  0  0  0  0  0
  130.9219  132.4218   62.8835 H   0  0  0  0  0  0  0  0  0  0  0  0
  133.4079  122.9089   60.6535 H   0  0  0  0  0  0  0  0  0  0  0  0
  130.4892  122.8500   61.0479 H   0  0  0  0  0  0  0  0  0  0  0  0
  131.0440  122.5309   59.3329 H   0  0  0  0  0  0  0  0  0  0  0  0
  129.6337  120.5775   61.3729 H   0  0  0  0  0  0  0  0  0  0  0  0
  130.1745  118.1885   61.8010 H   0  0  0  0  0  0  0  0  0  0  0  0
  132.4659  117.3287   61.3825 H   0  0  0  0  0  0  0  0  0  0  0  0
  134.2347  118.8430   60.5141 H   0  0  0  0  0  0  0  0  0  0  0  0
  133.7290  121.2390   60.0805 H   0  0  0  0  0  0  0  0  0  0  0  0
  129.7568  126.8056   63.9125 H   0  0  0  0  0  0  0  0  0  0  0  0
  130.6456  127.5308   66.1431 H   0  0  0  0  0  0  0  0  0  0  0  0
  132.8831  126.7390   66.9167 H   0  0  0  0  0  0  0  0  0  0  0  0
  134.2517  125.2183   65.4628 H   0  0  0  0  0  0  0  0  0  0  0  0
  1  2  2  0
  2  3  1  0
  3  4  1  0
  4  5  2  0
  4  6  1  0
  6  7  1  0
  7  8  2  0
  7  9  1  0
  9 10  1  0
 10 11  1  0
 11 12  2  0
 12 13  1  0
 13 14  2  0
 14 15  1  0
 15 16  2  0
  9 17  1  0
 17 18  1  0
 18 19  2  0
 18 20  1  0
 20 21  2  0
 21 22  1  0
 22 23  2  0
 23 24  1  0
 24 25  2  0
 25 26  1  0
 26 27  2  0
  2 28  1  0
 28 29  1  0
 29 30  1  0
 30 31  2  0
 31 32  1  0
 32 33  2  0
 33 34  1  0
 34 35  2  0
 28 36  1  0
 36 37  1  0
 37 38  2  0
 37 39  1  0
 39 40  2  0
 40 41  1  0
 41 42  2  0
 42 43  1  0
 43 44  2  0
 44 45  1  0
 45 46  2  0
 16 11  1  0
 26 17  1  0
 35 30  1  0
 45 36  1  0
 25 20  1  0
 44 39  1  0
  3 47  1  0
  6 48  1  0
  9 49  1  1
 10 50  1  0
 10 51  1  0
 12 52  1  0
 13 53  1  0
 14 54  1  0
 15 55  1  0
 16 56  1  0
 21 57  1  0
 22 58  1  0
 23 59  1  0
 24 60  1  0
 28 61  1  1
 29 62  1  0
 29 63  1  0
 31 64  1  0
 32 65  1  0
 33 66  1  0
 34 67  1  0
 35 68  1  0
 40 69  1  0
 41 70  1  0
 42 71  1  0
 43 72  1  0
M  END
>  <Binding energies>  (1) 
[-11.59]

>  <Ligand effiencies>  (1) 
[-0.24145833333333333]

>  <Interactions>  (1) 
["V-A:LEU:363:CA:3184, V-A:TYR:539:CG:4871, V-A:TYR:539:CZ:4876, V-A:ASP:366:CG:3212, V-A:ASN:362:C:3171, V-A:PRO:540:CB:4884, V-A:TYR:539:CE1:4874, V-A:TYR:539:CD1:4872, V-A:ASP:366:CB:3211, H-A:TYR:531:OH:4794, V-A:PRO:540:CA:4882, V-A:TYR:531:CZ:4793, V-A:ILE:538:CA:4859, V-B:ALA:541:CB:9863, V-A:LEU:475:CD2:4258, V-B:TYR:539:CD2:9845, V-A:ILE:369:CG2:3236, V-B:TYR:539:CE2:9847, V-A:SER:385:CA:3406, V-A:SER:385:CB:3408, H-B:TYR:539:OH:9849, H-A:GLY:454:N:4049, V-A:ARG:545:CZ:4925, V-A:GLU:543:CD:4907, H-A:ASP:366:OD2:3214, V-A:TYR:531:CE1:4791, V-A:PRO:540:N:4883, V-A:MET:535:CG:4832, V-A:TYR:539:C:4866, V-A:ASN:362:CB:3175, V-A:ALA:541:C:4887, V-A:PRO:540:C:4880, V-A:ASN:370:CB:3244, V-A:ASN:362:CA:3173"]

$$$$
RR19_Rahimova_2017-again1
     RDKit          3D

 71 76  0  0  0  0  0  0  0  0999 V2000
  133.3120  124.2940   59.1130 O   0  0  0  0  0  0  0  0  0  0  0  0
  132.3100  124.2410   59.8310 C   0  0  0  0  0  0  0  0  0  0  0  0
  131.1410  124.8860   59.6070 N   0  0  0  0  0  0  0  0  0  0  0  0
  130.6680  125.6110   58.5490 C   0  0  0  0  0  0  0  0  0  0  0  0
  131.4330  126.0830   57.1290 S   0  0  0  0  0  0  0  0  0  0  0  0
  129.3300  125.8570   58.8040 N   0  0  0  0  0  0  0  0  0  0  0  0
  128.4760  125.1360   59.4550 C   0  0  0  0  0  0  0  0  0  0  0  0
  128.6340  124.0780   60.0960 O   0  0  0  0  0  0  0  0  0  0  0  0
  127.0000  125.6570   59.4280 C   0  0  2  0  0  0  0  0  0  0  0  0
  125.9790  124.4750   59.3400 C   0  0  0  0  0  0  0  0  0  0  0  0
  126.0350  123.6850   58.0350 C   0  0  0  0  0  0  0  0  0  0  0  0
  127.2370  123.1030   57.6230 C   0  0  0  0  0  0  0  0  0  0  0  0
  127.2860  122.3700   56.4410 C   0  0  0  0  0  0  0  0  0  0  0  0
  126.1320  122.2220   55.6710 C   0  0  0  0  0  0  0  0  0  0  0  0
  124.9310  122.8030   56.0740 C   0  0  0  0  0  0  0  0  0  0  0  0
  124.8830  123.5380   57.2560 C   0  0  0  0  0  0  0  0  0  0  0  0
  126.7690  126.7570   58.4340 N   0  0  0  0  0  0  0  0  0  0  0  0
  126.0480  127.8680   58.7530 C   0  0  0  0  0  0  0  0  0  0  0  0
  125.4990  128.1210   59.8260 O   0  0  0  0  0  0  0  0  0  0  0  0
  126.0600  128.7110   57.5290 C   0  0  0  0  0  0  0  0  0  0  0  0
  125.4830  129.9550   57.2700 C   0  0  0  0  0  0  0  0  0  0  0  0
  125.6610  130.5240   56.0050 C   0  0  0  0  0  0  0  0  0  0  0  0
  126.4060  129.8540   55.0260 C   0  0  0  0  0  0  0  0  0  0  0  0
  126.9770  128.6080   55.3060 C   0  0  0  0  0  0  0  0  0  0  0  0
  126.7870  128.0560   56.5740 C   0  0  0  0  0  0  0  0  0  0  0  0
  127.2600  126.7780   57.1570 C   0  0  0  0  0  0  0  0  0  0  0  0
  127.9490  125.9210   56.6040 O   0  0  0  0  0  0  0  0  0  0  0  0
  132.3340  123.3740   61.1250 C   0  0  2  0  0  0  0  0  0  0  0  0
  131.2520  122.2570   61.1500 C   0  0  0  0  0  0  0  0  0  0  0  0
  131.8110  120.8530   61.0040 C   0  0  0  0  0  0  0  0  0  0  0  0
  130.9670  119.7350   61.1720 C   0  0  0  0  0  0  0  0  0  0  0  0
  131.4550  118.4550   60.9410 C   0  0  0  0  0  0  0  0  0  0  0  0
  132.7660  118.2710   60.5170 C   0  0  0  0  0  0  0  0  0  0  0  0
  133.5960  119.3650   60.3110 C   0  0  0  0  0  0  0  0  0  0  0  0
  133.1270  120.6530   60.5360 C   0  0  0  0  0  0  0  0  0  0  0  0
  132.3500  124.1690   62.3900 N   0  0  0  0  0  0  0  0  0  0  0  0
  131.2060  124.6810   62.9260 C   0  0  0  0  0  0  0  0  0  0  0  0
  130.0730  124.6440   62.4450 O   0  0  0  0  0  0  0  0  0  0  0  0
  131.6110  125.2850   64.2190 C   0  0  0  0  0  0  0  0  0  0  0  0
  130.8610  125.9390   65.1980 C   0  0  0  0  0  0  0  0  0  0  0  0
  131.5140  126.3970   66.3480 C   0  0  0  0  0  0  0  0  0  0  0  0
  132.8930  126.2000   66.5020 C   0  0  0  0  0  0  0  0  0  0  0  0
  133.6280  125.5440   65.5090 C   0  0  0  0  0  0  0  0  0  0  0  0
  132.9570  125.0940   64.3710 C   0  0  0  0  0  0  0  0  0  0  0  0
  133.4480  124.3540   63.1820 C   0  0  0  0  0  0  0  0  0  0  0  0
  134.6000  123.9770   62.9630 O   0  0  0  0  0  0  0  0  0  0  0  0
  130.4480  124.7330   60.3240 H   0  0  0  0  0  0  0  0  0  0  0  0
  126.8122  126.1467   60.3949 H   0  0  0  0  0  0  0  0  0  0  0  0
  126.1832  123.7823   60.1698 H   0  0  0  0  0  0  0  0  0  0  0  0
  124.9761  124.9239   59.3908 H   0  0  0  0  0  0  0  0  0  0  0  0
  128.1443  123.2243   58.2330 H   0  0  0  0  0  0  0  0  0  0  0  0
  128.2303  121.9094   56.1153 H   0  0  0  0  0  0  0  0  0  0  0  0
  126.1704  121.6415   54.7374 H   0  0  0  0  0  0  0  0  0  0  0  0
  124.0254  122.6816   55.4615 H   0  0  0  0  0  0  0  0  0  0  0  0
  123.9390  124.0028   57.5768 H   0  0  0  0  0  0  0  0  0  0  0  0
  124.9009  130.4766   58.0440 H   0  0  0  0  0  0  0  0  0  0  0  0
  125.2136  131.5028   55.7775 H   0  0  0  0  0  0  0  0  0  0  0  0
  126.5424  130.3091   54.0339 H   0  0  0  0  0  0  0  0  0  0  0  0
  127.5632  128.0746   54.5432 H   0  0  0  0  0  0  0  0  0  0  0  0
  133.3056  122.8601   61.0806 H   0  0  0  0  0  0  0  0  0  0  0  0
  130.7144  122.3175   62.1078 H   0  0  0  0  0  0  0  0  0  0  0  0
  130.5956  122.4300   60.2844 H   0  0  0  0  0  0  0  0  0  0  0  0
  129.9223  119.8769   61.4860 H   0  0  0  0  0  0  0  0  0  0  0  0
  130.8014  117.5836   61.0942 H   0  0  0  0  0  0  0  0  0  0  0  0
  133.1477  117.2540   60.3439 H   0  0  0  0  0  0  0  0  0  0  0  0
  134.6298  119.2110   59.9680 H   0  0  0  0  0  0  0  0  0  0  0  0
  133.7816  121.5171   60.3493 H   0  0  0  0  0  0  0  0  0  0  0  0
  129.7793  126.0912   65.0683 H   0  0  0  0  0  0  0  0  0  0  0  0
  130.9430  126.9134   67.1337 H   0  0  0  0  0  0  0  0  0  0  0  0
  133.3999  126.5631   67.4082 H   0  0  0  0  0  0  0  0  0  0  0  0
  134.7107  125.3863   65.6225 H   0  0  0  0  0  0  0  0  0  0  0  0
  1  2  2  0
  2  3  1  0
  3  4  1  0
  4  5  2  0
  4  6  1  0
  6  7  2  0
  7  8  1  0
  7  9  1  0
  9 10  1  0
 10 11  1  0
 11 12  2  0
 12 13  1  0
 13 14  2  0
 14 15  1  0
 15 16  2  0
  9 17  1  0
 17 18  1  0
 18 19  2  0
 18 20  1  0
 20 21  2  0
 21 22  1  0
 22 23  2  0
 23 24  1  0
 24 25  2  0
 25 26  1  0
 26 27  2  0
  2 28  1  0
 28 29  1  0
 29 30  1  0
 30 31  2  0
 31 32  1  0
 32 33  2  0
 33 34  1  0
 34 35  2  0
 28 36  1  0
 36 37  1  0
 37 38  2  0
 37 39  1  0
 39 40  2  0
 40 41  1  0
 41 42  2  0
 42 43  1  0
 43 44  2  0
 44 45  1  0
 45 46  2  0
 16 11  1  0
 26 17  1  0
 35 30  1  0
 45 36  1  0
 25 20  1  0
 44 39  1  0
  3 47  1  0
  9 48  1  1
 10 49  1  0
 10 50  1  0
 12 51  1  0
 13 52  1  0
 14 53  1  0
 15 54  1  0
 16 55  1  0
 21 56  1  0
 22 57  1  0
 23 58  1  0
 24 59  1  0
 28 60  1  6
 29 61  1  0
 29 62  1  0
 31 63  1  0
 32 64  1  0
 33 65  1  0
 34 66  1  0
 35 67  1  0
 40 68  1  0
 41 69  1  0
 42 70  1  0
 43 71  1  0
M  CHG  1   8  -1
M  END
>  <Binding energies>  (1) 
[-10.88]

>  <Ligand effiencies>  (1) 
[-0.23148936170212767]

>  <Interactions>  (1) 
["V-A:ASP:366:CG:3212, V-B:PRO:540:N:9855, V-B:PRO:540:CA:9854, V-B:TYR:539:C:9838, V-A:LEU:475:CD2:4258, V-B:TYR:539:CD2:9845, V-A:ILE:369:CG2:3236, V-B:TYR:539:CE2:9847, V-A:SER:385:CA:3406, V-A:SER:385:CB:3408, V-A:GLY:454:CA:4048, V-B:TYR:539:CG:9843, V-B:MET:535:CE:9806, H-B:TYR:539:OH:9849, V-B:PRO:540:CB:9856, H-A:GLY:454:N:4049, V-B:TYR:539:CA:9840, V-A:ARG:545:CD:4922, V-B:TYR:539:CD1:9844, V-B:TYR:531:CZ:9765, V-B:TYR:531:CE2:9764, V-B:LEU:363:CD1:8159, V-A:ARG:545:CZ:4925, V-B:ILE:538:CD1:9836, V-A:ARG:545:CG:4921, V-B:ILE:538:CG2:9834, V-B:ILE:538:CA:9831, V-B:TYR:539:CE1:9846, V-B:ILE:538:C:9829, V-A:MET:535:CE:4834, H-B:TYR:531:OH:9766, V-B:MET:535:CG:9804, V-B:TYR:531:CE1:9763"]

$$$$
RR1_Rahimova_2017
     RDKit          3D

 68 71  0  0  0  0  0  0  0  0999 V2000
  125.0940  122.3640   55.6200 C   0  0  0  0  0  0  0  0  0  0  0  0
  126.4830  122.3690   55.9290 O   0  0  0  0  0  0  0  0  0  0  0  0
  126.8900  122.7290   57.1990 C   0  0  0  0  0  0  0  0  0  0  0  0
  126.0450  123.2820   58.1740 C   0  0  0  0  0  0  0  0  0  0  0  0
  126.5470  123.6220   59.4260 C   0  0  0  0  0  0  0  0  0  0  0  0
  127.8940  123.4120   59.7290 C   0  0  0  0  0  0  0  0  0  0  0  0
  128.3160  123.8300   61.0050 N   0  0  0  0  0  0  0  0  0  0  0  0
  127.8280  123.4970   62.2190 C   0  0  0  0  0  0  0  0  0  0  0  0
  126.8390  122.7880   62.4070 O   0  0  0  0  0  0  0  0  0  0  0  0
  128.6080  124.0850   63.4050 C   0  0  0  0  0  0  0  0  0  0  0  0
  129.2020  122.8690   64.6330 S   0  0  0  0  0  0  0  0  0  0  0  0
  130.5180  122.1880   63.6800 C   0  0  0  0  0  0  0  0  0  0  0  0
  130.3680  121.2460   62.7850 N   0  0  0  0  0  0  0  0  0  0  0  0
  131.5960  121.0550   62.3150 C   0  0  0  0  0  0  0  0  0  0  0  0
  131.8970  120.0530   61.2370 C   0  0  0  0  0  0  0  0  0  0  0  0
  131.0910  118.9210   61.0400 C   0  0  0  0  0  0  0  0  0  0  0  0
  131.3970  118.0050   60.0310 C   0  0  0  0  0  0  0  0  0  0  0  0
  132.5150  118.2450   59.2340 C   0  0  0  0  0  0  0  0  0  0  0  0
  133.3170  119.3280   59.3970 N   0  0  0  0  0  0  0  0  0  0  0  0
  133.0000  120.2060   60.3820 C   0  0  0  0  0  0  0  0  0  0  0  0
  132.5330  121.8100   62.8570 N   0  0  0  0  0  0  0  0  0  0  0  0
  131.8420  122.5390   63.7380 N   0  0  0  0  0  0  0  0  0  0  0  0
  132.5140  123.5480   64.5570 C   0  0  0  0  0  0  0  0  0  0  0  0
  132.6590  124.9300   63.8960 C   0  0  0  0  0  0  0  0  0  0  0  0
  133.7760  125.4120   63.6760 O   0  0  0  0  0  0  0  0  0  0  0  0
  131.4970  125.5420   63.5970 N   0  0  0  0  0  0  0  0  0  0  0  0
  131.5480  126.7220   62.8680 N   0  0  0  0  0  0  0  0  0  0  0  0
  130.4950  127.0190   62.0760 C   0  0  0  0  0  0  0  0  0  0  0  0
  129.4490  126.3620   62.0380 O   0  0  0  0  0  0  0  0  0  0  0  0
  130.6480  128.2610   61.2210 C   0  0  0  0  0  0  0  0  0  0  0  0
  130.4710  128.1810   59.8350 C   0  0  0  0  0  0  0  0  0  0  0  0
  130.6180  129.3060   59.0300 C   0  0  0  0  0  0  0  0  0  0  0  0
  130.9560  130.5490   59.5880 C   0  0  0  0  0  0  0  0  0  0  0  0
  131.1310  131.7020   58.8430 O   0  0  0  0  0  0  0  0  0  0  0  0
  130.0840  132.6630   58.7830 C   0  0  0  0  0  0  0  0  0  0  0  0
  131.1450  130.6480   60.9730 C   0  0  0  0  0  0  0  0  0  0  0  0
  131.4970  131.8920   61.4710 O   0  0  0  0  0  0  0  0  0  0  0  0
  132.8340  132.1270   61.8960 C   0  0  0  0  0  0  0  0  0  0  0  0
  130.9860  129.5050   61.7770 C   0  0  0  0  0  0  0  0  0  0  0  0
  128.7410  122.8580   58.7570 C   0  0  0  0  0  0  0  0  0  0  0  0
  128.2350  122.5180   57.5060 C   0  0  0  0  0  0  0  0  0  0  0  0
  124.5109  122.3619   56.5527 H   0  0  0  0  0  0  0  0  0  0  0  0
  124.8455  123.2613   55.0342 H   0  0  0  0  0  0  0  0  0  0  0  0
  124.8519  121.4650   55.0342 H   0  0  0  0  0  0  0  0  0  0  0  0
  124.9814  123.4472   57.9471 H   0  0  0  0  0  0  0  0  0  0  0  0
  125.8786  124.0592   60.1824 H   0  0  0  0  0  0  0  0  0  0  0  0
  129.0710  124.5010   60.9950 H   0  0  0  0  0  0  0  0  0  0  0  0
  129.4830  124.6182   63.0048 H   0  0  0  0  0  0  0  0  0  0  0  0
  127.9006  124.7354   63.9403 H   0  0  0  0  0  0  0  0  0  0  0  0
  130.2143  118.7545   61.6832 H   0  0  0  0  0  0  0  0  0  0  0  0
  130.7706  117.1154   59.8692 H   0  0  0  0  0  0  0  0  0  0  0  0
  132.7580  117.5255   58.4383 H   0  0  0  0  0  0  0  0  0  0  0  0
  133.6437  121.0875   60.5182 H   0  0  0  0  0  0  0  0  0  0  0  0
  131.9380  123.6726   65.4858 H   0  0  0  0  0  0  0  0  0  0  0  0
  133.5364  123.1779   64.7238 H   0  0  0  0  0  0  0  0  0  0  0  0
  130.5940  125.0880   63.5740 H   0  0  0  0  0  0  0  0  0  0  0  0
  132.4930  126.9430   62.5900 H   0  0  0  0  0  0  0  0  0  0  0  0
  130.2121  127.2155   59.3759 H   0  0  0  0  0  0  0  0  0  0  0  0
  130.4676  129.2206   57.9437 H   0  0  0  0  0  0  0  0  0  0  0  0
  129.7819  132.9403   59.8037 H   0  0  0  0  0  0  0  0  0  0  0  0
  130.4376  133.5576   58.2494 H   0  0  0  0  0  0  0  0  0  0  0  0
  129.2229  132.2343   58.2494 H   0  0  0  0  0  0  0  0  0  0  0  0
  132.8735  132.1339   62.9953 H   0  0  0  0  0  0  0  0  0  0  0  0
  133.4867  131.3298   61.5107 H   0  0  0  0  0  0  0  0  0  0  0  0
  133.1757  133.0990   61.5107 H   0  0  0  0  0  0  0  0  0  0  0  0
  131.1295  129.5875   62.8645 H   0  0  0  0  0  0  0  0  0  0  0  0
  129.8046  122.6925   58.9838 H   0  0  0  0  0  0  0  0  0  0  0  0
  128.9027  122.0780   56.7506 H   0  0  0  0  0  0  0  0  0  0  0  0
  1  2  1  0
  2  3  1  0
  3  4  2  0
  4  5  1  0
  5  6  2  0
  6  7  1  0
  7  8  1  0
  8  9  2  0
  8 10  1  0
 10 11  1  0
 11 12  1  0
 12 13  2  0
 13 14  1  0
 14 15  1  0
 15 16  2  0
 16 17  1  0
 17 18  2  0
 18 19  1  0
 19 20  2  0
 14 21  2  0
 21 22  1  0
 22 23  1  0
 23 24  1  0
 24 25  2  0
 24 26  1  0
 26 27  1  0
 27 28  1  0
 28 29  2  0
 28 30  1  0
 30 31  2  0
 31 32  1  0
 32 33  2  0
 33 34  1  0
 34 35  1  0
 33 36  1  0
 36 37  1  0
 37 38  1  0
 36 39  2  0
  6 40  1  0
 40 41  2  0
 41  3  1  0
 22 12  1  0
 39 30  1  0
 20 15  1  0
  1 42  1  0
  1 43  1  0
  1 44  1  0
  4 45  1  0
  5 46  1  0
  7 47  1  0
 10 48  1  0
 10 49  1  0
 16 50  1  0
 17 51  1  0
 18 52  1  0
 20 53  1  0
 23 54  1  0
 23 55  1  0
 26 56  1  0
 27 57  1  0
 31 58  1  0
 32 59  1  0
 35 60  1  0
 35 61  1  0
 35 62  1  0
 38 63  1  0
 38 64  1  0
 38 65  1  0
 39 66  1  0
 40 67  1  0
 41 68  1  0
M  END
>  <Binding energies>  (1) 
[-9.37]

>  <Ligand effiencies>  (1) 
[-0.21295454545454542]

>  <Interactions>  (1) 
["V-A:ASP:366:CG:3212, H-A:ALA:541:N:4890, V-A:PRO:540:CB:4884, V-A:PRO:540:CA:4882, V-B:GLU:543:CD:9879, V-B:PRO:540:N:9855, H-B:ALA:541:N:9862, V-B:ALA:541:CB:9863, V-B:PRO:540:CA:9854, H-B:GLU:543:OE2:9881, V-B:TYR:539:C:9838, V-A:LEU:475:CD2:4258, V-B:TYR:539:CD2:9845, V-A:ILE:369:CG2:3236, V-B:TYR:539:CE2:9847, V-B:TYR:539:CB:9842, V-A:GLY:454:CA:4048, H-B:TYR:539:N:9841, V-B:TYR:539:CG:9843, V-B:MET:535:CE:9806, V-B:TYR:539:CZ:9848, V-B:PRO:540:CB:9856, H-A:GLY:454:N:4049, V-B:TYR:539:CA:9840, V-B:TYR:539:CD1:9844, V-B:PRO:540:CD:9858, V-B:TYR:531:CE2:9764, V-B:LEU:363:CD1:8159, V-B:ILE:538:CD1:9836, V-B:ILE:538:CG2:9834, V-A:GLU:543:CD:4907, H-A:ASP:366:OD2:3214, H-A:ARG:545:NH1:4926, H-A:ARG:545:NH2:4927, V-B:ILE:538:CA:9831, V-B:TYR:539:CE1:9846, V-B:ILE:538:CB:9833, V-A:LEU:373:CG:3278, V-A:LEU:373:CD2:3280, H-A:ASP:366:OD1:3213, V-A:PRO:540:N:4883, V-A:TYR:539:C:4866, V-A:ASN:362:CB:3175"]

$$$$
RR20_Rahimova_2017
     RDKit          3D

 68 73  0  0  0  0  0  0  0  0999 V2000
  133.4160  130.7010   61.4730 C   0  0  0  0  0  0  0  0  0  0  0  0
  133.0340  131.2340   60.1040 C   0  0  0  0  0  0  0  0  0  0  0  0
  131.9710  132.1290   59.9800 C   0  0  0  0  0  0  0  0  0  0  0  0
  131.6240  132.6260   58.7260 C   0  0  0  0  0  0  0  0  0  0  0  0
  132.3290  132.2240   57.5860 C   0  0  0  0  0  0  0  0  0  0  0  0
  131.9500  132.7920   56.2370 C   0  0  0  0  0  0  0  0  0  0  0  0
  132.8520  133.2680   55.5430 O   0  0  0  0  0  0  0  0  0  0  0  0
  130.6460  132.7460   55.8340 N   0  0  0  0  0  0  0  0  0  0  0  0
  130.2050  133.3690   54.5750 C   0  0  0  0  0  0  0  0  0  0  0  0
  128.7470  132.9830   54.3940 C   0  0  0  0  0  0  0  0  0  0  0  0
  128.5760  131.8590   55.3700 C   0  0  0  0  0  0  0  0  0  0  0  0
  127.4620  131.0480   55.5900 C   0  0  0  0  0  0  0  0  0  0  0  0
  127.4340  130.1510   56.6650 C   0  0  0  0  0  0  0  0  0  0  0  0
  126.2380  129.2700   56.8970 C   0  0  0  0  0  0  0  0  0  0  0  0
  126.4010  128.1640   57.6060 N   0  0  0  0  0  0  0  0  0  0  0  0
  125.2920  127.4850   57.7610 C   0  0  0  0  0  0  0  0  0  0  0  0
  125.1090  126.2940   58.4470 N   0  0  0  0  0  0  0  0  0  0  0  0
  125.6180  125.0810   58.1240 C   0  0  0  0  0  0  0  0  0  0  0  0
  126.3530  124.8780   57.1560 O   0  0  0  0  0  0  0  0  0  0  0  0
  125.2780  123.8820   59.0410 C   0  0  0  0  0  0  0  0  0  0  0  0
  126.4620  123.3180   59.7150 N   0  0  0  0  0  0  0  0  0  0  0  0
  127.7150  123.6500   59.0210 C   0  0  0  0  0  0  0  0  0  0  0  0
  128.8830  122.8240   59.6060 C   0  0  0  0  0  0  0  0  0  0  0  0
  128.8970  122.8090   61.1340 C   0  0  0  0  0  0  0  0  0  0  0  0
  130.0130  122.3470   61.8400 C   0  0  0  0  0  0  0  0  0  0  0  0
  130.0120  122.2970   63.2320 C   0  0  0  0  0  0  0  0  0  0  0  0
  128.8880  122.7130   63.9380 C   0  0  0  0  0  0  0  0  0  0  0  0
  127.7730  123.1840   63.2480 C   0  0  0  0  0  0  0  0  0  0  0  0
  127.7610  123.2380   61.8500 C   0  0  0  0  0  0  0  0  0  0  0  0
  126.5590  123.8090   61.0950 C   0  0  0  0  0  0  0  0  0  0  0  0
  123.9170  128.1860   57.0020 S   0  0  0  0  0  0  0  0  0  0  0  0
  124.9260  129.4910   56.4260 C   0  0  0  0  0  0  0  0  0  0  0  0
  124.3450  130.5840   55.5560 C   0  0  0  0  0  0  0  0  0  0  0  0
  128.5260  130.1290   57.5470 C   0  0  0  0  0  0  0  0  0  0  0  0
  129.6320  130.9530   57.3410 C   0  0  0  0  0  0  0  0  0  0  0  0
  129.6840  131.7830   56.2140 C   0  0  0  0  0  0  0  0  0  0  0  0
  133.4140  131.3480   57.7230 C   0  0  0  0  0  0  0  0  0  0  0  0
  133.7620  130.8510   58.9760 C   0  0  0  0  0  0  0  0  0  0  0  0
  132.9634  131.3325   62.2517 H   0  0  0  0  0  0  0  0  0  0  0  0
  133.0507  129.6689   61.5797 H   0  0  0  0  0  0  0  0  0  0  0  0
  134.5107  130.7153   61.5797 H   0  0  0  0  0  0  0  0  0  0  0  0
  131.4076  132.4418   60.8715 H   0  0  0  0  0  0  0  0  0  0  0  0
  130.7912  133.3384   58.6312 H   0  0  0  0  0  0  0  0  0  0  0  0
  130.3043  134.4628   54.6364 H   0  0  0  0  0  0  0  0  0  0  0  0
  130.8162  133.0290   53.7260 H   0  0  0  0  0  0  0  0  0  0  0  0
  128.0815  133.8241   54.6381 H   0  0  0  0  0  0  0  0  0  0  0  0
  128.4963  132.7032   53.3601 H   0  0  0  0  0  0  0  0  0  0  0  0
  126.5978  131.1139   54.9127 H   0  0  0  0  0  0  0  0  0  0  0  0
  124.5250  126.3430   59.2710 H   0  0  0  0  0  0  0  0  0  0  0  0
  124.5651  124.2186   59.8082 H   0  0  0  0  0  0  0  0  0  0  0  0
  124.8538  123.0912   58.4048 H   0  0  0  0  0  0  0  0  0  0  0  0
  127.6089  123.4218   57.9502 H   0  0  0  0  0  0  0  0  0  0  0  0
  127.9284  124.7205   59.1570 H   0  0  0  0  0  0  0  0  0  0  0  0
  128.7947  121.7883   59.2461 H   0  0  0  0  0  0  0  0  0  0  0  0
  129.8191  123.2960   59.2729 H   0  0  0  0  0  0  0  0  0  0  0  0
  130.9053  122.0181   61.2871 H   0  0  0  0  0  0  0  0  0  0  0  0
  130.8975  121.9296   63.7714 H   0  0  0  0  0  0  0  0  0  0  0  0
  128.8795  122.6703   65.0371 H   0  0  0  0  0  0  0  0  0  0  0  0
  126.8890  123.5184   63.8107 H   0  0  0  0  0  0  0  0  0  0  0  0
  125.6415  123.5274   61.6325 H   0  0  0  0  0  0  0  0  0  0  0  0
  126.6887  124.9003   61.0474 H   0  0  0  0  0  0  0  0  0  0  0  0
  123.9243  131.3755   56.1936 H   0  0  0  0  0  0  0  0  0  0  0  0
  125.1372  131.0072   54.9209 H   0  0  0  0  0  0  0  0  0  0  0  0
  123.5511  130.1640   54.9209 H   0  0  0  0  0  0  0  0  0  0  0  0
  128.5090  129.4516   58.4135 H   0  0  0  0  0  0  0  0  0  0  0  0
  130.4623  130.9511   58.0625 H   0  0  0  0  0  0  0  0  0  0  0  0
  133.9936  131.0516   56.8363 H   0  0  0  0  0  0  0  0  0  0  0  0
  134.6097  130.1573   59.0772 H   0  0  0  0  0  0  0  0  0  0  0  0
  1  2  1  0
  2  3  2  0
  3  4  1  0
  4  5  2  0
  5  6  1  0
  6  7  2  0
  6  8  1  0
  8  9  1  0
  9 10  1  0
 10 11  1  0
 11 12  2  0
 12 13  1  0
 13 14  1  0
 14 15  1  0
 15 16  2  0
 16 17  1  0
 17 18  1  0
 18 19  2  0
 18 20  1  0
 20 21  1  0
 21 22  1  0
 22 23  1  0
 23 24  1  0
 24 25  2  0
 25 26  1  0
 26 27  2  0
 27 28  1  0
 28 29  2  0
 29 30  1  0
 16 31  1  0
 31 32  1  0
 32 33  1  0
 13 34  2  0
 34 35  1  0
 35 36  2  0
  5 37  1  0
 37 38  2  0
 38  2  1  0
 36  8  1  0
 36 11  1  0
 32 14  2  0
 30 21  1  0
 29 24  1  0
  1 39  1  0
  1 40  1  0
  1 41  1  0
  3 42  1  0
  4 43  1  0
  9 44  1  0
  9 45  1  0
 10 46  1  0
 10 47  1  0
 12 48  1  0
 17 49  1  0
 20 50  1  0
 20 51  1  0
 22 52  1  0
 22 53  1  0
 23 54  1  0
 23 55  1  0
 25 56  1  0
 26 57  1  0
 27 58  1  0
 28 59  1  0
 30 60  1  0
 30 61  1  0
 33 62  1  0
 33 63  1  0
 33 64  1  0
 34 65  1  0
 35 66  1  0
 37 67  1  0
 38 68  1  0
M  END
>  <Binding energies>  (1) 
[-11.23]

>  <Ligand effiencies>  (1) 
[-0.28794871794871796]

>  <Interactions>  (1) 
["V-A:LEU:363:CA:3184, V-A:TYR:539:CZ:4876, V-A:ASP:366:CG:3212, V-A:ASN:362:C:3171, V-A:PRO:540:CB:4884, V-A:TYR:539:CE1:4874, V-A:ASP:366:CB:3211, V-A:TYR:539:CE2:4875, V-A:PRO:540:CA:4882, V-A:TYR:531:CE2:4792, V-A:TYR:531:CZ:4793, V-A:ILE:538:CA:4859, V-A:LEU:363:CD1:3188, V-B:GLU:543:CD:9879, V-B:ALA:541:CB:9863, V-B:PRO:540:CA:9854, V-B:ALA:541:CA:9861, V-B:TYR:539:C:9838, V-A:LEU:475:CD2:4258, V-B:TYR:539:CD2:9845, V-B:TYR:539:CE2:9847, V-B:GLU:543:CG:9878, V-B:PRO:540:CB:9856, V-B:TYR:531:CZ:9765, V-A:ARG:545:CZ:4925, V-A:ILE:538:CB:4861, V-A:ILE:538:CG2:4862, V-B:ASP:366:CB:8182, H-B:TYR:531:OH:9766, V-A:PRO:540:N:4883, V-B:ASP:366:CG:8183, V-A:MET:535:CG:4832, V-B:TYR:531:CE1:9763, V-A:TYR:539:C:4866, V-A:ASN:362:CB:3175, H-B:ASP:366:OD1:8184, V-A:MET:535:CB:4831, V-B:ASN:370:CB:8215, V-B:TYR:531:CD1:9761, V-B:ASP:366:C:8178, V-B:ASP:366:CA:8180"]

$$$$
RR20_Rahimova_2017-again1
     RDKit          3D

 68 73  0  0  0  0  0  0  0  0999 V2000
  134.7500  125.2800   76.4740 C   0  0  0  0  0  0  0  0  0  0  0  0
  133.6470  126.0220   75.7410 C   0  0  0  0  0  0  0  0  0  0  0  0
  133.8490  127.3410   75.3320 C   0  0  0  0  0  0  0  0  0  0  0  0
  132.8410  128.0200   74.6530 C   0  0  0  0  0  0  0  0  0  0  0  0
  131.6190  127.3910   74.3870 C   0  0  0  0  0  0  0  0  0  0  0  0
  130.5420  128.1390   73.6330 C   0  0  0  0  0  0  0  0  0  0  0  0
  130.3510  129.3200   73.9280 O   0  0  0  0  0  0  0  0  0  0  0  0
  129.8500  127.4960   72.6470 N   0  0  0  0  0  0  0  0  0  0  0  0
  128.9570  126.3650   72.9490 C   0  0  0  0  0  0  0  0  0  0  0  0
  128.2560  126.0130   71.6470 C   0  0  0  0  0  0  0  0  0  0  0  0
  128.5260  127.2130   70.7890 C   0  0  0  0  0  0  0  0  0  0  0  0
  128.0620  127.4970   69.5050 C   0  0  0  0  0  0  0  0  0  0  0  0
  128.5590  128.5990   68.7920 C   0  0  0  0  0  0  0  0  0  0  0  0
  128.0640  128.9020   67.4070 C   0  0  0  0  0  0  0  0  0  0  0  0
  128.9590  129.1240   66.4570 N   0  0  0  0  0  0  0  0  0  0  0  0
  128.4390  129.3890   65.2830 C   0  0  0  0  0  0  0  0  0  0  0  0
  129.0730  129.7040   64.1100 N   0  0  0  0  0  0  0  0  0  0  0  0
  128.7100  129.2980   62.9400 C   0  0  0  0  0  0  0  0  0  0  0  0
  127.7270  128.6310   62.5650 O   0  0  0  0  0  0  0  0  0  0  0  0
  129.6630  129.7270   61.8060 C   0  0  0  0  0  0  0  0  0  0  0  0
  130.4500  131.0020   62.2280 N   0  0  2  0  0  0  0  0  0  0  0  0
  129.6320  132.2950   62.0290 C   0  0  0  0  0  0  0  0  0  0  0  0
  129.3700  132.5270   60.5300 C   0  0  0  0  0  0  0  0  0  0  0  0
  130.6270  132.4030   59.6740 C   0  0  0  0  0  0  0  0  0  0  0  0
  130.6570  132.9760   58.3970 C   0  0  0  0  0  0  0  0  0  0  0  0
  131.7690  132.8420   57.5700 C   0  0  0  0  0  0  0  0  0  0  0  0
  132.8750  132.1280   58.0140 C   0  0  0  0  0  0  0  0  0  0  0  0
  132.8650  131.5630   59.2870 C   0  0  0  0  0  0  0  0  0  0  0  0
  131.7610  131.6940   60.1360 C   0  0  0  0  0  0  0  0  0  0  0  0
  131.8360  131.0930   61.5450 C   0  0  0  0  0  0  0  0  0  0  0  0
  126.7150  129.4040   65.2910 S   0  0  0  0  0  0  0  0  0  0  0  0
  126.7220  128.9800   66.9850 C   0  0  0  0  0  0  0  0  0  0  0  0
  125.4200  128.7470   67.7240 C   0  0  0  0  0  0  0  0  0  0  0  0
  129.5650  129.3760   69.3820 C   0  0  0  0  0  0  0  0  0  0  0  0
  130.0440  129.0840   70.6590 C   0  0  0  0  0  0  0  0  0  0  0  0
  129.4840  128.0290   71.3910 C   0  0  0  0  0  0  0  0  0  0  0  0
  131.4360  126.0570   74.7740 C   0  0  0  0  0  0  0  0  0  0  0  0
  132.4440  125.3780   75.4530 C   0  0  0  0  0  0  0  0  0  0  0  0
  134.6009  125.3803   77.5592 H   0  0  0  0  0  0  0  0  0  0  0  0
  134.7229  124.2158   76.1970 H   0  0  0  0  0  0  0  0  0  0  0  0
  135.7255  125.7062   76.1970 H   0  0  0  0  0  0  0  0  0  0  0  0
  134.8038  127.8436   75.5459 H   0  0  0  0  0  0  0  0  0  0  0  0
  133.0057  129.0565   74.3237 H   0  0  0  0  0  0  0  0  0  0  0  0
  129.5404  125.5058   73.3115 H   0  0  0  0  0  0  0  0  0  0  0  0
  128.2325  126.6272   73.7341 H   0  0  0  0  0  0  0  0  0  0  0  0
  128.6829  125.1027   71.2007 H   0  0  0  0  0  0  0  0  0  0  0  0
  127.1842  125.8003   71.7733 H   0  0  0  0  0  0  0  0  0  0  0  0
  127.2989  126.8509   69.0464 H   0  0  0  0  0  0  0  0  0  0  0  0
  130.3727  128.9125   61.5985 H   0  0  0  0  0  0  0  0  0  0  0  0
  129.0747  129.9473   60.9030 H   0  0  0  0  0  0  0  0  0  0  0  0
  130.6080  130.9140   63.2240 H   0  0  0  0  0  0  0  0  0  0  0  0
  128.6712  132.2030   62.5567 H   0  0  0  0  0  0  0  0  0  0  0  0
  130.1993  133.1467   62.4324 H   0  0  0  0  0  0  0  0  0  0  0  0
  128.6367  131.7836   60.1841 H   0  0  0  0  0  0  0  0  0  0  0  0
  128.9987  133.5564   60.4185 H   0  0  0  0  0  0  0  0  0  0  0  0
  129.7848  133.5433   58.0400 H   0  0  0  0  0  0  0  0  0  0  0  0
  131.7719  133.2994   56.5696 H   0  0  0  0  0  0  0  0  0  0  0  0
  133.7541  132.0095   57.3635 H   0  0  0  0  0  0  0  0  0  0  0  0
  133.7452  131.0010   59.6326 H   0  0  0  0  0  0  0  0  0  0  0  0
  132.2609  130.0809   61.4741 H   0  0  0  0  0  0  0  0  0  0  0  0
  132.4659  131.7556   62.1567 H   0  0  0  0  0  0  0  0  0  0  0  0
  125.6028  128.7797   68.8082 H   0  0  0  0  0  0  0  0  0  0  0  0
  124.6977  129.5302   67.4502 H   0  0  0  0  0  0  0  0  0  0  0  0
  125.0142  127.7620   67.4502 H   0  0  0  0  0  0  0  0  0  0  0  0
  129.9836  130.2299   68.8291 H   0  0  0  0  0  0  0  0  0  0  0  0
  130.8605  129.6814   71.0908 H   0  0  0  0  0  0  0  0  0  0  0  0
  130.4916  125.5438   74.5403 H   0  0  0  0  0  0  0  0  0  0  0  0
  132.2916  124.3335   75.7624 H   0  0  0  0  0  0  0  0  0  0  0  0
  1  2  1  0
  2  3  2  0
  3  4  1  0
  4  5  2  0
  5  6  1  0
  6  7  2  0
  6  8  1  0
  8  9  1  0
  9 10  1  0
 10 11  1  0
 11 12  2  0
 12 13  1  0
 13 14  1  0
 14 15  1  0
 15 16  2  0
 16 17  1  0
 17 18  2  0
 18 19  1  0
 18 20  1  0
 20 21  1  0
 21 22  1  0
 22 23  1  0
 23 24  1  0
 24 25  2  0
 25 26  1  0
 26 27  2  0
 27 28  1  0
 28 29  2  0
 29 30  1  0
 16 31  1  0
 31 32  1  0
 32 33  1  0
 13 34  2  0
 34 35  1  0
 35 36  2  0
  5 37  1  0
 37 38  2  0
 38  2  1  0
 36  8  1  0
 36 11  1  0
 32 14  2  0
 30 21  1  0
 29 24  1  0
  1 39  1  0
  1 40  1  0
  1 41  1  0
  3 42  1  0
  4 43  1  0
  9 44  1  0
  9 45  1  0
 10 46  1  0
 10 47  1  0
 12 48  1  0
 20 49  1  0
 20 50  1  0
 21 51  1  1
 22 52  1  0
 22 53  1  0
 23 54  1  0
 23 55  1  0
 25 56  1  0
 26 57  1  0
 27 58  1  0
 28 59  1  0
 30 60  1  0
 30 61  1  0
 33 62  1  0
 33 63  1  0
 33 64  1  0
 34 65  1  0
 35 66  1  0
 37 67  1  0
 38 68  1  0
M  CHG  2  19  -1  21   1
M  END
>  <Binding energies>  (1) 
[-10.2]

>  <Ligand effiencies>  (1) 
[-0.2615384615384615]

>  <Interactions>  (1) 
["V-A:LEU:363:CA:3184, V-A:PRO:540:CB:4884, H-A:GLU:543:OE2:4909, V-A:PRO:540:CA:4882, V-A:LEU:363:CD1:3188, V-B:GLU:543:CD:9879, V-A:HIS:456:CE1:4069, H-A:GLU:543:OE1:4908, V-B:GLU:543:CB:9877, V-A:GLU:543:CD:4907, V-B:HIS:456:CE1:9040, V-B:GLU:543:C:9873, V-A:GLU:543:CG:4906, V-B:ARG:545:CG:9893, V-A:GLY:544:C:4911, H-A:LYS:547:NZ:4950, V-A:GLU:543:CB:4905, V-A:GLU:543:C:4901, V-A:PRO:540:N:4883, V-A:ALA:541:CB:4891, V-A:TYR:539:C:4866, V-A:GLU:543:CA:4903, V-A:HIS:456:CB:4064, V-A:VAL:457:C:4072, V-A:HIS:456:C:4060, V-A:HIS:456:CG:4065, V-A:VAL:458:CG2:4086"]

$$$$
RR21_Rahimova_2017
     RDKit          3D

 62 67  0  0  0  0  0  0  0  0999 V2000
  134.5780  125.3960   67.0180 C   0  0  0  0  0  0  0  0  0  0  0  0
  133.5960  125.4680   65.9880 O   0  0  0  0  0  0  0  0  0  0  0  0
  132.4070  126.1290   66.2330 C   0  0  0  0  0  0  0  0  0  0  0  0
  131.9590  126.5010   67.5110 C   0  0  0  0  0  0  0  0  0  0  0  0
  130.7460  127.1690   67.6720 C   0  0  0  0  0  0  0  0  0  0  0  0
  129.9530  127.4870   66.5630 C   0  0  0  0  0  0  0  0  0  0  0  0
  128.6530  128.2090   66.7370 C   0  0  0  0  0  0  0  0  0  0  0  0
  128.2000  128.9870   65.7730 N   0  0  0  0  0  0  0  0  0  0  0  0
  127.0350  129.4940   66.2020 N   0  0  0  0  0  0  0  0  0  0  0  0
  126.2620  130.3660   65.3920 C   0  0  0  0  0  0  0  0  0  0  0  0
  126.7270  131.6520   65.0760 C   0  0  0  0  0  0  0  0  0  0  0  0
  125.9620  132.4970   64.2760 C   0  0  0  0  0  0  0  0  0  0  0  0
  124.7320  132.0600   63.7890 C   0  0  0  0  0  0  0  0  0  0  0  0
  124.2590  130.7870   64.0970 C   0  0  0  0  0  0  0  0  0  0  0  0
  125.0210  129.9400   64.8970 C   0  0  0  0  0  0  0  0  0  0  0  0
  126.7400  129.0130   67.4530 C   0  0  0  0  0  0  0  0  0  0  0  0
  127.7780  128.1810   67.8480 C   0  0  0  0  0  0  0  0  0  0  0  0
  127.8930  127.4070   69.0740 C   0  0  0  0  0  0  0  0  0  0  0  0
  128.6850  127.6470   70.1450 C   0  0  0  0  0  0  0  0  0  0  0  0
  129.8360  128.9820   70.3740 S   0  0  0  0  0  0  0  0  0  0  0  0
  130.2210  128.3570   71.9710 C   0  0  0  0  0  0  0  0  0  0  0  0
  131.0470  128.8510   72.8410 N   0  0  0  0  0  0  0  0  0  0  0  0
  131.2590  128.2500   74.1120 C   0  0  0  0  0  0  0  0  0  0  0  0
  132.0060  128.6660   74.9970 O   0  0  0  0  0  0  0  0  0  0  0  0
  130.4570  126.9960   74.3320 C   0  0  0  0  0  0  0  0  0  0  0  0
  130.6180  126.2470   75.6610 C   0  0  0  0  0  0  0  0  0  0  0  0
  130.6350  124.7260   75.5290 C   0  0  0  0  0  0  0  0  0  0  0  0
  130.2610  123.9250   76.6110 C   0  0  0  0  0  0  0  0  0  0  0  0
  130.2610  122.5380   76.4840 C   0  0  0  0  0  0  0  0  0  0  0  0
  130.6320  121.9490   75.2740 C   0  0  0  0  0  0  0  0  0  0  0  0
  130.6180  120.4370   75.1370 C   0  0  0  0  0  0  0  0  0  0  0  0
  130.9950  122.7480   74.1870 C   0  0  0  0  0  0  0  0  0  0  0  0
  130.9960  124.1340   74.3140 C   0  0  0  0  0  0  0  0  0  0  0  0
  129.6420  126.5120   73.4530 N   0  0  0  0  0  0  0  0  0  0  0  0
  129.5200  127.2130   72.2470 N   0  0  0  0  0  0  0  0  0  0  0  0
  128.6650  126.7580   71.2980 C   0  0  0  0  0  0  0  0  0  0  0  0
  127.9690  125.7410   71.4060 O   0  0  0  0  0  0  0  0  0  0  0  0
  130.3960  127.1110   65.2900 C   0  0  0  0  0  0  0  0  0  0  0  0
  131.6090  126.4410   65.1270 C   0  0  0  0  0  0  0  0  0  0  0  0
  132.0090  126.0930   63.8820 F   0  0  0  0  0  0  0  0  0  0  0  0
  134.0830  125.4323   67.9997 H   0  0  0  0  0  0  0  0  0  0  0  0
  135.1388  124.4543   66.9247 H   0  0  0  0  0  0  0  0  0  0  0  0
  135.2702  126.2458   66.9247 H   0  0  0  0  0  0  0  0  0  0  0  0
  132.5711  126.2630   68.3934 H   0  0  0  0  0  0  0  0  0  0  0  0
  130.4085  127.4491   68.6808 H   0  0  0  0  0  0  0  0  0  0  0  0
  127.6990  131.9936   65.4615 H   0  0  0  0  0  0  0  0  0  0  0  0
  126.3272  133.5049   64.0297 H   0  0  0  0  0  0  0  0  0  0  0  0
  124.1289  132.7268   63.1553 H   0  0  0  0  0  0  0  0  0  0  0  0
  123.2858  130.4516   63.7092 H   0  0  0  0  0  0  0  0  0  0  0  0
  124.6488  128.9342   65.1414 H   0  0  0  0  0  0  0  0  0  0  0  0
  125.8391  129.2460   68.0395 H   0  0  0  0  0  0  0  0  0  0  0  0
  127.2553  126.5131   69.1391 H   0  0  0  0  0  0  0  0  0  0  0  0
  131.5656  126.5631   76.1216 H   0  0  0  0  0  0  0  0  0  0  0  0
  129.7392  126.4995   76.2725 H   0  0  0  0  0  0  0  0  0  0  0  0
  129.9665  124.3899   77.5634 H   0  0  0  0  0  0  0  0  0  0  0  0
  129.9689  121.9072   77.3365 H   0  0  0  0  0  0  0  0  0  0  0  0
  130.6138  119.9783   76.1368 H   0  0  0  0  0  0  0  0  0  0  0  0
  129.7169  120.1269   74.5875 H   0  0  0  0  0  0  0  0  0  0  0  0
  131.5132  120.1103   74.5875 H   0  0  0  0  0  0  0  0  0  0  0  0
  131.2797  122.2823   73.2320 H   0  0  0  0  0  0  0  0  0  0  0  0
  131.2808  124.7642   73.4586 H   0  0  0  0  0  0  0  0  0  0  0  0
  129.7815  127.3461   64.4085 H   0  0  0  0  0  0  0  0  0  0  0  0
  1  2  1  0
  2  3  1  0
  3  4  2  0
  4  5  1  0
  5  6  2  0
  6  7  1  0
  7  8  2  0
  8  9  1  0
  9 10  1  0
 10 11  2  0
 11 12  1  0
 12 13  2  0
 13 14  1  0
 14 15  2  0
  9 16  1  0
 16 17  2  0
 17 18  1  0
 18 19  2  0
 19 20  1  0
 20 21  1  0
 21 22  2  0
 22 23  1  0
 23 24  2  0
 23 25  1  0
 25 26  1  0
 26 27  1  0
 27 28  2  0
 28 29  1  0
 29 30  2  0
 30 31  1  0
 30 32  1  0
 32 33  2  0
 25 34  2  0
 34 35  1  0
 35 36  1  0
 36 37  2  0
  6 38  1  0
 38 39  2  0
 39 40  1  0
 39  3  1  0
 17  7  1  0
 36 19  1  0
 15 10  1  0
 35 21  1  0
 33 27  1  0
  1 41  1  0
  1 42  1  0
  1 43  1  0
  4 44  1  0
  5 45  1  0
 11 46  1  0
 12 47  1  0
 13 48  1  0
 14 49  1  0
 15 50  1  0
 16 51  1  0
 18 52  1  0
 26 53  1  0
 26 54  1  0
 28 55  1  0
 29 56  1  0
 31 57  1  0
 31 58  1  0
 31 59  1  0
 32 60  1  0
 33 61  1  0
 38 62  1  0
M  END
>  <Binding energies>  (1) 
[-9.42]

>  <Ligand effiencies>  (1) 
[-0.2355]

>  <Interactions>  (1) 
["V-B:GLU:543:CD:9879, H-A:TYR:484:OH:4347, V-A:GLY:454:CA:4048, H-A:GLY:454:N:4049, V-A:GLY:453:C:4041, V-A:ARG:545:CD:4922, V-A:ARG:545:CZ:4925, V-A:ARG:545:CG:4921, V-A:HIS:456:CE1:4069, V-B:GLU:543:CB:9877, V-A:GLU:543:CD:4907, V-B:HIS:456:CE1:9040, V-A:HIS:456:CD2:4067, V-A:ASP:473:CG:4239, V-A:TYR:484:CB:4340, V-A:TYR:484:C:4336, H-A:LYS:547:NZ:4950, V-A:GLU:543:CB:4905, V-A:GLU:543:C:4901, V-A:GLY:453:CA:4043, H-A:ARG:545:NE:4923, V-A:HIS:456:CB:4064, V-A:HIS:456:CG:4065, H-A:HIS:456:ND1:4066, V-B:LEU:475:CD1:9228, V-B:GLY:454:CA:9019, V-A:GLY:454:C:4046"]

$$$$
RR22_Rahimova_2017
     RDKit          3D

 49 54  0  0  0  0  0  0  0  0999 V2000
  126.1090  123.1190   61.9850 O   0  0  0  0  0  0  0  0  0  0  0  0
  127.2350  123.5350   61.7180 C   0  0  0  0  0  0  0  0  0  0  0  0
  128.2970  123.7120   62.5870 N   0  0  0  0  0  0  0  0  0  0  0  0
  129.5700  124.1510   62.1010 C   0  0  1  0  0  0  0  0  0  0  0  0
  129.8770  125.3240   62.8600 O   0  0  0  0  0  0  0  0  0  0  0  0
  131.0390  125.3270   63.6330 C   0  0  0  0  0  0  0  0  0  0  0  0
  131.1220  126.3040   64.6260 C   0  0  0  0  0  0  0  0  0  0  0  0
  132.2700  126.3960   65.4130 C   0  0  0  0  0  0  0  0  0  0  0  0
  133.3350  125.5190   65.2010 C   0  0  0  0  0  0  0  0  0  0  0  0
  133.2520  124.5430   64.2070 C   0  0  0  0  0  0  0  0  0  0  0  0
  132.0970  124.4220   63.4270 C   0  0  0  0  0  0  0  0  0  0  0  0
  131.9250  123.4290   62.3000 C   0  0  1  0  0  0  0  0  0  0  0  0
  132.5760  122.0610   62.3140 C   0  0  0  0  0  0  0  0  0  0  0  0
  131.5470  121.2740   61.4970 C   0  0  0  0  0  0  0  0  0  0  0  0
  131.8530  119.9730   60.8680 C   0  0  0  0  0  0  0  0  0  0  0  0
  131.0460  118.8530   61.1170 C   0  0  0  0  0  0  0  0  0  0  0  0
  131.3380  117.6300   60.5200 C   0  0  0  0  0  0  0  0  0  0  0  0
  132.4370  117.5180   59.6740 C   0  0  0  0  0  0  0  0  0  0  0  0
  133.2480  118.6200   59.4170 C   0  0  0  0  0  0  0  0  0  0  0  0
  132.9570  119.8450   60.0110 C   0  0  0  0  0  0  0  0  0  0  0  0
  130.4200  121.8790   61.4670 N   0  0  0  0  0  0  0  0  0  0  0  0
  130.5450  123.0570   62.2240 N   0  0  0  0  0  0  0  0  0  0  0  0
  129.3570  124.5940   60.6610 C   0  0  0  0  0  0  0  0  0  0  0  0
  130.2370  125.3760   59.9930 C   0  0  0  0  0  0  0  0  0  0  0  0
  130.1650  125.8590   58.6000 C   0  0  0  0  0  0  0  0  0  0  0  0
  128.9550  126.0990   57.9330 C   0  0  0  0  0  0  0  0  0  0  0  0
  128.9650  126.5550   56.6140 C   0  0  0  0  0  0  0  0  0  0  0  0
  130.1950  126.7560   55.9890 C   0  0  0  0  0  0  0  0  0  0  0  0
  131.3800  126.5240   56.6060 N   0  0  0  0  0  0  0  0  0  0  0  0
  131.3500  126.0810   57.8890 C   0  0  0  0  0  0  0  0  0  0  0  0
  127.7890  124.0340   60.0600 S   0  0  0  0  0  0  0  0  0  0  0  0
  128.1810  123.5780   63.5800 H   0  0  0  0  0  0  0  0  0  0  0  0
  130.2850  126.9992   64.7876 H   0  0  0  0  0  0  0  0  0  0  0  0
  132.3361  127.1603   66.2013 H   0  0  0  0  0  0  0  0  0  0  0  0
  134.2417  125.5974   65.8188 H   0  0  0  0  0  0  0  0  0  0  0  0
  134.1005  123.8642   64.0357 H   0  0  0  0  0  0  0  0  0  0  0  0
  132.4061  124.0077   61.4977 H   0  0  0  0  0  0  0  0  0  0  0  0
  133.5624  122.0724   61.8274 H   0  0  0  0  0  0  0  0  0  0  0  0
  132.7841  121.6551   63.3150 H   0  0  0  0  0  0  0  0  0  0  0  0
  130.1783  118.9416   61.7872 H   0  0  0  0  0  0  0  0  0  0  0  0
  130.7017  116.7545   60.7165 H   0  0  0  0  0  0  0  0  0  0  0  0
  132.6670  116.5503   59.2042 H   0  0  0  0  0  0  0  0  0  0  0  0
  134.1152  118.5232   58.7473 H   0  0  0  0  0  0  0  0  0  0  0  0
  133.5957  120.7172   59.8076 H   0  0  0  0  0  0  0  0  0  0  0  0
  131.1224  125.6934   60.5633 H   0  0  0  0  0  0  0  0  0  0  0  0
  127.9987  125.9280   58.4490 H   0  0  0  0  0  0  0  0  0  0  0  0
  128.0238  126.7514   56.0796 H   0  0  0  0  0  0  0  0  0  0  0  0
  130.2045  127.1185   54.9505 H   0  0  0  0  0  0  0  0  0  0  0  0
  132.3066  125.8865   58.3960 H   0  0  0  0  0  0  0  0  0  0  0  0
  1  2  2  0
  2  3  1  0
  3  4  1  0
  4  5  1  1
  5  6  1  0
  6  7  2  0
  7  8  1  0
  8  9  2  0
  9 10  1  0
 10 11  2  0
 11 12  1  0
 12 13  1  0
 13 14  1  0
 14 15  1  0
 15 16  2  0
 16 17  1  0
 17 18  2  0
 18 19  1  0
 19 20  2  0
 14 21  2  0
 21 22  1  0
  4 23  1  0
 23 24  2  0
 24 25  1  0
 25 26  2  0
 26 27  1  0
 27 28  2  0
 28 29  1  0
 29 30  2  0
 23 31  1  0
 31  2  1  0
 22  4  1  0
 30 25  1  0
 11  6  1  0
 22 12  1  0
 20 15  1  0
  3 32  1  0
  7 33  1  0
  8 34  1  0
  9 35  1  0
 10 36  1  0
 12 37  1  6
 13 38  1  0
 13 39  1  0
 16 40  1  0
 17 41  1  0
 18 42  1  0
 19 43  1  0
 20 44  1  0
 24 45  1  0
 26 46  1  0
 27 47  1  0
 28 48  1  0
 30 49  1  0
M  END
>  <Binding energies>  (1) 
[-9.29]

>  <Ligand effiencies>  (1) 
[-0.2903125]

>  <Interactions>  (1) 
["H-A:TYR:531:OH:4794, H-B:ALA:541:N:9862, V-B:PRO:540:CA:9854, H-B:GLU:543:OE2:9881, V-A:LEU:475:CD2:4258, V-A:HIS:383:CE1:3393, V-B:TYR:539:CD2:9845, V-A:ILE:369:CG2:3236, V-B:TYR:539:CE2:9847, V-A:SER:385:CA:3406, V-A:GLY:454:CA:4048, V-B:MET:535:CE:9806, H-B:TYR:539:OH:9849, V-A:ARG:545:CZ:4925, V-A:GLU:543:CD:4907, V-A:LEU:373:CD2:3280, V-A:MET:535:CE:4834, V-A:TYR:531:CE1:4791, V-A:VAL:384:C:3396"]

$$$$
RR23_Rahimova_2017
     RDKit          3D

 65 70  0  0  0  0  0  0  0  0999 V2000
  132.4700  117.4790   58.9770 C   0  0  0  0  0  0  0  0  0  0  0  0
  132.1420  118.5950   59.9520 C   0  0  0  0  0  0  0  0  0  0  0  0
  130.9700  118.5400   60.7080 C   0  0  0  0  0  0  0  0  0  0  0  0
  130.6750  119.5610   61.6090 C   0  0  0  0  0  0  0  0  0  0  0  0
  131.5430  120.6490   61.7520 C   0  0  0  0  0  0  0  0  0  0  0  0
  131.2140  121.7360   62.7500 C   0  0  0  0  0  0  0  0  0  0  0  0
  132.0900  122.0530   63.5580 O   0  0  0  0  0  0  0  0  0  0  0  0
  129.9840  122.3300   62.7140 N   0  0  0  0  0  0  0  0  0  0  0  0
  129.4790  123.1240   63.8460 C   0  0  0  0  0  0  0  0  0  0  0  0
  128.1660  123.7370   63.3850 C   0  0  0  0  0  0  0  0  0  0  0  0
  128.2140  123.5500   61.8990 C   0  0  0  0  0  0  0  0  0  0  0  0
  127.3170  123.9960   60.9280 C   0  0  0  0  0  0  0  0  0  0  0  0
  127.4500  123.5800   59.5950 C   0  0  0  0  0  0  0  0  0  0  0  0
  126.4850  124.0470   58.4950 C   0  0  2  0  0  0  0  0  0  0  0  0
  126.6600  125.4470   58.1720 N   0  0  0  0  0  0  0  0  0  0  0  0
  125.5670  125.9930   57.8190 C   0  0  0  0  0  0  0  0  0  0  0  0
  125.3500  127.2900   57.4730 N   0  0  0  0  0  0  0  0  0  0  0  0
  126.2070  128.3370   57.5540 C   0  0  0  0  0  0  0  0  0  0  0  0
  127.3790  128.2760   57.9300 O   0  0  0  0  0  0  0  0  0  0  0  0
  125.6290  129.6990   57.1360 C   0  0  0  0  0  0  0  0  0  0  0  0
  126.7240  130.5540   56.6250 N   0  0  0  0  0  0  0  0  0  0  0  0
  126.7220  130.7680   55.2520 N   0  0  0  0  0  0  0  0  0  0  0  0
  127.6270  131.4960   54.6800 N   0  0  0  0  0  0  0  0  0  0  0  0
  128.6310  132.0870   55.4500 C   0  0  0  0  0  0  0  0  0  0  0  0
  129.5930  132.8650   54.8020 C   0  0  0  0  0  0  0  0  0  0  0  0
  130.6100  133.4690   55.5440 C   0  0  0  0  0  0  0  0  0  0  0  0
  130.6660  133.2960   56.9290 C   0  0  0  0  0  0  0  0  0  0  0  0
  129.7060  132.5180   57.5790 C   0  0  0  0  0  0  0  0  0  0  0  0
  128.6860  131.9140   56.8340 C   0  0  0  0  0  0  0  0  0  0  0  0
  127.6390  131.0650   57.5180 C   0  0  0  0  0  0  0  0  0  0  0  0
  127.6180  130.8480   58.7330 O   0  0  0  0  0  0  0  0  0  0  0  0
  124.1160  124.9490   57.7800 S   0  0  0  0  0  0  0  0  0  0  0  0
  124.9970  123.7370   58.7800 C   0  0  2  0  0  0  0  0  0  0  0  0
  124.5320  123.8610   60.2460 C   0  0  0  0  0  0  0  0  0  0  0  0
  128.4670  122.6760   59.2680 C   0  0  0  0  0  0  0  0  0  0  0  0
  129.3520  122.2130   60.2430 C   0  0  0  0  0  0  0  0  0  0  0  0
  129.2620  122.6950   61.5550 C   0  0  0  0  0  0  0  0  0  0  0  0
  132.7310  120.6830   61.0100 C   0  0  0  0  0  0  0  0  0  0  0  0
  133.0260  119.6630   60.1100 C   0  0  0  0  0  0  0  0  0  0  0  0
  132.7371  116.5702   59.5363 H   0  0  0  0  0  0  0  0  0  0  0  0
  131.5936  117.2757   58.3441 H   0  0  0  0  0  0  0  0  0  0  0  0
  133.3170  117.7822   58.3441 H   0  0  0  0  0  0  0  0  0  0  0  0
  130.2798  117.6913   60.5926 H   0  0  0  0  0  0  0  0  0  0  0  0
  129.7555  119.5115   62.2107 H   0  0  0  0  0  0  0  0  0  0  0  0
  129.3114  122.4775   64.7200 H   0  0  0  0  0  0  0  0  0  0  0  0
  130.1999  123.8998   64.1434 H   0  0  0  0  0  0  0  0  0  0  0  0
  127.3067  123.2081   63.8231 H   0  0  0  0  0  0  0  0  0  0  0  0
  128.0469  124.7879   63.6874 H   0  0  0  0  0  0  0  0  0  0  0  0
  126.5008  124.6777   61.2093 H   0  0  0  0  0  0  0  0  0  0  0  0
  126.7615  123.4464   57.6159 H   0  0  0  0  0  0  0  0  0  0  0  0
  124.4180  127.5140   57.1580 H   0  0  0  0  0  0  0  0  0  0  0  0
  124.8767  129.5533   56.3469 H   0  0  0  0  0  0  0  0  0  0  0  0
  125.1555  130.1824   58.0033 H   0  0  0  0  0  0  0  0  0  0  0  0
  129.5497  133.0014   53.7113 H   0  0  0  0  0  0  0  0  0  0  0  0
  131.3690  134.0826   55.0366 H   0  0  0  0  0  0  0  0  0  0  0  0
  131.4689  133.7742   57.5093 H   0  0  0  0  0  0  0  0  0  0  0  0
  129.7508  132.3805   58.6695 H   0  0  0  0  0  0  0  0  0  0  0  0
  124.8064  122.6791   58.5463 H   0  0  0  0  0  0  0  0  0  0  0  0
  125.3736  123.6366   60.9178 H   0  0  0  0  0  0  0  0  0  0  0  0
  124.1769  124.8852   60.4326 H   0  0  0  0  0  0  0  0  0  0  0  0
  123.7140  123.1496   60.4326 H   0  0  0  0  0  0  0  0  0  0  0  0
  128.5702  122.3262   58.2302 H   0  0  0  0  0  0  0  0  0  0  0  0
  130.1197  121.4700   59.9811 H   0  0  0  0  0  0  0  0  0  0  0  0
  133.4336  121.5194   61.1393 H   0  0  0  0  0  0  0  0  0  0  0  0
  133.9559  119.6988   59.5234 H   0  0  0  0  0  0  0  0  0  0  0  0
  1  2  1  0
  2  3  2  0
  3  4  1  0
  4  5  2  0
  5  6  1  0
  6  7  2  0
  6  8  1  0
  8  9  1  0
  9 10  1  0
 10 11  1  0
 11 12  2  0
 12 13  1  0
 13 14  1  0
 14 15  1  0
 15 16  2  0
 16 17  1  0
 17 18  1  0
 18 19  2  0
 18 20  1  0
 20 21  1  0
 21 22  1  0
 22 23  2  0
 23 24  1  0
 24 25  2  0
 25 26  1  0
 26 27  2  0
 27 28  1  0
 28 29  2  0
 29 30  1  0
 30 31  2  0
 16 32  1  0
 32 33  1  0
 33 34  1  0
 13 35  2  0
 35 36  1  0
 36 37  2  0
  5 38  1  0
 38 39  2  0
 39  2  1  0
 37  8  1  0
 37 11  1  0
 33 14  1  0
 30 21  1  0
 29 24  1  0
  1 40  1  0
  1 41  1  0
  1 42  1  0
  3 43  1  0
  4 44  1  0
  9 45  1  0
  9 46  1  0
 10 47  1  0
 10 48  1  0
 12 49  1  0
 14 50  1  6
 17 51  1  0
 20 52  1  0
 20 53  1  0
 25 54  1  0
 26 55  1  0
 27 56  1  0
 28 57  1  0
 33 58  1  6
 34 59  1  0
 34 60  1  0
 34 61  1  0
 35 62  1  0
 36 63  1  0
 38 64  1  0
 39 65  1  0
M  END
>  <Binding energies>  (1) 
[-10.88]

>  <Ligand effiencies>  (1) 
[-0.272]

>  <Interactions>  (1) 
["V-A:TYR:539:CZ:4876, V-A:TYR:539:CE1:4874, V-A:TYR:539:CD1:4872, V-A:ILE:538:CA:4859, V-B:GLU:543:CD:9879, V-B:PRO:540:N:9855, V-B:ALA:541:CB:9863, V-B:PRO:540:CA:9854, V-B:TYR:539:C:9838, V-A:LEU:475:CD2:4258, V-A:HIS:383:CE1:3393, V-B:TYR:539:CD2:9845, V-A:ILE:369:CG2:3236, V-B:TYR:539:CE2:9847, V-B:TYR:539:CB:9842, V-A:SER:385:CA:3406, V-A:LEU:373:CD1:3279, V-B:TYR:539:CG:9843, V-B:GLU:543:CG:9878, V-B:PRO:540:CB:9856, V-B:TYR:531:CZ:9765, V-A:ILE:538:CB:4861, V-A:ILE:538:CG2:4862, V-B:ASP:366:CB:8182, V-A:LEU:373:CG:3278, V-A:LEU:373:CD2:3280, H-B:TYR:531:OH:9766, V-A:PRO:540:N:4883, V-A:MET:535:CG:4832, V-B:TYR:531:CE1:9763, V-A:TYR:539:C:4866, H-A:TYR:539:OH:4877, V-A:MET:535:CB:4831"]

$$$$
RR24_Rahimova_2017
     RDKit          3D

 65 71  0  0  0  0  0  0  0  0999 V2000
  126.0750  123.5640   58.0730 C   0  0  0  0  0  0  0  0  0  0  0  0
  125.9740  124.5610   59.2370 C   0  0  2  0  0  0  0  0  0  0  0  0
  125.0370  124.0760   60.3820 C   0  0  0  0  0  0  0  0  0  0  0  0
  123.9600  123.5140   60.1550 O   0  0  0  0  0  0  0  0  0  0  0  0
  125.5310  124.3670   61.6210 O   0  0  0  0  0  0  0  0  0  0  0  0
  126.7260  123.8160   62.0230 C   0  0  0  0  0  0  0  0  0  0  0  0
  126.8760  123.3970   63.3460 C   0  0  0  0  0  0  0  0  0  0  0  0
  128.0780  122.8300   63.7620 C   0  0  0  0  0  0  0  0  0  0  0  0
  129.1300  122.6720   62.8560 C   0  0  0  0  0  0  0  0  0  0  0  0
  130.4580  122.0640   63.3240 C   0  0  1  0  0  0  0  0  0  0  0  0
  131.0310  121.0640   62.2930 C   0  0  0  0  0  0  0  0  0  0  0  0
  132.2970  121.1280   61.8420 C   0  0  0  0  0  0  0  0  0  0  0  0
  133.1770  122.0940   62.2640 N   0  0  0  0  0  0  0  0  0  0  0  0
  132.8020  123.0520   63.1770 C   0  0  0  0  0  0  0  0  0  0  0  0
  133.7900  123.9270   63.4960 N   0  0  0  0  0  0  0  0  0  0  0  0
  133.5830  124.9890   64.3220 C   0  0  0  0  0  0  0  0  0  0  0  0
  134.3960  125.9150   64.3290 O   0  0  0  0  0  0  0  0  0  0  0  0
  132.3530  124.9760   64.9620 N   0  0  0  0  0  0  0  0  0  0  0  0
  132.1130  126.0580   65.9390 C   0  0  0  0  0  0  0  0  0  0  0  0
  131.2800  124.1370   64.7130 C   0  0  0  0  0  0  0  0  0  0  0  0
  130.1900  124.2170   65.2880 O   0  0  0  0  0  0  0  0  0  0  0  0
  131.5520  123.1050   63.7070 C   0  0  0  0  0  0  0  0  0  0  0  0
  132.5600  120.0660   60.8850 C   0  0  0  0  0  0  0  0  0  0  0  0
  133.6880  119.7110   60.1440 C   0  0  0  0  0  0  0  0  0  0  0  0
  133.6210  118.6090   59.2870 C   0  0  0  0  0  0  0  0  0  0  0  0
  132.4370  117.8730   59.1770 C   0  0  0  0  0  0  0  0  0  0  0  0
  131.3110  118.2340   59.9220 C   0  0  0  0  0  0  0  0  0  0  0  0
  131.3830  119.3370   60.7750 C   0  0  0  0  0  0  0  0  0  0  0  0
  130.3620  119.9290   61.6650 C   0  0  0  0  0  0  0  0  0  0  0  0
  129.2000  119.5840   61.8680 O   0  0  0  0  0  0  0  0  0  0  0  0
  128.9700  123.0760   61.5260 C   0  0  0  0  0  0  0  0  0  0  0  0
  127.7690  123.6410   61.1090 C   0  0  0  0  0  0  0  0  0  0  0  0
  125.6340  125.9370   58.7690 N   0  0  0  0  0  0  0  0  0  0  0  0
  126.3510  127.0240   59.1690 C   0  0  0  0  0  0  0  0  0  0  0  0
  127.3180  127.0420   59.9330 O   0  0  0  0  0  0  0  0  0  0  0  0
  125.7210  128.1850   58.4910 C   0  0  0  0  0  0  0  0  0  0  0  0
  126.0320  129.5440   58.5300 C   0  0  0  0  0  0  0  0  0  0  0  0
  125.2550  130.4300   57.7740 C   0  0  0  0  0  0  0  0  0  0  0  0
  124.1930  129.9520   56.9970 C   0  0  0  0  0  0  0  0  0  0  0  0
  123.8970  128.5840   56.9710 C   0  0  0  0  0  0  0  0  0  0  0  0
  124.6820  127.7170   57.7330 C   0  0  0  0  0  0  0  0  0  0  0  0
  124.6190  126.2440   57.9040 C   0  0  0  0  0  0  0  0  0  0  0  0
  123.8240  125.4660   57.3760 O   0  0  0  0  0  0  0  0  0  0  0  0
  126.1783  122.5440   58.4718 H   0  0  0  0  0  0  0  0  0  0  0  0
  125.1659  123.6264   57.4568 H   0  0  0  0  0  0  0  0  0  0  0  0
  126.9531  123.8075   57.4568 H   0  0  0  0  0  0  0  0  0  0  0  0
  126.9798  124.6120   59.6794 H   0  0  0  0  0  0  0  0  0  0  0  0
  126.0463  123.5144   64.0586 H   0  0  0  0  0  0  0  0  0  0  0  0
  128.1996  122.5058   64.8061 H   0  0  0  0  0  0  0  0  0  0  0  0
  130.1943  121.5312   64.2495 H   0  0  0  0  0  0  0  0  0  0  0  0
  134.1190  122.1040   61.9010 H   0  0  0  0  0  0  0  0  0  0  0  0
  134.7140  123.8300   63.1040 H   0  0  0  0  0  0  0  0  0  0  0  0
  132.2019  125.6570   66.9594 H   0  0  0  0  0  0  0  0  0  0  0  0
  132.8560  126.8558   65.7925 H   0  0  0  0  0  0  0  0  0  0  0  0
  131.1023  126.4668   65.7925 H   0  0  0  0  0  0  0  0  0  0  0  0
  134.6182  120.2913   60.2333 H   0  0  0  0  0  0  0  0  0  0  0  0
  134.5029  118.3195   58.6968 H   0  0  0  0  0  0  0  0  0  0  0  0
  132.3917  117.0062   58.5012 H   0  0  0  0  0  0  0  0  0  0  0  0
  130.3790  117.6559   59.8373 H   0  0  0  0  0  0  0  0  0  0  0  0
  129.7945  122.9468   60.8095 H   0  0  0  0  0  0  0  0  0  0  0  0
  127.6403  123.9497   60.0611 H   0  0  0  0  0  0  0  0  0  0  0  0
  126.8693  129.9117   59.1413 H   0  0  0  0  0  0  0  0  0  0  0  0
  125.4800  131.5066   57.7906 H   0  0  0  0  0  0  0  0  0  0  0  0
  123.5885  130.6544   56.4044 H   0  0  0  0  0  0  0  0  0  0  0  0
  123.0640  128.2007   56.3634 H   0  0  0  0  0  0  0  0  0  0  0  0
  1  2  1  0
  2  3  1  0
  3  4  2  0
  3  5  1  0
  5  6  1  0
  6  7  2  0
  7  8  1  0
  8  9  2  0
  9 10  1  0
 10 11  1  0
 11 12  2  0
 12 13  1  0
 13 14  1  0
 14 15  1  0
 15 16  1  0
 16 17  2  0
 16 18  1  0
 18 19  1  0
 18 20  1  0
 20 21  2  0
 20 22  1  0
 12 23  1  0
 23 24  2  0
 24 25  1  0
 25 26  2  0
 26 27  1  0
 27 28  2  0
 28 29  1  0
 29 30  2  0
  9 31  1  0
 31 32  2  0
  2 33  1  0
 33 34  1  0
 34 35  2  0
 34 36  1  0
 36 37  2  0
 37 38  1  0
 38 39  2  0
 39 40  1  0
 40 41  2  0
 41 42  1  0
 42 43  2  0
 32  6  1  0
 42 33  1  0
 22 10  1  0
 28 23  1  0
 41 36  1  0
 29 11  1  0
 22 14  2  0
  1 44  1  0
  1 45  1  0
  1 46  1  0
  2 47  1  1
  7 48  1  0
  8 49  1  0
 10 50  1  1
 13 51  1  0
 15 52  1  0
 19 53  1  0
 19 54  1  0
 19 55  1  0
 24 56  1  0
 25 57  1  0
 26 58  1  0
 27 59  1  0
 31 60  1  0
 32 61  1  0
 37 62  1  0
 38 63  1  0
 39 64  1  0
 40 65  1  0
M  END
>  <Binding energies>  (1) 
[-10.15]

>  <Ligand effiencies>  (1) 
[-0.22555555555555556]

>  <Interactions>  (1) 
["V-B:GLU:543:CD:9879, H-B:ALA:541:N:9862, H-A:TYR:484:OH:4347, V-B:ALA:541:CB:9863, V-B:PRO:540:CA:9854, V-B:ALA:541:CA:9861, V-A:LEU:475:CD2:4258, V-B:TYR:539:CD2:9845, V-A:ILE:369:CG2:3236, V-B:TYR:539:CE2:9847, V-B:TYR:539:CB:9842, V-A:SER:385:CA:3406, V-A:GLY:454:CA:4048, V-A:LEU:373:CD1:3279, V-B:TYR:539:CG:9843, V-B:GLU:543:CG:9878, V-B:ALA:541:C:9859, V-B:PRO:540:CB:9856, H-A:GLY:454:N:4049, V-A:GLY:453:C:4041, V-B:TYR:531:CZ:9765, V-A:ARG:545:CZ:4925, H-A:ARG:545:NH1:4926, H-A:ARG:545:NH2:4927, H-B:ARG:545:NH2:9899, H-A:ARG:545:NE:4923, V-B:ASP:366:CB:8182, V-A:LEU:373:CG:3278, V-A:LEU:373:CD2:3280, H-B:TYR:531:OH:9766, H-A:ASP:366:OD1:3213, V-B:ASP:366:CG:8183, V-B:TYR:531:CE1:9763, V-A:VAL:384:C:3396, H-A:SER:385:O:3405, V-B:TYR:531:CD1:9761, V-B:ASP:366:C:8178, V-B:ASP:366:CA:8180"]

$$$$
RR24_Rahimova_2017-again1
     RDKit          3D

 63 69  0  0  0  0  0  0  0  0999 V2000
  123.6670  124.4280   57.9820 C   0  0  0  0  0  0  0  0  0  0  0  0
  124.8880  123.8630   58.7200 C   0  0  2  0  0  0  0  0  0  0  0  0
  124.7320  123.8720   60.2690 C   0  0  0  0  0  0  0  0  0  0  0  0
  123.8020  123.2860   60.8360 O   0  0  0  0  0  0  0  0  0  0  0  0
  125.7010  124.6040   60.8920 O   0  0  0  0  0  0  0  0  0  0  0  0
  126.7810  123.9630   61.4550 C   0  0  0  0  0  0  0  0  0  0  0  0
  127.8290  123.5330   60.6390 C   0  0  0  0  0  0  0  0  0  0  0  0
  128.9330  122.9020   61.2040 C   0  0  0  0  0  0  0  0  0  0  0  0
  129.0000  122.7040   62.5870 C   0  0  0  0  0  0  0  0  0  0  0  0
  130.2160  122.0080   63.2140 C   0  0  1  0  0  0  0  0  0  0  0  0
  130.8650  121.0110   62.2260 C   0  0  0  0  0  0  0  0  0  0  0  0
  130.4120  119.8740   61.6530 C   0  0  0  0  0  0  0  0  0  0  0  0
  129.2570  119.3450   61.8750 O   0  0  0  0  0  0  0  0  0  0  0  0
  131.4070  119.3430   60.7220 C   0  0  0  0  0  0  0  0  0  0  0  0
  131.4150  118.2180   59.8870 C   0  0  0  0  0  0  0  0  0  0  0  0
  132.5280  117.9630   59.0860 C   0  0  0  0  0  0  0  0  0  0  0  0
  133.6270  118.8240   59.1180 C   0  0  0  0  0  0  0  0  0  0  0  0
  133.6150  119.9430   59.9520 C   0  0  0  0  0  0  0  0  0  0  0  0
  132.4980  120.1990   60.7510 C   0  0  0  0  0  0  0  0  0  0  0  0
  132.2040  121.2490   61.7110 C   0  0  0  0  0  0  0  0  0  0  0  0
  132.9260  122.2300   62.1040 N   0  0  0  0  0  0  0  0  0  0  0  0
  132.5250  123.0540   63.1140 C   0  0  0  0  0  0  0  0  0  0  0  0
  133.4930  123.9350   63.5000 N   0  0  0  0  0  0  0  0  0  0  0  0
  133.2370  124.7820   64.4340 C   0  0  0  0  0  0  0  0  0  0  0  0
  134.1880  125.5370   64.7000 O   0  0  0  0  0  0  0  0  0  0  0  0
  132.0030  124.8290   65.0810 N   0  0  0  0  0  0  0  0  0  0  0  0
  131.6780  125.7930   66.1590 C   0  0  0  0  0  0  0  0  0  0  0  0
  130.9720  123.9650   64.7680 C   0  0  0  0  0  0  0  0  0  0  0  0
  129.8730  123.9580   65.3310 O   0  0  0  0  0  0  0  0  0  0  0  0
  131.2840  123.0200   63.6910 C   0  0  0  0  0  0  0  0  0  0  0  0
  127.9540  123.1470   63.4020 C   0  0  0  0  0  0  0  0  0  0  0  0
  126.8500  123.7810   62.8390 C   0  0  0  0  0  0  0  0  0  0  0  0
  126.1590  124.5080   58.2750 N   0  0  0  0  0  0  0  0  0  0  0  0
  126.3170  125.8610   58.2950 C   0  0  0  0  0  0  0  0  0  0  0  0
  125.4950  126.7060   58.6530 O   0  0  0  0  0  0  0  0  0  0  0  0
  127.6920  126.1050   57.7920 C   0  0  0  0  0  0  0  0  0  0  0  0
  128.3950  127.2950   57.5920 C   0  0  0  0  0  0  0  0  0  0  0  0
  129.7010  127.2240   57.0970 C   0  0  0  0  0  0  0  0  0  0  0  0
  130.2840  125.9830   56.8120 C   0  0  0  0  0  0  0  0  0  0  0  0
  129.5640  124.8020   57.0200 C   0  0  0  0  0  0  0  0  0  0  0  0
  128.2610  124.8930   57.5130 C   0  0  0  0  0  0  0  0  0  0  0  0
  127.2670  123.8380   57.8330 C   0  0  0  0  0  0  0  0  0  0  0  0
  127.4100  122.6200   57.7250 O   0  0  0  0  0  0  0  0  0  0  0  0
  122.9226  124.7725   58.7149 H   0  0  0  0  0  0  0  0  0  0  0  0
  123.9788  125.2734   57.3510 H   0  0  0  0  0  0  0  0  0  0  0  0
  123.2244  123.6432   57.3510 H   0  0  0  0  0  0  0  0  0  0  0  0
  124.9468  122.8020   58.4357 H   0  0  0  0  0  0  0  0  0  0  0  0
  127.7821  123.6927   59.5517 H   0  0  0  0  0  0  0  0  0  0  0  0
  129.7561  122.5576   60.5606 H   0  0  0  0  0  0  0  0  0  0  0  0
  129.8391  121.4593   64.0897 H   0  0  0  0  0  0  0  0  0  0  0  0
  130.5490  117.5401   59.8633 H   0  0  0  0  0  0  0  0  0  0  0  0
  132.5401  117.0818   58.4277 H   0  0  0  0  0  0  0  0  0  0  0  0
  134.5032  118.6200   58.4851 H   0  0  0  0  0  0  0  0  0  0  0  0
  134.4812  120.6204   59.9801 H   0  0  0  0  0  0  0  0  0  0  0  0
  131.8386  125.3167   67.1375 H   0  0  0  0  0  0  0  0  0  0  0  0
  132.3282  126.6758   66.0698 H   0  0  0  0  0  0  0  0  0  0  0  0
  130.6260  126.1019   66.0698 H   0  0  0  0  0  0  0  0  0  0  0  0
  128.0035  122.9943   64.4902 H   0  0  0  0  0  0  0  0  0  0  0  0
  126.0328  124.1384   63.4827 H   0  0  0  0  0  0  0  0  0  0  0  0
  127.9318  128.2666   57.8188 H   0  0  0  0  0  0  0  0  0  0  0  0
  130.2737  128.1483   56.9305 H   0  0  0  0  0  0  0  0  0  0  0  0
  131.3119  125.9368   56.4231 H   0  0  0  0  0  0  0  0  0  0  0  0
  130.0146  123.8229   56.8000 H   0  0  0  0  0  0  0  0  0  0  0  0
  1  2  1  0
  2  3  1  0
  3  4  2  0
  3  5  1  0
  5  6  1  0
  6  7  2  0
  7  8  1  0
  8  9  2  0
  9 10  1  0
 10 11  1  0
 11 12  2  0
 12 13  1  0
 12 14  1  0
 14 15  2  0
 15 16  1  0
 16 17  2  0
 17 18  1  0
 18 19  2  0
 19 20  1  0
 20 21  2  0
 21 22  1  0
 22 23  1  0
 23 24  2  0
 24 25  1  0
 24 26  1  0
 26 27  1  0
 26 28  1  0
 28 29  2  0
 28 30  1  0
  9 31  1  0
 31 32  2  0
  2 33  1  0
 33 34  1  0
 34 35  2  0
 34 36  1  0
 36 37  2  0
 37 38  1  0
 38 39  2  0
 39 40  1  0
 40 41  2  0
 41 42  1  0
 42 43  2  0
 32  6  1  0
 42 33  1  0
 30 10  1  0
 41 36  1  0
 20 11  1  0
 30 22  2  0
 19 14  1  0
  1 44  1  0
  1 45  1  0
  1 46  1  0
  2 47  1  6
  7 48  1  0
  8 49  1  0
 10 50  1  1
 15 51  1  0
 16 52  1  0
 17 53  1  0
 18 54  1  0
 27 55  1  0
 27 56  1  0
 27 57  1  0
 31 58  1  0
 32 59  1  0
 37 60  1  0
 38 61  1  0
 39 62  1  0
 40 63  1  0
M  CHG  2  13  -1  25  -1
M  END
>  <Binding energies>  (1) 
[-9.51]

>  <Ligand effiencies>  (1) 
[-0.22116279069767442]

>  <Interactions>  (1) 
["V-B:GLU:543:CD:9879, H-B:ALA:541:N:9862, H-A:TYR:484:OH:4347, V-B:ALA:541:CB:9863, V-B:PRO:540:CA:9854, V-B:ALA:541:CA:9861, V-A:LEU:475:CD2:4258, V-B:TYR:539:CD2:9845, V-A:ILE:369:CG2:3236, V-B:TYR:539:CE2:9847, V-B:TYR:539:CB:9842, V-A:SER:385:CA:3406, V-A:GLY:454:CA:4048, V-A:LEU:373:CD1:3279, V-B:TYR:539:CG:9843, V-B:MET:535:CE:9806, V-B:TYR:539:CZ:9848, V-B:GLU:543:CG:9878, V-B:PRO:540:CB:9856, H-A:GLY:454:N:4049, V-B:TYR:531:CE2:9764, V-B:LEU:363:CD1:8159, H-A:ARG:545:NH1:4926, H-A:ARG:545:NH2:4927, H-A:ARG:545:NE:4923, V-B:ASP:366:CB:8182, V-A:LEU:373:CG:3278, V-A:LEU:373:CD2:3280, H-B:TYR:531:OH:9766, V-A:VAL:384:C:3396, V-B:LEU:363:CA:8155"]

$$$$
RR25_Rahimova_2017
     RDKit          3D

 63 68  0  0  0  0  0  0  0  0999 V2000
  128.1060  122.7620   58.0840 O   0  0  0  0  0  0  0  0  0  0  0  0
  127.9920  122.9170   59.3000 C   0  0  0  0  0  0  0  0  0  0  0  0
  128.7320  122.0730   60.0910 O   0  0  0  0  0  0  0  0  0  0  0  0
  128.8860  122.3020   61.4460 C   0  0  0  0  0  0  0  0  0  0  0  0
  130.0320  121.7820   62.0440 C   0  0  0  0  0  0  0  0  0  0  0  0
  130.2460  121.9680   63.4080 C   0  0  0  0  0  0  0  0  0  0  0  0
  129.3200  122.6720   64.1920 C   0  0  0  0  0  0  0  0  0  0  0  0
  129.5540  122.8760   65.6430 N   0  0  0  0  0  0  0  0  0  0  0  0
  130.1830  123.8680   66.0030 O   0  0  0  0  0  0  0  0  0  0  0  0
  129.1110  122.0470   66.4320 O   0  0  0  0  0  0  0  0  0  0  0  0
  128.1650  123.1770   63.5720 C   0  0  0  0  0  0  0  0  0  0  0  0
  127.9310  122.9920   62.2070 C   0  0  0  0  0  0  0  0  0  0  0  0
  126.7060  123.5280   61.4890 C   0  0  0  0  0  0  0  0  0  0  0  0
  127.0890  123.9460   60.0410 C   0  0  2  0  0  0  0  0  0  0  0  0
  125.8360  124.4080   59.2410 C   0  0  0  0  0  0  0  0  0  0  0  0
  124.7820  123.8190   59.4960 O   0  0  0  0  0  0  0  0  0  0  0  0
  125.8670  125.4860   58.4000 N   0  0  0  0  0  0  0  0  0  0  0  0
  127.1210  126.0190   57.8270 C   0  0  0  0  0  0  0  0  0  0  0  0
  127.0230  127.5570   57.7480 C   0  0  0  0  0  0  0  0  0  0  0  0
  125.8330  127.9790   57.0040 N   0  0  0  0  0  0  0  0  0  0  0  0
  125.8070  129.4360   56.8130 C   0  0  0  0  0  0  0  0  0  0  0  0
  126.4740  130.2090   57.9820 C   0  0  0  0  0  0  0  0  0  0  0  0
  127.7670  130.8840   57.6690 N   0  0  0  0  0  0  0  0  0  0  0  0
  128.7170  130.8290   58.6680 C   0  0  0  0  0  0  0  0  0  0  0  0
  128.5150  130.2940   59.7650 O   0  0  0  0  0  0  0  0  0  0  0  0
  130.0470  131.4610   58.3090 C   0  0  0  0  0  0  0  0  0  0  0  0
  131.0930  131.4390   59.2410 C   0  0  0  0  0  0  0  0  0  0  0  0
  132.3320  132.0030   58.9420 C   0  0  0  0  0  0  0  0  0  0  0  0
  132.5660  132.6030   57.7060 C   0  0  0  0  0  0  0  0  0  0  0  0
  131.5390  132.6500   56.7330 C   0  0  0  0  0  0  0  0  0  0  0  0
  131.7090  133.2420   55.4590 C   0  0  0  0  0  0  0  0  0  0  0  0
  130.6560  133.2510   54.5450 C   0  0  0  0  0  0  0  0  0  0  0  0
  129.4250  132.6830   54.8660 C   0  0  0  0  0  0  0  0  0  0  0  0
  129.2110  132.0860   56.1150 C   0  0  0  0  0  0  0  0  0  0  0  0
  130.2780  132.0720   57.0500 C   0  0  0  0  0  0  0  0  0  0  0  0
  127.8590  131.4710   56.4240 C   0  0  0  0  0  0  0  0  0  0  0  0
  126.9310  131.4870   55.6090 O   0  0  0  0  0  0  0  0  0  0  0  0
  124.6270  127.5020   57.6820 C   0  0  0  0  0  0  0  0  0  0  0  0
  124.6040  125.9580   57.7880 C   0  0  0  0  0  0  0  0  0  0  0  0
  130.7654  121.2264   61.4411 H   0  0  0  0  0  0  0  0  0  0  0  0
  131.1528  121.5575   63.8762 H   0  0  0  0  0  0  0  0  0  0  0  0
  127.4290  123.7300   64.1741 H   0  0  0  0  0  0  0  0  0  0  0  0
  125.9328  122.7465   61.4517 H   0  0  0  0  0  0  0  0  0  0  0  0
  126.3198  124.4038   62.0311 H   0  0  0  0  0  0  0  0  0  0  0  0
  127.7439  124.8260   60.1226 H   0  0  0  0  0  0  0  0  0  0  0  0
  127.9690  125.7359   58.4679 H   0  0  0  0  0  0  0  0  0  0  0  0
  127.2754  125.6041   56.8200 H   0  0  0  0  0  0  0  0  0  0  0  0
  126.9709  127.9653   58.7681 H   0  0  0  0  0  0  0  0  0  0  0  0
  127.9123  127.9342   57.2218 H   0  0  0  0  0  0  0  0  0  0  0  0
  126.3409  129.6778   55.8821 H   0  0  0  0  0  0  0  0  0  0  0  0
  124.7522  129.7453   56.7713 H   0  0  0  0  0  0  0  0  0  0  0  0
  125.7665  130.9794   58.3226 H   0  0  0  0  0  0  0  0  0  0  0  0
  126.7133  129.4490   58.7404 H   0  0  0  0  0  0  0  0  0  0  0  0
  130.9340  130.9697   60.2231 H   0  0  0  0  0  0  0  0  0  0  0  0
  133.1363  131.9742   59.6919 H   0  0  0  0  0  0  0  0  0  0  0  0
  133.5508  133.0409   57.4861 H   0  0  0  0  0  0  0  0  0  0  0  0
  132.6739  133.6961   55.1891 H   0  0  0  0  0  0  0  0  0  0  0  0
  130.7992  133.7129   53.5570 H   0  0  0  0  0  0  0  0  0  0  0  0
  128.6095  132.7036   54.1281 H   0  0  0  0  0  0  0  0  0  0  0  0
  124.5945  127.9296   58.6950 H   0  0  0  0  0  0  0  0  0  0  0  0
  123.7538  127.8188   57.0928 H   0  0  0  0  0  0  0  0  0  0  0  0
  123.7546  125.6461   58.4135 H   0  0  0  0  0  0  0  0  0  0  0  0
  124.4988  125.5232   56.7831 H   0  0  0  0  0  0  0  0  0  0  0  0
  1  2  2  0
  2  3  1  0
  3  4  1  0
  4  5  2  0
  5  6  1  0
  6  7  2  0
  7  8  1  0
  8  9  2  0
  8 10  1  0
  7 11  1  0
 11 12  2  0
 12 13  1  0
 13 14  1  0
 14 15  1  0
 15 16  2  0
 15 17  1  0
 17 18  1  0
 18 19  1  0
 19 20  1  0
 20 21  1  0
 21 22  1  0
 22 23  1  0
 23 24  1  0
 24 25  2  0
 24 26  1  0
 26 27  2  0
 27 28  1  0
 28 29  2  0
 29 30  1  0
 30 31  2  0
 31 32  1  0
 32 33  2  0
 33 34  1  0
 34 35  2  0
 34 36  1  0
 36 37  2  0
 20 38  1  0
 38 39  1  0
 14  2  1  0
 39 17  1  0
 12  4  1  0
 36 23  1  0
 35 26  1  0
 35 30  1  0
  5 40  1  0
  6 41  1  0
 11 42  1  0
 13 43  1  0
 13 44  1  0
 14 45  1  1
 18 46  1  0
 18 47  1  0
 19 48  1  0
 19 49  1  0
 21 50  1  0
 21 51  1  0
 22 52  1  0
 22 53  1  0
 27 54  1  0
 28 55  1  0
 29 56  1  0
 31 57  1  0
 32 58  1  0
 33 59  1  0
 38 60  1  0
 38 61  1  0
 39 62  1  0
 39 63  1  0
M  CHG  2   8   1  10  -1
M  END
>  <Binding energies>  (1) 
[-10.27]

>  <Ligand effiencies>  (1) 
[-0.2633333333333333]

>  <Interactions>  (1) 
["V-A:TYR:539:CZ:4876, V-A:PRO:540:CB:4884, V-A:TYR:539:CE1:4874, V-A:PRO:540:CA:4882, V-A:TYR:531:CE2:4792, V-A:TYR:531:CZ:4793, V-A:ILE:538:CA:4859, V-A:LEU:363:CD1:3188, V-B:GLU:543:CD:9879, V-B:PRO:540:N:9855, H-A:TYR:484:OH:4347, V-B:ALA:541:CB:9863, V-B:PRO:540:CA:9854, V-B:TYR:539:C:9838, V-A:LEU:475:CD2:4258, V-B:TYR:539:CD2:9845, V-B:GLU:543:CG:9878, V-A:LEU:475:CD1:4257, V-B:TYR:531:CZ:9765, V-B:TYR:531:CE2:9764, V-A:ILE:538:CB:4861, V-A:ILE:538:CG2:4862, V-B:ASP:366:CB:8182, V-A:TYR:484:CZ:4346, V-A:TYR:484:CE2:4345, H-B:TYR:531:OH:9766, V-A:PRO:540:N:4883, V-B:ASP:366:CG:8183, V-A:MET:535:CG:4832, V-B:TYR:531:CE1:9763, H-A:TYR:539:OH:4877, V-A:MET:535:CB:4831"]

$$$$
RR26_Rahimova_2017
     RDKit          3D

 59 65  0  0  0  0  0  0  0  0999 V2000
  133.4390  120.0620   60.7990 C   0  0  0  0  0  0  0  0  0  0  0  0
  132.2830  119.0940   61.0190 C   0  0  0  0  0  0  0  0  0  0  0  0
  132.5370  117.7220   60.9070 C   0  0  0  0  0  0  0  0  0  0  0  0
  131.5280  116.7900   61.1370 C   0  0  0  0  0  0  0  0  0  0  0  0
  130.2530  117.2220   61.4890 C   0  0  0  0  0  0  0  0  0  0  0  0
  129.9880  118.5850   61.6050 C   0  0  0  0  0  0  0  0  0  0  0  0
  130.9900  119.5390   61.3690 C   0  0  0  0  0  0  0  0  0  0  0  0
  130.6160  120.9870   61.5000 C   0  0  0  0  0  0  0  0  0  0  0  0
  131.4580  121.9700   61.1930 N   0  0  0  0  0  0  0  0  0  0  0  0
  130.7370  123.0300   61.4380 C   0  0  0  0  0  0  0  0  0  0  0  0
  130.9740  124.7360   61.3450 S   0  0  0  0  0  0  0  0  0  0  0  0
  129.2840  124.9800   61.9250 C   0  0  0  0  0  0  0  0  0  0  0  0
  128.6450  126.1510   62.1450 C   0  0  0  0  0  0  0  0  0  0  0  0
  129.1570  127.4990   61.9630 C   0  0  0  0  0  0  0  0  0  0  0  0
  130.2940  127.8990   61.2770 C   0  0  0  0  0  0  0  0  0  0  0  0
  130.3600  129.2680   61.3310 N   0  0  0  0  0  0  0  0  0  0  0  0
  131.3430  130.1220   60.7670 C   0  0  0  0  0  0  0  0  0  0  0  0
  131.8770  131.1880   61.5050 C   0  0  0  0  0  0  0  0  0  0  0  0
  132.8380  132.0200   60.9380 C   0  0  0  0  0  0  0  0  0  0  0  0
  133.2710  131.7880   59.6350 C   0  0  0  0  0  0  0  0  0  0  0  0
  132.7510  130.7310   58.8920 C   0  0  0  0  0  0  0  0  0  0  0  0
  131.7870  129.8990   59.4550 C   0  0  0  0  0  0  0  0  0  0  0  0
  129.3020  129.7590   61.9940 N   0  0  0  0  0  0  0  0  0  0  0  0
  128.5840  128.7220   62.3790 C   0  0  0  0  0  0  0  0  0  0  0  0
  127.3260  128.9370   63.1620 C   0  0  0  0  0  0  0  0  0  0  0  0
  126.1240  129.2420   62.5050 C   0  0  0  0  0  0  0  0  0  0  0  0
  124.9460  129.4470   63.2270 C   0  0  0  0  0  0  0  0  0  0  0  0
  124.9630  129.3490   64.6160 C   0  0  0  0  0  0  0  0  0  0  0  0
  126.1540  129.0260   65.2830 C   0  0  0  0  0  0  0  0  0  0  0  0
  127.3290  128.8280   64.5610 C   0  0  0  0  0  0  0  0  0  0  0  0
  126.2270  128.9610   66.6610 O   0  0  0  0  0  0  0  0  0  0  0  0
  124.9590  128.8070   67.3080 C   0  0  0  0  0  0  0  0  0  0  0  0
  123.9130  129.7660   66.6880 C   0  0  0  0  0  0  0  0  0  0  0  0
  123.7670  129.5110   65.2870 O   0  0  0  0  0  0  0  0  0  0  0  0
  128.5960  123.7170   62.1770 C   0  0  0  0  0  0  0  0  0  0  0  0
  127.4480  123.5240   62.5810 O   0  0  0  0  0  0  0  0  0  0  0  0
  129.5070  122.6950   61.8680 N   0  0  0  0  0  0  0  0  0  0  0  0
  129.4130  121.3630   61.9090 N   0  0  0  0  0  0  0  0  0  0  0  0
  133.8320  120.3911   61.7723 H   0  0  0  0  0  0  0  0  0  0  0  0
  134.2364  119.5583   60.2329 H   0  0  0  0  0  0  0  0  0  0  0  0
  133.0832  120.9355   60.2329 H   0  0  0  0  0  0  0  0  0  0  0  0
  133.5449  117.3761   60.6342 H   0  0  0  0  0  0  0  0  0  0  0  0
  131.7385  115.7147   61.0406 H   0  0  0  0  0  0  0  0  0  0  0  0
  129.4550  116.4882   61.6755 H   0  0  0  0  0  0  0  0  0  0  0  0
  128.9781  118.9184   61.8858 H   0  0  0  0  0  0  0  0  0  0  0  0
  127.6090  126.0739   62.5066 H   0  0  0  0  0  0  0  0  0  0  0  0
  131.0155  127.2355   60.7777 H   0  0  0  0  0  0  0  0  0  0  0  0
  131.5354  131.3673   62.5351 H   0  0  0  0  0  0  0  0  0  0  0  0
  133.2539  132.8577   61.5170 H   0  0  0  0  0  0  0  0  0  0  0  0
  134.0310  132.4459   59.1883 H   0  0  0  0  0  0  0  0  0  0  0  0
  133.1006  130.5541   57.8641 H   0  0  0  0  0  0  0  0  0  0  0  0
  131.3726  129.0649   58.8698 H   0  0  0  0  0  0  0  0  0  0  0  0
  126.1094  129.3206   61.4079 H   0  0  0  0  0  0  0  0  0  0  0  0
  124.0096  129.6847   62.7010 H   0  0  0  0  0  0  0  0  0  0  0  0
  128.2626  128.5853   65.0897 H   0  0  0  0  0  0  0  0  0  0  0  0
  124.6148  127.7692   67.1873 H   0  0  0  0  0  0  0  0  0  0  0  0
  125.0730  129.0474   68.3753 H   0  0  0  0  0  0  0  0  0  0  0  0
  122.9439  129.6155   67.1862 H   0  0  0  0  0  0  0  0  0  0  0  0
  124.2542  130.8024   66.8272 H   0  0  0  0  0  0  0  0  0  0  0  0
  1  2  1  0
  2  3  2  0
  3  4  1  0
  4  5  2  0
  5  6  1  0
  6  7  2  0
  7  8  1  0
  8  9  1  0
  9 10  2  0
 10 11  1  0
 11 12  1  0
 12 13  2  0
 13 14  1  0
 14 15  2  0
 15 16  1  0
 16 17  1  0
 17 18  2  0
 18 19  1  0
 19 20  2  0
 20 21  1  0
 21 22  2  0
 16 23  1  0
 23 24  2  0
 24 25  1  0
 25 26  2  0
 26 27  1  0
 27 28  2  0
 28 29  1  0
 29 30  2  0
 29 31  1  0
 31 32  1  0
 32 33  1  0
 33 34  1  0
 12 35  1  0
 35 36  2  0
 35 37  1  0
 37 38  1  0
  7  2  1  0
 38  8  2  0
 37 10  1  0
 24 14  1  0
 30 25  1  0
 22 17  1  0
 34 28  1  0
  1 39  1  0
  1 40  1  0
  1 41  1  0
  3 42  1  0
  4 43  1  0
  5 44  1  0
  6 45  1  0
 13 46  1  0
 15 47  1  0
 18 48  1  0
 19 49  1  0
 20 50  1  0
 21 51  1  0
 22 52  1  0
 26 53  1  0
 27 54  1  0
 30 55  1  0
 32 56  1  0
 32 57  1  0
 33 58  1  0
 33 59  1  0
M  END
>  <Binding energies>  (1) 
[-9.45]

>  <Ligand effiencies>  (1) 
[-0.24868421052631576]

>  <Interactions>  (1) 
["V-A:LEU:363:CA:3184, V-A:ASP:366:CG:3212, V-A:ASN:362:C:3171, V-A:PRO:540:CB:4884, V-A:ASP:366:CB:3211, V-A:PRO:540:CA:4882, V-B:GLU:543:CD:9879, H-B:ALA:541:N:9862, V-B:ALA:541:CB:9863, V-B:TYR:539:C:9838, V-A:LEU:475:CD2:4258, V-A:PRO:482:CG:4326, V-A:HIS:383:CE1:3393, V-B:TYR:539:CD2:9845, V-A:ILE:369:CG2:3236, V-A:SER:385:CA:3406, V-A:SER:385:CB:3408, V-A:THR:477:CG2:4272, V-A:PRO:482:CB:4325, V-B:ARG:545:CD:9894, V-B:ARG:545:CG:9893, H-B:ARG:545:NH2:9899, H-B:TYR:484:OH:9318, H-B:ARG:545:NE:9895, V-B:ARG:545:CZ:9897, V-B:GLY:454:CA:9019, H-B:GLY:454:N:9020, H-B:ARG:545:NH1:9898"]

$$$$
RR27_Rahimova_2017
     RDKit          3D

 66 71  0  0  0  0  0  0  0  0999 V2000
  129.4760  122.0090   59.6150 O   0  0  0  0  0  0  0  0  0  0  0  0
  128.7630  122.9140   60.0570 C   0  0  0  0  0  0  0  0  0  0  0  0
  128.3500  124.0670   59.0960 C   0  0  0  0  0  0  0  0  0  0  0  0
  127.2760  123.6480   58.0750 C   0  0  0  0  0  0  0  0  0  0  0  0
  127.5650  122.7820   57.0090 C   0  0  0  0  0  0  0  0  0  0  0  0
  126.5700  122.4220   56.1060 C   0  0  0  0  0  0  0  0  0  0  0  0
  125.2810  122.9250   56.2630 C   0  0  0  0  0  0  0  0  0  0  0  0
  124.9800  123.7860   57.3140 C   0  0  0  0  0  0  0  0  0  0  0  0
  125.9750  124.1460   58.2170 C   0  0  0  0  0  0  0  0  0  0  0  0
  129.5780  124.7740   58.4920 C   0  0  0  0  0  0  0  0  0  0  0  0
  129.4970  125.5000   57.2960 C   0  0  0  0  0  0  0  0  0  0  0  0
  130.6300  126.1180   56.7720 C   0  0  0  0  0  0  0  0  0  0  0  0
  131.8470  126.0080   57.4380 C   0  0  0  0  0  0  0  0  0  0  0  0
  131.9450  125.2810   58.6210 C   0  0  0  0  0  0  0  0  0  0  0  0
  130.8130  124.6630   59.1430 C   0  0  0  0  0  0  0  0  0  0  0  0
  128.2140  122.8470   61.3040 N   0  0  0  0  0  0  0  0  0  0  0  0
  127.5770  123.9920   61.9720 C   0  0  0  0  0  0  0  0  0  0  0  0
  128.6960  124.7590   62.7110 C   0  0  0  0  0  0  0  0  0  0  0  0
  129.5060  123.8490   63.6890 C   0  0  0  0  0  0  0  0  0  0  0  0
  130.7050  124.5380   64.3670 C   0  0  0  0  0  0  0  0  0  0  0  0
  131.8990  124.4650   63.7100 N   0  0  0  0  0  0  0  0  0  0  0  0
  132.9850  125.0800   64.2540 C   0  0  0  0  0  0  0  0  0  0  0  0
  134.2330  125.0810   63.6870 O   0  0  0  0  0  0  0  0  0  0  0  0
  132.8320  125.7660   65.4740 C   0  0  0  0  0  0  0  0  0  0  0  0
  133.6850  126.4740   66.2690 N   0  0  0  0  0  0  0  0  0  0  0  0
  132.9600  126.9160   67.3590 N   0  0  0  0  0  0  0  0  0  0  0  0
  131.6840  126.4940   67.2340 N   0  0  0  0  0  0  0  0  0  0  0  0
  130.6970  126.8000   68.2660 C   0  0  0  0  0  0  0  0  0  0  0  0
  129.4520  127.4990   67.7350 C   0  0  0  0  0  0  0  0  0  0  0  0
  129.4970  128.1890   66.5190 C   0  0  0  0  0  0  0  0  0  0  0  0
  128.3530  128.8200   66.0280 C   0  0  0  0  0  0  0  0  0  0  0  0
  127.1590  128.7610   66.7460 C   0  0  0  0  0  0  0  0  0  0  0  0
  127.1050  128.0650   67.9550 C   0  0  0  0  0  0  0  0  0  0  0  0
  125.6210  127.9680   68.8320 Cl  0  0  0  0  0  0  0  0  0  0  0  0
  128.2500  127.4410   68.4510 C   0  0  0  0  0  0  0  0  0  0  0  0
  131.5510  125.7610   66.0660 C   0  0  0  0  0  0  0  0  0  0  0  0
  130.4720  125.1600   65.5580 N   0  0  0  0  0  0  0  0  0  0  0  0
  129.8660  122.4760   63.0420 C   0  0  0  0  0  0  0  0  0  0  0  0
  128.6860  121.8390   62.2660 C   0  0  0  0  0  0  0  0  0  0  0  0
  127.8447  124.8334   59.7020 H   0  0  0  0  0  0  0  0  0  0  0  0
  128.5839  122.3858   56.8869 H   0  0  0  0  0  0  0  0  0  0  0  0
  126.8003  121.7431   55.2717 H   0  0  0  0  0  0  0  0  0  0  0  0
  124.4937  122.6392   55.5499 H   0  0  0  0  0  0  0  0  0  0  0  0
  123.9597  124.1802   57.4302 H   0  0  0  0  0  0  0  0  0  0  0  0
  125.7382  124.8265   59.0482 H   0  0  0  0  0  0  0  0  0  0  0  0
  128.5349  125.5821   56.7690 H   0  0  0  0  0  0  0  0  0  0  0  0
  130.5631  126.6908   55.8353 H   0  0  0  0  0  0  0  0  0  0  0  0
  132.7401  126.5003   57.0256 H   0  0  0  0  0  0  0  0  0  0  0  0
  132.9112  125.1956   59.1398 H   0  0  0  0  0  0  0  0  0  0  0  0
  130.8887  124.0826   60.0744 H   0  0  0  0  0  0  0  0  0  0  0  0
  127.0980  124.6455   61.2281 H   0  0  0  0  0  0  0  0  0  0  0  0
  126.7997  123.6560   62.6741 H   0  0  0  0  0  0  0  0  0  0  0  0
  129.3878  125.1773   61.9650 H   0  0  0  0  0  0  0  0  0  0  0  0
  128.2182  125.5481   63.3101 H   0  0  0  0  0  0  0  0  0  0  0  0
  128.8225  123.6406   64.5253 H   0  0  0  0  0  0  0  0  0  0  0  0
  134.3220  125.7330   62.9890 H   0  0  0  0  0  0  0  0  0  0  0  0
  130.3894  125.8576   68.7426 H   0  0  0  0  0  0  0  0  0  0  0  0
  131.1765  127.4917   68.9742 H   0  0  0  0  0  0  0  0  0  0  0  0
  130.4363  128.2344   65.9484 H   0  0  0  0  0  0  0  0  0  0  0  0
  128.3933  129.3647   65.0732 H   0  0  0  0  0  0  0  0  0  0  0  0
  126.2596  129.2629   66.3597 H   0  0  0  0  0  0  0  0  0  0  0  0
  128.2084  126.9012   69.4085 H   0  0  0  0  0  0  0  0  0  0  0  0
  130.7026  122.6271   62.3439 H   0  0  0  0  0  0  0  0  0  0  0  0
  130.1290  121.7884   63.8593 H   0  0  0  0  0  0  0  0  0  0  0  0
  129.0255  120.9380   61.7340 H   0  0  0  0  0  0  0  0  0  0  0  0
  127.8792  121.5405   62.9515 H   0  0  0  0  0  0  0  0  0  0  0  0
  1  2  2  0
  2  3  1  0
  3  4  1  0
  4  5  2  0
  5  6  1  0
  6  7  2  0
  7  8  1  0
  8  9  2  0
  3 10  1  0
 10 11  2  0
 11 12  1  0
 12 13  2  0
 13 14  1  0
 14 15  2  0
  2 16  1  0
 16 17  1  0
 17 18  1  0
 18 19  1  0
 19 20  1  0
 20 21  2  0
 21 22  1  0
 22 23  1  0
 22 24  2  0
 24 25  1  0
 25 26  2  0
 26 27  1  0
 27 28  1  0
 28 29  1  0
 29 30  2  0
 30 31  1  0
 31 32  2  0
 32 33  1  0
 33 34  1  0
 33 35  2  0
 27 36  1  0
 36 37  2  0
 19 38  1  0
 38 39  1  0
  9  4  1  0
 15 10  1  0
 39 16  1  0
 37 20  1  0
 36 24  1  0
 35 29  1  0
  3 40  1  0
  5 41  1  0
  6 42  1  0
  7 43  1  0
  8 44  1  0
  9 45  1  0
 11 46  1  0
 12 47  1  0
 13 48  1  0
 14 49  1  0
 15 50  1  0
 17 51  1  0
 17 52  1  0
 18 53  1  0
 18 54  1  0
 19 55  1  0
 23 56  1  0
 28 57  1  0
 28 58  1  0
 30 59  1  0
 31 60  1  0
 32 61  1  0
 35 62  1  0
 38 63  1  0
 38 64  1  0
 39 65  1  0
 39 66  1  0
M  END
>  <Binding energies>  (1) 
[-10.87]

>  <Ligand effiencies>  (1) 
[-0.27175]

>  <Interactions>  (1) 
["V-A:ASP:366:CG:3212, V-A:ASP:366:CB:3211, V-B:GLU:543:CD:9879, V-B:PRO:540:N:9855, H-A:TYR:484:OH:4347, V-B:ALA:541:CB:9863, V-B:PRO:540:CA:9854, V-B:ALA:541:CA:9861, V-B:PRO:540:C:9852, V-B:TYR:539:C:9838, V-B:TYR:539:CD2:9845, V-B:TYR:539:CE2:9847, V-B:TYR:539:CG:9843, V-B:MET:535:CE:9806, V-B:TYR:539:CZ:9848, V-B:PRO:540:CB:9856, H-A:GLY:454:N:4049, V-B:TYR:539:CD1:9844, V-B:TYR:531:CZ:9765, V-B:TYR:531:CE2:9764, V-B:LEU:363:CD1:8159, V-A:ARG:545:CZ:4925, V-A:HIS:456:CE1:4069, V-B:GLU:543:CB:9877, V-A:GLU:543:CD:4907, V-B:HIS:456:CE1:9040, V-A:GLU:543:CG:4906, V-B:ARG:545:CG:9893, H-A:ASP:366:OD2:3214, V-A:GLU:543:CB:4905, H-A:ARG:545:NH1:4926, H-A:ARG:545:NH2:4927, V-B:ILE:538:CA:9831, H-A:ARG:545:NE:4923, H-A:ASP:366:OD1:3213, V-B:ARG:545:CA:9890"]

$$$$
RR27_Rahimova_2017-again1
     RDKit          3D

 66 71  0  0  0  0  0  0  0  0999 V2000
  128.0030  121.5630   61.0700 O   0  0  0  0  0  0  0  0  0  0  0  0
  127.9170  122.6790   60.5470 C   0  0  0  0  0  0  0  0  0  0  0  0
  128.4720  122.8600   59.1020 C   0  0  0  0  0  0  0  0  0  0  0  0
  129.4580  124.0390   58.9920 C   0  0  0  0  0  0  0  0  0  0  0  0
  130.6440  124.0910   59.7400 C   0  0  0  0  0  0  0  0  0  0  0  0
  131.5100  125.1730   59.6120 C   0  0  0  0  0  0  0  0  0  0  0  0
  131.1960  126.2090   58.7370 C   0  0  0  0  0  0  0  0  0  0  0  0
  130.0240  126.1710   57.9870 C   0  0  0  0  0  0  0  0  0  0  0  0
  129.1580  125.0890   58.1150 C   0  0  0  0  0  0  0  0  0  0  0  0
  127.3470  122.8920   58.0500 C   0  0  0  0  0  0  0  0  0  0  0  0
  126.0700  123.3820   58.3600 C   0  0  0  0  0  0  0  0  0  0  0  0
  125.0630  123.3820   57.3980 C   0  0  0  0  0  0  0  0  0  0  0  0
  125.3290  122.8970   56.1210 C   0  0  0  0  0  0  0  0  0  0  0  0
  126.5910  122.4060   55.7990 C   0  0  0  0  0  0  0  0  0  0  0  0
  127.5960  122.3980   56.7630 C   0  0  0  0  0  0  0  0  0  0  0  0
  127.2120  123.6850   61.1410 N   0  0  0  0  0  0  0  0  0  0  0  0
  127.2960  125.0930   60.7290 C   0  0  0  0  0  0  0  0  0  0  0  0
  128.5070  125.7250   61.4550 C   0  0  0  0  0  0  0  0  0  0  0  0
  128.6510  125.3670   62.9710 C   0  0  0  0  0  0  0  0  0  0  0  0
  130.0910  125.4630   63.4870 C   0  0  0  0  0  0  0  0  0  0  0  0
  131.0710  124.9620   62.8020 N   0  0  0  0  0  0  0  0  0  0  0  0
  132.3060  125.1000   63.3600 C   0  0  0  0  0  0  0  0  0  0  0  0
  132.5980  125.7130   64.5680 C   0  0  0  0  0  0  0  0  0  0  0  0
  133.8960  125.6600   64.8100 N   0  0  0  0  0  0  0  0  0  0  0  0
  134.4920  124.9990   63.7400 N   0  0  0  0  0  0  0  0  0  0  0  0
  133.5170  124.6860   62.8700 N   0  0  0  0  0  0  0  0  0  0  0  0
  133.8140  123.9610   61.6410 C   0  0  0  0  0  0  0  0  0  0  0  0
  133.1000  122.6200   61.5430 C   0  0  0  0  0  0  0  0  0  0  0  0
  131.9290  122.3940   62.2730 C   0  0  0  0  0  0  0  0  0  0  0  0
  131.2780  121.1620   62.1930 C   0  0  0  0  0  0  0  0  0  0  0  0
  131.7930  120.1530   61.3800 C   0  0  0  0  0  0  0  0  0  0  0  0
  132.9580  120.3740   60.6450 C   0  0  0  0  0  0  0  0  0  0  0  0
  133.5960  119.1230   59.6440 Cl  0  0  0  0  0  0  0  0  0  0  0  0
  133.6090  121.6050   60.7240 C   0  0  0  0  0  0  0  0  0  0  0  0
  131.5100  126.2930   65.3570 C   0  0  0  0  0  0  0  0  0  0  0  0
  131.5730  126.8740   66.4380 O   0  0  0  0  0  0  0  0  0  0  0  0
  130.3110  126.1020   64.7030 N   0  0  0  0  0  0  0  0  0  0  0  0
  127.9430  124.0550   63.4360 C   0  0  0  0  0  0  0  0  0  0  0  0
  126.7830  123.5530   62.5410 C   0  0  0  0  0  0  0  0  0  0  0  0
  129.0685  121.9651   58.8709 H   0  0  0  0  0  0  0  0  0  0  0  0
  130.8907  123.2719   60.4315 H   0  0  0  0  0  0  0  0  0  0  0  0
  132.4389  125.2093   60.2000 H   0  0  0  0  0  0  0  0  0  0  0  0
  131.8798  127.0649   58.6374 H   0  0  0  0  0  0  0  0  0  0  0  0
  129.7833  126.9925   57.2962 H   0  0  0  0  0  0  0  0  0  0  0  0
  128.2313  125.0583   57.5231 H   0  0  0  0  0  0  0  0  0  0  0  0
  125.8626  123.7685   59.3688 H   0  0  0  0  0  0  0  0  0  0  0  0
  124.0617  123.7637   57.6465 H   0  0  0  0  0  0  0  0  0  0  0  0
  124.5351  122.9017   55.3596 H   0  0  0  0  0  0  0  0  0  0  0  0
  126.7937  122.0257   54.7869 H   0  0  0  0  0  0  0  0  0  0  0  0
  128.5910  122.0015   56.5124 H   0  0  0  0  0  0  0  0  0  0  0  0
  127.4373  125.1567   59.6400 H   0  0  0  0  0  0  0  0  0  0  0  0
  126.3698  125.6262   60.9896 H   0  0  0  0  0  0  0  0  0  0  0  0
  129.4207  125.3923   60.9408 H   0  0  0  0  0  0  0  0  0  0  0  0
  128.3452  126.8124   61.4176 H   0  0  0  0  0  0  0  0  0  0  0  0
  128.0759  126.1675   63.4593 H   0  0  0  0  0  0  0  0  0  0  0  0
  133.5076  124.5825   60.7867 H   0  0  0  0  0  0  0  0  0  0  0  0
  134.8945  123.7547   61.6385 H   0  0  0  0  0  0  0  0  0  0  0  0
  131.5195  123.1899   62.9125 H   0  0  0  0  0  0  0  0  0  0  0  0
  130.3588  120.9870   62.7713 H   0  0  0  0  0  0  0  0  0  0  0  0
  131.2802  119.1818   61.3181 H   0  0  0  0  0  0  0  0  0  0  0  0
  134.5254  121.7789   60.1409 H   0  0  0  0  0  0  0  0  0  0  0  0
  129.5050  126.4730   65.1830 H   0  0  0  0  0  0  0  0  0  0  0  0
  128.7024  123.2604   63.4791 H   0  0  0  0  0  0  0  0  0  0  0  0
  127.4848  124.2946   64.4069 H   0  0  0  0  0  0  0  0  0  0  0  0
  126.5631  122.4994   62.7681 H   0  0  0  0  0  0  0  0  0  0  0  0
  125.8721  124.1422   62.7229 H   0  0  0  0  0  0  0  0  0  0  0  0
  1  2  2  0
  2  3  1  0
  3  4  1  0
  4  5  2  0
  5  6  1  0
  6  7  2  0
  7  8  1  0
  8  9  2  0
  3 10  1  0
 10 11  2  0
 11 12  1  0
 12 13  2  0
 13 14  1  0
 14 15  2  0
  2 16  1  0
 16 17  1  0
 17 18  1  0
 18 19  1  0
 19 20  1  0
 20 21  2  0
 21 22  1  0
 22 23  2  0
 23 24  1  0
 24 25  2  0
 25 26  1  0
 26 27  1  0
 27 28  1  0
 28 29  2  0
 29 30  1  0
 30 31  2  0
 31 32  1  0
 32 33  1  0
 32 34  2  0
 23 35  1  0
 35 36  2  0
 35 37  1  0
 19 38  1  0
 38 39  1  0
  9  4  1  0
 15 10  1  0
 39 16  1  0
 37 20  1  0
 26 22  1  0
 34 28  1  0
  3 40  1  0
  5 41  1  0
  6 42  1  0
  7 43  1  0
  8 44  1  0
  9 45  1  0
 11 46  1  0
 12 47  1  0
 13 48  1  0
 14 49  1  0
 15 50  1  0
 17 51  1  0
 17 52  1  0
 18 53  1  0
 18 54  1  0
 19 55  1  0
 27 56  1  0
 27 57  1  0
 29 58  1  0
 30 59  1  0
 31 60  1  0
 34 61  1  0
 37 62  1  0
 38 63  1  0
 38 64  1  0
 39 65  1  0
 39 66  1  0
M  END
>  <Binding energies>  (1) 
[-11.33]

>  <Ligand effiencies>  (1) 
[-0.28325]

>  <Interactions>  (1) 
["V-A:ASP:366:CG:3212, V-A:ASP:366:CB:3211, V-B:GLU:543:CD:9879, V-B:PRO:540:N:9855, H-B:ALA:541:N:9862, V-B:PRO:540:CA:9854, H-B:GLU:543:OE2:9881, V-B:PRO:540:C:9852, V-B:TYR:539:C:9838, V-A:LEU:475:CD2:4258, V-A:ILE:369:CD1:3238, V-B:TYR:539:CD2:9845, V-A:ILE:369:CG2:3236, V-B:TYR:539:CE2:9847, V-A:SER:385:CA:3406, V-B:TYR:539:CG:9843, V-B:MET:535:CE:9806, V-B:TYR:539:CZ:9848, V-B:GLU:543:CG:9878, V-B:PRO:540:CB:9856, H-A:GLY:454:N:4049, V-B:TYR:539:CA:9840, V-B:TYR:539:CD1:9844, V-B:TYR:531:CZ:9765, V-B:TYR:531:CE2:9764, V-B:LEU:363:CD1:8159, V-A:ARG:545:CZ:4925, V-B:ILE:538:CD1:9836, H-A:ARG:545:NH1:4926, H-A:ARG:545:NH2:4927, V-B:ILE:538:CA:9831, V-B:TYR:539:CE1:9846, H-A:ARG:545:NE:4923, V-A:LEU:373:CD2:3280, V-B:MET:535:CG:9804, V-A:VAL:384:C:3396"]

$$$$
RR28_Rahimova_2017
     RDKit          3D

 82 85  0  0  0  0  0  0  0  0999 V2000
  133.9950  119.5050   60.3880 C   0  0  0  0  0  0  0  0  0  0  0  0
  132.8490  120.4890   60.5920 C   0  0  0  0  0  0  0  0  0  0  0  0
  131.6930  120.1290   60.3770 O   0  0  0  0  0  0  0  0  0  0  0  0
  133.1900  121.7270   61.0060 N   0  0  0  0  0  0  0  0  0  0  0  0
  132.3020  122.8790   61.2770 C   0  0  0  0  0  0  0  0  0  0  0  0
  132.3710  123.8430   60.0580 C   0  0  0  0  0  0  0  0  0  0  0  0
  131.2310  124.5770   59.6950 C   0  0  0  0  0  0  0  0  0  0  0  0
  131.2540  125.4450   58.6080 C   0  0  0  0  0  0  0  0  0  0  0  0
  132.4200  125.5990   57.8560 C   0  0  0  0  0  0  0  0  0  0  0  0
  132.4260  126.5540   56.6630 C   0  0  0  0  0  0  0  0  0  0  0  0
  133.1980  126.1150   55.6670 F   0  0  0  0  0  0  0  0  0  0  0  0
  131.1900  126.7080   56.1880 F   0  0  0  0  0  0  0  0  0  0  0  0
  132.8860  127.7420   57.0550 F   0  0  0  0  0  0  0  0  0  0  0  0
  133.5620  124.8740   58.2060 C   0  0  0  0  0  0  0  0  0  0  0  0
  133.5370  124.0050   59.2940 C   0  0  0  0  0  0  0  0  0  0  0  0
  132.6820  123.5580   62.6410 C   0  0  0  0  0  0  0  0  0  0  0  0
  132.4300  122.6480   63.8700 C   0  0  0  0  0  0  0  0  0  0  0  0
  130.9980  122.3080   63.8500 N   0  0  0  0  0  0  0  0  0  0  0  0
  130.1040  123.0550   64.5550 C   0  0  0  0  0  0  0  0  0  0  0  0
  130.4630  123.9210   65.3560 O   0  0  0  0  0  0  0  0  0  0  0  0
  128.6000  122.6970   64.4710 C   0  0  0  0  0  0  0  0  0  0  0  0
  128.0120  122.5640   63.0400 C   0  0  0  0  0  0  0  0  0  0  0  0
  126.8710  123.5530   62.7050 C   0  0  0  0  0  0  0  0  0  0  0  0
  125.8040  123.4330   63.3140 O   0  0  0  0  0  0  0  0  0  0  0  0
  127.1080  124.6000   61.8650 N   0  0  0  0  0  0  0  0  0  0  0  0
  128.2080  124.6230   60.8940 C   0  0  0  0  0  0  0  0  0  0  0  0
  127.6920  123.9060   59.6270 C   0  0  0  0  0  0  0  0  0  0  0  0
  126.3840  124.5170   59.0140 C   0  0  0  0  0  0  0  0  0  0  0  0
  125.7810  123.5390   58.0850 N   0  0  0  0  0  0  0  0  0  0  0  0
  126.3950  122.8100   57.1300 C   0  0  0  0  0  0  0  0  0  0  0  0
  125.5020  121.8880   56.3060 C   0  0  0  0  0  0  0  0  0  0  0  0
  127.6020  122.8540   56.8990 O   0  0  0  0  0  0  0  0  0  0  0  0
  126.8010  125.7690   58.1750 C   0  0  0  0  0  0  0  0  0  0  0  0
  126.0160  126.9320   58.1000 C   0  0  0  0  0  0  0  0  0  0  0  0
  126.4240  128.0250   57.3420 C   0  0  0  0  0  0  0  0  0  0  0  0
  127.6280  127.9840   56.6350 C   0  0  0  0  0  0  0  0  0  0  0  0
  128.0910  129.1780   55.8010 C   0  0  0  0  0  0  0  0  0  0  0  0
  127.9120  130.3170   56.4710 F   0  0  0  0  0  0  0  0  0  0  0  0
  129.3890  129.0430   55.5290 F   0  0  0  0  0  0  0  0  0  0  0  0
  127.4290  129.2720   54.6460 F   0  0  0  0  0  0  0  0  0  0  0  0
  128.4150  126.8330   56.6910 C   0  0  0  0  0  0  0  0  0  0  0  0
  128.0040  125.7410   57.4510 C   0  0  0  0  0  0  0  0  0  0  0  0
  125.3800  124.8590   60.1820 C   0  0  0  0  0  0  0  0  0  0  0  0
  126.0070  125.4820   61.4580 C   0  0  0  0  0  0  0  0  0  0  0  0
  130.6090  121.4910   62.6920 C   0  0  0  0  0  0  0  0  0  0  0  0
  130.8350  122.3590   61.4270 C   0  0  0  0  0  0  0  0  0  0  0  0
  134.3760  119.1779   61.3667 H   0  0  0  0  0  0  0  0  0  0  0  0
  133.6329  118.6321   59.8250 H   0  0  0  0  0  0  0  0  0  0  0  0
  134.8031  119.9949   59.8250 H   0  0  0  0  0  0  0  0  0  0  0  0
  134.1740  121.9140   61.1300 H   0  0  0  0  0  0  0  0  0  0  0  0
  130.3055  124.4642   60.2787 H   0  0  0  0  0  0  0  0  0  0  0  0
  130.3502  126.0120   58.3402 H   0  0  0  0  0  0  0  0  0  0  0  0
  134.4852  124.9902   57.6194 H   0  0  0  0  0  0  0  0  0  0  0  0
  134.4423  123.4386   59.5578 H   0  0  0  0  0  0  0  0  0  0  0  0
  133.7497  123.8211   62.6145 H   0  0  0  0  0  0  0  0  0  0  0  0
  132.0395  124.4437   62.7542 H   0  0  0  0  0  0  0  0  0  0  0  0
  133.0387  121.7346   63.7980 H   0  0  0  0  0  0  0  0  0  0  0  0
  132.7056  123.1567   64.8055 H   0  0  0  0  0  0  0  0  0  0  0  0
  128.4533  121.7362   64.9860 H   0  0  0  0  0  0  0  0  0  0  0  0
  128.0675  123.5410   64.9337 H   0  0  0  0  0  0  0  0  0  0  0  0
  128.8273  122.7278   62.3200 H   0  0  0  0  0  0  0  0  0  0  0  0
  127.5719  121.5575   62.9820 H   0  0  0  0  0  0  0  0  0  0  0  0
  128.4837  125.6612   60.6571 H   0  0  0  0  0  0  0  0  0  0  0  0
  129.1027  124.1248   61.2956 H   0  0  0  0  0  0  0  0  0  0  0  0
  128.4818  123.9506   58.8626 H   0  0  0  0  0  0  0  0  0  0  0  0
  127.4416  122.8791   59.9318 H   0  0  0  0  0  0  0  0  0  0  0  0
  124.7800  123.4420   58.1620 H   0  0  0  0  0  0  0  0  0  0  0  0
  124.8975  121.2639   56.9807 H   0  0  0  0  0  0  0  0  0  0  0  0
  124.8371  122.4924   55.6715 H   0  0  0  0  0  0  0  0  0  0  0  0
  126.1274  121.2427   55.6715 H   0  0  0  0  0  0  0  0  0  0  0  0
  125.0640  126.9790   58.6492 H   0  0  0  0  0  0  0  0  0  0  0  0
  125.7950  128.9264   57.2992 H   0  0  0  0  0  0  0  0  0  0  0  0
  129.3622  126.7882   56.1335 H   0  0  0  0  0  0  0  0  0  0  0  0
  128.6334  124.8395   57.4849 H   0  0  0  0  0  0  0  0  0  0  0  0
  124.6377  125.5700   59.7903 H   0  0  0  0  0  0  0  0  0  0  0  0
  124.9561  123.8952   60.5003 H   0  0  0  0  0  0  0  0  0  0  0  0
  126.3905  126.4893   61.2382 H   0  0  0  0  0  0  0  0  0  0  0  0
  125.2594  125.5749   62.2595 H   0  0  0  0  0  0  0  0  0  0  0  0
  131.2301  120.5844   62.6438 H   0  0  0  0  0  0  0  0  0  0  0  0
  129.5577  121.1767   62.7692 H   0  0  0  0  0  0  0  0  0  0  0  0
  130.5885  121.7541   60.5419 H   0  0  0  0  0  0  0  0  0  0  0  0
  130.1881  123.2434   61.5235 H   0  0  0  0  0  0  0  0  0  0  0  0
  1  2  1  0
  2  3  2  0
  2  4  1  0
  4  5  1  0
  5  6  1  0
  6  7  2  0
  7  8  1  0
  8  9  2  0
  9 10  1  0
 10 11  1  0
 10 12  1  0
 10 13  1  0
  9 14  1  0
 14 15  2  0
  5 16  1  0
 16 17  1  0
 17 18  1  0
 18 19  1  0
 19 20  2  0
 19 21  1  0
 21 22  1  0
 22 23  1  0
 23 24  2  0
 23 25  1  0
 25 26  1  0
 26 27  1  0
 27 28  1  0
 28 29  1  0
 29 30  1  0
 30 31  1  0
 30 32  2  0
 28 33  1  0
 33 34  2  0
 34 35  1  0
 35 36  2  0
 36 37  1  0
 37 38  1  0
 37 39  1  0
 37 40  1  0
 36 41  1  0
 41 42  2  0
 28 43  1  0
 43 44  1  0
 18 45  1  0
 45 46  1  0
 46  5  1  0
 15  6  1  0
 44 25  1  0
 42 33  1  0
  1 47  1  0
  1 48  1  0
  1 49  1  0
  4 50  1  0
  7 51  1  0
  8 52  1  0
 14 53  1  0
 15 54  1  0
 16 55  1  0
 16 56  1  0
 17 57  1  0
 17 58  1  0
 21 59  1  0
 21 60  1  0
 22 61  1  0
 22 62  1  0
 26 63  1  0
 26 64  1  0
 27 65  1  0
 27 66  1  0
 29 67  1  0
 31 68  1  0
 31 69  1  0
 31 70  1  0
 34 71  1  0
 35 72  1  0
 41 73  1  0
 42 74  1  0
 43 75  1  0
 43 76  1  0
 44 77  1  0
 44 78  1  0
 45 79  1  0
 45 80  1  0
 46 81  1  0
 46 82  1  0
M  END
>  <Binding energies>  (1) 
[-8.98]

>  <Ligand effiencies>  (1) 
[-0.18708333333333335]

>  <Interactions>  (1) 
["V-A:ASP:366:CG:3212, V-A:ASP:366:CB:3211, V-A:TYR:531:CZ:4793, V-B:GLU:543:CD:9879, V-B:PRO:540:N:9855, H-B:ALA:541:N:9862, H-A:TYR:484:OH:4347, V-B:ALA:541:CB:9863, V-B:PRO:540:CA:9854, V-B:ALA:541:CA:9861, V-A:LEU:475:CD2:4258, V-A:ILE:369:CD1:3238, V-A:SER:385:C:3404, V-B:TYR:539:CD2:9845, V-A:ILE:369:CG2:3236, V-B:TYR:539:CE2:9847, V-A:SER:385:CA:3406, V-A:SER:385:CB:3408, V-A:GLY:454:CA:4048, V-B:MET:535:CE:9806, V-B:TYR:539:CZ:9848, V-B:GLU:543:CG:9878, V-B:ALA:541:C:9859, V-B:PRO:540:CB:9856, V-B:PRO:540:CD:9858, V-B:LEU:363:CD1:8159, V-B:ILE:538:CD1:9836, V-B:ILE:538:CG2:9834, H-B:ARG:545:NH2:9899, V-B:ILE:538:CA:9831, V-B:ILE:538:C:9829, V-A:MET:535:CE:4834, V-A:TYR:531:CE1:4791, V-B:ASP:366:CG:8183, V-B:TYR:531:CE1:9763, V-A:VAL:384:C:3396, V-B:PRO:540:CG:9857, V-A:ILE:369:CB:3235, V-A:ASP:366:CA:3209, V-A:ASP:366:C:3207, H-A:SER:385:O:3405, V-A:ASN:370:CB:3244, V-A:ASN:370:CG:3245, V-A:TYR:531:CD1:4789, V-A:ASN:370:CA:3242"]

$$$$
RR29_Rahimova_2017
     RDKit          3D

 35 36  0  0  0  0  0  0  0  0999 V2000
  128.3130  122.7550   63.6420 C   0  0  0  0  0  0  0  0  0  0  0  0
  128.9790  123.9610   62.9950 C   0  0  0  0  0  0  0  0  0  0  0  0
  128.4700  124.2340   61.5620 C   0  0  0  0  0  0  0  0  0  0  0  0
  128.4770  122.9540   60.7000 C   0  0  0  0  0  0  0  0  0  0  0  0
  127.6270  123.0970   59.4470 C   0  0  0  0  0  0  0  0  0  0  0  0
  126.4940  123.9350   59.4580 C   0  0  0  0  0  0  0  0  0  0  0  0
  125.6970  124.0820   58.3140 C   0  0  0  0  0  0  0  0  0  0  0  0
  126.0610  123.3640   57.1810 C   0  0  0  0  0  0  0  0  0  0  0  0
  127.1570  122.5480   57.1650 C   0  0  0  0  0  0  0  0  0  0  0  0
  127.9720  122.3910   58.2810 C   0  0  0  0  0  0  0  0  0  0  0  0
  127.2940  122.0020   55.9280 O   0  0  0  0  0  0  0  0  0  0  0  0
  126.1220  122.3380   55.2340 C   0  0  0  0  0  0  0  0  0  0  0  0
  125.4760  123.3550   55.9530 O   0  0  0  0  0  0  0  0  0  0  0  0
  129.8650  124.6040   63.6610 N   0  0  0  0  0  0  0  0  0  0  0  0
  130.5300  125.6430   63.0470 N   0  0  0  0  0  0  0  0  0  0  0  0
  130.6850  126.8610   63.5900 C   0  0  0  0  0  0  0  0  0  0  0  0
  130.2370  127.2220   64.7940 N   0  0  0  0  0  0  0  0  0  0  0  0
  131.3310  127.7750   62.8810 N   0  0  0  0  0  0  0  0  0  0  0  0
  128.3657  122.8504   64.7366 H   0  0  0  0  0  0  0  0  0  0  0  0
  127.2598  122.7057   63.3285 H   0  0  0  0  0  0  0  0  0  0  0  0
  128.8322  121.8373   63.3285 H   0  0  0  0  0  0  0  0  0  0  0  0
  127.4419  124.6213   61.6167 H   0  0  0  0  0  0  0  0  0  0  0  0
  129.1430  124.9668   61.0930 H   0  0  0  0  0  0  0  0  0  0  0  0
  129.5127  122.7342   60.4016 H   0  0  0  0  0  0  0  0  0  0  0  0
  128.0513  122.1393   61.3041 H   0  0  0  0  0  0  0  0  0  0  0  0
  126.2315  124.4809   60.3762 H   0  0  0  0  0  0  0  0  0  0  0  0
  124.8163  124.7411   58.3132 H   0  0  0  0  0  0  0  0  0  0  0  0
  128.8560  121.7370   58.2524 H   0  0  0  0  0  0  0  0  0  0  0  0
  126.3739  122.6951   54.2245 H   0  0  0  0  0  0  0  0  0  0  0  0
  125.4670  121.4596   55.1370 H   0  0  0  0  0  0  0  0  0  0  0  0
  130.8910  125.4650   62.1210 H   0  0  0  0  0  0  0  0  0  0  0  0
  130.6410  128.0160   65.2690 H   0  0  0  0  0  0  0  0  0  0  0  0
  129.4990  126.6880   65.2300 H   0  0  0  0  0  0  0  0  0  0  0  0
  131.4060  127.6760   61.8780 H   0  0  0  0  0  0  0  0  0  0  0  0
  131.7420  128.5720   63.3430 H   0  0  0  0  0  0  0  0  0  0  0  0
  1  2  1  0
  2  3  1  0
  3  4  1  0
  4  5  1  0
  5  6  2  0
  6  7  1  0
  7  8  2  0
  8  9  1  0
  9 10  2  0
  9 11  1  0
 11 12  1  0
 12 13  1  0
  2 14  2  0
 14 15  1  0
 15 16  1  0
 16 17  1  0
 16 18  2  0
 10  5  1  0
 13  8  1  0
  1 19  1  0
  1 20  1  0
  1 21  1  0
  3 22  1  0
  3 23  1  0
  4 24  1  0
  4 25  1  0
  6 26  1  0
  7 27  1  0
 10 28  1  0
 12 29  1  0
 12 30  1  0
 15 31  1  0
 17 32  1  0
 17 33  1  0
 18 34  1  0
 18 35  1  0
M  CHG  1  18   1
M  END
>  <Binding energies>  (1) 
[-7.95]

>  <Ligand effiencies>  (1) 
[-0.3456521739130435]

>  <Interactions>  (1) 
["H-A:GLU:543:OE2:4909, V-B:GLU:543:CD:9879, V-B:PRO:540:N:9855, V-B:ALA:541:CB:9863, V-B:PRO:540:CA:9854, H-B:GLU:543:OE2:9881, V-B:ALA:541:CA:9861, V-B:TYR:539:C:9838, V-B:TYR:539:CD2:9845, V-B:TYR:539:CE2:9847, H-B:TYR:539:N:9841, V-B:TYR:539:CG:9843, V-B:MET:535:CE:9806, V-B:GLU:543:CG:9878, V-B:ALA:541:C:9859, V-B:PRO:540:CB:9856, V-B:TYR:539:CA:9840, V-B:TYR:531:CE2:9764, V-A:ARG:545:CZ:4925, V-B:ILE:538:CD1:9836, H-A:GLU:543:OE1:4908, V-B:ILE:538:CG2:9834, V-A:GLU:543:CD:4907, H-A:ASP:366:OD2:3214, V-B:ILE:538:CA:9831, V-B:ILE:538:C:9829, V-B:ILE:538:CB:9833, H-B:TYR:531:OH:9766, V-B:MET:535:CG:9804"]

$$$$
RR29_Rahimova_2017-again1
     RDKit          3D

 34 35  0  0  0  0  0  0  0  0999 V2000
  129.2160  123.3460   63.7790 C   0  0  0  0  0  0  0  0  0  0  0  0
  128.0760  123.0870   62.8060 C   0  0  0  0  0  0  0  0  0  0  0  0
  128.5460  122.8520   61.3570 C   0  0  0  0  0  0  0  0  0  0  0  0
  128.4680  124.1460   60.5200 C   0  0  0  0  0  0  0  0  0  0  0  0
  127.6100  123.9770   59.2750 C   0  0  0  0  0  0  0  0  0  0  0  0
  126.4960  124.8140   59.0710 C   0  0  0  0  0  0  0  0  0  0  0  0
  125.6930  124.6760   57.9300 C   0  0  0  0  0  0  0  0  0  0  0  0
  126.0320  123.6820   57.0200 C   0  0  0  0  0  0  0  0  0  0  0  0
  127.1110  122.8650   57.2150 C   0  0  0  0  0  0  0  0  0  0  0  0
  127.9300  122.9860   58.3320 C   0  0  0  0  0  0  0  0  0  0  0  0
  127.2260  122.0150   56.1620 O   0  0  0  0  0  0  0  0  0  0  0  0
  126.0550  122.1840   55.4090 C   0  0  0  0  0  0  0  0  0  0  0  0
  125.4380  123.3680   55.8390 O   0  0  0  0  0  0  0  0  0  0  0  0
  126.8650  123.1010   63.2390 N   0  0  0  0  0  0  0  0  0  0  0  0
  125.9220  122.9040   62.3740 N   0  0  0  0  0  0  0  0  0  0  0  0
  125.3230  123.9390   61.9090 C   0  0  0  0  0  0  0  0  0  0  0  0
  125.5590  125.3050   62.2280 N   0  0  0  0  0  0  0  0  0  0  0  0
  124.2880  123.8190   60.9580 N   0  0  0  0  0  0  0  0  0  0  0  0
  128.8439  123.2615   64.8107 H   0  0  0  0  0  0  0  0  0  0  0  0
  130.0133  122.6061   63.6150 H   0  0  0  0  0  0  0  0  0  0  0  0
  129.6153  124.3578   63.6150 H   0  0  0  0  0  0  0  0  0  0  0  0
  129.5875  122.4983   61.3720 H   0  0  0  0  0  0  0  0  0  0  0  0
  127.8846  122.1031   60.8969 H   0  0  0  0  0  0  0  0  0  0  0  0
  128.0361  124.9440   61.1417 H   0  0  0  0  0  0  0  0  0  0  0  0
  129.4879  124.3983   60.1943 H   0  0  0  0  0  0  0  0  0  0  0  0
  126.2528  125.5857   59.8162 H   0  0  0  0  0  0  0  0  0  0  0  0
  124.8257  125.3311   57.7612 H   0  0  0  0  0  0  0  0  0  0  0  0
  128.7998  122.3275   58.4727 H   0  0  0  0  0  0  0  0  0  0  0  0
  126.3044  122.2584   54.3402 H   0  0  0  0  0  0  0  0  0  0  0  0
  125.3807  121.3261   55.5479 H   0  0  0  0  0  0  0  0  0  0  0  0
  126.2620  125.5860   62.8970 H   0  0  0  0  0  0  0  0  0  0  0  0
  125.0320  126.0580   61.8120 H   0  0  0  0  0  0  0  0  0  0  0  0
  123.9770  122.9230   60.6130 H   0  0  0  0  0  0  0  0  0  0  0  0
  123.8010  124.6190   60.5830 H   0  0  0  0  0  0  0  0  0  0  0  0
  1  2  1  0
  2  3  1  0
  3  4  1  0
  4  5  1  0
  5  6  2  0
  6  7  1  0
  7  8  2  0
  8  9  1  0
  9 10  2  0
  9 11  1  0
 11 12  1  0
 12 13  1  0
  2 14  2  0
 14 15  1  0
 15 16  2  0
 16 17  1  0
 16 18  1  0
 10  5  1  0
 13  8  1  0
  1 19  1  0
  1 20  1  0
  1 21  1  0
  3 22  1  0
  3 23  1  0
  4 24  1  0
  4 25  1  0
  6 26  1  0
  7 27  1  0
 10 28  1  0
 12 29  1  0
 12 30  1  0
 17 31  1  0
 17 32  1  0
 18 33  1  0
 18 34  1  0
M  END
>  <Binding energies>  (1) 
[-7.36]

>  <Ligand effiencies>  (1) 
[-0.33454545454545453]

>  <Interactions>  (1) 
["V-B:GLU:543:CD:9879, V-B:PRO:540:N:9855, H-B:ALA:541:N:9862, V-B:ALA:541:CB:9863, V-B:PRO:540:CA:9854, H-B:GLU:543:OE2:9881, H-B:GLU:543:OE1:9880, V-B:TYR:539:C:9838, V-B:TYR:539:CD2:9845, V-B:TYR:539:CE2:9847, H-B:TYR:539:N:9841, V-B:MET:535:CE:9806, V-B:PRO:540:CB:9856, V-B:ILE:538:CD1:9836, V-B:ILE:538:CG2:9834, V-B:ILE:538:CA:9831, V-B:ILE:538:C:9829, V-B:ILE:538:CB:9833, H-B:TYR:531:OH:9766, V-B:ASP:366:CG:8183, V-B:MET:535:CG:9804, V-B:ARG:545:CZ:9897, H-B:ASP:366:OD2:8185, H-B:ASP:366:OD1:8184"]

$$$$
RR2_Rahimova_2017
     RDKit          3D

 76 80  0  0  0  0  0  0  0  0999 V2000
  125.3690  128.7260   67.0760 C   0  0  0  0  0  0  0  0  0  0  0  0
  125.5200  129.1040   65.7120 O   0  0  0  0  0  0  0  0  0  0  0  0
  126.6680  128.7380   65.0340 C   0  0  0  0  0  0  0  0  0  0  0  0
  126.6920  128.2830   63.7080 C   0  0  0  0  0  0  0  0  0  0  0  0
  127.8980  127.9330   63.1080 C   0  0  0  0  0  0  0  0  0  0  0  0
  129.1040  128.0240   63.8160 C   0  0  0  0  0  0  0  0  0  0  0  0
  130.4030  127.6280   63.1410 C   0  0  0  0  0  0  0  0  0  0  0  0
  130.8610  128.3150   62.2210 O   0  0  0  0  0  0  0  0  0  0  0  0
  130.9880  126.4990   63.6020 N   0  0  0  0  0  0  0  0  0  0  0  0
  132.1320  126.0410   62.9570 N   0  0  0  0  0  0  0  0  0  0  0  0
  132.3240  124.7090   62.8680 C   0  0  0  0  0  0  0  0  0  0  0  0
  131.6600  123.8590   63.4680 O   0  0  0  0  0  0  0  0  0  0  0  0
  133.4480  124.2650   61.9230 C   0  0  0  0  0  0  0  0  0  0  0  0
  132.9420  123.0890   60.6150 S   0  0  0  0  0  0  0  0  0  0  0  0
  132.4040  124.2100   59.3590 C   0  0  0  0  0  0  0  0  0  0  0  0
  133.2280  124.8110   58.5380 N   0  0  0  0  0  0  0  0  0  0  0  0
  132.4760  125.6640   57.7430 N   0  0  0  0  0  0  0  0  0  0  0  0
  131.2200  125.5260   58.0940 C   0  0  0  0  0  0  0  0  0  0  0  0
  130.0980  126.2730   57.4480 C   0  0  0  0  0  0  0  0  0  0  0  0
  128.9550  126.5860   58.1870 C   0  0  0  0  0  0  0  0  0  0  0  0
  127.9030  127.2750   57.5920 C   0  0  0  0  0  0  0  0  0  0  0  0
  127.9920  127.6740   56.2530 C   0  0  0  0  0  0  0  0  0  0  0  0
  126.9580  128.3610   55.5990 N   0  0  0  0  0  0  0  0  0  0  0  0
  126.5170  130.0560   55.9050 S   0  0  0  0  0  0  0  0  0  0  0  0
  125.8650  130.0720   57.2200 O   0  0  0  0  0  0  0  0  0  0  0  0
  125.8260  130.5690   54.7160 O   0  0  0  0  0  0  0  0  0  0  0  0
  128.0750  130.9190   56.0920 C   0  0  0  0  0  0  0  0  0  0  0  0
  128.5110  131.8200   55.1170 C   0  0  0  0  0  0  0  0  0  0  0  0
  129.7320  132.4700   55.2740 C   0  0  0  0  0  0  0  0  0  0  0  0
  130.5140  132.2230   56.4050 C   0  0  0  0  0  0  0  0  0  0  0  0
  131.8530  132.9210   56.5660 C   0  0  0  0  0  0  0  0  0  0  0  0
  130.0780  131.3180   57.3760 C   0  0  0  0  0  0  0  0  0  0  0  0
  128.8580  130.6680   57.2200 C   0  0  0  0  0  0  0  0  0  0  0  0
  129.1350  127.3630   55.5170 C   0  0  0  0  0  0  0  0  0  0  0  0
  130.1850  126.6690   56.1100 C   0  0  0  0  0  0  0  0  0  0  0  0
  131.1010  124.6120   59.1280 N   0  0  0  0  0  0  0  0  0  0  0  0
  129.9360  124.2140   59.8170 C   0  0  0  0  0  0  0  0  0  0  0  0
  129.6290  124.7860   61.0520 C   0  0  0  0  0  0  0  0  0  0  0  0
  128.4750  124.3930   61.7250 C   0  0  0  0  0  0  0  0  0  0  0  0
  127.6260  123.4310   61.1770 C   0  0  0  0  0  0  0  0  0  0  0  0
  126.5070  123.1050   61.9190 O   0  0  0  0  0  0  0  0  0  0  0  0
  126.0430  124.0130   62.9130 C   0  0  0  0  0  0  0  0  0  0  0  0
  127.9440  122.8600   59.9340 C   0  0  0  0  0  0  0  0  0  0  0  0
  129.0940  123.2520   59.2560 C   0  0  0  0  0  0  0  0  0  0  0  0
  129.0720  128.4850   65.1410 C   0  0  0  0  0  0  0  0  0  0  0  0
  127.8650  128.8360   65.7390 C   0  0  0  0  0  0  0  0  0  0  0  0
  125.6988  129.5515   67.7239 H   0  0  0  0  0  0  0  0  0  0  0  0
  124.3117  128.5004   67.2791 H   0  0  0  0  0  0  0  0  0  0  0  0
  125.9798  127.8340   67.2791 H   0  0  0  0  0  0  0  0  0  0  0  0
  125.7537  128.2023   63.1396 H   0  0  0  0  0  0  0  0  0  0  0  0
  127.9047  127.5808   62.0659 H   0  0  0  0  0  0  0  0  0  0  0  0
  130.4420  125.7370   63.9790 H   0  0  0  0  0  0  0  0  0  0  0  0
  132.5080  126.7030   62.2930 H   0  0  0  0  0  0  0  0  0  0  0  0
  133.8576  125.1619   61.4353 H   0  0  0  0  0  0  0  0  0  0  0  0
  134.1811  123.7329   62.5470 H   0  0  0  0  0  0  0  0  0  0  0  0
  128.8863  126.2867   59.2433 H   0  0  0  0  0  0  0  0  0  0  0  0
  126.9994  127.5068   58.1748 H   0  0  0  0  0  0  0  0  0  0  0  0
  126.4440  127.8660   54.8850 H   0  0  0  0  0  0  0  0  0  0  0  0
  127.8919  132.0149   54.2289 H   0  0  0  0  0  0  0  0  0  0  0  0
  130.0810  133.1779   54.5078 H   0  0  0  0  0  0  0  0  0  0  0  0
  132.0788  133.0387   57.6361 H   0  0  0  0  0  0  0  0  0  0  0  0
  132.6402  132.3185   56.0893 H   0  0  0  0  0  0  0  0  0  0  0  0
  131.8099  133.9114   56.0893 H   0  0  0  0  0  0  0  0  0  0  0  0
  130.6984  131.1198   58.2624 H   0  0  0  0  0  0  0  0  0  0  0  0
  128.5109  129.9573   57.9844 H   0  0  0  0  0  0  0  0  0  0  0  0
  129.2068  127.6679   54.4625 H   0  0  0  0  0  0  0  0  0  0  0  0
  131.0856  126.4314   55.5248 H   0  0  0  0  0  0  0  0  0  0  0  0
  130.2949  125.5432   61.4916 H   0  0  0  0  0  0  0  0  0  0  0  0
  128.2306  124.8451   62.6975 H   0  0  0  0  0  0  0  0  0  0  0  0
  126.2529  123.6022   63.9116 H   0  0  0  0  0  0  0  0  0  0  0  0
  126.5586  124.9778   62.7976 H   0  0  0  0  0  0  0  0  0  0  0  0
  124.9590  124.1604   62.7976 H   0  0  0  0  0  0  0  0  0  0  0  0
  127.2813  122.0999   59.4947 H   0  0  0  0  0  0  0  0  0  0  0  0
  129.3390  122.8054   58.2811 H   0  0  0  0  0  0  0  0  0  0  0  0
  130.0085  128.5697   65.7118 H   0  0  0  0  0  0  0  0  0  0  0  0
  127.8566  129.1944   66.7789 H   0  0  0  0  0  0  0  0  0  0  0  0
  1  2  1  0
  2  3  1  0
  3  4  2  0
  4  5  1  0
  5  6  2  0
  6  7  1  0
  7  8  2  0
  7  9  1  0
  9 10  1  0
 10 11  1  0
 11 12  2  0
 11 13  1  0
 13 14  1  0
 14 15  1  0
 15 16  2  0
 16 17  1  0
 17 18  2  0
 18 19  1  0
 19 20  2  0
 20 21  1  0
 21 22  2  0
 22 23  1  0
 23 24  1  0
 24 25  2  0
 24 26  2  0
 24 27  1  0
 27 28  2  0
 28 29  1  0
 29 30  2  0
 30 31  1  0
 30 32  1  0
 32 33  2  0
 22 34  1  0
 34 35  2  0
 18 36  1  0
 36 37  1  0
 37 38  2  0
 38 39  1  0
 39 40  2  0
 40 41  1  0
 41 42  1  0
 40 43  1  0
 43 44  2  0
  6 45  1  0
 45 46  2  0
 46  3  1  0
 36 15  1  0
 44 37  1  0
 35 19  1  0
 33 27  1  0
  1 47  1  0
  1 48  1  0
  1 49  1  0
  4 50  1  0
  5 51  1  0
  9 52  1  0
 10 53  1  0
 13 54  1  0
 13 55  1  0
 20 56  1  0
 21 57  1  0
 23 58  1  0
 28 59  1  0
 29 60  1  0
 31 61  1  0
 31 62  1  0
 31 63  1  0
 32 64  1  0
 33 65  1  0
 34 66  1  0
 35 67  1  0
 38 68  1  0
 39 69  1  0
 42 70  1  0
 42 71  1  0
 42 72  1  0
 43 73  1  0
 44 74  1  0
 45 75  1  0
 46 76  1  0
M  END
>  <Binding energies>  (1) 
[-10.23]

>  <Ligand effiencies>  (1) 
[-0.20877551020408164]

>  <Interactions>  (1) 
["V-A:TYR:539:CZ:4876, V-A:ASP:366:CG:3212, V-A:TYR:539:CE1:4874, V-A:TYR:531:CE2:4792, V-A:TYR:531:CZ:4793, V-A:LEU:363:CD1:3188, V-B:GLU:543:CD:9879, V-B:PRO:540:N:9855, H-B:ALA:541:N:9862, V-B:PRO:540:CA:9854, H-B:GLU:543:OE2:9881, V-B:TYR:539:C:9838, V-A:ILE:369:CD1:3238, V-B:TYR:539:CD2:9845, V-B:TYR:539:CE2:9847, V-B:MET:535:CE:9806, H-B:TYR:539:OH:9849, V-B:TYR:539:CZ:9848, V-B:GLU:543:CG:9878, V-B:TYR:531:CZ:9765, V-A:ARG:545:CZ:4925, V-A:GLU:543:CD:4907, V-A:GLU:543:CG:4906, V-B:ARG:545:CG:9893, H-A:ASP:366:OD2:3214, H-A:ARG:545:NH2:4927, H-B:TYR:484:OH:9318, V-A:MET:535:CE:4834, H-B:TYR:531:OH:9766, V-A:TYR:531:CE1:4791, H-A:ASP:366:OD1:3213, V-A:MET:535:CG:4832, V-B:TYR:531:CE1:9763, H-A:TYR:539:OH:4877"]

$$$$
RR30_Rahimova_2017
     RDKit          3D

 29 30  0  0  0  0  0  0  0  0999 V2000
  123.5560  122.1370   62.6200 C   0  0  0  0  0  0  0  0  0  0  0  0
  123.9000  123.5980   62.2920 C   0  0  0  0  0  0  0  0  0  0  0  0
  125.3910  123.8570   62.3280 C   0  0  0  0  0  0  0  0  0  0  0  0
  126.0100  125.0060   62.4350 N   0  0  0  0  0  0  0  0  0  0  0  0
  127.3710  124.7100   62.4120 N   0  0  0  0  0  0  0  0  0  0  0  0
  127.4560  123.4100   62.2830 C   0  0  0  0  0  0  0  0  0  0  0  0
  128.9210  122.4310   62.2060 S   0  0  0  0  0  0  0  0  0  0  0  0
  129.8630  123.3740   60.9660 C   0  0  0  0  0  0  0  0  0  0  0  0
  129.0780  123.5660   59.6650 C   0  0  0  0  0  0  0  0  0  0  0  0
  129.0210  124.6870   59.1560 O   0  0  0  0  0  0  0  0  0  0  0  0
  128.4610  122.4650   59.1800 N   0  0  0  0  0  0  0  0  0  0  0  0
  127.6940  122.3920   58.0270 C   0  0  0  0  0  0  0  0  0  0  0  0
  128.0530  121.9670   56.8360 N   0  0  0  0  0  0  0  0  0  0  0  0
  127.0150  122.0390   55.9150 N   0  0  0  0  0  0  0  0  0  0  0  0
  125.9000  122.5120   56.4220 C   0  0  0  0  0  0  0  0  0  0  0  0
  124.6340  122.6870   55.6160 C   0  0  0  0  0  0  0  0  0  0  0  0
  126.0400  122.9140   58.1120 S   0  0  0  0  0  0  0  0  0  0  0  0
  126.2420  122.8050   62.2280 O   0  0  0  0  0  0  0  0  0  0  0  0
  123.5246  122.0038   63.7115 H   0  0  0  0  0  0  0  0  0  0  0  0
  122.5743  121.8864   62.1917 H   0  0  0  0  0  0  0  0  0  0  0  0
  124.3228  121.4747   62.1917 H   0  0  0  0  0  0  0  0  0  0  0  0
  123.5240  123.8329   61.2853 H   0  0  0  0  0  0  0  0  0  0  0  0
  123.4284  124.2351   63.0547 H   0  0  0  0  0  0  0  0  0  0  0  0
  130.1056  124.3628   61.3824 H   0  0  0  0  0  0  0  0  0  0  0  0
  130.7738  122.8043   60.7295 H   0  0  0  0  0  0  0  0  0  0  0  0
  128.5550  121.6060   59.7020 H   0  0  0  0  0  0  0  0  0  0  0  0
  123.7788  122.8052   56.2976 H   0  0  0  0  0  0  0  0  0  0  0  0
  124.7238  123.5813   54.9818 H   0  0  0  0  0  0  0  0  0  0  0  0
  124.4778  121.8019   54.9818 H   0  0  0  0  0  0  0  0  0  0  0  0
  1  2  1  0
  2  3  1  0
  3  4  2  0
  4  5  1  0
  5  6  2  0
  6  7  1  0
  7  8  1  0
  8  9  1  0
  9 10  2  0
  9 11  1  0
 11 12  1  0
 12 13  2  0
 13 14  1  0
 14 15  2  0
 15 16  1  0
 15 17  1  0
  6 18  1  0
 18  3  1  0
 17 12  1  0
  1 19  1  0
  1 20  1  0
  1 21  1  0
  2 22  1  0
  2 23  1  0
  8 24  1  0
  8 25  1  0
 11 26  1  0
 16 27  1  0
 16 28  1  0
 16 29  1  0
M  END
>  <Binding energies>  (1) 
[-6.8]

>  <Ligand effiencies>  (1) 
[-0.35789473684210527]

>  <Interactions>  (1) 
["V-B:PRO:540:N:9855, H-B:ALA:541:N:9862, V-B:PRO:540:CA:9854, V-B:PRO:540:C:9852, V-B:TYR:539:C:9838, H-B:TYR:539:O:9839, V-B:TYR:539:CD2:9845, V-B:TYR:539:CE2:9847, H-B:TYR:539:N:9841, V-B:TYR:539:CG:9843, V-B:MET:535:CE:9806, V-B:ALA:541:C:9859, V-B:PRO:540:CB:9856, V-B:ASN:362:CB:8146, V-B:TYR:539:CA:9840, V-B:TYR:531:CZ:9765, V-B:PRO:540:CD:9858, V-B:TYR:531:CE2:9764, V-B:LEU:363:CD1:8159, V-B:ILE:538:CD1:9836, V-B:ILE:538:CG2:9834, H-B:ARG:545:NH2:9899, V-B:ARG:545:CZ:9897, V-B:ASN:362:CG:8147, V-B:ASN:359:CB:8121"]

$$$$
RR31_Rahimova_2017
     RDKit          3D

 44 45  0  0  0  0  0  0  0  0999 V2000
  132.1980  117.2310   58.9490 C   0  0  0  0  0  0  0  0  0  0  0  0
  132.3500  118.4760   59.8140 C   0  0  0  0  0  0  0  0  0  0  0  0
  133.4430  119.3190   59.6080 C   0  0  0  0  0  0  0  0  0  0  0  0
  133.6080  120.4670   60.3800 C   0  0  0  0  0  0  0  0  0  0  0  0
  132.6810  120.8110   61.3770 C   0  0  0  0  0  0  0  0  0  0  0  0
  132.8380  121.9530   62.1660 N   0  0  0  0  0  0  0  0  0  0  0  0
  133.1350  121.8710   63.6090 C   0  0  0  0  0  0  0  0  0  0  0  0
  132.8690  123.1830   64.3830 C   0  0  0  0  0  0  0  0  0  0  0  0
  133.6120  124.2990   63.7930 N   0  0  0  0  0  0  0  0  0  0  0  0
  133.4070  125.5520   64.5270 C   0  0  0  0  0  0  0  0  0  0  0  0
  132.0850  125.5760   65.3210 C   0  0  0  0  0  0  0  0  0  0  0  0
  131.0080  126.4290   64.6330 C   0  0  0  0  0  0  0  0  0  0  0  0
  130.0370  126.9890   65.6790 N   0  0  0  0  0  0  0  0  0  0  0  0
  133.1460  124.4550   62.4150 C   0  0  0  0  0  0  0  0  0  0  0  0
  133.4310  123.1770   61.5920 C   0  0  0  0  0  0  0  0  0  0  0  0
  131.5920  119.9500   61.5790 C   0  0  0  0  0  0  0  0  0  0  0  0
  131.4150  118.7930   60.8110 C   0  0  0  0  0  0  0  0  0  0  0  0
  130.2130  117.8980   61.0830 C   0  0  0  0  0  0  0  0  0  0  0  0
  132.0901  116.3469   59.5946 H   0  0  0  0  0  0  0  0  0  0  0  0
  131.3056  117.3325   58.3140 H   0  0  0  0  0  0  0  0  0  0  0  0
  133.0886  117.1148   58.3140 H   0  0  0  0  0  0  0  0  0  0  0  0
  134.1806  119.0749   58.8293 H   0  0  0  0  0  0  0  0  0  0  0  0
  134.4795  121.1151   60.2055 H   0  0  0  0  0  0  0  0  0  0  0  0
  132.5093  121.0789   64.0462 H   0  0  0  0  0  0  0  0  0  0  0  0
  134.2109  121.6609   63.7004 H   0  0  0  0  0  0  0  0  0  0  0  0
  131.7930  123.4090   64.3492 H   0  0  0  0  0  0  0  0  0  0  0  0
  133.2018  123.0506   65.4230 H   0  0  0  0  0  0  0  0  0  0  0  0
  134.2413  125.6862   65.2312 H   0  0  0  0  0  0  0  0  0  0  0  0
  133.3605  126.3636   63.7859 H   0  0  0  0  0  0  0  0  0  0  0  0
  131.7118  124.5458   65.4183 H   0  0  0  0  0  0  0  0  0  0  0  0
  132.2910  126.0228   66.3049 H   0  0  0  0  0  0  0  0  0  0  0  0
  131.4888  127.2620   64.0991 H   0  0  0  0  0  0  0  0  0  0  0  0
  130.4507  125.8025   63.9211 H   0  0  0  0  0  0  0  0  0  0  0  0
  129.1640  127.2470   65.2400 H   0  0  0  0  0  0  0  0  0  0  0  0
  130.4330  127.8080   66.1190 H   0  0  0  0  0  0  0  0  0  0  0  0
  129.8510  126.2960   66.3890 H   0  0  0  0  0  0  0  0  0  0  0  0
  132.0629  124.6469   62.4199 H   0  0  0  0  0  0  0  0  0  0  0  0
  133.6817  125.2982   61.9545 H   0  0  0  0  0  0  0  0  0  0  0  0
  133.0232  123.3182   60.5802 H   0  0  0  0  0  0  0  0  0  0  0  0
  134.5216  123.0339   61.5907 H   0  0  0  0  0  0  0  0  0  0  0  0
  130.8575  120.1904   62.3618 H   0  0  0  0  0  0  0  0  0  0  0  0
  130.0722  117.7932   62.1689 H   0  0  0  0  0  0  0  0  0  0  0  0
  129.3130  118.3476   60.6383 H   0  0  0  0  0  0  0  0  0  0  0  0
  130.3857  116.9069   60.6383 H   0  0  0  0  0  0  0  0  0  0  0  0
  1  2  1  0
  2  3  2  0
  3  4  1  0
  4  5  2  0
  5  6  1  0
  6  7  1  0
  7  8  1  0
  8  9  1  0
  9 10  1  0
 10 11  1  0
 11 12  1  0
 12 13  1  0
  9 14  1  0
 14 15  1  0
  5 16  1  0
 16 17  2  0
 17 18  1  0
 17  2  1  0
 15  6  1  0
  1 19  1  0
  1 20  1  0
  1 21  1  0
  3 22  1  0
  4 23  1  0
  7 24  1  0
  7 25  1  0
  8 26  1  0
  8 27  1  0
 10 28  1  0
 10 29  1  0
 11 30  1  0
 11 31  1  0
 12 32  1  0
 12 33  1  0
 13 34  1  0
 13 35  1  0
 13 36  1  0
 14 37  1  0
 14 38  1  0
 15 39  1  0
 15 40  1  0
 16 41  1  0
 18 42  1  0
 18 43  1  0
 18 44  1  0
M  CHG  1  13   1
M  END
>  <Binding energies>  (1) 
[-7.75]

>  <Ligand effiencies>  (1) 
[-0.36904761904761907]

>  <Interactions>  (1) 
["V-A:ASP:366:CG:3212, H-A:GLU:543:OE2:4909, V-B:GLU:543:CD:9879, H-B:GLU:543:OE2:9881, V-B:TYR:539:C:9838, V-A:LEU:475:CD2:4258, V-A:PRO:482:CG:4326, V-A:HIS:383:CE1:3393, V-A:ILE:369:CD1:3238, V-B:TYR:539:CD2:9845, V-A:ILE:369:CG2:3236, V-B:TYR:539:CE2:9847, V-B:TYR:539:CB:9842, V-A:SER:385:CA:3406, V-A:GLY:454:CA:4048, V-A:LEU:373:CD1:3279, V-B:TYR:539:CG:9843, V-A:PRO:482:CB:4325, H-A:GLY:454:N:4049, V-A:ARG:545:CZ:4925, H-A:GLU:543:OE1:4908, V-A:GLU:543:CD:4907, V-A:LEU:373:CG:3278, V-A:LEU:373:CD2:3280, V-A:HIS:383:CG:3389"]

$$$$
RR32_Rahimova_2017
     RDKit          3D

 37 39  0  0  0  0  0  0  0  0999 V2000
  123.6470  124.0690   59.2720 C   0  0  0  0  0  0  0  0  0  0  0  0
  125.0920  123.6110   59.1130 C   0  0  0  0  0  0  0  0  0  0  0  0
  125.9090  123.5980   60.2440 C   0  0  0  0  0  0  0  0  0  0  0  0
  127.2330  123.1820   60.1370 C   0  0  0  0  0  0  0  0  0  0  0  0
  128.0400  123.1710   61.2620 N   0  0  0  0  0  0  0  0  0  0  0  0
  127.4030  123.4880   62.5530 C   0  0  0  0  0  0  0  0  0  0  0  0
  128.4150  123.6270   63.7150 C   0  0  0  0  0  0  0  0  0  0  0  0
  129.1860  122.3930   63.8650 N   0  0  0  0  0  0  0  0  0  0  0  0
  130.1170  122.5120   64.9810 C   0  0  0  0  0  0  0  0  0  0  0  0
  129.9140  122.1610   62.6190 C   0  0  0  0  0  0  0  0  0  0  0  0
  128.9250  122.0040   61.4400 C   0  0  0  0  0  0  0  0  0  0  0  0
  127.7830  122.7830   58.9610 N   0  0  0  0  0  0  0  0  0  0  0  0
  127.0120  122.7880   57.8390 C   0  0  0  0  0  0  0  0  0  0  0  0
  127.6120  122.3690   56.6260 C   0  0  0  0  0  0  0  0  0  0  0  0
  126.8730  122.3540   55.4490 C   0  0  0  0  0  0  0  0  0  0  0  0
  125.5400  122.7470   55.4480 C   0  0  0  0  0  0  0  0  0  0  0  0
  124.9210  123.1640   56.6220 C   0  0  0  0  0  0  0  0  0  0  0  0
  125.6390  123.1970   57.8530 C   0  0  0  0  0  0  0  0  0  0  0  0
  123.4025  124.1465   60.3417 H   0  0  0  0  0  0  0  0  0  0  0  0
  123.5192  125.0517   58.7945 H   0  0  0  0  0  0  0  0  0  0  0  0
  122.9764  123.3394   58.7945 H   0  0  0  0  0  0  0  0  0  0  0  0
  125.5078  123.9157   61.2177 H   0  0  0  0  0  0  0  0  0  0  0  0
  126.8571  124.4374   62.4496 H   0  0  0  0  0  0  0  0  0  0  0  0
  126.7338  122.6510   62.8012 H   0  0  0  0  0  0  0  0  0  0  0  0
  129.1009  124.4601   63.5016 H   0  0  0  0  0  0  0  0  0  0  0  0
  127.8654  123.8219   64.6477 H   0  0  0  0  0  0  0  0  0  0  0  0
  129.5638  122.4413   65.9291 H   0  0  0  0  0  0  0  0  0  0  0  0
  130.8586  121.7013   64.9279 H   0  0  0  0  0  0  0  0  0  0  0  0
  130.6309  123.4831   64.9279 H   0  0  0  0  0  0  0  0  0  0  0  0
  130.5793  123.0148   62.4232 H   0  0  0  0  0  0  0  0  0  0  0  0
  130.5040  121.2377   62.7162 H   0  0  0  0  0  0  0  0  0  0  0  0
  129.5036  121.8602   60.5156 H   0  0  0  0  0  0  0  0  0  0  0  0
  128.2833  121.1396   61.6656 H   0  0  0  0  0  0  0  0  0  0  0  0
  128.6660  122.0546   56.6156 H   0  0  0  0  0  0  0  0  0  0  0  0
  127.3468  122.0286   54.5111 H   0  0  0  0  0  0  0  0  0  0  0  0
  124.9681  122.7281   54.5086 H   0  0  0  0  0  0  0  0  0  0  0  0
  123.8652  123.4718   56.6001 H   0  0  0  0  0  0  0  0  0  0  0  0
  1  2  1  0
  2  3  2  0
  3  4  1  0
  4  5  1  0
  5  6  1  0
  6  7  1  0
  7  8  1  0
  8  9  1  0
  8 10  1  0
 10 11  1  0
  4 12  2  0
 12 13  1  0
 13 14  2  0
 14 15  1  0
 15 16  2  0
 16 17  1  0
 17 18  2  0
 18  2  1  0
 11  5  1  0
 18 13  1  0
  1 19  1  0
  1 20  1  0
  1 21  1  0
  3 22  1  0
  6 23  1  0
  6 24  1  0
  7 25  1  0
  7 26  1  0
  9 27  1  0
  9 28  1  0
  9 29  1  0
 10 30  1  0
 10 31  1  0
 11 32  1  0
 11 33  1  0
 14 34  1  0
 15 35  1  0
 16 36  1  0
 17 37  1  0
M  END
>  <Binding energies>  (1) 
[-6.48]

>  <Ligand effiencies>  (1) 
[-0.36000000000000004]

>  <Interactions>  (1) 
["V-B:GLU:543:CD:9879, V-B:PRO:540:N:9855, V-B:ALA:541:CB:9863, V-B:PRO:540:CA:9854, V-B:PRO:540:C:9852, V-B:TYR:539:C:9838, V-A:LEU:475:CD2:4258, V-B:TYR:539:CD2:9845, V-B:TYR:539:CE2:9847, V-B:TYR:539:CG:9843, V-B:MET:535:CE:9806, V-B:TYR:539:CZ:9848, V-B:GLU:543:CG:9878, V-A:LEU:475:CD1:4257, V-B:PRO:540:CB:9856, V-B:TYR:539:CA:9840, V-B:TYR:539:CD1:9844, V-B:TYR:531:CZ:9765, V-B:PRO:540:CD:9858, V-B:TYR:531:CE2:9764, V-B:LEU:363:CD1:8159, V-B:ILE:538:CD1:9836, V-B:ILE:538:CA:9831, V-B:TYR:539:CE1:9846, V-B:ILE:538:C:9829, V-B:ASP:366:CB:8182, V-A:TYR:484:CZ:4346, V-A:TYR:484:CE2:4345, V-B:ASP:366:CG:8183, V-B:MET:535:CG:9804, V-B:LEU:363:CA:8155, V-B:LEU:363:CB:8157"]

$$$$
RR32_Rahimova_2017-again1
     RDKit          3D

 38 40  0  0  0  0  0  0  0  0999 V2000
  133.9880  121.5950   61.3420 C   0  0  0  0  0  0  0  0  0  0  0  0
  132.5550  121.1570   61.6080 C   0  0  0  0  0  0  0  0  0  0  0  0
  131.6670  122.0140   62.2600 C   0  0  0  0  0  0  0  0  0  0  0  0
  130.3490  121.6120   62.4990 C   0  0  0  0  0  0  0  0  0  0  0  0
  129.4450  122.4500   63.1590 N   0  0  0  0  0  0  0  0  0  0  0  0
  129.4940  122.5930   64.6280 C   0  0  0  0  0  0  0  0  0  0  0  0
  130.4960  123.6790   65.0860 C   0  0  0  0  0  0  0  0  0  0  0  0
  130.0520  125.0340   64.5010 N   0  0  0  0  0  0  0  0  0  0  0  0
  131.0270  126.1540   64.9130 C   0  0  0  0  0  0  0  0  0  0  0  0
  129.9820  124.9100   62.9660 C   0  0  0  0  0  0  0  0  0  0  0  0
  129.0180  123.7540   62.6080 C   0  0  0  0  0  0  0  0  0  0  0  0
  129.9080  120.3760   62.1330 N   0  0  0  0  0  0  0  0  0  0  0  0
  130.7500  119.5200   61.4940 C   0  0  0  0  0  0  0  0  0  0  0  0
  130.2530  118.2500   61.1140 C   0  0  0  0  0  0  0  0  0  0  0  0
  131.0790  117.3430   60.4550 C   0  0  0  0  0  0  0  0  0  0  0  0
  132.3990  117.6720   60.1640 C   0  0  0  0  0  0  0  0  0  0  0  0
  132.9170  118.9130   60.5270 C   0  0  0  0  0  0  0  0  0  0  0  0
  132.1040  119.8660   61.2000 C   0  0  0  0  0  0  0  0  0  0  0  0
  134.5066  121.7535   62.2990 H   0  0  0  0  0  0  0  0  0  0  0  0
  134.5091  120.8151   60.7673 H   0  0  0  0  0  0  0  0  0  0  0  0
  133.9841  122.5330   60.7673 H   0  0  0  0  0  0  0  0  0  0  0  0
  132.0048  123.0085   62.5868 H   0  0  0  0  0  0  0  0  0  0  0  0
  128.4910  122.8639   64.9894 H   0  0  0  0  0  0  0  0  0  0  0  0
  129.8294  121.6322   65.0456 H   0  0  0  0  0  0  0  0  0  0  0  0
  130.5059  123.7348   66.1845 H   0  0  0  0  0  0  0  0  0  0  0  0
  131.5078  123.4302   64.7333 H   0  0  0  0  0  0  0  0  0  0  0  0
  129.1280  125.2460   64.8490 H   0  0  0  0  0  0  0  0  0  0  0  0
  131.0769  126.2114   66.0104 H   0  0  0  0  0  0  0  0  0  0  0  0
  132.0274  125.9353   64.5114 H   0  0  0  0  0  0  0  0  0  0  0  0
  130.6726  127.1148   64.5114 H   0  0  0  0  0  0  0  0  0  0  0  0
  129.6090  125.8507   62.5348 H   0  0  0  0  0  0  0  0  0  0  0  0
  130.9832  124.7042   62.5594 H   0  0  0  0  0  0  0  0  0  0  0  0
  128.0213  123.9931   63.0073 H   0  0  0  0  0  0  0  0  0  0  0  0
  129.0115  123.6603   61.5120 H   0  0  0  0  0  0  0  0  0  0  0  0
  129.2112  117.9789   61.3400 H   0  0  0  0  0  0  0  0  0  0  0  0
  130.6847  116.3587   60.1623 H   0  0  0  0  0  0  0  0  0  0  0  0
  133.0395  116.9455   59.6425 H   0  0  0  0  0  0  0  0  0  0  0  0
  133.9632  119.1578   60.2912 H   0  0  0  0  0  0  0  0  0  0  0  0
  1  2  1  0
  2  3  2  0
  3  4  1  0
  4  5  1  0
  5  6  1  0
  6  7  1  0
  7  8  1  0
  8  9  1  0
  8 10  1  0
 10 11  1  0
  4 12  2  0
 12 13  1  0
 13 14  2  0
 14 15  1  0
 15 16  2  0
 16 17  1  0
 17 18  2  0
 18  2  1  0
 11  5  1  0
 18 13  1  0
  1 19  1  0
  1 20  1  0
  1 21  1  0
  3 22  1  0
  6 23  1  0
  6 24  1  0
  7 25  1  0
  7 26  1  0
  8 27  1  0
  9 28  1  0
  9 29  1  0
  9 30  1  0
 10 31  1  0
 10 32  1  0
 11 33  1  0
 11 34  1  0
 14 35  1  0
 15 36  1  0
 16 37  1  0
 17 38  1  0
M  CHG  1   8   1
M  END
>  <Binding energies>  (1) 
[-7.08]

>  <Ligand effiencies>  (1) 
[-0.3726315789473684]

>  <Interactions>  (1) 
["V-B:GLU:543:CD:9879, V-B:ALA:541:CB:9863, H-B:GLU:543:OE2:9881, H-B:GLU:543:OE1:9880, V-B:TYR:539:C:9838, V-A:LEU:475:CD2:4258, V-A:PRO:482:CG:4326, V-A:HIS:383:CE1:3393, V-A:ILE:369:CD1:3238, V-B:TYR:539:CD2:9845, V-A:ILE:369:CG2:3236, V-B:TYR:539:CB:9842, V-A:SER:385:CA:3406, V-A:SER:385:CB:3408, V-A:PRO:482:CB:4325, V-B:GLU:543:CG:9878, V-A:TYR:484:CZ:4346, V-A:TYR:484:CE2:4345"]

$$$$
RR32_Rahimova_2017-again2
     RDKit          3D

 39 41  0  0  0  0  0  0  0  0999 V2000
  133.9840  121.5300   61.5140 C   0  0  0  0  0  0  0  0  0  0  0  0
  132.5250  121.1040   61.6140 C   0  0  0  0  0  0  0  0  0  0  0  0
  131.5810  121.9620   62.1880 C   0  0  0  0  0  0  0  0  0  0  0  0
  130.2350  121.5850   62.2940 C   0  0  0  0  0  0  0  0  0  0  0  0
  129.2210  122.4370   62.8630 N   0  0  0  0  0  0  0  0  0  0  0  0
  129.1110  122.6130   64.3350 C   0  0  0  0  0  0  0  0  0  0  0  0
  130.0710  123.7280   64.8290 C   0  0  0  0  0  0  0  0  0  0  0  0
  129.7190  125.0610   64.1250 N   0  0  0  0  0  0  0  0  0  0  0  0
  130.6890  126.1810   64.5470 C   0  0  0  0  0  0  0  0  0  0  0  0
  129.7260  124.8720   62.5890 C   0  0  0  0  0  0  0  0  0  0  0  0
  128.7810  123.6990   62.2140 C   0  0  0  0  0  0  0  0  0  0  0  0
  129.8790  120.3750   61.8180 N   0  0  0  0  0  0  0  0  0  0  0  0
  130.7350  119.4670   61.2380 C   0  0  0  0  0  0  0  0  0  0  0  0
  130.2570  118.2220   60.7720 C   0  0  0  0  0  0  0  0  0  0  0  0
  131.1520  117.3290   60.1870 C   0  0  0  0  0  0  0  0  0  0  0  0
  132.5000  117.6550   60.0610 C   0  0  0  0  0  0  0  0  0  0  0  0
  132.9860  118.8810   60.5170 C   0  0  0  0  0  0  0  0  0  0  0  0
  132.1110  119.8270   61.1220 C   0  0  0  0  0  0  0  0  0  0  0  0
  134.4006  121.6516   62.5248 H   0  0  0  0  0  0  0  0  0  0  0  0
  134.5543  120.7609   60.9725 H   0  0  0  0  0  0  0  0  0  0  0  0
  134.0508  122.4852   60.9725 H   0  0  0  0  0  0  0  0  0  0  0  0
  131.8994  122.9465   62.5615 H   0  0  0  0  0  0  0  0  0  0  0  0
  128.0768  122.8886   64.5892 H   0  0  0  0  0  0  0  0  0  0  0  0
  129.3863  121.6675   64.8251 H   0  0  0  0  0  0  0  0  0  0  0  0
  129.9639  123.8485   65.9171 H   0  0  0  0  0  0  0  0  0  0  0  0
  131.1085  123.4505   64.5913 H   0  0  0  0  0  0  0  0  0  0  0  0
  128.7790  125.3150   64.4000 H   0  0  0  0  0  0  0  0  0  0  0  0
  130.7339  126.2328   65.6449 H   0  0  0  0  0  0  0  0  0  0  0  0
  131.6918  125.9669   64.1487 H   0  0  0  0  0  0  0  0  0  0  0  0
  130.3339  127.1429   64.1487 H   0  0  0  0  0  0  0  0  0  0  0  0
  129.3770  125.7952   62.1033 H   0  0  0  0  0  0  0  0  0  0  0  0
  130.7476  124.6462   62.2494 H   0  0  0  0  0  0  0  0  0  0  0  0
  127.7601  123.9383   62.5464 H   0  0  0  0  0  0  0  0  0  0  0  0
  128.8068  123.5613   61.1230 H   0  0  0  0  0  0  0  0  0  0  0  0
  128.9060  120.1180   61.8880 H   0  0  0  0  0  0  0  0  0  0  0  0
  129.1928  117.9613   60.8697 H   0  0  0  0  0  0  0  0  0  0  0  0
  130.7903  116.3568   59.8210 H   0  0  0  0  0  0  0  0  0  0  0  0
  133.1909  116.9365   59.5958 H   0  0  0  0  0  0  0  0  0  0  0  0
  134.0545  119.1185   60.4080 H   0  0  0  0  0  0  0  0  0  0  0  0
  1  2  1  0
  2  3  2  0
  3  4  1  0
  4  5  1  0
  5  6  1  0
  6  7  1  0
  7  8  1  0
  8  9  1  0
  8 10  1  0
 10 11  1  0
  4 12  2  0
 12 13  1  0
 13 14  2  0
 14 15  1  0
 15 16  2  0
 16 17  1  0
 17 18  2  0
 18  2  1  0
 11  5  1  0
 18 13  1  0
  1 19  1  0
  1 20  1  0
  1 21  1  0
  3 22  1  0
  6 23  1  0
  6 24  1  0
  7 25  1  0
  7 26  1  0
  8 27  1  0
  9 28  1  0
  9 29  1  0
  9 30  1  0
 10 31  1  0
 10 32  1  0
 11 33  1  0
 11 34  1  0
 12 35  1  0
 14 36  1  0
 15 37  1  0
 16 38  1  0
 17 39  1  0
M  CHG  2   8   1  12   1
M  END
>  <Binding energies>  (1) 
[-7.21]

>  <Ligand effiencies>  (1) 
[-0.3605]

>  <Interactions>  (1) 
["V-B:GLU:543:CD:9879, V-B:ALA:541:CB:9863, H-B:GLU:543:OE2:9881, H-B:GLU:543:OE1:9880, V-B:TYR:539:C:9838, V-A:LEU:475:CD2:4258, V-A:PRO:482:CG:4326, V-A:HIS:383:CE1:3393, H-B:TYR:539:O:9839, V-A:ILE:369:CD1:3238, V-A:SER:385:C:3404, V-B:TYR:539:CD2:9845, V-A:ILE:369:CG2:3236, V-B:TYR:539:CB:9842, V-A:SER:385:CA:3406, V-A:SER:385:CB:3408, V-B:GLU:543:CG:9878"]

$$$$
RR33_Rahimova_2017
     RDKit          3D

 36 37  0  0  0  0  0  0  0  0999 V2000
  132.8080  125.7530   57.5480 C   0  0  0  0  0  0  0  0  0  0  0  0
  133.6500  124.6100   58.1230 C   0  0  0  0  0  0  0  0  0  0  0  0
  132.8530  123.8750   59.0480 O   0  0  0  0  0  0  0  0  0  0  0  0
  132.7790  124.2940   60.3620 C   0  0  0  0  0  0  0  0  0  0  0  0
  133.8640  123.9740   61.1780 C   0  0  0  0  0  0  0  0  0  0  0  0
  133.8770  124.3510   62.5180 C   0  0  0  0  0  0  0  0  0  0  0  0
  132.8010  125.0580   63.0630 C   0  0  0  0  0  0  0  0  0  0  0  0
  132.8170  125.4620   64.5030 C   0  0  0  0  0  0  0  0  0  0  0  0
  131.8220  125.9520   65.2090 N   0  0  0  0  0  0  0  0  0  0  0  0
  132.3190  126.1500   66.4210 C   0  0  0  0  0  0  0  0  0  0  0  0
  131.4560  126.7040   67.5340 C   0  0  0  0  0  0  0  0  0  0  0  0
  130.0520  126.3990   67.2960 N   0  0  0  0  0  0  0  0  0  0  0  0
  129.5530  125.4690   68.2950 C   0  0  0  0  0  0  0  0  0  0  0  0
  133.6540  125.7680   66.4460 C   0  0  0  0  0  0  0  0  0  0  0  0
  134.7430  125.7410   67.4910 C   0  0  0  0  0  0  0  0  0  0  0  0
  133.9700  125.3260   65.2070 O   0  0  0  0  0  0  0  0  0  0  0  0
  131.7140  125.3850   62.2480 C   0  0  0  0  0  0  0  0  0  0  0  0
  131.6990  125.0060   60.9070 C   0  0  0  0  0  0  0  0  0  0  0  0
  132.3755  126.3401   58.3716 H   0  0  0  0  0  0  0  0  0  0  0  0
  133.4450  126.4026   56.9297 H   0  0  0  0  0  0  0  0  0  0  0  0
  131.9988  125.3372   56.9297 H   0  0  0  0  0  0  0  0  0  0  0  0
  133.9787  123.9469   57.3092 H   0  0  0  0  0  0  0  0  0  0  0  0
  134.5358  125.0171   58.6327 H   0  0  0  0  0  0  0  0  0  0  0  0
  134.7165  123.4191   60.7592 H   0  0  0  0  0  0  0  0  0  0  0  0
  134.7382  124.0913   63.1512 H   0  0  0  0  0  0  0  0  0  0  0  0
  131.7663  126.2552   68.4892 H   0  0  0  0  0  0  0  0  0  0  0  0
  131.5802  127.7964   67.5679 H   0  0  0  0  0  0  0  0  0  0  0  0
  129.9530  125.9820   66.3810 H   0  0  0  0  0  0  0  0  0  0  0  0
  129.7642  125.8626   69.3002 H   0  0  0  0  0  0  0  0  0  0  0  0
  128.4671  125.3449   68.1705 H   0  0  0  0  0  0  0  0  0  0  0  0
  130.0500  124.4956   68.1705 H   0  0  0  0  0  0  0  0  0  0  0  0
  134.2898  125.7522   68.4932 H   0  0  0  0  0  0  0  0  0  0  0  0
  135.3441  124.8277   67.3706 H   0  0  0  0  0  0  0  0  0  0  0  0
  135.3886  126.6234   67.3706 H   0  0  0  0  0  0  0  0  0  0  0  0
  130.8651  125.9449   62.6674 H   0  0  0  0  0  0  0  0  0  0  0  0
  130.8380  125.2657   60.2735 H   0  0  0  0  0  0  0  0  0  0  0  0
  1  2  1  0
  2  3  1  0
  3  4  1  0
  4  5  2  0
  5  6  1  0
  6  7  2  0
  7  8  1  0
  8  9  2  0
  9 10  1  0
 10 11  1  0
 11 12  1  0
 12 13  1  0
 10 14  2  0
 14 15  1  0
 14 16  1  0
  7 17  1  0
 17 18  2  0
 18  4  1  0
 16  8  1  0
  1 19  1  0
  1 20  1  0
  1 21  1  0
  2 22  1  0
  2 23  1  0
  5 24  1  0
  6 25  1  0
 11 26  1  0
 11 27  1  0
 12 28  1  0
 13 29  1  0
 13 30  1  0
 13 31  1  0
 15 32  1  0
 15 33  1  0
 15 34  1  0
 17 35  1  0
 18 36  1  0
M  END
>  <Binding energies>  (1) 
[-5.27]

>  <Ligand effiencies>  (1) 
[-0.27736842105263154]

>  <Interactions>  (1) 
["V-A:ASP:366:CG:3212, V-A:ASP:366:CB:3211, V-B:GLU:543:CD:9879, H-A:TYR:484:OH:4347, H-B:GLU:543:OE2:9881, V-A:ILE:369:CD1:3238, V-A:ILE:369:CG2:3236, V-B:TYR:539:CE2:9847, H-B:TYR:539:OH:9849, V-B:TYR:539:CZ:9848, V-B:GLU:543:CG:9878, H-A:GLY:454:N:4049, V-A:ARG:545:CD:4922, V-A:ARG:545:CZ:4925, V-A:ARG:545:CG:4921, V-A:HIS:456:CE1:4069, V-B:GLU:543:CB:9877, H-A:ARG:545:NE:4923, V-A:TYR:484:CZ:4346, V-A:TYR:484:CE2:4345, V-A:ILE:369:CB:3235, V-A:ASP:366:CA:3209, V-A:ASP:366:C:3207, V-A:ILE:455:C:4051, V-A:ARG:545:CB:4920"]

$$$$
RR33_Rahimova_2017-again1
     RDKit          3D

 37 38  0  0  0  0  0  0  0  0999 V2000
  132.8680  118.2490   58.9110 C   0  0  0  0  0  0  0  0  0  0  0  0
  132.7280  119.0070   60.2350 C   0  0  0  0  0  0  0  0  0  0  0  0
  133.2540  120.3200   60.0700 O   0  0  0  0  0  0  0  0  0  0  0  0
  133.1110  121.2420   61.0900 C   0  0  0  0  0  0  0  0  0  0  0  0
  132.6950  122.5210   60.7190 C   0  0  0  0  0  0  0  0  0  0  0  0
  132.5210  123.5160   61.6770 C   0  0  0  0  0  0  0  0  0  0  0  0
  132.7650  123.2440   63.0270 C   0  0  0  0  0  0  0  0  0  0  0  0
  132.5790  124.3100   64.0590 C   0  0  0  0  0  0  0  0  0  0  0  0
  131.5130  125.0520   64.2640 N   0  0  0  0  0  0  0  0  0  0  0  0
  131.8230  125.8430   65.2800 C   0  0  0  0  0  0  0  0  0  0  0  0
  130.8360  126.8650   65.8080 C   0  0  0  0  0  0  0  0  0  0  0  0
  129.6330  126.9430   64.8540 N   0  0  0  0  0  0  0  0  0  0  0  0
  129.7920  127.9970   63.7490 C   0  0  0  0  0  0  0  0  0  0  0  0
  133.1220  125.5750   65.6950 C   0  0  0  0  0  0  0  0  0  0  0  0
  134.0420  126.1150   66.7620 C   0  0  0  0  0  0  0  0  0  0  0  0
  133.6030  124.5850   64.9070 O   0  0  0  0  0  0  0  0  0  0  0  0
  133.1820  121.9630   63.4030 C   0  0  0  0  0  0  0  0  0  0  0  0
  133.3540  120.9680   62.4440 C   0  0  0  0  0  0  0  0  0  0  0  0
  133.0643  117.1862   59.1159 H   0  0  0  0  0  0  0  0  0  0  0  0
  131.9369  118.3451   58.3332 H   0  0  0  0  0  0  0  0  0  0  0  0
  133.7033  118.6714   58.3332 H   0  0  0  0  0  0  0  0  0  0  0  0
  131.6663  119.0667   60.5163 H   0  0  0  0  0  0  0  0  0  0  0  0
  133.2799  118.4802   61.0274 H   0  0  0  0  0  0  0  0  0  0  0  0
  132.5027  122.7453   59.6594 H   0  0  0  0  0  0  0  0  0  0  0  0
  132.1905  124.5196   61.3711 H   0  0  0  0  0  0  0  0  0  0  0  0
  130.4934  126.5632   66.8088 H   0  0  0  0  0  0  0  0  0  0  0  0
  131.3217  127.8498   65.8728 H   0  0  0  0  0  0  0  0  0  0  0  0
  129.4960  126.0390   64.4270 H   0  0  0  0  0  0  0  0  0  0  0  0
  128.8070  127.1600   65.3940 H   0  0  0  0  0  0  0  0  0  0  0  0
  129.9413  128.9868   64.2051 H   0  0  0  0  0  0  0  0  0  0  0  0
  130.6624  127.7457   63.1251 H   0  0  0  0  0  0  0  0  0  0  0  0
  128.8862  128.0137   63.1251 H   0  0  0  0  0  0  0  0  0  0  0  0
  133.6331  125.8750   67.7546 H   0  0  0  0  0  0  0  0  0  0  0  0
  135.0365  125.6573   66.6547 H   0  0  0  0  0  0  0  0  0  0  0  0
  134.1272  127.2064   66.6547 H   0  0  0  0  0  0  0  0  0  0  0  0
  133.3753  121.7401   64.4627 H   0  0  0  0  0  0  0  0  0  0  0  0
  133.6817  119.9634   62.7495 H   0  0  0  0  0  0  0  0  0  0  0  0
  1  2  1  0
  2  3  1  0
  3  4  1  0
  4  5  2  0
  5  6  1  0
  6  7  2  0
  7  8  1  0
  8  9  2  0
  9 10  1  0
 10 11  1  0
 11 12  1  0
 12 13  1  0
 10 14  2  0
 14 15  1  0
 14 16  1  0
  7 17  1  0
 17 18  2  0
 18  4  1  0
 16  8  1  0
  1 19  1  0
  1 20  1  0
  1 21  1  0
  2 22  1  0
  2 23  1  0
  5 24  1  0
  6 25  1  0
 11 26  1  0
 11 27  1  0
 12 28  1  0
 12 29  1  0
 13 30  1  0
 13 31  1  0
 13 32  1  0
 15 33  1  0
 15 34  1  0
 15 35  1  0
 17 36  1  0
 18 37  1  0
M  CHG  1  12   1
M  END
>  <Binding energies>  (1) 
[-6.48]

>  <Ligand effiencies>  (1) 
[-0.324]

>  <Interactions>  (1) 
["V-B:GLU:543:CD:9879, H-A:TYR:484:OH:4347, H-B:GLU:543:OE2:9881, H-B:GLU:543:OE1:9880, V-A:LEU:475:CD2:4258, V-A:SER:385:C:3404, V-B:TYR:539:CD2:9845, V-A:ILE:369:CG2:3236, V-B:TYR:539:CE2:9847, V-B:TYR:539:CB:9842, V-A:SER:385:CA:3406, V-A:SER:385:CB:3408, V-A:GLY:454:CA:4048, V-A:LEU:373:CD1:3279, V-B:TYR:539:CG:9843, H-A:GLY:454:N:4049, V-A:ARG:545:CD:4922, V-A:ARG:545:CZ:4925, V-A:ARG:545:CG:4921, V-A:GLU:543:CD:4907, V-A:LEU:373:CG:3278, V-A:LEU:373:CD2:3280"]

$$$$
RR3_Rahimova_2017
     RDKit          3D

 63 69  0  0  0  0  0  0  0  0999 V2000
  131.3250  133.6120   55.7230 C   0  0  0  0  0  0  0  0  0  0  0  0
  129.9870  133.2330   55.7570 C   0  0  0  0  0  0  0  0  0  0  0  0
  129.5020  132.5090   56.8430 C   0  0  0  0  0  0  0  0  0  0  0  0
  130.3460  132.1570   57.9070 C   0  0  0  0  0  0  0  0  0  0  0  0
  129.8230  131.3800   59.0750 C   0  0  0  0  0  0  0  0  0  0  0  0
  130.6920  130.8700   60.0480 C   0  0  0  0  0  0  0  0  0  0  0  0
  130.2060  130.1440   61.1320 C   0  0  0  0  0  0  0  0  0  0  0  0
  128.8350  129.9050   61.2640 C   0  0  0  0  0  0  0  0  0  0  0  0
  128.3060  129.1210   62.4240 C   0  0  0  0  0  0  0  0  0  0  0  0
  128.4030  129.6100   63.6550 N   0  0  0  0  0  0  0  0  0  0  0  0
  127.8240  128.7420   64.4490 C   0  0  0  0  0  0  0  0  0  0  0  0
  127.7010  128.8780   65.8980 C   0  0  0  0  0  0  0  0  0  0  0  0
  126.6800  129.5340   66.5660 C   0  0  0  0  0  0  0  0  0  0  0  0
  126.8760  129.4590   67.9200 N   0  0  0  0  0  0  0  0  0  0  0  0
  128.0300  128.7560   68.1880 C   0  0  0  0  0  0  0  0  0  0  0  0
  128.6350  128.4240   69.4050 C   0  0  0  0  0  0  0  0  0  0  0  0
  129.8200  127.6910   69.3440 C   0  0  0  0  0  0  0  0  0  0  0  0
  130.3820  127.3040   68.1320 C   0  0  0  0  0  0  0  0  0  0  0  0
  129.7790  127.6340   66.9190 C   0  0  0  0  0  0  0  0  0  0  0  0
  128.5820  128.3730   66.9250 C   0  0  0  0  0  0  0  0  0  0  0  0
  127.3500  127.6720   63.7420 N   0  0  0  0  0  0  0  0  0  0  0  0
  127.6650  127.8710   62.4220 C   0  0  0  0  0  0  0  0  0  0  0  0
  127.3550  126.8730   61.3550 C   0  0  0  0  0  0  0  0  0  0  0  0
  127.9240  127.0030   60.0880 C   0  0  0  0  0  0  0  0  0  0  0  0
  127.6280  126.0830   59.0870 C   0  0  0  0  0  0  0  0  0  0  0  0
  126.7590  125.0090   59.3300 C   0  0  0  0  0  0  0  0  0  0  0  0
  126.4270  124.0320   58.2470 C   0  0  0  0  0  0  0  0  0  0  0  0
  127.4360  123.2860   57.6170 C   0  0  0  0  0  0  0  0  0  0  0  0
  127.1250  122.3740   56.6110 C   0  0  0  0  0  0  0  0  0  0  0  0
  125.8010  122.1970   56.2240 C   0  0  0  0  0  0  0  0  0  0  0  0
  124.7860  122.9250   56.8360 C   0  0  0  0  0  0  0  0  0  0  0  0
  125.0990  123.8370   57.8400 C   0  0  0  0  0  0  0  0  0  0  0  0
  126.2070  124.8800   60.6130 C   0  0  0  0  0  0  0  0  0  0  0  0
  126.5020  125.7990   61.6160 C   0  0  0  0  0  0  0  0  0  0  0  0
  127.9600  130.4210   60.3060 C   0  0  0  0  0  0  0  0  0  0  0  0
  128.4490  131.1450   59.2230 C   0  0  0  0  0  0  0  0  0  0  0  0
  131.6910  132.5490   57.8510 C   0  0  0  0  0  0  0  0  0  0  0  0
  132.1800  133.2730   56.7670 C   0  0  0  0  0  0  0  0  0  0  0  0
  131.7095  134.1833   54.8653 H   0  0  0  0  0  0  0  0  0  0  0  0
  129.3149  133.5041   54.9294 H   0  0  0  0  0  0  0  0  0  0  0  0
  128.4439  132.2093   56.8670 H   0  0  0  0  0  0  0  0  0  0  0  0
  131.7738  131.0456   59.9543 H   0  0  0  0  0  0  0  0  0  0  0  0
  130.9044  129.7565   61.8884 H   0  0  0  0  0  0  0  0  0  0  0  0
  125.8341  130.0418   66.0796 H   0  0  0  0  0  0  0  0  0  0  0  0
  126.2390  129.8740   68.5840 H   0  0  0  0  0  0  0  0  0  0  0  0
  128.1958  128.7274   70.3668 H   0  0  0  0  0  0  0  0  0  0  0  0
  130.3243  127.4111   70.2807 H   0  0  0  0  0  0  0  0  0  0  0  0
  131.3188  126.7274   68.1305 H   0  0  0  0  0  0  0  0  0  0  0  0
  130.2341  127.3201   65.9680 H   0  0  0  0  0  0  0  0  0  0  0  0
  126.8780  126.8660   64.1260 H   0  0  0  0  0  0  0  0  0  0  0  0
  128.6101  127.8370   59.8792 H   0  0  0  0  0  0  0  0  0  0  0  0
  128.0816  126.1995   58.0917 H   0  0  0  0  0  0  0  0  0  0  0  0
  128.4841  123.4233   57.9213 H   0  0  0  0  0  0  0  0  0  0  0  0
  127.9241  121.7957   56.1243 H   0  0  0  0  0  0  0  0  0  0  0  0
  125.5551  121.4772   55.4294 H   0  0  0  0  0  0  0  0  0  0  0  0
  123.7400  122.7806   56.5278 H   0  0  0  0  0  0  0  0  0  0  0  0
  124.2941  124.4124   58.3206 H   0  0  0  0  0  0  0  0  0  0  0  0
  125.5308  124.0399   60.8298 H   0  0  0  0  0  0  0  0  0  0  0  0
  126.0619  125.6787   62.6169 H   0  0  0  0  0  0  0  0  0  0  0  0
  126.8775  130.2541   60.4081 H   0  0  0  0  0  0  0  0  0  0  0  0
  127.7476  131.5384   58.4725 H   0  0  0  0  0  0  0  0  0  0  0  0
  132.3690  132.2809   58.6747 H   0  0  0  0  0  0  0  0  0  0  0  0
  133.2371  133.5755   56.7361 H   0  0  0  0  0  0  0  0  0  0  0  0
  1  2  2  0
  2  3  1  0
  3  4  2  0
  4  5  1  0
  5  6  2  0
  6  7  1  0
  7  8  2  0
  8  9  1  0
  9 10  1  0
 10 11  2  0
 11 12  1  0
 12 13  2  0
 13 14  1  0
 14 15  1  0
 15 16  2  0
 16 17  1  0
 17 18  2  0
 18 19  1  0
 19 20  2  0
 11 21  1  0
 21 22  1  0
 22 23  1  0
 23 24  2  0
 24 25  1  0
 25 26  2  0
 26 27  1  0
 27 28  2  0
 28 29  1  0
 29 30  2  0
 30 31  1  0
 31 32  2  0
 26 33  1  0
 33 34  2  0
  8 35  1  0
 35 36  2  0
  4 37  1  0
 37 38  2  0
 38  1  1  0
 36  5  1  0
 22  9  2  0
 34 23  1  0
 20 12  1  0
 32 27  1  0
 20 15  1  0
  1 39  1  0
  2 40  1  0
  3 41  1  0
  6 42  1  0
  7 43  1  0
 13 44  1  0
 14 45  1  0
 16 46  1  0
 17 47  1  0
 18 48  1  0
 19 49  1  0
 21 50  1  0
 24 51  1  0
 25 52  1  0
 28 53  1  0
 29 54  1  0
 30 55  1  0
 31 56  1  0
 32 57  1  0
 33 58  1  0
 34 59  1  0
 35 60  1  0
 36 61  1  0
 37 62  1  0
 38 63  1  0
M  END
>  <Binding energies>  (1) 
[-10.55]

>  <Ligand effiencies>  (1) 
[-0.26375000000000004]

>  <Interactions>  (1) 
["V-A:PRO:540:CB:4884, V-A:TYR:539:CE1:4874, V-A:TYR:539:CD1:4872, V-A:PRO:540:CA:4882, V-A:TYR:531:CE2:4792, V-A:ILE:538:CA:4859, V-A:LEU:363:CD1:3188, V-B:GLU:543:CD:9879, V-B:PRO:540:N:9855, H-B:GLU:543:OE2:9881, H-B:GLU:543:OE1:9880, V-B:TYR:539:C:9838, V-B:TYR:539:CG:9843, V-B:MET:535:CE:9806, V-B:PRO:540:CB:9856, V-B:TYR:539:CA:9840, V-B:TYR:539:CD1:9844, V-B:PRO:540:CD:9858, V-B:TYR:531:CE2:9764, V-B:LEU:363:CD1:8159, V-A:HIS:456:CE1:4069, V-B:ILE:538:CG2:9834, V-A:GLU:543:CD:4907, V-B:HIS:456:CE1:9040, V-B:TYR:484:CZ:9317, V-A:ILE:538:CB:4861, V-A:ILE:538:CG2:4862, V-B:ILE:538:CA:9831, H-B:TYR:484:OH:9318, V-A:PRO:540:N:4883, V-A:PRO:540:CD:4886, V-B:TYR:484:CE2:9316"]

$$$$
RR4_Rahimova_2017
     RDKit          3D

 66 70  0  0  0  0  0  0  0  0999 V2000
  125.7630  122.0010   55.8140 C   0  0  0  0  0  0  0  0  0  0  0  0
  125.7280  122.4630   57.1600 O   0  0  0  0  0  0  0  0  0  0  0  0
  125.4710  123.7980   57.4080 C   0  0  0  0  0  0  0  0  0  0  0  0
  126.5790  124.6300   57.5570 C   0  0  0  0  0  0  0  0  0  0  0  0
  126.4170  125.9880   57.8090 C   0  0  0  0  0  0  0  0  0  0  0  0
  125.1400  126.5570   57.9210 C   0  0  0  0  0  0  0  0  0  0  0  0
  124.9690  128.0240   58.1940 C   0  0  0  0  0  0  0  0  0  0  0  0
  125.1110  128.5790   59.4690 C   0  0  0  0  0  0  0  0  0  0  0  0
  124.9450  129.9560   59.6720 C   0  0  0  0  0  0  0  0  0  0  0  0
  125.1400  130.4810   61.0570 C   0  0  0  0  0  0  0  0  0  0  0  0
  126.3080  131.1760   61.3860 C   0  0  0  0  0  0  0  0  0  0  0  0
  126.4920  131.6790   62.6710 C   0  0  0  0  0  0  0  0  0  0  0  0
  125.5130  131.5030   63.6480 C   0  0  0  0  0  0  0  0  0  0  0  0
  125.7830  132.0370   64.8940 O   0  0  0  0  0  0  0  0  0  0  0  0
  127.1340  132.1170   65.3380 C   0  0  0  0  0  0  0  0  0  0  0  0
  124.3380  130.8110   63.3210 C   0  0  0  0  0  0  0  0  0  0  0  0
  124.1550  130.3090   62.0350 C   0  0  0  0  0  0  0  0  0  0  0  0
  124.6030  130.7650   58.5600 C   0  0  0  0  0  0  0  0  0  0  0  0
  124.4190  132.2110   58.7160 C   0  0  0  0  0  0  0  0  0  0  0  0
  124.2730  133.3520   58.8390 N   0  0  0  0  0  0  0  0  0  0  0  0
  124.4460  130.1330   57.3050 C   0  0  0  0  0  0  0  0  0  0  0  0
  124.0070  130.9880   55.8070 S   0  0  0  0  0  0  0  0  0  0  0  0
  125.2870  130.6200   54.5610 C   0  0  0  0  0  0  0  0  0  0  0  0
  126.6980  130.4290   55.1330 C   0  0  0  0  0  0  0  0  0  0  0  0
  127.3400  129.4050   54.8880 O   0  0  0  0  0  0  0  0  0  0  0  0
  127.1360  131.4460   55.9100 N   0  0  0  0  0  0  0  0  0  0  0  0
  128.3630  131.5720   56.5660 C   0  0  0  0  0  0  0  0  0  0  0  0
  128.7020  130.8100   58.0970 S   0  0  0  0  0  0  0  0  0  0  0  0
  130.3080  131.4700   58.1340 C   0  0  0  0  0  0  0  0  0  0  0  0
  130.5690  132.2560   57.0000 C   0  0  0  0  0  0  0  0  0  0  0  0
  129.4720  132.2990   56.1060 C   0  0  0  0  0  0  0  0  0  0  0  0
  129.4920  133.0320   54.8440 C   0  0  0  0  0  0  0  0  0  0  0  0
  129.5080  133.6130   53.8430 N   0  0  0  0  0  0  0  0  0  0  0  0
  131.9340  132.9180   56.7800 C   0  0  0  0  0  0  0  0  0  0  0  0
  133.0020  132.2860   57.7010 C   0  0  0  0  0  0  0  0  0  0  0  0
  132.5000  132.1250   59.1460 C   0  0  0  0  0  0  0  0  0  0  0  0
  131.3060  131.1530   59.2400 C   0  0  0  0  0  0  0  0  0  0  0  0
  124.6430  128.8050   57.1320 N   0  0  0  0  0  0  0  0  0  0  0  0
  124.0300  125.7110   57.7660 C   0  0  0  0  0  0  0  0  0  0  0  0
  124.1880  124.3510   57.5150 C   0  0  0  0  0  0  0  0  0  0  0  0
  125.8461  120.9042   55.8049 H   0  0  0  0  0  0  0  0  0  0  0  0
  124.8394  122.3031   55.2985 H   0  0  0  0  0  0  0  0  0  0  0  0
  126.6306  122.4388   55.2985 H   0  0  0  0  0  0  0  0  0  0  0  0
  127.5916  124.2084   57.4745 H   0  0  0  0  0  0  0  0  0  0  0  0
  127.3054  126.6267   57.9224 H   0  0  0  0  0  0  0  0  0  0  0  0
  125.3555  127.9286   60.3217 H   0  0  0  0  0  0  0  0  0  0  0  0
  127.0870  131.3263   60.6240 H   0  0  0  0  0  0  0  0  0  0  0  0
  127.4176  132.2199   62.9176 H   0  0  0  0  0  0  0  0  0  0  0  0
  127.1591  132.1185   66.4377 H   0  0  0  0  0  0  0  0  0  0  0  0
  127.6962  131.2506   64.9596 H   0  0  0  0  0  0  0  0  0  0  0  0
  127.5901  133.0437   64.9596 H   0  0  0  0  0  0  0  0  0  0  0  0
  123.5582  130.6642   64.0829 H   0  0  0  0  0  0  0  0  0  0  0  0
  123.2275  129.7724   61.7861 H   0  0  0  0  0  0  0  0  0  0  0  0
  125.0008  129.6958   54.0375 H   0  0  0  0  0  0  0  0  0  0  0  0
  125.3357  131.4948   53.8958 H   0  0  0  0  0  0  0  0  0  0  0  0
  126.5080  132.2280   56.0290 H   0  0  0  0  0  0  0  0  0  0  0  0
  132.2361  132.7828   55.7310 H   0  0  0  0  0  0  0  0  0  0  0  0
  131.8504  133.9887   57.0180 H   0  0  0  0  0  0  0  0  0  0  0  0
  133.2689  131.2947   57.3060 H   0  0  0  0  0  0  0  0  0  0  0  0
  133.8733  132.9572   57.7186 H   0  0  0  0  0  0  0  0  0  0  0  0
  133.3221  131.7382   59.7661 H   0  0  0  0  0  0  0  0  0  0  0  0
  132.1633  133.1107   59.4997 H   0  0  0  0  0  0  0  0  0  0  0  0
  131.6643  130.1193   59.1259 H   0  0  0  0  0  0  0  0  0  0  0  0
  130.8174  131.2645   60.2192 H   0  0  0  0  0  0  0  0  0  0  0  0
  123.0164  126.1310   57.8444 H   0  0  0  0  0  0  0  0  0  0  0  0
  123.3027  123.7083   57.4003 H   0  0  0  0  0  0  0  0  0  0  0  0
  1  2  1  0
  2  3  1  0
  3  4  2  0
  4  5  1  0
  5  6  2  0
  6  7  1  0
  7  8  2  0
  8  9  1  0
  9 10  1  0
 10 11  2  0
 11 12  1  0
 12 13  2  0
 13 14  1  0
 14 15  1  0
 13 16  1  0
 16 17  2  0
  9 18  2  0
 18 19  1  0
 19 20  3  0
 18 21  1  0
 21 22  1  0
 22 23  1  0
 23 24  1  0
 24 25  2  0
 24 26  1  0
 26 27  1  0
 27 28  1  0
 28 29  1  0
 29 30  2  0
 30 31  1  0
 31 32  1  0
 32 33  3  0
 30 34  1  0
 34 35  1  0
 35 36  1  0
 36 37  1  0
 21 38  2  0
  6 39  1  0
 39 40  2  0
 40  3  1  0
 38  7  1  0
 17 10  1  0
 31 27  2  0
 37 29  1  0
  1 41  1  0
  1 42  1  0
  1 43  1  0
  4 44  1  0
  5 45  1  0
  8 46  1  0
 11 47  1  0
 12 48  1  0
 15 49  1  0
 15 50  1  0
 15 51  1  0
 16 52  1  0
 17 53  1  0
 23 54  1  0
 23 55  1  0
 26 56  1  0
 34 57  1  0
 34 58  1  0
 35 59  1  0
 35 60  1  0
 36 61  1  0
 36 62  1  0
 37 63  1  0
 37 64  1  0
 39 65  1  0
 40 66  1  0
M  END
>  <Binding energies>  (1) 
[-9.84]

>  <Ligand effiencies>  (1) 
[-0.24]

>  <Interactions>  (1) 
["V-A:LEU:363:CA:3184, V-A:TYR:539:CZ:4876, V-A:PRO:540:CB:4884, V-A:TYR:539:CE1:4874, V-A:PRO:540:CA:4882, V-A:TYR:531:CE2:4792, V-A:ILE:538:CA:4859, V-A:LEU:363:CD1:3188, V-B:PRO:540:N:9855, V-B:MET:535:CE:9806, V-B:TYR:531:CZ:9765, V-B:PRO:540:CD:9858, V-B:TYR:531:CE2:9764, V-B:LEU:363:CD1:8159, V-B:ILE:538:CD1:9836, V-B:ILE:538:CG2:9834, V-B:ILE:538:CA:9831, V-B:ILE:538:C:9829, V-B:ILE:538:CB:9833, V-B:ASP:366:CB:8182, H-B:TYR:484:OH:9318, H-B:TYR:531:OH:9766, V-A:PRO:540:N:4883, V-B:ASP:366:CG:8183, V-A:MET:535:CG:4832, V-B:TYR:531:CE1:9763, H-A:TYR:539:OH:4877, V-B:LEU:475:CD1:9228, V-B:ILE:369:CG2:8207, V-B:ILE:369:CB:8206"]

$$$$
RR5_Rahimova_2017
     RDKit          3D

 77 82  0  0  0  0  0  0  0  0999 V2000
  128.7010  126.0620   57.4340 O   0  0  0  0  0  0  0  0  0  0  0  0
  128.8650  125.6520   58.5820 C   0  0  0  0  0  0  0  0  0  0  0  0
  130.2660  125.7080   59.2210 C   0  0  0  0  0  0  0  0  0  0  0  0
  131.2270  126.7600   58.5600 C   0  0  2  0  0  0  0  0  0  0  0  0
  130.5750  128.0100   58.1190 N   0  0  0  0  0  0  0  0  0  0  0  0
  129.9030  128.8330   59.0120 C   0  0  0  0  0  0  0  0  0  0  0  0
  129.8030  128.6720   60.2300 O   0  0  0  0  0  0  0  0  0  0  0  0
  129.3540  129.8470   58.3210 O   0  0  0  0  0  0  0  0  0  0  0  0
  128.7640  130.9630   58.9820 C   0  0  0  0  0  0  0  0  0  0  0  0
  129.7190  132.1780   58.9670 C   0  0  0  0  0  0  0  0  0  0  0  0
  131.0420  131.9210   59.6660 C   0  0  0  0  0  0  0  0  0  0  0  0
  131.2890  131.5310   60.9860 C   0  0  0  0  0  0  0  0  0  0  0  0
  132.6010  131.3280   61.4160 C   0  0  0  0  0  0  0  0  0  0  0  0
  133.6660  131.5150   60.5330 C   0  0  0  0  0  0  0  0  0  0  0  0
  133.4210  131.9070   59.2150 C   0  0  0  0  0  0  0  0  0  0  0  0
  132.1080  132.1100   58.7870 C   0  0  0  0  0  0  0  0  0  0  0  0
  131.5690  132.5250   57.4830 C   0  0  0  0  0  0  0  0  0  0  0  0
  132.2080  132.8480   56.2840 C   0  0  0  0  0  0  0  0  0  0  0  0
  131.4490  133.2400   55.1800 C   0  0  0  0  0  0  0  0  0  0  0  0
  130.0570  133.3050   55.2750 C   0  0  0  0  0  0  0  0  0  0  0  0
  129.4220  132.9770   56.4730 C   0  0  0  0  0  0  0  0  0  0  0  0
  130.1780  132.5820   57.5790 C   0  0  0  0  0  0  0  0  0  0  0  0
  132.0000  126.1290   57.3750 C   0  0  0  0  0  0  0  0  0  0  0  0
  132.9710  125.4080   57.4880 O   0  0  0  0  0  0  0  0  0  0  0  0
  131.4120  126.4920   56.1980 O   0  0  0  0  0  0  0  0  0  0  0  0
  127.8830  125.1670   59.3760 N   0  0  0  0  0  0  0  0  0  0  0  0
  126.4200  124.9420   59.1780 C   0  0  0  0  0  0  0  0  0  0  0  0
  125.9100  126.3820   58.8350 C   0  0  0  0  0  0  0  0  0  0  0  0
  125.0460  126.6160   57.7530 C   0  0  0  0  0  0  0  0  0  0  0  0
  124.5980  127.9010   57.4580 C   0  0  0  0  0  0  0  0  0  0  0  0
  125.0160  128.9760   58.2360 C   0  0  0  0  0  0  0  0  0  0  0  0
  125.8690  128.7740   59.3140 C   0  0  0  0  0  0  0  0  0  0  0  0
  126.3080  127.4880   59.6140 C   0  0  0  0  0  0  0  0  0  0  0  0
  126.2580  123.9460   57.9810 C   0  0  0  0  0  0  0  0  0  0  0  0
  125.0040  123.6720   57.4130 C   0  0  0  0  0  0  0  0  0  0  0  0
  124.8810  122.7670   56.3610 C   0  0  0  0  0  0  0  0  0  0  0  0
  126.0100  122.1230   55.8660 C   0  0  0  0  0  0  0  0  0  0  0  0
  127.2640  122.3810   56.4090 C   0  0  0  0  0  0  0  0  0  0  0  0
  127.3860  123.2920   57.4540 C   0  0  0  0  0  0  0  0  0  0  0  0
  125.8730  124.4120   60.5460 C   0  0  0  0  0  0  0  0  0  0  0  0
  124.5690  123.8950   60.6530 C   0  0  0  0  0  0  0  0  0  0  0  0
  124.0740  123.4300   61.8690 C   0  0  0  0  0  0  0  0  0  0  0  0
  124.8790  123.4680   63.0010 C   0  0  0  0  0  0  0  0  0  0  0  0
  126.1770  123.9610   62.9240 C   0  0  0  0  0  0  0  0  0  0  0  0
  126.6670  124.4250   61.7070 C   0  0  0  0  0  0  0  0  0  0  0  0
  130.1513  125.9643   60.2845 H   0  0  0  0  0  0  0  0  0  0  0  0
  130.7244  124.7193   59.0711 H   0  0  0  0  0  0  0  0  0  0  0  0
  131.9202  127.0488   59.3638 H   0  0  0  0  0  0  0  0  0  0  0  0
  130.4740  128.1720   57.1280 H   0  0  0  0  0  0  0  0  0  0  0  0
  127.8291  131.2329   58.4691 H   0  0  0  0  0  0  0  0  0  0  0  0
  128.5615  130.6868   60.0273 H   0  0  0  0  0  0  0  0  0  0  0  0
  129.1017  132.9429   59.4610 H   0  0  0  0  0  0  0  0  0  0  0  0
  130.4512  131.3846   61.6836 H   0  0  0  0  0  0  0  0  0  0  0  0
  132.7966  131.0198   62.4537 H   0  0  0  0  0  0  0  0  0  0  0  0
  134.6988  131.3535   60.8755 H   0  0  0  0  0  0  0  0  0  0  0  0
  134.2587  132.0550   58.5176 H   0  0  0  0  0  0  0  0  0  0  0  0
  133.3042  132.7938   56.2099 H   0  0  0  0  0  0  0  0  0  0  0  0
  131.9477  133.4980   54.2341 H   0  0  0  0  0  0  0  0  0  0  0  0
  129.4608  133.6152   54.4042 H   0  0  0  0  0  0  0  0  0  0  0  0
  128.3257  133.0295   56.5466 H   0  0  0  0  0  0  0  0  0  0  0  0
  130.4610  126.3630   56.2110 H   0  0  0  0  0  0  0  0  0  0  0  0
  128.2120  124.7850   60.2500 H   0  0  0  0  0  0  0  0  0  0  0  0
  124.7182  125.7715   57.1291 H   0  0  0  0  0  0  0  0  0  0  0  0
  123.9150  128.0658   56.6116 H   0  0  0  0  0  0  0  0  0  0  0  0
  124.6691  129.9920   57.9962 H   0  0  0  0  0  0  0  0  0  0  0  0
  126.1958  129.6266   59.9274 H   0  0  0  0  0  0  0  0  0  0  0  0
  126.9767  127.3316   60.4733 H   0  0  0  0  0  0  0  0  0  0  0  0
  124.1083  124.1776   57.8029 H   0  0  0  0  0  0  0  0  0  0  0  0
  123.8931  122.5622   55.9228 H   0  0  0  0  0  0  0  0  0  0  0  0
  125.9103  121.4045   55.0391 H   0  0  0  0  0  0  0  0  0  0  0  0
  128.1539  121.8683   56.0150 H   0  0  0  0  0  0  0  0  0  0  0  0
  128.3802  123.5038   57.8743 H   0  0  0  0  0  0  0  0  0  0  0  0
  123.9284  123.8573   59.7596 H   0  0  0  0  0  0  0  0  0  0  0  0
  123.0497  123.0342   61.9330 H   0  0  0  0  0  0  0  0  0  0  0  0
  124.4874  123.1062   63.9632 H   0  0  0  0  0  0  0  0  0  0  0  0
  126.8134  123.9841   63.8209 H   0  0  0  0  0  0  0  0  0  0  0  0
  127.6961  124.8097   61.6518 H   0  0  0  0  0  0  0  0  0  0  0  0
  1  2  2  0
  2  3  1  0
  3  4  1  0
  4  5  1  0
  5  6  1  0
  6  7  2  0
  6  8  1  0
  8  9  1  0
  9 10  1  0
 10 11  1  0
 11 12  2  0
 12 13  1  0
 13 14  2  0
 14 15  1  0
 15 16  2  0
 16 17  1  0
 17 18  2  0
 18 19  1  0
 19 20  2  0
 20 21  1  0
 21 22  2  0
  4 23  1  0
 23 24  2  0
 23 25  1  0
  2 26  1  0
 26 27  1  0
 27 28  1  0
 28 29  2  0
 29 30  1  0
 30 31  2  0
 31 32  1  0
 32 33  2  0
 27 34  1  0
 34 35  2  0
 35 36  1  0
 36 37  2  0
 37 38  1  0
 38 39  2  0
 27 40  1  0
 40 41  2  0
 41 42  1  0
 42 43  2  0
 43 44  1  0
 44 45  2  0
 22 10  1  0
 33 28  1  0
 39 34  1  0
 45 40  1  0
 16 11  1  0
 22 17  1  0
  3 46  1  0
  3 47  1  0
  4 48  1  1
  5 49  1  0
  9 50  1  0
  9 51  1  0
 10 52  1  0
 12 53  1  0
 13 54  1  0
 14 55  1  0
 15 56  1  0
 18 57  1  0
 19 58  1  0
 20 59  1  0
 21 60  1  0
 25 61  1  0
 26 62  1  0
 29 63  1  0
 30 64  1  0
 31 65  1  0
 32 66  1  0
 33 67  1  0
 35 68  1  0
 36 69  1  0
 37 70  1  0
 38 71  1  0
 39 72  1  0
 41 73  1  0
 42 74  1  0
 43 75  1  0
 44 76  1  0
 45 77  1  0
M  END
>  <Binding energies>  (1) 
[-12.07]

>  <Ligand effiencies>  (1) 
[-0.25145833333333334]

>  <Interactions>  (1) 
["V-A:LEU:363:CA:3184, V-A:TYR:539:CZ:4876, V-A:ASP:366:CG:3212, V-A:ASN:362:C:3171, V-A:PRO:540:CB:4884, V-A:TYR:539:CE1:4874, V-A:TYR:539:CD1:4872, V-A:ASP:366:CB:3211, H-A:TYR:531:OH:4794, V-A:PRO:540:CA:4882, V-A:TYR:531:CE2:4792, V-A:TYR:531:CZ:4793, V-A:ILE:538:CA:4859, V-A:LEU:363:CD1:3188, V-B:GLU:543:CD:9879, V-B:PRO:540:N:9855, V-B:PRO:540:CA:9854, V-B:TYR:539:C:9838, V-B:TYR:539:CG:9843, V-B:MET:535:CE:9806, H-B:TYR:539:OH:9849, V-B:GLU:543:CG:9878, V-B:ALA:541:C:9859, V-B:PRO:540:CB:9856, V-B:ASN:362:CB:8146, V-B:TYR:539:CA:9840, V-B:TYR:539:CD1:9844, V-B:TYR:531:CZ:9765, V-B:PRO:540:CD:9858, V-B:TYR:531:CE2:9764, V-B:LEU:363:CD1:8159, V-B:ILE:538:CD1:9836, V-B:ILE:538:CG2:9834, V-A:ILE:538:CB:4861, V-A:ILE:538:CG2:4862, V-B:ILE:538:CA:9831, V-B:TYR:539:CE1:9846, V-B:ILE:538:C:9829, V-B:ASP:366:CB:8182, V-A:PRO:540:N:4883, V-B:ASP:366:CG:8183, V-B:TYR:531:CE1:9763, V-A:ASN:362:CB:3175"]

$$$$
RR5_Rahimova_2017-again1
     RDKit          3D

 76 81  0  0  0  0  0  0  0  0999 V2000
  128.9240  124.3490   60.3770 O   0  0  0  0  0  0  0  0  0  0  0  0
  128.4920  123.2240   60.1230 C   0  0  0  0  0  0  0  0  0  0  0  0
  127.2360  123.0940   59.2360 C   0  0  0  0  0  0  0  0  0  0  0  0
  127.2980  123.7710   57.8280 C   0  0  2  0  0  0  0  0  0  0  0  0
  126.3870  124.9350   57.8100 N   0  0  0  0  0  0  0  0  0  0  0  0
  126.1950  125.7290   58.9360 C   0  0  0  0  0  0  0  0  0  0  0  0
  126.7110  125.5660   60.0460 O   0  0  0  0  0  0  0  0  0  0  0  0
  125.3430  126.7230   58.6230 O   0  0  0  0  0  0  0  0  0  0  0  0
  125.3950  127.9730   59.3030 C   0  0  0  0  0  0  0  0  0  0  0  0
  126.2750  128.9660   58.5200 C   0  0  0  0  0  0  0  0  0  0  0  0
  127.4340  128.3060   57.7940 C   0  0  0  0  0  0  0  0  0  0  0  0
  128.4930  127.5500   58.3050 C   0  0  0  0  0  0  0  0  0  0  0  0
  129.4520  127.0200   57.4400 C   0  0  0  0  0  0  0  0  0  0  0  0
  129.3580  127.2480   56.0650 C   0  0  0  0  0  0  0  0  0  0  0  0
  128.3060  128.0070   55.5520 C   0  0  0  0  0  0  0  0  0  0  0  0
  127.3470  128.5350   56.4190 C   0  0  0  0  0  0  0  0  0  0  0  0
  126.1610  129.3650   56.1600 C   0  0  0  0  0  0  0  0  0  0  0  0
  125.6400  129.8760   54.9690 C   0  0  0  0  0  0  0  0  0  0  0  0
  124.4870  130.6630   55.0010 C   0  0  0  0  0  0  0  0  0  0  0  0
  123.8590  130.9360   56.2180 C   0  0  0  0  0  0  0  0  0  0  0  0
  124.3820  130.4230   57.4070 C   0  0  0  0  0  0  0  0  0  0  0  0
  125.5350  129.6320   57.3780 C   0  0  0  0  0  0  0  0  0  0  0  0
  126.9710  122.7510   56.6640 C   0  0  0  0  0  0  0  0  0  0  0  0
  126.0980  123.1500   55.8570 O   0  0  0  0  0  0  0  0  0  0  0  0
  127.6320  121.6850   56.6430 O   0  0  0  0  0  0  0  0  0  0  0  0
  129.1360  122.0930   60.4810 N   0  0  0  0  0  0  0  0  0  0  0  0
  130.3610  121.9220   61.3040 C   0  0  0  0  0  0  0  0  0  0  0  0
  130.9310  120.4790   61.1240 C   0  0  0  0  0  0  0  0  0  0  0  0
  132.1960  120.2690   60.5470 C   0  0  0  0  0  0  0  0  0  0  0  0
  132.7110  118.9850   60.3970 C   0  0  0  0  0  0  0  0  0  0  0  0
  131.9700  117.8900   60.8270 C   0  0  0  0  0  0  0  0  0  0  0  0
  130.7170  118.0700   61.4060 C   0  0  0  0  0  0  0  0  0  0  0  0
  130.2030  119.3550   61.5540 C   0  0  0  0  0  0  0  0  0  0  0  0
  131.5610  122.8430   60.9110 C   0  0  0  0  0  0  0  0  0  0  0  0
  132.6630  122.9970   61.7710 C   0  0  0  0  0  0  0  0  0  0  0  0
  133.7330  123.8170   61.4250 C   0  0  0  0  0  0  0  0  0  0  0  0
  133.7190  124.4920   60.2090 C   0  0  0  0  0  0  0  0  0  0  0  0
  132.6450  124.3480   59.3350 C   0  0  0  0  0  0  0  0  0  0  0  0
  131.5770  123.5270   59.6850 C   0  0  0  0  0  0  0  0  0  0  0  0
  129.8680  122.1420   62.7760 C   0  0  0  0  0  0  0  0  0  0  0  0
  130.7360  122.0080   63.8740 C   0  0  0  0  0  0  0  0  0  0  0  0
  130.2870  122.2240   65.1730 C   0  0  0  0  0  0  0  0  0  0  0  0
  128.9650  122.5920   65.3940 C   0  0  0  0  0  0  0  0  0  0  0  0
  128.0910  122.7550   64.3250 C   0  0  0  0  0  0  0  0  0  0  0  0
  128.5420  122.5370   63.0260 C   0  0  0  0  0  0  0  0  0  0  0  0
  127.0461  122.0215   59.0822 H   0  0  0  0  0  0  0  0  0  0  0  0
  126.4420  123.6278   59.7789 H   0  0  0  0  0  0  0  0  0  0  0  0
  128.3262  124.1171   57.6462 H   0  0  0  0  0  0  0  0  0  0  0  0
  125.9480  125.1930   56.9380 H   0  0  0  0  0  0  0  0  0  0  0  0
  124.3774  128.3810   59.3925 H   0  0  0  0  0  0  0  0  0  0  0  0
  125.8268  127.8208   60.3032 H   0  0  0  0  0  0  0  0  0  0  0  0
  126.5977  129.6624   59.3079 H   0  0  0  0  0  0  0  0  0  0  0  0
  128.5706  127.3729   59.3879 H   0  0  0  0  0  0  0  0  0  0  0  0
  130.2831  126.4218   57.8418 H   0  0  0  0  0  0  0  0  0  0  0  0
  130.1147  126.8284   55.3858 H   0  0  0  0  0  0  0  0  0  0  0  0
  128.2322  128.1887   54.4696 H   0  0  0  0  0  0  0  0  0  0  0  0
  126.1354  129.6596   54.0110 H   0  0  0  0  0  0  0  0  0  0  0  0
  124.0728  131.0685   54.0661 H   0  0  0  0  0  0  0  0  0  0  0  0
  122.9508  131.5562   56.2402 H   0  0  0  0  0  0  0  0  0  0  0  0
  123.8876  130.6408   58.3652 H   0  0  0  0  0  0  0  0  0  0  0  0
  128.6580  121.2290   60.2740 H   0  0  0  0  0  0  0  0  0  0  0  0
  132.7874  121.1327   60.2091 H   0  0  0  0  0  0  0  0  0  0  0  0
  133.7005  118.8369   59.9400 H   0  0  0  0  0  0  0  0  0  0  0  0
  132.3766  116.8747   60.7089 H   0  0  0  0  0  0  0  0  0  0  0  0
  130.1354  117.2002   61.7452 H   0  0  0  0  0  0  0  0  0  0  0  0
  129.2133  119.4934   62.0138 H   0  0  0  0  0  0  0  0  0  0  0  0
  132.6795  122.4613   62.7316 H   0  0  0  0  0  0  0  0  0  0  0  0
  134.5860  123.9307   62.1102 H   0  0  0  0  0  0  0  0  0  0  0  0
  134.5620  125.1438   59.9361 H   0  0  0  0  0  0  0  0  0  0  0  0
  132.6405  124.8805   58.3725 H   0  0  0  0  0  0  0  0  0  0  0  0
  130.7321  123.4122   58.9901 H   0  0  0  0  0  0  0  0  0  0  0  0
  131.7860  121.7281   63.7034 H   0  0  0  0  0  0  0  0  0  0  0  0
  130.9758  122.1040   66.0222 H   0  0  0  0  0  0  0  0  0  0  0  0
  128.6078  122.7554   66.4215 H   0  0  0  0  0  0  0  0  0  0  0  0
  127.0480  123.0548   64.5048 H   0  0  0  0  0  0  0  0  0  0  0  0
  127.8502  122.6760   62.1822 H   0  0  0  0  0  0  0  0  0  0  0  0
  1  2  2  0
  2  3  1  0
  3  4  1  0
  4  5  1  0
  5  6  1  0
  6  7  2  0
  6  8  1  0
  8  9  1  0
  9 10  1  0
 10 11  1  0
 11 12  2  0
 12 13  1  0
 13 14  2  0
 14 15  1  0
 15 16  2  0
 16 17  1  0
 17 18  2  0
 18 19  1  0
 19 20  2  0
 20 21  1  0
 21 22  2  0
  4 23  1  0
 23 24  2  0
 23 25  1  0
  2 26  1  0
 26 27  1  0
 27 28  1  0
 28 29  2  0
 29 30  1  0
 30 31  2  0
 31 32  1  0
 32 33  2  0
 27 34  1  0
 34 35  2  0
 35 36  1  0
 36 37  2  0
 37 38  1  0
 38 39  2  0
 27 40  1  0
 40 41  2  0
 41 42  1  0
 42 43  2  0
 43 44  1  0
 44 45  2  0
 22 10  1  0
 33 28  1  0
 39 34  1  0
 45 40  1  0
 16 11  1  0
 22 17  1  0
  3 46  1  0
  3 47  1  0
  4 48  1  6
  5 49  1  0
  9 50  1  0
  9 51  1  0
 10 52  1  0
 12 53  1  0
 13 54  1  0
 14 55  1  0
 15 56  1  0
 18 57  1  0
 19 58  1  0
 20 59  1  0
 21 60  1  0
 26 61  1  0
 29 62  1  0
 30 63  1  0
 31 64  1  0
 32 65  1  0
 33 66  1  0
 35 67  1  0
 36 68  1  0
 37 69  1  0
 38 70  1  0
 39 71  1  0
 41 72  1  0
 42 73  1  0
 43 74  1  0
 44 75  1  0
 45 76  1  0
M  CHG  1  25  -1
M  END
>  <Binding energies>  (1) 
[-11.29]

>  <Ligand effiencies>  (1) 
[-0.24021276595744678]

>  <Interactions>  (1) 
["V-A:ASP:366:CG:3212, V-A:ASP:366:CB:3211, V-B:GLU:543:CD:9879, V-B:PRO:540:N:9855, V-B:ALA:541:CB:9863, V-B:PRO:540:CA:9854, V-B:ALA:541:CA:9861, V-B:TYR:539:C:9838, V-A:LEU:475:CD2:4258, V-A:PRO:482:CG:4326, H-B:TYR:539:O:9839, V-A:ILE:369:CD1:3238, V-B:TYR:539:CD2:9845, V-A:ILE:369:CG2:3236, V-B:TYR:539:CE2:9847, V-A:SER:385:CA:3406, H-B:TYR:539:N:9841, V-B:MET:535:CE:9806, V-B:TYR:539:CZ:9848, V-A:PRO:482:CB:4325, V-B:GLU:543:CG:9878, V-A:LEU:475:CD1:4257, V-B:ALA:541:C:9859, V-B:PRO:540:CB:9856, V-B:TYR:531:CZ:9765, V-B:ASP:366:CB:8182, V-A:TYR:484:CZ:4346, V-A:TYR:484:CE2:4345, V-A:MET:535:CE:4834, H-B:TYR:531:OH:9766, V-B:ASP:366:CG:8183, V-B:TYR:531:CE1:9763, V-A:ILE:369:CB:3235, V-A:ASP:366:CA:3209, V-B:ASN:370:CB:8215, V-B:ASN:370:CA:8213, V-B:ASN:370:CG:8216, V-B:TYR:531:CD1:9761"]

$$$$
RR6_Rahimova_2017
     RDKit          3D

 63 66  0  0  0  0  0  0  0  0999 V2000
  131.8410  116.8340   61.8980 C   0  0  0  0  0  0  0  0  0  0  0  0
  131.6310  117.3550   60.5930 O   0  0  0  0  0  0  0  0  0  0  0  0
  132.4120  118.3540   60.1060 C   0  0  0  0  0  0  0  0  0  0  0  0
  133.1820  118.2090   59.1510 O   0  0  0  0  0  0  0  0  0  0  0  0
  132.2440  119.6520   60.8420 C   0  0  0  0  0  0  0  0  0  0  0  0
  133.3410  120.4490   61.2020 C   0  0  0  0  0  0  0  0  0  0  0  0
  133.1530  121.6440   61.8920 C   0  0  0  0  0  0  0  0  0  0  0  0
  131.8590  122.0620   62.2370 C   0  0  0  0  0  0  0  0  0  0  0  0
  131.5590  123.2340   62.9560 N   0  0  0  0  0  0  0  0  0  0  0  0
  132.3970  124.1160   63.5440 C   0  0  0  0  0  0  0  0  0  0  0  0
  133.6260  124.0440   63.5400 O   0  0  0  0  0  0  0  0  0  0  0  0
  131.7240  125.2520   64.3210 C   0  0  0  0  0  0  0  0  0  0  0  0
  129.9200  125.3470   64.0640 S   0  0  0  0  0  0  0  0  0  0  0  0
  129.6640  125.6830   62.3340 C   0  0  0  0  0  0  0  0  0  0  0  0
  130.2400  126.8290   61.8980 N   0  0  0  0  0  0  0  0  0  0  0  0
  130.1390  127.1780   60.5910 C   0  0  0  0  0  0  0  0  0  0  0  0
  130.8570  128.4290   60.1760 C   0  0  0  0  0  0  0  0  0  0  0  0
  131.0070  129.5040   61.0660 C   0  0  0  0  0  0  0  0  0  0  0  0
  131.6610  130.6700   60.6780 C   0  0  0  0  0  0  0  0  0  0  0  0
  132.1840  130.7800   59.3900 C   0  0  0  0  0  0  0  0  0  0  0  0
  132.8880  132.0570   58.9670 C   0  0  0  0  0  0  0  0  0  0  0  0
  132.0470  129.7240   58.4920 C   0  0  0  0  0  0  0  0  0  0  0  0
  131.3930  128.5610   58.8860 C   0  0  0  0  0  0  0  0  0  0  0  0
  129.4350  126.3740   59.6890 C   0  0  0  0  0  0  0  0  0  0  0  0
  128.8260  125.1860   60.1170 C   0  0  0  0  0  0  0  0  0  0  0  0
  128.1060  124.3660   59.0970 C   0  0  0  0  0  0  0  0  0  0  0  0
  128.7070  123.2220   58.5630 C   0  0  0  0  0  0  0  0  0  0  0  0
  128.0360  122.4430   57.6240 C   0  0  0  0  0  0  0  0  0  0  0  0
  126.7520  122.7880   57.2050 C   0  0  0  0  0  0  0  0  0  0  0  0
  126.1630  121.9560   56.2730 O   0  0  0  0  0  0  0  0  0  0  0  0
  125.0210  122.4150   55.5570 C   0  0  0  0  0  0  0  0  0  0  0  0
  126.1420  123.9320   57.7420 C   0  0  0  0  0  0  0  0  0  0  0  0
  126.8160  124.7080   58.6820 C   0  0  0  0  0  0  0  0  0  0  0  0
  128.9360  124.8270   61.4830 C   0  0  0  0  0  0  0  0  0  0  0  0
  128.2990  123.6130   62.0030 C   0  0  0  0  0  0  0  0  0  0  0  0
  127.7980  122.6540   62.4130 N   0  0  0  0  0  0  0  0  0  0  0  0
  130.7650  121.2800   61.8650 C   0  0  0  0  0  0  0  0  0  0  0  0
  130.9550  120.0840   61.1780 C   0  0  0  0  0  0  0  0  0  0  0  0
  131.5391  117.5831   62.6448 H   0  0  0  0  0  0  0  0  0  0  0  0
  131.2402  115.9220   62.0298 H   0  0  0  0  0  0  0  0  0  0  0  0
  132.9063  116.5935   62.0298 H   0  0  0  0  0  0  0  0  0  0  0  0
  134.3589  120.1271   60.9369 H   0  0  0  0  0  0  0  0  0  0  0  0
  134.0209  122.2614   62.1671 H   0  0  0  0  0  0  0  0  0  0  0  0
  130.5740  123.3810   63.1180 H   0  0  0  0  0  0  0  0  0  0  0  0
  131.9146  125.0998   65.3936 H   0  0  0  0  0  0  0  0  0  0  0  0
  132.1522  126.1943   63.9486 H   0  0  0  0  0  0  0  0  0  0  0  0
  130.6016  129.4239   62.0854 H   0  0  0  0  0  0  0  0  0  0  0  0
  131.7652  131.5044   61.3872 H   0  0  0  0  0  0  0  0  0  0  0  0
  133.1975  132.6184   59.8609 H   0  0  0  0  0  0  0  0  0  0  0  0
  133.7748  131.8053   58.3668 H   0  0  0  0  0  0  0  0  0  0  0  0
  132.2017  132.6725   58.3668 H   0  0  0  0  0  0  0  0  0  0  0  0
  132.4548  129.8094   57.4740 H   0  0  0  0  0  0  0  0  0  0  0  0
  131.2942  127.7293   58.1728 H   0  0  0  0  0  0  0  0  0  0  0  0
  129.3584  126.6764   58.6342 H   0  0  0  0  0  0  0  0  0  0  0  0
  129.7182  122.9351   58.8874 H   0  0  0  0  0  0  0  0  0  0  0  0
  128.5231  121.5481   57.2094 H   0  0  0  0  0  0  0  0  0  0  0  0
  124.2431  122.7277   56.2691 H   0  0  0  0  0  0  0  0  0  0  0  0
  125.3038  123.2693   54.9244 H   0  0  0  0  0  0  0  0  0  0  0  0
  124.6339  121.6026   54.9244 H   0  0  0  0  0  0  0  0  0  0  0  0
  125.1294  124.2165   57.4199 H   0  0  0  0  0  0  0  0  0  0  0  0
  126.3277  125.5996   59.1023 H   0  0  0  0  0  0  0  0  0  0  0  0
  129.7463  121.6104   62.1160 H   0  0  0  0  0  0  0  0  0  0  0  0
  130.0847  119.4729   60.8966 H   0  0  0  0  0  0  0  0  0  0  0  0
  1  2  1  0
  2  3  1  0
  3  4  2  0
  3  5  1  0
  5  6  2  0
  6  7  1  0
  7  8  2  0
  8  9  1  0
  9 10  1  0
 10 11  2  0
 10 12  1  0
 12 13  1  0
 13 14  1  0
 14 15  2  0
 15 16  1  0
 16 17  1  0
 17 18  2  0
 18 19  1  0
 19 20  2  0
 20 21  1  0
 20 22  1  0
 22 23  2  0
 16 24  2  0
 24 25  1  0
 25 26  1  0
 26 27  2  0
 27 28  1  0
 28 29  2  0
 29 30  1  0
 30 31  1  0
 29 32  1  0
 32 33  2  0
 25 34  2  0
 34 35  1  0
 35 36  3  0
  8 37  1  0
 37 38  2  0
 38  5  1  0
 34 14  1  0
 23 17  1  0
 33 26  1  0
  1 39  1  0
  1 40  1  0
  1 41  1  0
  6 42  1  0
  7 43  1  0
  9 44  1  0
 12 45  1  0
 12 46  1  0
 18 47  1  0
 19 48  1  0
 21 49  1  0
 21 50  1  0
 21 51  1  0
 22 52  1  0
 23 53  1  0
 24 54  1  0
 27 55  1  0
 28 56  1  0
 31 57  1  0
 31 58  1  0
 31 59  1  0
 32 60  1  0
 33 61  1  0
 37 62  1  0
 38 63  1  0
M  END
>  <Binding energies>  (1) 
[-8.84]

>  <Ligand effiencies>  (1) 
[-0.22666666666666666]

>  <Interactions>  (1) 
["V-A:LEU:363:CA:3184, V-A:ASP:366:CG:3212, V-A:PRO:540:CB:4884, V-A:ASP:366:CB:3211, V-A:PRO:540:CA:4882, V-A:TYR:531:CZ:4793, V-B:PRO:540:N:9855, H-B:ALA:541:N:9862, V-B:ALA:541:CB:9863, V-B:PRO:540:CA:9854, V-B:TYR:539:C:9838, V-A:LEU:475:CD2:4258, V-A:HIS:383:CE1:3393, V-B:TYR:539:CD2:9845, V-A:ILE:369:CG2:3236, V-B:TYR:539:CE2:9847, V-A:SER:385:CA:3406, V-A:SER:385:CB:3408, H-B:TYR:539:N:9841, V-B:TYR:539:CG:9843, V-A:THR:477:CG2:4272, V-B:MET:535:CE:9806, V-B:TYR:539:CZ:9848, V-A:PRO:482:CB:4325, H-A:HIS:383:ND1:3390, H-A:GLY:454:N:4049, V-B:TYR:539:CA:9840, V-B:TYR:539:CD1:9844, V-B:TYR:531:CE2:9764, V-B:LEU:363:CD1:8159, V-B:ILE:538:CD1:9836, V-B:ILE:538:CG2:9834, V-B:ILE:538:CA:9831, V-B:TYR:539:CE1:9846, V-B:ILE:538:CB:9833"]

$$$$
RR7_Rahimova_2017
     RDKit          3D

 80 86  0  0  0  0  0  0  0  0999 V2000
  129.1190  124.0140   57.8170 C   0  0  0  0  0  0  0  0  0  0  0  0
  130.2030  124.8230   57.3710 O   0  0  0  0  0  0  0  0  0  0  0  0
  130.2390  126.1570   57.7300 C   0  0  0  0  0  0  0  0  0  0  0  0
  129.5170  127.0380   56.9270 C   0  0  0  0  0  0  0  0  0  0  0  0
  129.4900  128.3990   57.2130 C   0  0  0  0  0  0  0  0  0  0  0  0
  130.1980  128.9160   58.3080 C   0  0  0  0  0  0  0  0  0  0  0  0
  130.1590  130.4330   58.6720 C   0  0  0  0  0  0  0  0  0  0  0  0
  129.0080  130.6170   59.5260 O   0  0  0  0  0  0  0  0  0  0  0  0
  128.2120  129.4900   59.9100 C   0  0  0  0  0  0  0  0  0  0  0  0
  128.1330  129.4320   61.4440 C   0  0  1  0  0  0  0  0  0  0  0  0
  127.9690  128.0610   61.7970 O   0  0  0  0  0  0  0  0  0  0  0  0
  128.9990  127.6080   62.6280 C   0  0  1  0  0  0  0  0  0  0  0  0
  129.2790  126.2100   62.3600 N   0  0  0  0  0  0  0  0  0  0  0  0
  130.4760  125.6410   61.9620 C   0  0  0  0  0  0  0  0  0  0  0  0
  130.4390  124.3500   61.7440 N   0  0  0  0  0  0  0  0  0  0  0  0
  129.1280  124.0200   61.9590 C   0  0  0  0  0  0  0  0  0  0  0  0
  128.4380  122.7950   61.8750 C   0  0  0  0  0  0  0  0  0  0  0  0
  129.1570  121.6380   61.5200 N   0  0  0  0  0  0  0  0  0  0  0  0
  130.2760  121.1240   62.0830 C   0  0  0  0  0  0  0  0  0  0  0  0
  130.8730  121.6340   63.0340 O   0  0  0  0  0  0  0  0  0  0  0  0
  130.8060  119.8560   61.4470 C   0  0  0  0  0  0  0  0  0  0  0  0
  132.0330  119.8810   60.7670 C   0  0  0  0  0  0  0  0  0  0  0  0
  132.5410  118.7250   60.1800 C   0  0  0  0  0  0  0  0  0  0  0  0
  131.8290  117.5340   60.2730 C   0  0  0  0  0  0  0  0  0  0  0  0
  130.6120  117.4870   60.9470 C   0  0  0  0  0  0  0  0  0  0  0  0
  130.1020  118.6430   61.5340 C   0  0  0  0  0  0  0  0  0  0  0  0
  127.0960  122.7650   62.1350 N   0  0  0  0  0  0  0  0  0  0  0  0
  126.4880  123.9350   62.4650 C   0  0  0  0  0  0  0  0  0  0  0  0
  127.0560  125.1650   62.5780 N   0  0  0  0  0  0  0  0  0  0  0  0
  128.3710  125.1630   62.3250 C   0  0  0  0  0  0  0  0  0  0  0  0
  130.1650  128.5570   62.3770 C   0  0  0  0  0  0  0  0  0  0  0  0
  129.4130  129.8620   62.1760 C   0  0  2  0  0  0  0  0  0  0  0  0
  129.1390  130.5120   63.4060 O   0  0  0  0  0  0  0  0  0  0  0  0
  131.4030  130.8770   59.4870 C   0  0  0  0  0  0  0  0  0  0  0  0
  131.2560  131.7150   60.6040 C   0  0  0  0  0  0  0  0  0  0  0  0
  132.3650  132.1300   61.3330 C   0  0  0  0  0  0  0  0  0  0  0  0
  133.6360  131.7120   60.9520 C   0  0  0  0  0  0  0  0  0  0  0  0
  133.8060  130.8820   59.8480 C   0  0  0  0  0  0  0  0  0  0  0  0
  132.6960  130.4680   59.1180 C   0  0  0  0  0  0  0  0  0  0  0  0
  130.0750  131.4150   57.4700 C   0  0  0  0  0  0  0  0  0  0  0  0
  131.0920  132.3570   57.2500 C   0  0  0  0  0  0  0  0  0  0  0  0
  131.0210  133.2470   56.1820 C   0  0  0  0  0  0  0  0  0  0  0  0
  129.9240  133.2100   55.3260 C   0  0  0  0  0  0  0  0  0  0  0  0
  128.8980  132.2940   55.5330 C   0  0  0  0  0  0  0  0  0  0  0  0
  128.9710  131.4050   56.6010 C   0  0  0  0  0  0  0  0  0  0  0  0
  130.9120  128.0230   59.1210 C   0  0  0  0  0  0  0  0  0  0  0  0
  130.9380  126.6610   58.8360 C   0  0  0  0  0  0  0  0  0  0  0  0
  129.1002  124.0000   58.9167 H   0  0  0  0  0  0  0  0  0  0  0  0
  128.1726  124.4284   57.4394 H   0  0  0  0  0  0  0  0  0  0  0  0
  129.2470  122.9888   57.4394 H   0  0  0  0  0  0  0  0  0  0  0  0
  128.9628  126.6532   56.0582 H   0  0  0  0  0  0  0  0  0  0  0  0
  128.9068  129.0776   56.5732 H   0  0  0  0  0  0  0  0  0  0  0  0
  127.1997  129.5941   59.4923 H   0  0  0  0  0  0  0  0  0  0  0  0
  128.6677  128.5653   59.5263 H   0  0  0  0  0  0  0  0  0  0  0  0
  127.3192  130.1132   61.7334 H   0  0  0  0  0  0  0  0  0  0  0  0
  128.7475  127.6275   63.6987 H   0  0  0  0  0  0  0  0  0  0  0  0
  131.3952  126.2322   61.8373 H   0  0  0  0  0  0  0  0  0  0  0  0
  128.7760  121.1340   60.7320 H   0  0  0  0  0  0  0  0  0  0  0  0
  132.5985  120.8219   60.6970 H   0  0  0  0  0  0  0  0  0  0  0  0
  133.5016  118.7537   59.6449 H   0  0  0  0  0  0  0  0  0  0  0  0
  132.2312  116.6209   59.8098 H   0  0  0  0  0  0  0  0  0  0  0  0
  130.0551  116.5409   61.0159 H   0  0  0  0  0  0  0  0  0  0  0  0
  129.1417  118.6059   62.0692 H   0  0  0  0  0  0  0  0  0  0  0  0
  125.4076  123.8801   62.6644 H   0  0  0  0  0  0  0  0  0  0  0  0
  130.8429  128.6068   63.2418 H   0  0  0  0  0  0  0  0  0  0  0  0
  130.8213  128.2700   61.5422 H   0  0  0  0  0  0  0  0  0  0  0  0
  129.9923  130.6033   61.6060 H   0  0  0  0  0  0  0  0  0  0  0  0
  129.9610  130.8710   63.7510 H   0  0  0  0  0  0  0  0  0  0  0  0
  130.2517  132.0471   60.9059 H   0  0  0  0  0  0  0  0  0  0  0  0
  132.2379  132.7858   62.2069 H   0  0  0  0  0  0  0  0  0  0  0  0
  134.5137  132.0402   61.5281 H   0  0  0  0  0  0  0  0  0  0  0  0
  134.8140  130.5544   59.5535 H   0  0  0  0  0  0  0  0  0  0  0  0
  132.8318  129.8144   58.2438 H   0  0  0  0  0  0  0  0  0  0  0  0
  131.9559  132.3924   57.9300 H   0  0  0  0  0  0  0  0  0  0  0  0
  131.8278  133.9759   56.0153 H   0  0  0  0  0  0  0  0  0  0  0  0
  129.8681  133.9103   54.4796 H   0  0  0  0  0  0  0  0  0  0  0  0
  128.0321  132.2724   54.8550 H   0  0  0  0  0  0  0  0  0  0  0  0
  128.1550  130.6862   56.7668 H   0  0  0  0  0  0  0  0  0  0  0  0
  131.4589  128.4046   59.9958 H   0  0  0  0  0  0  0  0  0  0  0  0
  131.5092  125.9772   59.4810 H   0  0  0  0  0  0  0  0  0  0  0  0
  1  2  1  0
  2  3  1  0
  3  4  2  0
  4  5  1  0
  5  6  2  0
  6  7  1  0
  7  8  1  0
  8  9  1  0
  9 10  1  0
 10 11  1  0
 11 12  1  0
 12 13  1  0
 13 14  1  0
 14 15  2  0
 15 16  1  0
 16 17  2  0
 17 18  1  0
 18 19  1  0
 19 20  2  0
 19 21  1  0
 21 22  2  0
 22 23  1  0
 23 24  2  0
 24 25  1  0
 25 26  2  0
 17 27  1  0
 27 28  2  0
 28 29  1  0
 29 30  2  0
 12 31  1  0
 31 32  1  0
 32 33  1  0
  7 34  1  0
 34 35  2  0
 35 36  1  0
 36 37  2  0
 37 38  1  0
 38 39  2  0
  7 40  1  0
 40 41  2  0
 41 42  1  0
 42 43  2  0
 43 44  1  0
 44 45  2  0
  6 46  1  0
 46 47  2  0
 47  3  1  0
 32 10  1  0
 39 34  1  0
 45 40  1  0
 30 13  1  0
 30 16  1  0
 26 21  1  0
  1 48  1  0
  1 49  1  0
  1 50  1  0
  4 51  1  0
  5 52  1  0
  9 53  1  0
  9 54  1  0
 10 55  1  1
 12 56  1  1
 14 57  1  0
 18 58  1  0
 22 59  1  0
 23 60  1  0
 24 61  1  0
 25 62  1  0
 26 63  1  0
 28 64  1  0
 31 65  1  0
 31 66  1  0
 32 67  1  6
 33 68  1  0
 35 69  1  0
 36 70  1  0
 37 71  1  0
 38 72  1  0
 39 73  1  0
 41 74  1  0
 42 75  1  0
 43 76  1  0
 44 77  1  0
 45 78  1  0
 46 79  1  0
 47 80  1  0
M  END
>  <Binding energies>  (1) 
[-10.54]

>  <Ligand effiencies>  (1) 
[-0.2151020408163265]

>  <Interactions>  (1) 
["V-A:LEU:363:CA:3184, V-A:TYR:539:CZ:4876, V-A:ASP:366:CG:3212, V-A:ASN:362:C:3171, V-A:PRO:540:CB:4884, V-A:TYR:539:CE1:4874, H-A:GLU:543:OE2:4909, V-A:ASP:366:CB:3211, V-A:PRO:540:CA:4882, V-A:ILE:538:CA:4859, V-B:GLU:543:CD:9879, H-B:ALA:541:N:9862, V-B:ALA:541:CB:9863, V-B:PRO:540:CA:9854, V-B:PRO:540:C:9852, V-B:TYR:539:C:9838, V-A:LEU:475:CD2:4258, V-A:PRO:482:CG:4326, V-A:HIS:383:CE1:3393, H-B:TYR:539:O:9839, V-B:TYR:539:CD2:9845, V-B:TYR:539:CE2:9847, V-B:MET:535:CE:9806, H-B:TYR:539:OH:9849, V-B:TYR:539:CZ:9848, V-A:PRO:482:CB:4325, H-A:GLU:543:OE1:4908, V-A:ILE:538:CB:4861, V-A:ASN:362:CB:3175, V-A:PRO:540:C:4880, V-A:ASN:362:CA:3173"]

$$$$
RR8_A_Rahimova_2017
     RDKit          3D

 73 77  0  0  0  0  0  0  0  0999 V2000
  125.1020  123.2150   62.2860 O   0  0  0  0  0  0  0  0  0  0  0  0
  125.8650  123.8550   61.5540 C   0  0  0  0  0  0  0  0  0  0  0  0
  126.6390  124.9040   61.9730 O   0  0  0  0  0  0  0  0  0  0  0  0
  127.7610  124.6080   62.7590 C   0  0  1  0  0  0  0  0  0  0  0  0
  127.5340  123.5040   63.5870 O   0  0  0  0  0  0  0  0  0  0  0  0
  128.6900  122.6790   63.6990 C   0  0  2  0  0  0  0  0  0  0  0  0
  129.0410  122.5260   65.1890 C   0  0  0  0  0  0  0  0  0  0  0  0
  130.3160  123.1080   65.4210 O   0  0  0  0  0  0  0  0  0  0  0  0
  131.4060  122.2250   65.1850 C   0  0  0  0  0  0  0  0  0  0  0  0
  132.4310  122.9010   64.2870 C   0  0  0  0  0  0  0  0  0  0  0  0
  133.2450  122.1290   63.4550 C   0  0  0  0  0  0  0  0  0  0  0  0
  134.1810  122.7450   62.6270 C   0  0  0  0  0  0  0  0  0  0  0  0
  134.2970  124.1340   62.6310 C   0  0  0  0  0  0  0  0  0  0  0  0
  133.4850  124.9120   63.4530 C   0  0  0  0  0  0  0  0  0  0  0  0
  132.5490  124.2960   64.2790 C   0  0  0  0  0  0  0  0  0  0  0  0
  129.7390  123.4030   62.8440 C   0  0  1  0  0  0  0  0  0  0  0  0
  130.5680  122.5120   62.1000 O   0  0  0  0  0  0  0  0  0  0  0  0
  129.9180  121.3630   61.5700 C   0  0  0  0  0  0  0  0  0  0  0  0
  130.9460  120.2900   61.2410 C   0  0  0  0  0  0  0  0  0  0  0  0
  132.2020  120.6600   60.7490 C   0  0  0  0  0  0  0  0  0  0  0  0
  133.1440  119.6840   60.4370 C   0  0  0  0  0  0  0  0  0  0  0  0
  132.8280  118.3380   60.6150 C   0  0  0  0  0  0  0  0  0  0  0  0
  131.5780  117.9600   61.0970 C   0  0  0  0  0  0  0  0  0  0  0  0
  130.6340  118.9360   61.4080 C   0  0  0  0  0  0  0  0  0  0  0  0
  128.9010  124.1800   61.8460 C   0  0  2  0  0  0  0  0  0  0  0  0
  129.6440  125.2710   61.3080 O   0  0  0  0  0  0  0  0  0  0  0  0
  129.6690  125.3590   59.8870 C   0  0  0  0  0  0  0  0  0  0  0  0
  131.0780  125.1010   59.3760 C   0  0  0  0  0  0  0  0  0  0  0  0
  131.8770  124.1230   59.9780 C   0  0  0  0  0  0  0  0  0  0  0  0
  133.1630  123.8840   59.5000 C   0  0  0  0  0  0  0  0  0  0  0  0
  133.6460  124.6200   58.4210 C   0  0  0  0  0  0  0  0  0  0  0  0
  132.8550  125.5920   57.8130 C   0  0  0  0  0  0  0  0  0  0  0  0
  131.5680  125.8320   58.2900 C   0  0  0  0  0  0  0  0  0  0  0  0
  126.0470  123.5480   60.0960 C   0  0  0  0  0  0  0  0  0  0  0  0
  127.2510  123.0320   59.5910 C   0  0  0  0  0  0  0  0  0  0  0  0
  127.3900  122.7590   58.2330 C   0  0  0  0  0  0  0  0  0  0  0  0
  126.3310  122.9930   57.3460 C   0  0  0  0  0  0  0  0  0  0  0  0
  126.4790  122.6990   55.9000 N   0  0  0  0  0  0  0  0  0  0  0  0
  125.6710  123.1860   55.1140 O   0  0  0  0  0  0  0  0  0  0  0  0
  127.4070  121.9810   55.5370 O   0  0  0  0  0  0  0  0  0  0  0  0
  125.1310  123.5100   57.8500 C   0  0  0  0  0  0  0  0  0  0  0  0
  124.9910  123.7840   59.2070 C   0  0  0  0  0  0  0  0  0  0  0  0
  127.9845  125.5062   63.3533 H   0  0  0  0  0  0  0  0  0  0  0  0
  128.5812  121.6458   63.3375 H   0  0  0  0  0  0  0  0  0  0  0  0
  128.2840  123.0376   65.8016 H   0  0  0  0  0  0  0  0  0  0  0  0
  129.0616  121.4603   65.4606 H   0  0  0  0  0  0  0  0  0  0  0  0
  131.8772  121.9620   66.1436 H   0  0  0  0  0  0  0  0  0  0  0  0
  131.0356  121.3141   64.6921 H   0  0  0  0  0  0  0  0  0  0  0  0
  133.1470  121.0334   63.4535 H   0  0  0  0  0  0  0  0  0  0  0  0
  134.8251  122.1383   61.9735 H   0  0  0  0  0  0  0  0  0  0  0  0
  135.0370  124.6206   61.9786 H   0  0  0  0  0  0  0  0  0  0  0  0
  133.5829  126.0076   63.4494 H   0  0  0  0  0  0  0  0  0  0  0  0
  131.9014  124.9059   64.9261 H   0  0  0  0  0  0  0  0  0  0  0  0
  130.4084  124.0004   63.4803 H   0  0  0  0  0  0  0  0  0  0  0  0
  129.2073  120.9713   62.3126 H   0  0  0  0  0  0  0  0  0  0  0  0
  129.3810  121.6428   60.6517 H   0  0  0  0  0  0  0  0  0  0  0  0
  132.4455  121.7235   60.6085 H   0  0  0  0  0  0  0  0  0  0  0  0
  134.1329  119.9733   60.0519 H   0  0  0  0  0  0  0  0  0  0  0  0
  133.5739  117.5669   60.3721 H   0  0  0  0  0  0  0  0  0  0  0  0
  131.3367  116.8953   61.2317 H   0  0  0  0  0  0  0  0  0  0  0  0
  129.6432  118.6424   61.7849 H   0  0  0  0  0  0  0  0  0  0  0  0
  128.5704  123.6355   60.9492 H   0  0  0  0  0  0  0  0  0  0  0  0
  128.9846  124.6093   59.4632 H   0  0  0  0  0  0  0  0  0  0  0  0
  129.3524  126.3672   59.5814 H   0  0  0  0  0  0  0  0  0  0  0  0
  131.4896  123.5430   60.8286 H   0  0  0  0  0  0  0  0  0  0  0  0
  133.7944  123.1173   59.9726 H   0  0  0  0  0  0  0  0  0  0  0  0
  134.6625  124.4319   58.0450 H   0  0  0  0  0  0  0  0  0  0  0  0
  133.2445  126.1674   56.9603 H   0  0  0  0  0  0  0  0  0  0  0  0
  130.9378  126.5965   57.8121 H   0  0  0  0  0  0  0  0  0  0  0  0
  128.0918  122.8418   60.2743 H   0  0  0  0  0  0  0  0  0  0  0  0
  128.3402  122.3558   57.8528 H   0  0  0  0  0  0  0  0  0  0  0  0
  124.2908  123.7014   57.1663 H   0  0  0  0  0  0  0  0  0  0  0  0
  124.0413  124.1901   59.5853 H   0  0  0  0  0  0  0  0  0  0  0  0
  1  2  2  0
  2  3  1  0
  3  4  1  0
  4  5  1  0
  5  6  1  0
  6  7  1  0
  7  8  1  0
  8  9  1  0
  9 10  1  0
 10 11  2  0
 11 12  1  0
 12 13  2  0
 13 14  1  0
 14 15  2  0
  6 16  1  0
 16 17  1  0
 17 18  1  0
 18 19  1  0
 19 20  2  0
 20 21  1  0
 21 22  2  0
 22 23  1  0
 23 24  2  0
 16 25  1  0
 25 26  1  0
 26 27  1  0
 27 28  1  0
 28 29  2  0
 29 30  1  0
 30 31  2  0
 31 32  1  0
 32 33  2  0
  2 34  1  0
 34 35  2  0
 35 36  1  0
 36 37  2  0
 37 38  1  0
 38 39  2  0
 38 40  1  0
 37 41  1  0
 41 42  2  0
 25  4  1  0
 33 28  1  0
 42 34  1  0
 15 10  1  0
 24 19  1  0
  4 43  1  1
  6 44  1  6
  7 45  1  0
  7 46  1  0
  9 47  1  0
  9 48  1  0
 11 49  1  0
 12 50  1  0
 13 51  1  0
 14 52  1  0
 15 53  1  0
 16 54  1  1
 18 55  1  0
 18 56  1  0
 20 57  1  0
 21 58  1  0
 22 59  1  0
 23 60  1  0
 24 61  1  0
 25 62  1  6
 27 63  1  0
 27 64  1  0
 29 65  1  0
 30 66  1  0
 31 67  1  0
 32 68  1  0
 33 69  1  0
 35 70  1  0
 36 71  1  0
 41 72  1  0
 42 73  1  0
M  CHG  2  38   1  40  -1
M  END
>  <Binding energies>  (1) 
[-11.38]

>  <Ligand effiencies>  (1) 
[-0.27095238095238094]

>  <Interactions>  (1) 
["V-A:ASP:366:CG:3212, V-A:ASP:366:CB:3211, V-B:GLU:543:CD:9879, V-B:PRO:540:N:9855, H-B:ALA:541:N:9862, H-A:TYR:484:OH:4347, V-B:ALA:541:CB:9863, V-B:PRO:540:CA:9854, V-B:ALA:541:CA:9861, V-B:TYR:539:C:9838, V-A:LEU:475:CD2:4258, V-A:ILE:369:CD1:3238, V-B:TYR:539:CD2:9845, V-A:ILE:369:CG2:3236, V-B:TYR:539:CE2:9847, V-A:SER:385:CA:3406, V-A:SER:385:CB:3408, V-A:GLY:454:CA:4048, H-B:TYR:539:N:9841, V-B:MET:535:CE:9806, V-B:TYR:539:CZ:9848, V-B:GLU:543:CG:9878, V-A:LEU:475:CD1:4257, V-B:PRO:540:CB:9856, V-A:GLY:453:C:4041, V-B:LEU:363:CD1:8159, V-B:ILE:538:CA:9831, V-A:GLY:453:CA:4043, V-A:TYR:484:CZ:4346, V-A:TYR:484:CE2:4345, H-B:TYR:531:OH:9766, V-B:MET:535:CG:9804, V-A:ILE:369:CB:3235, V-A:LEU:475:CG:4256, V-A:ASP:366:CA:3209, V-A:ASP:366:C:3207"]

$$$$
RR8_B_Rahimova_2017
     RDKit          3D

 73 77  0  0  0  0  0  0  0  0999 V2000
  128.6460  125.5260   63.3350 O   0  0  0  0  0  0  0  0  0  0  0  0
  128.4640  125.3030   62.1340 C   0  0  0  0  0  0  0  0  0  0  0  0
  127.2390  125.0910   61.5640 O   0  0  0  0  0  0  0  0  0  0  0  0
  126.6440  123.8260   61.7210 C   0  0  2  0  0  0  0  0  0  0  0  0
  126.8760  123.2940   62.9940 O   0  0  0  0  0  0  0  0  0  0  0  0
  128.0540  122.4890   63.0170 C   0  0  2  0  0  0  0  0  0  0  0  0
  129.0370  123.0480   64.0620 C   0  0  0  0  0  0  0  0  0  0  0  0
  130.0260  122.0660   64.3450 O   0  0  0  0  0  0  0  0  0  0  0  0
  131.1170  122.5250   65.1300 C   0  0  0  0  0  0  0  0  0  0  0  0
  132.2260  123.0110   64.2100 C   0  0  0  0  0  0  0  0  0  0  0  0
  132.8630  122.1090   63.3530 C   0  0  0  0  0  0  0  0  0  0  0  0
  133.8960  122.5420   62.5260 C   0  0  0  0  0  0  0  0  0  0  0  0
  134.2880  123.8790   62.5570 C   0  0  0  0  0  0  0  0  0  0  0  0
  133.6540  124.7860   63.4040 C   0  0  0  0  0  0  0  0  0  0  0  0
  132.6230  124.3520   64.2330 C   0  0  0  0  0  0  0  0  0  0  0  0
  128.5520  122.5040   61.5680 C   0  0  1  0  0  0  0  0  0  0  0  0
  129.1230  121.2350   61.2370 O   0  0  0  0  0  0  0  0  0  0  0  0
  130.5460  121.1740   61.1160 C   0  0  0  0  0  0  0  0  0  0  0  0
  131.0650  119.7390   61.1160 C   0  0  0  0  0  0  0  0  0  0  0  0
  130.2290  118.6910   61.5120 C   0  0  0  0  0  0  0  0  0  0  0  0
  130.6950  117.3800   61.4790 C   0  0  0  0  0  0  0  0  0  0  0  0
  131.9970  117.1210   61.0550 C   0  0  0  0  0  0  0  0  0  0  0  0
  132.8370  118.1610   60.6630 C   0  0  0  0  0  0  0  0  0  0  0  0
  132.3700  119.4730   60.6920 C   0  0  0  0  0  0  0  0  0  0  0  0
  127.3000  122.8320   60.7630 C   0  0  2  0  0  0  0  0  0  0  0  0
  127.6530  123.3960   59.5020 O   0  0  0  0  0  0  0  0  0  0  0  0
  126.6130  124.0840   58.8250 C   0  0  0  0  0  0  0  0  0  0  0  0
  126.3200  123.3470   57.5290 C   0  0  0  0  0  0  0  0  0  0  0  0
  127.3560  122.7470   56.8090 C   0  0  0  0  0  0  0  0  0  0  0  0
  127.0780  122.0900   55.6130 C   0  0  0  0  0  0  0  0  0  0  0  0
  125.7690  122.0370   55.1410 C   0  0  0  0  0  0  0  0  0  0  0  0
  124.7310  122.6320   55.8560 C   0  0  0  0  0  0  0  0  0  0  0  0
  125.0070  123.2880   57.0520 C   0  0  0  0  0  0  0  0  0  0  0  0
  129.5840  125.1980   61.1390 C   0  0  0  0  0  0  0  0  0  0  0  0
  130.8180  124.6220   61.4730 C   0  0  0  0  0  0  0  0  0  0  0  0
  131.8400  124.5470   60.5340 C   0  0  0  0  0  0  0  0  0  0  0  0
  131.6600  125.0540   59.2410 C   0  0  0  0  0  0  0  0  0  0  0  0
  132.7620  124.9960   58.2480 N   0  0  0  0  0  0  0  0  0  0  0  0
  133.6120  124.1180   58.3630 O   0  0  0  0  0  0  0  0  0  0  0  0
  132.7810  125.8260   57.3420 O   0  0  0  0  0  0  0  0  0  0  0  0
  130.4250  125.6240   58.9060 C   0  0  0  0  0  0  0  0  0  0  0  0
  129.3990  125.6930   59.8420 C   0  0  0  0  0  0  0  0  0  0  0  0
  125.5680  123.9648   61.5397 H   0  0  0  0  0  0  0  0  0  0  0  0
  127.9005  121.4463   63.3320 H   0  0  0  0  0  0  0  0  0  0  0  0
  129.5201  123.9533   63.6656 H   0  0  0  0  0  0  0  0  0  0  0  0
  128.4926  123.3010   64.9837 H   0  0  0  0  0  0  0  0  0  0  0  0
  130.7843  123.3524   65.7741 H   0  0  0  0  0  0  0  0  0  0  0  0
  131.4916  121.7033   65.7581 H   0  0  0  0  0  0  0  0  0  0  0  0
  132.5477  121.0554   63.3319 H   0  0  0  0  0  0  0  0  0  0  0  0
  134.3996  121.8331   61.8523 H   0  0  0  0  0  0  0  0  0  0  0  0
  135.1060  124.2218   61.9064 H   0  0  0  0  0  0  0  0  0  0  0  0
  133.9668  125.8405   63.4176 H   0  0  0  0  0  0  0  0  0  0  0  0
  132.1211  125.0632   64.9055 H   0  0  0  0  0  0  0  0  0  0  0  0
  129.3512  123.2332   61.3690 H   0  0  0  0  0  0  0  0  0  0  0  0
  130.8421  121.6575   60.1734 H   0  0  0  0  0  0  0  0  0  0  0  0
  130.9806  121.6896   61.9851 H   0  0  0  0  0  0  0  0  0  0  0  0
  129.2036  118.9023   61.8494 H   0  0  0  0  0  0  0  0  0  0  0  0
  130.0388  116.5523   61.7861 H   0  0  0  0  0  0  0  0  0  0  0  0
  132.3652  116.0848   61.0296 H   0  0  0  0  0  0  0  0  0  0  0  0
  133.8640  117.9471   60.3322 H   0  0  0  0  0  0  0  0  0  0  0  0
  133.0273  120.2986   60.3816 H   0  0  0  0  0  0  0  0  0  0  0  0
  126.6501  121.9882   60.4882 H   0  0  0  0  0  0  0  0  0  0  0  0
  125.7103  124.1053   59.4533 H   0  0  0  0  0  0  0  0  0  0  0  0
  126.9184  125.1191   58.6123 H   0  0  0  0  0  0  0  0  0  0  0  0
  128.3884  122.7934   57.1857 H   0  0  0  0  0  0  0  0  0  0  0  0
  127.8898  121.6145   55.0430 H   0  0  0  0  0  0  0  0  0  0  0  0
  125.5520  121.5204   54.1944 H   0  0  0  0  0  0  0  0  0  0  0  0
  123.6995  122.5834   55.4771 H   0  0  0  0  0  0  0  0  0  0  0  0
  124.1928  123.7597   57.6216 H   0  0  0  0  0  0  0  0  0  0  0  0
  130.9786  124.2262   62.4867 H   0  0  0  0  0  0  0  0  0  0  0  0
  132.7996  124.0849   60.8091 H   0  0  0  0  0  0  0  0  0  0  0  0
  130.2653  126.0209   57.8926 H   0  0  0  0  0  0  0  0  0  0  0  0
  128.4339  126.1401   59.5614 H   0  0  0  0  0  0  0  0  0  0  0  0
  1  2  2  0
  2  3  1  0
  3  4  1  0
  4  5  1  0
  5  6  1  0
  6  7  1  0
  7  8  1  0
  8  9  1  0
  9 10  1  0
 10 11  2  0
 11 12  1  0
 12 13  2  0
 13 14  1  0
 14 15  2  0
  6 16  1  0
 16 17  1  0
 17 18  1  0
 18 19  1  0
 19 20  2  0
 20 21  1  0
 21 22  2  0
 22 23  1  0
 23 24  2  0
 16 25  1  0
 25 26  1  0
 26 27  1  0
 27 28  1  0
 28 29  2  0
 29 30  1  0
 30 31  2  0
 31 32  1  0
 32 33  2  0
  2 34  1  0
 34 35  2  0
 35 36  1  0
 36 37  2  0
 37 38  1  0
 38 39  2  0
 38 40  1  0
 37 41  1  0
 41 42  2  0
 25  4  1  0
 33 28  1  0
 42 34  1  0
 15 10  1  0
 24 19  1  0
  4 43  1  6
  6 44  1  1
  7 45  1  0
  7 46  1  0
  9 47  1  0
  9 48  1  0
 11 49  1  0
 12 50  1  0
 13 51  1  0
 14 52  1  0
 15 53  1  0
 16 54  1  1
 18 55  1  0
 18 56  1  0
 20 57  1  0
 21 58  1  0
 22 59  1  0
 23 60  1  0
 24 61  1  0
 25 62  1  6
 27 63  1  0
 27 64  1  0
 29 65  1  0
 30 66  1  0
 31 67  1  0
 32 68  1  0
 33 69  1  0
 35 70  1  0
 36 71  1  0
 41 72  1  0
 42 73  1  0
M  CHG  2  38   1  40  -1
M  END
>  <Binding energies>  (1) 
[-10.24]

>  <Ligand effiencies>  (1) 
[-0.2438095238095238]

>  <Interactions>  (1) 
["V-A:ASP:366:CG:3212, V-A:ASP:366:CB:3211, V-B:GLU:543:CD:9879, V-B:PRO:540:N:9855, H-B:ALA:541:N:9862, V-B:ALA:541:CB:9863, V-B:PRO:540:CA:9854, V-B:ALA:541:CA:9861, V-B:PRO:540:C:9852, V-B:TYR:539:C:9838, V-A:LEU:475:CD2:4258, V-A:PRO:482:CG:4326, V-A:HIS:383:CE1:3393, V-A:ILE:369:CD1:3238, V-B:TYR:539:CD2:9845, V-B:TYR:539:CE2:9847, V-A:SER:385:CA:3406, V-A:SER:385:CB:3408, V-A:GLY:454:CA:4048, V-A:THR:477:CG2:4272, V-B:MET:535:CE:9806, H-B:TYR:539:OH:9849, V-B:TYR:539:CZ:9848, V-A:PRO:482:CB:4325, V-B:GLU:543:CG:9878, V-A:LEU:475:CD1:4257, V-B:ALA:541:C:9859, V-B:PRO:540:CB:9856, V-A:GLY:453:C:4041, V-B:TYR:539:CD1:9844, V-B:TYR:531:CZ:9765, V-B:TYR:531:CE2:9764, V-B:LEU:363:CD1:8159, V-B:ILE:538:CD1:9836, V-B:ILE:538:CG2:9834, V-B:ILE:538:CA:9831, V-B:TYR:539:CE1:9846, V-B:ILE:538:CG1:9835, V-B:ILE:538:C:9829, V-B:ILE:538:CB:9833, V-A:TYR:484:CZ:4346, V-A:TYR:484:CE2:4345, V-B:MET:535:CG:9804, V-A:VAL:384:C:3396, V-A:ASP:366:CA:3209"]

$$$$
RR9_Rahimova_2017
     RDKit          3D

 64 68  0  0  0  0  0  0  0  0999 V2000
  124.6560  130.9160   55.5980 C   0  0  0  0  0  0  0  0  0  0  0  0
  125.0350  130.8330   54.1160 C   0  0  0  0  0  0  0  0  0  0  0  0
  126.4500  130.9430   53.9990 O   0  0  0  0  0  0  0  0  0  0  0  0
  127.2600  130.1280   54.7660 C   0  0  0  0  0  0  0  0  0  0  0  0
  126.9940  128.7610   54.7160 C   0  0  0  0  0  0  0  0  0  0  0  0
  127.7560  127.8630   55.4570 C   0  0  0  0  0  0  0  0  0  0  0  0
  128.8080  128.3090   56.2710 C   0  0  0  0  0  0  0  0  0  0  0  0
  129.6300  127.3460   57.0760 C   0  0  0  0  0  0  0  0  0  0  0  0
  129.1370  126.7630   58.2540 C   0  0  0  0  0  0  0  0  0  0  0  0
  129.9060  125.8510   58.9980 C   0  0  0  0  0  0  0  0  0  0  0  0
  129.2850  125.1850   60.1950 C   0  0  0  0  0  0  0  0  0  0  0  0
  129.9840  124.8310   61.1450 O   0  0  0  0  0  0  0  0  0  0  0  0
  127.9520  124.9920   60.1320 N   0  0  0  0  0  0  0  0  0  0  0  0
  127.1430  124.2530   61.1070 C   0  0  0  0  0  0  0  0  0  0  0  0
  125.9520  123.5060   60.4630 C   0  0  0  0  0  0  0  0  0  0  0  0
  126.0920  123.2550   58.9660 C   0  0  0  0  0  0  0  0  0  0  0  0
  127.2900  122.7550   58.4470 C   0  0  0  0  0  0  0  0  0  0  0  0
  127.4030  122.4940   57.0840 C   0  0  0  0  0  0  0  0  0  0  0  0
  126.3190  122.7380   56.2430 C   0  0  0  0  0  0  0  0  0  0  0  0
  125.1230  123.2400   56.7530 C   0  0  0  0  0  0  0  0  0  0  0  0
  125.0090  123.5000   58.1160 C   0  0  0  0  0  0  0  0  0  0  0  0
  131.2090  125.5850   58.5100 C   0  0  0  0  0  0  0  0  0  0  0  0
  132.3700  124.8080   58.8770 C   0  0  0  0  0  0  0  0  0  0  0  0
  132.6110  123.9810   60.0960 C   0  0  0  0  0  0  0  0  0  0  0  0
  131.8410  122.8400   60.3370 C   0  0  0  0  0  0  0  0  0  0  0  0
  132.0560  122.0790   61.4830 C   0  0  0  0  0  0  0  0  0  0  0  0
  133.0470  122.4560   62.3920 C   0  0  0  0  0  0  0  0  0  0  0  0
  133.2700  121.6370   63.6510 C   0  0  0  0  0  0  0  0  0  0  0  0
  133.8170  123.5960   62.1570 C   0  0  0  0  0  0  0  0  0  0  0  0
  133.6010  124.3530   61.0090 C   0  0  0  0  0  0  0  0  0  0  0  0
  133.3060  124.9180   57.9610 N   0  0  0  0  0  0  0  0  0  0  0  0
  132.8690  125.7720   57.0230 N   0  0  0  0  0  0  0  0  0  0  0  0
  131.6020  126.2220   57.3080 C   0  0  0  0  0  0  0  0  0  0  0  0
  130.8750  127.0790   56.5920 N   0  0  0  0  0  0  0  0  0  0  0  0
  129.0680  129.6860   56.3180 C   0  0  0  0  0  0  0  0  0  0  0  0
  128.3070  130.5870   55.5760 C   0  0  0  0  0  0  0  0  0  0  0  0
  125.5453  130.7212   56.2154 H   0  0  0  0  0  0  0  0  0  0  0  0
  124.2674  131.9205   55.8214 H   0  0  0  0  0  0  0  0  0  0  0  0
  123.8831  130.1658   55.8214 H   0  0  0  0  0  0  0  0  0  0  0  0
  124.7034  129.8690   53.7027 H   0  0  0  0  0  0  0  0  0  0  0  0
  124.5488  131.6474   53.5589 H   0  0  0  0  0  0  0  0  0  0  0  0
  126.1739  128.3883   54.0848 H   0  0  0  0  0  0  0  0  0  0  0  0
  127.5303  126.7877   55.4038 H   0  0  0  0  0  0  0  0  0  0  0  0
  128.1272  127.0254   58.6025 H   0  0  0  0  0  0  0  0  0  0  0  0
  127.4500  125.3920   59.3530 H   0  0  0  0  0  0  0  0  0  0  0  0
  127.7871  123.5171   61.6107 H   0  0  0  0  0  0  0  0  0  0  0  0
  126.7275  124.9871   61.8130 H   0  0  0  0  0  0  0  0  0  0  0  0
  125.8458  122.5331   60.9651 H   0  0  0  0  0  0  0  0  0  0  0  0
  125.0733  124.1558   60.5883 H   0  0  0  0  0  0  0  0  0  0  0  0
  128.1433  122.5678   59.1154 H   0  0  0  0  0  0  0  0  0  0  0  0
  128.3431  122.0972   56.6732 H   0  0  0  0  0  0  0  0  0  0  0  0
  126.4081  122.5324   55.1661 H   0  0  0  0  0  0  0  0  0  0  0  0
  124.2727  123.4300   56.0815 H   0  0  0  0  0  0  0  0  0  0  0  0
  124.0680  123.8977   58.5238 H   0  0  0  0  0  0  0  0  0  0  0  0
  131.0626  122.5421   59.6191 H   0  0  0  0  0  0  0  0  0  0  0  0
  131.4467  121.1829   61.6720 H   0  0  0  0  0  0  0  0  0  0  0  0
  133.0979  122.2689   64.5348 H   0  0  0  0  0  0  0  0  0  0  0  0
  132.5702  120.7884   63.6652 H   0  0  0  0  0  0  0  0  0  0  0  0
  134.3034  121.2603   63.6652 H   0  0  0  0  0  0  0  0  0  0  0  0
  134.5926  123.8956   62.8772 H   0  0  0  0  0  0  0  0  0  0  0  0
  134.2123  125.2478   60.8198 H   0  0  0  0  0  0  0  0  0  0  0  0
  133.4500  126.0070   56.2300 H   0  0  0  0  0  0  0  0  0  0  0  0
  129.8859  130.0610   56.9508 H   0  0  0  0  0  0  0  0  0  0  0  0
  128.5292  131.6632   55.6264 H   0  0  0  0  0  0  0  0  0  0  0  0
  1  2  1  0
  2  3  1  0
  3  4  1  0
  4  5  2  0
  5  6  1  0
  6  7  2  0
  7  8  1  0
  8  9  2  0
  9 10  1  0
 10 11  1  0
 11 12  2  0
 11 13  1  0
 13 14  1  0
 14 15  1  0
 15 16  1  0
 16 17  2  0
 17 18  1  0
 18 19  2  0
 19 20  1  0
 20 21  2  0
 10 22  2  0
 22 23  1  0
 23 24  1  0
 24 25  2  0
 25 26  1  0
 26 27  2  0
 27 28  1  0
 27 29  1  0
 29 30  2  0
 23 31  2  0
 31 32  1  0
 32 33  1  0
 33 34  2  0
  7 35  1  0
 35 36  2  0
 36  4  1  0
 34  8  1  0
 21 16  1  0
 33 22  1  0
 30 24  1  0
  1 37  1  0
  1 38  1  0
  1 39  1  0
  2 40  1  0
  2 41  1  0
  5 42  1  0
  6 43  1  0
  9 44  1  0
 13 45  1  0
 14 46  1  0
 14 47  1  0
 15 48  1  0
 15 49  1  0
 17 50  1  0
 18 51  1  0
 19 52  1  0
 20 53  1  0
 21 54  1  0
 25 55  1  0
 26 56  1  0
 28 57  1  0
 28 58  1  0
 28 59  1  0
 29 60  1  0
 30 61  1  0
 32 62  1  0
 35 63  1  0
 36 64  1  0
M  END
>  <Binding energies>  (1) 
[-9.27]

>  <Ligand effiencies>  (1) 
[-0.2439473684210526]

>  <Interactions>  (1) 
["V-A:ASP:366:CG:3212, V-A:ASP:366:CB:3211, H-A:TYR:531:OH:4794, V-B:PRO:540:N:9855, V-B:PRO:540:CA:9854, V-B:TYR:539:C:9838, V-A:LEU:475:CD2:4258, V-A:ILE:369:CD1:3238, V-B:TYR:539:CD2:9845, V-B:TYR:539:CE2:9847, V-A:GLY:454:CA:4048, V-B:TYR:539:CG:9843, V-B:MET:535:CE:9806, H-B:TYR:539:OH:9849, V-B:TYR:539:CZ:9848, V-B:PRO:540:CB:9856, V-B:TYR:539:CA:9840, V-B:TYR:539:CD1:9844, V-B:TYR:531:CZ:9765, V-B:TYR:531:CE2:9764, V-B:LEU:363:CD1:8159, V-A:MET:535:CE:4834, H-A:ASP:366:O:3208, V-A:TYR:531:CE1:4791, V-B:TYR:531:CE1:9763, H-A:TYR:539:OH:4877, V-A:ASP:366:CA:3209, V-A:ASP:366:C:3207, V-A:ASN:370:CB:3244, V-B:ASN:370:CB:8215, H-B:LYS:534:NZ:9794, V-B:ASN:370:CG:8216, V-B:TYR:531:CD1:9761"]

$$$$
